
     RDKit          3D

 37 40  0  0  0  0  0  0  0  0999 V2000
   -5.5500   -2.5460    2.3600 C   0  0  0  0  0  0  0  0  0  0  0  0
   -5.5670   -1.7630    1.2230 O   0  0  0  0  0  0  0  0  0  0  0  0
   -6.5920   -1.1230    0.5620 C   0  0  0  0  0  0  0  0  0  0  0  0
   -7.8980   -1.1670    0.9760 C   0  0  0  0  0  0  0  0  0  0  0  0
   -8.5840   -0.4060    0.0200 C   0  0  0  0  0  0  0  0  0  0  0  0
  -10.0760   -0.1800    0.1310 C   0  0  0  0  0  0  0  0  0  0  0  0
   -7.6860    0.0210   -0.8250 N   0  0  0  0  0  0  0  0  0  0  0  0
   -6.4580   -0.3650   -0.5810 N   0  0  0  0  0  0  0  0  0  0  0  0
   -5.2290   -0.0130   -1.2230 C   0  0  0  0  0  0  0  0  0  0  0  0
   -4.0660    0.0290   -0.4770 C   0  0  0  0  0  0  0  0  0  0  0  0
   -2.8460    0.5010   -0.9590 C   0  0  0  0  0  0  0  0  0  0  0  0
   -1.6820    0.4850   -0.1000 C   0  0  0  0  0  0  0  0  0  0  0  0
   -0.9680    1.4680    0.3360 C   0  0  0  0  0  0  0  0  0  0  0  0
   -1.2850    2.8680   -0.0370 C   0  0  0  0  0  0  0  0  0  0  0  0
    0.2730    1.2630    1.1000 C   0  0  0  0  0  0  0  0  0  0  0  0
    0.4940    1.7310    2.3550 N   0  0  0  0  0  0  0  0  0  0  0  0
    1.8100    1.5640    2.6150 N   0  0  0  0  0  0  0  0  0  0  0  0
    2.3930    1.0280    1.5770 C   0  0  0  0  0  0  0  0  0  0  0  0
    3.7570    0.5840    1.3130 C   0  0  0  0  0  0  0  0  0  0  0  0
    4.4690    1.3510    0.3950 C   0  0  0  0  0  0  0  0  0  0  0  0
    5.5950    0.8440   -0.1950 C   0  0  0  0  0  0  0  0  0  0  0  0
    6.0750   -0.4220    0.0990 C   0  0  0  0  0  0  0  0  0  0  0  0
    7.3210   -0.8740   -0.6190 C   0  0  0  0  0  0  0  0  0  0  0  0
    8.5790   -0.4840    0.1060 C   0  0  0  0  0  0  0  0  0  0  0  0
    8.6890    0.8830    0.2360 O   0  0  0  0  0  0  0  0  0  0  0  0
    5.4150   -1.1770    1.0200 C   0  0  0  0  0  0  0  0  0  0  0  0
    5.7870   -2.6120    1.1200 C   0  0  0  0  0  0  0  0  0  0  0  0
    6.2350   -2.9790    2.4030 O   0  0  0  0  0  0  0  0  0  0  0  0
    4.2440   -0.6460    1.6090 C   0  0  0  0  0  0  0  0  0  0  0  0
    3.4170   -1.6500    2.8050 Cl  0  0  0  0  0  0  0  0  0  0  0  0
    1.4220    0.8140    0.5790 N   0  0  0  0  0  0  0  0  0  0  0  0
    1.7290    0.3270   -0.6850 C   0  0  0  0  0  0  0  0  0  0  0  0
    1.1670    0.9890   -1.9470 C   0  0  0  0  0  0  0  0  0  0  0  0
    1.4300    2.3180   -2.0060 O   0  0  0  0  0  0  0  0  0  0  0  0
   -2.9090    0.9270   -2.3120 C   0  0  0  0  0  0  0  0  0  0  0  0
   -4.0680    0.8710   -3.0440 C   0  0  0  0  0  0  0  0  0  0  0  0
   -5.2070    0.4030   -2.4920 N   0  0  0  0  0  0  0  0  0  0  0  0
  1  2  1  0
  2  3  1  0
  3  4  2  0
  3  8  1  0
  4  5  1  0
  5  6  1  0
  5  7  2  0
  7  8  1  0
  8  9  1  0
  9 10  2  0
  9 37  1  0
 10 11  1  0
 11 12  1  0
 11 35  2  0
 12 13  2  3
 13 14  1  0
 13 15  1  0
 15 16  2  0
 15 31  1  0
 16 17  1  0
 17 18  2  0
 18 19  1  0
 18 31  1  0
 19 20  2  0
 19 29  1  0
 20 21  1  0
 21 22  2  0
 22 23  1  0
 22 26  1  0
 23 24  1  0
 24 25  1  0
 26 27  1  0
 26 29  2  0
 27 28  1  0
 29 30  1  0
 31 32  1  0
 32 33  1  0
 33 34  1  0
 35 36  1  0
 36 37  2  0
M  END
