
     RDKit          3D

 37 40  0  0  0  0  0  0  0  0999 V2000
   -5.2310    1.4800   -3.4200 C   0  0  0  0  0  0  0  0  0  0  0  0
   -5.9590    1.2300   -2.1930 N   0  0  0  0  0  0  0  0  0  0  0  0
   -5.6140    1.9450   -1.0170 C   0  0  0  0  0  0  0  0  0  0  0  0
   -4.5150    1.4770   -0.1740 C   0  0  0  0  0  0  0  0  0  0  0  0
   -4.2080    2.1050    0.8590 O   0  0  0  0  0  0  0  0  0  0  0  0
   -3.7950    0.3180   -0.5240 N   0  0  0  0  0  0  0  0  0  0  0  0
   -2.7010   -0.2470    0.1730 C   0  0  0  0  0  0  0  0  0  0  0  0
   -2.3560   -1.5580   -0.1430 C   0  0  0  0  0  0  0  0  0  0  0  0
   -1.2750   -2.1810    0.4630 C   0  0  0  0  0  0  0  0  0  0  0  0
   -0.4820   -1.5300    1.4130 C   0  0  0  0  0  0  0  0  0  0  0  0
    0.6090   -2.1610    2.0520 N   0  0  0  0  0  0  0  0  0  0  0  0
    1.5710   -1.3830    2.7950 C   0  0  0  0  0  0  0  0  0  0  0  0
    2.4210   -0.5470    1.9090 C   0  0  0  0  0  0  0  0  0  0  0  0
    2.1290    0.5580    1.2190 N   0  0  0  0  0  0  0  0  0  0  0  0
    3.1640    1.0310    0.5280 C   0  0  0  0  0  0  0  0  0  0  0  0
    4.2100    0.1550    0.7990 C   0  0  0  0  0  0  0  0  0  0  0  0
    3.7290   -0.7790    1.6290 N   0  0  0  0  0  0  0  0  0  0  0  0
    5.5070    0.4570    0.1450 C   0  0  0  0  0  0  0  0  0  0  0  0
    5.7560    1.9450    0.4290 C   0  0  0  0  0  0  0  0  0  0  0  0
    4.7560    2.6850   -0.2930 N   0  0  0  0  0  0  0  0  0  0  0  0
    5.0840    3.8950   -0.9140 C   0  0  0  0  0  0  0  0  0  0  0  0
    6.2470    4.3450   -0.8450 O   0  0  0  0  0  0  0  0  0  0  0  0
    4.0680    4.6700   -1.6660 C   0  0  0  0  0  0  0  0  0  0  0  0
    3.2810    5.7670   -0.5210 Cl  0  0  0  0  0  0  0  0  0  0  0  0
    3.4050    2.1820   -0.3790 C   0  0  0  0  0  0  0  0  0  0  0  0
    0.7940   -3.5850    1.9910 C   0  0  0  0  0  0  0  0  0  0  0  0
    2.0130   -3.9660    1.1720 C   0  0  1  0  0  0  0  0  0  0  0  0
    2.0730   -5.4680    1.1000 C   0  0  0  0  0  0  0  0  0  0  0  0
    1.2920   -5.7710   -0.1580 C   0  0  0  0  0  0  0  0  0  0  0  0
    1.5940   -4.5350   -0.9780 C   0  0  0  0  0  0  0  0  0  0  0  0
    1.9220   -3.5360   -0.1130 O   0  0  0  0  0  0  0  0  0  0  0  0
   -0.8580   -0.2300    1.7010 C   0  0  0  0  0  0  0  0  0  0  0  0
   -1.9360    0.4120    1.1060 C   0  0  0  0  0  0  0  0  0  0  0  0
   -6.2860    3.0210   -0.7040 C   0  0  0  0  0  0  0  0  0  0  0  0
   -6.0050    3.8330    0.4980 C   0  0  0  0  0  0  0  0  0  0  0  0
   -7.3750    3.4580   -1.5940 C   0  0  0  0  0  0  0  0  0  0  0  0
   -8.0520    4.4920   -1.3260 O   0  0  0  0  0  0  0  0  0  0  0  0
  1  2  1  0
  2  3  1  0
  3  4  1  0
  3 34  2  3
  4  5  2  0
  4  6  1  0
  6  7  1  0
  7  8  2  0
  7 33  1  0
  8  9  1  0
  9 10  2  0
 10 11  1  0
 10 32  1  0
 11 12  1  0
 11 26  1  0
 12 13  1  0
 13 14  2  0
 13 17  1  0
 14 15  1  0
 15 16  2  0
 15 25  1  0
 16 17  1  0
 16 18  1  0
 18 19  1  0
 19 20  1  0
 20 21  1  0
 20 25  1  0
 21 22  2  0
 21 23  1  0
 23 24  1  0
 27 26  1  1
 27 28  1  0
 27 31  1  0
 28 29  1  0
 29 30  1  0
 30 31  1  0
 32 33  2  0
 34 35  1  0
 34 36  1  0
 36 37  2  0
M  END
