
     RDKit          3D

 37 40  0  0  0  0  0  0  0  0999 V2000
    0.6620   -2.0490   -3.1500 C   0  0  0  0  0  0  0  0  0  0  0  0
    2.0290   -1.6480   -2.7320 C   0  0  0  0  0  0  0  0  0  0  0  0
    2.0420   -1.0640   -1.3550 C   0  0  0  0  0  0  0  0  0  0  0  0
    1.6490   -1.9590   -0.2460 C   0  0  1  0  0  0  0  0  0  0  0  0
    1.7170   -1.2090    1.0930 C   0  0  0  0  0  0  0  0  0  0  0  0
    3.0990   -0.7720    1.2790 N   0  0  0  0  0  0  0  0  0  0  0  0
    3.5660    0.4040    0.8770 C   0  0  0  0  0  0  0  0  0  0  0  0
    4.8850    0.8420    1.0560 C   0  0  0  0  0  0  0  0  0  0  0  0
    5.2780    2.1570    0.5710 C   0  0  0  0  0  0  0  0  0  0  0  0
    4.4500    3.0030   -0.0500 C   0  0  0  0  0  0  0  0  0  0  0  0
    5.1500    4.2560   -0.4190 C   0  0  0  0  0  0  0  0  0  0  0  0
    6.5200    4.0240    0.0780 C   0  0  0  0  0  0  0  0  0  0  0  0
    6.5630    2.8040    0.6450 C   0  0  0  0  0  0  0  0  0  0  0  0
    8.0370    2.1710    1.3530 Cl  0  0  0  0  0  0  0  0  0  0  0  0
    5.7130   -0.0430    1.6950 C   0  0  0  0  0  0  0  0  0  0  0  0
    5.2610   -1.2880    2.1320 C   0  0  0  0  0  0  0  0  0  0  0  0
    3.9510   -1.6140    1.9050 C   0  0  0  0  0  0  0  0  0  0  0  0
    3.5330   -2.7410    2.2980 O   0  0  0  0  0  0  0  0  0  0  0  0
    0.5240   -2.8610   -0.3650 C   0  0  0  0  0  0  0  0  0  0  0  0
    0.6760   -4.2180   -0.4580 N   0  0  0  0  0  0  0  0  0  0  0  0
   -0.4500   -4.8160   -0.5160 N   0  0  0  0  0  0  0  0  0  0  0  0
   -1.4110   -3.8550   -0.4630 C   0  0  0  0  0  0  0  0  0  0  0  0
   -2.8730   -4.1450   -0.5400 C   0  0  0  0  0  0  0  0  0  0  0  0
   -3.0010   -5.5410   -0.9050 O   0  0  0  0  0  0  0  0  0  0  0  0
   -0.8350   -2.6580   -0.3700 N   0  0  0  0  0  0  0  0  0  0  0  0
   -1.3030   -1.3550   -0.3160 N   0  0  0  0  0  0  0  0  0  0  0  0
   -2.6010   -0.8540   -0.1350 C   0  0  0  0  0  0  0  0  0  0  0  0
   -3.5700   -1.5950    0.0230 O   0  0  0  0  0  0  0  0  0  0  0  0
   -2.8190    0.6650   -0.1360 C   0  0  0  0  0  0  0  0  0  0  0  0
   -4.2070    0.9430    0.0630 N   0  0  0  0  0  0  0  0  0  0  0  0
   -4.6420    2.2890    0.0980 C   0  0  0  0  0  0  0  0  0  0  0  0
   -3.7800    3.1930   -0.0480 O   0  0  0  0  0  0  0  0  0  0  0  0
   -6.0660    2.6280    0.3010 C   0  0  0  0  0  0  0  0  0  0  0  0
   -6.5340    3.8530    0.3440 C   0  0  0  0  0  0  0  0  0  0  0  0
   -7.9950    3.8170    0.5590 C   0  0  0  0  0  0  0  0  0  0  0  0
   -8.3050    2.3830    0.6360 C   0  0  0  0  0  0  0  0  0  0  0  0
   -7.1710    1.7050    0.4840 C   0  0  0  0  0  0  0  0  0  0  0  0
  1  2  1  0
  2  3  1  0
  4  3  1  6
  4  5  1  0
  4 19  1  0
  5  6  1  0
  6  7  1  0
  6 17  1  0
  7  8  2  0
  8  9  1  0
  8 15  1  0
  9 10  2  0
  9 13  1  0
 10 11  1  0
 11 12  1  0
 12 13  2  0
 13 14  1  0
 15 16  2  0
 16 17  1  0
 17 18  2  0
 19 20  2  0
 19 25  1  0
 20 21  1  0
 21 22  2  0
 22 23  1  0
 22 25  1  0
 23 24  1  0
 25 26  1  0
 26 27  1  0
 27 28  2  0
 27 29  1  0
 29 30  1  0
 30 31  1  0
 31 32  2  0
 31 33  1  0
 33 34  2  0
 33 37  1  0
 34 35  1  0
 35 36  1  0
 36 37  2  0
M  END
