
     RDKit          3D

 36 39  0  0  0  0  0  0  0  0999 V2000
   -4.2190    6.2190    0.3230 C   0  0  0  0  0  0  0  0  0  0  0  0
   -3.8490    5.2420    1.1400 C   0  0  0  0  0  0  0  0  0  0  0  0
   -4.5510    3.9390    1.1470 C   0  0  0  0  0  0  0  0  0  0  0  0
   -3.5540    2.9240    0.8090 N   0  0  0  0  0  0  0  0  0  0  0  0
   -3.1550    3.1020   -0.5710 C   0  0  0  0  0  0  0  0  0  0  0  0
   -2.1170    2.0400   -0.9100 C   0  0  0  0  0  0  0  0  0  0  0  0
   -2.7200    0.6970   -0.7170 C   0  0  0  0  0  0  0  0  0  0  0  0
   -3.8940    0.3220   -0.3340 O   0  0  0  0  0  0  0  0  0  0  0  0
   -4.0210   -0.9540   -0.2960 N   0  0  0  0  0  0  0  0  0  0  0  0
   -2.8580   -1.5420   -0.6780 C   0  0  0  0  0  0  0  0  0  0  0  0
   -2.6420   -2.9910   -0.7450 C   0  0  1  0  0  0  0  0  0  0  0  0
   -1.2070   -3.4110   -0.7230 C   0  0  0  0  0  0  0  0  0  0  0  0
   -3.3500   -3.6510    0.3760 C   0  0  0  0  0  0  0  0  0  0  0  0
   -2.6760   -4.1340    1.4610 C   0  0  0  0  0  0  0  0  0  0  0  0
   -3.4160   -4.7380    2.4800 C   0  0  0  0  0  0  0  0  0  0  0  0
   -4.7520   -4.8450    2.4010 N   0  0  0  0  0  0  0  0  0  0  0  0
   -5.4470   -4.3820    1.3500 C   0  0  0  0  0  0  0  0  0  0  0  0
   -4.7180   -3.7780    0.3300 C   0  0  0  0  0  0  0  0  0  0  0  0
   -5.6400   -3.1830   -1.0550 Cl  0  0  0  0  0  0  0  0  0  0  0  0
   -2.0150   -0.4960   -0.9510 C   0  0  0  0  0  0  0  0  0  0  0  0
   -0.6890   -0.5830   -1.4050 N   0  0  0  0  0  0  0  0  0  0  0  0
    0.4430   -0.5650   -0.5420 C   0  0  0  0  0  0  0  0  0  0  0  0
    0.2880   -0.4690    0.7020 O   0  0  0  0  0  0  0  0  0  0  0  0
    1.7740   -0.6540   -1.0420 N   0  0  0  0  0  0  0  0  0  0  0  0
    2.9500   -0.6390   -0.2170 C   0  0  0  0  0  0  0  0  0  0  0  0
    4.1700   -0.7520   -1.1000 C   0  0  0  0  0  0  0  0  0  0  0  0
    5.4130   -0.7470   -0.3870 N   0  0  0  0  0  0  0  0  0  0  0  0
    6.0530   -1.8300    0.0880 C   0  0  0  0  0  0  0  0  0  0  0  0
    5.6200   -3.0030   -0.0420 O   0  0  0  0  0  0  0  0  0  0  0  0
    7.1630   -1.4850    0.6880 O   0  0  0  0  0  0  0  0  0  0  0  0
    7.3030   -0.1760    0.6370 C   0  0  0  0  0  0  0  0  0  0  0  0
    8.2810    0.6710    1.1100 C   0  0  0  0  0  0  0  0  0  0  0  0
    8.1340    2.0210    0.8910 C   0  0  0  0  0  0  0  0  0  0  0  0
    7.0440    2.5150    0.2180 C   0  0  0  0  0  0  0  0  0  0  0  0
    6.0750    1.6550   -0.2500 C   0  0  0  0  0  0  0  0  0  0  0  0
    6.1940    0.2990   -0.0450 C   0  0  0  0  0  0  0  0  0  0  0  0
  1  2  2  0
  2  3  1  0
  3  4  1  0
  4  5  1  0
  5  6  1  0
  6  7  1  0
  7  8  1  0
  7 20  2  0
  8  9  1  0
  9 10  2  0
 10 11  1  0
 10 20  1  0
 11 12  1  1
 11 13  1  0
 13 14  2  0
 13 18  1  0
 14 15  1  0
 15 16  2  0
 16 17  1  0
 17 18  2  0
 18 19  1  0
 20 21  1  0
 21 22  1  0
 22 23  2  0
 22 24  1  0
 24 25  1  0
 25 26  1  0
 26 27  1  0
 27 28  1  0
 27 36  1  0
 28 29  2  0
 28 30  1  0
 30 31  1  0
 31 32  2  0
 31 36  1  0
 32 33  1  0
 33 34  2  0
 34 35  1  0
 35 36  2  0
M  END
