
     RDKit          3D

 37 40  0  0  0  0  0  0  0  0999 V2000
   -7.3390    3.3350    1.7190 C   0  0  0  0  0  0  0  0  0  0  0  0
   -6.5800    3.5470    0.5180 N   0  0  0  0  0  0  0  0  0  0  0  0
   -5.3430    2.8780    0.2810 C   0  0  0  0  0  0  0  0  0  0  0  0
   -4.8460    1.9920    1.2020 C   0  0  0  0  0  0  0  0  0  0  0  0
   -3.6500    1.3520    0.9650 C   0  0  0  0  0  0  0  0  0  0  0  0
   -2.9330    1.5740   -0.1740 C   0  0  0  0  0  0  0  0  0  0  0  0
   -1.6500    0.9590   -0.5380 C   0  0  2  0  0  0  0  0  0  0  0  0
   -1.8820    0.3570   -1.8060 O   0  0  0  0  0  0  0  0  0  0  0  0
   -1.2640   -0.1300    0.4630 C   0  0  0  0  0  0  0  0  0  0  0  0
   -0.0830   -0.8320    0.0380 N   0  0  0  0  0  0  0  0  0  0  0  0
    1.0510   -0.0230    0.0800 C   0  0  0  0  0  0  0  0  0  0  0  0
    2.3880   -0.6160   -0.2840 C   0  0  0  0  0  0  0  0  0  0  0  0
    3.3900    0.4850   -0.1190 C   0  0  0  0  0  0  0  0  0  0  0  0
    2.9900    1.6290    0.3120 O   0  0  0  0  0  0  0  0  0  0  0  0
    4.7330    0.3930   -0.3970 O   0  0  0  0  0  0  0  0  0  0  0  0
    5.5450    1.5320   -0.1860 C   0  0  0  0  0  0  0  0  0  0  0  0
    6.3050    1.6540    0.9580 C   0  0  0  0  0  0  0  0  0  0  0  0
    7.0980    2.7870    1.1650 C   0  0  0  0  0  0  0  0  0  0  0  0
    7.8710    2.9370    2.3020 O   0  0  0  0  0  0  0  0  0  0  0  0
    7.1400    3.7950    0.2410 C   0  0  0  0  0  0  0  0  0  0  0  0
    6.3770    3.6710   -0.9070 C   0  0  0  0  0  0  0  0  0  0  0  0
    5.5840    2.5390   -1.1130 C   0  0  0  0  0  0  0  0  0  0  0  0
    4.6390    2.4040   -2.5880 Cl  0  0  0  0  0  0  0  0  0  0  0  0
   -0.1600   -1.9980   -0.6770 C   0  0  0  0  0  0  0  0  0  0  0  0
   -0.2760   -3.3250   -0.0830 C   0  0  0  0  0  0  0  0  0  0  0  0
   -1.0740   -3.9040    0.8400 C   0  0  0  0  0  0  0  0  0  0  0  0
   -2.0830   -3.1920    1.6770 C   0  0  0  0  0  0  0  0  0  0  0  0
   -0.8120   -5.2150    0.9190 N   0  0  0  0  0  0  0  0  0  0  0  0
    0.1570   -5.5470    0.0630 C   0  0  0  0  0  0  0  0  0  0  0  0
    0.7550   -6.7460   -0.2430 N   0  0  0  0  0  0  0  0  0  0  0  0
    1.7110   -6.8170   -1.1880 C   0  0  0  0  0  0  0  0  0  0  0  0
    2.0710   -5.6620   -1.8280 C   0  0  0  0  0  0  0  0  0  0  0  0
    1.4730   -4.4940   -1.5140 N   0  0  0  0  0  0  0  0  0  0  0  0
    0.5160   -4.3920   -0.5790 C   0  0  0  0  0  0  0  0  0  0  0  0
   -3.4720    2.4860   -1.0920 C   0  0  0  0  0  0  0  0  0  0  0  0
   -2.7800    2.7950   -2.3580 C   0  0  0  0  0  0  0  0  0  0  0  0
   -4.6350    3.0990   -0.8480 N   0  0  0  0  0  0  0  0  0  0  0  0
  1  2  1  0
  2  3  1  0
  3  4  2  0
  3 37  1  0
  4  5  1  0
  5  6  2  0
  6  7  1  0
  6 35  1  0
  7  8  1  6
  7  9  1  0
  9 10  1  0
 10 11  1  0
 10 24  1  0
 11 12  1  0
 12 13  1  0
 13 14  2  0
 13 15  1  0
 15 16  1  0
 16 17  2  0
 16 22  1  0
 17 18  1  0
 18 19  1  0
 18 20  2  0
 20 21  1  0
 21 22  2  0
 22 23  1  0
 24 25  1  0
 25 26  2  0
 25 34  1  0
 26 27  1  0
 26 28  1  0
 28 29  1  0
 29 30  2  0
 29 34  1  0
 30 31  1  0
 31 32  2  0
 32 33  1  0
 33 34  2  0
 35 36  1  0
 35 37  2  0
M  END
