
     RDKit          3D

 11 11  0  0  0  0  0  0  0  0999 V2000
    3.0770    0.4960   -0.1120 C   0  0  0  0  0  0  0  0  0  0  0  0
    1.8930    0.3330    0.6380 O   0  0  0  0  0  0  0  0  0  0  0  0
    0.8360    0.2010   -0.2690 C   0  0  2  0  0  0  0  0  0  0  0  0
   -0.1050    1.2320   -0.0770 O   0  0  0  0  0  0  0  0  0  0  0  0
   -1.2980    0.8320   -0.6620 C   0  0  2  0  0  0  0  0  0  0  0  0
   -2.1080    1.8800   -1.0420 O   0  0  0  0  0  0  0  0  0  0  0  0
   -1.9940   -0.1370    0.2650 C   0  0  2  0  0  0  0  0  0  0  0  0
   -2.8430    0.5180    1.1560 O   0  0  0  0  0  0  0  0  0  0  0  0
   -0.9230   -0.9230    0.9840 C   0  0  0  0  0  0  0  0  0  0  0  0
    0.2070   -1.1500   -0.0280 C   0  0  2  0  0  0  0  0  0  0  0  0
    1.1170   -2.0750    0.4240 O   0  0  0  0  0  0  0  0  0  0  0  0
  1  2  1  0
  3  2  1  1
  3  4  1  0
  3 10  1  0
  4  5  1  0
  5  6  1  1
  5  7  1  0
  7  8  1  1
  7  9  1  0
  9 10  1  0
 10 11  1  1
M  END
