
     RDKit          3D

 11 11  0  0  0  0  0  0  0  0999 V2000
   -1.4180    1.2800    0.7080 N   0  0  0  0  0  0  0  0  0  0  0  0
   -0.5520    0.2680    0.1750 C   0  0  2  0  0  0  0  0  0  0  0  0
   -0.9780   -0.0550   -1.2390 C   0  0  0  0  0  0  0  0  0  0  0  0
   -2.2860   -0.5120   -1.1950 O   0  0  0  0  0  0  0  0  0  0  0  0
   -0.5230   -0.9990    0.9680 C   0  0  0  0  0  0  0  0  0  0  0  0
    0.4090   -1.9750    0.3370 C   0  0  0  0  0  0  0  0  0  0  0  0
    1.5220   -1.5200   -0.2340 O   0  0  0  0  0  0  0  0  0  0  0  0
    1.6880   -0.2350   -0.5520 C   0  0  2  0  0  0  0  0  0  0  0  0
    3.0510    0.1040   -0.3900 O   0  0  0  0  0  0  0  0  0  0  0  0
    0.8920    0.7720    0.1970 C   0  0  1  0  0  0  0  0  0  0  0  0
    0.9980    2.0290   -0.3610 O   0  0  0  0  0  0  0  0  0  0  0  0
  2  1  1  1
  2  3  1  0
  2  5  1  0
  2 10  1  0
  3  4  1  0
  5  6  1  0
  6  7  1  0
  7  8  1  0
  8  9  1  1
  8 10  1  0
 10 11  1  6
M  CHG  1   1   1
M  END
