
     RDKit          3D

 11 11  0  0  0  0  0  0  0  0999 V2000
    1.8460    1.3420    0.2260 N   0  0  0  0  0  0  0  0  0  0  0  0
    1.7530    0.0930    0.9610 C   0  0  0  0  0  0  0  0  0  0  0  0
    1.0650   -0.9670    0.2130 C   0  0  2  0  0  0  0  0  0  0  0  0
    1.7690   -1.2080   -0.9770 O   0  0  0  0  0  0  0  0  0  0  0  0
   -0.3640   -0.8770   -0.0390 C   0  0  1  0  0  0  0  0  0  0  0  0
   -0.7950   -2.1120   -0.5890 O   0  0  0  0  0  0  0  0  0  0  0  0
   -1.1370   -0.7650    1.2850 C   0  0  0  0  0  0  0  0  0  0  0  0
   -1.3840    0.6190    1.3440 O   0  0  0  0  0  0  0  0  0  0  0  0
   -1.9700    0.8250    0.0970 C   0  0  1  0  0  0  0  0  0  0  0  0
   -2.1510    2.1720   -0.1680 O   0  0  0  0  0  0  0  0  0  0  0  0
   -0.9410    0.1970   -0.8350 C   0  0  0  0  0  0  0  0  0  0  0  0
  1  2  1  0
  2  3  1  0
  3  4  1  6
  3  5  1  0
  5  6  1  6
  5  7  1  0
  5 11  1  0
  7  8  1  0
  8  9  1  0
  9 10  1  6
  9 11  1  0
M  CHG  1   1   1
M  END
