
     RDKit          3D

 21 21  0  0  0  0  0  0  0  0999 V2000
   -3.4350    3.4040    0.7990 C   0  0  0  0  0  0  0  0  0  0  0  0
   -2.4680    2.2600    1.0430 C   0  0  0  0  0  0  0  0  0  0  0  0
   -2.9180    1.0040    0.3760 C   0  0  0  0  0  0  0  0  0  0  0  0
   -1.9570   -0.1650    0.6110 C   0  0  2  0  0  0  0  0  0  0  0  0
   -0.5940    0.1390    0.0700 C   0  0  0  0  0  0  0  0  0  0  0  0
   -0.5230    1.0820   -0.7320 O   0  0  0  0  0  0  0  0  0  0  0  0
    0.5100   -0.6100    0.4590 N   0  0  0  0  0  0  0  0  0  0  0  0
    1.8260   -0.4080    0.0020 C   0  0  0  0  0  0  0  0  0  0  0  0
    2.2340    0.5250   -0.9070 C   0  0  0  0  0  0  0  0  0  0  0  0
    3.5600    0.6590   -1.3040 C   0  0  0  0  0  0  0  0  0  0  0  0
    4.5100   -0.1690   -0.7730 C   0  0  0  0  0  0  0  0  0  0  0  0
    6.1860   -0.0410   -1.2380 S   0  0  1  0  0  0  0  0  0  0  0  0
    7.0130    1.0500   -0.2130 N   0  0  0  0  0  0  0  0  0  0  0  0
    6.8760   -1.3850   -1.1580 O   0  0  0  0  0  0  0  0  0  0  0  0
    6.2940    0.4370   -2.6610 O   0  0  0  0  0  0  0  0  0  0  0  0
    4.1280   -1.1200    0.1480 C   0  0  0  0  0  0  0  0  0  0  0  0
    2.8300   -1.2390    0.5260 C   0  0  0  0  0  0  0  0  0  0  0  0
   -2.5960   -1.3550   -0.0840 C   0  0  2  0  0  0  0  0  0  0  0  0
   -3.9610   -1.5740    0.5670 C   0  0  0  0  0  0  0  0  0  0  0  0
   -1.7750   -2.5930    0.0420 C   0  0  0  0  0  0  0  0  0  0  0  0
   -2.8240   -1.0880   -1.5560 C   0  0  0  0  0  0  0  0  0  0  0  0
  1  2  1  0
  2  3  1  0
  4  3  1  6
  4  5  1  0
  4 18  1  0
  5  6  2  0
  5  7  1  0
  7  8  1  0
  8  9  2  0
  8 17  1  0
  9 10  1  0
 10 11  2  0
 11 12  1  0
 11 16  1  0
 12 13  1  1
 12 14  2  0
 12 15  2  0
 16 17  2  0
 18 19  1  1
 18 20  1  0
 18 21  1  0
M  END
