
     RDKit          3D

 11 11  0  0  0  0  0  0  0  0999 V2000
    1.6050   -0.3070    1.3880 N   0  0  0  0  0  0  0  0  0  0  0  0
    1.0450   -0.5770    0.1000 C   0  0  2  0  0  0  0  0  0  0  0  0
    2.0430   -0.0810   -0.9430 C   0  0  0  0  0  0  0  0  0  0  0  0
    2.2620    1.2950   -0.7940 O   0  0  0  0  0  0  0  0  0  0  0  0
   -0.2530    0.0990   -0.1760 C   0  0  1  0  0  0  0  0  0  0  0  0
   -0.6990   -0.2950   -1.5750 C   0  0  0  0  0  0  0  0  0  0  0  0
   -2.0680   -0.6430   -1.5270 O   0  0  0  0  0  0  0  0  0  0  0  0
   -2.7980    0.3430   -1.0660 O   0  0  0  0  0  0  0  0  0  0  0  0
   -2.5640    0.5930    0.2890 C   0  0  0  0  0  0  0  0  0  0  0  0
   -1.3670   -0.2530    0.7500 C   0  0  2  0  0  0  0  0  0  0  0  0
   -1.1380    0.1000    2.0720 O   0  0  0  0  0  0  0  0  0  0  0  0
  2  1  1  1
  2  3  1  0
  2  5  1  0
  3  4  1  0
  5  6  1  6
  5 10  1  0
  6  7  1  0
  7  8  1  0
  8  9  1  0
  9 10  1  0
 10 11  1  1
M  CHG  1   1   1
M  END
