
     RDKit          3D

 11 11  0  0  0  0  0  0  0  0999 V2000
   -1.1170   -1.8030   -0.2610 N   0  0  0  0  0  0  0  0  0  0  0  0
   -1.2440   -0.4080   -0.0170 C   0  0  2  0  0  0  0  0  0  0  0  0
   -1.3360    0.4440   -1.2320 C   0  0  0  0  0  0  0  0  0  0  0  0
   -0.8350    1.6670   -0.9040 O   0  0  0  0  0  0  0  0  0  0  0  0
   -0.3290    1.6780    0.3690 C   0  0  1  0  0  0  0  0  0  0  0  0
   -1.2770    2.3670    1.1650 O   0  0  0  0  0  0  0  0  0  0  0  0
   -0.2260    0.2330    0.8130 C   0  0  2  0  0  0  0  0  0  0  0  0
    1.1530   -0.2820    0.8540 C   0  0  2  0  0  0  0  0  0  0  0  0
    1.8350    0.5790    1.7630 O   0  0  0  0  0  0  0  0  0  0  0  0
    1.9560   -0.2690   -0.3890 C   0  0  0  0  0  0  0  0  0  0  0  0
    1.5010   -1.0550   -1.4300 O   0  0  0  0  0  0  0  0  0  0  0  0
  2  1  1  6
  2  3  1  0
  2  7  1  0
  3  4  1  0
  4  5  1  0
  5  6  1  1
  5  7  1  0
  7  8  1  6
  8  9  1  1
  8 10  1  0
 10 11  1  0
M  CHG  1   1   1
M  END
