
     RDKit          3D

 19 21  0  0  0  0  0  0  0  0999 V2000
    5.4840   -1.8320   -0.1000 C   0  0  0  0  0  0  0  0  0  0  0  0
    4.6450   -1.9160    1.0010 C   0  0  0  0  0  0  0  0  0  0  0  0
    3.6010   -1.0810    1.1540 N   0  0  0  0  0  0  0  0  0  0  0  0
    3.3500   -0.1400    0.2310 C   0  0  0  0  0  0  0  0  0  0  0  0
    2.2450    0.7590    0.3740 N   0  0  0  0  0  0  0  0  0  0  0  0
    1.0320    0.0940   -0.1320 C   0  0  0  0  0  0  0  0  0  0  0  0
   -0.1290    0.9070    0.3740 C   0  0  1  0  0  0  0  0  0  0  0  0
   -0.0620    2.3300   -0.1280 C   0  0  0  0  0  0  0  0  0  0  0  0
   -1.2040    3.0720    0.5370 C   0  0  0  0  0  0  0  0  0  0  0  0
   -2.4690    2.5340   -0.1470 C   0  0  0  0  0  0  0  0  0  0  0  0
   -2.6340    1.1200    0.2770 C   0  0  0  0  0  0  0  0  0  0  0  0
   -1.4510    0.2330    0.0800 C   0  0  1  0  0  0  0  0  0  0  0  0
   -1.5140   -0.3250   -1.3220 C   0  0  0  0  0  0  0  0  0  0  0  0
   -1.4520   -1.8390   -1.3440 C   0  0  0  0  0  0  0  0  0  0  0  0
   -2.6490   -2.3480   -0.5980 C   0  0  0  0  0  0  0  0  0  0  0  0
   -2.6400   -1.8640    0.8090 C   0  0  0  0  0  0  0  0  0  0  0  0
   -1.5710   -0.8720    1.1290 C   0  0  0  0  0  0  0  0  0  0  0  0
    4.1970   -0.0680   -0.8650 C   0  0  0  0  0  0  0  0  0  0  0  0
    5.2410   -0.8970   -1.0270 N   0  0  0  0  0  0  0  0  0  0  0  0
  1  2  2  0
  1 19  1  0
  2  3  1  0
  3  4  2  0
  4  5  1  0
  4 18  1  0
  5  6  1  0
  7  6  1  6
  7  8  1  0
  7 12  1  0
  8  9  1  0
  9 10  1  0
 10 11  1  0
 12 11  1  1
 12 13  1  0
 12 17  1  0
 13 14  1  0
 14 15  1  0
 15 16  1  0
 16 17  1  0
 18 19  2  0
M  CHG  1   5   1
M  END
