
     RDKit          3D

 19 20  0  0  0  0  0  0  0  0999 V2000
   -4.5420    0.6610    0.8140 C   0  0  0  0  0  0  0  0  0  0  0  0
   -3.6600   -0.0880    0.1850 C   0  0  0  0  0  0  0  0  0  0  0  0
   -3.9690   -1.4970    0.0510 N   0  0  0  0  0  0  0  0  0  0  0  0
   -3.0800   -2.3140   -0.6650 C   0  0  0  0  0  0  0  0  0  0  0  0
   -1.9670   -1.8150   -1.2170 C   0  0  0  0  0  0  0  0  0  0  0  0
   -1.6790   -0.4150   -1.0710 C   0  0  0  0  0  0  0  0  0  0  0  0
   -2.4600    0.4540   -0.4050 C   0  0  0  0  0  0  0  0  0  0  0  0
   -2.0820    1.8720   -0.3360 C   0  0  0  0  0  0  0  0  0  0  0  0
   -1.7560    2.2950    1.0540 C   0  0  0  0  0  0  0  0  0  0  0  0
   -0.6280    1.5060    1.5800 N   0  0  0  0  0  0  0  0  0  0  0  0
    0.6470    1.5340    0.9680 C   0  0  0  0  0  0  0  0  0  0  0  0
    0.8490    2.2510   -0.0510 O   0  0  0  0  0  0  0  0  0  0  0  0
    1.6830    0.7440    1.5240 N   0  0  0  0  0  0  0  0  0  0  0  0
    3.0070    0.7110    0.9550 C   0  0  0  0  0  0  0  0  0  0  0  0
    2.9230    0.1850   -0.4490 C   0  0  2  0  0  0  0  0  0  0  0  0
    2.4430   -1.2490   -0.3660 C   0  0  0  0  0  0  0  0  0  0  0  0
    3.6250   -2.0200   -0.9110 C   0  0  0  0  0  0  0  0  0  0  0  0
    4.2530   -0.9660   -1.8310 C   0  0  0  0  0  0  0  0  0  0  0  0
    4.2070    0.1500   -0.9950 O   0  0  0  0  0  0  0  0  0  0  0  0
  1  2  2  0
  2  3  1  0
  2  7  1  0
  3  4  1  0
  4  5  2  0
  5  6  1  0
  6  7  2  0
  7  8  1  0
  8  9  1  0
  9 10  1  0
 10 11  1  0
 11 12  2  0
 11 13  1  0
 13 14  1  0
 15 14  1  1
 15 16  1  0
 15 19  1  0
 16 17  1  0
 17 18  1  0
 18 19  1  0
M  END
