
     RDKit          3D

 19 20  0  0  0  0  0  0  0  0999 V2000
   -4.7550    2.2140    1.0060 C   0  0  0  0  0  0  0  0  0  0  0  0
   -5.0580    0.7390    0.8400 C   0  0  0  0  0  0  0  0  0  0  0  0
   -4.5410    0.3280   -0.5290 C   0  0  0  0  0  0  0  0  0  0  0  0
   -3.0630    0.6060   -0.5180 C   0  0  0  0  0  0  0  0  0  0  0  0
   -2.2350   -0.3970   -0.7150 C   0  0  0  0  0  0  0  0  0  0  0  0
   -2.5100   -1.7650   -0.9460 N   0  0  0  0  0  0  0  0  0  0  0  0
   -1.4140   -2.4120   -1.0870 C   0  0  0  0  0  0  0  0  0  0  0  0
   -1.2870   -3.8180   -1.3360 N   0  0  0  0  0  0  0  0  0  0  0  0
   -0.3040   -1.4720   -0.9520 C   0  0  0  0  0  0  0  0  0  0  0  0
   -0.7690   -0.2540   -0.7280 C   0  0  0  0  0  0  0  0  0  0  0  0
   -0.0520    1.0280   -0.5100 C   0  0  0  0  0  0  0  0  0  0  0  0
    1.3580    0.7870   -0.5320 N   0  0  0  0  0  0  0  0  0  0  0  0
    2.0350   -0.0480    0.3970 C   0  0  0  0  0  0  0  0  0  0  0  0
    1.3910   -0.6250    1.3170 O   0  0  0  0  0  0  0  0  0  0  0  0
    3.4980   -0.2010    0.2320 C   0  0  1  0  0  0  0  0  0  0  0  0
    4.2610    1.0660    0.4310 C   0  0  0  0  0  0  0  0  0  0  0  0
    5.6260    0.5370    0.8930 C   0  0  0  0  0  0  0  0  0  0  0  0
    5.4020   -0.9770    0.8810 C   0  0  0  0  0  0  0  0  0  0  0  0
    4.0460   -1.0420    1.2020 O   0  0  0  0  0  0  0  0  0  0  0  0
  1  2  1  0
  2  3  1  0
  3  4  1  0
  4  5  2  3
  5  6  1  0
  5 10  1  0
  6  7  2  0
  7  8  1  0
  7  9  1  0
  9 10  2  0
 10 11  1  0
 11 12  1  0
 12 13  1  0
 13 14  2  0
 15 13  1  1
 15 16  1  0
 15 19  1  0
 16 17  1  0
 17 18  1  0
 18 19  1  0
M  END
