
     RDKit          3D

 19 19  0  0  0  0  0  0  0  0999 V2000
   -3.2880    1.7980    0.9910 C   0  0  0  0  0  0  0  0  0  0  0  0
   -2.7020    0.4270    0.7440 C   0  0  0  0  0  0  0  0  0  0  0  0
   -2.2650    0.3050   -0.7000 C   0  0  0  0  0  0  0  0  0  0  0  0
   -1.6710   -1.0590   -0.9840 C   0  0  1  0  0  0  0  0  0  0  0  0
   -1.2780   -1.0530   -2.4470 C   0  0  0  0  0  0  0  0  0  0  0  0
   -0.5780   -1.3650   -0.1160 N   0  0  0  0  0  0  0  0  0  0  0  0
    0.6200   -0.6060   -0.0290 C   0  0  0  0  0  0  0  0  0  0  0  0
    0.7090    0.4000   -0.7720 O   0  0  0  0  0  0  0  0  0  0  0  0
    1.7280   -0.9820    0.9040 C   0  0  0  0  0  0  0  0  0  0  0  0
    2.8610   -0.0780    0.8400 C   0  0  0  0  0  0  0  0  0  0  0  0
    3.2230    0.5790    1.9450 C   0  0  0  0  0  0  0  0  0  0  0  0
    4.3320    1.5030    1.9950 C   0  0  0  0  0  0  0  0  0  0  0  0
    5.0960    1.5010    2.9780 O   0  0  0  0  0  0  0  0  0  0  0  0
    4.6270    2.4820    0.9170 C   0  0  0  0  0  0  0  0  0  0  0  0
    3.7450    1.9600   -0.6050 S   0  0  0  0  0  0  0  0  0  0  0  0
    3.6310    0.1410   -0.3890 C   0  0  0  0  0  0  0  0  0  0  0  0
   -2.7040   -2.1080   -0.8340 C   0  0  0  0  0  0  0  0  0  0  0  0
   -3.8980   -2.0380   -1.5930 N   0  0  0  0  0  0  0  0  0  0  0  0
   -2.5490   -3.0650   -0.0470 O   0  0  0  0  0  0  0  0  0  0  0  0
  1  2  1  0
  2  3  1  0
  3  4  1  0
  4  5  1  6
  4  6  1  0
  4 17  1  0
  6  7  1  0
  7  8  2  0
  7  9  1  0
  9 10  1  0
 10 11  2  0
 10 16  1  0
 11 12  1  0
 12 13  2  0
 12 14  1  0
 14 15  1  0
 15 16  1  0
 17 18  1  0
 17 19  2  0
M  END
