
     RDKit          3D

 19 19  0  0  0  0  0  0  0  0999 V2000
   -3.6560   -1.6030    1.6830 C   0  0  0  0  0  0  0  0  0  0  0  0
   -2.5380   -1.9730    0.7590 C   0  0  0  0  0  0  0  0  0  0  0  0
   -1.4790   -0.9030    0.6480 C   0  0  1  0  0  0  0  0  0  0  0  0
   -0.4690   -1.3720   -0.2590 N   0  0  0  0  0  0  0  0  0  0  0  0
    0.8520   -1.5480    0.2020 C   0  0  0  0  0  0  0  0  0  0  0  0
    1.1230   -1.2870    1.4140 O   0  0  0  0  0  0  0  0  0  0  0  0
    1.9170   -2.0210   -0.6710 C   0  0  0  0  0  0  0  0  0  0  0  0
    3.2620   -1.8860   -0.0260 C   0  0  0  0  0  0  0  0  0  0  0  0
    3.7140   -0.2140    0.2810 S   0  0  2  0  0  0  0  0  0  0  0  0
    5.1490   -0.2200    0.8110 O   0  0  0  0  0  0  0  0  0  0  0  0
    2.8400    0.4960    1.2480 O   0  0  0  0  0  0  0  0  0  0  0  0
    3.7460    0.6790   -1.2840 C   0  0  0  0  0  0  0  0  0  0  0  0
    4.1390    2.1310   -1.0190 C   0  0  0  0  0  0  0  0  0  0  0  0
   -2.0290    0.3780    0.1440 C   0  0  0  0  0  0  0  0  0  0  0  0
   -1.9190    1.4350    0.9200 C   0  0  0  0  0  0  0  0  0  0  0  0
   -2.4040    2.7760    0.5840 C   0  0  0  0  0  0  0  0  0  0  0  0
   -3.0260    2.8200   -0.7070 N   0  0  0  0  0  0  0  0  0  0  0  0
   -3.1310    1.6700   -1.5220 C   0  0  0  0  0  0  0  0  0  0  0  0
   -2.6690    0.5010   -1.1480 C   0  0  0  0  0  0  0  0  0  0  0  0
  1  2  1  0
  3  2  1  6
  3  4  1  0
  3 14  1  0
  4  5  1  0
  5  6  2  0
  5  7  1  0
  7  8  1  0
  9  8  1  6
  9 10  2  0
  9 11  2  0
  9 12  1  0
 12 13  1  0
 14 15  2  0
 14 19  1  0
 15 16  1  0
 16 17  1  0
 17 18  1  0
 18 19  2  0
M  END
