
     RDKit          3D

 19 19  0  0  0  0  0  0  0  0999 V2000
   -0.8310   -2.0030    0.4080 C   0  0  0  0  0  0  0  0  0  0  0  0
   -1.8730   -1.1270    0.4140 C   0  0  0  0  0  0  0  0  0  0  0  0
   -3.0800   -1.5650    1.1190 C   0  0  0  0  0  0  0  0  0  0  0  0
   -2.8420   -2.8790    1.6490 O   0  0  0  0  0  0  0  0  0  0  0  0
   -1.6930    0.1300   -0.2610 C   0  0  0  0  0  0  0  0  0  0  0  0
   -0.3910    0.3880   -0.9110 N   0  0  0  0  0  0  0  0  0  0  0  0
    0.7340    0.7930   -0.1550 C   0  0  0  0  0  0  0  0  0  0  0  0
    1.9870    0.4250   -0.4490 C   0  0  0  0  0  0  0  0  0  0  0  0
    2.4490   -0.6230   -1.8250 S   0  0  0  0  0  0  0  0  0  0  0  0
    4.2470   -0.8420   -1.7500 C   0  0  0  0  0  0  0  0  0  0  0  0
    4.6870   -1.6260   -0.5500 C   0  0  0  0  0  0  0  0  0  0  0  0
    2.8340    1.0430    0.5560 C   0  0  0  0  0  0  0  0  0  0  0  0
    4.1060    0.9260    0.6140 O   0  0  0  0  0  0  0  0  0  0  0  0
    2.0480    1.7960    1.4670 N   0  0  0  0  0  0  0  0  0  0  0  0
    0.7090    1.6450    1.0250 C   0  0  0  0  0  0  0  0  0  0  0  0
   -0.3430    2.1450    1.5390 O   0  0  0  0  0  0  0  0  0  0  0  0
   -2.5760    1.0730   -0.3570 C   0  0  0  0  0  0  0  0  0  0  0  0
   -2.2000    2.3540   -1.1210 C   0  0  0  0  0  0  0  0  0  0  0  0
   -3.9320    1.0560    0.1880 C   0  0  0  0  0  0  0  0  0  0  0  0
  1  2  2  0
  2  3  1  0
  2  5  1  0
  3  4  1  0
  5  6  1  0
  5 17  2  3
  6  7  1  0
  7  8  2  0
  7 15  1  0
  8  9  1  0
  8 12  1  0
  9 10  1  0
 10 11  1  0
 12 13  2  0
 12 14  1  0
 14 15  1  0
 15 16  2  0
 17 18  1  0
 17 19  1  0
M  END
