
     RDKit          3D

 19 19  0  0  0  0  0  0  0  0999 V2000
    7.4530    0.7130    0.6010 C   0  0  0  0  0  0  0  0  0  0  0  0
    6.3120    1.6390    0.8380 C   0  0  0  0  0  0  0  0  0  0  0  0
    5.2160    1.6320    0.1250 C   0  0  0  0  0  0  0  0  0  0  0  0
    4.9310    0.5070   -1.2370 S   0  0  0  0  0  0  0  0  0  0  0  0
    4.0150   -0.9600   -0.6980 C   0  0  0  0  0  0  0  0  0  0  0  0
    2.6420   -0.6270   -0.2710 C   0  0  0  0  0  0  0  0  0  0  0  0
    2.2500    0.5550   -0.3170 O   0  0  0  0  0  0  0  0  0  0  0  0
    1.8060   -1.6100    0.1720 O   0  0  0  0  0  0  0  0  0  0  0  0
    0.4850   -1.4130    0.6010 C   0  0  0  0  0  0  0  0  0  0  0  0
   -0.3360   -0.8370   -0.5080 C   0  0  0  0  0  0  0  0  0  0  0  0
   -1.7590   -0.6200   -0.0630 C   0  0  0  0  0  0  0  0  0  0  0  0
   -2.0920   -0.9160    1.1160 O   0  0  0  0  0  0  0  0  0  0  0  0
   -2.7490   -0.0900   -0.9250 N   0  0  0  0  0  0  0  0  0  0  0  0
   -4.0980    0.1190   -0.5100 C   0  0  0  0  0  0  0  0  0  0  0  0
   -5.0660   -0.5140   -1.1460 C   0  0  0  0  0  0  0  0  0  0  0  0
   -6.5000   -0.3780   -0.8070 C   0  0  0  0  0  0  0  0  0  0  0  0
   -6.7410    0.5160    0.2830 N   0  0  0  0  0  0  0  0  0  0  0  0
   -5.7030    1.2020    0.9740 C   0  0  0  0  0  0  0  0  0  0  0  0
   -4.4670    1.0030    0.5870 C   0  0  0  0  0  0  0  0  0  0  0  0
  1  2  1  0
  2  3  2  3
  3  4  1  0
  4  5  1  0
  5  6  1  0
  6  7  2  0
  6  8  1  0
  8  9  1  0
  9 10  1  0
 10 11  1  0
 11 12  2  0
 11 13  1  0
 13 14  1  0
 14 15  2  0
 14 19  1  0
 15 16  1  0
 16 17  1  0
 17 18  1  0
 18 19  2  0
M  END
