
     RDKit          3D

 23 24  0  0  0  0  0  0  0  0999 V2000
    3.1520    2.6810   -1.3260 O   0  0  0  0  0  0  0  0  0  0  0  0
    3.7810    1.5710   -0.7520 C   0  0  0  0  0  0  0  0  0  0  0  0
    3.1360    1.2140    0.5840 C   0  0  1  0  0  0  0  0  0  0  0  0
    1.8300    0.9190    0.4200 O   0  0  0  0  0  0  0  0  0  0  0  0
    1.3900   -0.3510    0.4700 C   0  0  1  0  0  0  0  0  0  0  0  0
    0.2460   -0.8620   -0.8130 S   0  0  0  0  0  0  0  0  0  0  0  0
   -1.3400   -0.0440   -0.7530 C   0  0  2  0  0  0  0  0  0  0  0  0
   -2.0910   -0.3500    0.3760 O   0  0  0  0  0  0  0  0  0  0  0  0
   -3.1950    0.4990    0.3450 C   0  0  2  0  0  0  0  0  0  0  0  0
   -3.9580    0.5330    1.6260 C   0  0  0  0  0  0  0  0  0  0  0  0
   -3.1970    0.9650    2.7080 O   0  0  0  0  0  0  0  0  0  0  0  0
   -4.1630    0.1320   -0.7590 C   0  0  2  0  0  0  0  0  0  0  0  0
   -4.6870   -1.1430   -0.5840 O   0  0  0  0  0  0  0  0  0  0  0  0
   -3.4030    0.2310   -2.0860 C   0  0  2  0  0  0  0  0  0  0  0  0
   -4.1590   -0.2430   -3.1370 O   0  0  0  0  0  0  0  0  0  0  0  0
   -2.1600   -0.5880   -1.9340 C   0  0  1  0  0  0  0  0  0  0  0  0
   -1.3550   -0.6330   -3.0460 O   0  0  0  0  0  0  0  0  0  0  0  0
    2.4840   -1.4160    0.5430 C   0  0  2  0  0  0  0  0  0  0  0  0
    1.8580   -2.6300    0.7240 O   0  0  0  0  0  0  0  0  0  0  0  0
    3.3790   -1.0360    1.7110 C   0  0  1  0  0  0  0  0  0  0  0  0
    4.3680   -2.0290    1.8520 O   0  0  0  0  0  0  0  0  0  0  0  0
    3.9890    0.2830    1.3710 C   0  0  1  0  0  0  0  0  0  0  0  0
    5.1390    0.0040    0.5910 O   0  0  0  0  0  0  0  0  0  0  0  0
  1  2  1  0
  3  2  1  6
  3  4  1  0
  3 22  1  0
  4  5  1  0
  5  6  1  6
  5 18  1  0
  7  6  1  1
  7  8  1  0
  7 16  1  0
  8  9  1  0
  9 10  1  1
  9 12  1  0
 10 11  1  0
 12 13  1  1
 12 14  1  0
 14 15  1  6
 14 16  1  0
 16 17  1  6
 18 19  1  1
 18 20  1  0
 20 21  1  6
 20 22  1  0
 22 23  1  6
M  END
