
     RDKit          3D

 22 22  0  0  0  0  0  0  0  0999 V2000
    4.9090    1.3620   -0.0560 C   0  0  0  0  0  0  0  0  0  0  0  0
    4.3910   -0.3110   -0.4950 S   0  0  0  0  0  0  0  0  0  0  0  0
    3.0090   -0.1840   -1.6680 C   0  0  0  0  0  0  0  0  0  0  0  0
    1.7830    0.3990   -1.0800 C   0  0  0  0  0  0  0  0  0  0  0  0
    1.1610   -0.2620    0.0900 C   0  0  2  0  0  0  0  0  0  0  0  0
    2.1560   -0.2860    1.1200 O   0  0  0  0  0  0  0  0  0  0  0  0
    0.6210   -1.6220   -0.0360 C   0  0  1  0  0  0  0  0  0  0  0  0
    1.4400   -2.5900   -0.8620 C   0  0  0  0  0  0  0  0  0  0  0  0
    0.5780   -2.2910    1.3590 C   0  0  0  0  0  0  0  0  0  0  0  0
   -0.6570   -1.6940   -0.6070 O   0  0  0  0  0  0  0  0  0  0  0  0
   -1.5840   -0.9380    0.0570 C   0  0  1  0  0  0  0  0  0  0  0  0
   -1.7860   -1.2700    1.3750 O   0  0  0  0  0  0  0  0  0  0  0  0
   -1.1730    0.5110   -0.1170 C   0  0  1  0  0  0  0  0  0  0  0  0
   -1.1790    0.7860   -1.4620 O   0  0  0  0  0  0  0  0  0  0  0  0
   -2.2860    1.3330    0.5600 C   0  0  0  0  0  0  0  0  0  0  0  0
   -3.4610    0.9110   -0.0540 O   0  0  0  0  0  0  0  0  0  0  0  0
   -4.5960    1.5340    0.4080 C   0  0  1  0  0  0  0  0  0  0  0  0
   -5.1560    2.2380   -0.6700 O   0  0  0  0  0  0  0  0  0  0  0  0
   -5.5060    0.5920    0.8830 O   0  0  0  0  0  0  0  0  0  0  0  0
    0.1080    0.7200    0.5930 C   0  0  1  0  0  0  0  0  0  0  0  0
   -0.1200    0.6300    1.9580 O   0  0  0  0  0  0  0  0  0  0  0  0
    0.6240    2.0130    0.3380 O   0  0  0  0  0  0  0  0  0  0  0  0
  1  2  1  0
  2  3  1  0
  3  4  1  0
  4  5  1  0
  5  6  1  1
  5  7  1  0
  5 20  1  0
  7  8  1  6
  7  9  1  0
  7 10  1  0
 10 11  1  0
 11 12  1  1
 11 13  1  0
 13 14  1  6
 13 15  1  0
 13 20  1  0
 15 16  1  0
 16 17  1  0
 17 18  1  6
 17 19  1  0
 20 21  1  1
 20 22  1  0
M  END
