
     RDKit          3D

 22 22  0  0  0  0  0  0  0  0999 V2000
   -5.0080   -2.7880    1.6990 O   0  0  0  0  0  0  0  0  0  0  0  0
   -5.1770   -1.4570    1.2290 C   0  0  0  0  0  0  0  0  0  0  0  0
   -4.0470   -0.7330    1.4780 O   0  0  0  0  0  0  0  0  0  0  0  0
   -4.0120    0.5710    1.1100 C   0  0  0  0  0  0  0  0  0  0  0  0
   -4.1780    0.8480   -0.3490 C   0  0  2  0  0  0  0  0  0  0  0  0
   -5.3670    0.4420   -0.9040 O   0  0  0  0  0  0  0  0  0  0  0  0
   -3.0680    0.1400   -1.1370 C   0  0  1  0  0  0  0  0  0  0  0  0
   -3.1980    0.5480   -2.4870 O   0  0  0  0  0  0  0  0  0  0  0  0
   -1.8040    0.4940   -0.6910 O   0  0  0  0  0  0  0  0  0  0  0  0
   -1.0880   -0.6270   -0.3550 C   0  0  0  0  0  0  0  0  0  0  0  0
    0.3230   -0.1670    0.1380 C   0  0  1  0  0  0  0  0  0  0  0  0
    1.0010   -1.3540    0.4630 O   0  0  0  0  0  0  0  0  0  0  0  0
    0.9250    0.5300   -1.0130 C   0  0  0  0  0  0  0  0  0  0  0  0
    2.2390    1.1510   -0.8850 C   0  0  2  0  0  0  0  0  0  0  0  0
    2.6330    1.7520   -2.1230 O   0  0  0  0  0  0  0  0  0  0  0  0
    3.3640    0.3360   -0.4400 C   0  0  2  0  0  0  0  0  0  0  0  0
    3.2680   -0.3640    1.2260 S   0  0  0  0  0  0  0  0  0  0  0  0
    5.0360   -0.5770    1.6910 C   0  0  0  0  0  0  0  0  0  0  0  0
    5.7480   -0.7210    0.3390 C   0  0  0  0  0  0  0  0  0  0  0  0
    5.7830    0.4370   -0.3770 O   0  0  0  0  0  0  0  0  0  0  0  0
    4.6510    1.1950   -0.3950 C   0  0  2  0  0  0  0  0  0  0  0  0
    4.5460    2.0060    0.7440 O   0  0  0  0  0  0  0  0  0  0  0  0
  1  2  1  0
  2  3  1  0
  3  4  1  0
  4  5  1  0
  5  6  1  6
  5  7  1  0
  7  8  1  6
  7  9  1  0
  9 10  1  0
 10 11  1  0
 11 12  1  6
 11 13  1  0
 13 14  1  0
 14 15  1  6
 14 16  1  0
 16 17  1  1
 16 21  1  0
 17 18  1  0
 18 19  1  0
 19 20  1  0
 20 21  1  0
 21 22  1  1
M  END
