
     RDKit          3D

 22 22  0  0  0  0  0  0  0  0999 V2000
   -4.5550    2.2060   -0.7940 C   0  0  0  0  0  0  0  0  0  0  0  0
   -3.2540    1.9050   -0.3170 O   0  0  0  0  0  0  0  0  0  0  0  0
   -2.5570    0.7610   -0.6910 C   0  0  0  0  0  0  0  0  0  0  0  0
   -3.1470   -0.0100   -1.4900 O   0  0  0  0  0  0  0  0  0  0  0  0
   -1.2010    0.4850   -0.1700 C   0  0  2  0  0  0  0  0  0  0  0  0
   -0.7910    1.5020    0.6940 O   0  0  0  0  0  0  0  0  0  0  0  0
   -0.1650    0.4470   -1.2880 C   0  0  0  0  0  0  0  0  0  0  0  0
    1.1730    0.3820   -0.5820 C   0  0  2  0  0  0  0  0  0  0  0  0
    2.3250    0.5230   -1.5420 C   0  0  1  0  0  0  0  0  0  0  0  0
    2.2740    1.7160   -2.2540 O   0  0  0  0  0  0  0  0  0  0  0  0
    3.6370    0.4220   -0.7670 C   0  0  0  0  0  0  0  0  0  0  0  0
    3.7020   -0.7840   -0.0400 O   0  0  0  0  0  0  0  0  0  0  0  0
    4.8260   -1.0360    0.7180 C   0  0  0  0  0  0  0  0  0  0  0  0
    4.7020   -1.7400    1.8970 O   0  0  0  0  0  0  0  0  0  0  0  0
    6.2780   -0.5080    0.2250 S   0  0  0  0  0  0  0  0  0  0  0  0
    1.2440   -0.8000    0.1080 O   0  0  0  0  0  0  0  0  0  0  0  0
    0.3210   -0.9140    1.1110 C   0  0  0  0  0  0  0  0  0  0  0  0
   -1.1040   -0.8010    0.5840 C   0  0  2  0  0  0  0  0  0  0  0  0
   -1.3620   -2.0230   -0.2520 C   0  0  0  0  0  0  0  0  0  0  0  0
   -1.2290   -3.1320    0.6160 O   0  0  0  0  0  0  0  0  0  0  0  0
   -2.0750   -0.7840    1.7220 C   0  0  0  0  0  0  0  0  0  0  0  0
   -1.7860    0.2870    2.5960 O   0  0  0  0  0  0  0  0  0  0  0  0
  1  2  1  0
  2  3  1  0
  3  4  2  0
  3  5  1  0
  5  6  1  1
  5  7  1  0
  5 18  1  0
  8  7  1  6
  8  9  1  0
  8 16  1  0
  9 10  1  1
  9 11  1  0
 11 12  1  0
 12 13  1  0
 13 14  1  0
 13 15  2  0
 16 17  1  0
 17 18  1  0
 18 19  1  6
 18 21  1  0
 19 20  1  0
 21 22  1  0
M  END
