
     RDKit          3D

 22 22  0  0  0  0  0  0  0  0999 V2000
    0.0500   -3.1190    2.0110 O   0  0  0  0  0  0  0  0  0  0  0  0
   -0.5220   -3.2320    0.9030 C   0  0  0  0  0  0  0  0  0  0  0  0
   -0.8840   -4.4930    0.4710 O   0  0  0  0  0  0  0  0  0  0  0  0
   -0.8000   -2.0390    0.0780 C   0  0  2  0  0  0  0  0  0  0  0  0
   -0.3670   -0.8720    0.6720 O   0  0  0  0  0  0  0  0  0  0  0  0
    0.9770   -0.9350    0.9480 C   0  0  0  0  0  0  0  0  0  0  0  0
    1.7030    0.2950    0.4160 C   0  0  1  0  0  0  0  0  0  0  0  0
    2.9410   -0.1880   -0.2910 C   0  0  1  0  0  0  0  0  0  0  0  0
    2.6550   -0.9630   -1.4030 O   0  0  0  0  0  0  0  0  0  0  0  0
    3.8860    0.9170   -0.6510 C   0  0  0  0  0  0  0  0  0  0  0  0
    5.0610    0.3060   -1.1380 O   0  0  0  0  0  0  0  0  0  0  0  0
    0.8830    1.0710   -0.3730 O   0  0  0  0  0  0  0  0  0  0  0  0
    0.5600    2.2240    0.3220 C   0  0  0  0  0  0  0  0  0  0  0  0
   -0.6060    2.9690   -0.2470 C   0  0  1  0  0  0  0  0  0  0  0  0
   -0.1720    3.5770   -1.4400 O   0  0  0  0  0  0  0  0  0  0  0  0
   -1.7880    2.1330   -0.5690 C   0  0  0  0  0  0  0  0  0  0  0  0
   -2.0650    1.1360    0.3420 O   0  0  0  0  0  0  0  0  0  0  0  0
   -3.0980    0.3640   -0.2170 C   0  0  0  0  0  0  0  0  0  0  0  0
   -3.1570   -1.0140    0.3660 C   0  0  1  0  0  0  0  0  0  0  0  0
   -4.4840   -1.4720    0.2000 O   0  0  0  0  0  0  0  0  0  0  0  0
   -2.2330   -1.9580   -0.3190 C   0  0  0  0  0  0  0  0  0  0  0  0
   -2.6780   -2.8160   -1.3760 S   0  0  0  0  0  0  0  0  0  0  0  0
  1  2  2  0
  2  3  1  0
  4  2  1  1
  4  5  1  0
  4 21  1  0
  5  6  1  0
  7  6  1  6
  7  8  1  0
  7 12  1  0
  8  9  1  6
  8 10  1  0
 10 11  1  0
 12 13  1  0
 13 14  1  0
 14 15  1  6
 14 16  1  0
 16 17  1  0
 17 18  1  0
 18 19  1  0
 19 20  1  6
 19 21  1  0
 21 22  2  0
M  END
