
     RDKit          3D

 22 21  0  0  0  0  0  0  0  0999 V2000
   -7.0510    1.2110   -0.3780 C   0  0  0  0  0  0  0  0  0  0  0  0
   -6.2090    0.1820    0.0320 O   0  0  0  0  0  0  0  0  0  0  0  0
   -5.0860    0.0660   -0.7630 C   0  0  2  0  0  0  0  0  0  0  0  0
   -5.0110   -1.2110   -1.3480 O   0  0  0  0  0  0  0  0  0  0  0  0
   -3.8020    0.2920    0.0270 C   0  0  2  0  0  0  0  0  0  0  0  0
   -3.8540    1.5790    0.5610 O   0  0  0  0  0  0  0  0  0  0  0  0
   -2.6390    0.1070   -0.8980 C   0  0  0  0  0  0  0  0  0  0  0  0
   -1.4630    0.3330   -0.2440 O   0  0  0  0  0  0  0  0  0  0  0  0
   -1.1570   -0.4870    0.8040 C   0  0  2  0  0  0  0  0  0  0  0  0
   -1.0100    0.2150    2.1170 C   0  0  0  0  0  0  0  0  0  0  0  0
   -0.0420    1.1760    2.0800 O   0  0  0  0  0  0  0  0  0  0  0  0
    0.0550   -1.2970    0.4980 C   0  0  1  0  0  0  0  0  0  0  0  0
   -0.1750   -2.1310   -0.6350 O   0  0  0  0  0  0  0  0  0  0  0  0
    1.2510   -0.4370    0.0210 C   0  0  0  0  0  0  0  0  0  0  0  0
    2.2220   -1.3750   -0.2610 O   0  0  0  0  0  0  0  0  0  0  0  0
    3.3610   -0.8420   -0.7650 C   0  0  0  0  0  0  0  0  0  0  0  0
    3.9960    0.1090    0.1980 C   0  0  1  0  0  0  0  0  0  0  0  0
    4.2910   -0.5810    1.3750 O   0  0  0  0  0  0  0  0  0  0  0  0
    5.2340    0.6950   -0.4300 C   0  0  2  0  0  0  0  0  0  0  0  0
    4.8610    1.3470   -1.6020 O   0  0  0  0  0  0  0  0  0  0  0  0
    6.2080   -0.3910   -0.7620 C   0  0  0  0  0  0  0  0  0  0  0  0
    7.3630    0.1680   -1.3400 O   0  0  0  0  0  0  0  0  0  0  0  0
  1  2  1  0
  2  3  1  0
  3  4  1  1
  3  5  1  0
  5  6  1  6
  5  7  1  0
  7  8  1  0
  8  9  1  0
  9 10  1  1
  9 12  1  0
 10 11  1  0
 12 13  1  6
 12 14  1  0
 14 15  1  0
 15 16  1  0
 16 17  1  0
 17 18  1  1
 17 19  1  0
 19 20  1  6
 19 21  1  0
 21 22  1  0
M  END
