
     RDKit          3D

 21 22  0  0  0  0  0  0  0  0999 V2000
    6.1760   -1.2910    1.4170 O   0  0  0  0  0  0  0  0  0  0  0  0
    5.3400   -0.3510    1.3240 C   0  0  0  0  0  0  0  0  0  0  0  0
    5.5240    0.8250    1.9310 N   0  0  0  0  0  0  0  0  0  0  0  0
    4.6450    1.8370    1.8430 C   0  0  0  0  0  0  0  0  0  0  0  0
    3.5210    1.6840    1.1190 N   0  0  0  0  0  0  0  0  0  0  0  0
    3.2880    0.5110    0.4850 C   0  0  0  0  0  0  0  0  0  0  0  0
    2.2530    0.0700   -0.3100 C   0  0  0  0  0  0  0  0  0  0  0  0
    1.0470    0.8780   -0.6750 C   0  0  0  0  0  0  0  0  0  0  0  0
    0.1480    0.1460   -1.5140 N   0  0  0  0  0  0  0  0  0  0  0  0
   -0.8220   -0.6410   -0.7570 C   0  0  2  0  0  0  0  0  0  0  0  0
   -1.2580   -1.7670   -1.6600 C   0  0  0  0  0  0  0  0  0  0  0  0
   -1.8340   -1.2530   -2.8100 O   0  0  0  0  0  0  0  0  0  0  0  0
   -1.9200    0.2720   -0.3670 C   0  0  0  0  0  0  0  0  0  0  0  0
   -3.0170   -0.4440    0.4450 C   0  0  0  0  0  0  0  0  0  0  0  0
   -4.2350    0.5800    0.8760 P   0  0  0  0  0  0  0  0  0  0  0  0
   -5.0530   -0.6500    1.6430 O   0  0  0  0  0  0  0  0  0  0  0  0
   -4.5690    0.8940   -0.7140 O   0  0  0  0  0  0  0  0  0  0  0  0
   -5.3560    1.5330    1.3020 O   0  0  0  0  0  0  0  0  0  0  0  0
    2.5540   -1.2230   -0.6810 C   0  0  0  0  0  0  0  0  0  0  0  0
    3.7420   -1.5770   -0.1340 N   0  0  0  0  0  0  0  0  0  0  0  0
    4.1960   -0.5370    0.5740 C   0  0  0  0  0  0  0  0  0  0  0  0
  1  2  2  0
  2  3  1  0
  2 21  1  0
  3  4  1  0
  4  5  2  0
  5  6  1  0
  6  7  1  0
  6 21  2  0
  7  8  1  0
  7 19  2  0
  8  9  1  0
  9 10  1  0
 10 11  1  6
 10 13  1  0
 11 12  1  0
 13 14  1  0
 14 15  1  0
 15 16  1  0
 15 17  1  0
 15 18  1  0
 19 20  1  0
 20 21  1  0
M  CHG  1   9   1
M  END
