
     RDKit          3D

 16 17  0  0  0  0  0  0  0  0999 V2000
    2.0270    1.6370   -0.1300 O   0  0  0  0  0  0  0  0  0  0  0  0
    2.1720    0.3780   -0.2520 C   0  0  0  0  0  0  0  0  0  0  0  0
    1.0190   -0.3800   -0.1620 O   0  0  0  0  0  0  0  0  0  0  0  0
   -0.1990    0.1900    0.0440 O   0  0  0  0  0  0  0  0  0  0  0  0
   -1.3650   -0.3370   -0.4880 C   0  0  0  0  0  0  0  0  0  0  0  0
   -1.2900   -1.3800   -1.1860 O   0  0  0  0  0  0  0  0  0  0  0  0
   -2.6900    0.2980   -0.2530 C   0  0  1  0  0  0  0  0  0  0  0  0
   -3.7390   -0.3710   -0.8640 O   0  0  0  0  0  0  0  0  0  0  0  0
   -4.4760   -0.1760    0.3100 C   0  0  2  0  0  0  0  0  0  0  0  0
   -5.2670    0.9570    0.2470 O   0  0  0  0  0  0  0  0  0  0  0  0
   -6.5090    0.7470    0.5830 O   0  0  0  0  0  0  0  0  0  0  0  0
   -3.2640   -0.0120    0.9770 O   0  0  0  0  0  0  0  0  0  0  0  0
    3.5110   -0.1810   -0.4730 C   0  0  2  0  0  0  0  0  0  0  0  0
    3.9430   -1.1520    0.6200 C   0  0  0  0  0  0  0  0  0  0  0  0
    5.2500   -0.6820    0.4260 O   0  0  0  0  0  0  0  0  0  0  0  0
    4.6670    0.5670    0.1050 C   0  0  0  0  0  0  0  0  0  0  0  0
  1  2  2  0
  2  3  1  0
 13  2  1  1
  3  4  1  0
  4  5  1  0
  5  6  2  0
  7  5  1  1
  7  8  1  0
  7 12  1  0
  8  9  1  0
  9 10  1  6
  9 12  1  0
 10 11  1  0
 13 14  1  0
 13 16  1  0
 14 15  1  0
 15 16  1  0
M  END
