
     RDKit          3D

 16 17  0  0  0  0  0  0  0  0999 V2000
    2.0190   -2.4610    0.3660 O   0  0  0  0  0  0  0  0  0  0  0  0
    1.3960   -1.4060    0.0870 C   0  0  0  0  0  0  0  0  0  0  0  0
   -0.0440   -1.3140    0.4150 C   0  0  0  0  0  0  0  0  0  0  0  0
   -0.5800   -0.0110   -0.0490 C   0  0  1  0  0  0  0  0  0  0  0  0
   -0.4920    0.2730   -1.5000 C   0  0  0  0  0  0  0  0  0  0  0  0
   -1.4490    1.3270   -1.6870 O   0  0  0  0  0  0  0  0  0  0  0  0
   -2.3980    1.2670   -0.6830 C   0  0  0  0  0  0  0  0  0  0  0  0
   -3.3830    2.0260   -0.5830 O   0  0  0  0  0  0  0  0  0  0  0  0
   -2.0560    0.1670    0.2450 C   0  0  2  0  0  0  0  0  0  0  0  0
   -2.0580    0.5340    1.5910 O   0  0  0  0  0  0  0  0  0  0  0  0
   -0.8240    1.1050    1.8750 C   0  0  0  0  0  0  0  0  0  0  0  0
   -0.5290    1.6290    2.9990 O   0  0  0  0  0  0  0  0  0  0  0  0
   -0.0060    1.0050    0.7580 O   0  0  0  0  0  0  0  0  0  0  0  0
    2.1020   -0.3860   -0.5140 O   0  0  0  0  0  0  0  0  0  0  0  0
    3.4080   -0.4580   -0.8160 O   0  0  0  0  0  0  0  0  0  0  0  0
    3.9550    0.6580   -0.3340 O   0  0  0  0  0  0  0  0  0  0  0  0
  1  2  2  0
  2  3  1  0
  2 14  1  0
  4  3  1  6
  4  5  1  0
  4  9  1  0
  4 13  1  0
  5  6  1  0
  6  7  1  0
  7  8  2  0
  7  9  1  0
  9 10  1  1
 10 11  1  0
 11 12  2  0
 11 13  1  0
 14 15  1  0
 15 16  1  0
M  END
