
     RDKit          3D

 16 15  0  0  0  0  0  0  0  0999 V2000
   -3.7120   -0.7540   -0.2480 C   0  0  0  0  0  0  0  0  0  0  0  0
   -2.6810    0.2430   -0.3740 C   0  0  1  0  0  0  0  0  0  0  0  0
   -2.4300    0.6070   -1.7220 O   0  0  0  0  0  0  0  0  0  0  0  0
   -3.0330    1.6110    0.2420 C   0  0  0  0  0  0  0  0  0  0  0  0
   -4.1370    2.1030   -0.4590 O   0  0  0  0  0  0  0  0  0  0  0  0
   -1.3150   -0.1830    0.1540 C   0  0  0  0  0  0  0  0  0  0  0  0
   -0.8100   -0.9850   -0.7940 O   0  0  0  0  0  0  0  0  0  0  0  0
    0.3870   -1.3790   -0.8470 O   0  0  0  0  0  0  0  0  0  0  0  0
    1.4130   -1.3590    0.1280 C   0  0  0  0  0  0  0  0  0  0  0  0
    1.2290   -1.0000    1.2520 O   0  0  0  0  0  0  0  0  0  0  0  0
    2.6350   -1.7840   -0.3900 O   0  0  0  0  0  0  0  0  0  0  0  0
    3.8370   -1.8650   -0.0070 O   0  0  0  0  0  0  0  0  0  0  0  0
    4.0750   -0.6000    0.6500 C   0  0  0  0  0  0  0  0  0  0  0  0
    5.1190    0.1140   -0.0580 C   0  0  0  0  0  0  0  0  0  0  0  0
    5.8430   -0.3180   -0.9550 O   0  0  0  0  0  0  0  0  0  0  0  0
    5.3250    1.4730    0.3460 O   0  0  0  0  0  0  0  0  0  0  0  0
  2  1  1  6
  2  3  1  0
  2  4  1  0
  2  6  1  0
  4  5  1  0
  6  7  1  0
  7  8  1  0
  8  9  1  0
  9 10  2  0
  9 11  1  0
 11 12  1  0
 12 13  1  0
 13 14  1  0
 14 15  2  0
 14 16  1  0
M  END
