
     RDKit          3D

 22 24  0  0  0  0  0  0  0  0999 V2000
    4.3760   -1.2930    1.2120 C   0  0  0  0  0  0  0  0  0  0  0  0
    2.8460   -1.3580    1.1830 C   0  0  0  0  0  0  0  0  0  0  0  0
    2.3650   -0.0190    0.7680 C   0  0  1  0  0  0  0  0  0  0  0  0
    2.9160    0.3190   -0.6270 C   0  0  1  0  0  0  0  0  0  0  0  0
    2.1780   -0.7160   -1.4420 C   0  0  0  0  0  0  0  0  0  0  0  0
    0.8390   -0.9300   -0.7570 C   0  0  2  0  0  0  0  0  0  0  0  0
   -0.1510   -0.6420   -1.7190 O   0  0  0  0  0  0  0  0  0  0  0  0
   -1.0850   -1.5050   -2.2500 C   0  0  0  0  0  0  0  0  0  0  0  0
   -1.0440   -1.9360   -3.4640 O   0  0  0  0  0  0  0  0  0  0  0  0
   -2.2150   -2.0020   -1.4540 C   0  0  0  0  0  0  0  0  0  0  0  0
   -3.0730   -1.2320   -0.8070 C   0  0  0  0  0  0  0  0  0  0  0  0
   -4.1600   -1.8880   -0.0460 C   0  0  0  0  0  0  0  0  0  0  0  0
   -3.0390    0.2520   -0.7890 C   0  0  0  0  0  0  0  0  0  0  0  0
   -3.1990    0.8420    0.5730 C   0  0  0  0  0  0  0  0  0  0  0  0
   -2.0210    1.4390    0.9610 O   0  0  0  0  0  0  0  0  0  0  0  0
   -1.8880    2.6640    0.3550 C   0  0  0  0  0  0  0  0  0  0  0  0
   -0.5490    3.2610    0.5780 C   0  0  0  0  0  0  0  0  0  0  0  0
   -0.4890    4.5220    0.6780 O   0  0  0  0  0  0  0  0  0  0  0  0
    0.5490    2.4290    0.6640 O   0  0  0  0  0  0  0  0  0  0  0  0
    0.8740    1.4310   -0.2480 C   0  0  1  0  0  0  0  0  0  0  0  0
    2.2600    1.6440   -0.8630 C   0  0  0  0  0  0  0  0  0  0  0  0
    0.9020    0.0500    0.3750 C   0  0  2  0  0  0  0  0  0  0  0  0
  1  2  1  0
  3  2  1  6
  3  4  1  0
  3 22  1  0
  4  5  1  6
  4 21  1  0
  6  5  1  6
  6  7  1  0
 22  6  1  6
  7  8  1  0
  8  9  2  0
  8 10  1  0
 10 11  2  0
 11 12  1  0
 11 13  1  0
 13 14  1  0
 14 15  1  0
 15 16  1  0
 16 17  1  0
 17 18  2  0
 17 19  1  0
 19 20  1  0
 20 21  1  1
 20 22  1  0
M  END
