
     RDKit          3D

 22 24  0  0  0  0  0  0  0  0999 V2000
    1.8080   -2.6000   -1.0550 C   0  0  0  0  0  0  0  0  0  0  0  0
    0.6610   -1.7190   -0.7880 C   0  0  1  0  0  0  0  0  0  0  0  0
   -0.2230   -2.2150    0.3350 C   0  0  0  0  0  0  0  0  0  0  0  0
    0.1630   -3.1530    1.0660 O   0  0  0  0  0  0  0  0  0  0  0  0
   -1.4220   -1.5410    0.4350 O   0  0  0  0  0  0  0  0  0  0  0  0
   -1.4210   -0.1320    0.3650 C   0  0  2  0  0  0  0  0  0  0  0  0
   -1.1570    0.3520    1.7750 C   0  0  0  0  0  0  0  0  0  0  0  0
   -2.8180    0.3020    0.0280 C   0  0  1  0  0  0  0  0  0  0  0  0
   -3.7730   -0.1830    1.1250 C   0  0  0  0  0  0  0  0  0  0  0  0
   -2.9690    1.8010   -0.1160 C   0  0  0  0  0  0  0  0  0  0  0  0
   -4.1650    1.8880   -1.0450 C   0  0  0  0  0  0  0  0  0  0  0  0
   -4.5210    0.6030   -1.3910 O   0  0  0  0  0  0  0  0  0  0  0  0
   -3.3510   -0.1890   -1.2650 C   0  0  0  0  0  0  0  0  0  0  0  0
   -0.4370    0.4510   -0.6030 C   0  0  0  0  0  0  0  0  0  0  0  0
    0.9000   -0.2590   -0.6490 C   0  0  1  0  0  0  0  0  0  0  0  0
    1.8000    0.2230    0.4030 C   0  0  0  0  0  0  0  0  0  0  0  0
    3.2170   -0.1730    0.4200 C   0  0  1  0  0  0  0  0  0  0  0  0
    4.0320    0.2060   -0.7490 C   0  0  0  0  0  0  0  0  0  0  0  0
    5.2020    1.0100   -0.2310 C   0  0  0  0  0  0  0  0  0  0  0  0
    5.1580    0.8550    1.1870 O   0  0  0  0  0  0  0  0  0  0  0  0
    3.8770    0.5470    1.5750 C   0  0  0  0  0  0  0  0  0  0  0  0
    3.3510    0.8150    2.6860 O   0  0  0  0  0  0  0  0  0  0  0  0
  2  1  1  1
  2  3  1  0
  2 15  1  0
  3  4  2  0
  3  5  1  0
  5  6  1  0
  6  7  1  1
  6  8  1  0
  6 14  1  0
  8  9  1  1
  8 10  1  0
  8 13  1  0
 10 11  1  0
 11 12  1  0
 12 13  1  0
 14 15  1  0
 15 16  1  1
 17 16  1  6
 17 18  1  0
 17 21  1  0
 18 19  1  0
 19 20  1  0
 20 21  1  0
 21 22  2  0
M  END
