
     RDKit          3D

 22 23  0  0  0  0  0  0  0  0999 V2000
   -2.9910   -1.2320    2.2040 C   0  0  0  0  0  0  0  0  0  0  0  0
   -2.4440   -0.0360    1.4810 C   0  0  0  0  0  0  0  0  0  0  0  0
   -2.3140   -0.2640   -0.0030 C   0  0  2  0  0  0  0  0  0  0  0  0
   -3.6070   -0.5850   -0.7000 C   0  0  0  0  0  0  0  0  0  0  0  0
   -1.2020   -1.1750   -0.4360 C   0  0  1  0  0  0  0  0  0  0  0  0
   -0.9110   -0.1620   -1.5510 C   0  0  0  0  0  0  0  0  0  0  0  0
   -1.5200    0.8850   -0.6400 C   0  0  1  0  0  0  0  0  0  0  0  0
   -2.4010    1.8690   -1.3300 C   0  0  0  0  0  0  0  0  0  0  0  0
   -0.6370    1.3500    0.3190 O   0  0  0  0  0  0  0  0  0  0  0  0
    0.1080    2.4900    0.3090 C   0  0  0  0  0  0  0  0  0  0  0  0
    0.1750    3.2390    1.3450 O   0  0  0  0  0  0  0  0  0  0  0  0
    0.8920    2.9630   -0.8630 C   0  0  0  0  0  0  0  0  0  0  0  0
    2.2560    3.0210   -0.6530 O   0  0  0  0  0  0  0  0  0  0  0  0
    3.1690    2.0150   -0.5910 C   0  0  0  0  0  0  0  0  0  0  0  0
    4.2300    1.9670   -1.2660 O   0  0  0  0  0  0  0  0  0  0  0  0
    2.9370    0.8720    0.3260 C   0  0  2  0  0  0  0  0  0  0  0  0
    4.0750    0.7650    1.3510 C   0  0  0  0  0  0  0  0  0  0  0  0
    2.9380   -0.4500   -0.4220 C   0  0  0  0  0  0  0  0  0  0  0  0
    2.2670   -1.5230    0.4110 C   0  0  0  0  0  0  0  0  0  0  0  0
    0.9100   -1.8750   -0.1460 C   0  0  1  0  0  0  0  0  0  0  0  0
    0.5660   -3.3350    0.1050 C   0  0  0  0  0  0  0  0  0  0  0  0
   -0.0970   -1.1000    0.4270 O   0  0  0  0  0  0  0  0  0  0  0  0
  1  2  1  0
  2  3  1  0
  3  4  1  6
  3  5  1  0
  3  7  1  0
  5  6  1  6
  5 22  1  0
  6  7  1  0
  7  8  1  6
  7  9  1  0
  9 10  1  0
 10 11  2  0
 10 12  1  0
 12 13  1  0
 13 14  1  0
 14 15  2  0
 14 16  1  0
 16 17  1  1
 16 18  1  0
 18 19  1  0
 19 20  1  0
 20 21  1  1
 20 22  1  0
M  END
