
     RDKit          3D

 22 24  0  0  0  0  0  0  0  0999 V2000
    2.9700   -0.1010    1.9850 C   0  0  0  0  0  0  0  0  0  0  0  0
    2.5770   -0.1810    0.5690 C   0  0  1  0  0  0  0  0  0  0  0  0
    1.0460   -0.0070    0.3700 C   0  0  0  0  0  0  0  0  0  0  0  0
    1.1240   -0.2640   -1.0850 C   0  0  0  0  0  0  0  0  0  0  0  0
    1.3210   -1.7400   -0.8900 C   0  0  2  0  0  0  0  0  0  0  0  0
    0.2250   -2.4530   -0.2720 C   0  0  0  0  0  0  0  0  0  0  0  0
   -1.1950   -2.0860   -0.3350 C   0  0  1  0  0  0  0  0  0  0  0  0
   -1.9180   -2.1400    1.0130 C   0  0  0  0  0  0  0  0  0  0  0  0
   -2.2580   -0.8310    1.5610 C   0  0  0  0  0  0  0  0  0  0  0  0
   -2.7670   -0.7200    2.7230 O   0  0  0  0  0  0  0  0  0  0  0  0
   -2.0360    0.3060    0.8360 O   0  0  0  0  0  0  0  0  0  0  0  0
   -2.2190    0.2870   -0.5620 C   0  0  2  0  0  0  0  0  0  0  0  0
   -3.7400    0.5860   -0.7090 C   0  0  0  0  0  0  0  0  0  0  0  0
   -1.8410   -1.0500   -1.1300 C   0  0  0  0  0  0  0  0  0  0  0  0
   -1.6520    1.3940   -1.2130 O   0  0  0  0  0  0  0  0  0  0  0  0
   -1.2810    2.4420   -0.4420 C   0  0  0  0  0  0  0  0  0  0  0  0
   -0.0910    3.2300   -0.6500 C   0  0  0  0  0  0  0  0  0  0  0  0
    1.2200    2.7560   -1.0990 C   0  0  0  0  0  0  0  0  0  0  0  0
    2.1490    2.1660   -0.3270 O   0  0  0  0  0  0  0  0  0  0  0  0
    2.9490    1.0500   -0.2240 C   0  0  0  0  0  0  0  0  0  0  0  0
    4.0840    0.9050   -0.7700 O   0  0  0  0  0  0  0  0  0  0  0  0
    2.6100   -1.5230   -0.0580 C   0  0  0  0  0  0  0  0  0  0  0  0
  2  1  1  1
  2  3  1  0
  2 20  1  0
  2 22  1  0
  3  4  1  0
  5  4  1  1
  5  6  1  0
  5 22  1  0
  7  6  1  1
  7  8  1  0
  7 14  1  0
  8  9  1  0
  9 10  2  0
  9 11  1  0
 11 12  1  0
 12 13  1  1
 12 14  1  0
 12 15  1  0
 15 16  1  0
 16 17  1  0
 17 18  1  0
 18 19  1  0
 19 20  1  0
 20 21  2  0
M  END
