
     RDKit          3D

 19 19  0  0  0  0  0  0  0  0999 V2000
   -3.5670    2.3080   -0.2220 N   0  0  0  0  0  0  0  0  0  0  0  0
   -3.0180    1.2520   -1.0590 C   0  0  0  0  0  0  0  0  0  0  0  0
   -1.9180    0.4730   -0.3430 C   0  0  1  0  0  0  0  0  0  0  0  0
   -2.4830   -0.1540    0.8860 C   0  0  0  0  0  0  0  0  0  0  0  0
   -2.9710    0.8670    1.7170 O   0  0  0  0  0  0  0  0  0  0  0  0
   -1.2700   -0.4540   -1.3030 C   0  0  2  0  0  0  0  0  0  0  0  0
   -2.2230   -1.4400   -1.8850 C   0  0  0  0  0  0  0  0  0  0  0  0
   -2.7370   -2.3330   -0.9420 O   0  0  0  0  0  0  0  0  0  0  0  0
   -0.1590   -1.0340   -0.7150 O   0  0  0  0  0  0  0  0  0  0  0  0
    1.0220   -0.7340   -1.3180 C   0  0  2  0  0  0  0  0  0  0  0  0
    1.5400   -1.9270   -1.8790 O   0  0  0  0  0  0  0  0  0  0  0  0
    2.1510   -2.5890   -0.7910 C   0  0  0  0  0  0  0  0  0  0  0  0
    2.8350   -1.4900   -0.0110 C   0  0  2  0  0  0  0  0  0  0  0  0
    2.7750   -1.7270    1.3560 O   0  0  0  0  0  0  0  0  0  0  0  0
    2.1270   -0.2410   -0.4430 C   0  0  2  0  0  0  0  0  0  0  0  0
    1.6840    0.5640    0.7260 C   0  0  0  0  0  0  0  0  0  0  0  0
    2.7640    0.9640    1.4800 O   0  0  0  0  0  0  0  0  0  0  0  0
    3.7010    1.7450    0.8720 C   0  0  0  0  0  0  0  0  0  0  0  0
    4.6940    2.0220    1.8540 O   0  0  0  0  0  0  0  0  0  0  0  0
  1  2  1  0
  3  2  1  6
  3  4  1  0
  3  6  1  0
  4  5  1  0
  6  7  1  1
  6  9  1  0
  7  8  1  0
 10  9  1  1
 10 11  1  0
 10 15  1  0
 11 12  1  0
 12 13  1  0
 13 14  1  1
 13 15  1  0
 15 16  1  1
 16 17  1  0
 17 18  1  0
 18 19  1  0
M  CHG  1   1   1
M  END
