
     RDKit          3D

 14 14  0  0  0  0  0  0  0  0999 V2000
    0.2210   -1.5990   -1.2230 O   0  0  0  0  0  0  0  0  0  0  0  0
   -0.1450   -0.8970   -0.2620 C   0  0  0  0  0  0  0  0  0  0  0  0
    0.7480   -0.6760    0.7630 O   0  0  0  0  0  0  0  0  0  0  0  0
    2.0580   -1.1830    0.8160 C   0  0  0  0  0  0  0  0  0  0  0  0
    2.9430   -0.7420   -0.3110 C   0  0  0  0  0  0  0  0  0  0  0  0
    3.1170    0.7580   -0.3690 C   0  0  2  0  0  0  0  0  0  0  0  0
    1.5360    1.5180   -0.5910 Cl  0  0  0  0  0  0  0  0  0  0  0  0
    4.1170    1.0920   -1.8250 Cl  0  0  0  0  0  0  0  0  0  0  0  0
    3.9310    1.3650    1.0890 Cl  0  0  0  0  0  0  0  0  0  0  0  0
   -1.5040   -0.3140   -0.2180 C   0  0  0  0  0  0  0  0  0  0  0  0
   -1.9620    0.4300    0.7510 C   0  0  0  0  0  0  0  0  0  0  0  0
   -3.3590    0.8550    0.4930 C   0  0  0  0  0  0  0  0  0  0  0  0
   -3.4780    0.5580   -0.9860 C   0  0  0  0  0  0  0  0  0  0  0  0
   -2.4950   -0.4450   -1.1540 O   0  0  0  0  0  0  0  0  0  0  0  0
  1  2  2  0
  2  3  1  0
  2 10  1  0
  3  4  1  0
  4  5  1  0
  5  6  1  0
  6  7  1  6
  6  8  1  0
  6  9  1  0
 10 11  2  0
 10 14  1  0
 11 12  1  0
 12 13  1  0
 13 14  1  0
M  END
