
     RDKit          3D

 14 14  0  0  0  0  0  0  0  0999 V2000
   -3.5220   -1.4100    0.4640 O   0  0  0  0  0  0  0  0  0  0  0  0
   -3.0410   -0.2860    0.2220 C   0  0  0  0  0  0  0  0  0  0  0  0
   -3.8300    0.8120   -0.1450 O   0  0  0  0  0  0  0  0  0  0  0  0
   -1.5930   -0.0460    0.3110 C   0  0  0  0  0  0  0  0  0  0  0  0
   -1.1020    1.1570    0.7350 C   0  0  0  0  0  0  0  0  0  0  0  0
    0.2560    1.3870    0.8210 C   0  0  0  0  0  0  0  0  0  0  0  0
    0.7870    2.9770    1.3780 Cl  0  0  0  0  0  0  0  0  0  0  0  0
    1.1450    0.4020    0.4790 C   0  0  0  0  0  0  0  0  0  0  0  0
    2.5000    0.6140    0.5580 O   0  0  0  0  0  0  0  0  0  0  0  0
    3.3930   -0.4140    0.2060 C   0  0  0  0  0  0  0  0  0  0  0  0
    5.0780    0.1630    0.4110 Cl  0  0  0  0  0  0  0  0  0  0  0  0
    0.6720   -0.8080    0.0540 C   0  0  0  0  0  0  0  0  0  0  0  0
   -0.7060   -1.0420   -0.0340 C   0  0  0  0  0  0  0  0  0  0  0  0
   -1.3160   -2.6010   -0.5750 Cl  0  0  0  0  0  0  0  0  0  0  0  0
  1  2  2  0
  2  3  1  0
  2  4  1  0
  4  5  2  0
  4 13  1  0
  5  6  1  0
  6  7  1  0
  6  8  2  0
  8  9  1  0
  8 12  1  0
  9 10  1  0
 10 11  1  0
 12 13  2  0
 13 14  1  0
M  END
