
     RDKit          3D

 18 19  0  0  0  0  0  0  0  0999 V2000
   -1.6750   -1.2740   -1.8650 N   0  0  0  0  0  0  0  0  0  0  0  0
   -1.6580   -0.8390   -0.4560 C   0  0  1  0  0  0  0  0  0  0  0  0
   -2.5440   -2.0580    0.5300 S   0  0  1  0  0  0  0  0  0  0  0  0
   -3.9970   -1.7000    0.6270 O   0  0  0  0  0  0  0  0  0  0  0  0
   -2.3700   -3.3910   -0.1330 O   0  0  0  0  0  0  0  0  0  0  0  0
   -0.2680   -0.8890    0.0050 C   0  0  0  0  0  0  0  0  0  0  0  0
    0.4650    0.1710    0.2950 C   0  0  0  0  0  0  0  0  0  0  0  0
    1.7850    0.0700    0.7300 N   0  0  0  0  0  0  0  0  0  0  0  0
    2.5840   -1.1620    0.8140 C   0  0  0  0  0  0  0  0  0  0  0  0
    3.9460   -0.6630    0.4140 C   0  0  0  0  0  0  0  0  0  0  0  0
    3.9550    0.6940    0.7390 O   0  0  0  0  0  0  0  0  0  0  0  0
    2.6920    1.0990    1.1740 C   0  0  0  0  0  0  0  0  0  0  0  0
    2.3870    2.1210    1.8100 O   0  0  0  0  0  0  0  0  0  0  0  0
   -0.1980    1.4640    0.0950 C   0  0  0  0  0  0  0  0  0  0  0  0
    0.4690    2.4890   -0.3930 C   0  0  0  0  0  0  0  0  0  0  0  0
   -0.2160    3.6790   -0.5520 O   0  0  0  0  0  0  0  0  0  0  0  0
   -1.6450    1.5160    0.4450 C   0  0  0  0  0  0  0  0  0  0  0  0
   -2.3530    0.4660   -0.3470 C   0  0  0  0  0  0  0  0  0  0  0  0
  2  1  1  6
  3  2  1  6
  2  6  1  0
  2 18  1  0
  3  4  2  0
  3  5  2  0
  6  7  2  0
  7  8  1  0
  7 14  1  0
  8  9  1  0
  8 12  1  0
  9 10  1  0
 10 11  1  0
 11 12  1  0
 12 13  2  0
 14 15  2  3
 14 17  1  0
 15 16  1  0
 17 18  1  0
M  CHG  1   1   1
M  END
