
     RDKit          3D

 17 17  0  0  0  0  0  0  0  0999 V2000
   -3.9080   -1.9880    1.4180 C   0  0  0  0  0  0  0  0  0  0  0  0
   -3.1140   -1.5040    0.3900 O   0  0  0  0  0  0  0  0  0  0  0  0
   -2.3730   -0.4280    0.9390 C   0  0  0  0  0  0  0  0  0  0  0  0
   -1.5010    0.1430   -0.0970 C   0  0  0  0  0  0  0  0  0  0  0  0
   -2.1180    0.6960   -1.3180 C   0  0  0  0  0  0  0  0  0  0  0  0
   -3.3640    0.6480   -1.3990 O   0  0  0  0  0  0  0  0  0  0  0  0
   -1.3970    1.2460   -2.3410 O   0  0  0  0  0  0  0  0  0  0  0  0
   -1.9430    1.7820   -3.5160 C   0  0  0  0  0  0  0  0  0  0  0  0
   -0.2010    0.1920   -0.0110 C   0  0  0  0  0  0  0  0  0  0  0  0
    0.5250   -0.3240    1.1410 C   0  0  0  0  0  0  0  0  0  0  0  0
    1.8320   -0.2460    1.1640 C   0  0  0  0  0  0  0  0  0  0  0  0
    2.7040   -0.8930    2.6090 S   0  0  0  0  0  0  0  0  0  0  0  0
    4.4560   -0.6790    2.3830 N   0  0  0  0  0  0  0  0  0  0  0  0
    2.6060    0.3340    0.0620 C   0  0  1  0  0  0  0  0  0  0  0  0
    2.9090   -0.6940   -0.9450 N   0  0  0  0  0  0  0  0  0  0  0  0
    1.7910    1.3820   -0.6450 C   0  0  0  0  0  0  0  0  0  0  0  0
    0.5730    0.7540   -1.0430 O   0  0  0  0  0  0  0  0  0  0  0  0
  1  2  1  0
  2  3  1  0
  3  4  1  0
  4  5  1  0
  4  9  2  3
  5  6  2  0
  5  7  1  0
  7  8  1  0
  9 10  1  0
  9 17  1  0
 10 11  2  0
 11 12  1  0
 11 14  1  0
 12 13  1  0
 14 15  1  6
 14 16  1  0
 16 17  1  0
M  CHG  1  15   1
M  END
