
     RDKit          3D

 18 18  0  0  0  0  0  0  0  0999 V2000
    5.9680    0.6610    1.0250 C   0  0  0  0  0  0  0  0  0  0  0  0
    4.8350   -0.1660    1.0590 O   0  0  0  0  0  0  0  0  0  0  0  0
    3.7540    0.0520    0.2190 C   0  0  0  0  0  0  0  0  0  0  0  0
    3.8250    1.0180   -0.5750 O   0  0  0  0  0  0  0  0  0  0  0  0
    2.5980   -0.8410    0.2950 C   0  0  0  0  0  0  0  0  0  0  0  0
    1.5750   -0.5080   -0.6170 O   0  0  0  0  0  0  0  0  0  0  0  0
    0.4180   -1.3470   -0.5860 C   0  0  0  0  0  0  0  0  0  0  0  0
    0.3890   -2.2880    0.2180 O   0  0  0  0  0  0  0  0  0  0  0  0
   -0.6680   -1.0140   -1.5360 C   0  0  0  0  0  0  0  0  0  0  0  0
   -1.6030   -0.0050   -0.9720 C   0  0  0  0  0  0  0  0  0  0  0  0
   -1.3390    1.2400   -1.3690 C   0  0  0  0  0  0  0  0  0  0  0  0
   -2.3080    2.6140   -0.8370 S   0  0  0  0  0  0  0  0  0  0  0  0
   -3.5130    1.9760    0.2990 C   0  0  0  0  0  0  0  0  0  0  0  0
   -4.2960    2.8170    0.8690 N   0  0  0  0  0  0  0  0  0  0  0  0
   -3.5410    0.5980    0.5080 N   0  0  0  0  0  0  0  0  0  0  0  0
   -2.6630   -0.3890   -0.0650 C   0  0  0  0  0  0  0  0  0  0  0  0
   -2.9710   -1.6260    0.2200 C   0  0  0  0  0  0  0  0  0  0  0  0
   -2.3560   -2.7220   -0.2890 O   0  0  0  0  0  0  0  0  0  0  0  0
  1  2  1  0
  2  3  1  0
  3  4  2  0
  3  5  1  0
  5  6  1  0
  6  7  1  0
  7  8  2  0
  7  9  1  0
  9 10  1  0
 10 11  2  0
 10 16  1  0
 11 12  1  0
 12 13  1  0
 13 14  2  0
 13 15  1  0
 15 16  1  0
 16 17  2  3
 17 18  1  0
M  CHG  1  14   1
M  END
