
     RDKit          3D

 18 18  0  0  0  0  0  0  0  0999 V2000
    4.2730    1.8720   -0.6670 C   0  0  0  0  0  0  0  0  0  0  0  0
    3.2450    0.9160   -0.5010 O   0  0  0  0  0  0  0  0  0  0  0  0
    3.5740   -0.4240   -0.3490 C   0  0  0  0  0  0  0  0  0  0  0  0
    4.7970   -0.7410   -0.3640 O   0  0  0  0  0  0  0  0  0  0  0  0
    2.5840   -1.4880   -0.1720 C   0  0  0  0  0  0  0  0  0  0  0  0
    1.2530   -0.9490   -0.1760 O   0  0  0  0  0  0  0  0  0  0  0  0
    0.1500   -1.7690   -0.0270 C   0  0  0  0  0  0  0  0  0  0  0  0
    0.3730   -2.9970    0.1100 O   0  0  0  0  0  0  0  0  0  0  0  0
   -1.2410   -1.2550   -0.0260 C   0  0  0  0  0  0  0  0  0  0  0  0
   -2.2080   -2.1270    0.1150 C   0  0  0  0  0  0  0  0  0  0  0  0
   -1.9520   -3.5210    0.2640 N   0  0  0  0  0  0  0  0  0  0  0  0
   -3.9000   -1.6040    0.1300 S   0  0  0  0  0  0  0  0  0  0  0  0
   -3.9150    0.1830   -0.1020 C   0  0  0  0  0  0  0  0  0  0  0  0
   -2.5690    0.7630   -0.2210 C   0  0  0  0  0  0  0  0  0  0  0  0
   -2.5580    2.1990   -0.4050 N   0  0  0  0  0  0  0  0  0  0  0  0
   -1.4170    0.1720   -0.1920 C   0  0  0  0  0  0  0  0  0  0  0  0
   -0.2570    0.9860   -0.3300 O   0  0  0  0  0  0  0  0  0  0  0  0
    0.1710    1.6300    0.8420 C   0  0  0  0  0  0  0  0  0  0  0  0
  1  2  1  0
  2  3  1  0
  3  4  2  0
  3  5  1  0
  5  6  1  0
  6  7  1  0
  7  8  2  0
  7  9  1  0
  9 10  2  0
  9 16  1  0
 10 11  1  0
 10 12  1  0
 12 13  1  0
 13 14  1  0
 14 15  1  0
 14 16  2  0
 16 17  1  0
 17 18  1  0
M  CHG  1  15   1
M  END
