
     RDKit          3D

 32 34  0  0  0  0  0  0  0  0999 V2000
    4.3280   -2.0830    0.6360 C   0  0  0  0  0  0  0  0  0  0  0  0
    4.8810   -0.8700   -0.1230 C   0  0  0  0  0  0  0  0  0  0  0  0
    3.9790   -0.2480   -0.9980 C   0  0  0  0  0  0  0  0  0  0  0  0
    2.7240   -0.7770   -1.5580 C   0  0  0  0  0  0  0  0  0  0  0  0
    1.6200   -0.1280   -0.9370 N   0  0  0  0  0  0  0  0  0  0  0  0
    1.2120    1.2000   -0.8470 C   0  0  0  0  0  0  0  0  0  0  0  0
    1.8190    2.0960   -1.4580 O   0  0  0  0  0  0  0  0  0  0  0  0
   -0.1990    1.6610    0.2030 S   0  0  0  0  0  0  0  0  0  0  0  0
   -0.7550    0.3850    1.3030 C   0  0  0  0  0  0  0  0  0  0  0  0
   -1.9560   -0.3840    1.0450 C   0  0  0  0  0  0  0  0  0  0  0  0
   -1.9280   -1.6830    0.9390 O   0  0  0  0  0  0  0  0  0  0  0  0
   -3.2470    0.1800    0.9130 N   0  0  0  0  0  0  0  0  0  0  0  0
   -4.4410   -0.5740    0.7540 C   0  0  1  0  0  0  0  0  0  0  0  0
   -5.1830   -0.4520    2.1710 C   0  0  0  0  0  0  0  0  0  0  0  0
   -6.2150   -1.5300    2.1830 C   0  0  0  0  0  0  0  0  0  0  0  0
   -6.8490   -1.7570    0.8690 C   0  0  0  0  0  0  0  0  0  0  0  0
   -6.6900   -0.6320   -0.0860 N   0  0  0  0  0  0  0  0  0  0  0  0
   -7.5290   -0.0510   -0.9250 C   0  0  0  0  0  0  0  0  0  0  0  0
   -6.8550    0.8900   -1.5950 N   0  0  0  0  0  0  0  0  0  0  0  0
   -5.5500    0.8970   -1.1630 C   0  0  0  0  0  0  0  0  0  0  0  0
   -4.5620    1.8100   -1.7150 C   0  0  0  0  0  0  0  0  0  0  0  0
   -5.0000    2.9760   -2.3780 N   0  0  0  0  0  0  0  0  0  0  0  0
   -3.3530    1.5290   -1.5770 O   0  0  0  0  0  0  0  0  0  0  0  0
   -5.4630   -0.0740   -0.1940 C   0  0  0  0  0  0  0  0  0  0  0  0
    4.9610    1.1580   -1.5100 S   0  0  0  0  0  0  0  0  0  0  0  0
    6.4490    0.8240   -0.5610 C   0  0  0  0  0  0  0  0  0  0  0  0
    7.4770    1.5840   -0.6610 C   0  0  0  0  0  0  0  0  0  0  0  0
    8.7450    1.4250    0.0400 C   0  0  0  0  0  0  0  0  0  0  0  0
    9.7080    2.4030   -0.4090 O   0  0  0  0  0  0  0  0  0  0  0  0
    6.0880   -0.3630    0.1040 C   0  0  0  0  0  0  0  0  0  0  0  0
    6.9790   -0.9130    0.9890 C   0  0  0  0  0  0  0  0  0  0  0  0
    6.5710   -2.3520    1.8990 Cl  0  0  0  0  0  0  0  0  0  0  0  0
  1  2  1  0
  2  3  2  0
  2 30  1  0
  3  4  1  0
  3 25  1  0
  4  5  1  0
  5  6  1  0
  6  7  2  0
  6  8  1  0
  8  9  1  0
  9 10  1  0
 10 11  2  0
 10 12  1  0
 13 12  1  1
 13 14  1  0
 13 24  1  0
 14 15  1  0
 15 16  1  0
 16 17  1  0
 17 18  1  0
 17 24  1  0
 18 19  2  0
 19 20  1  0
 20 21  1  0
 20 24  2  0
 21 22  1  0
 21 23  2  0
 25 26  1  0
 26 27  2  3
 26 30  1  0
 27 28  1  0
 28 29  1  0
 30 31  2  3
 31 32  1  0
M  END
