
     RDKit          3D

 33 35  0  0  0  0  0  0  0  0999 V2000
   -6.0850    3.6390    0.5500 C   0  0  0  0  0  0  0  0  0  0  0  0
   -5.0290    2.7580    1.1890 C   0  0  0  0  0  0  0  0  0  0  0  0
   -4.4240    1.9120    0.1160 C   0  0  2  0  0  0  0  0  0  0  0  0
   -3.3400    0.9910    0.7020 C   0  0  0  0  0  0  0  0  0  0  0  0
   -2.9510    0.1850   -0.4090 N   0  0  0  0  0  0  0  0  0  0  0  0
   -3.2810   -1.1230   -0.7370 C   0  0  0  0  0  0  0  0  0  0  0  0
   -2.6980   -1.5890   -1.8130 O   0  0  0  0  0  0  0  0  0  0  0  0
   -4.1740   -2.0210   -0.0530 C   0  0  0  0  0  0  0  0  0  0  0  0
   -4.9550   -1.8540    0.9960 N   0  0  0  0  0  0  0  0  0  0  0  0
   -5.6160   -3.0140    1.3270 C   0  0  0  0  0  0  0  0  0  0  0  0
   -5.2400   -3.9730    0.4430 C   0  0  0  0  0  0  0  0  0  0  0  0
   -4.3490   -3.3690   -0.4140 C   0  0  0  0  0  0  0  0  0  0  0  0
   -3.6660   -4.0320   -1.5450 C   0  0  0  0  0  0  0  0  0  0  0  0
   -2.0840    0.9540   -1.3660 C   0  0  2  0  0  0  0  0  0  0  0  0
   -0.6770    0.5460   -1.2460 C   0  0  0  0  0  0  0  0  0  0  0  0
   -0.0460    0.7280    0.0890 C   0  0  0  0  0  0  0  0  0  0  0  0
    1.3180    0.3350    0.2010 N   0  0  0  0  0  0  0  0  0  0  0  0
    2.3830    0.8820   -0.5530 C   0  0  0  0  0  0  0  0  0  0  0  0
    2.0370    1.7820   -1.3690 O   0  0  0  0  0  0  0  0  0  0  0  0
    3.7700    0.4960   -0.4550 C   0  0  0  0  0  0  0  0  0  0  0  0
    4.7100    1.1140   -1.2520 O   0  0  0  0  0  0  0  0  0  0  0  0
    4.1620   -0.4390    0.3820 C   0  0  0  0  0  0  0  0  0  0  0  0
    5.5590   -0.8390    0.4930 C   0  0  0  0  0  0  0  0  0  0  0  0
    5.8720   -2.1850    0.6360 C   0  0  0  0  0  0  0  0  0  0  0  0
    7.1630   -2.5700    0.7500 C   0  0  0  0  0  0  0  0  0  0  0  0
    7.5170   -4.2920    0.9290 Cl  0  0  0  0  0  0  0  0  0  0  0  0
    8.1780   -1.6620    0.7290 C   0  0  0  0  0  0  0  0  0  0  0  0
    7.8680   -0.3310    0.5880 C   0  0  0  0  0  0  0  0  0  0  0  0
    8.8860    0.5980    0.5650 O   0  0  0  0  0  0  0  0  0  0  0  0
   10.2370    0.2220    0.6820 C   0  0  0  0  0  0  0  0  0  0  0  0
    6.5560    0.0760    0.4700 C   0  0  0  0  0  0  0  0  0  0  0  0
   -2.4130    2.3910   -1.1820 C   0  0  0  0  0  0  0  0  0  0  0  0
   -3.7850    2.6650   -0.9310 N   0  0  0  0  0  0  0  0  0  0  0  0
  1  2  1  0
  3  2  1  1
  3  4  1  0
  3 33  1  0
  4  5  1  0
  5  6  1  0
  5 14  1  0
  6  7  2  0
  6  8  1  0
  8  9  1  0
  8 12  2  0
  9 10  1  0
 10 11  2  0
 11 12  1  0
 12 13  1  0
 14 15  1  1
 14 32  1  0
 15 16  1  0
 16 17  1  0
 17 18  1  0
 18 19  2  0
 18 20  1  0
 20 21  1  0
 20 22  2  3
 22 23  1  0
 23 24  2  0
 23 31  1  0
 24 25  1  0
 25 26  1  0
 25 27  2  0
 27 28  1  0
 28 29  1  0
 28 31  2  0
 29 30  1  0
 32 33  1  0
M  CHG  1  33   1
M  END
