
     RDKit          3D

 33 35  0  0  0  0  0  0  0  0999 V2000
    1.3930    1.0660    3.4040 C   0  0  0  0  0  0  0  0  0  0  0  0
    1.7540   -0.1910    2.6720 C   0  0  0  0  0  0  0  0  0  0  0  0
    1.4900   -0.0040    1.2080 C   0  0  1  0  0  0  0  0  0  0  0  0
    2.2500    1.1270    0.7610 O   0  0  0  0  0  0  0  0  0  0  0  0
    2.1020   -1.1750    0.4220 C   0  0  0  0  0  0  0  0  0  0  0  0
    3.5880   -1.1580    0.6260 C   0  0  0  0  0  0  0  0  0  0  0  0
    4.1650   -0.1530    1.1030 O   0  0  0  0  0  0  0  0  0  0  0  0
    4.4300   -2.2590    0.3000 N   0  0  0  0  0  0  0  0  0  0  0  0
    5.8820   -2.0870    0.5240 C   0  0  0  0  0  0  0  0  0  0  0  0
    6.3180   -0.9290   -0.3440 C   0  0  0  0  0  0  0  0  0  0  0  0
    6.8420    0.1910    0.1320 C   0  0  0  0  0  0  0  0  0  0  0  0
    7.2460    1.3000   -0.7960 C   0  0  0  0  0  0  0  0  0  0  0  0
    7.6250    0.6630   -2.1310 C   0  0  0  0  0  0  0  0  0  0  0  0
    6.4660   -0.0060   -2.6260 N   0  0  0  0  0  0  0  0  0  0  0  0
    6.1050   -1.1130   -1.7970 C   0  0  0  0  0  0  0  0  0  0  0  0
    0.0920    0.2540    0.9070 C   0  0  0  0  0  0  0  0  0  0  0  0
   -0.7630   -0.7160    0.9650 O   0  0  0  0  0  0  0  0  0  0  0  0
   -0.3940    1.5050    0.5570 N   0  0  0  0  0  0  0  0  0  0  0  0
   -1.6990    1.9490    0.2000 C   0  0  0  0  0  0  0  0  0  0  0  0
   -2.8480    1.3420    0.8740 C   0  0  0  0  0  0  0  0  0  0  0  0
   -3.8050    0.7730    0.0060 C   0  0  0  0  0  0  0  0  0  0  0  0
   -4.9890    0.2220    0.4530 C   0  0  0  0  0  0  0  0  0  0  0  0
   -5.9580   -0.3190   -0.4510 N   0  0  0  0  0  0  0  0  0  0  0  0
   -7.0660    0.4840   -0.9980 C   0  0  0  0  0  0  0  0  0  0  0  0
   -8.0770   -0.4850   -1.4860 C   0  0  1  0  0  0  0  0  0  0  0  0
   -8.8310    0.0710   -2.6640 C   0  0  0  0  0  0  0  0  0  0  0  0
   -7.3130   -1.7590   -1.7960 C   0  0  0  0  0  0  0  0  0  0  0  0
   -6.0900   -1.5990   -0.9860 C   0  0  0  0  0  0  0  0  0  0  0  0
   -5.2350   -2.5260   -0.7840 O   0  0  0  0  0  0  0  0  0  0  0  0
   -5.1990    0.2450    1.8310 C   0  0  0  0  0  0  0  0  0  0  0  0
   -4.2630    0.7980    2.6680 C   0  0  0  0  0  0  0  0  0  0  0  0
   -3.0730    1.3600    2.2180 C   0  0  0  0  0  0  0  0  0  0  0  0
   -1.9190    2.0800    3.3480 Cl  0  0  0  0  0  0  0  0  0  0  0  0
  1  2  1  0
  2  3  1  0
  3  4  1  6
  3  5  1  0
  3 16  1  0
  5  6  1  0
  6  7  2  0
  6  8  1  0
  8  9  1  0
  9 10  1  0
 10 11  2  0
 10 15  1  0
 11 12  1  0
 12 13  1  0
 13 14  1  0
 14 15  1  0
 16 17  2  0
 16 18  1  0
 18 19  1  0
 19 20  1  0
 20 21  2  0
 20 32  1  0
 21 22  1  0
 22 23  1  0
 22 30  2  0
 23 24  1  0
 23 28  1  0
 24 25  1  0
 25 26  1  6
 25 27  1  0
 27 28  1  0
 28 29  2  0
 30 31  1  0
 31 32  2  0
 32 33  1  0
M  CHG  1  14   1
M  END
