
     RDKit          3D

 33 35  0  0  0  0  0  0  0  0999 V2000
   -2.7240   -0.9680    0.6390 O   0  0  0  0  0  0  0  0  0  0  0  0
   -3.2520    0.1710    0.3860 C   0  0  0  0  0  0  0  0  0  0  0  0
   -2.3330    1.2420    0.3700 N   0  0  0  0  0  0  0  0  0  0  0  0
   -0.9330    1.2110    0.6210 C   0  0  0  0  0  0  0  0  0  0  0  0
   -0.0690    0.3770   -0.2160 C   0  0  0  0  0  0  0  0  0  0  0  0
    0.6980   -0.5830    0.3040 C   0  0  0  0  0  0  0  0  0  0  0  0
    1.6030   -1.4760   -0.4380 C   0  0  1  0  0  0  0  0  0  0  0  0
    2.5960   -0.7720   -1.1060 O   0  0  0  0  0  0  0  0  0  0  0  0
    3.8160   -0.9790   -0.5330 C   0  0  1  0  0  0  0  0  0  0  0  0
    4.7350    0.1010   -0.6360 N   0  0  0  0  0  0  0  0  0  0  0  0
    4.5470    1.2680   -1.2670 C   0  0  0  0  0  0  0  0  0  0  0  0
    5.6490    2.0340   -1.1430 N   0  0  0  0  0  0  0  0  0  0  0  0
    6.5620    1.3550   -0.4240 C   0  0  0  0  0  0  0  0  0  0  0  0
    7.9160    1.7500   -0.0060 C   0  0  2  0  0  0  0  0  0  0  0  0
    7.9230    2.5040    1.1690 F   0  0  0  0  0  0  0  0  0  0  0  0
    8.4900    2.5260   -1.0330 F   0  0  0  0  0  0  0  0  0  0  0  0
    8.6990    0.6370    0.2120 F   0  0  0  0  0  0  0  0  0  0  0  0
    5.9690    0.1380   -0.1130 C   0  0  0  0  0  0  0  0  0  0  0  0
    3.4490   -1.2650    0.9340 C   0  0  2  0  0  0  0  0  0  0  0  0
    4.4870   -1.8210    1.6350 O   0  0  0  0  0  0  0  0  0  0  0  0
    2.3580   -2.3090    0.6240 C   0  0  2  0  0  0  0  0  0  0  0  0
    3.0130   -3.3920    0.0450 O   0  0  0  0  0  0  0  0  0  0  0  0
   -4.6810    0.2750    0.1500 C   0  0  0  0  0  0  0  0  0  0  0  0
   -5.4470   -0.8970    0.2230 C   0  0  0  0  0  0  0  0  0  0  0  0
   -6.8110   -0.9040    0.0320 C   0  0  0  0  0  0  0  0  0  0  0  0
   -7.5890   -2.0830    0.1320 N   0  0  0  0  0  0  0  0  0  0  0  0
   -8.8430   -2.0540    0.0710 O   0  0  0  0  0  0  0  0  0  0  0  0
   -7.0270   -3.3100    0.3230 O   0  0  0  0  0  0  0  0  0  0  0  0
   -7.4860    0.2580   -0.2430 C   0  0  0  0  0  0  0  0  0  0  0  0
   -6.7510    1.4440   -0.3230 C   0  0  0  0  0  0  0  0  0  0  0  0
   -7.4460    2.5980   -0.5990 O   0  0  0  0  0  0  0  0  0  0  0  0
   -5.3670    1.4240   -0.1260 C   0  0  0  0  0  0  0  0  0  0  0  0
   -4.7240    2.6210   -0.2180 O   0  0  0  0  0  0  0  0  0  0  0  0
  1  2  2  0
  2  3  1  0
  2 23  1  0
  3  4  1  0
  4  5  1  0
  5  6  2  3
  7  6  1  1
  7  8  1  0
  7 21  1  0
  8  9  1  0
  9 10  1  1
  9 19  1  0
 10 11  1  0
 10 18  1  0
 11 12  2  0
 12 13  1  0
 13 14  1  0
 13 18  2  0
 14 15  1  1
 14 16  1  0
 14 17  1  0
 19 20  1  1
 19 21  1  0
 21 22  1  6
 23 24  2  0
 23 32  1  0
 24 25  1  0
 25 26  1  0
 25 29  2  0
 26 27  2  0
 26 28  1  0
 29 30  1  0
 30 31  1  0
 30 32  2  0
 32 33  1  0
M  CHG  2  26   1  28  -1
M  END
