
     RDKit          3D

 29 30  0  0  0  0  0  0  0  0999 V2000
   -3.7560    2.4160    2.9610 C   0  0  0  0  0  0  0  0  0  0  0  0
   -3.9400    1.1850    2.0730 C   0  0  1  0  0  0  0  0  0  0  0  0
   -5.1760    0.5140    2.5410 C   0  0  0  0  0  0  0  0  0  0  0  0
   -5.6080   -0.7180    1.8310 C   0  0  0  0  0  0  0  0  0  0  0  0
   -5.9230   -0.5590    0.4450 N   0  0  0  0  0  0  0  0  0  0  0  0
   -3.9040    1.4410    0.7610 O   0  0  0  0  0  0  0  0  0  0  0  0
   -2.7860    0.9970    0.0730 C   0  0  1  0  0  0  0  0  0  0  0  0
   -3.0750    0.3200   -1.2270 C   0  0  0  0  0  0  0  0  0  0  0  0
   -1.8250   -0.0730   -1.8670 N   0  0  0  0  0  0  0  0  0  0  0  0
   -0.8910   -0.9620   -1.2870 C   0  0  0  0  0  0  0  0  0  0  0  0
   -1.1170   -1.4600   -0.1660 O   0  0  0  0  0  0  0  0  0  0  0  0
    0.3260   -1.3320   -1.9250 N   0  0  0  0  0  0  0  0  0  0  0  0
    1.2670   -2.2370   -1.3170 C   0  0  1  0  0  0  0  0  0  0  0  0
    1.4620   -3.4940   -2.1290 C   0  0  0  0  0  0  0  0  0  0  0  0
    2.5910   -1.6240   -1.0960 C   0  0  0  0  0  0  0  0  0  0  0  0
    3.2280   -0.8510   -2.0470 C   0  0  0  0  0  0  0  0  0  0  0  0
    4.4720   -0.3110   -1.7590 C   0  0  0  0  0  0  0  0  0  0  0  0
    5.0970   -0.5190   -0.5520 C   0  0  0  0  0  0  0  0  0  0  0  0
    6.4180    0.0660   -0.2690 C   0  0  0  0  0  0  0  0  0  0  0  0
    7.1340   -0.0530    0.8490 N   0  0  0  0  0  0  0  0  0  0  0  0
    8.2570    0.6240    0.6910 N   0  0  0  0  0  0  0  0  0  0  0  0
    8.2620    1.1800   -0.5340 C   0  0  0  0  0  0  0  0  0  0  0  0
    9.1940    1.9060   -1.0290 O   0  0  0  0  0  0  0  0  0  0  0  0
    7.1160    0.8260   -1.1190 N   0  0  0  0  0  0  0  0  0  0  0  0
    4.4720   -1.2830    0.3950 C   0  0  0  0  0  0  0  0  0  0  0  0
    3.2240   -1.8260    0.1090 C   0  0  0  0  0  0  0  0  0  0  0  0
   -2.0650    2.2760   -0.2970 C   0  0  0  0  0  0  0  0  0  0  0  0
   -2.6730    3.2830   -1.0860 N   0  0  0  0  0  0  0  0  0  0  0  0
   -0.5460    2.4640    0.2450 S   0  0  0  0  0  0  0  0  0  0  0  0
  2  1  1  1
  2  3  1  0
  2  6  1  0
  3  4  1  0
  4  5  1  0
  6  7  1  0
  7  8  1  6
  7 27  1  0
  8  9  1  0
  9 10  1  0
 10 11  2  0
 10 12  1  0
 12 13  1  0
 13 14  1  6
 13 15  1  0
 15 16  2  0
 15 26  1  0
 16 17  1  0
 17 18  2  0
 18 19  1  0
 18 25  1  0
 19 20  2  0
 19 24  1  0
 20 21  1  0
 21 22  1  0
 22 23  2  0
 22 24  1  0
 25 26  2  0
 27 28  1  0
 27 29  2  0
M  END
