
     RDKit          3D

 29 33  0  0  0  0  0  0  0  0999 V2000
   -1.9080    4.6050   -1.3830 C   0  0  0  0  0  0  0  0  0  0  0  0
   -0.7560    3.8140   -0.7970 C   0  0  0  0  0  0  0  0  0  0  0  0
   -0.9660    2.3990   -1.0060 N   0  0  0  0  0  0  0  0  0  0  0  0
   -0.2320    1.5060   -0.4650 C   0  0  0  0  0  0  0  0  0  0  0  0
    0.9170    1.8540    0.4390 C   0  0  0  0  0  0  0  0  0  0  0  0
    2.1570    1.0950    0.0580 C   0  0  0  0  0  0  0  0  0  0  0  0
    1.8320   -0.2730   -0.1940 N   0  0  0  0  0  0  0  0  0  0  0  0
    2.8820   -1.2400   -0.0630 C   0  0  0  0  0  0  0  0  0  0  0  0
    4.2100   -0.8300    0.3140 N   0  0  0  0  0  0  0  0  0  0  0  0
    4.6740   -0.8700    1.6790 C   0  0  0  0  0  0  0  0  0  0  0  0
    5.6240    0.3000    1.7520 C   0  0  0  0  0  0  0  0  0  0  0  0
    6.2670    0.2570    0.3760 C   0  0  0  0  0  0  0  0  0  0  0  0
    5.2460   -0.3460   -0.5390 C   0  0  0  0  0  0  0  0  0  0  0  0
    2.6400   -2.4690   -0.2820 N   0  0  0  0  0  0  0  0  0  0  0  0
    1.3780   -2.9910   -0.6580 C   0  0  0  0  0  0  0  0  0  0  0  0
    0.8470   -4.2320   -0.9510 C   0  0  0  0  0  0  0  0  0  0  0  0
   -0.4860   -4.0790   -1.2570 C   0  0  0  0  0  0  0  0  0  0  0  0
   -0.7520   -2.7690   -1.1510 N   0  0  0  0  0  0  0  0  0  0  0  0
    0.3510   -2.1140   -0.7950 N   0  0  0  0  0  0  0  0  0  0  0  0
    0.5360   -0.7220   -0.5690 C   0  0  0  0  0  0  0  0  0  0  0  0
   -0.4900    0.0930   -0.7120 C   0  0  0  0  0  0  0  0  0  0  0  0
   -2.0510   -0.5080   -1.1640 S   0  0  0  0  0  0  0  0  0  0  0  0
   -2.3240   -0.5330   -2.6320 O   0  0  0  0  0  0  0  0  0  0  0  0
   -3.3570   -0.0180   -0.1850 N   0  0  0  0  0  0  0  0  0  0  0  0
   -3.0770    0.5760    1.0530 C   0  0  0  0  0  0  0  0  0  0  0  0
   -4.5440   -0.7650   -0.3320 C   0  0  1  0  0  0  0  0  0  0  0  0
   -4.6230   -1.9700    0.5480 C   0  0  0  0  0  0  0  0  0  0  0  0
   -6.0150   -1.5170    0.9780 C   0  0  0  0  0  0  0  0  0  0  0  0
   -5.8170   -0.2280    0.2050 C   0  0  0  0  0  0  0  0  0  0  0  0
  1  2  1  0
  2  3  1  0
  3  4  2  3
  4  5  1  0
  4 21  1  0
  5  6  1  0
  6  7  1  0
  7  8  1  0
  7 20  1  0
  8  9  1  0
  8 14  2  0
  9 10  1  0
  9 13  1  0
 10 11  1  0
 11 12  1  0
 12 13  1  0
 14 15  1  0
 15 16  2  0
 15 19  1  0
 16 17  1  0
 17 18  2  0
 18 19  1  0
 19 20  1  0
 20 21  2  0
 21 22  1  0
 22 23  2  0
 22 24  1  1
 24 25  1  0
 26 24  1  1
 26 27  1  0
 26 29  1  0
 27 28  1  0
 28 29  1  0
M  END
