
     RDKit          3D

 29 31  0  0  0  0  0  0  0  0999 V2000
    7.1190   -1.2390    1.6390 C   0  0  0  0  0  0  0  0  0  0  0  0
    6.3650   -0.1680    0.8810 C   0  0  0  0  0  0  0  0  0  0  0  0
    5.5800   -0.7760   -0.2630 C   0  0  2  0  0  0  0  0  0  0  0  0
    4.6130   -1.7470    0.2110 N   0  0  0  0  0  0  0  0  0  0  0  0
    6.5880   -1.4100   -1.1960 C   0  0  0  0  0  0  0  0  0  0  0  0
    7.0440   -0.2090   -1.9150 N   0  0  0  0  0  0  0  0  0  0  0  0
    5.8650    0.5700   -2.0640 C   0  0  0  0  0  0  0  0  0  0  0  0
    5.6760    1.5420   -3.1000 N   0  0  0  0  0  0  0  0  0  0  0  0
    4.9860    0.2730   -1.1230 C   0  0  0  0  0  0  0  0  0  0  0  0
    3.6790    0.8890   -0.9920 C   0  0  0  0  0  0  0  0  0  0  0  0
    3.3290    1.7650   -1.8140 O   0  0  0  0  0  0  0  0  0  0  0  0
    2.7430    0.5700    0.0210 N   0  0  0  0  0  0  0  0  0  0  0  0
    1.4760    1.2180    0.0880 C   0  0  0  0  0  0  0  0  0  0  0  0
    0.8220    2.0300   -0.4540 N   0  0  0  0  0  0  0  0  0  0  0  0
   -0.3730    2.4120   -0.1140 N   0  0  0  0  0  0  0  0  0  0  0  0
   -0.9610    1.9520    0.8350 C   0  0  0  0  0  0  0  0  0  0  0  0
   -2.2890    2.1440    1.4960 C   0  0  0  0  0  0  0  0  0  0  0  0
   -3.2300    1.2910    0.8430 N   0  0  0  0  0  0  0  0  0  0  0  0
   -4.5860    1.2380    1.2370 C   0  0  0  0  0  0  0  0  0  0  0  0
   -5.0050    1.9430    2.1750 O   0  0  0  0  0  0  0  0  0  0  0  0
   -5.5140    0.3380    0.5260 C   0  0  1  0  0  0  0  0  0  0  0  0
   -4.9860   -1.0750    0.6900 C   0  0  0  0  0  0  0  0  0  0  0  0
   -6.9190    0.4160    1.1020 C   0  0  0  0  0  0  0  0  0  0  0  0
   -7.8140   -0.5200    0.3380 C   0  0  0  0  0  0  0  0  0  0  0  0
   -8.5280   -0.1820   -0.7780 C   0  0  0  0  0  0  0  0  0  0  0  0
   -9.2190   -1.2960   -1.1850 C   0  0  0  0  0  0  0  0  0  0  0  0
   -8.8880   -2.2760   -0.2830 C   0  0  0  0  0  0  0  0  0  0  0  0
   -8.0600   -1.7780    0.5960 O   0  0  0  0  0  0  0  0  0  0  0  0
    0.2860    0.7330    1.4710 S   0  0  0  0  0  0  0  0  0  0  0  0
  1  2  1  0
  2  3  1  0
  3  4  1  1
  3  5  1  0
  3  9  1  0
  5  6  1  0
  6  7  1  0
  7  8  1  0
  7  9  2  0
  9 10  1  0
 10 11  2  0
 10 12  1  0
 12 13  1  0
 13 14  2  0
 13 29  1  0
 14 15  1  0
 15 16  2  0
 16 17  1  0
 16 29  1  0
 17 18  1  0
 18 19  1  0
 19 20  2  0
 19 21  1  0
 21 22  1  1
 21 23  1  0
 23 24  1  0
 24 25  2  0
 24 28  1  0
 25 26  1  0
 26 27  2  0
 27 28  1  0
M  END
