
     RDKit          3D

 29 33  0  0  0  0  0  0  0  0999 V2000
    1.0070   -4.3660   -1.7750 C   0  0  0  0  0  0  0  0  0  0  0  0
    0.8490   -2.8580   -1.7080 C   0  0  0  0  0  0  0  0  0  0  0  0
    0.0500   -2.5630   -0.4540 C   0  0  0  0  0  0  0  0  0  0  0  0
   -0.1700   -1.0750   -0.3040 C   0  0  2  0  0  0  0  0  0  0  0  0
    1.1750   -0.4330   -0.2240 C   0  0  0  0  0  0  0  0  0  0  0  0
    1.9730   -0.2400    0.8300 N   0  0  0  0  0  0  0  0  0  0  0  0
    3.0760    0.4030    0.3680 C   0  0  0  0  0  0  0  0  0  0  0  0
    4.2090    0.8580    0.9950 C   0  0  0  0  0  0  0  0  0  0  0  0
    4.4300    0.7090    2.3570 O   0  0  0  0  0  0  0  0  0  0  0  0
    5.5940    1.1830    2.9870 C   0  0  0  0  0  0  0  0  0  0  0  0
    6.8670    0.5930    2.4640 C   0  0  0  0  0  0  0  0  0  0  0  0
    5.1370    1.4740    0.2520 N   0  0  0  0  0  0  0  0  0  0  0  0
    4.9970    1.6570   -1.0650 N   0  0  0  0  0  0  0  0  0  0  0  0
    3.8930    1.2200   -1.6990 C   0  0  0  0  0  0  0  0  0  0  0  0
    3.7060    1.4160   -3.1780 C   0  0  0  0  0  0  0  0  0  0  0  0
    2.9600    0.6010   -0.9560 N   0  0  0  0  0  0  0  0  0  0  0  0
    1.8030    0.0880   -1.2910 N   0  0  0  0  0  0  0  0  0  0  0  0
   -0.9660   -0.7470    0.9300 C   0  0  0  0  0  0  0  0  0  0  0  0
   -2.4110   -1.1370    0.7610 C   0  0  0  0  0  0  0  0  0  0  0  0
   -3.0970   -0.1550   -0.0420 N   0  0  0  0  0  0  0  0  0  0  0  0
   -2.5840    0.2890   -1.1940 C   0  0  0  0  0  0  0  0  0  0  0  0
   -3.4410    1.2030   -1.7210 N   0  0  0  0  0  0  0  0  0  0  0  0
   -4.4700    1.3160   -0.8960 C   0  0  0  0  0  0  0  0  0  0  0  0
   -4.2710    0.4780    0.1500 C   0  0  0  0  0  0  0  0  0  0  0  0
   -5.2510    0.3700    1.2340 C   0  0  0  0  0  0  0  0  0  0  0  0
   -5.8810    1.6790    1.5150 C   0  0  0  0  0  0  0  0  0  0  0  0
   -6.2230    2.5410    0.3620 C   0  0  0  0  0  0  0  0  0  0  0  0
   -5.6870    2.1450   -0.9610 C   0  0  0  0  0  0  0  0  0  0  0  0
   -1.0220   -0.3750   -1.7360 S   0  0  0  0  0  0  0  0  0  0  0  0
  1  2  1  0
  2  3  1  0
  4  3  1  6
  4  5  1  0
  4 18  1  0
  4 29  1  0
  5  6  1  0
  5 17  2  0
  6  7  2  0
  7  8  1  0
  7 16  1  0
  8  9  1  0
  8 12  2  0
  9 10  1  0
 10 11  1  0
 12 13  1  0
 13 14  2  0
 14 15  1  0
 14 16  1  0
 16 17  1  0
 18 19  1  0
 19 20  1  0
 20 21  1  0
 20 24  1  0
 21 22  2  0
 21 29  1  0
 22 23  1  0
 23 24  2  0
 23 28  1  0
 24 25  1  0
 25 26  1  0
 26 27  1  0
 27 28  1  0
M  END
