
     RDKit          3D

 31 33  0  0  0  0  0  0  0  0999 V2000
   -3.7710    2.8700   -0.3130 O   0  0  0  0  0  0  0  0  0  0  0  0
   -3.7710    1.6250   -0.2890 C   0  0  0  0  0  0  0  0  0  0  0  0
   -2.4950    1.0110   -0.4720 N   0  0  0  0  0  0  0  0  0  0  0  0
   -1.3120    1.8280   -0.6660 C   0  0  0  0  0  0  0  0  0  0  0  0
   -0.1460    0.9220   -0.8260 C   0  0  0  0  0  0  0  0  0  0  0  0
    0.8990    0.9240   -0.0300 C   0  0  0  0  0  0  0  0  0  0  0  0
    1.9990   -0.0240   -0.2880 C   0  0  1  0  0  0  0  0  0  0  0  0
    3.2640    0.5660   -0.1410 O   0  0  0  0  0  0  0  0  0  0  0  0
    4.0910   -0.5420   -0.3440 C   0  0  1  0  0  0  0  0  0  0  0  0
    5.4710   -0.2020   -0.0850 N   0  0  0  0  0  0  0  0  0  0  0  0
    5.7850    1.0780    0.1810 C   0  0  0  0  0  0  0  0  0  0  0  0
    7.0760    1.4890    0.4390 C   0  0  0  0  0  0  0  0  0  0  0  0
    8.1010    0.5610    0.4290 C   0  0  0  0  0  0  0  0  0  0  0  0
    9.3080    0.8910    0.6620 O   0  0  0  0  0  0  0  0  0  0  0  0
    7.7370   -0.7400    0.1520 C   0  0  0  0  0  0  0  0  0  0  0  0
    6.4320   -1.1100   -0.1010 C   0  0  0  0  0  0  0  0  0  0  0  0
    3.5370   -1.5370    0.6350 C   0  0  2  0  0  0  0  0  0  0  0  0
    3.5930   -2.8230    0.0770 O   0  0  0  0  0  0  0  0  0  0  0  0
    2.0730   -1.1400    0.7250 C   0  0  2  0  0  0  0  0  0  0  0  0
    1.2330   -2.1630    0.2920 O   0  0  0  0  0  0  0  0  0  0  0  0
   -4.9930    0.8850   -0.0900 C   0  0  0  0  0  0  0  0  0  0  0  0
   -4.9820   -0.4990   -0.0660 C   0  0  0  0  0  0  0  0  0  0  0  0
   -6.1270   -1.2590    0.1230 C   0  0  0  0  0  0  0  0  0  0  0  0
   -6.0870   -2.6830    0.1430 N   0  0  0  0  0  0  0  0  0  0  0  0
   -7.1380   -3.3130    0.3150 O   0  0  0  0  0  0  0  0  0  0  0  0
   -4.8960   -3.3160   -0.0260 O   0  0  0  0  0  0  0  0  0  0  0  0
   -7.3120   -0.5840    0.2900 C   0  0  0  0  0  0  0  0  0  0  0  0
   -7.3960    0.7810    0.2770 C   0  0  0  0  0  0  0  0  0  0  0  0
   -8.6140    1.4420    0.4490 O   0  0  0  0  0  0  0  0  0  0  0  0
   -6.2100    1.5120    0.0830 C   0  0  0  0  0  0  0  0  0  0  0  0
   -6.3910    2.8770    0.0850 O   0  0  0  0  0  0  0  0  0  0  0  0
  1  2  2  0
  2  3  1  0
  2 21  1  0
  3  4  1  0
  4  5  1  0
  5  6  2  3
  7  6  1  1
  7  8  1  0
  7 19  1  0
  8  9  1  0
  9 10  1  1
  9 17  1  0
 10 11  1  0
 10 16  1  0
 11 12  2  0
 12 13  1  0
 13 14  2  0
 13 15  1  0
 15 16  2  0
 17 18  1  6
 17 19  1  0
 19 20  1  6
 21 22  2  0
 21 30  1  0
 22 23  1  0
 23 24  1  0
 23 27  2  0
 24 25  2  0
 24 26  1  0
 27 28  1  0
 28 29  1  0
 28 30  2  0
 30 31  1  0
M  CHG  2  24   1  26  -1
M  END
