
     RDKit          3D

 29 33  0  0  0  0  0  0  0  0999 V2000
    4.4540    1.5700   -0.4650 C   0  0  0  0  0  0  0  0  0  0  0  0
    3.3500    0.6690   -0.1250 C   0  0  0  0  0  0  0  0  0  0  0  0
    3.6360   -0.5490    0.2680 N   0  0  0  0  0  0  0  0  0  0  0  0
    4.9590   -0.9500    0.3520 C   0  0  0  0  0  0  0  0  0  0  0  0
    5.9250   -0.8360    1.2930 C   0  0  0  0  0  0  0  0  0  0  0  0
    7.0880   -1.3320    1.0540 N   0  0  0  0  0  0  0  0  0  0  0  0
    7.4490   -1.9370    0.0010 C   0  0  0  0  0  0  0  0  0  0  0  0
    8.6480   -2.5810   -0.5320 C   0  0  0  0  0  0  0  0  0  0  0  0
    5.8510   -1.8560   -0.9720 S   0  0  0  0  0  0  0  0  0  0  0  0
    1.9450    1.0020   -0.1820 C   0  0  0  0  0  0  0  0  0  0  0  0
    1.0120    0.0230    0.1750 C   0  0  0  0  0  0  0  0  0  0  0  0
   -0.2930    0.2680    0.1430 N   0  0  0  0  0  0  0  0  0  0  0  0
   -0.8090    1.4370   -0.2240 C   0  0  0  0  0  0  0  0  0  0  0  0
   -2.2260    1.6580   -0.2440 C   0  0  0  0  0  0  0  0  0  0  0  0
   -2.6380    2.8080   -0.6090 O   0  0  0  0  0  0  0  0  0  0  0  0
   -3.1970    0.6980    0.1080 N   0  0  0  0  0  0  0  0  0  0  0  0
   -4.5880    1.0180    0.0540 C   0  0  0  0  0  0  0  0  0  0  0  0
   -5.4260    0.3580    1.0860 C   0  0  0  0  0  0  0  0  0  0  0  0
   -5.0120   -0.9330    1.5100 N   0  0  0  0  0  0  0  0  0  0  0  0
   -6.1220   -1.8650    1.2650 C   0  0  0  0  0  0  0  0  0  0  0  0
   -6.0380   -2.0940   -0.2390 C   0  0  0  0  0  0  0  0  0  0  0  0
   -4.5280   -2.0980   -0.4880 C   0  0  0  0  0  0  0  0  0  0  0  0
   -3.9540   -1.5350    0.7730 C   0  0  1  0  0  0  0  0  0  0  0  0
   -2.7840   -0.6130    0.5260 C   0  0  0  0  0  0  0  0  0  0  0  0
    0.1040    2.4290   -0.5850 C   0  0  0  0  0  0  0  0  0  0  0  0
   -0.1080    3.6930   -0.9950 N   0  0  0  0  0  0  0  0  0  0  0  0
    1.0550    4.2660   -1.2270 C   0  0  0  0  0  0  0  0  0  0  0  0
    2.0550    3.3270   -0.9540 C   0  0  0  0  0  0  0  0  0  0  0  0
    1.4370    2.2080   -0.5620 N   0  0  0  0  0  0  0  0  0  0  0  0
  1  2  1  0
  2  3  2  3
  2 10  1  0
  3  4  1  0
  4  5  2  0
  4  9  1  0
  5  6  1  0
  6  7  2  0
  7  8  1  0
  7  9  1  0
 10 11  2  0
 10 29  1  0
 11 12  1  0
 12 13  2  0
 13 14  1  0
 13 25  1  0
 14 15  2  0
 14 16  1  0
 16 17  1  0
 16 24  1  0
 17 18  1  0
 18 19  1  0
 19 20  1  0
 19 23  1  0
 20 21  1  0
 21 22  1  0
 23 22  1  6
 23 24  1  0
 25 26  2  0
 25 29  1  0
 26 27  1  0
 27 28  2  0
 28 29  1  0
M  END
