
     RDKit          3D

 24 26  0  0  0  0  0  0  0  0999 V2000
    4.3840    1.0720    1.9190 C   0  0  0  0  0  0  0  0  0  0  0  0
    4.3110   -0.0360    1.1990 C   0  0  0  0  0  0  0  0  0  0  0  0
    3.3490   -0.1680    0.1720 N   0  0  0  0  0  0  0  0  0  0  0  0
    3.2820   -1.2320   -0.7870 C   0  0  0  0  0  0  0  0  0  0  0  0
    2.5200   -0.6000   -1.9330 C   0  0  0  0  0  0  0  0  0  0  0  0
    1.6330    0.3620   -1.3070 N   0  0  0  0  0  0  0  0  0  0  0  0
    0.3810   -0.3570   -1.0200 C   0  0  0  0  0  0  0  0  0  0  0  0
   -0.5960    0.5430   -0.3680 C   0  0  0  0  0  0  0  0  0  0  0  0
   -0.4140    1.8170   -0.0570 O   0  0  0  0  0  0  0  0  0  0  0  0
   -1.4580    2.3270    0.5030 C   0  0  0  0  0  0  0  0  0  0  0  0
   -1.6750    3.6980    1.0000 C   0  0  0  0  0  0  0  0  0  0  0  0
   -0.7320    4.6150    0.9060 C   0  0  0  0  0  0  0  0  0  0  0  0
    0.8060    4.2020    0.1810 Cl  0  0  0  0  0  0  0  0  0  0  0  0
   -2.4190    1.3460    0.5840 C   0  0  0  0  0  0  0  0  0  0  0  0
   -1.8630    0.1950    0.0210 C   0  0  0  0  0  0  0  0  0  0  0  0
   -2.5620   -1.0640   -0.0750 C   0  0  0  0  0  0  0  0  0  0  0  0
   -2.0450   -2.2720    0.3160 C   0  0  0  0  0  0  0  0  0  0  0  0
   -2.7830   -3.4590    0.2050 C   0  0  0  0  0  0  0  0  0  0  0  0
   -2.0140   -4.9490    0.7380 Cl  0  0  0  0  0  0  0  0  0  0  0  0
   -4.0580   -3.4300   -0.3050 C   0  0  0  0  0  0  0  0  0  0  0  0
   -4.5970   -2.2440   -0.7010 C   0  0  0  0  0  0  0  0  0  0  0  0
   -3.8490   -1.0660   -0.5850 C   0  0  0  0  0  0  0  0  0  0  0  0
   -4.5390    0.4590   -1.0930 Cl  0  0  0  0  0  0  0  0  0  0  0  0
    2.2730    0.7630   -0.0710 C   0  0  0  0  0  0  0  0  0  0  0  0
  1  2  2  0
  2  3  1  0
  3  4  1  0
  3 24  1  0
  4  5  1  0
  5  6  1  0
  6  7  1  0
  6 24  1  0
  7  8  1  0
  8  9  1  0
  8 15  2  0
  9 10  1  0
 10 11  1  0
 10 14  2  0
 11 12  2  3
 12 13  1  0
 14 15  1  0
 15 16  1  0
 16 17  2  0
 16 22  1  0
 17 18  1  0
 18 19  1  0
 18 20  2  0
 20 21  1  0
 21 22  2  0
 22 23  1  0
M  END
