
     RDKit          3D

 24 26  0  0  0  0  0  0  0  0999 V2000
    6.8280   -1.2290   -1.9780 Cl  0  0  0  0  0  0  0  0  0  0  0  0
    5.1940   -0.6700   -1.6920 C   0  0  0  0  0  0  0  0  0  0  0  0
    4.2410   -1.4700   -1.0990 C   0  0  0  0  0  0  0  0  0  0  0  0
    2.9400   -0.9830   -0.8890 C   0  0  0  0  0  0  0  0  0  0  0  0
    2.6160    0.3040   -1.2780 C   0  0  0  0  0  0  0  0  0  0  0  0
    1.2200    0.8120   -1.0340 C   0  0  0  0  0  0  0  0  0  0  0  0
    0.6430    0.0280   -0.0750 O   0  0  0  0  0  0  0  0  0  0  0  0
   -0.6880    0.5180    0.2040 C   0  0  2  0  0  0  0  0  0  0  0  0
   -0.4970    1.0880    1.6000 C   0  0  0  0  0  0  0  0  0  0  0  0
   -1.6890    1.7030    2.1420 N   0  0  0  0  0  0  0  0  0  0  0  0
   -2.6140    1.1450    2.8880 C   0  0  0  0  0  0  0  0  0  0  0  0
   -3.5770    2.1190    3.1470 C   0  0  0  0  0  0  0  0  0  0  0  0
   -3.1640    3.2260    2.5290 N   0  0  0  0  0  0  0  0  0  0  0  0
   -2.0110    2.9890    1.9100 C   0  0  0  0  0  0  0  0  0  0  0  0
   -1.5070   -0.6790    0.1100 C   0  0  0  0  0  0  0  0  0  0  0  0
   -1.6580   -1.5010    1.2260 C   0  0  0  0  0  0  0  0  0  0  0  0
   -2.3950   -2.6780    1.1660 C   0  0  0  0  0  0  0  0  0  0  0  0
   -2.9820   -3.0290   -0.0260 C   0  0  0  0  0  0  0  0  0  0  0  0
   -3.9250   -4.5000   -0.1580 Cl  0  0  0  0  0  0  0  0  0  0  0  0
   -2.8260   -2.2050   -1.1320 C   0  0  0  0  0  0  0  0  0  0  0  0
   -2.0950   -1.0360   -1.0730 C   0  0  0  0  0  0  0  0  0  0  0  0
   -1.9840   -0.0590   -2.5410 Cl  0  0  0  0  0  0  0  0  0  0  0  0
    3.5890    1.0770   -1.8660 C   0  0  0  0  0  0  0  0  0  0  0  0
    4.8800    0.6190   -2.0840 C   0  0  0  0  0  0  0  0  0  0  0  0
  1  2  1  0
  2  3  2  0
  2 24  1  0
  3  4  1  0
  4  5  2  0
  5  6  1  0
  5 23  1  0
  6  7  1  0
  7  8  1  0
  8  9  1  1
  8 15  1  0
  9 10  1  0
 10 11  1  0
 10 14  1  0
 11 12  2  0
 12 13  1  0
 13 14  2  0
 15 16  2  0
 15 21  1  0
 16 17  1  0
 17 18  2  0
 18 19  1  0
 18 20  1  0
 20 21  2  0
 21 22  1  0
 23 24  2  0
M  END
