
     RDKit          3D

 24 26  0  0  0  0  0  0  0  0999 V2000
   -3.6730    2.6790    0.1360 C   0  0  0  0  0  0  0  0  0  0  0  0
   -2.6550    1.6110    0.1700 C   0  0  0  0  0  0  0  0  0  0  0  0
   -3.0020    0.3700   -0.1030 C   0  0  0  0  0  0  0  0  0  0  0  0
   -2.1360   -0.7730   -0.1120 N   0  0  0  0  0  0  0  0  0  0  0  0
   -0.9730   -0.9830    0.6920 C   0  0  0  0  0  0  0  0  0  0  0  0
    0.3270   -0.9730   -0.0990 C   0  0  0  0  0  0  0  0  0  0  0  0
    1.4130   -1.2250    0.9670 C   0  0  0  0  0  0  0  0  0  0  0  0
    2.7520   -1.2460    0.3820 C   0  0  0  0  0  0  0  0  0  0  0  0
    3.3180   -2.4550    0.1860 N   0  0  0  0  0  0  0  0  0  0  0  0
    4.5270   -2.5670   -0.3720 C   0  0  0  0  0  0  0  0  0  0  0  0
    5.2850   -4.1420   -0.6390 Cl  0  0  0  0  0  0  0  0  0  0  0  0
    5.1970   -1.4200   -0.7500 C   0  0  0  0  0  0  0  0  0  0  0  0
    4.6370   -0.1760   -0.5580 C   0  0  0  0  0  0  0  0  0  0  0  0
    3.3790   -0.0800    0.0240 C   0  0  0  0  0  0  0  0  0  0  0  0
    2.7860    1.2250    0.2620 C   0  0  0  0  0  0  0  0  0  0  0  0
    2.3410    1.8020    1.4250 C   0  0  0  0  0  0  0  0  0  0  0  0
    1.8440    3.0470    1.1120 C   0  0  0  0  0  0  0  0  0  0  0  0
    1.9810    3.2140   -0.1600 O   0  0  0  0  0  0  0  0  0  0  0  0
    2.5250    2.1900   -0.7240 C   0  0  0  0  0  0  0  0  0  0  0  0
   -2.7030   -1.6620   -1.1120 C   0  0  0  0  0  0  0  0  0  0  0  0
   -4.1750   -1.5900   -0.7440 C   0  0  0  0  0  0  0  0  0  0  0  0
   -4.3720   -0.1290   -0.4630 C   0  0  1  0  0  0  0  0  0  0  0  0
   -5.3550   -0.0240    1.0340 Cl  0  0  0  0  0  0  0  0  0  0  0  0
   -5.0970    0.7680   -1.7850 Cl  0  0  0  0  0  0  0  0  0  0  0  0
  1  2  1  0
  2  3  2  3
  3  4  1  0
  3 22  1  0
  4  5  1  0
  4 20  1  0
  5  6  1  0
  6  7  1  0
  7  8  1  0
  8  9  2  0
  8 14  1  0
  9 10  1  0
 10 11  1  0
 10 12  2  0
 12 13  1  0
 13 14  2  0
 14 15  1  0
 15 16  1  0
 15 19  2  0
 16 17  2  0
 17 18  1  0
 18 19  1  0
 20 21  1  0
 21 22  1  0
 22 23  1  1
 22 24  1  0
M  END
