
     RDKit          3D

 24 26  0  0  0  0  0  0  0  0999 V2000
   -2.8660   -0.7430    1.0360 C   0  0  0  0  0  0  0  0  0  0  0  0
   -1.3940   -0.7900    1.1890 C   0  0  1  0  0  0  0  0  0  0  0  0
   -0.8940   -2.1870    1.0120 C   0  0  0  0  0  0  0  0  0  0  0  0
   -0.6700   -3.1310    1.9740 C   0  0  0  0  0  0  0  0  0  0  0  0
   -0.2040   -4.2720    1.3200 C   0  0  0  0  0  0  0  0  0  0  0  0
   -0.1800   -3.9340   -0.0080 C   0  0  0  0  0  0  0  0  0  0  0  0
   -0.5920   -2.7000   -0.1520 O   0  0  0  0  0  0  0  0  0  0  0  0
   -0.6580    0.1220    0.3520 N   0  0  0  0  0  0  0  0  0  0  0  0
    0.7800    0.0460    0.3530 C   0  0  0  0  0  0  0  0  0  0  0  0
    1.4270    0.9180   -0.6890 C   0  0  0  0  0  0  0  0  0  0  0  0
    2.9010    0.7280   -0.5770 C   0  0  0  0  0  0  0  0  0  0  0  0
    3.8280    1.6530   -0.3160 C   0  0  0  0  0  0  0  0  0  0  0  0
    5.1420    1.0140   -0.3000 C   0  0  0  0  0  0  0  0  0  0  0  0
    6.7100    1.7170   -0.0360 Cl  0  0  0  0  0  0  0  0  0  0  0  0
    4.9000   -0.2450   -0.5380 C   0  0  0  0  0  0  0  0  0  0  0  0
    3.6420   -0.5380   -0.7160 C   0  0  0  0  0  0  0  0  0  0  0  0
    3.0030   -2.1280   -1.0430 Cl  0  0  0  0  0  0  0  0  0  0  0  0
   -1.3210    1.0710   -0.4310 C   0  0  0  0  0  0  0  0  0  0  0  0
   -1.6610    2.2970    0.1560 C   0  0  0  0  0  0  0  0  0  0  0  0
   -2.3000    3.3000   -0.5290 C   0  0  0  0  0  0  0  0  0  0  0  0
   -2.7240    4.8290    0.2230 Cl  0  0  0  0  0  0  0  0  0  0  0  0
   -2.6220    3.0960   -1.8510 C   0  0  0  0  0  0  0  0  0  0  0  0
   -2.2820    1.8900   -2.4080 C   0  0  0  0  0  0  0  0  0  0  0  0
   -1.6590    0.9320   -1.7150 N   0  0  0  0  0  0  0  0  0  0  0  0
  2  1  1  6
  2  3  1  0
  2  8  1  0
  3  4  2  0
  3  7  1  0
  4  5  1  0
  5  6  2  0
  6  7  1  0
  8  9  1  0
  8 18  1  0
  9 10  1  0
 10 11  1  0
 11 12  2  0
 11 16  1  0
 12 13  1  0
 13 14  1  0
 13 15  2  0
 15 16  2  0
 16 17  1  0
 18 19  2  0
 18 24  1  0
 19 20  1  0
 20 21  1  0
 20 22  2  0
 22 23  1  0
 23 24  2  0
M  END
