
     RDKit          3D

 24 26  0  0  0  0  0  0  0  0999 V2000
    1.5490    1.6550   -0.7450 O   0  0  0  0  0  0  0  0  0  0  0  0
    2.2350    0.7950   -0.1370 C   0  0  0  0  0  0  0  0  0  0  0  0
    3.5420    0.6400   -0.5410 C   0  0  0  0  0  0  0  0  0  0  0  0
    4.1040    1.3870   -1.5710 C   0  0  0  0  0  0  0  0  0  0  0  0
    3.0830    2.5540   -2.3580 Cl  0  0  0  0  0  0  0  0  0  0  0  0
    5.4290    1.2080   -1.9580 C   0  0  0  0  0  0  0  0  0  0  0  0
    6.2220    0.2750   -1.3190 C   0  0  0  0  0  0  0  0  0  0  0  0
    5.6360   -0.4470   -0.3040 C   0  0  0  0  0  0  0  0  0  0  0  0
    4.3390   -0.2900    0.0930 C   0  0  0  0  0  0  0  0  0  0  0  0
    3.7720   -1.0300    1.1190 C   0  0  0  0  0  0  0  0  0  0  0  0
    2.4470   -0.8420    1.4960 C   0  0  0  0  0  0  0  0  0  0  0  0
    1.7060    0.0710    0.8560 N   0  0  0  0  0  0  0  0  0  0  0  0
    0.3180    0.2870    1.2300 C   0  0  0  0  0  0  0  0  0  0  0  0
   -0.5020   -0.6490    0.3880 C   0  0  0  0  0  0  0  0  0  0  0  0
   -1.9500   -0.5480    0.6600 C   0  0  0  0  0  0  0  0  0  0  0  0
   -2.7130   -0.1240   -0.3570 C   0  0  0  0  0  0  0  0  0  0  0  0
   -4.1580    0.0350   -0.2640 C   0  0  0  0  0  0  0  0  0  0  0  0
   -4.9280    0.4490   -1.2560 C   0  0  0  0  0  0  0  0  0  0  0  0
   -6.3270    0.4780   -0.7700 C   0  0  0  0  0  0  0  0  0  0  0  0
   -6.2180    0.0270    0.6190 C   0  0  0  0  0  0  0  0  0  0  0  0
   -4.9830   -0.2150    0.8730 N   0  0  0  0  0  0  0  0  0  0  0  0
   -2.5710   -0.9530    1.9400 C   0  0  1  0  0  0  0  0  0  0  0  0
   -3.4930   -2.4780    1.7300 Cl  0  0  0  0  0  0  0  0  0  0  0  0
   -1.3430   -1.3580    3.1910 Cl  0  0  0  0  0  0  0  0  0  0  0  0
  1  2  2  0
  2  3  1  0
  2 12  1  0
  3  4  2  0
  3  9  1  0
  4  5  1  0
  4  6  1  0
  6  7  2  0
  7  8  1  0
  8  9  2  0
  9 10  1  0
 10 11  2  0
 11 12  1  0
 12 13  1  0
 13 14  1  0
 14 15  1  0
 15 16  2  3
 15 22  1  0
 16 17  1  0
 17 18  2  0
 17 21  1  0
 18 19  1  0
 19 20  1  0
 20 21  2  0
 22 23  1  6
 22 24  1  0
M  END
