
     RDKit          3D

 24 25  0  0  0  0  0  0  0  0999 V2000
    7.1570    1.2770   -0.2020 C   0  0  0  0  0  0  0  0  0  0  0  0
    6.4950   -0.0400   -0.3270 C   0  0  0  0  0  0  0  0  0  0  0  0
    7.4890   -1.4720   -0.4330 Cl  0  0  0  0  0  0  0  0  0  0  0  0
    5.1630   -0.1810   -0.3610 C   0  0  0  0  0  0  0  0  0  0  0  0
    4.5310   -1.4580   -0.4820 C   0  0  0  0  0  0  0  0  0  0  0  0
    3.2340   -1.6080   -0.5160 C   0  0  0  0  0  0  0  0  0  0  0  0
    2.5190   -3.2280   -0.6680 Cl  0  0  0  0  0  0  0  0  0  0  0  0
    2.2700   -0.5190   -0.4390 C   0  0  0  0  0  0  0  0  0  0  0  0
    0.9700   -0.7280   -0.4790 C   0  0  0  0  0  0  0  0  0  0  0  0
    0.0280    0.4080   -0.3970 C   0  0  0  0  0  0  0  0  0  0  0  0
   -0.7870    0.1720    0.7820 N   0  0  0  0  0  0  0  0  0  0  0  0
   -0.4110    0.6150    2.0140 C   0  0  0  0  0  0  0  0  0  0  0  0
   -1.3640    0.2240    2.9250 C   0  0  0  0  0  0  0  0  0  0  0  0
   -2.3150   -0.4690    2.1700 C   0  0  0  0  0  0  0  0  0  0  0  0
   -1.9390   -0.4900    0.8350 C   0  0  0  0  0  0  0  0  0  0  0  0
   -2.7130   -1.1270   -0.2740 C   0  0  0  0  0  0  0  0  0  0  0  0
   -3.8090   -0.2640   -0.6500 N   0  0  0  0  0  0  0  0  0  0  0  0
   -3.6470    0.6810   -1.5660 C   0  0  0  0  0  0  0  0  0  0  0  0
   -4.7210    1.4890   -1.8900 C   0  0  0  0  0  0  0  0  0  0  0  0
   -5.9460    1.3440   -1.2930 C   0  0  0  0  0  0  0  0  0  0  0  0
   -7.3300    2.3530   -1.6800 Cl  0  0  0  0  0  0  0  0  0  0  0  0
   -6.0660    0.3520   -0.3510 C   0  0  0  0  0  0  0  0  0  0  0  0
   -5.0050   -0.4620   -0.0180 C   0  0  0  0  0  0  0  0  0  0  0  0
   -5.1580   -1.3590    0.8480 O   0  0  0  0  0  0  0  0  0  0  0  0
  1  2  1  0
  2  3  1  0
  2  4  2  3
  4  5  1  0
  5  6  2  3
  6  7  1  0
  6  8  1  0
  8  9  2  3
  9 10  1  0
 10 11  1  0
 11 12  1  0
 11 15  1  0
 12 13  2  0
 13 14  1  0
 14 15  2  0
 15 16  1  0
 16 17  1  0
 17 18  1  0
 17 23  1  0
 18 19  2  0
 19 20  1  0
 20 21  1  0
 20 22  2  0
 22 23  1  0
 23 24  2  0
M  END
