
     RDKit          3D

 26 28  0  0  0  0  0  0  0  0999 V2000
   -2.8610    0.9360    1.6890 C   0  0  0  0  0  0  0  0  0  0  0  0
   -3.1480    1.0040    0.2560 C   0  0  0  0  0  0  0  0  0  0  0  0
   -2.2720    1.0860   -0.6770 C   0  0  0  0  0  0  0  0  0  0  0  0
   -0.8480    1.1350   -0.6770 C   0  0  0  0  0  0  0  0  0  0  0  0
   -0.3070    1.2190   -1.8430 O   0  0  0  0  0  0  0  0  0  0  0  0
    0.0710    1.1070    0.3880 N   0  0  0  0  0  0  0  0  0  0  0  0
    1.4840    1.1550    0.3130 C   0  0  0  0  0  0  0  0  0  0  0  0
    2.1900    1.2850    1.5180 C   0  0  0  0  0  0  0  0  0  0  0  0
    3.5630    1.3320    1.5670 C   0  0  0  0  0  0  0  0  0  0  0  0
    4.3370    1.2540    0.4290 C   0  0  0  0  0  0  0  0  0  0  0  0
    5.7540    1.3310    0.4760 N   0  0  0  0  0  0  0  0  0  0  0  0
    6.6320    1.0170   -0.5980 C   0  0  0  0  0  0  0  0  0  0  0  0
    6.8070   -0.3860   -0.9480 C   0  0  0  0  0  0  0  0  0  0  0  0
    7.9960   -1.0090   -0.8950 C   0  0  0  0  0  0  0  0  0  0  0  0
    7.8390   -2.4180   -1.3090 C   0  0  0  0  0  0  0  0  0  0  0  0
    6.4470   -2.5280   -1.6030 N   0  0  0  0  0  0  0  0  0  0  0  0
    5.8550   -1.3750   -1.3980 C   0  0  0  0  0  0  0  0  0  0  0  0
    3.6520    1.1280   -0.7560 C   0  0  0  0  0  0  0  0  0  0  0  0
    2.2570    1.0800   -0.8070 C   0  0  0  0  0  0  0  0  0  0  0  0
   -4.5540    0.9690   -0.0870 N   0  0  0  0  0  0  0  0  0  0  0  0
   -5.0740   -0.3610   -0.1530 C   0  0  2  0  0  0  0  0  0  0  0  0
   -6.3200   -0.3530   -1.0070 C   0  0  0  0  0  0  0  0  0  0  0  0
   -7.1600   -1.5900   -0.7990 C   0  0  0  0  0  0  0  0  0  0  0  0
   -7.3960   -1.8300    0.5580 O   0  0  0  0  0  0  0  0  0  0  0  0
   -6.1710   -2.2270    1.1060 C   0  0  0  0  0  0  0  0  0  0  0  0
   -5.3170   -0.9780    1.2030 C   0  0  0  0  0  0  0  0  0  0  0  0
  1  2  1  0
  2  3  2  3
  2 20  1  0
  3  4  1  0
  4  5  2  0
  4  6  1  0
  6  7  1  0
  7  8  2  0
  7 19  1  0
  8  9  1  0
  9 10  2  0
 10 11  1  0
 10 18  1  0
 11 12  1  0
 12 13  1  0
 13 14  2  0
 13 17  1  0
 14 15  1  0
 15 16  1  0
 16 17  2  0
 18 19  2  0
 21 20  1  1
 21 22  1  0
 21 26  1  0
 22 23  1  0
 23 24  1  0
 24 25  1  0
 25 26  1  0
M  CHG  1  20   1
M  END
