
     RDKit          3D

 26 28  0  0  0  0  0  0  0  0999 V2000
   -6.9320    2.0690   -0.6710 N   0  0  0  0  0  0  0  0  0  0  0  0
   -6.2280    0.9200   -0.2190 C   0  0  0  0  0  0  0  0  0  0  0  0
   -6.8470   -0.2520    0.0140 N   0  0  0  0  0  0  0  0  0  0  0  0
   -6.1580   -1.3420    0.4460 C   0  0  0  0  0  0  0  0  0  0  0  0
   -4.8310   -1.2870    0.6550 N   0  0  0  0  0  0  0  0  0  0  0  0
   -4.1530   -0.1430    0.4400 C   0  0  0  0  0  0  0  0  0  0  0  0
   -4.8660    0.9460    0.0050 C   0  0  0  0  0  0  0  0  0  0  0  0
   -3.9850    1.9480   -0.1350 N   0  0  0  0  0  0  0  0  0  0  0  0
   -2.7650    1.4820    0.2060 C   0  0  0  0  0  0  0  0  0  0  0  0
   -2.8570    0.1890    0.5640 N   0  0  0  0  0  0  0  0  0  0  0  0
   -1.7700   -0.6750    0.9960 C   0  0  2  0  0  0  0  0  0  0  0  0
   -0.8350    0.0180    1.7200 O   0  0  0  0  0  0  0  0  0  0  0  0
    0.3170   -0.7510    1.7060 C   0  0  2  0  0  0  0  0  0  0  0  0
    1.5550    0.0450    1.9530 C   0  0  0  0  0  0  0  0  0  0  0  0
    1.9020    1.3560    0.8150 S   0  0  0  0  0  0  0  0  0  0  0  0
    2.3100    0.9220   -0.8490 C   0  0  0  0  0  0  0  0  0  0  0  0
    3.6120    0.1750   -1.0130 C   0  0  0  0  0  0  0  0  0  0  0  0
    4.7840    1.0200   -0.5020 C   0  0  2  0  0  0  0  0  0  0  0  0
    4.8000    2.2420   -1.2880 N   0  0  0  0  0  0  0  0  0  0  0  0
    6.0200    0.2670   -0.8050 C   0  0  0  0  0  0  0  0  0  0  0  0
    6.8470    0.7090   -1.6330 O   0  0  0  0  0  0  0  0  0  0  0  0
    6.2950   -0.9400   -0.1850 O   0  0  0  0  0  0  0  0  0  0  0  0
    0.3170   -1.6280    0.5080 C   0  0  1  0  0  0  0  0  0  0  0  0
    0.0570   -2.9840    0.8420 O   0  0  0  0  0  0  0  0  0  0  0  0
   -0.9640   -1.1650   -0.1970 C   0  0  1  0  0  0  0  0  0  0  0  0
   -1.5950   -2.2130   -0.8480 O   0  0  0  0  0  0  0  0  0  0  0  0
  1  2  1  0
  2  3  2  0
  2  7  1  0
  3  4  1  0
  4  5  2  0
  5  6  1  0
  6  7  2  0
  6 10  1  0
  7  8  1  0
  8  9  2  0
  9 10  1  0
 11 10  1  6
 11 12  1  0
 11 25  1  0
 12 13  1  0
 13 14  1  6
 13 23  1  0
 14 15  1  0
 15 16  1  0
 16 17  1  0
 17 18  1  0
 18 19  1  6
 18 20  1  0
 20 21  2  0
 20 22  1  0
 23 24  1  1
 23 25  1  0
 25 26  1  1
M  CHG  1  19   1
M  END
