
     RDKit          3D

 26 27  0  0  0  0  0  0  0  0999 V2000
   -2.9520    3.1480    0.1430 C   0  0  0  0  0  0  0  0  0  0  0  0
   -3.0110    1.6150    0.0880 C   0  0  1  0  0  0  0  0  0  0  0  0
   -1.6890    1.0130    1.1870 S   0  0  0  0  0  0  0  0  0  0  0  0
   -1.6430   -0.7880    1.2040 C   0  0  0  0  0  0  0  0  0  0  0  0
   -1.1650   -1.2870   -0.2490 C   0  0  0  0  0  0  0  0  0  0  0  0
    0.1140   -0.7390   -0.4360 N   0  0  0  0  0  0  0  0  0  0  0  0
    0.3220    0.6100   -0.9510 C   0  0  0  0  0  0  0  0  0  0  0  0
   -0.3640    0.9950   -1.8860 O   0  0  0  0  0  0  0  0  0  0  0  0
    1.3520    1.5090   -0.3480 C   0  0  2  0  0  0  0  0  0  0  0  0
    2.2000    2.1510   -1.3000 N   0  0  0  0  0  0  0  0  0  0  0  0
    2.2260    3.5790   -1.3990 C   0  0  0  0  0  0  0  0  0  0  0  0
    3.0310    4.2750   -2.3070 N   0  0  0  0  0  0  0  0  0  0  0  0
    1.4670    4.2220   -0.6050 O   0  0  0  0  0  0  0  0  0  0  0  0
    2.1590    0.7420    0.7180 C   0  0  0  0  0  0  0  0  0  0  0  0
    2.5350   -0.5800    0.2290 C   0  0  1  0  0  0  0  0  0  0  0  0
    3.4970   -1.2620    0.8970 O   0  0  0  0  0  0  0  0  0  0  0  0
    3.7050   -2.6430    0.7030 C   0  0  0  0  0  0  0  0  0  0  0  0
    4.7660   -3.1600    1.0430 O   0  0  0  0  0  0  0  0  0  0  0  0
    2.6650   -3.3730    0.1190 N   0  0  0  0  0  0  0  0  0  0  0  0
    1.4290   -2.7150   -0.2770 C   0  0  0  0  0  0  0  0  0  0  0  0
    0.3530   -3.4620   -0.9260 C   0  0  0  0  0  0  0  0  0  0  0  0
   -0.2310   -4.5630   -0.2450 N   0  0  0  0  0  0  0  0  0  0  0  0
    1.3010   -1.4280   -0.1020 C   0  0  0  0  0  0  0  0  0  0  0  0
   -4.3280    1.2530    0.6700 C   0  0  0  0  0  0  0  0  0  0  0  0
   -4.6030    1.6390    2.0040 N   0  0  0  0  0  0  0  0  0  0  0  0
   -5.1730    0.6280    0.0100 O   0  0  0  0  0  0  0  0  0  0  0  0
  2  1  1  1
  2  3  1  0
  2 24  1  0
  3  4  1  0
  4  5  1  0
  5  6  1  0
  6  7  1  0
  6 23  1  0
  7  8  2  0
  7  9  1  0
  9 10  1  6
  9 14  1  0
 10 11  1  0
 11 12  1  0
 11 13  2  0
 15 14  1  1
 15 16  1  0
 15 23  1  0
 16 17  1  0
 17 18  2  0
 17 19  1  0
 19 20  1  0
 20 21  1  0
 20 23  2  0
 21 22  1  0
 24 25  1  0
 24 26  2  0
M  CHG  1  22   1
M  END
