
     RDKit          3D

 21 24  0  0  0  0  0  0  0  0999 V2000
    3.9300   -0.5360    0.1070 C   0  0  0  0  0  0  0  0  0  0  0  0
    2.7910   -1.5360   -0.0360 C   0  0  2  0  0  0  0  0  0  0  0  0
    2.4890   -1.6220   -1.3760 O   0  0  0  0  0  0  0  0  0  0  0  0
    1.2410   -2.1520   -1.6210 C   0  0  0  0  0  0  0  0  0  0  0  0
    0.1210   -1.1870   -1.1830 C   0  0  1  0  0  0  0  0  0  0  0  0
   -0.9140   -2.0350   -0.5920 C   0  0  0  0  0  0  0  0  0  0  0  0
   -2.1020   -1.3670   -0.0370 C   0  0  0  0  0  0  0  0  0  0  0  0
   -3.3550   -1.7850   -0.2170 C   0  0  0  0  0  0  0  0  0  0  0  0
   -4.3320   -0.9150    0.4580 C   0  0  0  0  0  0  0  0  0  0  0  0
   -3.4630    0.1070    1.0820 C   0  0  0  0  0  0  0  0  0  0  0  0
   -2.1940   -0.1740    0.7840 C   0  0  0  0  0  0  0  0  0  0  0  0
   -1.0260    0.6350    1.2410 C   0  0  0  0  0  0  0  0  0  0  0  0
   -0.0770    0.9370    0.1300 C   0  0  2  0  0  0  0  0  0  0  0  0
    0.6270    2.2150    0.4740 C   0  0  0  0  0  0  0  0  0  0  0  0
   -0.0570    3.3510   -0.2610 C   0  0  0  0  0  0  0  0  0  0  0  0
   -1.3100    2.7940   -0.8200 C   0  0  0  0  0  0  0  0  0  0  0  0
   -0.9440    1.3460   -1.0590 C   0  0  0  0  0  0  0  0  0  0  0  0
    0.7980   -0.1740   -0.2950 C   0  0  2  0  0  0  0  0  0  0  0  0
    1.7540    0.4050   -1.1800 O   0  0  0  0  0  0  0  0  0  0  0  0
    1.5820   -0.9150    0.7000 C   0  0  2  0  0  0  0  0  0  0  0  0
    2.0720   -0.3070    1.9260 C   0  0  0  0  0  0  0  0  0  0  0  0
  2  1  1  6
  2  3  1  0
  2 20  1  0
  3  4  1  0
  5  4  1  1
  5  6  1  0
  5 18  1  0
  6  7  1  0
  7  8  2  0
  7 11  1  0
  8  9  1  0
  9 10  1  0
 10 11  2  0
 11 12  1  0
 13 12  1  1
 13 14  1  0
 13 17  1  0
 13 18  1  0
 14 15  1  0
 15 16  1  0
 16 17  1  0
 18 19  1  6
 18 20  1  0
 20 21  1  1
M  END
