
     RDKit          3D

 26 27  0  0  0  0  0  0  0  0999 V2000
    6.5050    0.7200    0.1780 N   0  0  0  0  0  0  0  0  0  0  0  0
    6.1750    1.2870   -1.0570 C   0  0  0  0  0  0  0  0  0  0  0  0
    7.0110    1.9850   -1.6550 O   0  0  0  0  0  0  0  0  0  0  0  0
    4.8010    1.0360   -1.6350 C   0  0  0  0  0  0  0  0  0  0  0  0
    4.1560    0.2030   -0.7480 N   0  0  0  0  0  0  0  0  0  0  0  0
    2.7020   -0.1990   -1.0080 C   0  0  0  0  0  0  0  0  0  0  0  0
    2.1860    0.2370   -1.9720 O   0  0  0  0  0  0  0  0  0  0  0  0
    2.3660   -0.9620   -0.0480 N   0  0  0  0  0  0  0  0  0  0  0  0
    0.6790   -0.8160    0.0140 C   0  0  0  0  0  0  0  0  0  0  0  0
    0.5070   -1.6930    0.9570 O   0  0  0  0  0  0  0  0  0  0  0  0
   -0.4150   -0.2880   -0.3870 N   0  0  0  0  0  0  0  0  0  0  0  0
   -1.7330   -0.6800    0.1300 C   0  0  0  0  0  0  0  0  0  0  0  0
   -2.3660   -0.0210    1.0160 C   0  0  0  0  0  0  0  0  0  0  0  0
   -2.1880    1.1520    1.7920 C   0  0  0  0  0  0  0  0  0  0  0  0
   -3.1450    1.5280    2.6990 C   0  0  0  0  0  0  0  0  0  0  0  0
   -2.9670    2.7190    3.4990 C   0  0  0  0  0  0  0  0  0  0  0  0
   -2.5610    3.9640    2.8220 C   0  0  0  0  0  0  0  0  0  0  0  0
   -1.6170    3.9000    1.7830 N   0  0  0  0  0  0  0  0  0  0  0  0
   -0.8720    2.2890    1.7660 S   0  0  0  0  0  0  0  0  0  0  0  0
    0.1520    2.1830    0.7160 O   0  0  0  0  0  0  0  0  0  0  0  0
   -2.3180   -1.8830   -0.4760 C   0  0  0  0  0  0  0  0  0  0  0  0
   -3.4670   -2.2490   -0.0390 O   0  0  0  0  0  0  0  0  0  0  0  0
   -1.7240   -2.6510   -1.4850 N   0  0  0  0  0  0  0  0  0  0  0  0
   -2.3830   -3.8430   -2.0410 C   0  0  2  0  0  0  0  0  0  0  0  0
   -1.6360   -4.9540   -2.6290 C   0  0  0  0  0  0  0  0  0  0  0  0
   -2.4340   -4.0280   -3.5160 C   0  0  0  0  0  0  0  0  0  0  0  0
  1  2  1  0
  2  3  2  0
  2  4  1  0
  4  5  1  0
  5  6  1  0
  6  7  2  0
  6  8  1  0
  8  9  1  0
  9 10  2  0
  9 11  1  0
 11 12  1  0
 12 13  2  3
 12 21  1  0
 13 14  1  0
 14 15  2  0
 14 19  1  0
 15 16  1  0
 16 17  1  0
 17 18  1  0
 19 18  1  6
 19 20  2  0
 21 22  2  0
 21 23  1  0
 24 23  1  6
 24 25  1  0
 24 26  1  0
 25 26  1  0
M  CHG  1  18   1
M  END
