
     RDKit          3D

 26 28  0  0  0  0  0  0  0  0999 V2000
    1.1160   -1.9050    0.0980 C   0  0  0  0  0  0  0  0  0  0  0  0
    0.0020   -0.7930    0.0600 C   0  0  2  0  0  0  0  0  0  0  0  0
   -1.2340   -1.5280   -0.0180 C   0  0  0  0  0  0  0  0  0  0  0  0
   -2.5870   -0.9850   -0.0560 C   0  0  1  0  0  0  0  0  0  0  0  0
   -3.5880   -2.1910   -0.2490 C   0  0  0  0  0  0  0  0  0  0  0  0
   -3.3270   -2.8550   -1.4120 O   0  0  0  0  0  0  0  0  0  0  0  0
   -3.0430   -0.5420    1.3480 C   0  0  0  0  0  0  0  0  0  0  0  0
   -4.3790   -0.0310    1.1790 O   0  0  0  0  0  0  0  0  0  0  0  0
   -4.6090    1.0410    0.3410 C   0  0  0  0  0  0  0  0  0  0  0  0
   -3.6170    1.8770    0.1830 N   0  0  0  0  0  0  0  0  0  0  0  0
   -5.8340    1.2720   -0.3380 N   0  0  0  0  0  0  0  0  0  0  0  0
    0.4170   -0.0060   -1.0940 N   0  0  0  0  0  0  0  0  0  0  0  0
    1.3170    1.0010   -0.8090 N   0  0  0  0  0  0  0  0  0  0  0  0
    2.3460    0.8140    0.2000 C   0  0  0  0  0  0  0  0  0  0  0  0
    1.7560    0.2390    1.3880 C   0  0  0  0  0  0  0  0  0  0  0  0
    3.0980    0.0880    2.4790 S   0  0  0  0  0  0  0  0  0  0  0  0
    4.3770    0.7610    1.3960 C   0  0  0  0  0  0  0  0  0  0  0  0
    5.7130    0.9760    1.5480 C   0  0  0  0  0  0  0  0  0  0  0  0
    6.2330    0.6540    2.6510 O   0  0  0  0  0  0  0  0  0  0  0  0
    6.4220    1.5120    0.5420 N   0  0  0  0  0  0  0  0  0  0  0  0
    5.7540    1.8090   -0.5770 C   0  0  0  0  0  0  0  0  0  0  0  0
    6.3940    2.3220   -1.5620 O   0  0  0  0  0  0  0  0  0  0  0  0
    4.4480    1.5990   -0.7260 N   0  0  0  0  0  0  0  0  0  0  0  0
    3.6490    1.0520    0.2600 C   0  0  0  0  0  0  0  0  0  0  0  0
    0.3020   -0.0200    1.3200 C   0  0  1  0  0  0  0  0  0  0  0  0
   -0.2690    1.2590    1.3230 O   0  0  0  0  0  0  0  0  0  0  0  0
  2  1  1  1
  2  3  1  0
  2 12  1  0
  2 25  1  0
  4  3  1  1
  4  5  1  0
  4  7  1  0
  5  6  1  0
  7  8  1  0
  8  9  1  0
  9 10  2  0
  9 11  1  0
 12 13  1  0
 13 14  1  0
 14 15  2  0
 14 24  1  0
 15 16  1  0
 15 25  1  0
 16 17  1  0
 17 18  1  0
 17 24  2  0
 18 19  2  0
 18 20  1  0
 20 21  1  0
 21 22  2  0
 21 23  1  0
 23 24  1  0
 25 26  1  6
M  CHG  1  12   1
M  END
