
     RDKit          3D

 14 14  0  0  0  0  0  0  0  0999 V2000
    3.5790   -1.2820   -2.1140 C   0  0  0  0  0  0  0  0  0  0  0  0
    2.5810   -1.6810   -1.3390 C   0  0  0  0  0  0  0  0  0  0  0  0
    0.9740   -0.9380   -1.5720 S   0  0  0  0  0  0  0  0  0  0  0  0
    0.2380   -0.5660    0.0540 C   0  0  1  0  0  0  0  0  0  0  0  0
    1.0680    0.4830    0.6810 C   0  0  0  0  0  0  0  0  0  0  0  0
    0.7330    1.6330    0.9700 O   0  0  0  0  0  0  0  0  0  0  0  0
    2.3910    0.1210    0.9760 O   0  0  0  0  0  0  0  0  0  0  0  0
    3.3040    1.0020    1.5690 C   0  0  0  0  0  0  0  0  0  0  0  0
   -1.2150   -0.2520   -0.0480 C   0  0  1  0  0  0  0  0  0  0  0  0
   -1.7670    0.0270    1.3230 C   0  0  0  0  0  0  0  0  0  0  0  0
   -3.0850    0.6500    1.1380 N   0  0  0  0  0  0  0  0  0  0  0  0
   -3.6890    0.1590   -0.1070 C   0  0  0  0  0  0  0  0  0  0  0  0
   -2.8610    0.6790   -1.2780 C   0  0  0  0  0  0  0  0  0  0  0  0
   -1.5080    0.7540   -0.9570 O   0  0  0  0  0  0  0  0  0  0  0  0
  1  2  2  0
  2  3  1  0
  4  3  1  6
  4  5  1  0
  4  9  1  0
  5  6  2  0
  5  7  1  0
  7  8  1  0
  9 10  1  1
  9 14  1  0
 10 11  1  0
 11 12  1  0
 12 13  1  0
 13 14  1  0
M  END
