
     RDKit          3D

 14 14  0  0  0  0  0  0  0  0999 V2000
   -2.9870    2.1220   -0.4350 C   0  0  0  0  0  0  0  0  0  0  0  0
   -2.0860    1.1200    0.0000 O   0  0  0  0  0  0  0  0  0  0  0  0
   -2.3890   -0.2120   -0.0480 C   0  0  0  0  0  0  0  0  0  0  0  0
   -3.5550   -0.4790   -0.5200 O   0  0  0  0  0  0  0  0  0  0  0  0
   -1.5660   -1.3510    0.3630 C   0  0  2  0  0  0  0  0  0  0  0  0
   -1.2060   -1.2120    1.8150 C   0  0  0  0  0  0  0  0  0  0  0  0
   -0.1280   -1.6790   -0.6220 S   0  0  0  0  0  0  0  0  0  0  0  0
    1.1780   -0.5070   -0.5620 C   0  0  0  0  0  0  0  0  0  0  0  0
    1.1770    0.4980    0.2590 C   0  0  0  0  0  0  0  0  0  0  0  0
    2.2530    1.4960    0.3320 C   0  0  0  0  0  0  0  0  0  0  0  0
    3.3040    1.2220   -0.5260 O   0  0  0  0  0  0  0  0  0  0  0  0
    3.3080    0.1620   -1.3940 C   0  0  0  0  0  0  0  0  0  0  0  0
    2.3310   -0.7070   -1.4720 C   0  0  0  0  0  0  0  0  0  0  0  0
    2.3040   -1.8050   -2.3520 N   0  0  0  0  0  0  0  0  0  0  0  0
  1  2  1  0
  2  3  1  0
  3  4  2  0
  3  5  1  0
  5  6  1  1
  5  7  1  0
  7  8  1  0
  8  9  2  0
  8 13  1  0
  9 10  1  0
 10 11  1  0
 11 12  1  0
 12 13  2  0
 13 14  1  0
M  END
