
     RDKit          3D

 14 14  0  0  0  0  0  0  0  0999 V2000
    5.6710   -0.4610    0.1100 C   0  0  0  0  0  0  0  0  0  0  0  0
    4.4490   -0.7780   -0.4980 O   0  0  0  0  0  0  0  0  0  0  0  0
    3.2860   -0.1840   -0.0260 C   0  0  0  0  0  0  0  0  0  0  0  0
    3.3700    0.6190    0.9320 O   0  0  0  0  0  0  0  0  0  0  0  0
    1.9530   -0.4620   -0.6100 C   0  0  0  0  0  0  0  0  0  0  0  0
    0.9370    0.3290    0.1200 C   0  0  0  0  0  0  0  0  0  0  0  0
   -0.4700    0.1580   -0.3510 C   0  0  2  0  0  0  0  0  0  0  0  0
   -1.4870    1.2440    0.7240 S   0  0  0  0  0  0  0  0  0  0  0  0
   -3.1720    0.6920    0.6350 C   0  0  1  0  0  0  0  0  0  0  0  0
   -4.0090    1.8510    0.0730 C   0  0  0  0  0  0  0  0  0  0  0  0
   -3.4400   -0.4990   -0.1830 C   0  0  0  0  0  0  0  0  0  0  0  0
   -2.3830   -1.4330   -0.3420 N   0  0  0  0  0  0  0  0  0  0  0  0
   -1.0090   -1.2050   -0.1400 C   0  0  0  0  0  0  0  0  0  0  0  0
   -0.3080   -2.1890    0.2130 O   0  0  0  0  0  0  0  0  0  0  0  0
  1  2  1  0
  2  3  1  0
  3  4  2  0
  3  5  1  0
  5  6  1  0
  7  6  1  1
  7  8  1  0
  7 13  1  0
  8  9  1  0
  9 10  1  6
  9 11  1  0
 11 12  1  0
 12 13  1  0
 13 14  2  0
M  END
