
     RDKit          3D

 14 14  0  0  0  0  0  0  0  0999 V2000
    4.0970   -0.9960    1.2430 C   0  0  0  0  0  0  0  0  0  0  0  0
    3.5250    0.1010    0.3780 C   0  0  0  0  0  0  0  0  0  0  0  0
    2.1930   -0.2510    0.0380 O   0  0  0  0  0  0  0  0  0  0  0  0
    1.3870    0.5560   -0.7550 C   0  0  0  0  0  0  0  0  0  0  0  0
    1.8640    1.6200   -1.1730 O   0  0  0  0  0  0  0  0  0  0  0  0
    0.0020    0.1790   -1.1020 C   0  0  2  0  0  0  0  0  0  0  0  0
   -0.5620    1.1880   -1.9130 O   0  0  0  0  0  0  0  0  0  0  0  0
   -0.9430    2.2090   -1.0340 C   0  0  0  0  0  0  0  0  0  0  0  0
   -1.2790    3.7480   -1.4320 S   0  0  0  0  0  0  0  0  0  0  0  0
   -0.9970    1.6950    0.3020 N   0  0  0  0  0  0  0  0  0  0  0  0
   -0.9090    0.2390    0.1250 C   0  0  1  0  0  0  0  0  0  0  0  0
   -2.2470   -0.2970   -0.2980 C   0  0  1  0  0  0  0  0  0  0  0  0
   -2.0900   -1.7130   -0.7760 C   0  0  0  0  0  0  0  0  0  0  0  0
   -3.2690   -0.2590    0.8030 C   0  0  0  0  0  0  0  0  0  0  0  0
  1  2  1  0
  2  3  1  0
  3  4  1  0
  4  5  2  0
  6  4  1  1
  6  7  1  0
  6 11  1  0
  7  8  1  0
  8  9  2  0
  8 10  1  0
 11 10  1  6
 11 12  1  0
 12 13  1  1
 12 14  1  0
M  END
