
     RDKit          3D

 27 28  0  0  0  0  0  0  0  0999 V2000
   -6.3230    1.9390   -0.1290 C   0  0  0  0  0  0  0  0  0  0  0  0
   -6.5480    0.4920    0.2050 C   0  0  1  0  0  0  0  0  0  0  0  0
   -7.9090    0.2070    0.1070 O   0  0  0  0  0  0  0  0  0  0  0  0
   -5.7810   -0.4430   -0.6870 C   0  0  2  0  0  0  0  0  0  0  0  0
   -4.3500   -0.1740   -0.5970 N   0  0  0  0  0  0  0  0  0  0  0  0
   -3.4650   -1.2060   -0.2030 C   0  0  0  0  0  0  0  0  0  0  0  0
   -3.9320   -2.3640    0.0670 O   0  0  0  0  0  0  0  0  0  0  0  0
   -2.0400   -0.9340   -0.1100 C   0  0  0  0  0  0  0  0  0  0  0  0
   -1.4800    0.3210   -0.1390 C   0  0  0  0  0  0  0  0  0  0  0  0
   -0.0970    0.5140   -0.0460 C   0  0  0  0  0  0  0  0  0  0  0  0
    0.7470   -0.5660    0.0770 C   0  0  0  0  0  0  0  0  0  0  0  0
    2.1640   -0.3960    0.1780 C   0  0  0  0  0  0  0  0  0  0  0  0
    3.3780   -0.2360    0.2500 C   0  0  0  0  0  0  0  0  0  0  0  0
    4.7740   -0.0530    0.3470 C   0  0  0  0  0  0  0  0  0  0  0  0
    5.9810    0.1090    0.4240 C   0  0  0  0  0  0  0  0  0  0  0  0
    7.3950    0.3190    0.5290 C   0  0  0  0  0  0  0  0  0  0  0  0
    8.2470   -0.4230   -0.2690 C   0  0  0  0  0  0  0  0  0  0  0  0
    9.6140   -0.2500   -0.1930 C   0  0  0  0  0  0  0  0  0  0  0  0
   10.1780    0.6620    0.6740 C   0  0  0  0  0  0  0  0  0  0  0  0
    9.3340    1.4050    1.4730 C   0  0  0  0  0  0  0  0  0  0  0  0
    7.9740    1.2240    1.3890 C   0  0  0  0  0  0  0  0  0  0  0  0
    0.2020   -1.8290    0.1070 C   0  0  0  0  0  0  0  0  0  0  0  0
   -1.1510   -2.0110    0.0160 C   0  0  0  0  0  0  0  0  0  0  0  0
   -6.2280   -0.3060   -2.0810 C   0  0  0  0  0  0  0  0  0  0  0  0
   -5.3930    0.0030   -2.9720 O   0  0  0  0  0  0  0  0  0  0  0  0
   -7.5770   -0.5110   -2.4790 N   0  0  0  0  0  0  0  0  0  0  0  0
   -8.0830   -1.6670   -2.5380 O   0  0  0  0  0  0  0  0  0  0  0  0
  2  1  1  6
  2  3  1  0
  2  4  1  0
  4  5  1  6
  4 24  1  0
  5  6  1  0
  6  7  2  0
  6  8  1  0
  8  9  2  0
  8 23  1  0
  9 10  1  0
 10 11  2  0
 11 12  1  0
 11 22  1  0
 12 13  3  0
 13 14  1  0
 14 15  3  0
 15 16  1  0
 16 17  2  0
 16 21  1  0
 17 18  1  0
 18 19  2  0
 19 20  1  0
 20 21  2  0
 22 23  2  0
 24 25  2  0
 24 26  1  0
 26 27  2  0
M  END
