
     RDKit          3D

 14 14  0  0  0  0  0  0  0  0999 V2000
    3.1650    1.2210    0.8740 C   0  0  0  0  0  0  0  0  0  0  0  0
    2.9840    0.5020   -0.1940 C   0  0  0  0  0  0  0  0  0  0  0  0
    4.0880    0.7460   -1.5920 S   0  0  0  0  0  0  0  0  0  0  0  0
    1.9400   -0.4790   -0.3000 C   0  0  0  0  0  0  0  0  0  0  0  0
    1.8080   -1.1830   -1.4270 C   0  0  0  0  0  0  0  0  0  0  0  0
    1.0330   -0.7310    0.7790 N   0  0  0  0  0  0  0  0  0  0  0  0
   -0.2410   -1.3980    0.5900 C   0  0  0  0  0  0  0  0  0  0  0  0
   -1.1310   -0.5020   -0.2000 C   0  0  1  0  0  0  0  0  0  0  0  0
   -2.5430   -1.0410   -0.3260 C   0  0  0  0  0  0  0  0  0  0  0  0
   -3.1980   -0.2790   -1.2640 O   0  0  0  0  0  0  0  0  0  0  0  0
   -3.1540    1.0800   -1.0000 C   0  0  0  0  0  0  0  0  0  0  0  0
   -2.4350    1.4300    0.2410 C   0  0  0  0  0  0  0  0  0  0  0  0
   -2.8620    2.3400    0.9860 O   0  0  0  0  0  0  0  0  0  0  0  0
   -1.2860    0.7190    0.5390 O   0  0  0  0  0  0  0  0  0  0  0  0
  1  2  2  0
  2  3  1  0
  2  4  1  0
  4  5  2  0
  4  6  1  0
  6  7  1  0
  8  7  1  1
  8  9  1  0
  8 14  1  0
  9 10  1  0
 10 11  1  0
 11 12  1  0
 12 13  2  0
 12 14  1  0
M  END
