
     RDKit          3D

 20 21  0  0  0  0  0  0  0  0999 V2000
   -1.1950   -0.7670   -0.5510 O   0  0  0  0  0  0  0  0  0  0  0  0
   -0.9150    0.1380    0.2930 C   0  0  0  0  0  0  0  0  0  0  0  0
    0.5100    0.5110    0.5730 C   0  0  0  0  0  0  0  0  0  0  0  0
    1.3420   -0.2880   -0.2290 O   0  0  0  0  0  0  0  0  0  0  0  0
    2.7100   -0.1290   -0.1490 C   0  0  0  0  0  0  0  0  0  0  0  0
    3.3260    0.7880    0.6880 C   0  0  0  0  0  0  0  0  0  0  0  0
    4.7030    0.9170    0.7390 C   0  0  0  0  0  0  0  0  0  0  0  0
    5.4630    0.1410   -0.0370 N   0  0  0  0  0  0  0  0  0  0  0  0
    6.8230    0.2810    0.0250 O   0  0  0  0  0  0  0  0  0  0  0  0
    4.9070   -0.7440   -0.8480 C   0  0  0  0  0  0  0  0  0  0  0  0
    5.7200   -1.5480   -1.6540 O   0  0  0  0  0  0  0  0  0  0  0  0
    3.5310   -0.9100   -0.9330 C   0  0  0  0  0  0  0  0  0  0  0  0
   -1.9790    0.7510    0.9310 O   0  0  0  0  0  0  0  0  0  0  0  0
   -3.2830    0.3640    0.6320 C   0  0  0  0  0  0  0  0  0  0  0  0
   -3.9330   -0.6430    1.3180 C   0  0  0  0  0  0  0  0  0  0  0  0
   -5.2210   -1.0410    1.0390 C   0  0  0  0  0  0  0  0  0  0  0  0
   -5.8970   -0.4000    0.0230 C   0  0  0  0  0  0  0  0  0  0  0  0
   -5.2880    0.6100   -0.6870 C   0  0  0  0  0  0  0  0  0  0  0  0
   -3.9850    0.9910   -0.3840 C   0  0  0  0  0  0  0  0  0  0  0  0
   -3.3740    1.9890   -1.0810 F   0  0  0  0  0  0  0  0  0  0  0  0
  1  2  2  0
  2  3  1  0
  2 13  1  0
  3  4  1  0
  4  5  1  0
  5  6  2  0
  5 12  1  0
  6  7  1  0
  7  8  2  0
  8  9  1  0
  8 10  1  0
 10 11  1  0
 10 12  2  0
 13 14  1  0
 14 15  2  0
 14 19  1  0
 15 16  1  0
 16 17  2  0
 17 18  1  0
 18 19  2  0
 19 20  1  0
M  CHG  2   8   1   9  -1
M  END
