
     RDKit          3D

 20 21  0  0  0  0  0  0  0  0999 V2000
   -0.3380   -1.2470    0.9900 O   0  0  0  0  0  0  0  0  0  0  0  0
   -0.8300   -0.6560    0.0130 C   0  0  0  0  0  0  0  0  0  0  0  0
   -0.0610   -0.4070   -1.0970 O   0  0  0  0  0  0  0  0  0  0  0  0
    1.2670   -0.7440   -1.2710 C   0  0  0  0  0  0  0  0  0  0  0  0
    2.2250   -0.1200   -0.3420 C   0  0  0  0  0  0  0  0  0  0  0  0
    1.9120    0.7910    0.6290 C   0  0  0  0  0  0  0  0  0  0  0  0
    2.9240    1.3030    1.4110 C   0  0  0  0  0  0  0  0  0  0  0  0
    4.2150    0.9430    1.2610 N   0  0  0  0  0  0  0  0  0  0  0  0
    5.2020    1.4890    2.0770 O   0  0  0  0  0  0  0  0  0  0  0  0
    4.5640    0.0490    0.3160 C   0  0  0  0  0  0  0  0  0  0  0  0
    3.5660   -0.4720   -0.4730 C   0  0  0  0  0  0  0  0  0  0  0  0
    3.9320   -1.3840   -1.4350 O   0  0  0  0  0  0  0  0  0  0  0  0
   -2.2380   -0.2150    0.0310 C   0  0  0  0  0  0  0  0  0  0  0  0
   -3.0270   -0.4560    1.1380 C   0  0  0  0  0  0  0  0  0  0  0  0
   -2.4610   -1.1170    2.2180 O   0  0  0  0  0  0  0  0  0  0  0  0
   -4.3440   -0.0240    1.1100 C   0  0  0  0  0  0  0  0  0  0  0  0
   -4.8630    0.6340    0.0030 C   0  0  0  0  0  0  0  0  0  0  0  0
   -4.0750    0.8730   -1.0990 C   0  0  0  0  0  0  0  0  0  0  0  0
   -2.7680    0.4390   -1.0610 C   0  0  0  0  0  0  0  0  0  0  0  0
   -1.9860    0.6710   -2.1430 F   0  0  0  0  0  0  0  0  0  0  0  0
  1  2  2  0
  2  3  1  0
  2 13  1  0
  3  4  1  0
  4  5  1  0
  5  6  2  0
  5 11  1  0
  6  7  1  0
  7  8  2  0
  8  9  1  0
  8 10  1  0
 10 11  2  0
 11 12  1  0
 13 14  2  0
 13 19  1  0
 14 15  1  0
 14 16  1  0
 16 17  2  0
 17 18  1  0
 18 19  2  0
 19 20  1  0
M  CHG  2   8   1   9  -1
M  END
