
     RDKit          3D

 20 21  0  0  0  0  0  0  0  0999 V2000
    5.9500   -1.6740   -0.2130 O   0  0  0  0  0  0  0  0  0  0  0  0
    5.4090   -0.5540   -0.0540 C   0  0  0  0  0  0  0  0  0  0  0  0
    3.9640   -0.4260   -0.2040 C   0  0  0  0  0  0  0  0  0  0  0  0
    3.1670   -1.5180   -0.5200 C   0  0  0  0  0  0  0  0  0  0  0  0
    1.7980   -1.3920   -0.6610 C   0  0  0  0  0  0  0  0  0  0  0  0
    1.1740   -0.1730   -0.4930 C   0  0  0  0  0  0  0  0  0  0  0  0
   -0.1990   -0.0110   -0.6280 O   0  0  0  0  0  0  0  0  0  0  0  0
   -1.0160   -0.1630    0.4640 C   0  0  0  0  0  0  0  0  0  0  0  0
   -0.4910   -0.4470    1.5630 O   0  0  0  0  0  0  0  0  0  0  0  0
   -2.4630    0.0090    0.3160 C   0  0  0  0  0  0  0  0  0  0  0  0
   -3.0180    0.3230   -0.9070 C   0  0  0  0  0  0  0  0  0  0  0  0
   -4.3860    0.4780   -1.0110 C   0  0  0  0  0  0  0  0  0  0  0  0
   -5.2130    0.3330    0.0500 N   0  0  0  0  0  0  0  0  0  0  0  0
   -6.5660    0.5050   -0.1410 O   0  0  0  0  0  0  0  0  0  0  0  0
   -4.6830    0.0280    1.2460 C   0  0  0  0  0  0  0  0  0  0  0  0
   -3.3200   -0.1350    1.3880 C   0  0  0  0  0  0  0  0  0  0  0  0
    1.9510    0.9180   -0.1800 C   0  0  0  0  0  0  0  0  0  0  0  0
    1.3980    2.1390   -0.0030 F   0  0  0  0  0  0  0  0  0  0  0  0
    3.3230    0.7810   -0.0410 C   0  0  0  0  0  0  0  0  0  0  0  0
    4.1040    1.8790    0.2740 O   0  0  0  0  0  0  0  0  0  0  0  0
  1  2  2  0
  2  3  1  0
  3  4  2  0
  3 19  1  0
  4  5  1  0
  5  6  2  0
  6  7  1  0
  6 17  1  0
  7  8  1  0
  8  9  2  0
  8 10  1  0
 10 11  2  0
 10 16  1  0
 11 12  1  0
 12 13  2  0
 13 14  1  0
 13 15  1  0
 15 16  2  0
 17 18  1  0
 17 19  2  0
 19 20  1  0
M  CHG  2  13   1  14  -1
M  END
