
     RDKit          3D

 20 21  0  0  0  0  0  0  0  0999 V2000
    4.6180   -0.6920    1.0830 O   0  0  0  0  0  0  0  0  0  0  0  0
    5.3560   -0.5010    0.0970 C   0  0  0  0  0  0  0  0  0  0  0  0
    6.7320   -0.5920    0.3150 O   0  0  0  0  0  0  0  0  0  0  0  0
    4.8080   -0.1950   -1.2260 C   0  0  0  0  0  0  0  0  0  0  0  0
    3.2640   -0.1510   -1.0820 C   0  0  0  0  0  0  0  0  0  0  0  0
    2.9620    0.8770   -0.1500 N   0  0  0  0  0  0  0  0  0  0  0  0
    4.0080    1.7240    0.2880 O   0  0  0  0  0  0  0  0  0  0  0  0
    1.8150    1.1350    0.3080 C   0  0  0  0  0  0  0  0  0  0  0  0
    0.5930    0.4330   -0.0410 C   0  0  0  0  0  0  0  0  0  0  0  0
    0.2830   -0.5840   -0.8770 C   0  0  0  0  0  0  0  0  0  0  0  0
   -1.0990   -0.8120   -0.7600 C   0  0  0  0  0  0  0  0  0  0  0  0
   -1.5590    0.0950    0.1560 C   0  0  0  0  0  0  0  0  0  0  0  0
   -2.9430    0.2310    0.5980 C   0  0  0  0  0  0  0  0  0  0  0  0
   -3.4380    1.1400    1.5230 C   0  0  0  0  0  0  0  0  0  0  0  0
   -4.7990    0.9210    1.6430 C   0  0  0  0  0  0  0  0  0  0  0  0
   -5.0700   -0.1190    0.7780 C   0  0  0  0  0  0  0  0  0  0  0  0
   -6.4390   -0.6810    0.5940 C   0  0  0  0  0  0  0  0  0  0  0  0
   -6.7020   -1.7110    1.4640 F   0  0  0  0  0  0  0  0  0  0  0  0
   -3.9630   -0.4780    0.2020 O   0  0  0  0  0  0  0  0  0  0  0  0
   -0.5510    0.8040    0.5550 O   0  0  0  0  0  0  0  0  0  0  0  0
  1  2  2  0
  2  3  1  0
  2  4  1  0
  4  5  1  0
  5  6  1  0
  6  7  1  0
  6  8  2  3
  8  9  1  0
  9 10  2  0
  9 20  1  0
 10 11  1  0
 11 12  2  0
 12 13  1  0
 12 20  1  0
 13 14  2  0
 13 19  1  0
 14 15  1  0
 15 16  2  0
 16 17  1  0
 16 19  1  0
 17 18  1  0
M  CHG  2   6   1   7  -1
M  END
