
     RDKit          3D

 20 21  0  0  0  0  0  0  0  0999 V2000
    4.1630    2.3660   -0.0050 C   0  0  0  0  0  0  0  0  0  0  0  0
    2.8440    1.8690    0.0280 O   0  0  0  0  0  0  0  0  0  0  0  0
    2.6140    0.5490   -0.2870 C   0  0  0  0  0  0  0  0  0  0  0  0
    3.6750   -0.2530   -0.6260 C   0  0  0  0  0  0  0  0  0  0  0  0
    3.4990   -1.5900   -0.9530 C   0  0  0  0  0  0  0  0  0  0  0  0
    2.2200   -2.1240   -0.9350 C   0  0  0  0  0  0  0  0  0  0  0  0
    2.0650   -3.4500   -1.2610 F   0  0  0  0  0  0  0  0  0  0  0  0
    1.1470   -1.3280   -0.5960 C   0  0  0  0  0  0  0  0  0  0  0  0
    1.3320    0.0200   -0.2680 C   0  0  0  0  0  0  0  0  0  0  0  0
    0.2510    0.8160    0.0720 O   0  0  0  0  0  0  0  0  0  0  0  0
   -1.0590    0.3950    0.1690 C   0  0  0  0  0  0  0  0  0  0  0  0
   -2.0360    0.8960   -0.6980 C   0  0  0  0  0  0  0  0  0  0  0  0
   -3.3460    0.4980   -0.6290 C   0  0  0  0  0  0  0  0  0  0  0  0
   -4.3510    0.9970   -1.5030 N   0  0  0  0  0  0  0  0  0  0  0  0
   -5.3300    1.5730   -0.7350 O   0  0  0  0  0  0  0  0  0  0  0  0
   -3.7310   -0.4270    0.3220 C   0  0  0  0  0  0  0  0  0  0  0  0
   -2.7700   -0.9160    1.1720 C   0  0  0  0  0  0  0  0  0  0  0  0
   -3.0920   -1.8620    2.1650 O   0  0  0  0  0  0  0  0  0  0  0  0
   -1.4290   -0.5230    1.1190 C   0  0  0  0  0  0  0  0  0  0  0  0
   -0.5230   -1.0810    2.0440 O   0  0  0  0  0  0  0  0  0  0  0  0
  1  2  1  0
  2  3  1  0
  3  4  2  0
  3  9  1  0
  4  5  1  0
  5  6  2  0
  6  7  1  0
  6  8  1  0
  8  9  2  0
  9 10  1  0
 10 11  1  0
 11 12  2  0
 11 19  1  0
 12 13  1  0
 13 14  1  0
 13 16  2  0
 14 15  1  0
 16 17  1  0
 17 18  1  0
 17 19  2  0
 19 20  1  0
M  CHG  2  14   1  15  -1
M  END
