
     RDKit          3D

 19 20  0  0  0  0  0  0  0  0999 V2000
    4.9740   -0.7680    1.2670 C   0  0  0  0  0  0  0  0  0  0  0  0
    3.6510   -0.3740    1.5090 O   0  0  0  0  0  0  0  0  0  0  0  0
    2.8550    0.0660    0.4650 C   0  0  0  0  0  0  0  0  0  0  0  0
    3.3420    0.1230   -0.8170 C   0  0  0  0  0  0  0  0  0  0  0  0
    2.5280    0.5660   -1.8460 C   0  0  0  0  0  0  0  0  0  0  0  0
    1.2330    0.9470   -1.5670 C   0  0  0  0  0  0  0  0  0  0  0  0
    0.7720    0.8810   -0.2880 C   0  0  0  0  0  0  0  0  0  0  0  0
   -0.5330    1.2610    0.0160 O   0  0  0  0  0  0  0  0  0  0  0  0
   -1.5900    0.3580   -0.0290 C   0  0  0  0  0  0  0  0  0  0  0  0
   -1.3770   -0.9460   -0.3790 C   0  0  0  0  0  0  0  0  0  0  0  0
   -2.4450   -1.8180   -0.4160 C   0  0  0  0  0  0  0  0  0  0  0  0
   -3.7250   -1.3770   -0.1000 C   0  0  0  0  0  0  0  0  0  0  0  0
   -3.9410   -0.0640    0.2520 C   0  0  0  0  0  0  0  0  0  0  0  0
   -5.2290    0.4160    0.5760 N   0  0  0  0  0  0  0  0  0  0  0  0
   -5.3010    1.3460    1.4270 O   0  0  0  0  0  0  0  0  0  0  0  0
   -6.3810   -0.0670    0.0230 O   0  0  0  0  0  0  0  0  0  0  0  0
   -2.8590    0.7860    0.2810 C   0  0  0  0  0  0  0  0  0  0  0  0
   -3.0520    2.1080    0.6320 O   0  0  0  0  0  0  0  0  0  0  0  0
    1.5640    0.4440    0.7490 C   0  0  0  0  0  0  0  0  0  0  0  0
  1  2  1  0
  2  3  1  0
  3  4  2  0
  3 19  1  0
  4  5  1  0
  5  6  2  0
  6  7  1  0
  7  8  1  0
  7 19  2  0
  8  9  1  0
  9 10  2  0
  9 17  1  0
 10 11  1  0
 11 12  2  0
 12 13  1  0
 13 14  1  0
 13 17  2  0
 14 15  2  0
 14 16  1  0
 17 18  1  0
M  CHG  2  14   1  16  -1
M  END
