
     RDKit          3D

 11 11  0  0  0  0  0  0  0  0999 V2000
   -3.7620    0.7580   -1.0040 O   0  0  0  0  0  0  0  0  0  0  0  0
   -3.3760    0.3790    0.2660 C   0  0  0  0  0  0  0  0  0  0  0  0
   -2.0660   -0.3740    0.2510 C   0  0  0  0  0  0  0  0  0  0  0  0
   -1.0310    0.3970   -0.2790 O   0  0  0  0  0  0  0  0  0  0  0  0
    0.1390   -0.3310   -0.2720 C   0  0  1  0  0  0  0  0  0  0  0  0
    0.6260   -0.5520   -1.5600 O   0  0  0  0  0  0  0  0  0  0  0  0
    2.0000   -0.8310   -1.3810 C   0  0  0  0  0  0  0  0  0  0  0  0
    2.3880    0.3510   -0.4840 C   0  0  2  0  0  0  0  0  0  0  0  0
    3.6070    0.1560    0.1160 O   0  0  0  0  0  0  0  0  0  0  0  0
    1.2370    0.3000    0.5250 C   0  0  2  0  0  0  0  0  0  0  0  0
    1.6630   -0.5060    1.5650 O   0  0  0  0  0  0  0  0  0  0  0  0
  1  2  1  0
  2  3  1  0
  3  4  1  0
  5  4  1  6
  5  6  1  0
  5 10  1  0
  6  7  1  0
  7  8  1  0
  8  9  1  1
  8 10  1  0
 10 11  1  1
M  END
