
     RDKit          3D

 18 19  0  0  0  0  0  0  0  0999 V2000
   -0.9900    1.2840    0.8340 C   0  0  0  0  0  0  0  0  0  0  0  0
   -1.7520    0.2310    0.1570 N   0  0  0  0  0  0  0  0  0  0  0  0
   -3.1800    0.2860    0.0350 C   0  0  0  0  0  0  0  0  0  0  0  0
   -3.9400    1.2450    0.4430 N   0  0  0  0  0  0  0  0  0  0  0  0
   -3.6160   -0.8910   -0.6180 N   0  0  0  0  0  0  0  0  0  0  0  0
   -2.4780   -1.6690   -0.9010 C   0  0  0  0  0  0  0  0  0  0  0  0
   -2.5200   -2.7860   -1.4810 O   0  0  0  0  0  0  0  0  0  0  0  0
   -1.2660   -0.9670   -0.4130 C   0  0  0  0  0  0  0  0  0  0  0  0
   -0.0500   -1.4270   -0.5750 C   0  0  0  0  0  0  0  0  0  0  0  0
    1.2030   -0.8320   -0.2200 C   0  0  0  0  0  0  0  0  0  0  0  0
    1.5980    0.4000   -0.6880 C   0  0  0  0  0  0  0  0  0  0  0  0
    2.7990    0.9460   -0.3220 C   0  0  0  0  0  0  0  0  0  0  0  0
    3.3320    2.6580   -0.9790 Br  0  0  0  0  0  0  0  0  0  0  0  0
    3.6850    0.3020    0.5320 C   0  0  0  0  0  0  0  0  0  0  0  0
    4.9000    0.8690    0.8940 O   0  0  0  0  0  0  0  0  0  0  0  0
    3.3050   -0.9340    1.0090 C   0  0  0  0  0  0  0  0  0  0  0  0
    4.5050   -1.8530    2.1910 Br  0  0  0  0  0  0  0  0  0  0  0  0
    2.1060   -1.4770    0.6430 C   0  0  0  0  0  0  0  0  0  0  0  0
  1  2  1  0
  2  3  1  0
  2  8  1  0
  3  4  2  0
  3  5  1  0
  5  6  1  0
  6  7  2  0
  6  8  1  0
  8  9  2  3
  9 10  1  0
 10 11  2  0
 10 18  1  0
 11 12  1  0
 12 13  1  0
 12 14  2  0
 14 15  1  0
 14 16  1  0
 16 17  1  0
 16 18  2  0
M  CHG  1   4   1
M  END
