
     RDKit          3D

 11 11  0  0  0  0  0  0  0  0999 V2000
    3.8060    0.0600    1.5580 O   0  0  0  0  0  0  0  0  0  0  0  0
    2.9070    0.5650    0.6290 C   0  0  0  0  0  0  0  0  0  0  0  0
    1.7010   -0.1310    0.7240 O   0  0  0  0  0  0  0  0  0  0  0  0
    0.8310    0.4020   -0.2180 C   0  0  0  0  0  0  0  0  0  0  0  0
   -0.5030   -0.2770   -0.2020 C   0  0  2  0  0  0  0  0  0  0  0  0
   -0.3450   -1.6240   -0.4790 O   0  0  0  0  0  0  0  0  0  0  0  0
   -1.3810    0.4090   -1.2490 C   0  0  0  0  0  0  0  0  0  0  0  0
   -2.7530    0.0700   -0.6560 C   0  0  0  0  0  0  0  0  0  0  0  0
   -2.6180    0.1110    0.7040 O   0  0  0  0  0  0  0  0  0  0  0  0
   -1.2970   -0.0180    1.0400 C   0  0  1  0  0  0  0  0  0  0  0  0
   -1.1080   -1.0350    1.9630 O   0  0  0  0  0  0  0  0  0  0  0  0
  1  2  1  0
  2  3  1  0
  3  4  1  0
  4  5  1  0
  5  6  1  6
  5  7  1  0
  5 10  1  0
  7  8  1  0
  8  9  1  0
  9 10  1  0
 10 11  1  1
M  END
