
     RDKit          3D

 11 11  0  0  0  0  0  0  0  0999 V2000
    3.5940   -0.3940   -0.6220 O   0  0  0  0  0  0  0  0  0  0  0  0
    3.1590    0.8210   -0.1120 C   0  0  0  0  0  0  0  0  0  0  0  0
    2.0550    0.6310    0.7020 O   0  0  0  0  0  0  0  0  0  0  0  0
    1.0500    0.0600   -0.0400 C   0  0  2  0  0  0  0  0  0  0  0  0
   -0.2120    0.9150   -0.0750 C   0  0  0  0  0  0  0  0  0  0  0  0
   -1.2370   -0.0990   -0.5100 C   0  0  2  0  0  0  0  0  0  0  0  0
   -2.5570    0.0980    0.1890 C   0  0  0  0  0  0  0  0  0  0  0  0
   -3.0210    1.3780   -0.1220 O   0  0  0  0  0  0  0  0  0  0  0  0
   -0.5810   -1.4020   -0.1900 C   0  0  2  0  0  0  0  0  0  0  0  0
   -1.3650   -2.2660    0.5420 O   0  0  0  0  0  0  0  0  0  0  0  0
    0.5560   -1.1060    0.5750 O   0  0  0  0  0  0  0  0  0  0  0  0
  1  2  1  0
  2  3  1  0
  4  3  1  1
  4  5  1  0
  4 11  1  0
  5  6  1  0
  6  7  1  1
  6  9  1  0
  7  8  1  0
  9 10  1  1
  9 11  1  0
M  END
