
     RDKit          3D

 12 12  0  0  0  0  0  0  0  0999 V2000
   -0.9050   -2.4850    0.1050 O   0  0  0  0  0  0  0  0  0  0  0  0
   -0.4210   -1.4610   -0.6860 C   0  0  0  0  0  0  0  0  0  0  0  0
   -0.0230   -0.2840    0.1720 C   0  0  1  0  0  0  0  0  0  0  0  0
   -1.1980    0.2220    0.9600 C   0  0  0  0  0  0  0  0  0  0  0  0
   -2.3590   -0.4860    0.6070 O   0  0  0  0  0  0  0  0  0  0  0  0
   -2.9860    0.0960   -0.3810 O   0  0  0  0  0  0  0  0  0  0  0  0
    1.1360   -0.7090    1.0260 C   0  0  0  0  0  0  0  0  0  0  0  0
    1.8320    0.5010    1.1810 O   0  0  0  0  0  0  0  0  0  0  0  0
    2.0130    0.8360   -0.1710 C   0  0  0  0  0  0  0  0  0  0  0  0
    0.5800    0.8190   -0.6620 C   0  0  1  0  0  0  0  0  0  0  0  0
    0.4890    0.5240   -2.0190 O   0  0  0  0  0  0  0  0  0  0  0  0
    0.0040    2.0660   -0.3830 O   0  0  0  0  0  0  0  0  0  0  0  0
  1  2  1  0
  3  2  1  6
  3  4  1  0
  3  7  1  0
  3 10  1  0
  4  5  1  0
  5  6  1  0
  7  8  1  0
  8  9  1  0
  9 10  1  0
 10 11  1  6
 10 12  1  0
M  END
