
     RDKit          3D

 20 22  0  0  0  0  0  0  0  0999 V2000
    4.3200    2.9270   -0.8710 C   0  0  0  0  0  0  0  0  0  0  0  0
    3.0930    2.6190   -0.1970 O   0  0  0  0  0  0  0  0  0  0  0  0
    2.8070    1.2770    0.0920 C   0  0  0  0  0  0  0  0  0  0  0  0
    1.5500    0.8760    0.0710 C   0  0  0  0  0  0  0  0  0  0  0  0
    1.0650   -0.4830    0.3460 C   0  0  1  0  0  0  0  0  0  0  0  0
    0.3700   -1.0540   -0.8740 C   0  0  0  0  0  0  0  0  0  0  0  0
   -0.7930   -0.2220   -1.2910 C   0  0  0  0  0  0  0  0  0  0  0  0
   -0.8470    0.5220   -2.2690 O   0  0  0  0  0  0  0  0  0  0  0  0
   -1.9130   -0.3190   -0.4690 O   0  0  0  0  0  0  0  0  0  0  0  0
   -3.1160    0.3700   -0.6700 C   0  0  1  0  0  0  0  0  0  0  0  0
   -4.2300   -0.6690   -0.7070 C   0  0  0  0  0  0  0  0  0  0  0  0
   -5.2060   -0.2720    0.3920 C   0  0  0  0  0  0  0  0  0  0  0  0
   -4.9880    1.2380    0.4260 C   0  0  0  0  0  0  0  0  0  0  0  0
   -3.4560    1.2630    0.5160 C   0  0  0  0  0  0  0  0  0  0  0  0
    2.1710   -1.4150    0.6640 C   0  0  0  0  0  0  0  0  0  0  0  0
    2.2050   -2.7210    0.9710 C   0  0  0  0  0  0  0  0  0  0  0  0
    3.5730   -3.1620    1.1980 C   0  0  0  0  0  0  0  0  0  0  0  0
    4.3630   -2.1180    1.0260 C   0  0  0  0  0  0  0  0  0  0  0  0
    3.5290   -0.9490    0.6780 C   0  0  0  0  0  0  0  0  0  0  0  0
    3.8470    0.3210    0.4100 C   0  0  0  0  0  0  0  0  0  0  0  0
  1  2  1  0
  2  3  1  0
  3  4  2  0
  3 20  1  0
  4  5  1  0
  5  6  1  6
  5 15  1  0
  6  7  1  0
  7  8  2  0
  7  9  1  0
 10  9  1  1
 10 11  1  0
 10 14  1  0
 11 12  1  0
 12 13  1  0
 13 14  1  0
 15 16  2  0
 15 19  1  0
 16 17  1  0
 17 18  2  0
 18 19  1  0
 19 20  2  0
M  END
