
     RDKit          3D

 18 19  0  0  0  0  0  0  0  0999 V2000
    6.1680   -0.0250    0.1590 F   0  0  0  0  0  0  0  0  0  0  0  0
    4.9120   -0.3870   -0.3430 C   0  0  1  0  0  0  0  0  0  0  0  0
    4.1020   -0.9750    0.7630 C   0  0  0  0  0  0  0  0  0  0  0  0
    2.6300   -0.9150    0.3240 C   0  0  0  0  0  0  0  0  0  0  0  0
    2.2430    0.5300    0.4380 C   0  0  2  0  0  0  0  0  0  0  0  0
    0.8860    0.8280    0.1030 N   0  0  0  0  0  0  0  0  0  0  0  0
    0.0020    0.1490    1.0180 C   0  0  0  0  0  0  0  0  0  0  0  0
   -1.4230    0.5440    0.6310 C   0  0  0  0  0  0  0  0  0  0  0  0
   -1.6310    0.0930   -0.7920 C   0  0  0  0  0  0  0  0  0  0  0  0
   -2.8760    0.3790   -1.2670 O   0  0  0  0  0  0  0  0  0  0  0  0
   -4.0650   -0.1360   -0.8410 C   0  0  0  0  0  0  0  0  0  0  0  0
   -4.2090   -1.0820    0.1280 C   0  0  0  0  0  0  0  0  0  0  0  0
   -5.5040   -1.4990    0.4510 C   0  0  0  0  0  0  0  0  0  0  0  0
   -6.5930   -1.0110   -0.1490 N   0  0  0  0  0  0  0  0  0  0  0  0
   -6.4340   -0.0780   -1.1040 C   0  0  0  0  0  0  0  0  0  0  0  0
   -5.2060    0.3710   -1.4660 C   0  0  0  0  0  0  0  0  0  0  0  0
    3.1560    1.4330   -0.3380 C   0  0  0  0  0  0  0  0  0  0  0  0
    4.2710    0.7510   -1.0530 C   0  0  0  0  0  0  0  0  0  0  0  0
  2  1  1  1
  2  3  1  0
  2 18  1  0
  3  4  1  0
  4  5  1  0
  5  6  1  6
  5 17  1  0
  6  7  1  0
  7  8  1  0
  8  9  1  0
  9 10  1  0
 10 11  1  0
 11 12  2  0
 11 16  1  0
 12 13  1  0
 13 14  2  0
 14 15  1  0
 15 16  2  0
 17 18  1  0
M  END
