
     RDKit          3D

 18 19  0  0  0  0  0  0  0  0999 V2000
    3.5400    2.7340    0.8010 C   0  0  0  0  0  0  0  0  0  0  0  0
    2.1740    2.1340    0.5610 C   0  0  0  0  0  0  0  0  0  0  0  0
    2.2840    0.7420    0.3470 O   0  0  0  0  0  0  0  0  0  0  0  0
    1.1850   -0.0530    0.1040 C   0  0  0  0  0  0  0  0  0  0  0  0
   -0.0720    0.5110    0.0660 C   0  0  0  0  0  0  0  0  0  0  0  0
   -1.2010   -0.2530   -0.1740 C   0  0  0  0  0  0  0  0  0  0  0  0
   -2.5500    0.3240   -0.2210 C   0  0  0  0  0  0  0  0  0  0  0  0
   -2.7820    1.5940   -0.6680 C   0  0  0  0  0  0  0  0  0  0  0  0
   -4.0730    2.1000   -0.6920 C   0  0  0  0  0  0  0  0  0  0  0  0
   -5.0650    1.3100   -0.2660 N   0  0  0  0  0  0  0  0  0  0  0  0
   -4.8780    0.0610    0.1800 C   0  0  0  0  0  0  0  0  0  0  0  0
   -3.6040   -0.4730    0.2160 C   0  0  0  0  0  0  0  0  0  0  0  0
   -1.0750   -1.6070   -0.3810 C   0  0  0  0  0  0  0  0  0  0  0  0
    0.1800   -2.1760   -0.3440 C   0  0  0  0  0  0  0  0  0  0  0  0
    1.3150   -1.4230   -0.1050 C   0  0  0  0  0  0  0  0  0  0  0  0
    2.6010   -2.0150   -0.0700 N   0  0  0  0  0  0  0  0  0  0  0  0
    2.7600   -3.4440   -0.2850 C   0  0  0  0  0  0  0  0  0  0  0  0
    2.0560   -4.1010    0.6910 F   0  0  0  0  0  0  0  0  0  0  0  0
  1  2  1  0
  2  3  1  0
  3  4  1  0
  4  5  2  0
  4 15  1  0
  5  6  1  0
  6  7  1  0
  6 13  2  0
  7  8  2  0
  7 12  1  0
  8  9  1  0
  9 10  2  0
 10 11  1  0
 11 12  2  0
 13 14  1  0
 14 15  2  0
 15 16  1  0
 16 17  1  0
 17 18  1  0
M  END
