
     RDKit          3D

 22 23  0  0  0  0  0  0  0  0999 V2000
   -6.0380   -2.9580    0.0630 C   0  0  0  0  0  0  0  0  0  0  0  0
   -5.9180   -1.5860    0.2080 O   0  0  0  0  0  0  0  0  0  0  0  0
   -4.5460   -1.3090    0.3750 C   0  0  2  0  0  0  0  0  0  0  0  0
   -4.2910   -0.6610    1.7070 C   0  0  0  0  0  0  0  0  0  0  0  0
   -3.5150    0.5670    1.4680 C   0  0  0  0  0  0  0  0  0  0  0  0
   -3.1480    0.5920    0.0400 C   0  0  1  0  0  0  0  0  0  0  0  0
   -1.8200    0.3230   -0.2950 N   0  0  0  0  0  0  0  0  0  0  0  0
   -0.7860    1.3960   -0.1620 C   0  0  0  0  0  0  0  0  0  0  0  0
   -1.1350    2.4060    0.2700 O   0  0  0  0  0  0  0  0  0  0  0  0
    0.4810    0.8690   -0.6340 N   0  0  0  0  0  0  0  0  0  0  0  0
    1.4420    2.1910   -0.0680 C   0  0  0  0  0  0  0  0  0  0  0  0
    0.8540    3.0460    0.4240 O   0  0  0  0  0  0  0  0  0  0  0  0
    2.8330    2.0150   -0.2950 C   0  0  0  0  0  0  0  0  0  0  0  0
    3.5570    1.0480   -0.8650 C   0  0  0  0  0  0  0  0  0  0  0  0
    4.9640    1.2240   -0.9100 C   0  0  0  0  0  0  0  0  0  0  0  0
    5.9490    0.3700   -0.7430 C   0  0  0  0  0  0  0  0  0  0  0  0
    5.6650   -1.0280   -0.4540 C   0  0  0  0  0  0  0  0  0  0  0  0
    6.5920   -1.8980   -0.2730 N   0  0  0  0  0  0  0  0  0  0  0  0
    4.3610   -1.4580   -0.3690 O   0  0  0  0  0  0  0  0  0  0  0  0
    5.2910    2.6940   -1.1640 C   0  0  0  0  0  0  0  0  0  0  0  0
    4.0760    3.3010    0.1060 S   0  0  0  0  0  0  0  0  0  0  0  0
   -4.0580   -0.3410   -0.6530 C   0  0  0  0  0  0  0  0  0  0  0  0
  1  2  1  0
  3  2  1  6
  3  4  1  0
  3 22  1  0
  4  5  1  0
  5  6  1  0
  6  7  1  1
  6 22  1  0
  7  8  1  0
  8  9  2  0
  8 10  1  0
 10 11  1  0
 11 12  2  0
 11 13  1  0
 13 14  2  0
 13 21  1  0
 14 15  1  0
 15 16  2  3
 15 20  1  0
 16 17  1  0
 17 18  2  0
 17 19  1  0
 20 21  1  0
M  CHG  1  18   1
M  END
