
     RDKit          3D

 22 23  0  0  0  0  0  0  0  0999 V2000
   -3.9870    0.7250   -1.7680 C   0  0  0  0  0  0  0  0  0  0  0  0
   -3.7990    0.0240   -0.4830 C   0  0  2  0  0  0  0  0  0  0  0  0
   -4.1960    0.8870    0.6680 C   0  0  0  0  0  0  0  0  0  0  0  0
   -3.0120    1.2320    1.5500 C   0  0  1  0  0  0  0  0  0  0  0  0
   -2.7140    0.1010    2.3130 O   0  0  0  0  0  0  0  0  0  0  0  0
   -1.8580    1.5360    0.6000 C   0  0  0  0  0  0  0  0  0  0  0  0
   -1.4180    0.2700   -0.0130 N   0  0  1  0  0  0  0  0  0  0  0  0
   -0.1350   -0.0550    0.4720 C   0  0  0  0  0  0  0  0  0  0  0  0
    0.4790   -1.3280    0.1040 C   0  0  0  0  0  0  0  0  0  0  0  0
    1.7090   -1.2110   -0.6360 C   0  0  0  0  0  0  0  0  0  0  0  0
    2.3160    0.4430   -0.9230 S   0  0  0  0  0  0  0  0  0  0  0  0
    3.2960    0.9450    0.4970 C   0  0  0  0  0  0  0  0  0  0  0  0
    4.7760    0.8300    0.3670 C   0  0  0  0  0  0  0  0  0  0  0  0
    5.2390    1.6720   -0.8420 C   0  0  0  0  0  0  0  0  0  0  0  0
    4.6960    2.9260   -0.8260 O   0  0  0  0  0  0  0  0  0  0  0  0
    2.4030   -2.2540   -1.0200 N   0  0  0  0  0  0  0  0  0  0  0  0
    1.9620   -3.5120   -0.7060 C   0  0  0  0  0  0  0  0  0  0  0  0
    2.5960   -4.5710   -1.0640 O   0  0  0  0  0  0  0  0  0  0  0  0
    0.8300   -3.6570   -0.0110 N   0  0  0  0  0  0  0  0  0  0  0  0
    0.0760   -2.5790    0.3930 C   0  0  0  0  0  0  0  0  0  0  0  0
   -0.9420   -2.9030    1.0310 O   0  0  0  0  0  0  0  0  0  0  0  0
   -2.4320   -0.6480   -0.2740 C   0  0  0  0  0  0  0  0  0  0  0  0
  2  1  1  6
  2  3  1  0
  2 22  1  0
  3  4  1  0
  4  5  1  1
  4  6  1  0
  6  7  1  0
  7  8  1  1
  7 22  1  0
  8  9  1  0
  9 10  2  0
  9 20  1  0
 10 11  1  0
 10 16  1  0
 11 12  1  0
 12 13  1  0
 13 14  1  0
 14 15  1  0
 16 17  1  0
 17 18  2  0
 17 19  1  0
 19 20  1  0
 20 21  2  0
M  CHG  1   7   1
M  END
