
     RDKit          3D

 22 23  0  0  0  0  0  0  0  0999 V2000
   -4.4870    1.4880   -0.3600 N   0  0  0  0  0  0  0  0  0  0  0  0
   -3.3430    0.7160   -0.8400 C   0  0  0  0  0  0  0  0  0  0  0  0
   -2.7890   -0.0140    0.3380 C   0  0  0  0  0  0  0  0  0  0  0  0
   -1.6200   -0.8110    0.0900 N   0  0  0  0  0  0  0  0  0  0  0  0
   -1.8830   -2.2030   -0.3090 C   0  0  0  0  0  0  0  0  0  0  0  0
   -1.9090   -2.4340   -1.7710 C   0  0  0  0  0  0  0  0  0  0  0  0
   -2.1690   -3.8170   -1.9690 O   0  0  0  0  0  0  0  0  0  0  0  0
   -0.2770   -0.3720    0.2510 C   0  0  0  0  0  0  0  0  0  0  0  0
    0.6150   -1.2600   -0.0860 O   0  0  0  0  0  0  0  0  0  0  0  0
    0.1920    0.9040    0.7360 C   0  0  2  0  0  0  0  0  0  0  0  0
   -0.2500    2.1560    0.0400 C   0  0  0  0  0  0  0  0  0  0  0  0
    0.6300    3.2280    0.7140 C   0  0  0  0  0  0  0  0  0  0  0  0
    1.8020    2.4350    1.1510 C   0  0  0  0  0  0  0  0  0  0  0  0
    2.8350    2.8120    1.8010 O   0  0  0  0  0  0  0  0  0  0  0  0
    1.6170    1.0720    0.7130 N   0  0  0  0  0  0  0  0  0  0  0  0
    2.7250    0.2190    0.3840 C   0  0  0  0  0  0  0  0  0  0  0  0
    3.5550   -0.1160    1.3370 C   0  0  0  0  0  0  0  0  0  0  0  0
    4.7550   -0.9590    1.3020 C   0  0  0  0  0  0  0  0  0  0  0  0
    5.1760   -1.5550   -0.3160 S   0  0  0  0  0  0  0  0  0  0  0  0
    5.2730   -3.0680   -0.3950 O   0  0  0  0  0  0  0  0  0  0  0  0
    3.9200   -0.9710   -1.4170 C   0  0  0  0  0  0  0  0  0  0  0  0
    2.9320   -0.2230   -0.9890 C   0  0  0  0  0  0  0  0  0  0  0  0
  1  2  1  0
  2  3  1  0
  3  4  1  0
  4  5  1  0
  4  8  1  0
  5  6  1  0
  6  7  1  0
  8  9  2  0
 10  8  1  6
 10 11  1  0
 10 15  1  0
 11 12  1  0
 12 13  1  0
 13 14  2  0
 13 15  1  0
 15 16  1  0
 16 17  2  0
 16 22  1  0
 17 18  1  0
 19 18  1  1
 19 20  2  0
 19 21  1  0
 21 22  2  0
M  CHG  1   1   1
M  END
