
     RDKit          3D

 22 23  0  0  0  0  0  0  0  0999 V2000
   -0.3800   -2.5580   -0.4330 C   0  0  0  0  0  0  0  0  0  0  0  0
   -0.8540   -1.6280    0.5620 N   0  0  0  0  0  0  0  0  0  0  0  0
    0.0320   -0.4950    0.7460 C   0  0  2  0  0  0  0  0  0  0  0  0
    1.3850   -0.9030    0.1990 C   0  0  0  0  0  0  0  0  0  0  0  0
    2.3430    0.2040    0.3520 N   0  0  0  0  0  0  0  0  0  0  0  0
    3.6860    0.0800   -0.0800 C   0  0  0  0  0  0  0  0  0  0  0  0
    4.5990   -0.2770    0.8010 C   0  0  0  0  0  0  0  0  0  0  0  0
    6.3130   -0.4560    0.3400 S   0  0  0  0  0  0  0  0  0  0  0  0
    6.7430   -1.8900    0.5560 O   0  0  0  0  0  0  0  0  0  0  0  0
    6.3980   -0.0830   -1.3360 O   0  0  0  0  0  0  0  0  0  0  0  0
    5.2300    0.2620   -1.9800 C   0  0  0  0  0  0  0  0  0  0  0  0
    4.0300    0.3400   -1.4540 C   0  0  0  0  0  0  0  0  0  0  0  0
    0.2330   -0.2330    2.2220 C   0  0  0  0  0  0  0  0  0  0  0  0
   -0.9290    0.5620    2.7960 C   0  0  0  0  0  0  0  0  0  0  0  0
   -0.9370    1.7830    2.1510 O   0  0  0  0  0  0  0  0  0  0  0  0
   -1.3790    1.6040    0.8480 C   0  0  2  0  0  0  0  0  0  0  0  0
   -2.8530    1.3940    0.8440 C   0  0  0  0  0  0  0  0  0  0  0  0
   -3.4510    1.1890   -0.5430 C   0  0  0  0  0  0  0  0  0  0  0  0
   -4.9090    1.0060   -0.3960 C   0  0  0  0  0  0  0  0  0  0  0  0
   -5.6860    0.7970   -1.5520 N   0  0  0  0  0  0  0  0  0  0  0  0
   -5.4620    1.0310    0.7160 O   0  0  0  0  0  0  0  0  0  0  0  0
   -0.5580    0.6860    0.0280 C   0  0  0  0  0  0  0  0  0  0  0  0
  1  2  1  0
  2  3  1  0
  3  4  1  6
  3 13  1  0
  3 22  1  0
  4  5  1  0
  5  6  1  0
  6  7  2  0
  6 12  1  0
  7  8  1  0
  8  9  2  0
  8 10  1  6
 10 11  1  0
 11 12  2  0
 13 14  1  0
 14 15  1  0
 15 16  1  0
 16 17  1  1
 16 22  1  0
 17 18  1  0
 18 19  1  0
 19 20  1  0
 19 21  2  0
M  CHG  1   2   1
M  END
