
     RDKit          3D

 22 22  0  0  0  0  0  0  0  0999 V2000
    5.6980    0.5700    0.8810 C   0  0  0  0  0  0  0  0  0  0  0  0
    4.9720   -0.4680    0.5440 C   0  0  0  0  0  0  0  0  0  0  0  0
    5.5590   -1.8300    0.6660 C   0  0  0  0  0  0  0  0  0  0  0  0
    3.6140   -0.2830    0.0590 C   0  0  0  0  0  0  0  0  0  0  0  0
    2.7460   -1.5970   -0.3500 S   0  0  0  0  0  0  0  0  0  0  0  0
    3.0860    1.0940   -0.0430 C   0  0  0  0  0  0  0  0  0  0  0  0
    1.7610    1.1630   -0.5020 O   0  0  0  0  0  0  0  0  0  0  0  0
    0.7390    0.5670    0.1800 C   0  0  0  0  0  0  0  0  0  0  0  0
    0.9700   -0.0600    1.2430 O   0  0  0  0  0  0  0  0  0  0  0  0
   -0.6910    0.6240   -0.2900 C   0  0  2  0  0  0  0  0  0  0  0  0
   -1.0160    2.0550   -0.5230 C   0  0  0  0  0  0  0  0  0  0  0  0
   -2.4200    2.1960   -0.9210 N   0  0  0  0  0  0  0  0  0  0  0  0
   -3.3350    1.3670   -0.2320 C   0  0  0  0  0  0  0  0  0  0  0  0
   -4.5340    1.3650   -0.5610 O   0  0  0  0  0  0  0  0  0  0  0  0
   -2.8100    0.5260    0.8670 C   0  0  2  0  0  0  0  0  0  0  0  0
   -3.8970   -0.4480    1.2420 C   0  0  0  0  0  0  0  0  0  0  0  0
   -2.6520    1.4710    2.0680 C   0  0  0  0  0  0  0  0  0  0  0  0
   -1.5520   -0.0770    0.6020 N   0  0  1  0  0  0  0  0  0  0  0  0
   -1.6190   -1.4570    0.1710 C   0  0  0  0  0  0  0  0  0  0  0  0
   -2.2590   -1.6510   -1.1270 C   0  0  0  0  0  0  0  0  0  0  0  0
   -2.3460   -3.0140   -1.5930 N   0  0  0  0  0  0  0  0  0  0  0  0
   -2.7340   -0.7880   -1.8730 O   0  0  0  0  0  0  0  0  0  0  0  0
  1  2  2  0
  2  3  1  0
  2  4  1  0
  4  5  2  0
  4  6  1  0
  6  7  1  0
  7  8  1  0
  8  9  2  0
 10  8  1  1
 10 11  1  0
 10 18  1  0
 11 12  1  0
 12 13  1  0
 13 14  2  0
 13 15  1  0
 15 16  1  1
 15 17  1  0
 15 18  1  0
 18 19  1  6
 19 20  1  0
 20 21  1  0
 20 22  2  0
M  CHG  1  18   1
M  END
