
     RDKit          3D

 11 11  0  0  0  0  0  0  0  0999 V2000
    3.2330   -1.8230    1.0480 C   0  0  0  0  0  0  0  0  0  0  0  0
    2.3270   -0.7710    0.5420 C   0  0  0  0  0  0  0  0  0  0  0  0
    1.0280   -0.7350    0.2170 C   0  0  0  0  0  0  0  0  0  0  0  0
    0.4900    0.4240   -0.2280 C   0  0  0  0  0  0  0  0  0  0  0  0
   -0.9730    0.5680   -0.6400 C   0  0  0  0  0  0  0  0  0  0  0  0
   -1.7000   -0.6700   -0.4360 N   0  0  0  0  0  0  0  0  0  0  0  0
   -3.0640   -0.5410   -0.9480 C   0  0  0  0  0  0  0  0  0  0  0  0
   -1.8210   -0.9680    0.9900 C   0  0  0  0  0  0  0  0  0  0  0  0
    1.2960    1.5010   -0.3260 C   0  0  0  0  0  0  0  0  0  0  0  0
    1.0060    2.8950   -0.7750 C   0  0  0  0  0  0  0  0  0  0  0  0
    2.8660    0.8890    0.2210 S   0  0  0  0  0  0  0  0  0  0  0  0
  1  2  1  0
  2  3  2  0
  2 11  1  0
  3  4  1  0
  4  5  1  0
  4  9  2  0
  5  6  1  0
  6  7  1  0
  6  8  1  0
  9 10  1  0
  9 11  1  0
M  END
