
     RDKit          3D

 12 12  0  0  0  0  0  0  0  0999 V2000
   -3.7750   -0.6750   -0.5090 C   0  0  0  0  0  0  0  0  0  0  0  0
   -2.3350   -0.9010   -0.2320 N   0  0  0  0  0  0  0  0  0  0  0  0
   -1.6420    0.3450   -0.1930 C   0  0  0  0  0  0  0  0  0  0  0  0
   -0.1500    0.1670   -0.0360 C   0  0  0  0  0  0  0  0  0  0  0  0
    0.6100    1.3420    0.0760 C   0  0  0  0  0  0  0  0  0  0  0  0
   -0.0860    2.6570    0.0580 C   0  0  0  0  0  0  0  0  0  0  0  0
    2.2750    1.1510    0.2240 S   0  0  0  0  0  0  0  0  0  0  0  0
    2.7910   -0.4690    0.2150 C   0  0  0  0  0  0  0  0  0  0  0  0
    4.2160   -0.9160    0.3320 C   0  0  0  0  0  0  0  0  0  0  0  0
    1.7640   -1.3710    0.0870 C   0  0  0  0  0  0  0  0  0  0  0  0
    0.4250   -1.0710   -0.0280 C   0  0  0  0  0  0  0  0  0  0  0  0
   -0.5540   -2.4070   -0.2150 S   0  0  0  0  0  0  0  0  0  0  0  0
  1  2  1  0
  2  3  1  0
  3  4  1  0
  4  5  2  0
  4 11  1  0
  5  6  1  0
  5  7  1  0
  7  8  1  0
  8  9  1  0
  8 10  2  0
 10 11  1  0
 11 12  2  0
M  END
