
     RDKit          3D

 12 13  0  0  0  0  0  0  0  0999 V2000
    3.5270   -0.9870   -0.8600 C   0  0  0  0  0  0  0  0  0  0  0  0
    4.3080   -0.9800    0.2800 C   0  0  0  0  0  0  0  0  0  0  0  0
    3.1760    0.0020    1.3700 S   0  0  0  0  0  0  0  0  0  0  0  0
    1.9040    0.2540    0.2460 C   0  0  0  0  0  0  0  0  0  0  0  0
    0.7090    1.0070    0.5940 C   0  0  0  0  0  0  0  0  0  0  0  0
   -0.4570    0.6420   -0.2190 N   0  0  0  0  0  0  0  0  0  0  0  0
   -1.5300    1.4990    0.2180 C   0  0  0  0  0  0  0  0  0  0  0  0
   -2.8990    0.9240    0.0190 C   0  0  0  0  0  0  0  0  0  0  0  0
   -3.0360   -0.4470    0.3690 N   0  0  0  0  0  0  0  0  0  0  0  0
   -2.0520   -1.2100   -0.4110 C   0  0  0  0  0  0  0  0  0  0  0  0
   -0.7060   -0.7520    0.0600 C   0  0  0  0  0  0  0  0  0  0  0  0
    2.3460   -0.3760   -0.8610 C   0  0  0  0  0  0  0  0  0  0  0  0
  1  2  2  0
  1 12  1  0
  2  3  1  0
  3  4  1  0
  4  5  1  0
  4 12  2  0
  5  6  1  0
  6  7  1  0
  6 11  1  0
  7  8  1  0
  8  9  1  0
  9 10  1  0
 10 11  1  0
M  END
