
     RDKit          3D

 12 11  0  0  0  0  0  0  0  0999 V2000
    4.2580    0.0650   -1.1060 C   0  0  0  0  0  0  0  0  0  0  0  0
    3.6330   -1.0900   -0.4080 C   0  0  0  0  0  0  0  0  0  0  0  0
    2.8290   -0.6940    0.7920 C   0  0  0  0  0  0  0  0  0  0  0  0
    1.7410    0.1960    0.5330 N   0  0  0  0  0  0  0  0  0  0  0  0
    1.9350    1.5900    0.1630 C   0  0  0  0  0  0  0  0  0  0  0  0
    0.4140   -0.2770    0.6130 C   0  0  0  0  0  0  0  0  0  0  0  0
    0.1240   -1.8230    1.0070 S   0  0  0  0  0  0  0  0  0  0  0  0
   -0.9510    0.8140    0.2910 S   0  0  0  0  0  0  0  0  0  0  0  0
   -2.5170   -0.0820    0.2700 C   0  0  2  0  0  0  0  0  0  0  0  0
   -2.5030   -0.9900   -0.9280 C   0  0  0  0  0  0  0  0  0  0  0  0
   -3.6310    0.9390    0.2420 C   0  0  0  0  0  0  0  0  0  0  0  0
   -4.9850    0.3170    0.2170 C   0  0  0  0  0  0  0  0  0  0  0  0
  1  2  1  0
  2  3  1  0
  3  4  1  0
  4  5  1  0
  4  6  1  0
  6  7  2  0
  6  8  1  0
  8  9  1  0
  9 10  1  6
  9 11  1  0
 11 12  1  0
M  END
