
     RDKit          3D

 12 12  0  0  0  0  0  0  0  0999 V2000
    4.2230    0.4380    0.0200 C   0  0  0  0  0  0  0  0  0  0  0  0
    3.3210   -1.1160    0.2380 S   0  0  0  0  0  0  0  0  0  0  0  0
    1.6940   -1.0250   -0.5350 C   0  0  0  0  0  0  0  0  0  0  0  0
    0.7370   -0.1590    0.1160 C   0  0  0  0  0  0  0  0  0  0  0  0
    1.0350    0.5060    1.2840 C   0  0  0  0  0  0  0  0  0  0  0  0
    0.0940    1.3050    1.8810 N   0  0  0  0  0  0  0  0  0  0  0  0
   -1.1420    1.4550    1.3390 C   0  0  0  0  0  0  0  0  0  0  0  0
   -1.4720    0.8000    0.1660 C   0  0  0  0  0  0  0  0  0  0  0  0
   -3.0750    0.9550   -0.6040 S   0  0  0  0  0  0  0  0  0  0  0  0
   -4.2460   -0.2940    0.0060 C   0  0  0  0  0  0  0  0  0  0  0  0
   -0.5170   -0.0020   -0.4270 C   0  0  0  0  0  0  0  0  0  0  0  0
   -0.8460   -0.6960   -1.6620 C   0  0  0  0  0  0  0  0  0  0  0  0
  1  2  1  0
  2  3  1  0
  3  4  1  0
  4  5  2  0
  4 11  1  0
  5  6  1  0
  6  7  2  0
  7  8  1  0
  8  9  1  0
  8 11  2  0
  9 10  1  0
 11 12  1  0
M  END
