
     RDKit          3D

 17 18  0  0  0  0  0  0  0  0999 V2000
   -0.2100   -2.4160    1.7340 N   0  0  0  0  0  0  0  0  0  0  0  0
   -0.1880   -1.4630    1.1680 C   0  0  0  0  0  0  0  0  0  0  0  0
   -0.1570   -0.1250    0.3410 C   0  0  1  0  0  0  0  0  0  0  0  0
   -1.5650    0.1080   -0.0050 C   0  0  0  0  0  0  0  0  0  0  0  0
   -2.4040    0.9440    0.6520 C   0  0  0  0  0  0  0  0  0  0  0  0
   -3.7310    0.9870    0.2760 C   0  0  0  0  0  0  0  0  0  0  0  0
   -4.2460    0.2380   -0.7130 C   0  0  0  0  0  0  0  0  0  0  0  0
   -3.4140   -0.6300   -1.4320 C   0  0  0  0  0  0  0  0  0  0  0  0
   -2.0730   -0.6660   -1.0400 C   0  0  0  0  0  0  0  0  0  0  0  0
    0.5050    0.8590    1.2130 C   0  0  0  0  0  0  0  0  0  0  0  0
    1.8890    0.2880    1.5790 C   0  0  0  0  0  0  0  0  0  0  0  0
    2.5700    0.0340    0.3500 N   0  0  0  0  0  0  0  0  0  0  0  0
    3.7650   -0.6960    0.2190 C   0  0  0  0  0  0  0  0  0  0  0  0
    4.5060   -1.4740    1.4340 S   0  0  0  0  0  0  0  0  0  0  0  0
    4.4970   -0.8700   -1.3970 S   0  0  0  0  0  0  0  0  0  0  0  0
    1.9160    0.4730   -0.8760 C   0  0  0  0  0  0  0  0  0  0  0  0
    0.6240   -0.4010   -0.9020 C   0  0  0  0  0  0  0  0  0  0  0  0
  1  2  3  0
  3  2  1  1
  3  4  1  0
  3 10  1  0
  3 17  1  0
  4  5  2  0
  4  9  1  0
  5  6  1  0
  6  7  2  0
  7  8  1  0
  8  9  2  0
 10 11  1  0
 11 12  1  0
 12 13  1  0
 12 16  1  0
 13 14  2  0
 13 15  1  0
 16 17  1  0
M  END
