
     RDKit          3D

 17 18  0  0  0  0  0  0  0  0999 V2000
    6.9230   -0.1060    0.4070 C   0  0  0  0  0  0  0  0  0  0  0  0
    5.4600   -0.2690    0.2540 C   0  0  0  0  0  0  0  0  0  0  0  0
    4.5890    0.1200   -0.6840 C   0  0  0  0  0  0  0  0  0  0  0  0
    3.2880   -0.1810   -0.5510 C   0  0  0  0  0  0  0  0  0  0  0  0
    2.9020   -0.8830    0.5560 C   0  0  0  0  0  0  0  0  0  0  0  0
    1.5520   -1.3370    0.9290 C   0  0  0  0  0  0  0  0  0  0  0  0
    0.5040   -0.5880    0.7620 C   0  0  0  0  0  0  0  0  0  0  0  0
   -0.8680   -1.0230    1.1280 C   0  0  0  0  0  0  0  0  0  0  0  0
   -1.8800   -0.6230    0.1810 N   0  0  0  0  0  0  0  0  0  0  0  0
   -2.7430    0.4180    0.6950 C   0  0  0  0  0  0  0  0  0  0  0  0
   -3.7330    0.6760   -0.3540 N   0  0  0  0  0  0  0  0  0  0  0  0
   -4.6390    1.7480    0.0350 C   0  0  0  0  0  0  0  0  0  0  0  0
   -4.5010   -0.5670   -0.4860 C   0  0  0  0  0  0  0  0  0  0  0  0
   -1.3430   -0.3010   -1.1170 C   0  0  0  0  0  0  0  0  0  0  0  0
   -0.7230    1.0820   -1.1950 C   0  0  0  0  0  0  0  0  0  0  0  0
    0.6180    1.0560    0.0690 S   0  0  0  0  0  0  0  0  0  0  0  0
    4.3840   -1.1210    1.4170 S   0  0  0  0  0  0  0  0  0  0  0  0
  1  2  1  0
  2  3  2  0
  2 17  1  0
  3  4  1  0
  4  5  2  0
  5  6  1  0
  5 17  1  0
  6  7  2  3
  7  8  1  0
  7 16  1  0
  8  9  1  0
  9 10  1  0
  9 14  1  0
 10 11  1  0
 11 12  1  0
 11 13  1  0
 14 15  1  0
 15 16  1  0
M  END
