
     RDKit          3D

 17 18  0  0  0  0  0  0  0  0999 V2000
   -4.6180   -0.5070    1.9640 C   0  0  0  0  0  0  0  0  0  0  0  0
   -3.3300   -0.3360    1.1770 C   0  0  0  0  0  0  0  0  0  0  0  0
   -3.3590    0.3950   -0.0580 C   0  0  0  0  0  0  0  0  0  0  0  0
   -2.4420    0.6540   -0.8440 N   0  0  0  0  0  0  0  0  0  0  0  0
   -1.0470    0.3400   -0.8380 C   0  0  0  0  0  0  0  0  0  0  0  0
   -0.3290   -1.1340   -1.4920 S   0  0  0  0  0  0  0  0  0  0  0  0
    1.4020   -0.6670   -1.0850 C   0  0  0  0  0  0  0  0  0  0  0  0
    1.2460    0.5540   -0.4990 C   0  0  0  0  0  0  0  0  0  0  0  0
   -0.0050    1.0420   -0.3860 C   0  0  0  0  0  0  0  0  0  0  0  0
   -0.2410    2.3690    0.2420 C   0  0  0  0  0  0  0  0  0  0  0  0
   -0.4430    3.4040    0.7240 N   0  0  0  0  0  0  0  0  0  0  0  0
    2.6110    1.1370   -0.0780 C   0  0  0  0  0  0  0  0  0  0  0  0
    3.4340    1.0040   -1.3420 C   0  0  0  0  0  0  0  0  0  0  0  0
    3.8390   -0.4490   -1.4490 C   0  0  0  0  0  0  0  0  0  0  0  0
    2.6660   -1.3630   -1.3040 C   0  0  0  0  0  0  0  0  0  0  0  0
   -2.2820   -0.8990    1.7370 C   0  0  0  0  0  0  0  0  0  0  0  0
   -2.4470   -1.7800    3.3060 S   0  0  0  0  0  0  0  0  0  0  0  0
  1  2  1  0
  2  3  1  0
  2 16  2  3
  3  4  2  3
  4  5  1  0
  5  6  1  0
  5  9  2  0
  6  7  1  0
  7  8  2  0
  7 15  1  0
  8  9  1  0
  8 12  1  0
  9 10  1  0
 10 11  3  0
 12 13  1  0
 13 14  1  0
 14 15  1  0
 16 17  1  0
M  END
