
     RDKit          3D

 17 17  0  0  0  0  0  0  0  0999 V2000
    5.0530    0.5660    1.3590 C   0  0  0  0  0  0  0  0  0  0  0  0
    5.2330    0.0350   -0.0040 C   0  0  0  0  0  0  0  0  0  0  0  0
    4.0610   -0.5130   -0.7190 C   0  0  0  0  0  0  0  0  0  0  0  0
    2.9620    0.3480   -0.9870 N   0  0  0  0  0  0  0  0  0  0  0  0
    2.0160   -0.4520   -1.7910 C   0  0  0  0  0  0  0  0  0  0  0  0
    1.0670   -1.2390   -0.9170 C   0  0  0  0  0  0  0  0  0  0  0  0
    0.2140   -0.2440   -0.2870 N   0  0  0  0  0  0  0  0  0  0  0  0
   -1.0730   -0.4890    0.2140 C   0  0  0  0  0  0  0  0  0  0  0  0
   -1.6280   -2.0180    0.1590 S   0  0  0  0  0  0  0  0  0  0  0  0
   -2.0100    0.7960    0.9570 S   0  0  0  0  0  0  0  0  0  0  0  0
   -3.7140    0.4310    1.0970 C   0  0  0  0  0  0  0  0  0  0  0  0
   -4.3850    0.8630    2.3980 C   0  0  0  0  0  0  0  0  0  0  0  0
   -4.4360   -0.0670    0.1290 C   0  0  0  0  0  0  0  0  0  0  0  0
   -3.8850   -0.3660   -1.1940 C   0  0  0  0  0  0  0  0  0  0  0  0
   -5.9000   -0.3510    0.3660 C   0  0  0  0  0  0  0  0  0  0  0  0
    0.7780    1.0840   -0.1940 C   0  0  0  0  0  0  0  0  0  0  0  0
    2.2650    0.8610    0.1670 C   0  0  0  0  0  0  0  0  0  0  0  0
  1  2  1  0
  2  3  1  0
  3  4  1  0
  4  5  1  0
  4 17  1  0
  5  6  1  0
  6  7  1  0
  7  8  1  0
  7 16  1  0
  8  9  2  0
  8 10  1  0
 10 11  1  0
 11 12  1  0
 11 13  2  3
 13 14  1  0
 13 15  1  0
 16 17  1  0
M  END
