
     RDKit          3D

 31 35  0  0  0  0  0  0  0  0999 V2000
   -3.9330   -3.9490   -0.2290 O   0  0  0  0  0  0  0  0  0  0  0  0
   -3.6840   -3.3280   -1.4730 C   0  0  0  0  0  0  0  0  0  0  0  0
   -3.8720   -1.8650   -1.2680 C   0  0  0  0  0  0  0  0  0  0  0  0
   -4.7650   -1.1290   -1.9210 C   0  0  0  0  0  0  0  0  0  0  0  0
   -4.9310    0.3310   -1.6940 C   0  0  0  0  0  0  0  0  0  0  0  0
   -5.7080    0.5340   -0.4560 C   0  0  0  0  0  0  0  0  0  0  0  0
   -5.5900    1.4640    0.4570 C   0  0  0  0  0  0  0  0  0  0  0  0
   -4.7040    2.5810    0.5980 C   0  0  0  0  0  0  0  0  0  0  0  0
   -3.4850    2.7180    1.0630 C   0  0  0  0  0  0  0  0  0  0  0  0
   -2.5460    1.8070    1.6140 N   0  0  0  0  0  0  0  0  0  0  0  0
   -2.2810    1.6530    2.9680 C   0  0  0  0  0  0  0  0  0  0  0  0
   -1.2950    0.7160    3.1390 C   0  0  0  0  0  0  0  0  0  0  0  0
   -0.9110    0.2570    1.9040 C   0  0  0  0  0  0  0  0  0  0  0  0
   -1.7230    0.9740    1.0130 C   0  0  0  0  0  0  0  0  0  0  0  0
   -1.4480    0.7050   -0.3920 C   0  0  1  0  0  0  0  0  0  0  0  0
    0.0810    0.7380   -0.6030 C   0  0  0  0  0  0  0  0  0  0  0  0
    0.7590   -0.1650    0.2360 N   0  0  0  0  0  0  0  0  0  0  0  0
    1.7820   -0.9650   -0.3220 C   0  0  0  0  0  0  0  0  0  0  0  0
    2.9030   -0.2330   -0.9100 C   0  0  0  0  0  0  0  0  0  0  0  0
    2.9830    0.1700   -2.1820 N   0  0  0  0  0  0  0  0  0  0  0  0
    4.1030    0.7880   -2.3700 N   0  0  0  0  0  0  0  0  0  0  0  0
    4.7870    0.8060   -1.2210 C   0  0  0  0  0  0  0  0  0  0  0  0
    4.0350    0.1670   -0.3090 N   0  0  0  0  0  0  0  0  0  0  0  0
    4.3700   -0.0640    1.0950 C   0  0  0  0  0  0  0  0  0  0  0  0
    5.8660    0.0390    1.2920 C   0  0  0  0  0  0  0  0  0  0  0  0
    6.6020   -0.6540    0.1650 C   0  0  0  0  0  0  0  0  0  0  0  0
    7.1950    0.4300   -0.7200 C   0  0  0  0  0  0  0  0  0  0  0  0
    6.1280    1.4350   -1.0550 C   0  0  0  0  0  0  0  0  0  0  0  0
    0.0810   -0.7100    1.3580 C   0  0  0  0  0  0  0  0  0  0  0  0
   -1.8530   -0.5750   -0.9030 N   0  0  0  0  0  0  0  0  0  0  0  0
   -2.9650   -1.1960   -0.2530 C   0  0  0  0  0  0  0  0  0  0  0  0
  1  2  1  0
  2  3  1  0
  3  4  2  0
  3 31  1  0
  4  5  1  0
  5  6  1  0
  6  7  2  0
  7  8  1  0
  8  9  2  0
  9 10  1  0
 10 11  1  0
 10 14  1  0
 11 12  2  0
 12 13  1  0
 13 14  2  0
 13 29  1  0
 14 15  1  0
 15 16  1  1
 15 30  1  0
 16 17  1  0
 17 18  1  0
 17 29  1  0
 18 19  1  0
 19 20  2  0
 19 23  1  0
 20 21  1  0
 21 22  2  0
 22 23  1  0
 22 28  1  0
 23 24  1  0
 24 25  1  0
 25 26  1  0
 26 27  1  0
 27 28  1  0
 30 31  1  0
M  CHG  1  30   1
M  END
