
     RDKit          3D

 31 35  0  0  0  0  0  0  0  0999 V2000
    3.6220    1.3650    3.0300 C   0  0  0  0  0  0  0  0  0  0  0  0
    4.1950    2.0680    1.8080 C   0  0  0  0  0  0  0  0  0  0  0  0
    4.6730    1.1530    0.8210 N   0  0  0  0  0  0  0  0  0  0  0  0
    3.8510    0.7090   -0.1460 C   0  0  0  0  0  0  0  0  0  0  0  0
    4.3080   -0.1740   -1.1020 C   0  0  0  0  0  0  0  0  0  0  0  0
    5.5690   -0.6290   -1.1210 N   0  0  0  0  0  0  0  0  0  0  0  0
    6.2290   -1.4550   -1.9110 N   0  0  0  0  0  0  0  0  0  0  0  0
    7.4910   -1.5950   -1.5130 C   0  0  0  0  0  0  0  0  0  0  0  0
    7.6270   -0.7990   -0.3960 C   0  0  0  0  0  0  0  0  0  0  0  0
    6.3950   -0.1980   -0.1680 C   0  0  0  0  0  0  0  0  0  0  0  0
    5.9530    0.6870    0.7970 C   0  0  0  0  0  0  0  0  0  0  0  0
    6.7660    1.0670    1.6760 O   0  0  0  0  0  0  0  0  0  0  0  0
    3.3520   -0.6190   -2.1440 C   0  0  0  0  0  0  0  0  0  0  0  0
    2.0980   -1.1090   -1.4200 C   0  0  0  0  0  0  0  0  0  0  0  0
    1.6090   -0.1560   -0.3720 C   0  0  2  0  0  0  0  0  0  0  0  0
    0.1710    0.1260   -0.4990 N   0  0  0  0  0  0  0  0  0  0  0  0
   -0.5250   -1.0950   -0.2750 C   0  0  0  0  0  0  0  0  0  0  0  0
   -2.0320   -1.0050   -0.4060 C   0  0  2  0  0  0  0  0  0  0  0  0
   -2.5390   -2.4150   -0.1240 C   0  0  0  0  0  0  0  0  0  0  0  0
   -2.3180   -0.7060   -1.8570 C   0  0  0  0  0  0  0  0  0  0  0  0
   -2.5400   -0.0530    0.5220 N   0  0  0  0  0  0  0  0  0  0  0  0
   -3.1840    1.0960   -0.0190 C   0  0  0  0  0  0  0  0  0  0  0  0
   -4.5830    1.2910    0.4330 C   0  0  0  0  0  0  0  0  0  0  0  0
   -5.1070    2.3240    1.0930 C   0  0  0  0  0  0  0  0  0  0  0  0
   -6.5390    2.1050    1.3420 C   0  0  0  0  0  0  0  0  0  0  0  0
   -6.7760    0.7800    0.7200 C   0  0  0  0  0  0  0  0  0  0  0  0
   -7.7720   -0.1440    0.4950 C   0  0  0  0  0  0  0  0  0  0  0  0
   -7.2090   -1.1980   -0.1860 C   0  0  0  0  0  0  0  0  0  0  0  0
   -5.8820   -0.8700   -0.3490 C   0  0  0  0  0  0  0  0  0  0  0  0
   -5.6230    0.3370    0.2050 N   0  0  0  0  0  0  0  0  0  0  0  0
    2.4250    1.1150   -0.2620 C   0  0  0  0  0  0  0  0  0  0  0  0
  1  2  1  0
  2  3  1  0
  3  4  1  0
  3 11  1  0
  4  5  2  0
  4 31  1  0
  5  6  1  0
  5 13  1  0
  6  7  1  0
  6 10  1  0
  7  8  2  0
  8  9  1  0
  9 10  2  0
 10 11  1  0
 11 12  2  0
 13 14  1  0
 14 15  1  0
 15 16  1  6
 15 31  1  0
 16 17  1  0
 17 18  1  0
 18 19  1  1
 18 20  1  0
 18 21  1  0
 21 22  1  0
 22 23  1  0
 23 24  2  0
 23 30  1  0
 24 25  1  0
 25 26  1  0
 26 27  2  0
 26 30  1  0
 27 28  1  0
 28 29  2  0
 29 30  1  0
M  CHG  1  21   1
M  END
