
     RDKit          3D

 31 34  0  0  0  0  0  0  0  0999 V2000
   -1.9780    0.0560    3.3580 C   0  0  0  0  0  0  0  0  0  0  0  0
   -2.7740   -0.2990    2.3470 C   0  0  0  0  0  0  0  0  0  0  0  0
   -2.3200   -0.1250    0.9970 C   0  0  0  0  0  0  0  0  0  0  0  0
   -3.0790   -0.4590   -0.0440 C   0  0  0  0  0  0  0  0  0  0  0  0
   -4.4000   -1.0170    0.2720 C   0  0  0  0  0  0  0  0  0  0  0  0
   -4.8560   -1.1950    1.4760 C   0  0  0  0  0  0  0  0  0  0  0  0
   -4.0830   -0.8520    2.6700 C   0  0  1  0  0  0  0  0  0  0  0  0
   -3.9540   -2.2460    3.7880 Cl  0  0  0  0  0  0  0  0  0  0  0  0
   -5.3600   -1.4540   -1.1930 S   0  0  0  0  0  0  0  0  0  0  0  0
   -4.1960   -1.9160   -2.4660 C   0  0  1  0  0  0  0  0  0  0  0  0
   -4.7450   -1.3710   -3.7950 C   0  0  0  0  0  0  0  0  0  0  0  0
   -2.8150   -1.3770   -2.3320 C   0  0  0  0  0  0  0  0  0  0  0  0
   -2.6490   -0.3020   -1.3780 N   0  0  0  0  0  0  0  0  0  0  0  0
   -2.0260    0.8720   -1.7730 C   0  0  0  0  0  0  0  0  0  0  0  0
   -1.5170    0.8630   -2.9590 O   0  0  0  0  0  0  0  0  0  0  0  0
   -1.9040    2.0990   -1.0070 C   0  0  0  0  0  0  0  0  0  0  0  0
   -0.6040    2.8090   -0.9990 C   0  0  0  0  0  0  0  0  0  0  0  0
    0.5220    2.1320   -0.4210 N   0  0  0  0  0  0  0  0  0  0  0  0
    0.7160    2.2470    1.0320 C   0  0  0  0  0  0  0  0  0  0  0  0
    1.6070    3.4110    1.3850 C   0  0  0  0  0  0  0  0  0  0  0  0
    1.4210    1.3800   -1.1970 C   0  0  0  0  0  0  0  0  0  0  0  0
    1.3030    1.2600   -2.4490 O   0  0  0  0  0  0  0  0  0  0  0  0
    2.5790    0.6710   -0.6040 C   0  0  0  0  0  0  0  0  0  0  0  0
    3.5030   -0.0930   -1.3160 C   0  0  0  0  0  0  0  0  0  0  0  0
    4.4100   -0.5780   -0.4290 C   0  0  0  0  0  0  0  0  0  0  0  0
    4.0660   -0.1320    0.8050 N   0  0  0  0  0  0  0  0  0  0  0  0
    2.9830    0.6010    0.6660 N   0  0  0  0  0  0  0  0  0  0  0  0
    4.9440   -0.5680    1.8740 C   0  0  0  0  0  0  0  0  0  0  0  0
    4.9500   -2.0810    1.8080 C   0  0  0  0  0  0  0  0  0  0  0  0
    5.6330   -2.5260    0.5570 C   0  0  0  0  0  0  0  0  0  0  0  0
    5.6250   -1.4320   -0.4700 C   0  0  0  0  0  0  0  0  0  0  0  0
  1  2  2  0
  2  3  1  0
  2  7  1  0
  3  4  2  0
  4  5  1  0
  4 13  1  0
  5  6  2  0
  5  9  1  0
  6  7  1  0
  7  8  1  1
  9 10  1  0
 10 11  1  6
 10 12  1  0
 12 13  1  0
 13 14  1  0
 14 15  2  0
 14 16  1  0
 16 17  1  0
 17 18  1  0
 18 19  1  0
 18 21  1  0
 19 20  1  0
 21 22  2  0
 21 23  1  0
 23 24  1  0
 23 27  2  0
 24 25  2  0
 25 26  1  0
 25 31  1  0
 26 27  1  0
 26 28  1  0
 28 29  1  0
 29 30  1  0
 30 31  1  0
M  END
