
     RDKit          3D

 31 34  0  0  0  0  0  0  0  0999 V2000
    7.1490    1.1900    2.8190 C   0  0  0  0  0  0  0  0  0  0  0  0
    6.6810    1.6990    1.5130 C   0  0  0  0  0  0  0  0  0  0  0  0
    5.7230    1.0890    0.8560 C   0  0  0  0  0  0  0  0  0  0  0  0
    5.2200    1.5410   -0.4320 C   0  0  0  0  0  0  0  0  0  0  0  0
    4.2640    0.9330   -1.0900 C   0  0  0  0  0  0  0  0  0  0  0  0
    3.6000   -0.2570   -0.6110 N   0  0  0  0  0  0  0  0  0  0  0  0
    4.4790   -1.4400   -0.5640 C   0  0  0  0  0  0  0  0  0  0  0  0
    2.3590   -0.3230   -0.2500 N   0  0  0  0  0  0  0  0  0  0  0  0
    1.2390   -0.3740    0.1470 C   0  0  0  0  0  0  0  0  0  0  0  0
    0.0710   -0.5870   -0.7310 C   0  0  0  0  0  0  0  0  0  0  0  0
   -1.1410   -0.6360   -0.2510 C   0  0  0  0  0  0  0  0  0  0  0  0
   -2.3630   -0.8390   -1.0150 C   0  0  0  0  0  0  0  0  0  0  0  0
   -3.6950   -0.8800   -0.3370 C   0  0  1  0  0  0  0  0  0  0  0  0
   -3.8680   -2.0720    0.5280 C   0  0  0  0  0  0  0  0  0  0  0  0
   -3.4030   -1.9550    1.9480 C   0  0  0  0  0  0  0  0  0  0  0  0
   -3.5950   -0.6160    2.4730 N   0  0  0  0  0  0  0  0  0  0  0  0
   -3.5990   -0.1860    3.7370 C   0  0  0  0  0  0  0  0  0  0  0  0
   -3.8300    1.1970    3.7620 C   0  0  0  0  0  0  0  0  0  0  0  0
   -3.9650    1.5880    2.4490 C   0  0  0  0  0  0  0  0  0  0  0  0
   -4.2010    2.7680    1.7550 C   0  0  0  0  0  0  0  0  0  0  0  0
   -4.2780    2.7870    0.3810 C   0  0  0  0  0  0  0  0  0  0  0  0
   -4.5730    4.2560   -0.5190 Cl  0  0  0  0  0  0  0  0  0  0  0  0
   -4.1200    1.6100   -0.3610 C   0  0  0  0  0  0  0  0  0  0  0  0
   -3.8820    0.4260    0.3560 C   0  0  0  0  0  0  0  0  0  0  0  0
   -3.8120    0.4400    1.7190 C   0  0  0  0  0  0  0  0  0  0  0  0
   -2.3390   -0.9970   -2.3220 C   0  0  0  0  0  0  0  0  0  0  0  0
   -1.1950   -0.9940   -3.1470 N   0  0  0  0  0  0  0  0  0  0  0  0
   -1.2910   -1.1730   -4.5710 C   0  0  0  0  0  0  0  0  0  0  0  0
    0.3450   -0.7720   -2.4300 S   0  0  1  0  0  0  0  0  0  0  0  0
    1.0810    0.3950   -3.0230 O   0  0  0  0  0  0  0  0  0  0  0  0
    1.2110   -2.0030   -2.6360 O   0  0  0  0  0  0  0  0  0  0  0  0
  1  2  1  0
  2  3  2  3
  3  4  1  0
  4  5  2  3
  5  6  1  0
  6  7  1  0
  6  8  1  0
  8  9  2  3
  9 10  1  0
 10 11  2  0
 10 29  1  0
 11 12  1  0
 13 12  1  1
 12 26  2  0
 13 14  1  0
 13 24  1  0
 14 15  1  0
 15 16  1  0
 16 17  1  0
 16 25  1  0
 17 18  2  0
 18 19  1  0
 19 20  2  0
 19 25  1  0
 20 21  1  0
 21 22  1  0
 21 23  2  0
 23 24  1  0
 24 25  2  0
 26 27  1  0
 27 28  1  0
 29 27  1  6
 29 30  2  0
 29 31  2  0
M  END
