
     RDKit          3D

 30 33  0  0  0  0  0  0  0  0999 V2000
    6.2760   -0.9230   -1.3200 C   0  0  0  0  0  0  0  0  0  0  0  0
    6.0680    0.4350   -1.9480 C   0  0  0  0  0  0  0  0  0  0  0  0
    4.9620    1.1610   -1.3510 N   0  0  0  0  0  0  0  0  0  0  0  0
    3.6330    0.6410   -1.3750 C   0  0  0  0  0  0  0  0  0  0  0  0
    3.4960   -0.4710   -1.9410 O   0  0  0  0  0  0  0  0  0  0  0  0
    2.5310    1.4110   -0.7550 C   0  0  0  0  0  0  0  0  0  0  0  0
    1.2410    0.6510   -0.7960 C   0  0  2  0  0  0  0  0  0  0  0  0
    0.2070    1.4850   -0.1960 N   0  0  0  0  0  0  0  0  0  0  0  0
   -1.0000    1.2010    0.1960 C   0  0  0  0  0  0  0  0  0  0  0  0
   -1.8560    2.1930    0.7760 C   0  0  0  0  0  0  0  0  0  0  0  0
   -1.3430    3.4980    0.7250 C   0  0  0  0  0  0  0  0  0  0  0  0
   -1.9440    4.5750    1.3130 C   0  0  0  0  0  0  0  0  0  0  0  0
   -3.1180    4.3570    1.9930 C   0  0  0  0  0  0  0  0  0  0  0  0
   -3.9170    5.7300    2.7610 Cl  0  0  0  0  0  0  0  0  0  0  0  0
   -3.6410    3.0890    2.0610 C   0  0  0  0  0  0  0  0  0  0  0  0
   -3.0110    2.0250    1.4580 C   0  0  0  0  0  0  0  0  0  0  0  0
   -1.5820   -0.1090   -0.0410 C   0  0  0  0  0  0  0  0  0  0  0  0
   -2.9090   -0.0940   -0.4020 C   0  0  0  0  0  0  0  0  0  0  0  0
   -3.5620   -1.2700   -0.6640 C   0  0  0  0  0  0  0  0  0  0  0  0
   -4.9080   -1.1850   -1.0190 O   0  0  0  0  0  0  0  0  0  0  0  0
   -5.7140   -2.2870   -1.3160 C   0  0  0  0  0  0  0  0  0  0  0  0
   -2.8960   -2.5000   -0.5750 C   0  0  0  0  0  0  0  0  0  0  0  0
   -1.5420   -2.5560   -0.2160 C   0  0  0  0  0  0  0  0  0  0  0  0
   -0.9490   -1.3520    0.0350 C   0  0  0  0  0  0  0  0  0  0  0  0
    0.4350   -1.5040    0.3420 N   0  0  0  0  0  0  0  0  0  0  0  0
    0.9260   -2.5170    1.0260 C   0  0  0  0  0  0  0  0  0  0  0  0
    0.1880   -3.6120    1.6670 C   0  0  0  0  0  0  0  0  0  0  0  0
    2.2750   -2.2660    1.0550 N   0  0  0  0  0  0  0  0  0  0  0  0
    2.5310   -1.1170    0.3930 N   0  0  0  0  0  0  0  0  0  0  0  0
    1.4000   -0.6190   -0.0620 C   0  0  0  0  0  0  0  0  0  0  0  0
  1  2  1  0
  2  3  1  0
  3  4  1  0
  4  5  2  0
  4  6  1  0
  7  6  1  1
  7  8  1  0
  7 30  1  0
  8  9  2  0
  9 10  1  0
  9 17  1  0
 10 11  2  0
 10 16  1  0
 11 12  1  0
 12 13  2  0
 13 14  1  0
 13 15  1  0
 15 16  2  0
 17 18  2  0
 17 24  1  0
 18 19  1  0
 19 20  1  0
 19 22  2  0
 20 21  1  0
 22 23  1  0
 23 24  2  0
 24 25  1  0
 25 26  1  0
 25 30  1  0
 26 27  1  0
 26 28  2  0
 28 29  1  0
 29 30  2  0
M  END
