
     RDKit          3D

 22 22  0  0  0  0  0  0  0  0999 V2000
    1.0740    3.2840   -1.3730 O   0  0  0  0  0  0  0  0  0  0  0  0
    0.6390    2.5200   -0.4340 C   0  0  0  0  0  0  0  0  0  0  0  0
    0.9300    1.1320   -0.6150 N   0  0  0  0  0  0  0  0  0  0  0  0
    1.3370    0.2390    0.4310 C   0  0  2  0  0  0  0  0  0  0  0  0
    2.7720    0.4730    0.8570 C   0  0  2  0  0  0  0  0  0  0  0  0
    2.8980    1.7780    1.3270 F   0  0  0  0  0  0  0  0  0  0  0  0
    3.7330    0.2230   -0.2860 C   0  0  0  0  0  0  0  0  0  0  0  0
    3.4000    1.1150   -1.3320 O   0  0  0  0  0  0  0  0  0  0  0  0
    1.2250   -1.1880   -0.0500 C   0  0  0  0  0  0  0  0  0  0  0  0
    0.1970   -1.8770    0.5880 O   0  0  0  0  0  0  0  0  0  0  0  0
   -0.3570   -2.7270   -0.3070 N   0  0  0  0  0  0  0  0  0  0  0  0
    0.5290   -3.3110   -1.1800 O   0  0  0  0  0  0  0  0  0  0  0  0
    0.9110   -4.4870   -0.7320 O   0  0  0  0  0  0  0  0  0  0  0  0
   -1.7340   -3.0300   -0.3840 C   0  0  0  0  0  0  0  0  0  0  0  0
   -2.0170   -4.2310   -0.7180 O   0  0  0  0  0  0  0  0  0  0  0  0
   -2.7690   -2.1460   -0.1310 O   0  0  0  0  0  0  0  0  0  0  0  0
   -2.5700   -0.7740   -0.4280 C   0  0  0  0  0  0  0  0  0  0  0  0
   -3.6270    0.1260    0.1010 C   0  0  0  0  0  0  0  0  0  0  0  0
   -3.0900    1.2080    0.7450 O   0  0  0  0  0  0  0  0  0  0  0  0
   -2.1850    1.9460    0.0390 C   0  0  0  0  0  0  0  0  0  0  0  0
   -1.3600    2.7440    1.0440 C   0  0  0  0  0  0  0  0  0  0  0  0
   -0.0450    2.9470    0.6610 O   0  0  0  0  0  0  0  0  0  0  0  0
  1  2  2  0
  2  3  1  0
  2 22  1  0
  3  4  1  0
  4  5  1  0
  4  9  1  6
  5  6  1  6
  5  7  1  0
  7  8  1  0
  9 10  1  0
 10 11  1  0
 11 12  1  0
 11 14  1  0
 12 13  1  0
 14 15  2  0
 14 16  1  0
 16 17  1  0
 17 18  1  0
 18 19  1  0
 19 20  1  0
 20 21  1  0
 21 22  1  0
M  END
