
     RDKit          3D

 28 27  0  0  0  0  0  0  0  0999 V2000
   -2.3360   -1.3940    1.2270 O   0  0  0  0  0  0  0  0  0  0  0  0
   -1.7460   -2.1290    0.3650 C   0  0  0  0  0  0  0  0  0  0  0  0
   -1.6820   -3.4670    0.5940 O   0  0  0  0  0  0  0  0  0  0  0  0
   -1.1950   -1.3960   -0.7290 O   0  0  0  0  0  0  0  0  0  0  0  0
   -1.2530    0.3130   -0.8740 P   0  0  0  0  0  0  0  0  0  0  0  0
   -2.2790    1.4300   -0.4530 O   0  0  0  0  0  0  0  0  0  0  0  0
   -3.4620    1.5690   -0.8960 O   0  0  0  0  0  0  0  0  0  0  0  0
   -3.7830    0.5850   -1.9050 C   0  0  0  0  0  0  0  0  0  0  0  0
   -4.8880   -0.0520   -1.0410 C   0  0  0  0  0  0  0  0  0  0  0  0
   -5.0680   -1.3160   -1.1730 O   0  0  0  0  0  0  0  0  0  0  0  0
   -5.6540    0.6630   -0.1430 O   0  0  0  0  0  0  0  0  0  0  0  0
   -6.5270    0.0300    0.7080 C   0  0  0  0  0  0  0  0  0  0  0  0
   -6.6200   -1.2360    0.7840 O   0  0  0  0  0  0  0  0  0  0  0  0
   -7.3380    0.8640    1.5380 O   0  0  0  0  0  0  0  0  0  0  0  0
   -8.1500    0.2820    2.3640 O   0  0  0  0  0  0  0  0  0  0  0  0
   -0.1920    0.7550   -2.8050 P   0  0  0  0  0  0  0  0  0  0  0  0
    0.2110    2.4490   -2.8520 O   0  0  0  0  0  0  0  0  0  0  0  0
    1.2820   -0.1510   -2.8140 O   0  0  0  0  0  0  0  0  0  0  0  0
    2.0250    0.2130   -1.2510 P   0  0  0  0  0  0  0  0  0  0  0  0
    2.5130    1.9220   -1.3580 O   0  0  0  0  0  0  0  0  0  0  0  0
    3.5380   -0.7570   -1.1560 O   0  0  0  0  0  0  0  0  0  0  0  0
    4.3050    0.2670   -0.3230 C   0  0  0  0  0  0  0  0  0  0  0  0
    3.6730    0.2430    0.8470 O   0  0  0  0  0  0  0  0  0  0  0  0
    3.8070   -0.8270    1.7380 C   0  0  0  0  0  0  0  0  0  0  0  0
    5.0210   -0.8550    2.3370 O   0  0  0  0  0  0  0  0  0  0  0  0
    6.4980   -0.8620    1.7010 P   0  0  0  0  0  0  0  0  0  0  0  0
    6.9450    0.6770    0.9260 O   0  0  0  0  0  0  0  0  0  0  0  0
    7.7450   -1.0390    2.9920 O   0  0  0  0  0  0  0  0  0  0  0  0
  1  2  2  0
  2  3  1  0
  2  4  1  0
  4  5  1  0
  5  6  1  0
  5 16  1  0
  6  7  1  0
  7  8  1  0
  8  9  1  0
  9 10  2  0
  9 11  1  0
 11 12  1  0
 12 13  2  0
 12 14  1  0
 14 15  1  0
 16 17  1  0
 16 18  1  0
 18 19  1  0
 19 20  1  0
 19 21  1  0
 21 22  1  0
 22 23  1  0
 23 24  1  0
 24 25  1  0
 25 26  1  0
 26 27  1  0
 26 28  1  0
M  END
