
     RDKit          3D

 22 23  0  0  0  0  0  0  0  0999 V2000
    1.4250   -1.4230   -0.3930 O   0  0  0  0  0  0  0  0  0  0  0  0
    1.3850   -0.1900   -0.0780 C   0  0  0  0  0  0  0  0  0  0  0  0
    2.6390    0.4230    0.1810 N   0  0  0  0  0  0  0  0  0  0  0  0
    3.8870   -0.3420    0.0820 C   0  0  0  0  0  0  0  0  0  0  0  0
    5.0790    0.4990    0.3950 C   0  0  0  0  0  0  0  0  0  0  0  0
    6.2570   -0.3390    0.2720 N   0  0  0  0  0  0  0  0  0  0  0  0
    7.3920    0.3400    0.5380 O   0  0  0  0  0  0  0  0  0  0  0  0
    7.3570    0.8740    1.7390 O   0  0  0  0  0  0  0  0  0  0  0  0
    0.1820    0.4970    0.0050 O   0  0  0  0  0  0  0  0  0  0  0  0
   -0.9940   -0.2380   -0.2790 C   0  0  0  0  0  0  0  0  0  0  0  0
   -2.2360    0.6100   -0.1580 C   0  0  1  0  0  0  0  0  0  0  0  0
   -2.4170    1.1360    1.0750 F   0  0  0  0  0  0  0  0  0  0  0  0
   -2.1410    1.6540   -1.2340 C   0  0  0  0  0  0  0  0  0  0  0  0
   -1.9110    2.8760   -1.0770 O   0  0  0  0  0  0  0  0  0  0  0  0
   -2.3650    0.9510   -2.4160 O   0  0  0  0  0  0  0  0  0  0  0  0
   -3.1290   -0.2140   -2.1560 C   0  0  0  0  0  0  0  0  0  0  0  0
   -3.4160   -0.1940   -0.6650 C   0  0  1  0  0  0  0  0  0  0  0  0
   -3.4490   -1.4680   -0.1200 O   0  0  0  0  0  0  0  0  0  0  0  0
   -4.6620   -1.6340    0.5450 C   0  0  0  0  0  0  0  0  0  0  0  0
   -4.9710   -0.4580    1.4380 C   0  0  0  0  0  0  0  0  0  0  0  0
   -4.7720    0.7440    0.7850 O   0  0  0  0  0  0  0  0  0  0  0  0
   -4.6150    0.4850   -0.4950 O   0  0  0  0  0  0  0  0  0  0  0  0
  1  2  2  0
  2  3  1  0
  2  9  1  0
  3  4  1  0
  4  5  1  0
  5  6  1  0
  6  7  1  0
  7  8  1  0
  9 10  1  0
 10 11  1  0
 11 12  1  1
 11 13  1  0
 11 17  1  0
 13 14  2  0
 13 15  1  0
 15 16  1  0
 17 16  1  6
 17 18  1  0
 17 22  1  0
 18 19  1  0
 19 20  1  0
 20 21  1  0
 21 22  1  0
M  END
