
     RDKit          3D

 23 24  0  0  0  0  0  0  0  0999 V2000
   -4.1380    2.1550    1.1120 C   0  0  0  0  0  0  0  0  0  0  0  0
   -3.7830    0.9830    0.4000 O   0  0  0  0  0  0  0  0  0  0  0  0
   -4.2190    0.7190   -0.8850 C   0  0  0  0  0  0  0  0  0  0  0  0
   -4.9730    1.6040   -1.4050 O   0  0  0  0  0  0  0  0  0  0  0  0
   -3.8580   -0.5040   -1.6450 C   0  0  0  0  0  0  0  0  0  0  0  0
   -2.9900   -1.2770   -0.8910 O   0  0  0  0  0  0  0  0  0  0  0  0
   -1.7430   -0.9670   -0.4360 C   0  0  0  0  0  0  0  0  0  0  0  0
   -1.2010    0.2620   -0.7370 C   0  0  0  0  0  0  0  0  0  0  0  0
    0.0770    0.6410   -0.3000 C   0  0  0  0  0  0  0  0  0  0  0  0
    0.8390   -0.2150    0.4510 C   0  0  0  0  0  0  0  0  0  0  0  0
    2.1420    0.1100    0.8950 N   0  0  0  0  0  0  0  0  0  0  0  0
    3.0770    0.7670    0.0720 C   0  0  0  0  0  0  0  0  0  0  0  0
    2.8680    0.8430   -1.2990 C   0  0  0  0  0  0  0  0  0  0  0  0
    3.8250    1.4480   -2.0770 C   0  0  0  0  0  0  0  0  0  0  0  0
    4.9710    1.9670   -1.5110 C   0  0  0  0  0  0  0  0  0  0  0  0
    5.1900    1.8980   -0.1600 C   0  0  0  0  0  0  0  0  0  0  0  0
    4.2210    1.2860    0.6310 C   0  0  0  0  0  0  0  0  0  0  0  0
    4.5040    1.2490    2.0050 O   0  0  0  0  0  0  0  0  0  0  0  0
    0.2710   -1.4500    0.7430 C   0  0  0  0  0  0  0  0  0  0  0  0
   -0.9780   -1.8410    0.3260 C   0  0  0  0  0  0  0  0  0  0  0  0
   -1.5410   -3.1410    0.6490 C   0  0  0  0  0  0  0  0  0  0  0  0
   -0.7840   -4.1130    1.4530 C   0  0  0  0  0  0  0  0  0  0  0  0
   -2.6880   -3.4330    0.2360 O   0  0  0  0  0  0  0  0  0  0  0  0
  1  2  1  0
  2  3  1  0
  3  4  2  0
  3  5  1  0
  5  6  1  0
  6  7  1  0
  7  8  2  0
  7 20  1  0
  8  9  1  0
  9 10  2  0
 10 11  1  0
 10 19  1  0
 11 12  1  0
 12 13  2  0
 12 17  1  0
 13 14  1  0
 14 15  2  0
 15 16  1  0
 16 17  2  0
 17 18  1  0
 19 20  2  0
 20 21  1  0
 21 22  1  0
 21 23  2  0
M  END
