
     RDKit          3D

 15 14  0  0  0  0  0  0  0  0999 V2000
    5.1840    0.6040    0.5190 C   0  0  0  0  0  0  0  0  0  0  0  0
    3.8030    0.2920    0.0190 C   0  0  0  0  0  0  0  0  0  0  0  0
    3.3930   -1.1160    0.4690 C   0  0  0  0  0  0  0  0  0  0  0  0
    1.9870   -1.3790   -0.0650 C   0  0  0  0  0  0  0  0  0  0  0  0
    1.0300   -0.3910    0.4600 C   0  0  0  0  0  0  0  0  0  0  0  0
    0.8300   -0.2830    1.8530 N   0  0  0  0  0  0  0  0  0  0  0  0
    0.3820    0.3670   -0.3420 N   0  0  0  0  0  0  0  0  0  0  0  0
   -0.5750    1.3620    0.0940 C   0  0  0  0  0  0  0  0  0  0  0  0
   -1.6810    1.4820   -0.9330 C   0  0  0  0  0  0  0  0  0  0  0  0
   -2.3790    0.1720   -1.0980 C   0  0  0  0  0  0  0  0  0  0  0  0
   -2.9900   -0.3290    0.1660 C   0  0  2  0  0  0  0  0  0  0  0  0
   -3.6410   -1.6170   -0.1130 N   0  0  0  0  0  0  0  0  0  0  0  0
   -3.9910    0.6210    0.6720 C   0  0  0  0  0  0  0  0  0  0  0  0
   -3.7360    1.7760    1.0580 O   0  0  0  0  0  0  0  0  0  0  0  0
   -5.3350    0.2350    0.7380 O   0  0  0  0  0  0  0  0  0  0  0  0
  1  2  1  0
  2  3  1  0
  3  4  1  0
  4  5  1  0
  5  6  1  0
  5  7  2  3
  7  8  1  0
  8  9  1  0
  9 10  1  0
 10 11  1  0
 11 12  1  6
 11 13  1  0
 13 14  2  0
 13 15  1  0
M  CHG  2   7   1  12   1
M  END
