
     RDKit          3D

 24 25  0  0  0  0  0  0  0  0999 V2000
    6.9540    1.4600    0.8080 C   0  0  0  0  0  0  0  0  0  0  0  0
    7.0720    0.4220   -0.2670 C   0  0  0  0  0  0  0  0  0  0  0  0
    5.9850    0.4480   -1.2080 N   0  0  0  0  0  0  0  0  0  0  0  0
    4.6330    0.2440   -0.7900 C   0  0  0  0  0  0  0  0  0  0  0  0
    4.4600    0.0410    0.4420 O   0  0  0  0  0  0  0  0  0  0  0  0
    3.5150    0.2730   -1.7690 C   0  0  0  0  0  0  0  0  0  0  0  0
    2.3270    0.0410   -1.0610 O   0  0  0  0  0  0  0  0  0  0  0  0
    2.0660   -1.0950   -0.3310 C   0  0  0  0  0  0  0  0  0  0  0  0
    2.9160   -1.9970   -0.2720 O   0  0  0  0  0  0  0  0  0  0  0  0
    0.8040   -1.2220    0.3590 C   0  0  0  0  0  0  0  0  0  0  0  0
    0.5630   -2.3680    1.0840 C   0  0  0  0  0  0  0  0  0  0  0  0
   -0.6450   -2.4730    1.7360 C   0  0  0  0  0  0  0  0  0  0  0  0
   -1.6010   -1.4590    1.6700 C   0  0  0  0  0  0  0  0  0  0  0  0
   -2.8170   -1.5700    2.3290 O   0  0  0  0  0  0  0  0  0  0  0  0
   -1.3700   -0.3080    0.9470 C   0  0  0  0  0  0  0  0  0  0  0  0
   -2.2610    0.7430    0.8300 O   0  0  0  0  0  0  0  0  0  0  0  0
   -3.5130    0.7080    0.3010 C   0  0  0  0  0  0  0  0  0  0  0  0
   -4.2820    1.8490    0.3080 C   0  0  0  0  0  0  0  0  0  0  0  0
   -5.5600    1.8840   -0.2120 C   0  0  0  0  0  0  0  0  0  0  0  0
   -6.1150    0.7610   -0.7610 C   0  0  0  0  0  0  0  0  0  0  0  0
   -7.4940    0.8380   -1.3100 C   0  0  0  0  0  0  0  0  0  0  0  0
   -5.3620   -0.3900   -0.7770 C   0  0  0  0  0  0  0  0  0  0  0  0
   -4.0660   -0.4250   -0.2500 C   0  0  0  0  0  0  0  0  0  0  0  0
   -0.1600   -0.2080    0.2970 C   0  0  0  0  0  0  0  0  0  0  0  0
  1  2  1  0
  2  3  1  0
  3  4  1  0
  4  5  2  0
  4  6  1  0
  6  7  1  0
  7  8  1  0
  8  9  2  0
  8 10  1  0
 10 11  2  0
 10 24  1  0
 11 12  1  0
 12 13  2  0
 13 14  1  0
 13 15  1  0
 15 16  1  0
 15 24  2  0
 16 17  1  0
 17 18  2  0
 17 23  1  0
 18 19  1  0
 19 20  2  0
 20 21  1  0
 20 22  1  0
 22 23  2  0
M  END
