
     RDKit          3D

 24 25  0  0  0  0  0  0  0  0999 V2000
    5.5220    1.8700   -1.7390 C   0  0  0  0  0  0  0  0  0  0  0  0
    5.5030    0.5720   -1.1810 O   0  0  0  0  0  0  0  0  0  0  0  0
    4.2900    0.0110   -0.7850 C   0  0  0  0  0  0  0  0  0  0  0  0
    3.1090    0.6920   -0.9260 C   0  0  0  0  0  0  0  0  0  0  0  0
    1.9200    0.1040   -0.5240 C   0  0  0  0  0  0  0  0  0  0  0  0
    1.8700   -1.1810    0.0340 C   0  0  0  0  0  0  0  0  0  0  0  0
    0.6420   -1.7790    0.3700 N   0  0  0  0  0  0  0  0  0  0  0  0
   -0.5950   -1.0920    0.5510 C   0  0  0  0  0  0  0  0  0  0  0  0
   -0.7080    0.1640    1.0630 C   0  0  0  0  0  0  0  0  0  0  0  0
   -1.9330    0.8310    1.2030 C   0  0  0  0  0  0  0  0  0  0  0  0
   -1.9640    2.1830    1.8290 C   0  0  0  0  0  0  0  0  0  0  0  0
   -3.0920    0.2180    0.8140 C   0  0  0  0  0  0  0  0  0  0  0  0
   -4.3230    0.7950    0.9050 O   0  0  0  0  0  0  0  0  0  0  0  0
   -5.0840    1.4340   -0.0330 C   0  0  0  0  0  0  0  0  0  0  0  0
   -4.6020    2.6100   -0.7370 C   0  0  0  0  0  0  0  0  0  0  0  0
   -3.5310    3.1170   -0.6190 O   0  0  0  0  0  0  0  0  0  0  0  0
   -2.9780   -1.0920    0.2820 C   0  0  0  0  0  0  0  0  0  0  0  0
   -4.2360   -1.7600   -0.1380 C   0  0  0  0  0  0  0  0  0  0  0  0
   -1.7630   -1.7120    0.1610 C   0  0  0  0  0  0  0  0  0  0  0  0
    3.0600   -1.8640    0.1750 C   0  0  0  0  0  0  0  0  0  0  0  0
    3.1800   -3.1800    0.7490 C   0  0  0  0  0  0  0  0  0  0  0  0
    2.2430   -3.8780    1.1780 O   0  0  0  0  0  0  0  0  0  0  0  0
    4.2560   -1.2530   -0.2400 C   0  0  0  0  0  0  0  0  0  0  0  0
    5.4450   -1.9890   -0.0770 O   0  0  0  0  0  0  0  0  0  0  0  0
  1  2  1  0
  2  3  1  0
  3  4  2  0
  3 23  1  0
  4  5  1  0
  5  6  2  0
  6  7  1  0
  6 20  1  0
  7  8  1  0
  8  9  2  0
  8 19  1  0
  9 10  1  0
 10 11  1  0
 10 12  2  0
 12 13  1  0
 12 17  1  0
 13 14  1  0
 14 15  1  0
 15 16  2  0
 17 18  1  0
 17 19  2  0
 20 21  1  0
 20 23  2  0
 21 22  2  0
 23 24  1  0
M  END
