
     RDKit          3D

 24 25  0  0  0  0  0  0  0  0999 V2000
   -4.4360    3.9010    0.7280 C   0  0  0  0  0  0  0  0  0  0  0  0
   -4.8970    2.7050    0.3370 C   0  0  0  0  0  0  0  0  0  0  0  0
   -4.0130    1.5500    0.3630 C   0  0  0  0  0  0  0  0  0  0  0  0
   -4.4870    0.3870   -0.0260 C   0  0  0  0  0  0  0  0  0  0  0  0
   -5.8530    0.0640   -0.5090 C   0  0  0  0  0  0  0  0  0  0  0  0
   -5.9500   -1.3080   -0.1350 O   0  0  0  0  0  0  0  0  0  0  0  0
   -4.6700   -1.8370   -0.1310 C   0  0  0  0  0  0  0  0  0  0  0  0
   -4.3000   -3.2850   -0.1900 C   0  0  0  0  0  0  0  0  0  0  0  0
   -3.7580   -0.8660   -0.0670 C   0  0  0  0  0  0  0  0  0  0  0  0
   -2.2910   -1.0580   -0.0440 C   0  0  0  0  0  0  0  0  0  0  0  0
   -1.7820   -2.2020   -0.0850 O   0  0  0  0  0  0  0  0  0  0  0  0
   -1.4650    0.0310    0.0240 O   0  0  0  0  0  0  0  0  0  0  0  0
   -0.0540   -0.0880    0.0460 C   0  0  0  0  0  0  0  0  0  0  0  0
    0.5070   -0.7310   -1.1650 C   0  0  0  0  0  0  0  0  0  0  0  0
    1.8750   -0.8150   -1.1090 O   0  0  0  0  0  0  0  0  0  0  0  0
    2.2860   -1.5630   -0.0280 C   0  0  0  0  0  0  0  0  0  0  0  0
    3.7180   -1.6520   -0.0160 O   0  0  0  0  0  0  0  0  0  0  0  0
    4.4550   -0.5000    0.0810 C   0  0  0  0  0  0  0  0  0  0  0  0
    3.8880    0.7420    0.1720 C   0  0  0  0  0  0  0  0  0  0  0  0
    4.7220    1.8650    0.2670 C   0  0  0  0  0  0  0  0  0  0  0  0
    6.0930    1.7370    0.2710 C   0  0  0  0  0  0  0  0  0  0  0  0
    6.6750    0.4900    0.1800 C   0  0  0  0  0  0  0  0  0  0  0  0
    8.0820    0.3480    0.1830 N   0  0  0  0  0  0  0  0  0  0  0  0
    5.8400   -0.5980    0.0880 C   0  0  0  0  0  0  0  0  0  0  0  0
  1  2  2  0
  2  3  1  0
  3  4  2  3
  4  5  1  0
  4  9  1  0
  5  6  1  0
  6  7  1  0
  7  8  1  0
  7  9  2  0
  9 10  1  0
 10 11  2  0
 10 12  1  0
 12 13  1  0
 13 14  1  0
 14 15  1  0
 15 16  1  0
 16 17  1  0
 17 18  1  0
 18 19  2  0
 18 24  1  0
 19 20  1  0
 20 21  2  0
 21 22  1  0
 22 23  1  0
 22 24  2  0
M  END
