
     RDKit          3D

 24 25  0  0  0  0  0  0  0  0999 V2000
   -3.7160   -4.4380   -0.1780 C   0  0  0  0  0  0  0  0  0  0  0  0
   -3.2520   -3.0300   -0.0940 C   0  0  0  0  0  0  0  0  0  0  0  0
   -4.1780   -2.0240    0.0350 C   0  0  0  0  0  0  0  0  0  0  0  0
   -3.7820   -0.7290    0.1140 C   0  0  0  0  0  0  0  0  0  0  0  0
   -2.4180   -0.3650    0.0670 C   0  0  0  0  0  0  0  0  0  0  0  0
   -2.0900    1.0470    0.1430 C   0  0  0  0  0  0  0  0  0  0  0  0
   -0.9770    1.5860    0.1070 O   0  0  0  0  0  0  0  0  0  0  0  0
   -3.1510    1.9880    0.2790 O   0  0  0  0  0  0  0  0  0  0  0  0
   -2.9090    3.3800    0.3600 C   0  0  0  0  0  0  0  0  0  0  0  0
   -4.2650    4.0410    0.4960 C   0  0  0  0  0  0  0  0  0  0  0  0
   -4.9050    3.5740    1.6590 O   0  0  0  0  0  0  0  0  0  0  0  0
   -1.4760   -1.3620   -0.0620 C   0  0  0  0  0  0  0  0  0  0  0  0
   -0.1100   -1.0310   -0.0900 N   0  0  0  0  0  0  0  0  0  0  0  0
    0.9550   -1.9400   -0.2970 C   0  0  0  0  0  0  0  0  0  0  0  0
    0.7750   -3.1520   -0.4810 O   0  0  0  0  0  0  0  0  0  0  0  0
    2.3590   -1.4760   -0.3020 C   0  0  0  0  0  0  0  0  0  0  0  0
    2.7400   -0.2460   -0.1270 C   0  0  0  0  0  0  0  0  0  0  0  0
    4.1660    0.1270   -0.1480 C   0  0  0  0  0  0  0  0  0  0  0  0
    5.1830   -0.7700   -0.3500 C   0  0  0  0  0  0  0  0  0  0  0  0
    6.3770   -0.0710   -0.3060 C   0  0  0  0  0  0  0  0  0  0  0  0
    6.0000    1.2360   -0.0750 C   0  0  0  0  0  0  0  0  0  0  0  0
    6.9960    2.3340    0.0450 C   0  0  0  0  0  0  0  0  0  0  0  0
    4.6990    1.2950    0.0090 O   0  0  0  0  0  0  0  0  0  0  0  0
   -1.9290   -2.6720   -0.1380 C   0  0  0  0  0  0  0  0  0  0  0  0
  1  2  1  0
  2  3  2  0
  2 24  1  0
  3  4  1  0
  4  5  2  0
  5  6  1  0
  5 12  1  0
  6  7  2  0
  6  8  1  0
  8  9  1  0
  9 10  1  0
 10 11  1  0
 12 13  1  0
 12 24  2  0
 13 14  1  0
 14 15  2  0
 14 16  1  0
 16 17  2  3
 17 18  1  0
 18 19  2  0
 18 23  1  0
 19 20  1  0
 20 21  2  0
 21 22  1  0
 21 23  1  0
M  END
