
     RDKit          3D

 34 37  0  0  0  0  0  0  0  0999 V2000
    7.4430    0.5670   -2.6370 C   0  0  0  0  0  0  0  0  0  0  0  0
    7.0410    1.3390   -1.4020 C   0  0  0  0  0  0  0  0  0  0  0  0
    6.2690    0.4840   -0.4560 C   0  0  0  0  0  0  0  0  0  0  0  0
    6.0720   -0.6780   -0.7850 O   0  0  0  0  0  0  0  0  0  0  0  0
    5.7480    0.9770    0.8300 C   0  0  0  0  0  0  0  0  0  0  0  0
    5.0580   -0.0660    1.5270 N   0  0  0  0  0  0  0  0  0  0  0  0
    5.7040   -0.8800    2.3820 C   0  0  0  0  0  0  0  0  0  0  0  0
    6.9130   -0.7820    2.6190 O   0  0  0  0  0  0  0  0  0  0  0  0
    4.9710   -1.8250    2.9850 N   0  0  0  0  0  0  0  0  0  0  0  0
    3.6690   -2.0280    2.8130 C   0  0  0  0  0  0  0  0  0  0  0  0
    3.1070   -2.9570    3.4470 O   0  0  0  0  0  0  0  0  0  0  0  0
    2.9610   -1.1870    1.9180 C   0  0  0  0  0  0  0  0  0  0  0  0
    1.6450   -1.2440    1.6200 C   0  0  0  0  0  0  0  0  0  0  0  0
    1.0890   -0.3870    0.7500 C   0  0  0  0  0  0  0  0  0  0  0  0
   -0.1840   -0.1300    0.1780 C   0  0  0  0  0  0  0  0  0  0  0  0
   -0.2720    0.8810   -0.6310 O   0  0  0  0  0  0  0  0  0  0  0  0
   -1.3720   -0.8220    0.3680 N   0  0  0  0  0  0  0  0  0  0  0  0
   -1.5250   -2.0590    1.1040 C   0  0  0  0  0  0  0  0  0  0  0  0
   -1.8100   -1.7330    2.5550 C   0  0  0  0  0  0  0  0  0  0  0  0
   -2.6090   -0.3360   -0.2240 C   0  0  0  0  0  0  0  0  0  0  0  0
   -3.3820   -1.1200   -1.0410 C   0  0  0  0  0  0  0  0  0  0  0  0
   -4.5660   -0.6360   -1.6000 C   0  0  0  0  0  0  0  0  0  0  0  0
   -5.3410   -1.4260   -2.4180 C   0  0  0  0  0  0  0  0  0  0  0  0
   -6.5180   -0.9510   -2.9750 C   0  0  0  0  0  0  0  0  0  0  0  0
   -6.8870    0.3430   -2.6810 C   0  0  0  0  0  0  0  0  0  0  0  0
   -6.1030    1.1170   -1.8630 C   0  0  0  0  0  0  0  0  0  0  0  0
   -4.9110    0.6630   -1.2880 C   0  0  0  0  0  0  0  0  0  0  0  0
   -4.1690    1.4380   -0.4960 N   0  0  0  0  0  0  0  0  0  0  0  0
   -4.5630    2.7820   -0.2040 C   0  0  0  0  0  0  0  0  0  0  0  0
   -5.4380    2.7410    1.0320 C   0  0  0  0  0  0  0  0  0  0  0  0
   -3.0380    0.9430    0.0250 C   0  0  0  0  0  0  0  0  0  0  0  0
   -2.3500    1.6980    0.7750 O   0  0  0  0  0  0  0  0  0  0  0  0
    2.5560    0.6370    0.2760 S   0  0  0  0  0  0  0  0  0  0  0  0
    3.7210   -0.2440    1.3240 C   0  0  0  0  0  0  0  0  0  0  0  0
  1  2  1  0
  2  3  1  0
  3  4  2  0
  3  5  1  0
  5  6  1  0
  6  7  1  0
  6 34  1  0
  7  8  2  0
  7  9  1  0
  9 10  1  0
 10 11  2  0
 10 12  1  0
 12 13  1  0
 12 34  2  0
 13 14  2  0
 14 15  1  0
 14 33  1  0
 15 16  2  0
 15 17  1  0
 17 18  1  0
 17 20  1  0
 18 19  1  0
 20 21  2  0
 20 31  1  0
 21 22  1  0
 22 23  2  0
 22 27  1  0
 23 24  1  0
 24 25  2  0
 25 26  1  0
 26 27  2  0
 27 28  1  0
 28 29  1  0
 28 31  1  0
 29 30  1  0
 31 32  2  0
 33 34  1  0
M  END
