
     RDKit          3D

 34 37  0  0  0  0  0  0  0  0999 V2000
    6.9910    2.3250   -0.8020 C   0  0  0  0  0  0  0  0  0  0  0  0
    7.1770    1.0030   -1.4320 C   0  0  0  0  0  0  0  0  0  0  0  0
    6.8360   -0.1850   -0.6180 C   0  0  0  0  0  0  0  0  0  0  0  0
    5.4460   -0.4040   -0.1790 C   0  0  0  0  0  0  0  0  0  0  0  0
    4.8550    0.5440    0.6910 N   0  0  2  0  0  0  0  0  0  0  0  0
    4.4990   -0.1340    1.9440 C   0  0  0  0  0  0  0  0  0  0  0  0
    3.4350   -1.0800    1.7390 N   0  0  0  0  0  0  0  0  0  0  0  0
    2.3410   -0.7110    0.9130 C   0  0  0  0  0  0  0  0  0  0  0  0
    1.1670   -1.4800    0.9130 C   0  0  0  0  0  0  0  0  0  0  0  0
    0.1030   -1.1530    0.1310 C   0  0  0  0  0  0  0  0  0  0  0  0
   -1.1030   -1.8540    0.0710 N   0  0  0  0  0  0  0  0  0  0  0  0
   -1.5180   -2.9800    0.8150 C   0  0  0  0  0  0  0  0  0  0  0  0
   -0.6750   -3.4500    1.6590 O   0  0  0  0  0  0  0  0  0  0  0  0
   -3.1190   -3.7540    0.6500 S   0  0  0  0  0  0  0  0  0  0  0  0
   -4.3010   -2.5440    0.0790 C   0  0  0  0  0  0  0  0  0  0  0  0
   -4.3640   -1.2460    0.2960 C   0  0  0  0  0  0  0  0  0  0  0  0
   -3.4180   -0.5050    1.0960 N   0  0  0  0  0  0  0  0  0  0  0  0
   -5.4920   -0.7190   -0.3680 N   0  0  0  0  0  0  0  0  0  0  0  0
   -6.2400    0.4600   -0.1520 C   0  0  0  0  0  0  0  0  0  0  0  0
   -6.9010    1.0750   -1.2330 C   0  0  0  0  0  0  0  0  0  0  0  0
   -7.6160    2.2400   -1.1000 C   0  0  0  0  0  0  0  0  0  0  0  0
   -8.2400    2.8050   -2.1600 F   0  0  0  0  0  0  0  0  0  0  0  0
   -7.7190    2.8690    0.1190 C   0  0  0  0  0  0  0  0  0  0  0  0
   -8.4270    4.0290    0.2660 F   0  0  0  0  0  0  0  0  0  0  0  0
   -7.0820    2.2850    1.1860 C   0  0  0  0  0  0  0  0  0  0  0  0
   -6.3520    1.0940    1.0490 C   0  0  0  0  0  0  0  0  0  0  0  0
   -5.6220    0.4170    2.4900 Cl  0  0  0  0  0  0  0  0  0  0  0  0
   -5.7860   -1.6750   -1.4690 C   0  0  0  0  0  0  0  0  0  0  0  0
   -5.5020   -2.9300   -0.7070 C   0  0  0  0  0  0  0  0  0  0  0  0
   -6.1390   -3.9740   -0.7660 O   0  0  0  0  0  0  0  0  0  0  0  0
    0.2420   -0.0170   -0.6680 C   0  0  0  0  0  0  0  0  0  0  0  0
    1.3850    0.7420   -0.6760 C   0  0  0  0  0  0  0  0  0  0  0  0
    2.4670    0.3970    0.1290 C   0  0  0  0  0  0  0  0  0  0  0  0
    3.6920    1.1970    0.1310 C   0  0  0  0  0  0  0  0  0  0  0  0
  1  2  1  0
  2  3  1  0
  3  4  1  0
  5  4  1  6
  5  6  1  0
  5 34  1  0
  6  7  1  0
  7  8  1  0
  8  9  2  0
  8 33  1  0
  9 10  1  0
 10 11  1  0
 10 31  2  0
 11 12  1  0
 12 13  2  0
 12 14  1  0
 14 15  1  0
 15 16  2  0
 15 29  1  0
 16 17  1  0
 16 18  1  0
 18 19  1  0
 18 28  1  0
 19 20  2  0
 19 26  1  0
 20 21  1  0
 21 22  1  0
 21 23  2  0
 23 24  1  0
 23 25  1  0
 25 26  2  0
 26 27  1  0
 28 29  1  0
 29 30  2  0
 31 32  1  0
 32 33  2  0
 33 34  1  0
M  CHG  1   5   1
M  END
