
     RDKit          3D

 33 36  0  0  0  0  0  0  0  0999 V2000
   -2.6210    0.9460    0.2500 C   0  0  0  0  0  0  0  0  0  0  0  0
   -1.9080   -0.2450    0.5650 N   0  0  0  0  0  0  0  0  0  0  0  0
   -0.8430   -0.6010   -0.3100 C   0  0  0  0  0  0  0  0  0  0  0  0
    0.3300    0.3620   -0.2220 C   0  0  0  0  0  0  0  0  0  0  0  0
    0.8620    0.3770    1.1400 N   0  0  0  0  0  0  0  0  0  0  0  0
    2.0120   -0.4680    1.2580 C   0  0  0  0  0  0  0  0  0  0  0  0
    3.2410    0.0730    0.6300 C   0  0  0  0  0  0  0  0  0  0  0  0
    3.2840    1.2180    0.0210 C   0  0  0  0  0  0  0  0  0  0  0  0
    4.4720    1.7840   -0.6080 C   0  0  0  0  0  0  0  0  0  0  0  0
    5.6620    0.9190   -0.5030 C   0  0  0  0  0  0  0  0  0  0  0  0
    6.8030    1.3650   -1.0690 C   0  0  0  0  0  0  0  0  0  0  0  0
    8.0610    0.6870   -1.0820 C   0  0  0  0  0  0  0  0  0  0  0  0
    8.3400   -0.4870   -0.5480 C   0  0  0  0  0  0  0  0  0  0  0  0
    9.6730   -1.0630   -0.6370 C   0  0  1  0  0  0  0  0  0  0  0  0
   10.5820   -0.2770   -1.3010 F   0  0  0  0  0  0  0  0  0  0  0  0
   10.2170   -1.3610    0.6120 F   0  0  0  0  0  0  0  0  0  0  0  0
    9.6170   -2.6280   -1.5260 Cl  0  0  0  0  0  0  0  0  0  0  0  0
    7.0450   -1.3660    0.2950 S   0  0  0  0  0  0  0  0  0  0  0  0
    5.5980   -0.3460    0.1760 C   0  0  0  0  0  0  0  0  0  0  0  0
    4.4730   -0.7490    0.7070 C   0  0  0  0  0  0  0  0  0  0  0  0
   -2.7250   -1.3740    0.8800 C   0  0  2  0  0  0  0  0  0  0  0  0
   -3.6050   -1.8350   -0.2460 C   0  0  0  0  0  0  0  0  0  0  0  0
   -4.8710   -1.1300    0.0900 N   0  0  0  0  0  0  0  0  0  0  0  0
   -5.6960   -0.5460   -0.8680 C   0  0  0  0  0  0  0  0  0  0  0  0
   -5.3340   -0.6680   -2.1060 O   0  0  0  0  0  0  0  0  0  0  0  0
   -6.9270    0.1930   -0.6510 C   0  0  0  0  0  0  0  0  0  0  0  0
   -7.7550    0.7140   -1.6680 C   0  0  0  0  0  0  0  0  0  0  0  0
   -8.8050    1.3140   -1.0440 C   0  0  0  0  0  0  0  0  0  0  0  0
   -8.6740    1.1950    0.3110 C   0  0  0  0  0  0  0  0  0  0  0  0
   -7.5090    0.5020    0.4990 N   0  0  0  0  0  0  0  0  0  0  0  0
   -4.9760   -1.2510    1.4770 N   0  0  0  0  0  0  0  0  0  0  0  0
   -3.6320   -1.1590    2.0060 C   0  0  0  0  0  0  0  0  0  0  0  0
   -3.4250   -0.9320    3.2290 O   0  0  0  0  0  0  0  0  0  0  0  0
  1  2  1  0
  2  3  1  0
 21  2  1  6
  3  4  1  0
  4  5  1  0
  5  6  1  0
  6  7  1  0
  7  8  2  0
  7 20  1  0
  8  9  1  0
  9 10  1  0
 10 11  2  0
 10 19  1  0
 11 12  1  0
 12 13  2  0
 13 14  1  0
 13 18  1  0
 14 15  1  6
 14 16  1  0
 14 17  1  0
 18 19  1  0
 19 20  2  0
 21 22  1  0
 21 32  1  0
 22 23  1  0
 23 24  1  0
 23 31  1  0
 24 25  2  0
 24 26  1  0
 26 27  2  0
 26 30  1  0
 27 28  1  0
 28 29  2  0
 29 30  1  0
 31 32  1  0
 32 33  2  0
M  CHG  1   5   1
M  END
