
     RDKit          3D

 34 37  0  0  0  0  0  0  0  0999 V2000
    7.7570    0.8740   -1.4470 N   0  0  0  0  0  0  0  0  0  0  0  0
    6.7000    1.5180   -0.6780 C   0  0  1  0  0  0  0  0  0  0  0  0
    6.1640    0.5370    0.3410 C   0  0  0  0  0  0  0  0  0  0  0  0
    5.5990   -0.7090   -0.3500 C   0  0  0  0  0  0  0  0  0  0  0  0
    5.0000   -1.7820    0.9480 S   0  0  0  0  0  0  0  0  0  0  0  0
    3.5980   -1.1690    1.8500 C   0  0  0  0  0  0  0  0  0  0  0  0
    2.3270   -1.2620    1.0790 C   0  0  1  0  0  0  0  0  0  0  0  0
    1.2480   -0.7540    1.8470 O   0  0  0  0  0  0  0  0  0  0  0  0
    0.2170   -0.8620    0.8960 C   0  0  1  0  0  0  0  0  0  0  0  0
   -1.0260   -0.3010    1.3130 N   0  0  0  0  0  0  0  0  0  0  0  0
   -1.2960    0.7610    2.0950 C   0  0  0  0  0  0  0  0  0  0  0  0
   -2.6310    0.9170    2.2160 N   0  0  0  0  0  0  0  0  0  0  0  0
   -3.2500   -0.0430    1.5130 C   0  0  0  0  0  0  0  0  0  0  0  0
   -4.5880   -0.3250    1.3130 C   0  0  0  0  0  0  0  0  0  0  0  0
   -5.6470    0.4270    1.8740 N   0  0  0  0  0  0  0  0  0  0  0  0
   -7.0120    0.0310    1.5890 C   0  0  0  0  0  0  0  0  0  0  0  0
   -7.1920    0.1230    0.1290 C   0  0  0  0  0  0  0  0  0  0  0  0
   -6.7290    1.2200   -0.5550 C   0  0  0  0  0  0  0  0  0  0  0  0
   -6.8940    1.3280   -1.9390 C   0  0  0  0  0  0  0  0  0  0  0  0
   -7.5370    0.3120   -2.6390 C   0  0  0  0  0  0  0  0  0  0  0  0
   -7.9970   -0.7800   -1.9510 C   0  0  0  0  0  0  0  0  0  0  0  0
   -8.8030   -2.0600   -2.8050 Cl  0  0  0  0  0  0  0  0  0  0  0  0
   -7.8240   -0.8670   -0.5880 C   0  0  0  0  0  0  0  0  0  0  0  0
   -4.8830   -1.3790    0.5410 N   0  0  0  0  0  0  0  0  0  0  0  0
   -3.9190   -2.1400   -0.0240 C   0  0  0  0  0  0  0  0  0  0  0  0
   -2.6260   -1.8460    0.1860 N   0  0  0  0  0  0  0  0  0  0  0  0
   -2.2460   -0.7960    0.9550 C   0  0  0  0  0  0  0  0  0  0  0  0
    0.7670   -0.0920   -0.2870 C   0  0  2  0  0  0  0  0  0  0  0  0
    0.2510   -0.6140   -1.4630 O   0  0  0  0  0  0  0  0  0  0  0  0
    2.2390   -0.5290   -0.2050 C   0  0  2  0  0  0  0  0  0  0  0  0
    2.4960   -1.3940   -1.2960 O   0  0  0  0  0  0  0  0  0  0  0  0
    7.2860    2.6480    0.0820 C   0  0  0  0  0  0  0  0  0  0  0  0
    6.5550    3.3440    0.8280 O   0  0  0  0  0  0  0  0  0  0  0  0
    8.6330    2.9370   -0.0300 O   0  0  0  0  0  0  0  0  0  0  0  0
  2  1  1  1
  2  3  1  0
  2 32  1  0
  3  4  1  0
  4  5  1  0
  5  6  1  0
  7  6  1  1
  7  8  1  0
  7 30  1  0
  8  9  1  0
  9 10  1  1
  9 28  1  0
 10 11  1  0
 10 27  1  0
 11 12  2  0
 12 13  1  0
 13 14  2  0
 13 27  1  0
 14 15  1  0
 14 24  1  0
 15 16  1  0
 16 17  1  0
 17 18  2  0
 17 23  1  0
 18 19  1  0
 19 20  2  0
 20 21  1  0
 21 22  1  0
 21 23  2  0
 24 25  2  0
 25 26  1  0
 26 27  2  0
 28 29  1  6
 28 30  1  0
 30 31  1  6
 32 33  2  0
 32 34  1  0
M  CHG  1   1   1
M  END
