
     RDKit          3D

 33 36  0  0  0  0  0  0  0  0999 V2000
    7.2760    1.7100    0.4720 C   0  0  0  0  0  0  0  0  0  0  0  0
    6.5820    1.2790    1.7260 C   0  0  0  0  0  0  0  0  0  0  0  0
    5.3270    0.5080    1.3990 C   0  0  1  0  0  0  0  0  0  0  0  0
    4.6200    0.0700    2.6620 C   0  0  0  0  0  0  0  0  0  0  0  0
    4.4480    1.3320    0.5460 C   0  0  0  0  0  0  0  0  0  0  0  0
    4.7880    2.4800    0.2180 O   0  0  0  0  0  0  0  0  0  0  0  0
    3.1630    0.8130    0.0720 C   0  0  0  0  0  0  0  0  0  0  0  0
    2.5110   -0.7960    0.4280 S   0  0  0  0  0  0  0  0  0  0  0  0
    0.9610   -0.5210   -0.5470 C   0  0  0  0  0  0  0  0  0  0  0  0
   -0.0320   -1.5060   -0.6550 N   0  0  0  0  0  0  0  0  0  0  0  0
    0.2950   -2.7570   -0.8480 N   0  0  0  0  0  0  0  0  0  0  0  0
   -0.6180   -3.7210   -0.9540 C   0  0  0  0  0  0  0  0  0  0  0  0
   -1.9720   -3.4420   -0.8650 C   0  0  0  0  0  0  0  0  0  0  0  0
   -3.0470   -4.2230   -0.8480 N   0  0  0  0  0  0  0  0  0  0  0  0
   -4.1120   -3.4680   -0.6540 C   0  0  0  0  0  0  0  0  0  0  0  0
   -5.4680   -3.9440   -0.6110 N   0  0  0  0  0  0  0  0  0  0  0  0
   -3.7860   -2.1170   -0.5340 C   0  0  0  0  0  0  0  0  0  0  0  0
   -4.5920   -1.0570   -0.0440 C   0  0  0  0  0  0  0  0  0  0  0  0
   -5.7210   -1.3880    0.5830 N   0  0  0  0  0  0  0  0  0  0  0  0
   -4.4850    0.3580   -0.2220 C   0  0  0  0  0  0  0  0  0  0  0  0
   -4.8640    1.2370    0.8260 C   0  0  0  0  0  0  0  0  0  0  0  0
   -4.6250    2.5910    0.7660 C   0  0  0  0  0  0  0  0  0  0  0  0
   -4.9990    3.4030    1.7840 F   0  0  0  0  0  0  0  0  0  0  0  0
   -4.0060    3.1770   -0.3100 C   0  0  0  0  0  0  0  0  0  0  0  0
   -3.6290    2.3520   -1.3420 C   0  0  0  0  0  0  0  0  0  0  0  0
   -3.8770    0.9910   -1.2730 C   0  0  0  0  0  0  0  0  0  0  0  0
   -3.5540    0.0370   -2.7520 Cl  0  0  0  0  0  0  0  0  0  0  0  0
   -2.3750   -2.1160   -0.6650 C   0  0  0  0  0  0  0  0  0  0  0  0
   -1.3590   -1.1910   -0.5610 C   0  0  0  0  0  0  0  0  0  0  0  0
   -1.6130    0.0130   -0.3540 O   0  0  0  0  0  0  0  0  0  0  0  0
    1.1160    0.7110   -1.0090 C   0  0  0  0  0  0  0  0  0  0  0  0
    2.2120    1.4320   -0.7260 C   0  0  0  0  0  0  0  0  0  0  0  0
    2.4810    2.8410   -1.2040 C   0  0  0  0  0  0  0  0  0  0  0  0
  1  2  1  0
  2  3  1  0
  3  4  1  1
  3  5  1  0
  5  6  2  0
  5  7  1  0
  7  8  1  0
  7 32  2  0
  8  9  1  0
  9 10  1  0
  9 31  2  0
 10 11  1  0
 10 29  1  0
 11 12  2  0
 12 13  1  0
 13 14  1  0
 13 28  2  0
 14 15  1  0
 15 16  1  0
 15 17  2  0
 17 18  1  0
 17 28  1  0
 18 19  2  0
 18 20  1  0
 20 21  2  0
 20 26  1  0
 21 22  1  0
 22 23  1  0
 22 24  2  0
 24 25  1  0
 25 26  2  0
 26 27  1  0
 28 29  1  0
 29 30  2  0
 31 32  1  0
 32 33  1  0
M  CHG  1  19   1
M  END
