
     RDKit          3D

 34 37  0  0  0  0  0  0  0  0999 V2000
    6.0980    3.7820    0.0620 C   0  0  0  0  0  0  0  0  0  0  0  0
    6.7660    2.4560    0.3530 C   0  0  0  0  0  0  0  0  0  0  0  0
    5.7060    1.4670    0.8520 C   0  0  0  0  0  0  0  0  0  0  0  0
    4.6840    1.3320   -0.2540 C   0  0  0  0  0  0  0  0  0  0  0  0
    3.6190    0.4320    0.0620 N   0  0  0  0  0  0  0  0  0  0  0  0
    3.7650   -0.8780   -0.2630 C   0  0  0  0  0  0  0  0  0  0  0  0
    2.7630   -1.7820    0.0240 C   0  0  0  0  0  0  0  0  0  0  0  0
    1.6220   -1.3230    0.6410 C   0  0  0  0  0  0  0  0  0  0  0  0
    1.4510    0.0240    0.9850 C   0  0  0  0  0  0  0  0  0  0  0  0
    0.2390    0.4720    1.6330 C   0  0  0  0  0  0  0  0  0  0  0  0
    0.1660    0.4750    2.8840 O   0  0  0  0  0  0  0  0  0  0  0  0
   -0.8500    0.9030    0.8710 N   0  0  0  0  0  0  0  0  0  0  0  0
   -0.7820    0.9080   -0.5930 C   0  0  0  0  0  0  0  0  0  0  0  0
   -1.8590    1.8990   -1.0470 C   0  0  0  0  0  0  0  0  0  0  0  0
   -3.1880    1.2060   -0.7620 C   0  0  0  0  0  0  0  0  0  0  0  0
   -3.2240    0.7040    0.6780 C   0  0  2  0  0  0  0  0  0  0  0  0
   -4.5360    0.9510    1.3010 C   0  0  0  0  0  0  0  0  0  0  0  0
   -4.5700    1.6910    2.3300 O   0  0  0  0  0  0  0  0  0  0  0  0
   -5.7170    0.3870    0.7760 N   0  0  0  0  0  0  0  0  0  0  0  0
   -6.9950    0.6720    1.4400 C   0  0  0  0  0  0  0  0  0  0  0  0
   -8.0410    0.5660    0.3210 C   0  0  0  0  0  0  0  0  0  0  0  0
   -8.1010   -0.7600   -0.0250 O   0  0  0  0  0  0  0  0  0  0  0  0
   -6.9470   -1.2950   -0.5320 C   0  0  0  0  0  0  0  0  0  0  0  0
   -5.7180   -0.4520   -0.3760 C   0  0  0  0  0  0  0  0  0  0  0  0
   -2.1040    1.3690    1.4480 C   0  0  0  0  0  0  0  0  0  0  0  0
    2.4940    0.8670    0.6680 C   0  0  0  0  0  0  0  0  0  0  0  0
    2.4000    2.0790    0.9490 O   0  0  0  0  0  0  0  0  0  0  0  0
    2.7340   -3.2220   -0.2460 C   0  0  0  0  0  0  0  0  0  0  0  0
    1.1590   -3.9780    0.0840 S   0  0  0  0  0  0  0  0  0  0  0  0
    1.2930   -5.7470   -0.2990 C   0  0  0  0  0  0  0  0  0  0  0  0
    3.6910   -3.9830   -0.6820 N   0  0  0  0  0  0  0  0  0  0  0  0
    5.0320   -3.6390   -1.0200 C   0  0  0  0  0  0  0  0  0  0  0  0
    5.5600   -2.4270   -1.0990 C   0  0  0  0  0  0  0  0  0  0  0  0
    4.9740   -1.1700   -0.8790 O   0  0  0  0  0  0  0  0  0  0  0  0
  1  2  1  0
  2  3  1  0
  3  4  1  0
  4  5  1  0
  5  6  1  0
  5 26  1  0
  6  7  2  0
  6 34  1  0
  7  8  1  0
  7 28  1  0
  8  9  2  0
  9 10  1  0
  9 26  1  0
 10 11  2  0
 10 12  1  0
 12 13  1  0
 12 25  1  0
 13 14  1  0
 14 15  1  0
 15 16  1  0
 16 17  1  1
 16 25  1  0
 17 18  2  0
 17 19  1  0
 19 20  1  0
 19 24  1  0
 20 21  1  0
 21 22  1  0
 22 23  1  0
 23 24  1  0
 26 27  2  0
 28 29  1  0
 28 31  2  0
 29 30  1  0
 31 32  1  0
 32 33  2  0
 33 34  1  0
M  END
