
     RDKit          3D

 34 36  0  0  0  0  0  0  0  0999 V2000
   -2.7870    4.5750    1.9630 C   0  0  0  0  0  0  0  0  0  0  0  0
   -3.4730    3.5420    1.4610 C   0  0  0  0  0  0  0  0  0  0  0  0
   -3.8560    3.5470    0.0650 C   0  0  0  0  0  0  0  0  0  0  0  0
   -3.3460    2.5010   -0.8470 C   0  0  0  0  0  0  0  0  0  0  0  0
   -1.8410    2.4520   -0.9570 C   0  0  0  0  0  0  0  0  0  0  0  0
   -1.2470    3.0940   -1.9360 C   0  0  0  0  0  0  0  0  0  0  0  0
   -1.8890    3.9140   -3.0220 C   0  0  0  0  0  0  0  0  0  0  0  0
    0.4940    2.8110   -1.7500 S   0  0  0  0  0  0  0  0  0  0  0  0
    0.3660    1.7710   -0.3030 C   0  0  0  0  0  0  0  0  0  0  0  0
    1.3090    1.1910    0.3750 C   0  0  0  0  0  0  0  0  0  0  0  0
    2.6930    1.2420    0.1270 C   0  0  0  0  0  0  0  0  0  0  0  0
    3.4600    0.5790    0.9350 O   0  0  0  0  0  0  0  0  0  0  0  0
    3.3930    1.9380   -0.9140 N   0  0  0  0  0  0  0  0  0  0  0  0
    4.8260    1.8590   -1.0040 C   0  0  0  0  0  0  0  0  0  0  0  0
    5.4510    0.6010   -1.3220 C   0  0  0  0  0  0  0  0  0  0  0  0
    6.7610    0.6120   -1.2340 O   0  0  0  0  0  0  0  0  0  0  0  0
    4.9330   -0.6310   -1.7130 N   0  0  0  0  0  0  0  0  0  0  0  0
    5.8720   -1.7890   -1.8320 C   0  0  0  0  0  0  0  0  0  0  0  0
    5.0210   -3.0270   -1.8230 C   0  0  0  0  0  0  0  0  0  0  0  0
    4.0730   -2.9090   -0.8030 O   0  0  0  0  0  0  0  0  0  0  0  0
    3.0210   -2.0680   -1.2280 C   0  0  0  0  0  0  0  0  0  0  0  0
    3.5920   -0.9750   -2.1100 C   0  0  0  0  0  0  0  0  0  0  0  0
   -1.0550    1.7330   -0.0670 N   0  0  0  0  0  0  0  0  0  0  0  0
   -1.5360    0.8860    1.0610 C   0  0  0  0  0  0  0  0  0  0  0  0
   -1.2580   -0.5630    0.7170 C   0  0  0  0  0  0  0  0  0  0  0  0
   -0.7140   -0.7840   -0.3890 O   0  0  0  0  0  0  0  0  0  0  0  0
   -1.5960   -1.6010    1.5950 N   0  0  0  0  0  0  0  0  0  0  0  0
   -2.2140   -1.2860    2.8530 C   0  0  0  0  0  0  0  0  0  0  0  0
   -2.1240   -2.4500    3.8090 C   0  0  0  0  0  0  0  0  0  0  0  0
   -2.7270   -3.6320    3.1120 C   0  0  0  0  0  0  0  0  0  0  0  0
   -2.3440   -3.8960    1.8500 C   0  0  0  0  0  0  0  0  0  0  0  0
   -2.8190   -4.9390    1.1130 O   0  0  0  0  0  0  0  0  0  0  0  0
   -4.0380   -4.7990    0.3750 C   0  0  0  0  0  0  0  0  0  0  0  0
   -1.3300   -2.9710    1.2390 C   0  0  0  0  0  0  0  0  0  0  0  0
  1  2  2  0
  2  3  1  0
  3  4  1  0
  4  5  1  0
  5  6  2  0
  5 23  1  0
  6  7  1  0
  6  8  1  0
  8  9  1  0
  9 10  2  3
  9 23  1  0
 10 11  1  0
 11 12  2  0
 11 13  1  0
 13 14  1  0
 14 15  1  0
 15 16  2  0
 15 17  1  0
 17 18  1  0
 17 22  1  0
 18 19  1  0
 19 20  1  0
 20 21  1  0
 21 22  1  0
 23 24  1  0
 24 25  1  0
 25 26  2  0
 25 27  1  0
 27 28  1  0
 27 34  1  0
 28 29  1  0
 29 30  1  0
 30 31  2  0
 31 32  1  0
 31 34  1  0
 32 33  1  0
M  END
