
     RDKit          3D

 25 27  0  0  0  0  0  0  0  0999 V2000
   -3.9300    0.1250   -1.6990 C   0  0  0  0  0  0  0  0  0  0  0  0
   -3.7710    0.5460   -0.2690 C   0  0  2  0  0  0  0  0  0  0  0  0
   -5.0780    1.0190    0.3370 C   0  0  0  0  0  0  0  0  0  0  0  0
   -2.7320    1.5530   -0.1640 N   0  0  0  0  0  0  0  0  0  0  0  0
   -1.6940    1.0950    0.6880 C   0  0  0  0  0  0  0  0  0  0  0  0
   -0.6650    1.7540    0.9570 O   0  0  0  0  0  0  0  0  0  0  0  0
   -1.9980   -0.2010    1.1770 N   0  0  0  0  0  0  0  0  0  0  0  0
   -1.1870   -1.0070    2.0710 C   0  0  0  0  0  0  0  0  0  0  0  0
   -0.2220   -1.8940    1.3540 C   0  0  1  0  0  0  0  0  0  0  0  0
   -0.8360   -2.8350    0.4650 N   0  0  0  0  0  0  0  0  0  0  0  0
    0.8490   -1.1360    0.6610 C   0  0  0  0  0  0  0  0  0  0  0  0
    0.7430   -0.5960   -0.5880 N   0  0  0  0  0  0  0  0  0  0  0  0
    1.9050    0.0090   -0.8750 C   0  0  0  0  0  0  0  0  0  0  0  0
    2.1910    0.7180   -2.1450 C   0  0  0  0  0  0  0  0  0  0  0  0
    2.7370   -0.1950   -3.0600 O   0  0  0  0  0  0  0  0  0  0  0  0
    2.7470   -0.1340    0.1630 N   0  0  0  0  0  0  0  0  0  0  0  0
    4.0940    0.3610    0.2740 C   0  0  0  0  0  0  0  0  0  0  0  0
    4.4780    1.6810    0.3280 C   0  0  0  0  0  0  0  0  0  0  0  0
    5.8430    1.7190    0.4320 C   0  0  0  0  0  0  0  0  0  0  0  0
    6.2590    0.4060    0.4380 C   0  0  0  0  0  0  0  0  0  0  0  0
    7.9430   -0.1330    0.5550 Cl  0  0  0  0  0  0  0  0  0  0  0  0
    5.1960   -0.3450    0.3440 O   0  0  0  0  0  0  0  0  0  0  0  0
    2.0820   -0.8280    1.0720 N   0  0  0  0  0  0  0  0  0  0  0  0
   -3.2540   -0.5350    0.6040 C   0  0  0  0  0  0  0  0  0  0  0  0
   -3.8610   -1.6140    0.8090 O   0  0  0  0  0  0  0  0  0  0  0  0
  2  1  1  6
  2  3  1  0
  2  4  1  0
  2 24  1  0
  4  5  1  0
  5  6  2  0
  5  7  1  0
  7  8  1  0
  7 24  1  0
  8  9  1  0
  9 10  1  6
  9 11  1  0
 11 12  1  0
 11 23  2  0
 12 13  2  0
 13 14  1  0
 13 16  1  0
 14 15  1  0
 16 17  1  0
 16 23  1  0
 17 18  2  0
 17 22  1  0
 18 19  1  0
 19 20  2  0
 20 21  1  0
 20 22  1  0
 24 25  2  0
M  CHG  1  10   1
M  END
