
     RDKit          3D

 24 27  0  0  0  0  0  0  0  0999 V2000
    0.7470   -3.0890   -1.1310 C   0  0  0  0  0  0  0  0  0  0  0  0
   -0.2460   -3.2000   -0.0170 C   0  0  0  0  0  0  0  0  0  0  0  0
   -0.9860   -1.9060    0.2260 C   0  0  0  0  0  0  0  0  0  0  0  0
   -2.2010   -1.6250   -0.3220 N   0  0  0  0  0  0  0  0  0  0  0  0
   -2.6270   -0.4320    0.0020 N   0  0  0  0  0  0  0  0  0  0  0  0
   -1.6880    0.1040    0.7840 C   0  0  0  0  0  0  0  0  0  0  0  0
   -2.1120    1.3310    1.1270 N   0  0  0  0  0  0  0  0  0  0  0  0
   -3.3100    1.5800    0.5730 C   0  0  0  0  0  0  0  0  0  0  0  0
   -4.1640    2.6860    0.6170 C   0  0  0  0  0  0  0  0  0  0  0  0
   -5.3410    2.6280   -0.0720 C   0  0  0  0  0  0  0  0  0  0  0  0
   -5.6610    1.5050   -0.7840 C   0  0  0  0  0  0  0  0  0  0  0  0
   -4.8160    0.4630   -0.8030 N   0  0  0  0  0  0  0  0  0  0  0  0
   -3.6460    0.4570   -0.1480 C   0  0  0  0  0  0  0  0  0  0  0  0
   -0.6150   -0.8230    0.9480 C   0  0  0  0  0  0  0  0  0  0  0  0
    0.5360   -0.4980    1.7890 C   0  0  0  0  0  0  0  0  0  0  0  0
    1.7890   -0.1610    1.1350 C   0  0  0  0  0  0  0  0  0  0  0  0
    1.9020    1.1570    0.6630 C   0  0  0  0  0  0  0  0  0  0  0  0
    2.9950    1.5910   -0.0450 C   0  0  0  0  0  0  0  0  0  0  0  0
    3.1080    3.2530   -0.6280 Cl  0  0  0  0  0  0  0  0  0  0  0  0
    4.0410    0.7420   -0.3250 C   0  0  0  0  0  0  0  0  0  0  0  0
    5.2190    1.2350   -1.1000 C   0  0  0  0  0  0  0  0  0  0  0  0
    3.9480   -0.5490    0.1300 C   0  0  0  0  0  0  0  0  0  0  0  0
    2.8340   -0.9930    0.8530 C   0  0  0  0  0  0  0  0  0  0  0  0
    2.8640   -2.6280    1.4620 Cl  0  0  0  0  0  0  0  0  0  0  0  0
  1  2  1  0
  2  3  1  0
  3  4  2  0
  3 14  1  0
  4  5  1  0
  5  6  1  0
  5 13  1  0
  6  7  1  0
  6 14  2  0
  7  8  1  0
  8  9  2  0
  8 13  1  0
  9 10  1  0
 10 11  2  0
 11 12  1  0
 12 13  2  0
 14 15  1  0
 15 16  1  0
 16 17  2  0
 16 23  1  0
 17 18  1  0
 18 19  1  0
 18 20  2  0
 20 21  1  0
 20 22  1  0
 22 23  2  0
 23 24  1  0
M  END
