
     RDKit          3D

 25 26  0  0  0  0  0  0  0  0999 V2000
    2.5280    0.7790   -1.7140 C   0  0  0  0  0  0  0  0  0  0  0  0
    3.4570    0.7900   -0.7990 C   0  0  0  0  0  0  0  0  0  0  0  0
    4.9120    0.8410   -1.1310 C   0  0  0  0  0  0  0  0  0  0  0  0
    5.5420    0.8390   -0.0090 C   0  0  0  0  0  0  0  0  0  0  0  0
    7.3040    0.8890    0.1780 Cl  0  0  0  0  0  0  0  0  0  0  0  0
    4.6390    0.7900    1.1080 C   0  0  0  0  0  0  0  0  0  0  0  0
    5.0540    0.7750    2.5250 C   0  0  0  0  0  0  0  0  0  0  0  0
    3.3480    0.7590    0.6430 C   0  0  0  0  0  0  0  0  0  0  0  0
    2.2740    0.7090    1.5320 N   0  0  0  0  0  0  0  0  0  0  0  0
    0.8920    0.6700    1.3520 C   0  0  0  0  0  0  0  0  0  0  0  0
    0.4060    0.6770    0.2370 O   0  0  0  0  0  0  0  0  0  0  0  0
   -0.0450    0.6180    2.5480 C   0  0  0  0  0  0  0  0  0  0  0  0
   -1.4040    0.5830    2.1080 N   0  0  0  0  0  0  0  0  0  0  0  0
   -1.8930   -0.4670    1.2850 C   0  0  0  0  0  0  0  0  0  0  0  0
   -1.0820   -1.3700    0.9580 O   0  0  0  0  0  0  0  0  0  0  0  0
   -3.2500   -0.4960    0.8480 N   0  0  0  0  0  0  0  0  0  0  0  0
   -4.1370    0.5750    1.2610 C   0  0  0  0  0  0  0  0  0  0  0  0
   -3.7540   -1.5150    0.0400 N   0  0  0  0  0  0  0  0  0  0  0  0
   -3.6640   -1.4390   -1.2550 C   0  0  0  0  0  0  0  0  0  0  0  0
   -3.0770   -0.3810   -2.0700 C   0  0  0  0  0  0  0  0  0  0  0  0
   -2.5480    0.6590   -1.6110 O   0  0  0  0  0  0  0  0  0  0  0  0
   -3.2490   -0.8070   -3.4140 N   0  0  0  0  0  0  0  0  0  0  0  0
   -3.9040   -2.0530   -3.4070 N   0  0  0  0  0  0  0  0  0  0  0  0
   -4.1500   -2.4330   -2.2050 C   0  0  0  0  0  0  0  0  0  0  0  0
   -4.7910   -3.6240   -1.8150 O   0  0  0  0  0  0  0  0  0  0  0  0
  1  2  2  0
  2  3  1  0
  2  8  1  0
  3  4  2  0
  4  5  1  0
  4  6  1  0
  6  7  1  0
  6  8  2  0
  8  9  1  0
  9 10  1  0
 10 11  2  0
 10 12  1  0
 12 13  1  0
 13 14  1  0
 14 15  2  0
 14 16  1  0
 16 17  1  0
 16 18  1  0
 18 19  2  3
 19 20  1  0
 19 24  1  0
 20 21  2  0
 20 22  1  0
 22 23  1  0
 23 24  2  0
 24 25  1  0
M  CHG  1  23   1
M  END
