
     RDKit          3D

 24 27  0  0  0  0  0  0  0  0999 V2000
    4.6130    0.6590    1.7140 C   0  0  0  0  0  0  0  0  0  0  0  0
    3.2510    0.6220    1.1340 C   0  0  0  0  0  0  0  0  0  0  0  0
    2.2720    1.5240    1.4440 C   0  0  0  0  0  0  0  0  0  0  0  0
    1.0490    1.4230    0.8770 N   0  0  0  0  0  0  0  0  0  0  0  0
   -0.0090    2.1820    1.0440 N   0  0  0  0  0  0  0  0  0  0  0  0
   -1.0580    1.7570    0.2980 C   0  0  0  0  0  0  0  0  0  0  0  0
   -2.3630    2.4420    0.2650 C   0  0  0  0  0  0  0  0  0  0  0  0
   -2.4980    3.4650   -0.8230 C   0  0  0  0  0  0  0  0  0  0  0  0
   -2.3030    2.7270   -2.4060 Cl  0  0  0  0  0  0  0  0  0  0  0  0
   -0.5940    0.6350   -0.3850 C   0  0  0  0  0  0  0  0  0  0  0  0
   -1.4360   -0.1060   -1.2270 N   0  0  0  0  0  0  0  0  0  0  0  0
   -2.2930   -1.0640   -0.5950 C   0  0  0  0  0  0  0  0  0  0  0  0
   -2.3300   -1.2430    0.7710 C   0  0  0  0  0  0  0  0  0  0  0  0
   -3.1650   -2.1800    1.3620 C   0  0  0  0  0  0  0  0  0  0  0  0
   -3.9710   -2.9460    0.5790 N   0  0  0  0  0  0  0  0  0  0  0  0
   -3.9640   -2.8020   -0.7640 C   0  0  0  0  0  0  0  0  0  0  0  0
   -3.1180   -1.8510   -1.3570 C   0  0  0  0  0  0  0  0  0  0  0  0
    0.7150    0.4630   -0.0020 C   0  0  0  0  0  0  0  0  0  0  0  0
    1.6610   -0.4790   -0.3570 C   0  0  0  0  0  0  0  0  0  0  0  0
    2.9220   -0.3850    0.2200 C   0  0  0  0  0  0  0  0  0  0  0  0
    3.7310   -1.4880   -0.3210 C   0  0  0  0  0  0  0  0  0  0  0  0
    2.8180   -2.1840   -1.2370 C   0  0  0  0  0  0  0  0  0  0  0  0
    1.6260   -1.6120   -1.2650 C   0  0  0  0  0  0  0  0  0  0  0  0
    0.3520   -2.2210   -2.2770 Cl  0  0  0  0  0  0  0  0  0  0  0  0
  1  2  1  0
  2  3  2  0
  2 20  1  0
  3  4  1  0
  4  5  1  0
  4 18  1  0
  5  6  2  0
  6  7  1  0
  6 10  1  0
  7  8  1  0
  8  9  1  0
 10 11  1  0
 10 18  2  0
 11 12  1  0
 12 13  2  0
 12 17  1  0
 13 14  1  0
 14 15  2  0
 15 16  1  0
 16 17  2  0
 18 19  1  0
 19 20  2  0
 19 23  1  0
 20 21  1  0
 21 22  1  0
 22 23  2  0
 23 24  1  0
M  END
