
     RDKit          3D

 24 27  0  0  0  0  0  0  0  0999 V2000
    5.9530   -1.1050    2.0060 Cl  0  0  0  0  0  0  0  0  0  0  0  0
    4.4830   -1.4280    1.1050 C   0  0  0  0  0  0  0  0  0  0  0  0
    4.1730   -2.6910    0.6350 C   0  0  0  0  0  0  0  0  0  0  0  0
    3.0120   -2.9200   -0.0690 C   0  0  0  0  0  0  0  0  0  0  0  0
    2.6780   -4.5390   -0.6370 Cl  0  0  0  0  0  0  0  0  0  0  0  0
    2.1260   -1.8730   -0.3200 C   0  0  0  0  0  0  0  0  0  0  0  0
    2.4160   -0.6080    0.1400 C   0  0  0  0  0  0  0  0  0  0  0  0
    1.5550    0.5130   -0.0790 N   0  0  0  0  0  0  0  0  0  0  0  0
    1.8940    1.7160   -0.4140 N   0  0  0  0  0  0  0  0  0  0  0  0
    0.8470    2.5230   -0.5370 C   0  0  0  0  0  0  0  0  0  0  0  0
    0.7450    3.8560   -0.8370 C   0  0  0  0  0  0  0  0  0  0  0  0
   -0.4610    4.5190   -0.8710 C   0  0  0  0  0  0  0  0  0  0  0  0
   -1.5710    3.7630   -0.5830 C   0  0  0  0  0  0  0  0  0  0  0  0
   -1.4640    2.4270   -0.2840 C   0  0  0  0  0  0  0  0  0  0  0  0
   -0.2740    1.7590   -0.2520 C   0  0  0  0  0  0  0  0  0  0  0  0
    0.1700    0.4980    0.0320 C   0  0  0  0  0  0  0  0  0  0  0  0
   -0.5470   -0.6140    0.4730 N   0  0  0  0  0  0  0  0  0  0  0  0
   -1.8540   -1.0600    0.2950 C   0  0  0  0  0  0  0  0  0  0  0  0
   -2.7100   -0.6120   -0.6770 C   0  0  0  0  0  0  0  0  0  0  0  0
   -4.0000   -1.0800   -0.7220 C   0  0  0  0  0  0  0  0  0  0  0  0
   -4.4800   -2.0010    0.1860 C   0  0  0  0  0  0  0  0  0  0  0  0
   -3.6010   -2.4420    1.1580 C   0  0  0  0  0  0  0  0  0  0  0  0
   -2.3530   -1.9870    1.2010 N   0  0  0  0  0  0  0  0  0  0  0  0
    3.5950   -0.4240    0.8440 C   0  0  0  0  0  0  0  0  0  0  0  0
  1  2  1  0
  2  3  2  0
  2 24  1  0
  3  4  1  0
  4  5  1  0
  4  6  2  0
  6  7  1  0
  7  8  1  0
  7 24  2  0
  8  9  1  0
  8 16  1  0
  9 10  2  0
 10 11  1  0
 10 15  1  0
 11 12  2  0
 12 13  1  0
 13 14  2  0
 14 15  1  0
 15 16  2  0
 16 17  1  0
 17 18  1  0
 18 19  2  0
 18 23  1  0
 19 20  1  0
 20 21  2  0
 21 22  1  0
 22 23  2  0
M  END
