
     RDKit          3D

 11 11  0  0  0  0  0  0  0  0999 V2000
   -2.4960    1.7440   -0.2610 C   0  0  0  0  0  0  0  0  0  0  0  0
   -1.6430    0.5650   -0.0240 N   0  0  0  0  0  0  0  0  0  0  0  0
   -0.4150    0.4420   -0.7040 C   0  0  0  0  0  0  0  0  0  0  0  0
    0.3860   -0.5980   -0.5290 C   0  0  0  0  0  0  0  0  0  0  0  0
    1.6770   -0.7050   -1.2610 C   0  0  0  0  0  0  0  0  0  0  0  0
    2.8170   -0.7740   -0.3340 C   0  0  0  0  0  0  0  0  0  0  0  0
    3.6460    0.3410   -0.0880 N   0  0  0  0  0  0  0  0  0  0  0  0
    3.0650   -1.8490    0.2570 O   0  0  0  0  0  0  0  0  0  0  0  0
   -0.0600   -1.5850    0.3860 N   0  0  0  0  0  0  0  0  0  0  0  0
   -1.1520   -1.5360    1.0330 C   0  0  0  0  0  0  0  0  0  0  0  0
   -2.0910   -0.4260    0.8990 C   0  0  0  0  0  0  0  0  0  0  0  0
  1  2  1  0
  2  3  1  0
  2 11  1  0
  3  4  2  0
  4  5  1  0
  4  9  1  0
  5  6  1  0
  6  7  1  0
  6  8  2  0
  9 10  2  0
 10 11  1  0
M  END
