
     RDKit          3D

 11 11  0  0  0  0  0  0  0  0999 V2000
   -3.0210   -1.1850   -0.2170 C   0  0  0  0  0  0  0  0  0  0  0  0
   -2.3920    0.0900    0.2780 C   0  0  2  0  0  0  0  0  0  0  0  0
   -2.7540    1.2820   -0.6050 C   0  0  0  0  0  0  0  0  0  0  0  0
   -0.9190    0.0160    0.3150 C   0  0  0  0  0  0  0  0  0  0  0  0
   -0.1870    0.1910    1.4360 N   0  0  0  0  0  0  0  0  0  0  0  0
    1.0840    0.0720    1.1770 N   0  0  0  0  0  0  0  0  0  0  0  0
    1.1790   -0.1840   -0.1310 C   0  0  0  0  0  0  0  0  0  0  0  0
    2.4170   -0.4000   -0.9030 C   0  0  0  0  0  0  0  0  0  0  0  0
    3.6470   -0.2970   -0.0110 C   0  0  0  0  0  0  0  0  0  0  0  0
    3.7170    0.9650    0.5760 O   0  0  0  0  0  0  0  0  0  0  0  0
   -0.0560   -0.2230   -0.6860 N   0  0  0  0  0  0  0  0  0  0  0  0
  2  1  1  6
  2  3  1  0
  2  4  1  0
  4  5  2  0
  4 11  1  0
  5  6  1  0
  6  7  1  0
  7  8  1  0
  7 11  2  0
  8  9  1  0
  9 10  1  0
M  END
