
     RDKit          3D

 11 11  0  0  0  0  0  0  0  0999 V2000
   -2.1470   -0.6240   -1.8440 C   0  0  0  0  0  0  0  0  0  0  0  0
   -1.8790   -0.1940   -0.5950 C   0  0  0  0  0  0  0  0  0  0  0  0
   -2.7520    0.5970    0.2860 C   0  0  0  0  0  0  0  0  0  0  0  0
   -1.9850    0.7720    1.4810 N   0  0  0  0  0  0  0  0  0  0  0  0
   -0.8300    0.2090    1.4060 C   0  0  0  0  0  0  0  0  0  0  0  0
   -0.6580   -0.4230    0.1510 N   0  0  0  0  0  0  0  0  0  0  0  0
    0.4450   -1.1540   -0.4070 C   0  0  0  0  0  0  0  0  0  0  0  0
    1.6570   -0.3720   -0.7730 C   0  0  0  0  0  0  0  0  0  0  0  0
    2.3690    0.2770    0.3320 C   0  0  0  0  0  0  0  0  0  0  0  0
    3.2010    1.3820    0.0040 N   0  0  0  0  0  0  0  0  0  0  0  0
    2.3050   -0.0680    1.5370 O   0  0  0  0  0  0  0  0  0  0  0  0
  1  2  2  0
  2  3  1  0
  2  6  1  0
  3  4  1  0
  4  5  2  0
  5  6  1  0
  6  7  1  0
  7  8  1  0
  8  9  1  0
  9 10  1  0
  9 11  2  0
M  END
