
     RDKit          3D

 18 19  0  0  0  0  0  0  0  0999 V2000
   -3.4710    2.2390    1.3520 C   0  0  0  0  0  0  0  0  0  0  0  0
   -2.4180    1.7020    0.8030 C   0  0  0  0  0  0  0  0  0  0  0  0
   -2.3950    0.3760    0.1920 C   0  0  0  0  0  0  0  0  0  0  0  0
   -3.6130   -0.1950   -0.1970 C   0  0  0  0  0  0  0  0  0  0  0  0
   -3.7140   -1.3960   -0.7720 N   0  0  0  0  0  0  0  0  0  0  0  0
   -2.6000   -2.0870   -0.9870 C   0  0  0  0  0  0  0  0  0  0  0  0
   -1.3560   -1.5770   -0.6230 C   0  0  0  0  0  0  0  0  0  0  0  0
   -0.1940   -2.4500   -0.8710 C   0  0  0  0  0  0  0  0  0  0  0  0
   -1.2210   -0.3440   -0.0300 C   0  0  0  0  0  0  0  0  0  0  0  0
    0.0410    0.2110    0.4350 C   0  0  0  0  0  0  0  0  0  0  0  0
    0.0600    0.9510    1.4840 O   0  0  0  0  0  0  0  0  0  0  0  0
    1.3070    0.0220   -0.1720 N   0  0  0  0  0  0  0  0  0  0  0  0
    2.5300    0.5650    0.3040 C   0  0  0  0  0  0  0  0  0  0  0  0
    2.7970    1.3590    1.3960 C   0  0  0  0  0  0  0  0  0  0  0  0
    4.0960    1.6090    1.4240 O   0  0  0  0  0  0  0  0  0  0  0  0
    4.7140    1.0500    0.4460 C   0  0  0  0  0  0  0  0  0  0  0  0
    3.7770    0.3720   -0.3020 C   0  0  0  0  0  0  0  0  0  0  0  0
    3.9800   -0.3810   -1.4560 O   0  0  0  0  0  0  0  0  0  0  0  0
  1  2  2  0
  2  3  1  0
  3  4  2  0
  3  9  1  0
  4  5  1  0
  5  6  2  0
  6  7  1  0
  7  8  1  0
  7  9  2  0
  9 10  1  0
 10 11  2  0
 10 12  1  0
 12 13  1  0
 13 14  2  0
 13 17  1  0
 14 15  1  0
 15 16  1  0
 16 17  2  0
 17 18  1  0
M  END
