
     RDKit          3D

 18 18  0  0  0  0  0  0  0  0999 V2000
   -3.1810    0.9230   -2.6930 C   0  0  0  0  0  0  0  0  0  0  0  0
   -1.8960    0.1360   -2.7770 C   0  0  0  0  0  0  0  0  0  0  0  0
   -1.7290   -0.8910   -2.0080 C   0  0  0  0  0  0  0  0  0  0  0  0
   -2.7860   -1.3230   -1.0360 C   0  0  0  0  0  0  0  0  0  0  0  0
   -0.4740   -1.6630   -2.0520 C   0  0  0  0  0  0  0  0  0  0  0  0
    0.1770   -1.6610   -0.7640 O   0  0  0  0  0  0  0  0  0  0  0  0
    0.6020   -0.4450   -0.2150 C   0  0  0  0  0  0  0  0  0  0  0  0
    0.3570    0.5850   -0.9240 O   0  0  0  0  0  0  0  0  0  0  0  0
    1.2790   -0.3180    1.0540 C   0  0  0  0  0  0  0  0  0  0  0  0
    1.5830   -1.3370    1.8930 C   0  0  0  0  0  0  0  0  0  0  0  0
    1.2390   -2.6950    1.5810 C   0  0  0  0  0  0  0  0  0  0  0  0
    0.9730   -3.8170    1.3320 N   0  0  0  0  0  0  0  0  0  0  0  0
    2.2940   -0.8650    3.0570 C   0  0  0  0  0  0  0  0  0  0  0  0
    2.6930   -1.6230    3.9900 O   0  0  0  0  0  0  0  0  0  0  0  0
    2.4370    0.5210    2.9330 N   0  0  0  0  0  0  0  0  0  0  0  0
    1.8040    0.8770    1.6820 C   0  0  0  0  0  0  0  0  0  0  0  0
    1.7190    2.1240    1.2190 C   0  0  0  0  0  0  0  0  0  0  0  0
    2.3440    3.1790    2.0470 C   0  0  0  0  0  0  0  0  0  0  0  0
  1  2  1  0
  2  3  2  3
  3  4  1  0
  3  5  1  0
  5  6  1  0
  6  7  1  0
  7  8  2  0
  7  9  1  0
  9 10  2  0
  9 16  1  0
 10 11  1  0
 10 13  1  0
 11 12  3  0
 13 14  2  0
 13 15  1  0
 15 16  1  0
 16 17  2  3
 17 18  1  0
M  END
