
     RDKit          3D

 18 19  0  0  0  0  0  0  0  0999 V2000
   -4.2990    0.1930   -0.8870 C   0  0  0  0  0  0  0  0  0  0  0  0
   -3.5890   -0.4420    0.2890 C   0  0  2  0  0  0  0  0  0  0  0  0
   -3.9370    0.3100    1.5550 C   0  0  0  0  0  0  0  0  0  0  0  0
   -2.0980   -0.2950    0.1310 C   0  0  0  0  0  0  0  0  0  0  0  0
   -1.5430    0.9030   -0.1040 N   0  0  0  0  0  0  0  0  0  0  0  0
   -0.2000    0.9610   -0.2310 C   0  0  0  0  0  0  0  0  0  0  0  0
    0.6270   -0.1360   -0.1340 C   0  0  0  0  0  0  0  0  0  0  0  0
    2.0570    0.0310   -0.2530 C   0  0  0  0  0  0  0  0  0  0  0  0
    2.9140   -0.4110    0.7510 C   0  0  0  0  0  0  0  0  0  0  0  0
    4.2740   -0.2170    0.6770 C   0  0  0  0  0  0  0  0  0  0  0  0
    5.1180   -0.6640    1.6860 O   0  0  0  0  0  0  0  0  0  0  0  0
    4.8430    0.4270   -0.3980 C   0  0  0  0  0  0  0  0  0  0  0  0
    4.0110    0.8720   -1.4020 C   0  0  0  0  0  0  0  0  0  0  0  0
    2.6320    0.6660   -1.3140 C   0  0  0  0  0  0  0  0  0  0  0  0
    1.8850    1.1360   -2.3610 O   0  0  0  0  0  0  0  0  0  0  0  0
    0.0290   -1.3560    0.1090 C   0  0  0  0  0  0  0  0  0  0  0  0
    0.7470   -2.3640    0.2030 O   0  0  0  0  0  0  0  0  0  0  0  0
   -1.3090   -1.3820    0.2310 N   0  0  0  0  0  0  0  0  0  0  0  0
  2  1  1  6
  2  3  1  0
  2  4  1  0
  4  5  2  0
  4 18  1  0
  5  6  1  0
  6  7  2  0
  7  8  1  0
  7 16  1  0
  8  9  2  0
  8 14  1  0
  9 10  1  0
 10 11  1  0
 10 12  2  0
 12 13  1  0
 13 14  2  0
 14 15  1  0
 16 17  2  0
 16 18  1  0
M  END
