
     RDKit          3D

 18 19  0  0  0  0  0  0  0  0999 V2000
   -2.4980   -3.1730   -1.2550 O   0  0  0  0  0  0  0  0  0  0  0  0
   -2.3880   -2.1170   -0.5560 C   0  0  0  0  0  0  0  0  0  0  0  0
   -3.4840   -1.7720    0.3610 C   0  0  0  0  0  0  0  0  0  0  0  0
   -3.7990   -0.3460    0.4540 C   0  0  0  0  0  0  0  0  0  0  0  0
   -3.0000    0.7340    0.4590 C   0  0  0  0  0  0  0  0  0  0  0  0
   -3.6720    2.0470    0.5690 C   0  0  0  0  0  0  0  0  0  0  0  0
   -3.1960    2.6740    1.7380 O   0  0  0  0  0  0  0  0  0  0  0  0
   -1.5560    0.7360    0.3680 C   0  0  0  0  0  0  0  0  0  0  0  0
   -0.7430   -0.1920   -0.1650 C   0  0  0  0  0  0  0  0  0  0  0  0
    0.6630    0.1270   -0.0900 C   0  0  0  0  0  0  0  0  0  0  0  0
    1.0220    1.2200    0.4520 O   0  0  0  0  0  0  0  0  0  0  0  0
    1.6860   -0.7090   -0.5840 N   0  0  0  0  0  0  0  0  0  0  0  0
    3.0720   -0.3080   -0.4660 C   0  0  0  0  0  0  0  0  0  0  0  0
    4.0100   -0.9780    0.1810 C   0  0  0  0  0  0  0  0  0  0  0  0
    5.2970   -0.2490    0.0760 C   0  0  0  0  0  0  0  0  0  0  0  0
    4.9570    0.9360   -0.7260 C   0  0  0  0  0  0  0  0  0  0  0  0
    3.6790    0.8790   -1.0230 C   0  0  0  0  0  0  0  0  0  0  0  0
   -1.1790   -1.4030   -0.7730 N   0  0  0  0  0  0  0  0  0  0  0  0
  1  2  2  0
  2  3  1  0
  2 18  1  0
  3  4  1  0
  4  5  2  0
  5  6  1  0
  5  8  1  0
  6  7  1  0
  8  9  2  0
  9 10  1  0
  9 18  1  0
 10 11  2  0
 10 12  1  0
 12 13  1  0
 13 14  2  0
 13 17  1  0
 14 15  1  0
 15 16  1  0
 16 17  2  0
M  END
