
     RDKit          3D

 18 19  0  0  0  0  0  0  0  0999 V2000
   -2.6170   -1.9480    0.4640 C   0  0  0  0  0  0  0  0  0  0  0  0
   -3.2360   -0.5910    0.5160 C   0  0  0  0  0  0  0  0  0  0  0  0
   -4.3030   -0.2360    1.2030 C   0  0  0  0  0  0  0  0  0  0  0  0
   -4.6220    1.1910    1.0100 C   0  0  0  0  0  0  0  0  0  0  0  0
   -3.5620    1.6370    0.0880 C   0  0  0  0  0  0  0  0  0  0  0  0
   -2.7760    0.6020   -0.1860 C   0  0  0  0  0  0  0  0  0  0  0  0
   -1.6550    0.7280   -1.0580 N   0  0  0  0  0  0  0  0  0  0  0  0
   -0.3270    0.4460   -0.5880 C   0  0  0  0  0  0  0  0  0  0  0  0
   -0.2180    0.0970    0.5830 O   0  0  0  0  0  0  0  0  0  0  0  0
    0.8060    0.5620   -1.4290 N   0  0  0  0  0  0  0  0  0  0  0  0
    2.1450    0.3080   -1.0600 C   0  0  0  0  0  0  0  0  0  0  0  0
    2.6120   -0.0900    0.1460 C   0  0  0  0  0  0  0  0  0  0  0  0
    3.9880   -0.2870    0.3020 C   0  0  0  0  0  0  0  0  0  0  0  0
    4.4660   -0.7250    1.6400 C   0  0  0  0  0  0  0  0  0  0  0  0
    4.8890   -0.0920   -0.7230 C   0  0  0  0  0  0  0  0  0  0  0  0
    4.3810    0.2930   -1.8680 O   0  0  0  0  0  0  0  0  0  0  0  0
    3.1020    0.4910   -2.0670 C   0  0  0  0  0  0  0  0  0  0  0  0
    2.7460    0.8640   -3.2270 O   0  0  0  0  0  0  0  0  0  0  0  0
  1  2  1  0
  2  3  2  0
  2  6  1  0
  3  4  1  0
  4  5  1  0
  5  6  2  0
  6  7  1  0
  7  8  1  0
  8  9  2  0
  8 10  1  0
 10 11  1  0
 11 12  2  0
 11 17  1  0
 12 13  1  0
 13 14  1  0
 13 15  2  0
 15 16  1  0
 16 17  1  0
 17 18  2  0
M  END
