
     RDKit          3D

 18 19  0  0  0  0  0  0  0  0999 V2000
    5.5060    1.2880    0.6670 C   0  0  0  0  0  0  0  0  0  0  0  0
    4.8550   -0.0330    0.4400 C   0  0  0  0  0  0  0  0  0  0  0  0
    3.3800    0.1630    0.1540 C   0  0  0  0  0  0  0  0  0  0  0  0
    2.8860    1.3040    0.1340 O   0  0  0  0  0  0  0  0  0  0  0  0
    2.5670   -0.9630   -0.0920 N   0  0  0  0  0  0  0  0  0  0  0  0
    1.1780   -0.9750   -0.3700 C   0  0  0  0  0  0  0  0  0  0  0  0
    0.6400   -2.1880   -0.8190 C   0  0  0  0  0  0  0  0  0  0  0  0
   -0.6980   -2.2950   -1.1010 C   0  0  0  0  0  0  0  0  0  0  0  0
   -1.5410   -1.2120   -0.9500 C   0  0  0  0  0  0  0  0  0  0  0  0
   -1.0050   -0.0220   -0.5080 C   0  0  0  0  0  0  0  0  0  0  0  0
    0.3580    0.1070   -0.2140 C   0  0  0  0  0  0  0  0  0  0  0  0
   -1.8050    1.0890   -0.3400 O   0  0  0  0  0  0  0  0  0  0  0  0
   -3.1920    0.8720   -0.0410 C   0  0  2  0  0  0  0  0  0  0  0  0
   -3.9710    2.1600   -0.0810 C   0  0  0  0  0  0  0  0  0  0  0  0
   -3.2700    0.1940    1.3190 C   0  0  0  0  0  0  0  0  0  0  0  0
   -3.7000   -0.1020   -1.0400 C   0  0  0  0  0  0  0  0  0  0  0  0
   -4.7700    0.1020   -1.6970 O   0  0  0  0  0  0  0  0  0  0  0  0
   -2.9300   -1.2860   -1.2340 N   0  0  0  0  0  0  0  0  0  0  0  0
  1  2  1  0
  2  3  1  0
  3  4  2  0
  3  5  1  0
  5  6  1  0
  6  7  2  0
  6 11  1  0
  7  8  1  0
  8  9  2  0
  9 10  1  0
  9 18  1  0
 10 11  2  0
 10 12  1  0
 12 13  1  0
 13 14  1  1
 13 15  1  0
 13 16  1  0
 16 17  2  0
 16 18  1  0
M  END
