
     RDKit          3D

  7  7  0  0  0  0  0  0  0  0999 V2000
    0.9510    1.3870    0.0480 C   0  0  0  0  0  0  0  0  0  0  0  0
   -0.3300    1.6430   -0.1360 C   0  0  0  0  0  0  0  0  0  0  0  0
   -1.3800    0.7050   -0.6680 C   0  0  0  0  0  0  0  0  0  0  0  0
   -1.4150   -0.4770    0.2760 C   0  0  0  0  0  0  0  0  0  0  0  0
   -0.2820   -1.4470    0.0150 C   0  0  0  0  0  0  0  0  0  0  0  0
    1.0150   -0.9580    0.6500 C   0  0  0  0  0  0  0  0  0  0  0  0
    1.6540    0.0880   -0.2350 C   0  0  0  0  0  0  0  0  0  0  0  0
  1  2  2  0
  1  7  1  0
  2  3  1  0
  3  4  1  0
  4  5  1  0
  5  6  1  0
  6  7  1  0
M  END
