
     RDKit          3D

 22 24  0  0  0  0  0  0  0  0999 V2000
    1.2790   -2.2670   -2.1980 C   0  0  0  0  0  0  0  0  0  0  0  0
    1.1320   -1.3490   -1.0890 N   0  0  0  0  0  0  0  0  0  0  0  0
    2.2050   -1.2800   -0.1640 C   0  0  0  0  0  0  0  0  0  0  0  0
    3.3690   -1.7760   -0.4200 N   0  0  0  0  0  0  0  0  0  0  0  0
    4.4320   -1.7090    0.4920 C   0  0  0  0  0  0  0  0  0  0  0  0
    5.5620   -2.4140    0.3310 C   0  0  0  0  0  0  0  0  0  0  0  0
    6.4850   -2.1320    1.4500 C   0  0  0  0  0  0  0  0  0  0  0  0
    5.7490   -1.1670    2.2930 C   0  0  0  0  0  0  0  0  0  0  0  0
    4.5860   -0.9500    1.7190 C   0  0  0  0  0  0  0  0  0  0  0  0
   -0.0470   -0.5580   -0.9500 C   0  0  1  0  0  0  0  0  0  0  0  0
    0.0270    0.3190    0.2810 C   0  0  0  0  0  0  0  0  0  0  0  0
   -1.2910    1.0500    0.3920 C   0  0  0  0  0  0  0  0  0  0  0  0
   -1.3510    1.9690   -0.7420 N   0  0  0  0  0  0  0  0  0  0  0  0
   -2.6960    3.0070   -0.4500 S   0  0  1  0  0  0  0  0  0  0  0  0
   -2.4460    3.7200    0.8550 O   0  0  0  0  0  0  0  0  0  0  0  0
   -2.6930    4.0490   -1.5320 O   0  0  0  0  0  0  0  0  0  0  0  0
   -4.1630    2.1380   -0.3710 N   0  0  0  0  0  0  0  0  0  0  0  0
   -4.4920    1.6890    0.9640 C   0  0  1  0  0  0  0  0  0  0  0  0
   -5.8940    1.7080    1.4470 C   0  0  0  0  0  0  0  0  0  0  0  0
   -5.2020    0.3990    1.1740 C   0  0  0  0  0  0  0  0  0  0  0  0
   -1.5360    1.1520   -1.9220 C   0  0  0  0  0  0  0  0  0  0  0  0
   -0.2920    0.3510   -2.1350 C   0  0  0  0  0  0  0  0  0  0  0  0
  1  2  1  0
  2  3  1  0
 10  2  1  6
  3  4  2  3
  4  5  1  0
  5  6  2  0
  5  9  1  0
  6  7  1  0
  7  8  1  0
  8  9  2  0
 10 11  1  0
 10 22  1  0
 11 12  1  0
 12 13  1  0
 13 14  1  0
 13 21  1  0
 14 15  2  0
 14 16  2  0
 14 17  1  1
 18 17  1  6
 18 19  1  0
 18 20  1  0
 19 20  1  0
 21 22  1  0
M  END
