
     RDKit          3D

 22 23  0  0  0  0  0  0  0  0999 V2000
    5.7860    2.2430   -0.2500 C   0  0  0  0  0  0  0  0  0  0  0  0
    4.6460    2.6410    0.6010 C   0  0  0  0  0  0  0  0  0  0  0  0
    3.6060    1.8720    0.7420 C   0  0  0  0  0  0  0  0  0  0  0  0
    3.5130    0.5910    0.0740 C   0  0  0  0  0  0  0  0  0  0  0  0
    4.4260    0.0190   -0.7490 N   0  0  0  0  0  0  0  0  0  0  0  0
    4.0000   -1.1770   -1.1860 C   0  0  0  0  0  0  0  0  0  0  0  0
    4.6880   -2.1230   -2.0960 C   0  0  0  0  0  0  0  0  0  0  0  0
    2.7550   -1.3450   -0.5950 C   0  0  0  0  0  0  0  0  0  0  0  0
    2.4660   -0.2800    0.1610 N   0  0  0  0  0  0  0  0  0  0  0  0
    1.2850   -0.0320    0.9510 C   0  0  0  0  0  0  0  0  0  0  0  0
    0.2910    0.6780    0.0780 C   0  0  0  0  0  0  0  0  0  0  0  0
   -1.0090    1.0190    0.7740 C   0  0  0  0  0  0  0  0  0  0  0  0
   -1.6140   -0.1950    1.2170 N   0  0  0  0  0  0  0  0  0  0  0  0
   -3.1040   -0.0020    2.0270 S   0  0  2  0  0  0  0  0  0  0  0  0
   -3.2590    1.4170    2.5460 O   0  0  0  0  0  0  0  0  0  0  0  0
   -3.2510   -0.9080    3.2070 O   0  0  0  0  0  0  0  0  0  0  0  0
   -4.3760   -0.2640    0.9120 N   0  0  0  0  0  0  0  0  0  0  0  0
   -4.4220    0.6340   -0.1930 C   0  0  0  0  0  0  0  0  0  0  0  0
   -5.6610    0.2940   -0.9950 C   0  0  0  0  0  0  0  0  0  0  0  0
   -5.7480   -0.9840   -1.3420 C   0  0  0  0  0  0  0  0  0  0  0  0
   -4.6560   -1.8940   -0.9140 C   0  0  0  0  0  0  0  0  0  0  0  0
   -4.4090   -1.6450    0.5570 C   0  0  0  0  0  0  0  0  0  0  0  0
  1  2  1  0
  2  3  2  3
  3  4  1  0
  4  5  2  0
  4  9  1  0
  5  6  1  0
  6  7  1  0
  6  8  2  0
  8  9  1  0
  9 10  1  0
 10 11  1  0
 11 12  1  0
 12 13  1  0
 14 13  1  6
 14 15  2  0
 14 16  2  0
 14 17  1  0
 17 18  1  0
 17 22  1  0
 18 19  1  0
 19 20  2  0
 20 21  1  0
 21 22  1  0
M  END
