
     RDKit          3D

 22 23  0  0  0  0  0  0  0  0999 V2000
   -5.9770    0.7670   -1.1610 C   0  0  0  0  0  0  0  0  0  0  0  0
   -5.2670    0.2660    0.0260 C   0  0  0  0  0  0  0  0  0  0  0  0
   -6.0440   -0.1290    1.2220 C   0  0  0  0  0  0  0  0  0  0  0  0
   -3.9170    0.1780   -0.0050 C   0  0  0  0  0  0  0  0  0  0  0  0
   -3.2250   -0.3160    1.1680 C   0  0  0  0  0  0  0  0  0  0  0  0
   -1.9560   -0.4720    1.3310 C   0  0  0  0  0  0  0  0  0  0  0  0
   -0.8360   -0.2250    0.4570 C   0  0  0  0  0  0  0  0  0  0  0  0
   -0.9610    0.3000   -0.9090 C   0  0  0  0  0  0  0  0  0  0  0  0
    0.3900   -0.4960    0.9350 C   0  0  0  0  0  0  0  0  0  0  0  0
    1.5750   -0.2670    0.0960 C   0  0  2  0  0  0  0  0  0  0  0  0
    1.6820   -1.1550   -0.9820 O   0  0  0  0  0  0  0  0  0  0  0  0
    2.7880   -0.5010    0.9940 C   0  0  0  0  0  0  0  0  0  0  0  0
    4.0140   -0.3020    0.2680 N   0  0  0  0  0  0  0  0  0  0  0  0
    4.6430   -1.2900   -0.3920 C   0  0  0  0  0  0  0  0  0  0  0  0
    5.7750   -1.1660   -1.0790 N   0  0  0  0  0  0  0  0  0  0  0  0
    6.4090    0.0420   -1.1620 C   0  0  0  0  0  0  0  0  0  0  0  0
    7.5250    0.3680   -1.7850 N   0  0  0  0  0  0  0  0  0  0  0  0
    8.0620    1.3420   -1.8680 N   0  0  0  0  0  0  0  0  0  0  0  0
    6.8790    2.4190   -0.8330 S   0  0  0  0  0  0  0  0  0  0  0  0
    5.8040    1.0700   -0.5070 C   0  0  0  0  0  0  0  0  0  0  0  0
    4.6180    0.9040    0.2030 C   0  0  0  0  0  0  0  0  0  0  0  0
    4.1220    1.8790    0.7760 O   0  0  0  0  0  0  0  0  0  0  0  0
  1  2  1  0
  2  3  1  0
  2  4  2  3
  4  5  1  0
  5  6  2  3
  6  7  1  0
  7  8  1  0
  7  9  2  3
  9 10  1  0
 10 11  1  6
 10 12  1  0
 12 13  1  0
 13 14  1  0
 13 21  1  0
 14 15  2  0
 15 16  1  0
 16 17  1  0
 16 20  2  0
 17 18  2  0
 18 19  1  0
 19 20  1  0
 20 21  1  0
 21 22  2  0
M  END
