
     RDKit          3D

 22 23  0  0  0  0  0  0  0  0999 V2000
    4.5730    2.4970   -1.4960 C   0  0  0  0  0  0  0  0  0  0  0  0
    3.9070    1.5600   -0.9100 O   0  0  0  0  0  0  0  0  0  0  0  0
    3.2160    0.5510   -0.4880 C   0  0  0  0  0  0  0  0  0  0  0  0
    2.7340   -0.4050   -1.4010 C   0  0  0  0  0  0  0  0  0  0  0  0
    2.0050   -1.4760   -0.9870 C   0  0  0  0  0  0  0  0  0  0  0  0
    1.7110   -1.6640    0.3450 C   0  0  0  0  0  0  0  0  0  0  0  0
    1.0400   -2.7920    0.7490 N   0  0  0  0  0  0  0  0  0  0  0  0
   -0.2040   -2.9930    0.8690 C   0  0  0  0  0  0  0  0  0  0  0  0
   -0.8500   -4.5920    1.4280 S   0  0  0  0  0  0  0  0  0  0  0  0
   -1.1030   -1.9430    0.5660 N   0  0  0  0  0  0  0  0  0  0  0  0
   -0.7030   -0.5910    0.6080 C   0  0  0  0  0  0  0  0  0  0  0  0
   -2.0520    0.1830    0.3400 C   0  0  0  0  0  0  0  0  0  0  0  0
   -2.6120   -0.1640   -0.9830 C   0  0  0  0  0  0  0  0  0  0  0  0
   -3.8500    0.6020   -1.1420 N   0  0  0  0  0  0  0  0  0  0  0  0
   -5.0970    0.2300   -0.7860 C   0  0  0  0  0  0  0  0  0  0  0  0
   -6.0090    1.2230   -1.1020 C   0  0  0  0  0  0  0  0  0  0  0  0
   -5.2780    2.2010   -1.6570 N   0  0  0  0  0  0  0  0  0  0  0  0
   -3.9860    1.8310   -1.6820 C   0  0  0  0  0  0  0  0  0  0  0  0
    2.1820   -0.7310    1.2310 C   0  0  0  0  0  0  0  0  0  0  0  0
    2.9150    0.3560    0.8670 C   0  0  0  0  0  0  0  0  0  0  0  0
    3.4040    1.3150    1.7450 O   0  0  0  0  0  0  0  0  0  0  0  0
    3.1090    1.1340    3.1200 C   0  0  0  0  0  0  0  0  0  0  0  0
  1  2  1  0
  2  3  1  0
  3  4  2  0
  3 20  1  0
  4  5  1  0
  5  6  2  0
  6  7  1  0
  6 19  1  0
  7  8  2  3
  8  9  1  0
  8 10  1  0
 10 11  1  0
 11 12  1  0
 12 13  1  0
 13 14  1  0
 14 15  1  0
 14 18  1  0
 15 16  2  0
 16 17  1  0
 17 18  2  0
 19 20  2  0
 20 21  1  0
 21 22  1  0
M  END
