
     RDKit          3D

 11 11  0  0  0  0  0  0  0  0999 V2000
    2.6340   -1.3550    0.9330 O   0  0  0  0  0  0  0  0  0  0  0  0
    2.5990   -0.1720    0.5210 C   0  0  0  0  0  0  0  0  0  0  0  0
    3.4810    0.7330    1.1120 O   0  0  0  0  0  0  0  0  0  0  0  0
    1.6560    0.1970   -0.5340 C   0  0  0  0  0  0  0  0  0  0  0  0
    0.2260   -0.0260   -0.1730 C   0  0  0  0  0  0  0  0  0  0  0  0
   -0.1840   -0.5480    1.0210 C   0  0  0  0  0  0  0  0  0  0  0  0
   -1.5400   -0.6970    1.2290 C   0  0  0  0  0  0  0  0  0  0  0  0
   -2.4760   -0.3350    0.2730 C   0  0  0  0  0  0  0  0  0  0  0  0
   -2.0600    0.1930   -0.9310 C   0  0  0  0  0  0  0  0  0  0  0  0
   -3.0260    0.5470   -1.8650 O   0  0  0  0  0  0  0  0  0  0  0  0
   -0.7060    0.3360   -1.1290 C   0  0  0  0  0  0  0  0  0  0  0  0
  1  2  2  0
  2  3  1  0
  2  4  1  0
  4  5  1  0
  5  6  2  0
  5 11  1  0
  6  7  1  0
  7  8  2  0
  8  9  1  0
  9 10  1  0
  9 11  2  0
M  END
