
     RDKit          3D

 17 16  0  0  0  0  0  0  0  0999 V2000
    5.1490    1.2490    0.3670 C   0  0  0  0  0  0  0  0  0  0  0  0
    3.6680    1.2760    0.5570 C   0  0  0  0  0  0  0  0  0  0  0  0
    3.0160   -0.0580    0.1350 C   0  0  1  0  0  0  0  0  0  0  0  0
    3.5730   -1.1750    0.9590 C   0  0  0  0  0  0  0  0  0  0  0  0
    1.6690    0.1480    0.3160 O   0  0  0  0  0  0  0  0  0  0  0  0
    0.8270   -0.8800    0.0260 C   0  0  0  0  0  0  0  0  0  0  0  0
   -0.6060   -0.3070    0.3750 C   0  0  0  0  0  0  0  0  0  0  0  0
   -1.4530   -1.2630    0.1110 O   0  0  0  0  0  0  0  0  0  0  0  0
   -2.7350   -1.4230    0.2950 C   0  0  0  0  0  0  0  0  0  0  0  0
   -3.6370   -0.3760   -0.2870 C   0  0  1  0  0  0  0  0  0  0  0  0
   -5.0550   -0.8260   -0.1340 N   0  0  0  0  0  0  0  0  0  0  0  0
   -3.5150    0.8940    0.5260 C   0  0  0  0  0  0  0  0  0  0  0  0
   -4.3750    1.9430    0.0010 N   0  0  0  0  0  0  0  0  0  0  0  0
    3.3680   -0.2960   -1.3260 C   0  0  1  0  0  0  0  0  0  0  0  0
    2.8850    0.7220   -2.1290 F   0  0  0  0  0  0  0  0  0  0  0  0
    4.7610   -0.3670   -1.4660 F   0  0  0  0  0  0  0  0  0  0  0  0
    2.8970   -1.4860   -1.8150 F   0  0  0  0  0  0  0  0  0  0  0  0
  1  2  1  0
  2  3  1  0
  3  4  1  1
  3  5  1  0
  3 14  1  0
  5  6  1  0
  6  7  1  0
  7  8  1  0
  8  9  1  0
  9 10  1  0
 10 11  1  1
 10 12  1  0
 12 13  1  0
 14 15  1  6
 14 16  1  0
 14 17  1  0
M  CHG  2  11   1  13   1
M  END
