
     RDKit          3D

 17 16  0  0  0  0  0  0  0  0999 V2000
    2.2880    1.9760    1.6990 C   0  0  0  0  0  0  0  0  0  0  0  0
    2.0170    0.6580    1.1280 N   0  0  0  0  0  0  0  0  0  0  0  0
    0.6740    0.2670    1.1770 C   0  0  0  0  0  0  0  0  0  0  0  0
    0.0320   -0.3620   -0.0080 C   0  0  2  0  0  0  0  0  0  0  0  0
    0.8010   -1.6710   -0.3860 C   0  0  0  0  0  0  0  0  0  0  0  0
    0.8550   -2.6550    0.6090 N   0  0  0  0  0  0  0  0  0  0  0  0
    0.3210    0.4570   -1.2290 C   0  0  0  0  0  0  0  0  0  0  0  0
   -0.0960    1.8680   -1.2610 C   0  0  0  0  0  0  0  0  0  0  0  0
    0.3650    2.4150   -2.6370 C   0  0  2  0  0  0  0  0  0  0  0  0
    1.7510    2.2450   -2.6300 F   0  0  0  0  0  0  0  0  0  0  0  0
    0.1440    3.7700   -2.6850 F   0  0  0  0  0  0  0  0  0  0  0  0
   -0.1980    1.7190   -3.6610 F   0  0  0  0  0  0  0  0  0  0  0  0
   -1.3630   -0.8130    0.2120 C   0  0  1  0  0  0  0  0  0  0  0  0
   -2.0600   -1.4330   -0.9390 C   0  0  0  0  0  0  0  0  0  0  0  0
   -1.3560   -1.8480    1.2130 O   0  0  0  0  0  0  0  0  0  0  0  0
   -2.3110    0.1840    0.8370 C   0  0  0  0  0  0  0  0  0  0  0  0
   -3.5130   -0.5730    1.0060 O   0  0  0  0  0  0  0  0  0  0  0  0
  1  2  1  0
  2  3  1  0
  4  3  1  1
  4  5  1  0
  4  7  1  0
  4 13  1  0
  5  6  1  0
  7  8  1  0
  8  9  1  0
  9 10  1  1
  9 11  1  0
  9 12  1  0
 13 14  1  6
 13 15  1  0
 13 16  1  0
 16 17  1  0
M  CHG  2   2   1   6   1
M  END
