
     RDKit          3D

 18 19  0  0  0  0  0  0  0  0999 V2000
    4.9910   -0.1840    0.4820 C   0  0  0  0  0  0  0  0  0  0  0  0
    4.2290   -1.4750   -0.4690 S   0  0  0  0  0  0  0  0  0  0  0  0
    4.7000   -2.8460   -0.0790 O   0  0  0  0  0  0  0  0  0  0  0  0
    2.4840   -1.3080   -0.4620 C   0  0  0  0  0  0  0  0  0  0  0  0
    1.6400   -2.6680   -0.0400 S   0  0  0  0  0  0  0  0  0  0  0  0
    1.8570   -0.1130   -0.7960 N   0  0  0  0  0  0  0  0  0  0  0  0
    2.5370    1.1240   -1.2130 C   0  0  0  0  0  0  0  0  0  0  0  0
    1.8400    2.1950   -0.4440 C   0  0  0  0  0  0  0  0  0  0  0  0
    0.4870    1.6150   -0.1220 C   0  0  0  0  0  0  0  0  0  0  0  0
    0.4490    0.3090   -0.8370 C   0  0  2  0  0  0  0  0  0  0  0  0
   -0.4640   -0.7320   -0.3180 C   0  0  0  0  0  0  0  0  0  0  0  0
   -1.9220   -0.3810   -0.3230 C   0  0  2  0  0  0  0  0  0  0  0  0
   -2.4010   -0.0500   -1.5850 O   0  0  0  0  0  0  0  0  0  0  0  0
   -2.4200    0.5580    0.6970 C   0  0  0  0  0  0  0  0  0  0  0  0
   -3.9010    0.8290    0.3520 C   0  0  0  0  0  0  0  0  0  0  0  0
   -4.3830   -0.1730   -0.4560 O   0  0  0  0  0  0  0  0  0  0  0  0
   -4.1020   -1.4490   -0.0350 C   0  0  0  0  0  0  0  0  0  0  0  0
   -2.6370   -1.7460    0.0600 C   0  0  0  0  0  0  0  0  0  0  0  0
  2  1  1  1
  2  3  2  0
  2  4  1  0
  4  5  2  0
  4  6  1  0
  6  7  1  0
  6 10  1  0
  7  8  1  0
  8  9  1  0
  9 10  1  0
 10 11  1  1
 11 12  1  0
 12 13  1  6
 12 14  1  0
 12 18  1  0
 14 15  1  0
 15 16  1  0
 16 17  1  0
 17 18  1  0
M  END
