
     RDKit          3D

 18 19  0  0  0  0  0  0  0  0999 V2000
   -4.0470   -2.7690    0.5380 O   0  0  0  0  0  0  0  0  0  0  0  0
   -3.6990   -1.5720    0.3530 C   0  0  0  0  0  0  0  0  0  0  0  0
   -2.3990   -1.0770    0.7910 C   0  0  0  0  0  0  0  0  0  0  0  0
   -2.0110    0.2050    0.6020 C   0  0  0  0  0  0  0  0  0  0  0  0
   -2.9080    1.0890   -0.0460 C   0  0  0  0  0  0  0  0  0  0  0  0
   -4.1310    0.6880   -0.4780 C   0  0  0  0  0  0  0  0  0  0  0  0
   -4.6320   -0.6680   -0.3190 C   0  0  0  0  0  0  0  0  0  0  0  0
   -2.3950    2.4940   -0.2030 C   0  0  0  0  0  0  0  0  0  0  0  0
   -0.6100    2.2060   -0.1150 S   0  0  0  0  0  0  0  0  0  0  0  0
   -0.7060    0.7550    1.0180 C   0  0  2  0  0  0  0  0  0  0  0  0
    0.4450   -0.1280    0.6880 C   0  0  0  0  0  0  0  0  0  0  0  0
    1.1460   -0.5350    1.6360 O   0  0  0  0  0  0  0  0  0  0  0  0
    0.7590   -0.5080   -0.6380 N   0  0  0  0  0  0  0  0  0  0  0  0
    1.8440   -1.3320   -1.0620 C   0  0  0  0  0  0  0  0  0  0  0  0
    3.4870   -0.6640   -0.9310 S   0  0  0  0  0  0  0  0  0  0  0  0
    4.0120   -0.3600    0.7550 C   0  0  0  0  0  0  0  0  0  0  0  0
    5.4890    0.0430    0.8040 C   0  0  0  0  0  0  0  0  0  0  0  0
    5.6820    1.2080    0.0610 O   0  0  0  0  0  0  0  0  0  0  0  0
  1  2  2  0
  2  3  1  0
  2  7  1  0
  3  4  2  0
  4  5  1  0
  4 10  1  0
  5  6  2  0
  5  8  1  0
  6  7  1  0
  8  9  1  0
  9 10  1  0
 10 11  1  6
 11 12  2  0
 11 13  1  0
 13 14  1  0
 14 15  1  0
 15 16  1  0
 16 17  1  0
 17 18  1  0
M  END
