
     RDKit          3D

 18 19  0  0  0  0  0  0  0  0999 V2000
    1.2530    1.0040    2.7150 C   0  0  0  0  0  0  0  0  0  0  0  0
    1.7140    0.7620    1.2640 C   0  0  0  0  0  0  0  0  0  0  0  0
    2.6690   -0.0410    1.1130 N   0  0  0  0  0  0  0  0  0  0  0  0
    3.0140   -0.2000   -0.2270 C   0  0  0  0  0  0  0  0  0  0  0  0
    4.3220   -1.2640   -0.8060 S   0  0  1  0  0  0  0  0  0  0  0  0
    5.8420   -0.3600   -0.8690 C   0  0  0  0  0  0  0  0  0  0  0  0
    4.4690   -2.3940    0.1750 O   0  0  0  0  0  0  0  0  0  0  0  0
    4.0120   -1.8290   -2.1340 O   0  0  0  0  0  0  0  0  0  0  0  0
    2.2900    0.5020   -1.0370 C   0  0  0  0  0  0  0  0  0  0  0  0
    1.0450    1.4800   -0.1500 S   0  0  0  0  0  0  0  0  0  0  0  0
    0.7070    2.1320   -1.2830 O   0  0  0  0  0  0  0  0  0  0  0  0
   -0.4100    0.6160    0.0610 C   0  0  0  0  0  0  0  0  0  0  0  0
   -1.5420    0.9540   -0.8700 C   0  0  0  0  0  0  0  0  0  0  0  0
   -2.7820    0.1900   -0.6610 C   0  0  1  0  0  0  0  0  0  0  0  0
   -2.6890   -1.2910   -0.8050 C   0  0  0  0  0  0  0  0  0  0  0  0
   -4.1180   -1.6880   -0.4100 C   0  0  0  0  0  0  0  0  0  0  0  0
   -4.5530   -0.6440    0.6000 C   0  0  0  0  0  0  0  0  0  0  0  0
   -3.3680    0.3160    0.7300 C   0  0  0  0  0  0  0  0  0  0  0  0
  1  2  1  0
  2  3  2  0
  2 10  1  0
  3  4  1  0
  4  5  1  0
  4  9  2  0
  5  6  1  6
  5  7  2  0
  5  8  2  0
  9 10  1  0
 10 11  2  0
 10 12  1  0
 12 13  1  0
 14 13  1  1
 14 15  1  0
 14 18  1  0
 15 16  1  0
 16 17  1  0
 17 18  1  0
M  END
