
     RDKit          3D

 20 22  0  0  0  0  0  0  0  0999 V2000
    4.0440    1.7530    1.1240 C   0  0  0  0  0  0  0  0  0  0  0  0
    4.2770    0.7290    0.3360 C   0  0  0  0  0  0  0  0  0  0  0  0
    4.1250   -0.6900    0.6860 C   0  0  0  0  0  0  0  0  0  0  0  0
    3.2280   -1.3410   -0.1120 O   0  0  0  0  0  0  0  0  0  0  0  0
    1.8980   -1.1300   -0.2640 C   0  0  0  0  0  0  0  0  0  0  0  0
    1.1570   -0.1930    0.4060 C   0  0  0  0  0  0  0  0  0  0  0  0
   -0.2110    0.0010    0.2230 C   0  0  0  0  0  0  0  0  0  0  0  0
   -0.8590    0.9660    0.9430 N   0  0  0  0  0  0  0  0  0  0  0  0
   -2.1740    1.1800    0.7930 C   0  0  0  0  0  0  0  0  0  0  0  0
   -2.8840    2.1390    1.4900 C   0  0  0  0  0  0  0  0  0  0  0  0
   -4.2370    2.3460    1.3240 C   0  0  0  0  0  0  0  0  0  0  0  0
   -4.8770    1.5660    0.4350 N   0  0  0  0  0  0  0  0  0  0  0  0
   -4.2130    0.6070   -0.2750 C   0  0  0  0  0  0  0  0  0  0  0  0
   -2.8680    0.4050   -0.1060 C   0  0  0  0  0  0  0  0  0  0  0  0
   -2.2500   -0.5760   -0.8490 C   0  0  0  0  0  0  0  0  0  0  0  0
   -2.9740   -1.3620   -1.7660 N   0  0  0  0  0  0  0  0  0  0  0  0
   -0.8910   -0.7790   -0.6760 C   0  0  0  0  0  0  0  0  0  0  0  0
   -0.1850   -1.7260   -1.3650 C   0  0  0  0  0  0  0  0  0  0  0  0
    1.1610   -1.9160   -1.1850 C   0  0  0  0  0  0  0  0  0  0  0  0
    1.8420   -2.8840   -1.8980 O   0  0  0  0  0  0  0  0  0  0  0  0
  1  2  2  0
  2  3  1  0
  3  4  1  0
  4  5  1  0
  5  6  2  0
  5 19  1  0
  6  7  1  0
  7  8  2  0
  7 17  1  0
  8  9  1  0
  9 10  2  0
  9 14  1  0
 10 11  1  0
 11 12  2  0
 12 13  1  0
 13 14  2  0
 14 15  1  0
 15 16  1  0
 15 17  2  0
 17 18  1  0
 18 19  2  0
 19 20  1  0
M  END
