
     RDKit          3D

 20 20  0  0  0  0  0  0  0  0999 V2000
    3.7270    2.7950   -0.1840 C   0  0  0  0  0  0  0  0  0  0  0  0
    3.0640    2.2660    0.8190 C   0  0  0  0  0  0  0  0  0  0  0  0
    3.2820    2.7290    2.1460 N   0  0  0  0  0  0  0  0  0  0  0  0
    2.0620    1.1740    0.6490 C   0  0  0  0  0  0  0  0  0  0  0  0
    1.4580    0.7100    1.7400 C   0  0  0  0  0  0  0  0  0  0  0  0
    0.4670   -0.3190    1.8830 C   0  0  0  0  0  0  0  0  0  0  0  0
   -0.8010   -0.2930    1.7040 N   0  0  0  0  0  0  0  0  0  0  0  0
   -1.6010    0.8470    1.2920 C   0  0  0  0  0  0  0  0  0  0  0  0
   -2.5580    0.4260    0.2520 C   0  0  0  0  0  0  0  0  0  0  0  0
   -3.6110    1.3340    0.1150 F   0  0  0  0  0  0  0  0  0  0  0  0
   -2.5490   -0.6200   -0.5230 C   0  0  0  0  0  0  0  0  0  0  0  0
   -1.5840   -1.7100   -0.6110 C   0  0  0  0  0  0  0  0  0  0  0  0
   -2.0280   -2.9400   -0.4210 C   0  0  0  0  0  0  0  0  0  0  0  0
   -3.4350   -3.2850   -0.1300 C   0  0  1  0  0  0  0  0  0  0  0  0
   -3.8610   -2.6100    1.0220 F   0  0  0  0  0  0  0  0  0  0  0  0
   -4.2240   -2.9300   -1.2100 F   0  0  0  0  0  0  0  0  0  0  0  0
   -0.2000   -1.5550   -0.9160 N   0  0  0  0  0  0  0  0  0  0  0  0
    0.3790   -0.7030   -1.9190 C   0  0  0  0  0  0  0  0  0  0  0  0
    0.7030    0.6930   -1.5120 C   0  0  0  0  0  0  0  0  0  0  0  0
    1.8680    0.7160   -0.6720 N   0  0  0  0  0  0  0  0  0  0  0  0
  1  2  2  0
  2  3  1  0
  2  4  1  0
  4  5  2  0
  4 20  1  0
  5  6  1  0
  6  7  2  0
  7  8  1  0
  8  9  1  0
  9 10  1  0
  9 11  2  0
 11 12  1  0
 12 13  2  3
 12 17  1  0
 13 14  1  0
 14 15  1  1
 14 16  1  0
 17 18  1  0
 18 19  1  0
 19 20  1  0
M  CHG  1   7   1
M  END
