
     RDKit          3D

 19 20  0  0  0  0  0  0  0  0999 V2000
   -2.9940   -0.2100   -1.5840 C   0  0  0  0  0  0  0  0  0  0  0  0
   -2.4040   -0.2790   -0.2950 N   0  0  2  0  0  0  0  0  0  0  0  0
   -3.1570    0.4270    0.7220 C   0  0  0  0  0  0  0  0  0  0  0  0
   -1.0370    0.1590   -0.2180 C   0  0  1  0  0  0  0  0  0  0  0  0
   -0.0660   -0.9120   -0.7110 C   0  0  0  0  0  0  0  0  0  0  0  0
    1.2300   -0.7230   -0.0090 C   0  0  0  0  0  0  0  0  0  0  0  0
    1.9770    0.2840    0.4490 C   0  0  0  0  0  0  0  0  0  0  0  0
    1.8410    1.7550    0.4650 C   0  0  0  0  0  0  0  0  0  0  0  0
    0.6080    2.2400    1.1770 C   0  0  0  0  0  0  0  0  0  0  0  0
   -0.5090    2.5660    0.2260 C   0  0  0  0  0  0  0  0  0  0  0  0
   -0.7400    1.4840   -0.8090 C   0  0  2  0  0  0  0  0  0  0  0  0
   -1.6890    1.9770   -1.7540 N   0  0  0  0  0  0  0  0  0  0  0  0
    3.1720   -0.2550    1.0530 N   0  0  0  0  0  0  0  0  0  0  0  0
    2.9750   -1.6710    1.2910 C   0  0  2  0  0  0  0  0  0  0  0  0
    2.5510   -1.8470    2.5760 F   0  0  0  0  0  0  0  0  0  0  0  0
    4.1700   -2.3140    1.0360 F   0  0  0  0  0  0  0  0  0  0  0  0
    1.9300   -1.9920    0.2860 C   0  0  0  0  0  0  0  0  0  0  0  0
    1.6880   -3.1740   -0.2290 C   0  0  0  0  0  0  0  0  0  0  0  0
    2.4550   -4.2890    0.1660 N   0  0  0  0  0  0  0  0  0  0  0  0
  2  1  1  6
  2  3  1  0
  2  4  1  0
  4  5  1  6
  4 11  1  0
  5  6  1  0
  6  7  2  0
  6 17  1  0
  7  8  1  0
  7 13  1  0
  8  9  1  0
  9 10  1  0
 10 11  1  0
 11 12  1  6
 13 14  1  0
 14 15  1  1
 14 16  1  0
 14 17  1  0
 17 18  2  3
 18 19  1  0
M  CHG  1   2   1
M  END
