
     RDKit          3D

 20 20  0  0  0  0  0  0  0  0999 V2000
   -3.8090   -0.9540    1.6030 C   0  0  0  0  0  0  0  0  0  0  0  0
   -3.8170    0.2940    1.2480 C   0  0  0  0  0  0  0  0  0  0  0  0
   -5.0220    0.9590    1.3670 F   0  0  0  0  0  0  0  0  0  0  0  0
   -2.6980    1.0620    0.7350 C   0  0  0  0  0  0  0  0  0  0  0  0
   -2.8950    2.3260    0.4340 C   0  0  0  0  0  0  0  0  0  0  0  0
   -4.0970    2.9460    0.5800 F   0  0  0  0  0  0  0  0  0  0  0  0
   -1.8690    3.0660   -0.0260 F   0  0  0  0  0  0  0  0  0  0  0  0
   -1.4290    0.4870    0.5560 N   0  0  0  0  0  0  0  0  0  0  0  0
   -0.6280    0.2770    1.7640 C   0  0  0  0  0  0  0  0  0  0  0  0
    0.8030    0.6950    1.5450 C   0  0  0  0  0  0  0  0  0  0  0  0
    1.3090    0.2410    0.3140 N   0  0  0  0  0  0  0  0  0  0  0  0
    2.1570   -0.8700    0.2770 C   0  0  0  0  0  0  0  0  0  0  0  0
    3.5180   -0.6840    0.8840 C   0  0  0  0  0  0  0  0  0  0  0  0
    4.3040    0.4130    0.2000 C   0  0  0  0  0  0  0  0  0  0  0  0
    4.4950    0.1060   -1.2080 N   0  0  0  0  0  0  0  0  0  0  0  0
    0.5530    0.5290   -0.8310 C   0  0  0  0  0  0  0  0  0  0  0  0
   -0.9290    0.1390   -0.7430 C   0  0  2  0  0  0  0  0  0  0  0  0
   -1.5920    0.9210   -1.8720 C   0  0  0  0  0  0  0  0  0  0  0  0
   -0.9930   -1.3010   -1.1100 C   0  0  0  0  0  0  0  0  0  0  0  0
   -2.2770   -1.9050   -1.1510 N   0  0  0  0  0  0  0  0  0  0  0  0
  1  2  2  0
  2  3  1  0
  2  4  1  0
  4  5  2  3
  4  8  1  0
  5  6  1  0
  5  7  1  0
  8  9  1  0
  8 17  1  0
  9 10  1  0
 10 11  1  0
 11 12  1  0
 11 16  1  0
 12 13  1  0
 13 14  1  0
 14 15  1  0
 16 17  1  0
 17 18  1  6
 17 19  1  0
 19 20  1  0
M  CHG  2  15   1  20   1
M  END
