
     RDKit          3D

 20 20  0  0  0  0  0  0  0  0999 V2000
   -5.9580    0.3450    1.3800 C   0  0  0  0  0  0  0  0  0  0  0  0
   -4.8230   -0.4640    0.9710 N   0  0  0  0  0  0  0  0  0  0  0  0
   -3.5990    0.2840    0.9910 C   0  0  0  0  0  0  0  0  0  0  0  0
   -2.4520   -0.4580    0.6050 N   0  0  0  0  0  0  0  0  0  0  0  0
   -2.4420   -0.9800   -0.7180 C   0  0  0  0  0  0  0  0  0  0  0  0
   -1.4930   -0.0480   -1.4500 C   0  0  0  0  0  0  0  0  0  0  0  0
   -0.4420    0.3360   -0.4090 C   0  0  2  0  0  0  0  0  0  0  0  0
   -0.0670    1.7860   -0.5170 C   0  0  0  0  0  0  0  0  0  0  0  0
    0.4820    2.1600   -1.7790 N   0  0  0  0  0  0  0  0  0  0  0  0
    0.6530   -0.5650   -0.5620 N   0  0  0  0  0  0  0  0  0  0  0  0
    1.4800   -0.7370    0.5770 C   0  0  0  0  0  0  0  0  0  0  0  0
    2.8700   -1.1520    0.1180 C   0  0  0  0  0  0  0  0  0  0  0  0
    3.8780   -0.3780    0.4290 C   0  0  0  0  0  0  0  0  0  0  0  0
    3.6200    0.8780    1.2200 C   0  0  0  0  0  0  0  0  0  0  0  0
    5.2730   -0.6550    0.0520 C   0  0  0  0  0  0  0  0  0  0  0  0
    3.0620   -2.3830   -0.6480 C   0  0  1  0  0  0  0  0  0  0  0  0
    2.3390   -2.3620   -1.8540 F   0  0  0  0  0  0  0  0  0  0  0  0
    4.3570   -2.6310   -1.0080 F   0  0  0  0  0  0  0  0  0  0  0  0
    2.6130   -3.5140    0.0050 F   0  0  0  0  0  0  0  0  0  0  0  0
   -1.1880    0.1310    0.8790 C   0  0  0  0  0  0  0  0  0  0  0  0
  1  2  1  0
  2  3  1  0
  3  4  1  0
  4  5  1  0
  4 20  1  0
  5  6  1  0
  6  7  1  0
  7  8  1  6
  7 10  1  0
  7 20  1  0
  8  9  1  0
 10 11  1  0
 11 12  1  0
 12 13  2  3
 12 16  1  0
 13 14  1  0
 13 15  1  0
 16 17  1  6
 16 18  1  0
 16 19  1  0
M  CHG  2   9   1  10   1
M  END
