
     RDKit          3D

 20 21  0  0  0  0  0  0  0  0999 V2000
   -0.7580   -0.3730   -2.5630 N   0  0  0  0  0  0  0  0  0  0  0  0
   -0.0910   -0.5890   -1.3280 C   0  0  0  0  0  0  0  0  0  0  0  0
    1.1910   -0.7960   -1.2140 C   0  0  0  0  0  0  0  0  0  0  0  0
    1.5870   -0.9880    0.2080 C   0  0  1  0  0  0  0  0  0  0  0  0
    2.7550   -0.1880    0.4920 N   0  0  0  0  0  0  0  0  0  0  0  0
    3.9820   -0.9220    0.4340 C   0  0  0  0  0  0  0  0  0  0  0  0
    5.1300   -0.1230   -0.1460 C   0  0  0  0  0  0  0  0  0  0  0  0
    5.4210    1.1100    0.6580 C   0  0  1  0  0  0  0  0  0  0  0  0
    4.3710    1.9750    0.7390 F   0  0  0  0  0  0  0  0  0  0  0  0
    5.8890    0.7220    1.8990 F   0  0  0  0  0  0  0  0  0  0  0  0
    6.4570    1.7800    0.0170 F   0  0  0  0  0  0  0  0  0  0  0  0
    0.3420   -0.4420    0.9040 C   0  0  0  0  0  0  0  0  0  0  0  0
   -0.7320   -0.6080   -0.0550 N   0  0  0  0  0  0  0  0  0  0  0  0
   -2.1010   -0.7660    0.2270 C   0  0  2  0  0  0  0  0  0  0  0  0
   -3.0070   -0.9040   -0.9740 C   0  0  0  0  0  0  0  0  0  0  0  0
   -4.3740   -1.0010   -0.3010 C   0  0  0  0  0  0  0  0  0  0  0  0
   -4.2290   -0.3430    1.0510 C   0  0  0  0  0  0  0  0  0  0  0  0
   -2.8000    0.2530    1.0380 C   0  0  2  0  0  0  0  0  0  0  0  0
   -2.9550    1.6140    0.4740 C   0  0  0  0  0  0  0  0  0  0  0  0
   -1.7320    2.3100    0.1700 N   0  0  0  0  0  0  0  0  0  0  0  0
  1  2  1  0
  2  3  2  0
  2 13  1  0
  3  4  1  0
  4  5  1  1
  4 12  1  0
  5  6  1  0
  6  7  1  0
  7  8  1  0
  8  9  1  1
  8 10  1  0
  8 11  1  0
 12 13  1  0
 14 13  1  6
 14 15  1  0
 14 18  1  0
 15 16  1  0
 16 17  1  0
 17 18  1  0
 18 19  1  6
 19 20  1  0
M  CHG  2   5   1  20   1
M  END
