
     RDKit          3D

 20 21  0  0  0  0  0  0  0  0999 V2000
    4.3260    0.5090    0.3350 N   0  0  0  0  0  0  0  0  0  0  0  0
    3.5880   -0.3520    1.2020 C   0  0  0  0  0  0  0  0  0  0  0  0
    2.1950   -0.6520    0.7010 C   0  0  2  0  0  0  0  0  0  0  0  0
    2.2110   -1.3310   -0.6490 C   0  0  0  0  0  0  0  0  0  0  0  0
    1.2920   -2.5200   -0.5300 C   0  0  0  0  0  0  0  0  0  0  0  0
   -0.0910   -2.0850   -0.4220 C   0  0  0  0  0  0  0  0  0  0  0  0
   -0.6490   -0.8670   -0.2090 C   0  0  0  0  0  0  0  0  0  0  0  0
   -2.0970   -0.8620   -0.1680 C   0  0  0  0  0  0  0  0  0  0  0  0
   -2.9860    0.0690    0.0130 C   0  0  0  0  0  0  0  0  0  0  0  0
   -4.3310   -0.4500   -0.0400 N   0  0  0  0  0  0  0  0  0  0  0  0
   -4.2460   -1.8260    0.0150 N   0  0  0  0  0  0  0  0  0  0  0  0
   -2.9060   -2.1170   -0.3440 C   0  0  0  0  0  0  0  0  0  0  0  0
    0.0920    0.3280   -0.0770 N   0  0  0  0  0  0  0  0  0  0  0  0
   -0.4330    1.5120   -0.7210 C   0  0  0  0  0  0  0  0  0  0  0  0
   -0.6780    2.6510    0.2270 C   0  0  0  0  0  0  0  0  0  0  0  0
   -1.2540    3.8560   -0.4690 C   0  0  1  0  0  0  0  0  0  0  0  0
   -1.4760    4.8980    0.4070 F   0  0  0  0  0  0  0  0  0  0  0  0
   -0.4050    4.3230   -1.4500 F   0  0  0  0  0  0  0  0  0  0  0  0
   -2.4690    3.5710   -1.0650 F   0  0  0  0  0  0  0  0  0  0  0  0
    1.3740    0.5930    0.5410 C   0  0  0  0  0  0  0  0  0  0  0  0
  1  2  1  0
  3  2  1  6
  3  4  1  0
  3 20  1  0
  4  5  1  0
  5  6  1  0
  6  7  2  0
  7  8  1  0
  7 13  1  0
  8  9  2  0
  8 12  1  0
  9 10  1  0
 10 11  1  0
 11 12  1  0
 13 14  1  0
 13 20  1  0
 14 15  1  0
 15 16  1  0
 16 17  1  1
 16 18  1  0
 16 19  1  0
M  CHG  2   1   1  11   1
M  END
