
     RDKit          3D

 11 11  0  0  0  0  0  0  0  0999 V2000
    2.4870   -1.4300   -0.1240 O   0  0  0  0  0  0  0  0  0  0  0  0
    2.6400   -0.2610    0.2790 C   0  0  0  0  0  0  0  0  0  0  0  0
    3.9650    0.1150    0.5620 O   0  0  0  0  0  0  0  0  0  0  0  0
    1.6000    0.6670    0.4600 N   0  0  0  0  0  0  0  0  0  0  0  0
    0.2420    0.4100    0.2130 C   0  0  0  0  0  0  0  0  0  0  0  0
   -0.2540   -0.7140   -0.2170 C   0  0  0  0  0  0  0  0  0  0  0  0
   -1.7160   -0.9440   -0.4680 C   0  0  0  0  0  0  0  0  0  0  0  0
   -2.6020    0.0770    0.1530 C   0  0  0  0  0  0  0  0  0  0  0  0
   -2.0370    1.3470    0.2450 O   0  0  0  0  0  0  0  0  0  0  0  0
   -0.7040    1.5130    0.4610 C   0  0  0  0  0  0  0  0  0  0  0  0
   -0.2890    2.6440    0.8830 O   0  0  0  0  0  0  0  0  0  0  0  0
  1  2  2  0
  2  3  1  0
  2  4  1  0
  4  5  1  0
  5  6  2  0
  5 10  1  0
  6  7  1  0
  7  8  1  0
  8  9  1  0
  9 10  1  0
 10 11  2  0
M  END
