
     RDKit          3D

 11 11  0  0  0  0  0  0  0  0999 V2000
   -0.0480   -1.9630    0.1880 C   0  0  0  0  0  0  0  0  0  0  0  0
   -0.5310   -0.5450    0.1580 C   0  0  0  0  0  0  0  0  0  0  0  0
    0.3340    0.3970   -0.1220 C   0  0  0  0  0  0  0  0  0  0  0  0
    1.7240    0.0030   -0.3900 C   0  0  0  0  0  0  0  0  0  0  0  0
    2.6400    1.0380   -0.6910 N   0  0  0  0  0  0  0  0  0  0  0  0
    2.1300   -1.1500   -0.3690 O   0  0  0  0  0  0  0  0  0  0  0  0
   -0.0080    1.7620   -0.1780 O   0  0  0  0  0  0  0  0  0  0  0  0
   -1.3260    2.0650    0.0830 C   0  0  0  0  0  0  0  0  0  0  0  0
   -1.7530    3.2770    0.0610 O   0  0  0  0  0  0  0  0  0  0  0  0
   -2.2440    1.0920    0.3780 O   0  0  0  0  0  0  0  0  0  0  0  0
   -1.9540   -0.2400    0.4420 C   0  0  0  0  0  0  0  0  0  0  0  0
  1  2  1  0
  2  3  2  0
  2 11  1  0
  3  4  1  0
  3  7  1  0
  4  5  1  0
  4  6  2  0
  7  8  1  0
  8  9  2  0
  8 10  1  0
 10 11  1  0
M  END
