
     RDKit          3D

 11 11  0  0  0  0  0  0  0  0999 V2000
    3.9670   -0.8870   -0.1470 O   0  0  0  0  0  0  0  0  0  0  0  0
    3.4640    0.2850   -0.1170 C   0  0  0  0  0  0  0  0  0  0  0  0
    4.3180    1.3430    0.0350 O   0  0  0  0  0  0  0  0  0  0  0  0
    2.0990    0.4230   -0.2380 O   0  0  0  0  0  0  0  0  0  0  0  0
    1.2260   -0.6830   -0.3940 C   0  0  0  0  0  0  0  0  0  0  0  0
   -0.1830   -0.1440   -0.4930 C   0  0  1  0  0  0  0  0  0  0  0  0
   -1.1450   -1.3180   -0.6490 C   0  0  0  0  0  0  0  0  0  0  0  0
   -2.5130   -0.8970   -0.3350 N   0  0  0  0  0  0  0  0  0  0  0  0
   -2.5760    0.5510   -0.3890 C   0  0  0  0  0  0  0  0  0  0  0  0
   -1.6720    1.2070    0.6290 C   0  0  0  0  0  0  0  0  0  0  0  0
   -0.4440    0.5480    0.6900 O   0  0  0  0  0  0  0  0  0  0  0  0
  1  2  2  0
  2  3  1  0
  2  4  1  0
  4  5  1  0
  6  5  1  1
  6  7  1  0
  6 11  1  0
  7  8  1  0
  8  9  1  0
  9 10  1  0
 10 11  1  0
M  END
