
     RDKit          3D

 11 11  0  0  0  0  0  0  0  0999 V2000
    3.8180   -0.0690    0.6670 N   0  0  0  0  0  0  0  0  0  0  0  0
    2.5070   -0.2320    0.1600 C   0  0  0  0  0  0  0  0  0  0  0  0
    2.2250   -1.0000   -0.8060 O   0  0  0  0  0  0  0  0  0  0  0  0
    1.4460    0.4630    0.7190 O   0  0  0  0  0  0  0  0  0  0  0  0
    0.1400    0.3320    0.2500 C   0  0  0  0  0  0  0  0  0  0  0  0
   -0.6650   -0.5860    0.7540 C   0  0  0  0  0  0  0  0  0  0  0  0
   -2.0460   -0.7750    0.3050 C   0  0  0  0  0  0  0  0  0  0  0  0
   -2.6270    0.3740   -0.4450 C   0  0  0  0  0  0  0  0  0  0  0  0
   -1.6470    1.0470   -1.2400 O   0  0  0  0  0  0  0  0  0  0  0  0
   -0.3450    1.2080   -0.8000 C   0  0  0  0  0  0  0  0  0  0  0  0
    0.3490    2.1040   -1.3340 O   0  0  0  0  0  0  0  0  0  0  0  0
  1  2  1  0
  2  3  2  0
  2  4  1  0
  4  5  1  0
  5  6  2  0
  5 10  1  0
  6  7  1  0
  7  8  1  0
  8  9  1  0
  9 10  1  0
 10 11  2  0
M  END
