
     RDKit          3D

 11 11  0  0  0  0  0  0  0  0999 V2000
    3.4430   -1.0990   -0.0860 O   0  0  0  0  0  0  0  0  0  0  0  0
    3.0900    0.0330    0.3300 C   0  0  0  0  0  0  0  0  0  0  0  0
    4.0740    0.9070    0.7370 O   0  0  0  0  0  0  0  0  0  0  0  0
    1.7020    0.3420    0.3540 N   0  0  0  0  0  0  0  0  0  0  0  0
    0.6940   -0.5680   -0.0690 C   0  0  0  0  0  0  0  0  0  0  0  0
    1.1120   -1.6950   -0.4780 O   0  0  0  0  0  0  0  0  0  0  0  0
   -0.7160   -0.2750   -0.0530 C   0  0  0  0  0  0  0  0  0  0  0  0
   -1.2930    0.8470    0.3430 C   0  0  0  0  0  0  0  0  0  0  0  0
   -2.7700    0.6870    0.1790 C   0  0  0  0  0  0  0  0  0  0  0  0
   -2.9220   -0.6850    0.2810 O   0  0  0  0  0  0  0  0  0  0  0  0
   -1.8280   -1.1610   -0.4740 C   0  0  0  0  0  0  0  0  0  0  0  0
  1  2  2  0
  2  3  1  0
  2  4  1  0
  4  5  1  0
  5  6  2  0
  5  7  1  0
  7  8  2  0
  7 11  1  0
  8  9  1  0
  9 10  1  0
 10 11  1  0
M  END
