
     RDKit          3D

 11 11  0  0  0  0  0  0  0  0999 V2000
    2.2830   -1.3550    0.0540 C   0  0  0  0  0  0  0  0  0  0  0  0
    1.6510   -0.0240    0.1120 C   0  0  0  0  0  0  0  0  0  0  0  0
    2.3590    1.0050    0.1710 O   0  0  0  0  0  0  0  0  0  0  0  0
    0.1900    0.0640    0.0990 C   0  0  0  0  0  0  0  0  0  0  0  0
   -0.4370    1.2300    0.1490 C   0  0  0  0  0  0  0  0  0  0  0  0
    0.3500    2.4170    0.2170 N   0  0  0  0  0  0  0  0  0  0  0  0
   -1.8220    1.2510    0.1340 O   0  0  0  0  0  0  0  0  0  0  0  0
   -2.6000    0.1050    0.0690 C   0  0  0  0  0  0  0  0  0  0  0  0
   -3.8150    0.0610    0.3920 O   0  0  0  0  0  0  0  0  0  0  0  0
   -1.9140   -1.1270   -0.4210 C   0  0  0  0  0  0  0  0  0  0  0  0
   -0.5970   -1.0790    0.0340 O   0  0  0  0  0  0  0  0  0  0  0  0
  1  2  1  0
  2  3  2  0
  2  4  1  0
  4  5  2  0
  4 11  1  0
  5  6  1  0
  5  7  1  0
  7  8  1  0
  8  9  2  0
  8 10  1  0
 10 11  1  0
M  END
