
     RDKit          3D

 26 28  0  0  0  0  0  0  0  0999 V2000
    5.4980    1.6140    3.4040 C   0  0  0  0  0  0  0  0  0  0  0  0
    4.7150    1.2360    2.4140 C   0  0  0  0  0  0  0  0  0  0  0  0
    3.4110    1.5390    2.4800 O   0  0  0  0  0  0  0  0  0  0  0  0
    2.5500    1.2180    1.5650 C   0  0  0  0  0  0  0  0  0  0  0  0
    1.2050    1.5460    1.6620 C   0  0  0  0  0  0  0  0  0  0  0  0
    0.3140    1.1820    0.6570 C   0  0  0  0  0  0  0  0  0  0  0  0
    0.7020    0.4960   -0.4580 C   0  0  0  0  0  0  0  0  0  0  0  0
   -0.1320    0.0920   -1.5300 N   0  0  0  0  0  0  0  0  0  0  0  0
   -1.4890    0.3600   -1.7070 C   0  0  0  0  0  0  0  0  0  0  0  0
   -2.0970    1.0270   -0.8650 O   0  0  0  0  0  0  0  0  0  0  0  0
   -2.2400   -0.1000   -2.8310 N   0  0  0  0  0  0  0  0  0  0  0  0
   -3.6410    0.2000   -2.9790 C   0  0  0  0  0  0  0  0  0  0  0  0
   -4.5060   -0.6350   -2.0980 C   0  0  0  0  0  0  0  0  0  0  0  0
   -4.9780   -1.8920   -2.4260 C   0  0  0  0  0  0  0  0  0  0  0  0
   -5.7160   -2.3160   -1.3970 N   0  0  0  0  0  0  0  0  0  0  0  0
   -5.7370   -1.3810   -0.4190 C   0  0  0  0  0  0  0  0  0  0  0  0
   -6.4040   -1.4470    0.8270 N   0  0  0  0  0  0  0  0  0  0  0  0
   -6.3140   -0.3520    1.7440 C   0  0  0  0  0  0  0  0  0  0  0  0
   -4.9810   -0.3570   -0.8840 N   0  0  0  0  0  0  0  0  0  0  0  0
    2.0660    0.1840   -0.5190 C   0  0  0  0  0  0  0  0  0  0  0  0
    2.9710    0.5270    0.4530 C   0  0  0  0  0  0  0  0  0  0  0  0
    4.3140    0.1990    0.3550 C   0  0  0  0  0  0  0  0  0  0  0  0
    4.6850   -0.4230   -0.6490 O   0  0  0  0  0  0  0  0  0  0  0  0
    5.2270    0.5480    1.3420 C   0  0  0  0  0  0  0  0  0  0  0  0
    6.5070    0.2280    1.2360 C   0  0  0  0  0  0  0  0  0  0  0  0
    7.0020   -0.5170    0.0530 C   0  0  0  0  0  0  0  0  0  0  0  0
  1  2  2  0
  2  3  1  0
  2 24  1  0
  3  4  1  0
  4  5  2  0
  4 21  1  0
  5  6  1  0
  6  7  2  0
  7  8  1  0
  7 20  1  0
  8  9  1  0
  9 10  2  0
  9 11  1  0
 11 12  1  0
 12 13  1  0
 13 14  2  0
 13 19  1  0
 14 15  1  0
 15 16  1  0
 16 17  1  0
 16 19  2  0
 17 18  1  0
 20 21  2  0
 21 22  1  0
 22 23  2  0
 22 24  1  0
 24 25  2  3
 25 26  1  0
M  END
