
     RDKit          3D

 26 28  0  0  0  0  0  0  0  0999 V2000
    3.3880    0.7000    0.6150 O   0  0  0  0  0  0  0  0  0  0  0  0
    3.0280    0.1630   -0.4440 C   0  0  0  0  0  0  0  0  0  0  0  0
    1.6760    0.4060   -1.0450 C   0  0  0  0  0  0  0  0  0  0  0  0
    0.9170    1.3170   -0.2250 N   0  0  0  0  0  0  0  0  0  0  0  0
   -0.3900    1.6880   -0.6040 C   0  0  0  0  0  0  0  0  0  0  0  0
   -0.9360    1.2390   -1.6630 O   0  0  0  0  0  0  0  0  0  0  0  0
   -1.1060    2.5980    0.2470 N   0  0  0  0  0  0  0  0  0  0  0  0
   -2.4410    3.0310   -0.0270 C   0  0  0  0  0  0  0  0  0  0  0  0
   -3.4130    1.9350    0.0330 C   0  0  0  0  0  0  0  0  0  0  0  0
   -2.9980    0.7610    0.4140 C   0  0  0  0  0  0  0  0  0  0  0  0
   -3.8200   -0.4650    0.5340 C   0  0  0  0  0  0  0  0  0  0  0  0
   -3.2800   -1.6720    0.5780 C   0  0  0  0  0  0  0  0  0  0  0  0
   -4.3730   -2.6580    0.6980 C   0  0  0  0  0  0  0  0  0  0  0  0
   -5.6100   -1.8480    0.7170 C   0  0  0  0  0  0  0  0  0  0  0  0
   -5.2650   -0.5950    0.6220 C   0  0  0  0  0  0  0  0  0  0  0  0
   -6.2060    0.4890    0.6050 N   0  0  0  0  0  0  0  0  0  0  0  0
   -5.9950    1.7530    0.0400 N   0  0  0  0  0  0  0  0  0  0  0  0
   -4.7730    2.3430   -0.3650 C   0  0  0  0  0  0  0  0  0  0  0  0
   -4.8650    3.3350   -1.1620 O   0  0  0  0  0  0  0  0  0  0  0  0
    3.8810   -0.7150   -1.1490 N   0  0  0  0  0  0  0  0  0  0  0  0
    5.1960   -1.0810   -0.7670 C   0  0  0  0  0  0  0  0  0  0  0  0
    5.9260   -0.4730    0.2190 C   0  0  0  0  0  0  0  0  0  0  0  0
    7.2250   -0.8960    0.5630 C   0  0  0  0  0  0  0  0  0  0  0  0
    7.8230   -1.9480   -0.0840 C   0  0  0  0  0  0  0  0  0  0  0  0
    7.0960   -2.5660   -1.0790 C   0  0  0  0  0  0  0  0  0  0  0  0
    5.8290   -2.1530   -1.4130 C   0  0  0  0  0  0  0  0  0  0  0  0
  1  2  2  0
  2  3  1  0
  2 20  1  0
  3  4  1  0
  4  5  1  0
  5  6  2  0
  5  7  1  0
  7  8  1  0
  8  9  1  0
  9 10  2  0
  9 18  1  0
 10 11  1  0
 11 12  2  0
 11 15  1  0
 12 13  1  0
 13 14  1  0
 14 15  2  0
 15 16  1  0
 16 17  1  0
 17 18  1  0
 18 19  2  0
 20 21  1  0
 21 22  2  0
 21 26  1  0
 22 23  1  0
 23 24  2  0
 24 25  1  0
 25 26  2  0
M  END
