
     RDKit          3D

 26 27  0  0  0  0  0  0  0  0999 V2000
   -3.1680    1.1140   -1.5270 C   0  0  0  0  0  0  0  0  0  0  0  0
   -3.9400    0.1560   -1.8250 C   0  0  0  0  0  0  0  0  0  0  0  0
   -4.6920   -0.8080   -1.0500 C   0  0  0  0  0  0  0  0  0  0  0  0
   -5.5220   -1.5700   -1.7950 C   0  0  0  0  0  0  0  0  0  0  0  0
   -6.4060   -2.6150   -1.2940 C   0  0  0  0  0  0  0  0  0  0  0  0
   -6.3080   -2.8110    0.1410 C   0  0  0  0  0  0  0  0  0  0  0  0
   -5.5240   -2.1170    0.8810 C   0  0  0  0  0  0  0  0  0  0  0  0
   -4.5970   -1.0110    0.3640 C   0  0  0  0  0  0  0  0  0  0  0  0
   -3.7050   -0.6820    1.2090 C   0  0  0  0  0  0  0  0  0  0  0  0
   -2.4240   -0.0240    1.2220 C   0  0  0  0  0  0  0  0  0  0  0  0
   -1.2310   -0.6220    0.8320 N   0  0  0  0  0  0  0  0  0  0  0  0
   -0.1990    0.2110    1.0400 C   0  0  0  0  0  0  0  0  0  0  0  0
    1.2110   -0.0510    0.9350 C   0  0  0  0  0  0  0  0  0  0  0  0
    1.8860   -0.9400    1.2950 O   0  0  0  0  0  0  0  0  0  0  0  0
    2.0070    1.2210    0.1080 N   0  0  0  0  0  0  0  0  0  0  0  0
    3.3290    0.7690    0.3670 C   0  0  0  0  0  0  0  0  0  0  0  0
    3.7960   -0.0540    1.1400 O   0  0  0  0  0  0  0  0  0  0  0  0
    4.2580    1.4890   -0.5090 N   0  0  0  0  0  0  0  0  0  0  0  0
    5.6470    1.3210   -0.4620 C   0  0  0  0  0  0  0  0  0  0  0  0
    6.1330   -0.0970   -0.6980 C   0  0  0  0  0  0  0  0  0  0  0  0
    7.6120   -0.1110   -0.6030 C   0  0  0  0  0  0  0  0  0  0  0  0
    8.3770   -1.2740   -0.8060 N   0  0  0  0  0  0  0  0  0  0  0  0
    8.2190    0.9690   -0.3250 O   0  0  0  0  0  0  0  0  0  0  0  0
   -0.8010    1.3570    1.5710 C   0  0  0  0  0  0  0  0  0  0  0  0
   -0.0070    2.5510    1.9790 C   0  0  0  0  0  0  0  0  0  0  0  0
   -2.1280    1.2010    1.6750 N   0  0  0  0  0  0  0  0  0  0  0  0
  1  2  2  0
  2  3  1  0
  3  4  2  0
  3  8  1  0
  4  5  1  0
  5  6  1  0
  6  7  2  0
  7  8  1  0
  8  9  2  3
  9 10  1  0
 10 11  2  0
 10 26  1  0
 11 12  1  0
 12 13  1  0
 12 24  2  0
 13 14  2  0
 13 15  1  0
 15 16  1  0
 16 17  2  0
 16 18  1  0
 18 19  1  0
 19 20  1  0
 20 21  1  0
 21 22  1  0
 21 23  2  0
 24 25  1  0
 24 26  1  0
M  END
