
     RDKit          3D

 12 12  0  0  0  0  0  0  0  0999 V2000
   -2.6760    0.5590   -1.3990 O   0  0  0  0  0  0  0  0  0  0  0  0
   -2.7710    0.1460   -0.2160 C   0  0  0  0  0  0  0  0  0  0  0  0
   -4.0740    0.0820    0.2670 O   0  0  0  0  0  0  0  0  0  0  0  0
   -1.7110   -0.2600    0.6810 C   0  0  0  0  0  0  0  0  0  0  0  0
   -0.3490   -0.1990    0.1930 C   0  0  0  0  0  0  0  0  0  0  0  0
    0.1700   -1.3110   -0.4420 C   0  0  0  0  0  0  0  0  0  0  0  0
    1.4680   -1.3240   -0.9360 C   0  0  0  0  0  0  0  0  0  0  0  0
    2.2640   -0.1960   -0.7900 C   0  0  0  0  0  0  0  0  0  0  0  0
    3.5610   -0.1930   -1.2770 O   0  0  0  0  0  0  0  0  0  0  0  0
    1.7710    0.9250   -0.1610 C   0  0  0  0  0  0  0  0  0  0  0  0
    2.5940    2.0420   -0.0290 O   0  0  0  0  0  0  0  0  0  0  0  0
    0.4880    0.8840    0.3050 C   0  0  0  0  0  0  0  0  0  0  0  0
  1  2  2  0
  2  3  1  0
  2  4  1  0
  4  5  1  0
  5  6  2  0
  5 12  1  0
  6  7  1  0
  7  8  2  0
  8  9  1  0
  8 10  1  0
 10 11  1  0
 10 12  2  0
M  END
