
     RDKit          3D

 19 20  0  0  0  0  0  0  0  0999 V2000
    0.5550    3.3500    0.1800 C   0  0  0  0  0  0  0  0  0  0  0  0
    0.1250    2.0590    0.5630 O   0  0  0  0  0  0  0  0  0  0  0  0
    0.8730    0.9450    0.2260 C   0  0  0  0  0  0  0  0  0  0  0  0
    2.1870    1.0440    0.4110 C   0  0  0  0  0  0  0  0  0  0  0  0
    3.1630   -0.0110    0.1190 C   0  0  1  0  0  0  0  0  0  0  0  0
    3.9830   -0.2580    1.2950 N   0  0  0  0  0  0  0  0  0  0  0  0
    2.5710   -1.2790   -0.3870 C   0  0  1  0  0  0  0  0  0  0  0  0
    3.0040   -2.3930    0.4840 N   0  0  0  0  0  0  0  0  0  0  0  0
    1.1200   -1.2860   -0.5670 C   0  0  0  0  0  0  0  0  0  0  0  0
    0.2730   -0.2710   -0.2950 C   0  0  0  0  0  0  0  0  0  0  0  0
   -1.0290   -0.3960   -0.5010 O   0  0  0  0  0  0  0  0  0  0  0  0
   -2.2230    0.0380   -0.2850 N   0  0  0  0  0  0  0  0  0  0  0  0
   -2.8350    1.2760   -0.6450 C   0  0  0  0  0  0  0  0  0  0  0  0
   -2.2430    2.1640   -1.3030 O   0  0  0  0  0  0  0  0  0  0  0  0
   -4.1780    1.3390   -0.1560 N   0  0  0  0  0  0  0  0  0  0  0  0
   -4.4270    0.1230    0.5260 C   0  0  0  0  0  0  0  0  0  0  0  0
   -5.4810   -0.1780    1.1500 O   0  0  0  0  0  0  0  0  0  0  0  0
   -3.2720   -0.7640    0.4110 C   0  0  1  0  0  0  0  0  0  0  0  0
   -3.5180   -1.9300   -0.5440 C   0  0  0  0  0  0  0  0  0  0  0  0
  1  2  1  0
  2  3  1  0
  3  4  2  0
  3 10  1  0
  4  5  1  0
  5  6  1  1
  5  7  1  0
  7  8  1  1
  7  9  1  0
  9 10  2  0
 10 11  1  0
 11 12  1  0
 12 13  1  0
 12 18  1  0
 13 14  2  0
 13 15  1  0
 15 16  1  0
 16 17  2  0
 16 18  1  0
 18 19  1  6
M  CHG  1   8   1
M  END
