
     RDKit          3D

 19 20  0  0  0  0  0  0  0  0999 V2000
    4.0600    2.5180   -0.9820 N   0  0  0  0  0  0  0  0  0  0  0  0
    3.7880    1.1770   -0.6060 N   0  0  0  0  0  0  0  0  0  0  0  0
    2.9780    0.8810    0.4970 C   0  0  0  0  0  0  0  0  0  0  0  0
    2.4900    1.8490    1.1540 O   0  0  0  0  0  0  0  0  0  0  0  0
    2.6280   -0.4780    0.9800 C   0  0  1  0  0  0  0  0  0  0  0  0
    1.1400   -0.5320    1.1360 C   0  0  0  0  0  0  0  0  0  0  0  0
    0.4520   -1.2840    0.1450 N   0  0  0  0  0  0  0  0  0  0  0  0
   -0.9190   -1.0300   -0.0920 C   0  0  0  0  0  0  0  0  0  0  0  0
   -1.6000   -1.6500   -0.9500 O   0  0  0  0  0  0  0  0  0  0  0  0
   -1.6200    0.0150    0.6930 C   0  0  0  0  0  0  0  0  0  0  0  0
   -3.0640    0.1410    0.3150 C   0  0  2  0  0  0  0  0  0  0  0  0
   -3.7580   -1.0490    0.5210 O   0  0  0  0  0  0  0  0  0  0  0  0
   -3.2890    0.7330   -1.0420 C   0  0  0  0  0  0  0  0  0  0  0  0
   -4.3740    1.7640   -0.7560 C   0  0  0  0  0  0  0  0  0  0  0  0
   -4.8470    1.4980    0.5220 O   0  0  0  0  0  0  0  0  0  0  0  0
   -3.6710    1.2170    1.2200 C   0  0  0  0  0  0  0  0  0  0  0  0
    1.0660   -2.3330   -0.6740 C   0  0  0  0  0  0  0  0  0  0  0  0
    2.4740   -1.9300   -0.9430 C   0  0  0  0  0  0  0  0  0  0  0  0
    3.2000   -1.5370    0.2320 N   0  0  0  0  0  0  0  0  0  0  0  0
  1  2  1  0
  2  3  1  0
  3  4  2  0
  5  3  1  6
  5  6  1  0
  5 19  1  0
  6  7  1  0
  7  8  1  0
  7 17  1  0
  8  9  2  0
  8 10  1  0
 10 11  1  0
 11 12  1  6
 11 13  1  0
 11 16  1  0
 13 14  1  0
 14 15  1  0
 15 16  1  0
 17 18  1  0
 18 19  1  0
M  CHG  1  19   1
M  END
