
     RDKit          3D

 19 21  0  0  0  0  0  0  0  0999 V2000
    4.0190    2.1150    0.1670 N   0  0  0  0  0  0  0  0  0  0  0  0
    3.6220    0.7440    0.1140 C   0  0  0  0  0  0  0  0  0  0  0  0
    4.5400   -0.2810    0.1690 C   0  0  0  0  0  0  0  0  0  0  0  0
    4.1280   -1.5540    0.1160 N   0  0  0  0  0  0  0  0  0  0  0  0
    2.7990   -1.8280    0.0080 C   0  0  0  0  0  0  0  0  0  0  0  0
    2.4030   -3.0280   -0.0420 O   0  0  0  0  0  0  0  0  0  0  0  0
    1.8870   -0.8240   -0.0460 N   0  0  0  0  0  0  0  0  0  0  0  0
    2.2730    0.4550    0.0050 C   0  0  0  0  0  0  0  0  0  0  0  0
    1.3060    1.4370   -0.0550 O   0  0  0  0  0  0  0  0  0  0  0  0
   -0.0090    1.1440    0.3410 C   0  0  0  0  0  0  0  0  0  0  0  0
   -0.4480   -0.0960   -0.3850 C   0  0  2  0  0  0  0  0  0  0  0  0
    0.5100   -1.2120   -0.1590 C   0  0  0  0  0  0  0  0  0  0  0  0
   -0.7990    0.0680   -1.8320 C   0  0  2  0  0  0  0  0  0  0  0  0
   -1.2380    1.3220   -2.2220 O   0  0  0  0  0  0  0  0  0  0  0  0
   -1.9600   -0.8970   -1.5950 C   0  0  0  0  0  0  0  0  0  0  0  0
   -1.8640   -0.5350   -0.1280 C   0  0  1  0  0  0  0  0  0  0  0  0
   -1.9160   -1.5920    0.7560 O   0  0  0  0  0  0  0  0  0  0  0  0
   -2.8260    0.5530    0.2640 C   0  0  0  0  0  0  0  0  0  0  0  0
   -4.1600   -0.0200    0.2580 N   0  0  0  0  0  0  0  0  0  0  0  0
  1  2  1  0
  2  3  1  0
  2  8  2  0
  3  4  2  0
  4  5  1  0
  5  6  2  0
  5  7  1  0
  7  8  1  0
  7 12  1  0
  8  9  1  0
  9 10  1  0
 11 10  1  1
 11 12  1  0
 11 13  1  0
 11 16  1  0
 13 14  1  1
 13 15  1  0
 15 16  1  0
 16 17  1  1
 16 18  1  0
 18 19  1  0
M  CHG  1  19   1
M  END
