
     RDKit          3D

 24 25  0  0  0  0  0  0  0  0999 V2000
   -6.0200    0.6270   -1.4510 C   0  0  0  0  0  0  0  0  0  0  0  0
   -5.2070    0.7940   -0.1710 C   0  0  2  0  0  0  0  0  0  0  0  0
   -4.1280   -0.1700   -0.2230 N   0  0  0  0  0  0  0  0  0  0  0  0
   -2.7710    0.2060   -0.2310 C   0  0  0  0  0  0  0  0  0  0  0  0
   -2.4680    1.4130   -0.1920 O   0  0  0  0  0  0  0  0  0  0  0  0
   -1.6980   -0.7330   -0.2820 N   0  0  0  0  0  0  0  0  0  0  0  0
   -0.3140   -0.3160   -0.2890 C   0  0  1  0  0  0  0  0  0  0  0  0
    0.4570   -0.8100    0.8900 C   0  0  0  0  0  0  0  0  0  0  0  0
    1.5790   -1.6670    0.2950 C   0  0  0  0  0  0  0  0  0  0  0  0
    1.8290   -0.9630   -1.0190 C   0  0  2  0  0  0  0  0  0  0  0  0
    2.4930    0.2890   -0.8160 N   0  0  0  0  0  0  0  0  0  0  0  0
    3.8210    0.4170   -0.3250 C   0  0  0  0  0  0  0  0  0  0  0  0
    4.6970   -0.5450    0.0000 N   0  0  0  0  0  0  0  0  0  0  0  0
    5.8630   -0.0150    0.4410 C   0  0  0  0  0  0  0  0  0  0  0  0
    7.0430   -0.7740    0.8810 C   0  0  0  0  0  0  0  0  0  0  0  0
    8.1910   -0.0620    1.3160 N   0  0  0  0  0  0  0  0  0  0  0  0
    7.0380   -2.0220    0.8720 O   0  0  0  0  0  0  0  0  0  0  0  0
    5.7090    1.3470    0.3890 C   0  0  0  0  0  0  0  0  0  0  0  0
    4.4740    1.5900   -0.0740 N   0  0  0  0  0  0  0  0  0  0  0  0
    0.4220   -0.7150   -1.5210 C   0  0  0  0  0  0  0  0  0  0  0  0
   -6.0310    0.4960    1.0190 C   0  0  0  0  0  0  0  0  0  0  0  0
   -5.7160   -0.4660    1.7560 O   0  0  0  0  0  0  0  0  0  0  0  0
   -7.1430    1.2340    1.3580 O   0  0  0  0  0  0  0  0  0  0  0  0
   -7.9270    0.9780    2.4590 N   0  0  0  0  0  0  0  0  0  0  0  0
  2  1  1  6
  2  3  1  0
  2 21  1  0
  3  4  1  0
  4  5  2  0
  4  6  1  0
  7  6  1  6
  7  8  1  0
  7 20  1  0
  8  9  1  0
  9 10  1  0
 10 11  1  1
 10 20  1  0
 11 12  1  0
 12 13  1  0
 12 19  2  0
 13 14  1  0
 14 15  1  0
 14 18  2  0
 15 16  1  0
 15 17  2  0
 18 19  1  0
 21 22  2  0
 21 23  1  0
 23 24  1  0
M  CHG  1  19   1
M  END
