
     RDKit          3D

 25 26  0  0  0  0  0  0  0  0999 V2000
    5.8560    1.7450    1.7270 N   0  0  0  0  0  0  0  0  0  0  0  0
    4.4990    1.6750    2.0200 N   0  0  0  0  0  0  0  0  0  0  0  0
    3.6450    0.8090    1.3000 C   0  0  0  0  0  0  0  0  0  0  0  0
    2.4710    0.4420    1.7550 C   0  0  0  0  0  0  0  0  0  0  0  0
    1.5660   -0.4740    0.9950 C   0  0  0  0  0  0  0  0  0  0  0  0
    0.3840   -0.8020    1.5340 C   0  0  0  0  0  0  0  0  0  0  0  0
   -0.6780   -1.6330    1.0690 C   0  0  0  0  0  0  0  0  0  0  0  0
   -1.7660   -1.3800    0.3680 C   0  0  0  0  0  0  0  0  0  0  0  0
   -2.7150   -2.4090    0.0020 O   0  0  0  0  0  0  0  0  0  0  0  0
   -3.9870   -1.9020   -0.1470 C   0  0  0  0  0  0  0  0  0  0  0  0
   -3.8530   -0.4590    0.1760 C   0  0  0  0  0  0  0  0  0  0  0  0
   -2.3450   -0.1940   -0.2050 C   0  0  2  0  0  0  0  0  0  0  0  0
   -2.5010   -0.1940   -1.7000 C   0  0  0  0  0  0  0  0  0  0  0  0
   -2.7500   -1.3200   -2.4880 N   0  0  0  0  0  0  0  0  0  0  0  0
   -2.3960    0.9200   -2.2800 O   0  0  0  0  0  0  0  0  0  0  0  0
   -1.9960    1.1090    0.2840 N   0  0  0  0  0  0  0  0  0  0  0  0
   -0.7530    1.7290    0.4770 C   0  0  0  0  0  0  0  0  0  0  0  0
   -0.6220    2.2410    1.6670 O   0  0  0  0  0  0  0  0  0  0  0  0
    0.3680    1.9060   -0.3540 N   0  0  0  0  0  0  0  0  0  0  0  0
    0.6220    1.4750   -1.6480 N   0  0  0  0  0  0  0  0  0  0  0  0
    0.7530    0.1590   -2.1750 C   0  0  0  0  0  0  0  0  0  0  0  0
    0.2940   -0.0880   -3.3670 O   0  0  0  0  0  0  0  0  0  0  0  0
    1.3670   -0.9720   -1.4980 C   0  0  0  0  0  0  0  0  0  0  0  0
    1.2820   -2.1180   -2.0640 O   0  0  0  0  0  0  0  0  0  0  0  0
    2.0660   -0.9320   -0.2480 N   0  0  0  0  0  0  0  0  0  0  0  0
  1  2  1  0
  2  3  1  0
  3  4  2  3
  4  5  1  0
  5  6  2  0
  5 25  1  0
  6  7  1  0
  7  8  2  0
  8  9  1  0
  8 12  1  0
  9 10  1  0
 10 11  1  0
 11 12  1  0
 12 13  1  6
 12 16  1  0
 13 14  1  0
 13 15  2  0
 16 17  1  0
 17 18  2  0
 17 19  1  0
 19 20  1  0
 20 21  1  0
 21 22  2  0
 21 23  1  0
 23 24  2  0
 23 25  1  0
M  END
