
     RDKit          3D

 25 27  0  0  0  0  0  0  0  0999 V2000
   -5.4130    1.5090    2.2530 N   0  0  0  0  0  0  0  0  0  0  0  0
   -4.8350    1.0410    1.0330 C   0  0  1  0  0  0  0  0  0  0  0  0
   -4.0790   -0.2630    1.1990 C   0  0  0  0  0  0  0  0  0  0  0  0
   -3.9830   -0.7450   -0.2350 C   0  0  2  0  0  0  0  0  0  0  0  0
   -3.9370   -2.1800   -0.3330 N   0  0  0  0  0  0  0  0  0  0  0  0
   -2.7950   -0.1280   -0.9000 C   0  0  0  0  0  0  0  0  0  0  0  0
   -1.5870   -0.4950   -0.2020 N   0  0  0  0  0  0  0  0  0  0  0  0
   -0.2960   -0.0360   -0.6330 C   0  0  0  0  0  0  0  0  0  0  0  0
   -0.3040    0.6940   -1.6430 O   0  0  0  0  0  0  0  0  0  0  0  0
    0.8790   -0.3960    0.0500 N   0  0  0  0  0  0  0  0  0  0  0  0
    2.1820    0.0190   -0.3180 C   0  0  0  0  0  0  0  0  0  0  0  0
    3.2420   -0.4090    0.4400 N   0  0  0  0  0  0  0  0  0  0  0  0
    4.5030   -0.1130    0.2300 C   0  0  0  0  0  0  0  0  0  0  0  0
    4.8040    0.7050   -0.8530 C   0  0  0  0  0  0  0  0  0  0  0  0
    3.7670    1.1460   -1.6250 C   0  0  0  0  0  0  0  0  0  0  0  0
    3.9800    1.8970   -2.6280 O   0  0  0  0  0  0  0  0  0  0  0  0
    2.4790    0.7980   -1.3470 N   0  0  0  0  0  0  0  0  0  0  0  0
    6.1100    1.0570   -1.1330 O   0  0  0  0  0  0  0  0  0  0  0  0
    7.1120    0.5840   -0.3220 C   0  0  0  0  0  0  0  0  0  0  0  0
    8.2140    1.1800   -0.2870 O   0  0  0  0  0  0  0  0  0  0  0  0
    6.9020   -0.6110    0.5030 C   0  0  0  0  0  0  0  0  0  0  0  0
    5.5460   -0.6470    1.1310 C   0  0  0  0  0  0  0  0  0  0  0  0
   -5.2650   -0.2550   -0.7990 C   0  0  0  0  0  0  0  0  0  0  0  0
   -5.7580   -0.5820   -1.9120 O   0  0  0  0  0  0  0  0  0  0  0  0
   -5.8830    0.6590    0.1020 N   0  0  0  0  0  0  0  0  0  0  0  0
  2  1  1  1
  2  3  1  0
  2 25  1  0
  3  4  1  0
  4  5  1  1
  4  6  1  0
  4 23  1  0
  6  7  1  0
  7  8  1  0
  8  9  2  0
  8 10  1  0
 10 11  1  0
 11 12  2  0
 11 17  1  0
 12 13  1  0
 13 14  2  0
 13 22  1  0
 14 15  1  0
 14 18  1  0
 15 16  2  0
 15 17  1  0
 18 19  1  0
 19 20  2  0
 19 21  1  0
 21 22  1  0
 23 24  2  0
 23 25  1  0
M  END
