
     RDKit          3D

 25 26  0  0  0  0  0  0  0  0999 V2000
   -3.8710    0.7420    3.0630 C   0  0  0  0  0  0  0  0  0  0  0  0
   -3.9850    0.2160    1.8870 C   0  0  0  0  0  0  0  0  0  0  0  0
   -2.9060   -0.7060    1.3750 C   0  0  0  0  0  0  0  0  0  0  0  0
   -2.5390   -0.3140    0.0430 N   0  0  0  0  0  0  0  0  0  0  0  0
   -1.1860   -0.3130   -0.3680 C   0  0  0  0  0  0  0  0  0  0  0  0
   -0.8630    0.0570   -1.5390 O   0  0  0  0  0  0  0  0  0  0  0  0
   -0.1430   -0.7150    0.4880 N   0  0  0  0  0  0  0  0  0  0  0  0
    1.1630   -0.6610   -0.0060 N   0  0  0  0  0  0  0  0  0  0  0  0
    2.0150    0.3520    0.3270 C   0  0  0  0  0  0  0  0  0  0  0  0
    1.5900    1.2630    1.1370 O   0  0  0  0  0  0  0  0  0  0  0  0
    3.2740    0.6250   -0.0290 N   0  0  0  0  0  0  0  0  0  0  0  0
    4.5330    0.7940   -0.4520 C   0  0  0  0  0  0  0  0  0  0  0  0
    5.0320    1.8790    0.1020 O   0  0  0  0  0  0  0  0  0  0  0  0
    5.2970    0.0690   -1.3010 N   0  0  0  0  0  0  0  0  0  0  0  0
    6.6560    0.4920   -1.5730 C   0  0  0  0  0  0  0  0  0  0  0  0
    7.5200    0.4660   -0.3790 C   0  0  0  0  0  0  0  0  0  0  0  0
    7.1010    0.0620    0.9090 N   0  0  0  0  0  0  0  0  0  0  0  0
    8.7340    0.8290   -0.4900 O   0  0  0  0  0  0  0  0  0  0  0  0
   -3.5560    0.0790   -0.8790 C   0  0  1  0  0  0  0  0  0  0  0  0
   -3.5720   -0.7930   -2.0950 C   0  0  0  0  0  0  0  0  0  0  0  0
   -2.6540   -1.8670   -2.2400 N   0  0  0  0  0  0  0  0  0  0  0  0
   -4.4380   -0.5150   -2.9610 O   0  0  0  0  0  0  0  0  0  0  0  0
   -4.9400    0.2190   -0.4110 C   0  0  1  0  0  0  0  0  0  0  0  0
   -5.6850   -0.7870    0.3730 C   0  0  0  0  0  0  0  0  0  0  0  0
   -5.1290    0.4820    1.0060 C   0  0  1  0  0  0  0  0  0  0  0  0
  1  2  2  0
  2  3  1  0
  2 25  1  0
  3  4  1  0
  4  5  1  0
  4 19  1  0
  5  6  2  0
  5  7  1  0
  7  8  1  0
  8  9  1  0
  9 10  2  0
  9 11  1  0
 11 12  1  0
 12 13  2  0
 12 14  1  0
 14 15  1  0
 15 16  1  0
 16 17  1  0
 16 18  2  0
 19 20  1  6
 19 23  1  0
 20 21  1  0
 20 22  2  0
 23 24  1  1
 23 25  1  0
 25 24  1  1
M  END
