
     RDKit          3D

 13 14  0  0  0  0  0  0  0  0999 V2000
   -3.2880   -0.4860   -0.2440 N   0  0  0  0  0  0  0  0  0  0  0  0
   -1.9680   -0.7390    0.1690 C   0  0  0  0  0  0  0  0  0  0  0  0
   -1.7150   -1.7010    0.9050 O   0  0  0  0  0  0  0  0  0  0  0  0
   -0.8890    0.1230   -0.2630 C   0  0  0  0  0  0  0  0  0  0  0  0
   -0.9900    1.2240   -1.0720 N   0  0  0  0  0  0  0  0  0  0  0  0
    0.2420    1.7200   -1.2140 C   0  0  0  0  0  0  0  0  0  0  0  0
    1.1640    0.9760   -0.5180 C   0  0  0  0  0  0  0  0  0  0  0  0
    0.4480   -0.0300    0.0810 C   0  0  0  0  0  0  0  0  0  0  0  0
    1.1170   -0.9660    0.8710 O   0  0  0  0  0  0  0  0  0  0  0  0
    2.5220   -1.1510    0.7470 C   0  0  0  0  0  0  0  0  0  0  0  0
    3.1770    0.1490    0.4290 C   0  0  0  0  0  0  0  0  0  0  0  0
    4.3230    0.3380    0.9130 O   0  0  0  0  0  0  0  0  0  0  0  0
    2.5430    1.0960   -0.3630 O   0  0  0  0  0  0  0  0  0  0  0  0
  1  2  1  0
  2  3  2  0
  2  4  1  0
  4  5  1  0
  4  8  2  0
  5  6  1  0
  6  7  2  0
  7  8  1  0
  7 13  1  0
  8  9  1  0
  9 10  1  0
 10 11  1  0
 11 12  2  0
 11 13  1  0
M  CHG  1   1   1
M  END
