
     RDKit          3D

 13 14  0  0  0  0  0  0  0  0999 V2000
    3.9800   -0.4890    1.1840 O   0  0  0  0  0  0  0  0  0  0  0  0
    3.5460    0.2410    0.2090 O   0  0  0  0  0  0  0  0  0  0  0  0
    2.4440   -0.3480   -0.3990 C   0  0  2  0  0  0  0  0  0  0  0  0
    2.7300   -0.6600   -1.7190 O   0  0  0  0  0  0  0  0  0  0  0  0
    1.3180    0.6140   -0.2780 C   0  0  0  0  0  0  0  0  0  0  0  0
    1.3100    1.9400   -0.4960 N   0  0  0  0  0  0  0  0  0  0  0  0
    0.1030    2.4140   -0.2730 O   0  0  0  0  0  0  0  0  0  0  0  0
   -0.7130    1.4810    0.0860 C   0  0  0  0  0  0  0  0  0  0  0  0
    0.0270    0.3100    0.0950 C   0  0  0  0  0  0  0  0  0  0  0  0
   -0.6860   -0.9310    0.4790 C   0  0  0  0  0  0  0  0  0  0  0  0
   -1.9670   -1.0490   -0.1350 N   0  0  0  0  0  0  0  0  0  0  0  0
   -2.6750    0.1640   -0.3330 C   0  0  0  0  0  0  0  0  0  0  0  0
   -2.1420    1.3330    0.4670 C   0  0  0  0  0  0  0  0  0  0  0  0
  1  2  1  0
  2  3  1  0
  3  4  1  6
  3  5  1  0
  5  6  2  0
  5  9  1  0
  6  7  1  0
  7  8  1  0
  8  9  2  0
  8 13  1  0
  9 10  1  0
 10 11  1  0
 11 12  1  0
 12 13  1  0
M  CHG  1  11   1
M  END
