
     RDKit          3D

 13 13  0  0  0  0  0  0  0  0999 V2000
    4.9900   -0.1250    0.9530 C   0  0  0  0  0  0  0  0  0  0  0  0
    3.5970   -0.3240    1.0900 O   0  0  0  0  0  0  0  0  0  0  0  0
    2.6810   -0.0110    0.1060 C   0  0  0  0  0  0  0  0  0  0  0  0
    3.0780    0.4780   -0.9790 O   0  0  0  0  0  0  0  0  0  0  0  0
    1.3320   -0.2480    0.3430 O   0  0  0  0  0  0  0  0  0  0  0  0
    0.3540    0.0430   -0.6030 C   0  0  2  0  0  0  0  0  0  0  0  0
   -0.7690    0.9160   -0.0450 C   0  0  0  0  0  0  0  0  0  0  0  0
   -1.9880    0.4250   -0.6360 N   0  0  0  0  0  0  0  0  0  0  0  0
   -2.8910   -0.1140    0.3610 C   0  0  0  0  0  0  0  0  0  0  0  0
   -3.2740    0.8700    1.3420 N   0  0  0  0  0  0  0  0  0  0  0  0
   -1.6330   -0.6180   -1.5790 C   0  0  0  0  0  0  0  0  0  0  0  0
   -0.4440   -1.2380   -0.8790 C   0  0  1  0  0  0  0  0  0  0  0  0
    0.2640   -2.1060   -1.6880 O   0  0  0  0  0  0  0  0  0  0  0  0
  1  2  1  0
  2  3  1  0
  3  4  2  0
  3  5  1  0
  6  5  1  1
  6  7  1  0
  6 12  1  0
  7  8  1  0
  8  9  1  0
  8 11  1  0
  9 10  1  0
 11 12  1  0
 12 13  1  6
M  CHG  1  10   1
M  END
