
     RDKit          3D

 13 14  0  0  0  0  0  0  0  0999 V2000
    3.5960    0.4810   -0.3050 N   0  0  0  0  0  0  0  0  0  0  0  0
    2.6850   -0.4940   -0.7840 C   0  0  0  0  0  0  0  0  0  0  0  0
    2.9490   -1.1830   -1.7970 O   0  0  0  0  0  0  0  0  0  0  0  0
    1.4150   -0.7000   -0.0840 C   0  0  1  0  0  0  0  0  0  0  0  0
    0.5800    0.4700   -0.0470 N   0  0  0  0  0  0  0  0  0  0  0  0
   -0.7600   -0.0350   -0.1720 C   0  0  1  0  0  0  0  0  0  0  0  0
   -1.7230    0.5300    0.8200 C   0  0  0  0  0  0  0  0  0  0  0  0
   -2.9620    0.9290    0.0310 C   0  0  0  0  0  0  0  0  0  0  0  0
   -2.5620    0.9120   -1.3320 O   0  0  0  0  0  0  0  0  0  0  0  0
   -1.3590    0.2700   -1.4880 C   0  0  0  0  0  0  0  0  0  0  0  0
   -0.7890   -0.0460   -2.5780 O   0  0  0  0  0  0  0  0  0  0  0  0
   -0.5790   -1.5340   -0.0430 C   0  0  0  0  0  0  0  0  0  0  0  0
    0.6570   -1.7020   -0.7080 O   0  0  0  0  0  0  0  0  0  0  0  0
  1  2  1  0
  2  3  2  0
  4  2  1  6
  4  5  1  0
  4 13  1  0
  5  6  1  0
  6  7  1  1
  6 10  1  0
  6 12  1  0
  7  8  1  0
  8  9  1  0
  9 10  1  0
 10 11  2  0
 12 13  1  0
M  CHG  1   5   1
M  END
