
     RDKit          3D

 13 14  0  0  0  0  0  0  0  0999 V2000
   -3.0240    1.3320    0.0540 C   0  0  0  0  0  0  0  0  0  0  0  0
   -1.7720    0.6170   -0.0760 C   0  0  0  0  0  0  0  0  0  0  0  0
   -0.1840    1.2140    0.4650 S   0  0  0  0  0  0  0  0  0  0  0  0
    0.7800   -0.2040   -0.0410 C   0  0  0  0  0  0  0  0  0  0  0  0
    2.0490   -0.8200   -0.1220 C   0  0  0  0  0  0  0  0  0  0  0  0
    3.2640   -0.1980    0.3700 C   0  0  0  0  0  0  0  0  0  0  0  0
    3.2380    1.0880    0.9690 N   0  0  0  0  0  0  0  0  0  0  0  0
    4.3610   -0.7990    0.2680 O   0  0  0  0  0  0  0  0  0  0  0  0
    1.7900   -1.9710   -0.7040 N   0  0  0  0  0  0  0  0  0  0  0  0
    0.5410   -2.1160   -0.9770 O   0  0  0  0  0  0  0  0  0  0  0  0
   -0.1680   -1.0190   -0.5790 C   0  0  0  0  0  0  0  0  0  0  0  0
   -1.4470   -0.6250   -0.6050 C   0  0  0  0  0  0  0  0  0  0  0  0
   -2.8340   -1.6050   -1.2920 S   0  0  0  0  0  0  0  0  0  0  0  0
  1  2  1  0
  2  3  1  0
  2 12  2  0
  3  4  1  0
  4  5  1  0
  4 11  2  0
  5  6  1  0
  5  9  2  0
  6  7  1  0
  6  8  2  0
  9 10  1  0
 10 11  1  0
 11 12  1  0
 12 13  1  0
M  END
