
     RDKit          3D

 12 12  0  0  0  0  0  0  0  0999 V2000
    3.3080    0.2040    1.2760 N   0  0  0  0  0  0  0  0  0  0  0  0
    3.4360   -0.5680    0.1160 C   0  0  0  0  0  0  0  0  0  0  0  0
    4.9300   -1.1190   -0.2820 S   0  0  0  0  0  0  0  0  0  0  0  0
    2.1090   -0.9810   -0.9310 S   0  0  0  0  0  0  0  0  0  0  0  0
    0.4920   -0.5350   -0.4390 C   0  0  0  0  0  0  0  0  0  0  0  0
   -0.4530   -0.6330   -1.3650 C   0  0  0  0  0  0  0  0  0  0  0  0
   -1.9000   -0.3610   -1.3570 C   0  0  0  0  0  0  0  0  0  0  0  0
   -2.4610    0.0670   -0.0490 C   0  0  0  0  0  0  0  0  0  0  0  0
   -1.8510    1.2790    0.5650 C   0  0  0  0  0  0  0  0  0  0  0  0
   -0.7040    0.8790    1.3280 O   0  0  0  0  0  0  0  0  0  0  0  0
    0.2340   -0.0710    0.9140 C   0  0  0  0  0  0  0  0  0  0  0  0
    0.9220   -0.5700    1.8420 O   0  0  0  0  0  0  0  0  0  0  0  0
  1  2  1  0
  2  3  2  0
  2  4  1  0
  4  5  1  0
  5  6  2  0
  5 11  1  0
  6  7  1  0
  7  8  1  0
  8  9  1  0
  9 10  1  0
 10 11  1  0
 11 12  2  0
M  END
