
     RDKit          3D

 13 14  0  0  0  0  0  0  0  0999 V2000
   -4.1400    0.3480    0.6680 O   0  0  0  0  0  0  0  0  0  0  0  0
   -3.5980    0.0580   -0.5730 C   0  0  0  0  0  0  0  0  0  0  0  0
   -2.1250   -0.1670   -0.4480 C   0  0  0  0  0  0  0  0  0  0  0  0
   -1.4320   -1.3070   -0.2120 C   0  0  0  0  0  0  0  0  0  0  0  0
   -0.0960   -1.2480   -0.1430 C   0  0  0  0  0  0  0  0  0  0  0  0
    0.5090   -0.0700   -0.3100 C   0  0  0  0  0  0  0  0  0  0  0  0
    1.9200    0.3730   -0.3030 C   0  0  0  0  0  0  0  0  0  0  0  0
    2.9910   -0.4220   -0.1040 N   0  0  0  0  0  0  0  0  0  0  0  0
    4.0610    0.3780   -0.1780 C   0  0  0  0  0  0  0  0  0  0  0  0
    5.6130   -0.1040   -0.0050 S   0  0  0  0  0  0  0  0  0  0  0  0
    3.5990    1.6130   -0.4170 N   0  0  0  0  0  0  0  0  0  0  0  0
    2.3110    1.6130   -0.4930 O   0  0  0  0  0  0  0  0  0  0  0  0
   -0.9050    1.0650   -0.5870 S   0  0  0  0  0  0  0  0  0  0  0  0
  1  2  1  0
  2  3  1  0
  3  4  2  0
  3 13  1  0
  4  5  1  0
  5  6  2  0
  6  7  1  0
  6 13  1  0
  7  8  2  0
  7 12  1  0
  8  9  1  0
  9 10  2  0
  9 11  1  0
 11 12  1  0
M  END
