
     RDKit          3D

 25 26  0  0  0  0  0  0  0  0999 V2000
    2.5060    1.1580    1.3670 C   0  0  0  0  0  0  0  0  0  0  0  0
    2.7680    0.9590   -0.1040 C   0  0  1  0  0  0  0  0  0  0  0  0
    4.1650    0.4930   -0.2130 N   0  0  0  0  0  0  0  0  0  0  0  0
    1.9000   -0.1060   -0.7270 C   0  0  0  0  0  0  0  0  0  0  0  0
    0.4140    0.1970   -0.6170 C   0  0  1  0  0  0  0  0  0  0  0  0
    0.1970    1.4920   -1.3220 C   0  0  0  0  0  0  0  0  0  0  0  0
   -0.1970    1.4060   -2.5400 O   0  0  0  0  0  0  0  0  0  0  0  0
    0.3770    2.7860   -0.7980 N   0  0  0  0  0  0  0  0  0  0  0  0
   -0.2170    3.3480    0.3550 C   0  0  0  0  0  0  0  0  0  0  0  0
    0.6080    3.7970    1.2350 O   0  0  0  0  0  0  0  0  0  0  0  0
   -1.5810    3.4900    0.6790 N   0  0  0  0  0  0  0  0  0  0  0  0
   -2.6150    2.5480    0.4940 C   0  0  0  0  0  0  0  0  0  0  0  0
   -3.5840    2.8800   -0.2730 O   0  0  0  0  0  0  0  0  0  0  0  0
   -2.6850    1.1790    1.1210 C   0  0  0  0  0  0  0  0  0  0  0  0
   -2.9920    0.3060    0.0890 O   0  0  0  0  0  0  0  0  0  0  0  0
   -3.1370   -1.0280   -0.0100 C   0  0  0  0  0  0  0  0  0  0  0  0
   -4.3160   -1.5020   -0.2410 O   0  0  0  0  0  0  0  0  0  0  0  0
   -2.1220   -2.0720    0.1090 C   0  0  0  0  0  0  0  0  0  0  0  0
   -2.3880   -3.1800    0.8270 C   0  0  0  0  0  0  0  0  0  0  0  0
   -1.4630   -4.3020    1.0290 C   0  0  0  0  0  0  0  0  0  0  0  0
   -0.2590   -4.1060    0.3350 O   0  0  0  0  0  0  0  0  0  0  0  0
    0.0720   -2.9970   -0.4160 C   0  0  0  0  0  0  0  0  0  0  0  0
   -0.7990   -2.0050   -0.5420 C   0  0  0  0  0  0  0  0  0  0  0  0
   -0.3540   -0.8630   -1.3770 C   0  0  2  0  0  0  0  0  0  0  0  0
    0.5240   -1.3170   -2.3930 O   0  0  0  0  0  0  0  0  0  0  0  0
  2  1  1  1
  2  3  1  0
  2  4  1  0
  5  4  1  6
  5  6  1  0
  5 24  1  0
  6  7  2  0
  6  8  1  0
  8  9  1  0
  9 10  2  0
  9 11  1  0
 11 12  1  0
 12 13  2  0
 12 14  1  0
 14 15  1  0
 15 16  1  0
 16 17  2  0
 16 18  1  0
 18 19  2  0
 18 23  1  0
 19 20  1  0
 20 21  1  0
 21 22  1  0
 22 23  2  0
 23 24  1  0
 24 25  1  6
M  CHG  1   3   1
M  END
