
     RDKit          3D

 25 25  0  0  0  0  0  0  0  0999 V2000
   -4.4150    1.8500   -0.2300 C   0  0  0  0  0  0  0  0  0  0  0  0
   -3.7950    0.9680    0.8280 C   0  0  1  0  0  0  0  0  0  0  0  0
   -4.8640    0.6110    1.7500 N   0  0  0  0  0  0  0  0  0  0  0  0
   -3.2920   -0.3010    0.2370 C   0  0  0  0  0  0  0  0  0  0  0  0
   -2.2180   -0.1180   -0.8370 C   0  0  1  0  0  0  0  0  0  0  0  0
   -2.8120    0.6660   -1.8620 O   0  0  0  0  0  0  0  0  0  0  0  0
   -1.1180    0.6990   -0.2810 C   0  0  0  0  0  0  0  0  0  0  0  0
    0.0110    1.0770   -1.1590 C   0  0  0  0  0  0  0  0  0  0  0  0
    1.2420    0.5510   -0.9900 O   0  0  0  0  0  0  0  0  0  0  0  0
    1.8570    0.5580    0.2000 C   0  0  0  0  0  0  0  0  0  0  0  0
    2.5750   -0.6060    0.7200 C   0  0  2  0  0  0  0  0  0  0  0  0
    3.9040   -0.1450    1.3650 C   0  0  0  0  0  0  0  0  0  0  0  0
    4.7660    0.5240    0.3720 C   0  0  0  0  0  0  0  0  0  0  0  0
    4.4530    0.6410   -0.8380 O   0  0  0  0  0  0  0  0  0  0  0  0
    6.0190    1.0750    0.7690 N   0  0  0  0  0  0  0  0  0  0  0  0
    6.8630    1.7240   -0.1730 C   0  0  0  0  0  0  0  0  0  0  0  0
    6.4700    1.7970   -1.3710 O   0  0  0  0  0  0  0  0  0  0  0  0
    2.8350   -1.7450   -0.0970 N   0  0  0  0  0  0  0  0  0  0  0  0
    1.8770   -2.7680   -0.3350 C   0  0  0  0  0  0  0  0  0  0  0  0
    2.2130   -3.9630   -0.4760 O   0  0  0  0  0  0  0  0  0  0  0  0
    0.5110   -2.3380   -0.4020 C   0  0  0  0  0  0  0  0  0  0  0  0
   -0.5730   -3.1960   -0.2730 O   0  0  0  0  0  0  0  0  0  0  0  0
   -1.8020   -2.6180   -0.5850 C   0  0  0  0  0  0  0  0  0  0  0  0
   -2.8220   -3.2100   -0.0670 O   0  0  0  0  0  0  0  0  0  0  0  0
   -1.9850   -1.4430   -1.4210 C   0  0  0  0  0  0  0  0  0  0  0  0
  2  1  1  6
  2  3  1  0
  2  4  1  0
  4  5  1  0
  5  6  1  6
  5  7  1  0
  5 25  1  0
  7  8  1  0
  8  9  1  0
  9 10  1  0
 10 11  1  0
 11 12  1  6
 11 18  1  0
 12 13  1  0
 13 14  2  0
 13 15  1  0
 15 16  1  0
 16 17  2  0
 18 19  1  0
 19 20  2  0
 19 21  1  0
 21 22  1  0
 22 23  1  0
 23 24  2  0
 23 25  1  0
M  CHG  1   3   1
M  END
