
     RDKit          3D

 25 28  0  0  0  0  0  0  0  0999 V2000
    5.3180    2.9350   -0.3020 O   0  0  0  0  0  0  0  0  0  0  0  0
    4.0620    2.9010   -0.2650 C   0  0  0  0  0  0  0  0  0  0  0  0
    3.3310    4.0800   -0.2750 O   0  0  0  0  0  0  0  0  0  0  0  0
    3.3830    1.6100   -0.2120 C   0  0  0  0  0  0  0  0  0  0  0  0
    4.1060    0.4390   -0.2020 C   0  0  0  0  0  0  0  0  0  0  0  0
    3.4820   -0.8120   -0.1520 C   0  0  0  0  0  0  0  0  0  0  0  0
    2.1100   -0.8760   -0.1110 C   0  0  0  0  0  0  0  0  0  0  0  0
    1.3390    0.2980   -0.1190 C   0  0  0  0  0  0  0  0  0  0  0  0
    2.0100    1.5050   -0.1700 C   0  0  0  0  0  0  0  0  0  0  0  0
    0.0010    0.2450   -0.0790 N   0  0  0  0  0  0  0  0  0  0  0  0
   -0.6720   -0.9100   -0.0300 C   0  0  0  0  0  0  0  0  0  0  0  0
   -2.0630   -0.8620    0.0290 N   0  0  0  0  0  0  0  0  0  0  0  0
   -2.8930    0.2880    0.0040 C   0  0  0  0  0  0  0  0  0  0  0  0
   -2.5090    1.5280   -0.3580 C   0  0  0  0  0  0  0  0  0  0  0  0
   -3.3990    2.6080   -0.3300 C   0  0  0  0  0  0  0  0  0  0  0  0
   -4.7000    2.4100    0.0760 C   0  0  0  0  0  0  0  0  0  0  0  0
   -5.1370    1.1600    0.4540 C   0  0  0  0  0  0  0  0  0  0  0  0
   -6.7950    0.9410    0.9630 Cl  0  0  0  0  0  0  0  0  0  0  0  0
   -4.2260    0.1400    0.4080 C   0  0  0  0  0  0  0  0  0  0  0  0
    0.0620   -2.0870   -0.0200 C   0  0  0  0  0  0  0  0  0  0  0  0
   -0.5970   -3.2950    0.0290 C   0  0  0  0  0  0  0  0  0  0  0  0
    0.1600   -4.4540    0.0360 C   0  0  0  0  0  0  0  0  0  0  0  0
    1.4920   -4.3990   -0.0040 N   0  0  0  0  0  0  0  0  0  0  0  0
    2.1820   -3.2430   -0.0520 C   0  0  0  0  0  0  0  0  0  0  0  0
    1.4620   -2.0720   -0.0610 C   0  0  0  0  0  0  0  0  0  0  0  0
  1  2  2  0
  2  3  1  0
  2  4  1  0
  4  5  2  0
  4  9  1  0
  5  6  1  0
  6  7  2  0
  7  8  1  0
  7 25  1  0
  8  9  2  0
  8 10  1  0
 10 11  2  0
 11 12  1  0
 11 20  1  0
 12 13  1  0
 13 14  2  0
 13 19  1  0
 14 15  1  0
 15 16  2  0
 16 17  1  0
 17 18  1  0
 17 19  2  0
 20 21  2  0
 20 25  1  0
 21 22  1  0
 22 23  2  0
 23 24  1  0
 24 25  2  0
M  END
