
     RDKit          3D

 25 25  0  0  0  0  0  0  0  0999 V2000
    1.3430    0.7130   -1.5130 C   0  0  0  0  0  0  0  0  0  0  0  0
    1.0300   -0.1190   -0.2920 C   0  0  1  0  0  0  0  0  0  0  0  0
    2.3430   -0.6850    0.2040 C   0  0  0  0  0  0  0  0  0  0  0  0
    3.3380    0.3340    0.5760 C   0  0  0  0  0  0  0  0  0  0  0  0
    3.0580    1.5450    0.4690 O   0  0  0  0  0  0  0  0  0  0  0  0
    4.6100   -0.0550    1.0550 N   0  0  0  0  0  0  0  0  0  0  0  0
    5.6140    0.8810    1.4320 C   0  0  0  0  0  0  0  0  0  0  0  0
    5.3580    2.1220    1.3340 O   0  0  0  0  0  0  0  0  0  0  0  0
    6.8350    0.4250    1.8920 O   0  0  0  0  0  0  0  0  0  0  0  0
    0.2970    0.5370    0.6740 O   0  0  0  0  0  0  0  0  0  0  0  0
    0.3390    1.7930    1.1920 C   0  0  0  0  0  0  0  0  0  0  0  0
    0.4150    1.8520    2.4860 O   0  0  0  0  0  0  0  0  0  0  0  0
    0.3110    3.0330    0.5300 N   0  0  0  0  0  0  0  0  0  0  0  0
   -0.5930    3.5410   -0.4550 C   0  0  0  0  0  0  0  0  0  0  0  0
   -1.8920    2.8270   -0.5660 C   0  0  0  0  0  0  0  0  0  0  0  0
   -2.0080    1.7150    0.2100 O   0  0  0  0  0  0  0  0  0  0  0  0
   -3.2780    1.2900    0.4600 C   0  0  0  0  0  0  0  0  0  0  0  0
   -3.2700   -0.2330    0.3500 C   0  0  0  0  0  0  0  0  0  0  0  0
   -2.2460   -0.6960   -0.6640 C   0  0  0  0  0  0  0  0  0  0  0  0
   -1.1230   -1.4240   -0.0230 C   0  0  1  0  0  0  0  0  0  0  0  0
   -1.4810   -2.8910    0.0570 C   0  0  0  0  0  0  0  0  0  0  0  0
   -2.7250   -3.1670    0.8620 C   0  0  0  0  0  0  0  0  0  0  0  0
   -2.9750   -4.5600    0.8780 O   0  0  0  0  0  0  0  0  0  0  0  0
    0.1940   -1.3270   -0.7290 C   0  0  1  0  0  0  0  0  0  0  0  0
    0.0670   -1.3960   -2.1820 N   0  0  0  0  0  0  0  0  0  0  0  0
  2  1  1  6
  2  3  1  0
  2 10  1  0
  2 24  1  0
  3  4  1  0
  4  5  2  0
  4  6  1  0
  6  7  1  0
  7  8  2  0
  7  9  1  0
 10 11  1  0
 11 12  2  0
 11 13  1  0
 13 14  1  0
 14 15  1  0
 15 16  1  0
 16 17  1  0
 17 18  1  0
 18 19  1  0
 19 20  1  0
 20 21  1  6
 20 24  1  0
 21 22  1  0
 22 23  1  0
 24 25  1  6
M  CHG  1  25   1
M  END
