
     RDKit          3D

 19 20  0  0  0  0  0  0  0  0999 V2000
    6.2480   -0.6600   -1.4630 C   0  0  0  0  0  0  0  0  0  0  0  0
    5.4330   -0.8240   -0.4400 C   0  0  0  0  0  0  0  0  0  0  0  0
    4.4760    0.2170   -0.0020 C   0  0  0  0  0  0  0  0  0  0  0  0
    3.0740   -0.3330   -0.0910 C   0  0  0  0  0  0  0  0  0  0  0  0
    2.8820   -1.5060   -0.4910 O   0  0  0  0  0  0  0  0  0  0  0  0
    1.9550    0.4570    0.2730 N   0  0  0  0  0  0  0  0  0  0  0  0
    0.6570   -0.0960    0.1760 C   0  0  0  0  0  0  0  0  0  0  0  0
    0.3340   -1.7410   -0.3760 S   0  0  0  0  0  0  0  0  0  0  0  0
   -1.3920   -1.7020   -0.2300 C   0  0  0  0  0  0  0  0  0  0  0  0
   -1.6440   -0.4600    0.2240 C   0  0  0  0  0  0  0  0  0  0  0  0
   -0.6060    0.3970    0.4450 C   0  0  0  0  0  0  0  0  0  0  0  0
   -0.6810    1.7950    0.9270 C   0  0  0  0  0  0  0  0  0  0  0  0
    0.3980    2.4750    1.0110 O   0  0  0  0  0  0  0  0  0  0  0  0
   -1.8800    2.5200    1.3350 C   0  0  0  0  0  0  0  0  0  0  0  0
   -2.5940    3.2360    0.1960 C   0  0  0  0  0  0  0  0  0  0  0  0
   -3.1010   -0.2020    0.4020 C   0  0  0  0  0  0  0  0  0  0  0  0
   -3.9920   -1.1400    0.1260 C   0  0  0  0  0  0  0  0  0  0  0  0
   -3.7220   -2.4870   -0.3630 C   0  0  0  0  0  0  0  0  0  0  0  0
   -2.3050   -2.8170   -0.5460 C   0  0  0  0  0  0  0  0  0  0  0  0
  1  2  2  0
  2  3  1  0
  3  4  1  0
  4  5  2  0
  4  6  1  0
  6  7  1  0
  7  8  1  0
  7 11  2  0
  8  9  1  0
  9 10  2  0
  9 19  1  0
 10 11  1  0
 10 16  1  0
 11 12  1  0
 12 13  2  0
 12 14  1  0
 14 15  1  0
 16 17  2  0
 17 18  1  0
 18 19  1  0
M  END
