
     RDKit          3D

 19 20  0  0  0  0  0  0  0  0999 V2000
   -6.1140   -0.3640    1.6360 C   0  0  0  0  0  0  0  0  0  0  0  0
   -5.5160   -1.7620    1.7820 C   0  0  0  0  0  0  0  0  0  0  0  0
   -4.0820   -1.7050    1.4120 C   0  0  0  0  0  0  0  0  0  0  0  0
   -3.1490   -2.7190    1.3970 C   0  0  0  0  0  0  0  0  0  0  0  0
   -1.9010   -2.4290    1.0260 C   0  0  0  0  0  0  0  0  0  0  0  0
   -1.6020   -1.1430    0.6780 C   0  0  0  0  0  0  0  0  0  0  0  0
   -0.3500   -0.5500    0.2430 C   0  0  0  0  0  0  0  0  0  0  0  0
   -0.3230    0.7320   -0.0210 C   0  0  0  0  0  0  0  0  0  0  0  0
    0.8700    1.4580   -0.4730 C   0  0  0  0  0  0  0  0  0  0  0  0
    0.7680    2.6850   -0.6810 O   0  0  0  0  0  0  0  0  0  0  0  0
    2.1030    0.8080   -0.6730 N   0  0  0  0  0  0  0  0  0  0  0  0
    3.3000    1.4000   -1.0980 C   0  0  0  0  0  0  0  0  0  0  0  0
    3.5010    2.7550   -1.2760 C   0  0  0  0  0  0  0  0  0  0  0  0
    4.7290    3.2400   -1.6850 C   0  0  0  0  0  0  0  0  0  0  0  0
    5.8110    2.4370   -1.9370 C   0  0  0  0  0  0  0  0  0  0  0  0
    5.6360    1.0830   -1.7660 C   0  0  0  0  0  0  0  0  0  0  0  0
    4.3930    0.5740   -1.3510 C   0  0  0  0  0  0  0  0  0  0  0  0
    4.3270   -0.7910   -1.2130 O   0  0  0  0  0  0  0  0  0  0  0  0
   -3.1520   -0.3260    0.8880 S   0  0  0  0  0  0  0  0  0  0  0  0
  1  2  1  0
  2  3  1  0
  3  4  2  0
  3 19  1  0
  4  5  1  0
  5  6  2  0
  6  7  1  0
  6 19  1  0
  7  8  2  3
  8  9  1  0
  9 10  2  0
  9 11  1  0
 11 12  1  0
 12 13  2  0
 12 17  1  0
 13 14  1  0
 14 15  2  0
 15 16  1  0
 16 17  2  0
 17 18  1  0
M  END
