
     RDKit          3D

 19 20  0  0  0  0  0  0  0  0999 V2000
   -0.3380   -0.3300   -1.6880 C   0  0  0  0  0  0  0  0  0  0  0  0
    0.0430   -0.9880   -0.4200 C   0  0  0  0  0  0  0  0  0  0  0  0
    1.3880   -1.3990   -0.2550 N   0  0  0  0  0  0  0  0  0  0  0  0
    2.4490   -0.5190    0.0780 C   0  0  0  0  0  0  0  0  0  0  0  0
    3.7450   -0.9640    0.1490 C   0  0  0  0  0  0  0  0  0  0  0  0
    4.7450   -0.0870    0.4750 C   0  0  0  0  0  0  0  0  0  0  0  0
    4.4880    1.2370    0.7360 C   0  0  0  0  0  0  0  0  0  0  0  0
    5.5180    2.1250    1.0680 O   0  0  0  0  0  0  0  0  0  0  0  0
    3.1930    1.6610    0.6610 C   0  0  0  0  0  0  0  0  0  0  0  0
    2.1630    0.7970    0.3330 C   0  0  0  0  0  0  0  0  0  0  0  0
   -0.8180   -1.2090    0.5390 C   0  0  0  0  0  0  0  0  0  0  0  0
   -0.3910   -1.8630    1.7740 C   0  0  0  0  0  0  0  0  0  0  0  0
    0.8150   -2.2080    1.8980 O   0  0  0  0  0  0  0  0  0  0  0  0
   -2.2270   -0.8260    0.4790 C   0  0  0  0  0  0  0  0  0  0  0  0
   -2.8420    0.3280    0.0800 C   0  0  0  0  0  0  0  0  0  0  0  0
   -4.1650    0.4110    0.0990 C   0  0  0  0  0  0  0  0  0  0  0  0
   -4.9420    1.6470   -0.3140 C   0  0  0  0  0  0  0  0  0  0  0  0
   -4.8660   -0.6990    0.5310 C   0  0  0  0  0  0  0  0  0  0  0  0
   -3.5540   -1.8840    0.9160 S   0  0  0  0  0  0  0  0  0  0  0  0
  1  2  1  0
  2  3  1  0
  2 11  2  3
  3  4  1  0
  4  5  2  0
  4 10  1  0
  5  6  1  0
  6  7  2  0
  7  8  1  0
  7  9  1  0
  9 10  2  0
 11 12  1  0
 11 14  1  0
 12 13  2  0
 14 15  2  0
 14 19  1  0
 15 16  1  0
 16 17  1  0
 16 18  2  0
 18 19  1  0
M  END
