
     RDKit          3D

 17 17  0  0  0  0  0  0  0  0999 V2000
    3.8120   -2.4000   -0.4260 C   0  0  0  0  0  0  0  0  0  0  0  0
    2.8810   -1.3470   -0.4550 O   0  0  0  0  0  0  0  0  0  0  0  0
    1.5130   -1.5430   -0.5700 C   0  0  0  0  0  0  0  0  0  0  0  0
    1.1130   -2.7330   -0.6500 O   0  0  0  0  0  0  0  0  0  0  0  0
    0.6130   -0.4460   -0.5960 N   0  0  0  0  0  0  0  0  0  0  0  0
    1.1420    0.8990   -0.4990 C   0  0  0  0  0  0  0  0  0  0  0  0
    1.1950    1.2680    0.9700 C   0  0  0  0  0  0  0  0  0  0  0  0
    1.7440    2.6570    1.0470 C   0  0  0  0  0  0  0  0  0  0  0  0
    2.9460    2.8810    0.8270 O   0  0  0  0  0  0  0  0  0  0  0  0
    0.8680    3.6880    1.3730 O   0  0  0  0  0  0  0  0  0  0  0  0
   -0.8050   -0.6080   -0.7130 C   0  0  0  0  0  0  0  0  0  0  0  0
   -1.6810   -0.7610    0.8950 P   0  0  0  0  0  0  0  0  0  0  0  0
   -2.9690   -1.9350    0.6920 O   0  0  0  0  0  0  0  0  0  0  0  0
   -3.7870   -1.2840   -0.2340 C   0  0  0  0  0  0  0  0  0  0  0  0
   -4.1330    0.3220    0.6590 P   0  0  0  0  0  0  0  0  0  0  0  0
   -4.6950    1.5490   -0.3920 O   0  0  0  0  0  0  0  0  0  0  0  0
   -2.5350    0.7080    1.2650 O   0  0  0  0  0  0  0  0  0  0  0  0
  1  2  1  0
  2  3  1  0
  3  4  2  0
  3  5  1  0
  5  6  1  0
  5 11  1  0
  6  7  1  0
  7  8  1  0
  8  9  2  0
  8 10  1  0
 11 12  1  0
 12 13  1  0
 12 17  1  0
 13 14  1  0
 14 15  1  0
 15 16  1  0
 15 17  1  0
M  END
