
     RDKit          3D

 16 16  0  0  0  0  0  0  0  0999 V2000
   -3.6110    2.2300    0.5790 O   0  0  0  0  0  0  0  0  0  0  0  0
   -4.1640    1.1960   -0.1480 C   0  0  0  0  0  0  0  0  0  0  0  0
   -3.4600   -0.1200    0.0130 C   0  0  0  0  0  0  0  0  0  0  0  0
   -2.0970   -0.1360   -0.4620 N   0  0  0  0  0  0  0  0  0  0  0  0
   -1.8430   -1.5540   -0.6880 C   0  0  0  0  0  0  0  0  0  0  0  0
   -0.5460   -2.0950   -0.2550 C   0  0  0  0  0  0  0  0  0  0  0  0
    0.4190   -1.1600   -0.5020 O   0  0  0  0  0  0  0  0  0  0  0  0
    0.1610   -0.0530    0.3970 C   0  0  1  0  0  0  0  0  0  0  0  0
    1.4950    0.6170    0.4140 C   0  0  0  0  0  0  0  0  0  0  0  0
    1.9580    0.5600   -0.9520 O   0  0  0  0  0  0  0  0  0  0  0  0
    3.6300   -0.0060   -0.8560 P   0  0  0  0  0  0  0  0  0  0  0  0
    3.3850   -1.7740   -0.4790 O   0  0  0  0  0  0  0  0  0  0  0  0
    4.7370    0.7760    0.8340 P   0  0  0  0  0  0  0  0  0  0  0  0
    5.0080    2.4690    0.6800 O   0  0  0  0  0  0  0  0  0  0  0  0
    6.2870   -0.0070    0.8960 O   0  0  0  0  0  0  0  0  0  0  0  0
   -1.1320    0.5130    0.3810 C   0  0  0  0  0  0  0  0  0  0  0  0
  1  2  1  0
  2  3  1  0
  3  4  1  0
  4  5  1  0
  4 16  1  0
  5  6  1  0
  6  7  1  0
  7  8  1  0
  8  9  1  6
  8 16  1  0
  9 10  1  0
 10 11  1  0
 11 12  1  0
 11 13  1  0
 13 14  1  0
 13 15  1  0
M  END
