
     RDKit          3D

 17 16  0  0  0  0  0  0  0  0999 V2000
    5.2940    0.3020    0.3050 C   0  0  0  0  0  0  0  0  0  0  0  0
    3.9590   -0.3050    0.0830 C   0  0  0  0  0  0  0  0  0  0  0  0
    3.8740   -1.4760   -0.2170 O   0  0  0  0  0  0  0  0  0  0  0  0
    2.7090    0.4790    0.2170 C   0  0  0  0  0  0  0  0  0  0  0  0
    1.5790   -0.3430   -0.0490 N   0  0  0  0  0  0  0  0  0  0  0  0
    0.3180    0.3640    0.0650 C   0  0  0  0  0  0  0  0  0  0  0  0
   -0.7590   -0.6410   -0.2450 C   0  0  0  0  0  0  0  0  0  0  0  0
   -2.1600   -0.0940   -0.1690 C   0  0  1  0  0  0  0  0  0  0  0  0
   -2.4080    1.0220   -1.1110 C   0  0  0  0  0  0  0  0  0  0  0  0
   -3.2760    0.9100   -2.0440 O   0  0  0  0  0  0  0  0  0  0  0  0
   -1.7410    2.2350   -1.0540 O   0  0  0  0  0  0  0  0  0  0  0  0
   -3.2920   -1.5190   -0.6370 P   0  0  0  0  0  0  0  0  0  0  0  0
   -3.3320   -2.5820    0.7580 O   0  0  0  0  0  0  0  0  0  0  0  0
   -2.4590   -2.4000   -1.8940 O   0  0  0  0  0  0  0  0  0  0  0  0
   -2.4470    0.4400    1.5760 P   0  0  0  0  0  0  0  0  0  0  0  0
   -3.6730   -0.4680    2.3690 O   0  0  0  0  0  0  0  0  0  0  0  0
   -2.7450    2.1460    1.6980 O   0  0  0  0  0  0  0  0  0  0  0  0
  1  2  1  0
  2  3  2  0
  2  4  1  0
  4  5  1  0
  5  6  1  0
  6  7  1  0
  8  7  1  1
  8  9  1  0
  8 12  1  0
  8 15  1  0
  9 10  2  0
  9 11  1  0
 12 13  1  0
 12 14  1  0
 15 16  1  0
 15 17  1  0
M  END
