
     RDKit          3D

 26 28  0  0  0  0  0  0  0  0999 V2000
   -3.0410    4.2080    1.9380 O   0  0  0  0  0  0  0  0  0  0  0  0
   -2.8150    3.3150    2.8770 O   0  0  0  0  0  0  0  0  0  0  0  0
   -2.1590    2.2300    2.3390 C   0  0  0  0  0  0  0  0  0  0  0  0
   -2.9180    1.5050    1.2910 C   0  0  0  0  0  0  0  0  0  0  0  0
   -4.2100    1.9360    0.9960 C   0  0  0  0  0  0  0  0  0  0  0  0
   -4.9570    1.2670    0.0510 C   0  0  0  0  0  0  0  0  0  0  0  0
   -6.2480    1.6670   -0.2710 O   0  0  0  0  0  0  0  0  0  0  0  0
   -4.3980    0.1700   -0.5870 C   0  0  0  0  0  0  0  0  0  0  0  0
   -5.1300   -0.5040   -1.5110 N   0  0  0  0  0  0  0  0  0  0  0  0
   -4.6510   -1.5710   -2.1480 C   0  0  0  0  0  0  0  0  0  0  0  0
   -3.3800   -2.0090   -1.8670 C   0  0  0  0  0  0  0  0  0  0  0  0
   -2.5990   -1.3700   -0.9490 C   0  0  0  0  0  0  0  0  0  0  0  0
   -3.1120   -0.2550   -0.2900 C   0  0  0  0  0  0  0  0  0  0  0  0
   -2.3750    0.4180    0.6510 C   0  0  0  0  0  0  0  0  0  0  0  0
   -1.1020    0.0170    0.9580 O   0  0  0  0  0  0  0  0  0  0  0  0
    0.0940    0.4190    0.3740 C   0  0  0  0  0  0  0  0  0  0  0  0
    1.2070   -0.3450    1.0990 C   0  0  0  0  0  0  0  0  0  0  0  0
    2.5620    0.0340    0.5230 C   0  0  0  0  0  0  0  0  0  0  0  0
    3.5140   -0.6970    1.2280 O   0  0  0  0  0  0  0  0  0  0  0  0
    4.8100   -0.4690    0.8300 C   0  0  0  0  0  0  0  0  0  0  0  0
    5.0420   -0.8110   -0.6140 C   0  0  0  0  0  0  0  0  0  0  0  0
    6.8410   -0.4430   -0.9800 P   0  0  0  0  0  0  0  0  0  0  0  0
    7.5150   -1.6240   -2.0550 O   0  0  0  0  0  0  0  0  0  0  0  0
    7.7850   -0.4190    0.4660 O   0  0  0  0  0  0  0  0  0  0  0  0
   -1.4730   -2.3010   -1.1430 C   0  0  0  0  0  0  0  0  0  0  0  0
   -2.3360   -2.9620   -2.1150 N   0  0  0  0  0  0  0  0  0  0  0  0
  1  2  1  0
  2  3  1  0
  3  4  1  0
  4  5  2  0
  4 14  1  0
  5  6  1  0
  6  7  1  0
  6  8  2  0
  8  9  1  0
  8 13  1  0
  9 10  2  0
 10 11  1  0
 11 12  2  0
 11 26  1  0
 12 13  1  0
 12 25  1  0
 13 14  2  0
 14 15  1  0
 15 16  1  0
 16 17  1  0
 17 18  1  0
 18 19  1  0
 19 20  1  0
 20 21  1  0
 21 22  1  0
 22 23  1  0
 22 24  1  0
 25 26  1  0
M  END
