
     RDKit          3D

 18 20  0  0  0  0  0  0  0  0999 V2000
    2.8070   -2.9240   -0.9060 C   0  0  0  0  0  0  0  0  0  0  0  0
    2.5160   -1.6690   -1.4910 O   0  0  0  0  0  0  0  0  0  0  0  0
    2.3220   -0.5160   -0.7690 C   0  0  0  0  0  0  0  0  0  0  0  0
    1.1060   -0.0610   -0.2790 C   0  0  0  0  0  0  0  0  0  0  0  0
   -0.1620   -0.6800   -0.4590 N   0  0  0  0  0  0  0  0  0  0  0  0
   -1.3200   -0.2080    0.2270 C   0  0  0  0  0  0  0  0  0  0  0  0
   -1.3770    0.2310    1.4420 N   0  0  0  0  0  0  0  0  0  0  0  0
   -2.7290    0.6260    1.7880 C   0  0  0  0  0  0  0  0  0  0  0  0
   -3.5480   -0.1520    0.7950 C   0  0  1  0  0  0  0  0  0  0  0  0
   -4.7670    0.5280    0.2930 C   0  0  0  0  0  0  0  0  0  0  0  0
   -4.5310    0.7520   -1.1620 C   0  0  0  0  0  0  0  0  0  0  0  0
   -3.4320   -0.2020   -1.5290 C   0  0  0  0  0  0  0  0  0  0  0  0
   -2.6150   -0.1930   -0.3460 N   0  0  0  0  0  0  0  0  0  0  0  0
    1.3760    1.1080    0.3680 C   0  0  0  0  0  0  0  0  0  0  0  0
    2.6770    1.3720    0.2910 O   0  0  0  0  0  0  0  0  0  0  0  0
    3.2630    0.4160   -0.3840 C   0  0  0  0  0  0  0  0  0  0  0  0
    4.7300    0.3830   -0.6670 C   0  0  0  0  0  0  0  0  0  0  0  0
    5.3300    1.5560   -0.0770 N   0  0  0  0  0  0  0  0  0  0  0  0
  1  2  1  0
  2  3  1  0
  3  4  1  0
  3 16  2  0
  4  5  1  0
  4 14  2  0
  5  6  1  0
  6  7  2  0
  6 13  1  0
  7  8  1  0
  9  8  1  1
  9 10  1  0
  9 13  1  0
 10 11  1  0
 11 12  1  0
 12 13  1  0
 14 15  1  0
 15 16  1  0
 16 17  1  0
 17 18  1  0
M  CHG  2   7   1  18   1
M  END
