
     RDKit          3D

 19 20  0  0  0  0  0  0  0  0999 V2000
    4.3880    1.2400    0.0510 N   0  0  0  0  0  0  0  0  0  0  0  0
    4.8290    0.2050   -0.8440 C   0  0  0  0  0  0  0  0  0  0  0  0
    3.6330   -0.3870   -1.5410 C   0  0  2  0  0  0  0  0  0  0  0  0
    2.7500    0.4530   -2.3820 C   0  0  0  0  0  0  0  0  0  0  0  0
    2.2910    0.0610   -1.0300 C   0  0  1  0  0  0  0  0  0  0  0  0
    1.3040   -0.9930   -0.8670 N   0  0  0  0  0  0  0  0  0  0  0  0
    0.3280   -0.9930    0.1650 C   0  0  0  0  0  0  0  0  0  0  0  0
    0.3790    0.0110    0.9500 O   0  0  0  0  0  0  0  0  0  0  0  0
   -0.6320   -2.0130    0.3290 N   0  0  0  0  0  0  0  0  0  0  0  0
   -1.6190   -1.9770    1.3790 C   0  0  0  0  0  0  0  0  0  0  0  0
   -2.5430   -0.8090    1.2880 C   0  0  0  0  0  0  0  0  0  0  0  0
   -2.5380    0.1100    0.3590 C   0  0  0  0  0  0  0  0  0  0  0  0
   -3.6010    1.1140    0.5970 C   0  0  0  0  0  0  0  0  0  0  0  0
   -3.8470    2.1650   -0.1700 C   0  0  0  0  0  0  0  0  0  0  0  0
   -4.9030    3.1150    0.1160 C   0  0  0  0  0  0  0  0  0  0  0  0
   -5.6660    3.0310    1.0960 O   0  0  0  0  0  0  0  0  0  0  0  0
   -4.2540    0.6980    1.7820 N   0  0  0  0  0  0  0  0  0  0  0  0
   -3.6080   -0.5070    2.2350 C   0  0  0  0  0  0  0  0  0  0  0  0
   -3.9290   -1.1510    3.2590 O   0  0  0  0  0  0  0  0  0  0  0  0
  1  2  1  0
  3  2  1  1
  3  4  1  0
  3  5  1  0
  4  5  1  0
  5  6  1  6
  6  7  1  0
  7  8  2  0
  7  9  1  0
  9 10  1  0
 10 11  1  0
 11 12  2  0
 11 18  1  0
 12 13  1  0
 13 14  2  3
 13 17  1  0
 14 15  1  0
 15 16  2  0
 17 18  1  0
 18 19  2  0
M  CHG  1   1   1
M  END
