
     RDKit          3D

 18 19  0  0  0  0  0  0  0  0999 V2000
    0.4640   -2.7220   -1.1640 C   0  0  0  0  0  0  0  0  0  0  0  0
    0.9580   -1.3650   -1.0220 N   0  0  0  0  0  0  0  0  0  0  0  0
    1.3330   -1.0570    0.3470 C   0  0  1  0  0  0  0  0  0  0  0  0
    2.7620   -0.6110    0.3960 C   0  0  0  0  0  0  0  0  0  0  0  0
    2.9570    0.8200    0.1200 C   0  0  0  0  0  0  0  0  0  0  0  0
    4.1070    1.2020   -0.3230 N   0  0  0  0  0  0  0  0  0  0  0  0
    4.3970    2.5290   -0.6160 N   0  0  0  0  0  0  0  0  0  0  0  0
    1.8320    1.7550    0.3610 C   0  0  0  0  0  0  0  0  0  0  0  0
    1.0220    1.1570    1.4910 C   0  0  0  0  0  0  0  0  0  0  0  0
    0.3700   -0.1220    1.0180 C   0  0  1  0  0  0  0  0  0  0  0  0
   -0.6820    0.2660    0.1770 O   0  0  0  0  0  0  0  0  0  0  0  0
   -1.9220   -0.0300    0.7030 C   0  0  2  0  0  0  0  0  0  0  0  0
   -2.6150   -0.9910   -0.2170 C   0  0  0  0  0  0  0  0  0  0  0  0
   -3.9990   -0.5680   -0.6080 C   0  0  0  0  0  0  0  0  0  0  0  0
   -4.0100    0.8410   -1.0980 C   0  0  0  0  0  0  0  0  0  0  0  0
   -4.6590    1.2160   -2.1040 O   0  0  0  0  0  0  0  0  0  0  0  0
   -3.2270    1.7300   -0.3350 O   0  0  0  0  0  0  0  0  0  0  0  0
   -2.7870    1.1790    0.9160 C   0  0  0  0  0  0  0  0  0  0  0  0
  1  2  1  0
  3  2  1  6
  3  4  1  0
  3 10  1  0
  4  5  1  0
  5  6  2  3
  5  8  1  0
  6  7  1  0
  8  9  1  0
  9 10  1  0
 10 11  1  6
 12 11  1  6
 12 13  1  0
 12 18  1  0
 13 14  1  0
 14 15  1  0
 15 16  2  0
 15 17  1  0
 17 18  1  0
M  CHG  1   2   1
M  END
