
     RDKit          3D

 19 20  0  0  0  0  0  0  0  0999 V2000
   -6.7870    0.3660   -0.6680 N   0  0  0  0  0  0  0  0  0  0  0  0
   -5.5080    1.0440   -0.7290 C   0  0  0  0  0  0  0  0  0  0  0  0
   -4.3880    0.0260   -0.6880 C   0  0  2  0  0  0  0  0  0  0  0  0
   -4.3120   -0.6760    0.6380 C   0  0  0  0  0  0  0  0  0  0  0  0
   -2.8600   -1.1020    0.6940 C   0  0  0  0  0  0  0  0  0  0  0  0
   -2.2240   -0.2940   -0.3680 C   0  0  2  0  0  0  0  0  0  0  0  0
   -0.9100    0.3210   -0.0870 C   0  0  0  0  0  0  0  0  0  0  0  0
    0.2210   -0.5930    0.2260 C   0  0  2  0  0  0  0  0  0  0  0  0
    0.0520   -1.4320    1.3720 N   0  0  0  0  0  0  0  0  0  0  0  0
    1.5280    0.1520    0.2740 C   0  0  0  0  0  0  0  0  0  0  0  0
    1.8840    0.8790   -0.7030 O   0  0  0  0  0  0  0  0  0  0  0  0
    2.4260    0.1040    1.3660 N   0  0  0  0  0  0  0  0  0  0  0  0
    3.6360    0.8030    1.3900 N   0  0  0  0  0  0  0  0  0  0  0  0
    4.6400    0.5140    0.6580 C   0  0  0  0  0  0  0  0  0  0  0  0
    5.9220    1.2650    0.6930 C   0  0  0  0  0  0  0  0  0  0  0  0
    6.3570    1.1950   -0.7560 C   0  0  0  0  0  0  0  0  0  0  0  0
    5.8870   -0.1750   -1.1590 C   0  0  0  0  0  0  0  0  0  0  0  0
    4.8010   -0.4940   -0.2940 O   0  0  0  0  0  0  0  0  0  0  0  0
   -3.1500    0.6840   -0.7480 O   0  0  0  0  0  0  0  0  0  0  0  0
  1  2  1  0
  3  2  1  1
  3  4  1  0
  3 19  1  0
  4  5  1  0
  5  6  1  0
  6  7  1  1
  6 19  1  0
  7  8  1  0
  8  9  1  1
  8 10  1  0
 10 11  2  0
 10 12  1  0
 12 13  1  0
 13 14  2  3
 14 15  1  0
 14 18  1  0
 15 16  1  0
 16 17  1  0
 17 18  1  0
M  CHG  1   9   1
M  END
