
     RDKit          3D

 24 26  0  0  0  0  0  0  0  0999 V2000
   -1.3370   -1.4570    2.8600 C   0  0  0  0  0  0  0  0  0  0  0  0
   -0.2410   -0.9690    1.9730 C   0  0  0  0  0  0  0  0  0  0  0  0
    1.0780   -0.9120    2.3250 N   0  0  0  0  0  0  0  0  0  0  0  0
    1.7970   -0.4710    1.3190 N   0  0  0  0  0  0  0  0  0  0  0  0
    0.9950   -0.2250    0.2840 C   0  0  0  0  0  0  0  0  0  0  0  0
    1.7190    0.2250   -0.7460 N   0  0  0  0  0  0  0  0  0  0  0  0
    3.0330    0.2760   -0.3790 C   0  0  0  0  0  0  0  0  0  0  0  0
    4.1940    0.6520   -1.0220 C   0  0  0  0  0  0  0  0  0  0  0  0
    5.4150    0.5970   -0.3790 C   0  0  0  0  0  0  0  0  0  0  0  0
    6.9230    1.0770   -1.1880 S   0  0  0  0  0  0  0  0  0  0  0  0
    7.9500    1.5540   -0.1740 O   0  0  0  0  0  0  0  0  0  0  0  0
    7.5970   -0.3040   -1.9630 O   0  0  0  0  0  0  0  0  0  0  0  0
    5.4640    0.1560    0.9280 C   0  0  0  0  0  0  0  0  0  0  0  0
    4.2930   -0.2160    1.5560 C   0  0  0  0  0  0  0  0  0  0  0  0
    3.0620   -0.1690    0.9330 C   0  0  0  0  0  0  0  0  0  0  0  0
   -0.3280   -0.5370    0.6770 C   0  0  0  0  0  0  0  0  0  0  0  0
   -1.4300   -0.3430   -0.1920 N   0  0  0  0  0  0  0  0  0  0  0  0
   -2.7440   -0.0080    0.1090 C   0  0  0  0  0  0  0  0  0  0  0  0
   -3.1000    0.1820    1.2860 O   0  0  0  0  0  0  0  0  0  0  0  0
   -3.8140    0.1500   -0.9270 C   0  0  0  0  0  0  0  0  0  0  0  0
   -5.1300    0.5120   -0.3290 C   0  0  0  0  0  0  0  0  0  0  0  0
   -6.1360    0.6520   -1.3970 C   0  0  0  0  0  0  0  0  0  0  0  0
   -7.4680    0.9920   -1.0730 N   0  0  0  0  0  0  0  0  0  0  0  0
   -5.8100    0.4680   -2.5880 O   0  0  0  0  0  0  0  0  0  0  0  0
  1  2  1  0
  2  3  2  0
  2 16  1  0
  3  4  1  0
  4  5  1  0
  4 15  1  0
  5  6  1  0
  5 16  2  0
  6  7  1  0
  7  8  2  0
  7 15  1  0
  8  9  1  0
  9 10  1  0
  9 13  2  0
 10 11  2  0
 10 12  1  1
 13 14  1  0
 14 15  2  0
 16 17  1  0
 17 18  1  0
 18 19  2  0
 18 20  1  0
 20 21  1  0
 21 22  1  0
 22 23  1  0
 22 24  2  0
M  END
