
     RDKit          3D

 24 26  0  0  0  0  0  0  0  0999 V2000
    1.5510   -3.0450    1.0100 C   0  0  0  0  0  0  0  0  0  0  0  0
    1.5910   -2.1880   -0.1890 C   0  0  2  0  0  0  0  0  0  0  0  0
    2.2140   -2.9630   -1.3310 C   0  0  0  0  0  0  0  0  0  0  0  0
    2.3240   -0.9700    0.0210 N   0  0  0  0  0  0  0  0  0  0  0  0
    2.5920    0.0780   -0.8570 C   0  0  0  0  0  0  0  0  0  0  0  0
    2.2030    0.0000   -2.0390 O   0  0  0  0  0  0  0  0  0  0  0  0
    3.3190    1.2840   -0.4000 C   0  0  1  0  0  0  0  0  0  0  0  0
    3.9720    1.0530    0.9410 C   0  0  0  0  0  0  0  0  0  0  0  0
    4.8770    2.6420    1.0600 S   0  0  0  0  0  0  0  0  0  0  0  0
    4.8950    2.9860   -0.6870 C   0  0  0  0  0  0  0  0  0  0  0  0
    5.4080    3.9880   -1.2230 O   0  0  0  0  0  0  0  0  0  0  0  0
    4.2190    1.8870   -1.3100 N   0  0  0  0  0  0  0  0  0  0  0  0
    0.1780   -1.7800   -0.5610 C   0  0  0  0  0  0  0  0  0  0  0  0
   -0.3880   -2.1360   -1.6110 O   0  0  0  0  0  0  0  0  0  0  0  0
   -0.4180   -0.9200    0.4130 N   0  0  0  0  0  0  0  0  0  0  0  0
   -1.7490   -0.4240    0.2810 C   0  0  0  0  0  0  0  0  0  0  0  0
   -2.7140   -0.6340   -0.5980 N   0  0  0  0  0  0  0  0  0  0  0  0
   -3.7620    0.2170   -0.4070 C   0  0  0  0  0  0  0  0  0  0  0  0
   -3.4210    1.0120    0.6610 C   0  0  0  0  0  0  0  0  0  0  0  0
   -2.1960    0.6070    1.0720 N   0  0  0  0  0  0  0  0  0  0  0  0
   -4.2980    2.1450    1.1280 C   0  0  0  0  0  0  0  0  0  0  0  0
   -5.0110    2.5310   -0.0320 O   0  0  0  0  0  0  0  0  0  0  0  0
   -5.8340    1.5180   -0.4700 C   0  0  0  0  0  0  0  0  0  0  0  0
   -5.0760    0.3510   -1.0940 C   0  0  0  0  0  0  0  0  0  0  0  0
  2  1  1  1
  2  3  1  0
  2  4  1  0
  2 13  1  0
  4  5  1  0
  5  6  2  0
  7  5  1  6
  7  8  1  0
  7 12  1  0
  8  9  1  0
  9 10  1  0
 10 11  2  0
 10 12  1  0
 13 14  2  0
 13 15  1  0
 15 16  1  0
 16 17  2  0
 16 20  1  0
 17 18  1  0
 18 19  2  0
 18 24  1  0
 19 20  1  0
 19 21  1  0
 21 22  1  0
 22 23  1  0
 23 24  1  0
M  END
