
     RDKit          3D

 24 25  0  0  0  0  0  0  0  0999 V2000
   -8.0760   -0.6450   -1.2980 C   0  0  0  0  0  0  0  0  0  0  0  0
   -6.8100    0.4690   -0.5950 S   0  0  0  0  0  0  0  0  0  0  0  0
   -5.8250   -0.3940    0.5850 C   0  0  0  0  0  0  0  0  0  0  0  0
   -4.5160   -0.5690    0.3390 C   0  0  0  0  0  0  0  0  0  0  0  0
   -3.5380   -1.2410    1.1640 C   0  0  0  0  0  0  0  0  0  0  0  0
   -2.2510   -0.7050    0.6290 C   0  0  0  0  0  0  0  0  0  0  0  0
   -1.1030   -0.6870    1.4260 C   0  0  0  0  0  0  0  0  0  0  0  0
   -1.1070   -1.3090    2.5990 O   0  0  0  0  0  0  0  0  0  0  0  0
    0.1080   -0.1430    1.3040 N   0  0  0  0  0  0  0  0  0  0  0  0
    1.2980    0.4280    1.0940 C   0  0  0  0  0  0  0  0  0  0  0  0
    2.0020    0.3000    2.1900 O   0  0  0  0  0  0  0  0  0  0  0  0
    1.8530    1.0570    0.0400 N   0  0  0  0  0  0  0  0  0  0  0  0
    3.1860    1.5650    0.0440 C   0  0  0  0  0  0  0  0  0  0  0  0
    4.2230    0.5160    0.1510 C   0  0  2  0  0  0  0  0  0  0  0  0
    4.2020   -0.2640    1.2790 O   0  0  0  0  0  0  0  0  0  0  0  0
    5.6270    1.0630   -0.0820 C   0  0  0  0  0  0  0  0  0  0  0  0
    6.2960    0.0770   -0.9330 C   0  0  0  0  0  0  0  0  0  0  0  0
    7.5640   -0.0250   -1.1630 N   0  0  0  0  0  0  0  0  0  0  0  0
    5.3110   -0.7940   -1.5010 N   0  0  0  0  0  0  0  0  0  0  0  0
    4.0330   -0.4140   -1.0290 C   0  0  0  0  0  0  0  0  0  0  0  0
    2.9070   -0.7360   -1.4440 O   0  0  0  0  0  0  0  0  0  0  0  0
   -2.4750   -0.1930   -0.5510 C   0  0  0  0  0  0  0  0  0  0  0  0
   -1.4550    0.4230   -1.4370 C   0  0  0  0  0  0  0  0  0  0  0  0
   -3.8560   -0.0880   -0.8020 N   0  0  0  0  0  0  0  0  0  0  0  0
  1  2  1  0
  2  3  1  0
  3  4  2  3
  4  5  1  0
  4 24  1  0
  5  6  1  0
  6  7  1  0
  6 22  2  0
  7  8  2  0
  7  9  1  0
  9 10  1  0
 10 11  2  0
 10 12  1  0
 12 13  1  0
 13 14  1  0
 14 15  1  1
 14 16  1  0
 14 20  1  0
 16 17  1  0
 17 18  2  0
 17 19  1  0
 19 20  1  0
 20 21  2  0
 22 23  1  0
 22 24  1  0
M  END
