
     RDKit          3D

 23 25  0  0  0  0  0  0  0  0999 V2000
   -0.5150    2.3720    0.1400 N   0  0  0  0  0  0  0  0  0  0  0  0
   -1.0340    1.1020   -0.3200 C   0  0  0  0  0  0  0  0  0  0  0  0
   -2.2870    1.0300   -0.5790 N   0  0  0  0  0  0  0  0  0  0  0  0
   -2.9200   -0.1540   -1.0360 C   0  0  2  0  0  0  0  0  0  0  0  0
   -4.1180   -0.4540   -0.1550 C   0  0  2  0  0  0  0  0  0  0  0  0
   -5.0460    0.7420   -0.2740 C   0  0  0  0  0  0  0  0  0  0  0  0
   -6.1590    0.4500    0.5290 O   0  0  0  0  0  0  0  0  0  0  0  0
   -5.3640    0.0680    2.0110 S   0  0  0  0  0  0  0  0  0  0  0  0
   -5.2790    1.3560    2.7970 O   0  0  0  0  0  0  0  0  0  0  0  0
   -3.7330   -0.3830    1.3290 C   0  0  0  0  0  0  0  0  0  0  0  0
   -2.0550   -1.2680   -1.1890 N   0  0  0  0  0  0  0  0  0  0  0  0
   -0.6710   -1.1730   -0.8990 C   0  0  0  0  0  0  0  0  0  0  0  0
   -0.1490   -0.0470   -0.4790 C   0  0  0  0  0  0  0  0  0  0  0  0
    1.2770    0.1510   -0.1520 C   0  0  0  0  0  0  0  0  0  0  0  0
    1.6630    1.2880    0.2450 O   0  0  0  0  0  0  0  0  0  0  0  0
    2.2450   -0.8670   -0.2580 N   0  0  0  0  0  0  0  0  0  0  0  0
    3.6360   -0.7760    0.0330 C   0  0  0  0  0  0  0  0  0  0  0  0
    4.3010    0.3170    0.4700 C   0  0  0  0  0  0  0  0  0  0  0  0
    5.6630    0.2550    0.7110 C   0  0  0  0  0  0  0  0  0  0  0  0
    6.3410    1.3990    1.1650 O   0  0  0  0  0  0  0  0  0  0  0  0
    6.3810   -0.9030    0.5180 C   0  0  0  0  0  0  0  0  0  0  0  0
    5.6460   -1.9830    0.0710 C   0  0  0  0  0  0  0  0  0  0  0  0
    4.3400   -1.9150   -0.1580 N   0  0  0  0  0  0  0  0  0  0  0  0
  1  2  1  0
  2  3  2  0
  2 13  1  0
  3  4  1  0
  4  5  1  0
  4 11  1  1
  5  6  1  1
  5 10  1  0
  6  7  1  0
  7  8  1  0
  8  9  2  0
  8 10  1  6
 11 12  1  0
 12 13  2  0
 13 14  1  0
 14 15  2  0
 14 16  1  0
 16 17  1  0
 17 18  2  0
 17 23  1  0
 18 19  1  0
 19 20  1  0
 19 21  2  0
 21 22  1  0
 22 23  2  0
M  END
