
     RDKit          3D

 23 24  0  0  0  0  0  0  0  0999 V2000
   -3.8790    1.8370   -1.5270 C   0  0  0  0  0  0  0  0  0  0  0  0
   -3.1210    0.7230   -1.7900 O   0  0  0  0  0  0  0  0  0  0  0  0
   -2.4670    0.2150   -0.6520 C   0  0  0  0  0  0  0  0  0  0  0  0
   -3.4080   -0.3120    0.3810 C   0  0  2  0  0  0  0  0  0  0  0  0
   -2.7050   -0.9400    1.5400 C   0  0  0  0  0  0  0  0  0  0  0  0
   -1.6100    0.0890    2.4500 S   0  0  0  0  0  0  0  0  0  0  0  0
   -0.0890    0.4170    1.6300 C   0  0  0  0  0  0  0  0  0  0  0  0
    0.2350    1.5310    0.9650 N   0  0  0  0  0  0  0  0  0  0  0  0
    1.4340    1.7130    0.4070 C   0  0  0  0  0  0  0  0  0  0  0  0
    1.7270    2.7800   -0.2220 O   0  0  0  0  0  0  0  0  0  0  0  0
    2.4310    0.7570    0.4800 C   0  0  0  0  0  0  0  0  0  0  0  0
    3.6640    0.9540   -0.1000 C   0  0  0  0  0  0  0  0  0  0  0  0
    3.9990    2.2030   -0.8400 C   0  0  0  0  0  0  0  0  0  0  0  0
    4.6170   -0.0540    0.0130 C   0  0  0  0  0  0  0  0  0  0  0  0
    5.9700    0.1000   -0.5950 C   0  0  0  0  0  0  0  0  0  0  0  0
    4.2450   -1.1840    0.7050 C   0  0  0  0  0  0  0  0  0  0  0  0
    5.2210   -2.2190    0.8220 N   0  0  0  0  0  0  0  0  0  0  0  0
    3.0390   -1.3620    1.2650 N   0  0  0  0  0  0  0  0  0  0  0  0
    2.0810   -0.3910    1.1720 C   0  0  0  0  0  0  0  0  0  0  0  0
    0.8770   -0.5600    1.7240 N   0  0  0  0  0  0  0  0  0  0  0  0
   -4.1970   -1.3490   -0.1730 O   0  0  0  0  0  0  0  0  0  0  0  0
   -5.5420   -1.1650   -0.0880 C   0  0  0  0  0  0  0  0  0  0  0  0
   -6.2640   -2.2990   -0.6640 N   0  0  0  0  0  0  0  0  0  0  0  0
  1  2  1  0
  2  3  1  0
  4  3  1  6
  4  5  1  0
  4 21  1  0
  5  6  1  0
  6  7  1  0
  7  8  2  0
  7 20  1  0
  8  9  1  0
  9 10  2  0
  9 11  1  0
 11 12  2  0
 11 19  1  0
 12 13  1  0
 12 14  1  0
 14 15  1  0
 14 16  2  0
 16 17  1  0
 16 18  1  0
 18 19  2  0
 19 20  1  0
 21 22  1  0
 22 23  1  0
M  END
