
     RDKit          3D

 14 15  0  0  0  0  0  0  0  0999 V2000
    2.3620    2.3570    0.4760 C   0  0  0  0  0  0  0  0  0  0  0  0
    1.2510    1.9090   -0.0630 C   0  0  0  0  0  0  0  0  0  0  0  0
    0.6940    0.6050   -0.0400 C   0  0  0  0  0  0  0  0  0  0  0  0
    1.4360   -0.5430    0.0020 C   0  0  0  0  0  0  0  0  0  0  0  0
    2.9050   -0.4770   -0.0940 C   0  0  0  0  0  0  0  0  0  0  0  0
    0.8220   -1.7940    0.0820 C   0  0  0  0  0  0  0  0  0  0  0  0
    1.5440   -2.9580    0.1300 O   0  0  0  0  0  0  0  0  0  0  0  0
   -0.5520   -1.9050    0.1200 C   0  0  0  0  0  0  0  0  0  0  0  0
   -1.1680   -3.1310    0.1980 O   0  0  0  0  0  0  0  0  0  0  0  0
   -1.3030   -0.7600    0.0760 C   0  0  0  0  0  0  0  0  0  0  0  0
   -0.6870    0.4700   -0.0020 C   0  0  0  0  0  0  0  0  0  0  0  0
   -1.7280    1.5270   -0.0330 C   0  0  0  0  0  0  0  0  0  0  0  0
   -2.9070    0.7900   -0.6180 C   0  0  0  0  0  0  0  0  0  0  0  0
   -2.7930   -0.5540    0.0980 C   0  0  0  0  0  0  0  0  0  0  0  0
  1  2  2  0
  2  3  1  0
  3  4  2  0
  3 11  1  0
  4  5  1  0
  4  6  1  0
  6  7  1  0
  6  8  2  0
  8  9  1  0
  8 10  1  0
 10 11  2  0
 10 14  1  0
 11 12  1  0
 12 13  1  0
 13 14  1  0
M  END
