
     RDKit          3D

 24 26  0  0  0  0  0  0  0  0999 V2000
    3.2970   -1.9370    2.7780 C   0  0  0  0  0  0  0  0  0  0  0  0
    3.8690   -2.5570    1.5120 C   0  0  0  0  0  0  0  0  0  0  0  0
    2.9450   -2.4670    0.3580 C   0  0  0  0  0  0  0  0  0  0  0  0
    2.5640   -1.0490   -0.0370 C   0  0  1  0  0  0  0  0  0  0  0  0
    3.7380   -0.1810   -0.4320 C   0  0  0  0  0  0  0  0  0  0  0  0
    3.3220   -0.3120   -1.8780 C   0  0  0  0  0  0  0  0  0  0  0  0
    2.0280   -0.9190   -1.3790 C   0  0  2  0  0  0  0  0  0  0  0  0
    0.7810   -0.1870   -1.7530 C   0  0  0  0  0  0  0  0  0  0  0  0
    0.5940    1.1550   -1.5220 N   0  0  1  0  0  0  0  0  0  0  0  0
    0.5390    1.8820   -2.8040 C   0  0  0  0  0  0  0  0  0  0  0  0
    0.1700    3.2640   -2.3890 C   0  0  0  0  0  0  0  0  0  0  0  0
   -0.9550    2.8550   -1.4250 C   0  0  0  0  0  0  0  0  0  0  0  0
   -0.3250    1.7400   -0.5990 C   0  0  2  0  0  0  0  0  0  0  0  0
    0.5060    2.3350    0.5000 C   0  0  0  0  0  0  0  0  0  0  0  0
   -0.0420    3.0480    1.5700 N   0  0  0  0  0  0  0  0  0  0  0  0
   -1.4670    0.9080   -0.1060 C   0  0  1  0  0  0  0  0  0  0  0  0
   -2.4600    1.7590    0.7120 C   0  0  0  0  0  0  0  0  0  0  0  0
   -2.3410    0.3990   -1.2280 C   0  0  0  0  0  0  0  0  0  0  0  0
   -2.8610   -0.9880   -1.1560 C   0  0  0  0  0  0  0  0  0  0  0  0
   -3.0240   -1.6340    0.1480 C   0  0  2  0  0  0  0  0  0  0  0  0
   -2.4630   -3.0660    0.0740 C   0  0  0  0  0  0  0  0  0  0  0  0
   -4.5200   -1.8250    0.4550 C   0  0  0  0  0  0  0  0  0  0  0  0
   -2.3810   -0.9430    1.2560 C   0  0  0  0  0  0  0  0  0  0  0  0
   -1.1310   -0.1440    0.9250 C   0  0  0  0  0  0  0  0  0  0  0  0
  1  2  1  0
  2  3  1  0
  4  3  1  6
  4  5  1  0
  4  7  1  0
  5  6  1  0
  6  7  1  0
  7  8  1  1
  9  8  1  6
  9 10  1  0
  9 13  1  0
 10 11  1  0
 11 12  1  0
 12 13  1  0
 13 14  1  1
 13 16  1  0
 14 15  1  0
 16 17  1  1
 16 18  1  0
 16 24  1  0
 18 19  1  0
 19 20  1  0
 20 21  1  6
 20 22  1  0
 20 23  1  0
 23 24  1  0
M  CHG  2   9   1  15   1
M  END
