
     RDKit          3D

 24 26  0  0  0  0  0  0  0  0999 V2000
   -1.2920   -3.2150    1.9220 C   0  0  0  0  0  0  0  0  0  0  0  0
   -1.7280   -2.6260    0.8290 C   0  0  0  0  0  0  0  0  0  0  0  0
   -2.0150   -3.4590   -0.3710 C   0  0  0  0  0  0  0  0  0  0  0  0
   -3.4850   -3.3160   -0.7820 C   0  0  0  0  0  0  0  0  0  0  0  0
   -1.9440   -1.1340    0.7680 C   0  0  0  0  0  0  0  0  0  0  0  0
   -1.1430   -0.4930   -0.2310 N   0  0  1  0  0  0  0  0  0  0  0  0
   -1.9790    0.2710   -1.0950 C   0  0  0  0  0  0  0  0  0  0  0  0
   -2.5180    1.5450   -0.6210 C   0  0  1  0  0  0  0  0  0  0  0  0
   -3.3690    2.1410   -1.7560 C   0  0  0  0  0  0  0  0  0  0  0  0
   -4.0710    3.2620   -1.0390 C   0  0  0  0  0  0  0  0  0  0  0  0
   -4.0700    2.9060    0.4290 C   0  0  0  0  0  0  0  0  0  0  0  0
   -3.5870    1.4460    0.4500 C   0  0  0  0  0  0  0  0  0  0  0  0
    0.0160    0.1820    0.2510 C   0  0  1  0  0  0  0  0  0  0  0  0
    0.0260    0.5400    1.6910 C   0  0  0  0  0  0  0  0  0  0  0  0
    1.2150    1.4540    1.9520 C   0  0  0  0  0  0  0  0  0  0  0  0
    2.1190    1.5890    0.7690 C   0  0  0  0  0  0  0  0  0  0  0  0
    2.5200    0.2490    0.1810 C   0  0  2  0  0  0  0  0  0  0  0  0
    3.3350   -0.4700    1.2150 C   0  0  0  0  0  0  0  0  0  0  0  0
    4.2730   -1.4920    0.6600 C   0  0  0  0  0  0  0  0  0  0  0  0
    5.1070   -0.9530   -0.4800 C   0  0  0  0  0  0  0  0  0  0  0  0
    4.1000   -0.6090   -1.5780 C   0  0  0  0  0  0  0  0  0  0  0  0
    3.2750    0.5470   -1.0840 C   0  0  2  0  0  0  0  0  0  0  0  0
    4.1320    1.6970   -0.9890 N   0  0  0  0  0  0  0  0  0  0  0  0
    1.3040   -0.5690   -0.1200 C   0  0  0  0  0  0  0  0  0  0  0  0
  1  2  2  0
  2  3  1  0
  2  5  1  0
  3  4  1  0
  6  5  1  1
  6  7  1  0
  6 13  1  0
  8  7  1  6
  8  9  1  0
  8 12  1  0
  9 10  1  0
 10 11  1  0
 11 12  1  0
 13 14  1  1
 13 24  1  0
 14 15  1  0
 15 16  1  0
 17 16  1  1
 17 18  1  0
 17 22  1  0
 17 24  1  0
 18 19  1  0
 19 20  1  0
 20 21  1  0
 21 22  1  0
 22 23  1  1
M  CHG  2   6   1  23   1
M  END
