
     RDKit          3D

 24 26  0  0  0  0  0  0  0  0999 V2000
   -4.1710   -3.9620   -1.3160 C   0  0  0  0  0  0  0  0  0  0  0  0
   -4.2310   -2.7830   -0.3680 C   0  0  0  0  0  0  0  0  0  0  0  0
   -3.0960   -1.8410   -0.6890 C   0  0  0  0  0  0  0  0  0  0  0  0
   -3.0920   -0.6320    0.2240 C   0  0  2  0  0  0  0  0  0  0  0  0
   -4.3730    0.1230    0.0790 C   0  0  0  0  0  0  0  0  0  0  0  0
   -4.3040    1.4020    0.8880 C   0  0  0  0  0  0  0  0  0  0  0  0
   -3.2720    2.2870    0.1980 C   0  0  1  0  0  0  0  0  0  0  0  0
   -3.2130    3.6040    0.7480 N   0  0  0  0  0  0  0  0  0  0  0  0
   -4.1760    3.8750    1.7690 C   0  0  0  0  0  0  0  0  0  0  0  0
   -1.9490    1.6080    0.3250 C   0  0  0  0  0  0  0  0  0  0  0  0
   -1.9100    0.1990   -0.1370 C   0  0  1  0  0  0  0  0  0  0  0  0
   -0.6630   -0.3930    0.3470 N   0  0  0  0  0  0  0  0  0  0  0  0
    0.4010    0.1760   -0.4270 C   0  0  0  0  0  0  0  0  0  0  0  0
    1.4510   -0.8110   -0.8390 C   0  0  1  0  0  0  0  0  0  0  0  0
    2.5250   -0.0820   -1.6550 C   0  0  0  0  0  0  0  0  0  0  0  0
    3.4720   -0.2100   -0.4790 C   0  0  1  0  0  0  0  0  0  0  0  0
    4.7720   -0.8240   -0.9640 C   0  0  0  0  0  0  0  0  0  0  0  0
    5.6920    0.3460   -1.3380 C   0  0  0  0  0  0  0  0  0  0  0  0
    6.2070    1.0480   -0.0960 C   0  0  0  0  0  0  0  0  0  0  0  0
    5.1150    0.8820    0.9640 C   0  0  0  0  0  0  0  0  0  0  0  0
    3.7960    1.0610    0.2240 C   0  0  0  0  0  0  0  0  0  0  0  0
    2.5060   -1.1380    0.1610 C   0  0  2  0  0  0  0  0  0  0  0  0
    2.9320   -2.6030   -0.0020 C   0  0  0  0  0  0  0  0  0  0  0  0
    2.1690   -0.8880    1.6030 C   0  0  0  0  0  0  0  0  0  0  0  0
  1  2  1  0
  2  3  1  0
  4  3  1  6
  4  5  1  0
  4 11  1  0
  5  6  1  0
  6  7  1  0
  7  8  1  1
  7 10  1  0
  8  9  1  0
 10 11  1  0
 11 12  1  1
 12 13  1  0
 14 13  1  1
 14 15  1  0
 14 22  1  0
 16 15  1  6
 16 17  1  0
 16 21  1  0
 16 22  1  0
 17 18  1  0
 18 19  1  0
 19 20  1  0
 20 21  1  0
 22 23  1  1
 22 24  1  0
M  CHG  2   8   1  12   1
M  END
