
     RDKit          3D

 18 20  0  0  0  0  0  0  0  0999 V2000
    6.3140   -0.7320    0.1560 O   0  0  0  0  0  0  0  0  0  0  0  0
    4.9710   -0.3850    0.0800 C   0  0  0  0  0  0  0  0  0  0  0  0
    3.9860   -1.3460    0.1980 C   0  0  0  0  0  0  0  0  0  0  0  0
    2.6470   -0.9550    0.1160 C   0  0  0  0  0  0  0  0  0  0  0  0
    2.3000    0.3650   -0.0780 C   0  0  0  0  0  0  0  0  0  0  0  0
    0.8810    0.7170   -0.1550 C   0  0  0  0  0  0  0  0  0  0  0  0
   -0.1920   -0.0510   -0.0670 N   0  0  0  0  0  0  0  0  0  0  0  0
   -1.3170    0.6760   -0.1920 C   0  0  0  0  0  0  0  0  0  0  0  0
   -2.6890    0.1850   -0.1490 C   0  0  0  0  0  0  0  0  0  0  0  0
   -2.9370   -1.1690    0.0390 C   0  0  0  0  0  0  0  0  0  0  0  0
   -4.2480   -1.5970    0.0750 C   0  0  0  0  0  0  0  0  0  0  0  0
   -5.2990   -0.7160   -0.0710 C   0  0  0  0  0  0  0  0  0  0  0  0
   -5.0520    0.6100   -0.2550 C   0  0  0  0  0  0  0  0  0  0  0  0
   -3.7490    1.0520   -0.2920 C   0  0  0  0  0  0  0  0  0  0  0  0
   -0.8970    1.9400   -0.3640 N   0  0  0  0  0  0  0  0  0  0  0  0
    0.4380    1.9730   -0.3430 N   0  0  0  0  0  0  0  0  0  0  0  0
    3.2740    1.2730   -0.1880 N   0  0  0  0  0  0  0  0  0  0  0  0
    4.5910    0.9310   -0.1140 C   0  0  0  0  0  0  0  0  0  0  0  0
  1  2  1  0
  2  3  2  0
  2 18  1  0
  3  4  1  0
  4  5  2  0
  5  6  1  0
  5 17  1  0
  6  7  2  0
  6 16  1  0
  7  8  1  0
  8  9  1  0
  8 15  2  0
  9 10  2  0
  9 14  1  0
 10 11  1  0
 11 12  2  0
 12 13  1  0
 13 14  2  0
 15 16  1  0
 17 18  2  0
M  END
