
     RDKit          3D

 19 21  0  0  0  0  0  0  0  0999 V2000
   -4.7670   -0.9890   -0.2980 C   0  0  0  0  0  0  0  0  0  0  0  0
   -4.8210    0.2560    0.5360 C   0  0  0  0  0  0  0  0  0  0  0  0
   -3.9430    1.3430   -0.0800 C   0  0  0  0  0  0  0  0  0  0  0  0
   -2.5270    0.8940   -0.1630 C   0  0  0  0  0  0  0  0  0  0  0  0
   -2.0340    0.2540   -1.2260 N   0  0  0  0  0  0  0  0  0  0  0  0
   -0.7650   -0.1250   -1.2540 C   0  0  0  0  0  0  0  0  0  0  0  0
    0.1380    0.1070   -0.2010 C   0  0  0  0  0  0  0  0  0  0  0  0
    1.4820   -0.4210   -0.3370 C   0  0  0  0  0  0  0  0  0  0  0  0
    1.8380   -1.4180   -1.2110 N   0  0  0  0  0  0  0  0  0  0  0  0
    3.1490   -1.6600   -1.1430 C   0  0  0  0  0  0  0  0  0  0  0  0
    3.8070   -2.5070   -1.8030 O   0  0  0  0  0  0  0  0  0  0  0  0
    3.7340   -0.8290   -0.2130 C   0  0  0  0  0  0  0  0  0  0  0  0
    5.0120   -0.6390    0.2430 C   0  0  0  0  0  0  0  0  0  0  0  0
    5.2330    0.3020    1.1730 N   0  0  0  0  0  0  0  0  0  0  0  0
    4.2530    1.0640    1.6730 C   0  0  0  0  0  0  0  0  0  0  0  0
    2.9310    0.9280    1.2590 C   0  0  0  0  0  0  0  0  0  0  0  0
    2.6300   -0.0120    0.3160 C   0  0  0  0  0  0  0  0  0  0  0  0
   -0.3890    0.7600    0.8690 C   0  0  0  0  0  0  0  0  0  0  0  0
   -1.7040    1.1330    0.8550 N   0  0  0  0  0  0  0  0  0  0  0  0
  1  2  1  0
  2  3  1  0
  3  4  1  0
  4  5  2  0
  4 19  1  0
  5  6  1  0
  6  7  2  0
  7  8  1  0
  7 18  1  0
  8  9  1  0
  8 17  2  0
  9 10  1  0
 10 11  2  0
 10 12  1  0
 12 13  2  0
 12 17  1  0
 13 14  1  0
 14 15  1  0
 15 16  2  0
 16 17  1  0
 18 19  2  0
M  END
