
     RDKit          3D

 19 21  0  0  0  0  0  0  0  0999 V2000
   -0.8380    0.0730    1.5540 O   0  0  0  0  0  0  0  0  0  0  0  0
   -1.1370    0.7140    0.5180 C   0  0  0  0  0  0  0  0  0  0  0  0
   -2.5380    0.6430    0.0220 C   0  0  0  0  0  0  0  0  0  0  0  0
   -2.7400   -0.6550   -0.6670 C   0  0  0  0  0  0  0  0  0  0  0  0
   -3.5990   -1.5790   -0.3450 C   0  0  0  0  0  0  0  0  0  0  0  0
   -4.5270   -1.4870    0.7760 C   0  0  0  0  0  0  0  0  0  0  0  0
   -5.4570   -2.3600    1.2140 C   0  0  0  0  0  0  0  0  0  0  0  0
   -5.7790   -1.4020    2.2610 C   0  0  0  0  0  0  0  0  0  0  0  0
   -4.8940   -0.5990    1.8230 N   0  0  0  0  0  0  0  0  0  0  0  0
   -0.1720    1.4750   -0.1470 N   0  0  0  0  0  0  0  0  0  0  0  0
    1.0980    1.2000   -0.1690 C   0  0  0  0  0  0  0  0  0  0  0  0
    2.0220    1.9210   -0.8010 N   0  0  0  0  0  0  0  0  0  0  0  0
    3.2600    1.3770   -0.6380 C   0  0  0  0  0  0  0  0  0  0  0  0
    4.5180    1.7350   -1.0820 C   0  0  0  0  0  0  0  0  0  0  0  0
    5.6200    0.9760   -0.7530 C   0  0  0  0  0  0  0  0  0  0  0  0
    5.4190   -0.1470    0.0290 C   0  0  0  0  0  0  0  0  0  0  0  0
    4.1650   -0.5030    0.4710 C   0  0  0  0  0  0  0  0  0  0  0  0
    3.0690    0.2610    0.1380 C   0  0  0  0  0  0  0  0  0  0  0  0
    1.7460    0.1740    0.4110 N   0  0  0  0  0  0  0  0  0  0  0  0
  1  2  2  0
  2  3  1  0
  2 10  1  0
  3  4  1  0
  4  5  2  3
  5  6  1  0
  6  7  2  0
  6  9  1  0
  7  8  1  0
  8  9  2  0
 10 11  2  3
 11 12  1  0
 11 19  1  0
 12 13  1  0
 13 14  2  0
 13 18  1  0
 14 15  1  0
 15 16  2  0
 16 17  1  0
 17 18  2  0
 18 19  1  0
M  END
