
     RDKit          3D

 19 21  0  0  0  0  0  0  0  0999 V2000
   -3.6950    1.7810    0.1060 C   0  0  0  0  0  0  0  0  0  0  0  0
   -3.5880    0.3310   -0.1400 C   0  0  0  0  0  0  0  0  0  0  0  0
   -4.7400   -0.4050   -0.2780 C   0  0  0  0  0  0  0  0  0  0  0  0
   -4.7150   -1.7220   -0.5020 N   0  0  0  0  0  0  0  0  0  0  0  0
   -3.5430   -2.3610   -0.5970 C   0  0  0  0  0  0  0  0  0  0  0  0
   -2.3540   -1.6750   -0.4670 C   0  0  0  0  0  0  0  0  0  0  0  0
   -2.3600   -0.3210   -0.2370 C   0  0  0  0  0  0  0  0  0  0  0  0
   -1.2120    0.4680   -0.0900 N   0  0  0  0  0  0  0  0  0  0  0  0
    0.1420    0.0480   -0.1450 C   0  0  0  0  0  0  0  0  0  0  0  0
    1.1810    0.9710    0.0230 C   0  0  0  0  0  0  0  0  0  0  0  0
    2.5030    0.6560   -0.0150 C   0  0  0  0  0  0  0  0  0  0  0  0
    3.5130    1.5820    0.1530 C   0  0  0  0  0  0  0  0  0  0  0  0
    4.8440    1.2440    0.1120 C   0  0  0  0  0  0  0  0  0  0  0  0
    5.1410   -0.0480   -0.1030 N   0  0  0  0  0  0  0  0  0  0  0  0
    4.1920   -0.9820   -0.2720 C   0  0  0  0  0  0  0  0  0  0  0  0
    4.5030   -2.1830   -0.4710 O   0  0  0  0  0  0  0  0  0  0  0  0
    2.8510   -0.6700   -0.2350 C   0  0  0  0  0  0  0  0  0  0  0  0
    1.8420   -1.5730   -0.3990 C   0  0  0  0  0  0  0  0  0  0  0  0
    0.5410   -1.2050   -0.3520 N   0  0  0  0  0  0  0  0  0  0  0  0
  1  2  1  0
  2  3  2  0
  2  7  1  0
  3  4  1  0
  4  5  2  0
  5  6  1  0
  6  7  2  0
  7  8  1  0
  8  9  1  0
  9 10  2  0
  9 19  1  0
 10 11  1  0
 11 12  1  0
 11 17  2  0
 12 13  2  0
 13 14  1  0
 14 15  1  0
 15 16  2  0
 15 17  1  0
 17 18  1  0
 18 19  2  0
M  END
