
     RDKit          3D

 19 21  0  0  0  0  0  0  0  0999 V2000
   -3.0040    1.0000   -0.9310 C   0  0  0  0  0  0  0  0  0  0  0  0
   -3.7340    0.0380   -0.0010 C   0  0  0  0  0  0  0  0  0  0  0  0
   -2.8520   -0.2820    1.2090 C   0  0  0  0  0  0  0  0  0  0  0  0
   -1.6530   -0.8800    0.7320 N   0  0  0  0  0  0  0  0  0  0  0  0
   -0.5070   -0.3330    0.5700 C   0  0  0  0  0  0  0  0  0  0  0  0
   -0.2610    0.9560    0.8430 N   0  0  0  0  0  0  0  0  0  0  0  0
    0.9810    1.4990    0.6560 C   0  0  0  0  0  0  0  0  0  0  0  0
    1.1850    2.7880    0.9400 N   0  0  0  0  0  0  0  0  0  0  0  0
    2.3860    3.3700    0.7730 C   0  0  0  0  0  0  0  0  0  0  0  0
    3.4680    2.6460    0.2950 C   0  0  0  0  0  0  0  0  0  0  0  0
    3.2770    1.3240   -0.0020 C   0  0  0  0  0  0  0  0  0  0  0  0
    2.0340    0.7570    0.1800 C   0  0  0  0  0  0  0  0  0  0  0  0
    1.7930   -0.5740   -0.1060 C   0  0  0  0  0  0  0  0  0  0  0  0
    2.8230   -1.3000   -0.5720 N   0  0  0  0  0  0  0  0  0  0  0  0
    2.6190   -2.6000   -0.8590 C   0  0  0  0  0  0  0  0  0  0  0  0
    1.3740   -3.1640   -0.6760 C   0  0  0  0  0  0  0  0  0  0  0  0
    0.3050   -2.4450   -0.2020 C   0  0  0  0  0  0  0  0  0  0  0  0
   -0.9600   -2.9740   -0.0040 O   0  0  0  0  0  0  0  0  0  0  0  0
    0.5260   -1.1110    0.0900 C   0  0  0  0  0  0  0  0  0  0  0  0
  1  2  1  0
  2  3  1  0
  3  4  1  0
  4  5  2  3
  5  6  1  0
  5 19  1  0
  6  7  1  0
  7  8  2  0
  7 12  1  0
  8  9  1  0
  9 10  2  0
 10 11  1  0
 11 12  2  0
 12 13  1  0
 13 14  2  0
 13 19  1  0
 14 15  1  0
 15 16  2  0
 16 17  1  0
 17 18  1  0
 17 19  2  0
M  END
