
     RDKit          3D

 33 37  0  0  0  0  0  0  0  0999 V2000
    4.2850    2.1710   -1.7380 C   0  0  0  0  0  0  0  0  0  0  0  0
    3.9530    1.1570   -0.7560 N   0  0  0  0  0  0  0  0  0  0  0  0
    2.6980    1.0770   -0.1290 C   0  0  0  0  0  0  0  0  0  0  0  0
    2.4320    0.1620    0.6780 O   0  0  0  0  0  0  0  0  0  0  0  0
    1.6260    2.0940   -0.4080 C   0  0  0  0  0  0  0  0  0  0  0  0
    0.4040    1.7950    0.3720 N   0  0  0  0  0  0  0  0  0  0  0  0
    0.2470    2.3280    1.6720 C   0  0  0  0  0  0  0  0  0  0  0  0
    1.0520    3.0970    2.2750 O   0  0  0  0  0  0  0  0  0  0  0  0
   -1.3060    1.6930    2.2740 S   0  0  0  0  0  0  0  0  0  0  0  0
   -1.7720    0.8370    0.7640 C   0  0  0  0  0  0  0  0  0  0  0  0
   -2.8880    0.1960    0.5100 C   0  0  0  0  0  0  0  0  0  0  0  0
   -3.2070   -0.4920   -0.7640 C   0  0  0  0  0  0  0  0  0  0  0  0
   -4.3630   -1.4060   -0.4190 C   0  0  0  0  0  0  0  0  0  0  0  0
   -4.8150   -1.0720    0.8760 N   0  0  0  0  0  0  0  0  0  0  0  0
   -6.1820   -1.1850    1.1530 C   0  0  0  0  0  0  0  0  0  0  0  0
   -7.0980   -0.3920    0.3330 C   0  0  0  0  0  0  0  0  0  0  0  0
   -6.8480    0.7470   -0.3880 C   0  0  0  0  0  0  0  0  0  0  0  0
   -8.0040    1.1770   -1.0350 C   0  0  0  0  0  0  0  0  0  0  0  0
   -8.9620    0.2370   -0.6640 C   0  0  0  0  0  0  0  0  0  0  0  0
   -8.3990   -0.6910    0.1520 N   0  0  0  0  0  0  0  0  0  0  0  0
   -9.1290   -1.8160    0.7200 C   0  0  0  0  0  0  0  0  0  0  0  0
   -4.0730    0.0050    1.4010 C   0  0  0  0  0  0  0  0  0  0  0  0
   -0.6320    1.0190   -0.1160 C   0  0  0  0  0  0  0  0  0  0  0  0
   -0.6190    0.4700   -1.2850 O   0  0  0  0  0  0  0  0  0  0  0  0
    4.9590    0.2130   -0.4290 C   0  0  0  0  0  0  0  0  0  0  0  0
    4.7310   -1.1270   -0.2400 C   0  0  0  0  0  0  0  0  0  0  0  0
    5.8010   -1.9490    0.0810 C   0  0  0  0  0  0  0  0  0  0  0  0
    7.0730   -1.4590    0.2150 C   0  0  0  0  0  0  0  0  0  0  0  0
    7.2760   -0.1200    0.0210 C   0  0  0  0  0  0  0  0  0  0  0  0
    6.2430    0.7250   -0.2980 C   0  0  0  0  0  0  0  0  0  0  0  0
    8.7250    0.1990    0.2120 C   0  0  0  0  0  0  0  0  0  0  0  0
    9.4110   -1.1200   -0.0160 C   0  0  0  0  0  0  0  0  0  0  0  0
    8.3880   -2.0950    0.5510 C   0  0  0  0  0  0  0  0  0  0  0  0
  1  2  1  0
  2  3  1  0
  2 25  1  0
  3  4  2  0
  3  5  1  0
  5  6  1  0
  6  7  1  0
  6 23  1  0
  7  8  2  0
  7  9  1  0
  9 10  1  0
 10 11  2  3
 10 23  1  0
 11 12  1  0
 11 22  1  0
 12 13  1  0
 13 14  1  0
 14 15  1  0
 14 22  1  0
 15 16  1  0
 16 17  2  0
 16 20  1  0
 17 18  1  0
 18 19  2  0
 19 20  1  0
 20 21  1  0
 23 24  2  0
 25 26  2  0
 25 30  1  0
 26 27  1  0
 27 28  2  0
 28 29  1  0
 28 33  1  0
 29 30  2  0
 29 31  1  0
 31 32  1  0
 32 33  1  0
M  END
