
     RDKit          3D

 35 38  0  0  0  0  0  0  0  0999 V2000
    6.3660    2.7530   -3.0680 C   0  0  0  0  0  0  0  0  0  0  0  0
    6.3820    1.5510   -2.5430 C   0  0  0  0  0  0  0  0  0  0  0  0
    5.4800    1.2840   -1.4480 N   0  0  0  0  0  0  0  0  0  0  0  0
    5.4460    0.0110   -0.8360 C   0  0  0  0  0  0  0  0  0  0  0  0
    6.2570   -0.8470   -1.3190 O   0  0  0  0  0  0  0  0  0  0  0  0
    4.5780   -0.3440    0.2580 N   0  0  0  0  0  0  0  0  0  0  0  0
    4.7230   -1.6890    0.7320 C   0  0  0  0  0  0  0  0  0  0  0  0
    4.0450   -1.9500    2.0230 C   0  0  0  0  0  0  0  0  0  0  0  0
    3.9670   -0.7200    2.9000 C   0  0  0  0  0  0  0  0  0  0  0  0
    3.3110    0.4160    2.1940 C   0  0  0  0  0  0  0  0  0  0  0  0
    3.6860    0.6140    0.7660 C   0  0  2  0  0  0  0  0  0  0  0  0
    2.3900    0.7920   -0.0320 C   0  0  0  0  0  0  0  0  0  0  0  0
    1.5850   -0.3300   -0.1620 N   0  0  0  0  0  0  0  0  0  0  0  0
    1.9340   -1.4420   -0.9390 C   0  0  0  0  0  0  0  0  0  0  0  0
    0.8370   -1.8620   -1.9150 C   0  0  0  0  0  0  0  0  0  0  0  0
   -0.3070   -1.1580   -1.5780 O   0  0  0  0  0  0  0  0  0  0  0  0
   -0.5690   -1.2940   -0.2360 C   0  0  2  0  0  0  0  0  0  0  0  0
   -1.9520   -0.7690    0.0210 C   0  0  0  0  0  0  0  0  0  0  0  0
   -2.9830   -1.1340   -0.7700 N   0  0  0  0  0  0  0  0  0  0  0  0
   -4.2570   -0.6740   -0.5730 C   0  0  0  0  0  0  0  0  0  0  0  0
   -5.4170   -1.0880   -1.2940 C   0  0  0  0  0  0  0  0  0  0  0  0
   -5.1970   -1.9430   -2.4990 C   0  0  0  0  0  0  0  0  0  0  0  0
   -6.5840   -0.8190   -1.0510 O   0  0  0  0  0  0  0  0  0  0  0  0
   -4.3750    0.1940    0.4840 C   0  0  0  0  0  0  0  0  0  0  0  0
   -3.3540    0.5860    1.3260 C   0  0  0  0  0  0  0  0  0  0  0  0
   -2.1350    0.0830    1.0650 N   0  0  0  0  0  0  0  0  0  0  0  0
   -3.4740    1.4010    2.5470 C   0  0  0  0  0  0  0  0  0  0  0  0
   -1.9690    1.8740    3.2330 Cl  0  0  0  0  0  0  0  0  0  0  0  0
   -4.6350    1.7640    3.1190 C   0  0  0  0  0  0  0  0  0  0  0  0
   -6.0280    1.5170    2.7780 C   0  0  0  0  0  0  0  0  0  0  0  0
   -6.5400    1.1200    1.6070 C   0  0  0  0  0  0  0  0  0  0  0  0
   -5.6990    0.8520    0.3990 C   0  0  0  0  0  0  0  0  0  0  0  0
   -6.0090    1.3870   -0.7410 C   0  0  0  0  0  0  0  0  0  0  0  0
   -5.3260    1.4990   -1.9390 N   0  0  0  0  0  0  0  0  0  0  0  0
    0.4300   -0.5140    0.6210 C   0  0  0  0  0  0  0  0  0  0  0  0
  1  2  2  0
  2  3  1  0
  3  4  1  0
  4  5  2  0
  4  6  1  0
  6  7  1  0
  6 11  1  0
  7  8  1  0
  8  9  1  0
  9 10  1  0
 10 11  1  0
 11 12  1  6
 12 13  1  0
 13 14  1  0
 13 35  1  0
 14 15  1  0
 15 16  1  0
 16 17  1  0
 17 18  1  6
 17 35  1  0
 18 19  2  0
 18 26  1  0
 19 20  1  0
 20 21  1  0
 20 24  2  0
 21 22  1  0
 21 23  2  0
 24 25  1  0
 24 32  1  0
 25 26  2  0
 25 27  1  0
 27 28  1  0
 27 29  2  0
 29 30  1  0
 30 31  2  0
 31 32  1  0
 32 33  2  3
 33 34  1  0
M  CHG  1  34   1
M  END
