
     RDKit          3D

 34 38  0  0  0  0  0  0  0  0999 V2000
    2.2120   -3.7380   -0.8690 C   0  0  0  0  0  0  0  0  0  0  0  0
    3.1740   -2.6350   -0.6420 C   0  0  0  0  0  0  0  0  0  0  0  0
    4.4890   -2.9760   -0.3720 C   0  0  0  0  0  0  0  0  0  0  0  0
    5.4550   -2.0110   -0.1470 C   0  0  0  0  0  0  0  0  0  0  0  0
    5.0950   -0.6830   -0.1940 C   0  0  0  0  0  0  0  0  0  0  0  0
    5.9950    0.3540    0.0190 C   0  0  0  0  0  0  0  0  0  0  0  0
    5.6060    1.6730   -0.0350 C   0  0  0  0  0  0  0  0  0  0  0  0
    6.6020    2.7300    0.1980 C   0  0  0  0  0  0  0  0  0  0  0  0
    7.9420    2.5620    0.4770 C   0  0  0  0  0  0  0  0  0  0  0  0
    8.4790    3.8160    0.6180 C   0  0  0  0  0  0  0  0  0  0  0  0
    7.4970    4.6390    0.4280 O   0  0  0  0  0  0  0  0  0  0  0  0
    6.3760    4.0510    0.1780 N   0  0  0  0  0  0  0  0  0  0  0  0
    4.3090    2.0250   -0.3020 C   0  0  0  0  0  0  0  0  0  0  0  0
    3.7580    3.6740   -0.3830 Cl  0  0  0  0  0  0  0  0  0  0  0  0
    3.3900    1.0190   -0.5180 C   0  0  0  0  0  0  0  0  0  0  0  0
    3.7890   -0.3070   -0.4620 C   0  0  0  0  0  0  0  0  0  0  0  0
    2.8520   -1.2970   -0.6820 C   0  0  0  0  0  0  0  0  0  0  0  0
    1.4820   -0.9540   -0.9640 N   0  0  0  0  0  0  0  0  0  0  0  0
    0.6260   -0.8310    0.1420 C   0  0  0  0  0  0  0  0  0  0  0  0
    1.1220   -1.0260    1.3360 O   0  0  0  0  0  0  0  0  0  0  0  0
   -0.7850   -0.5000    0.0810 C   0  0  0  0  0  0  0  0  0  0  0  0
   -1.5640   -0.1800    1.2070 C   0  0  0  0  0  0  0  0  0  0  0  0
   -2.8450    0.0550    0.7830 C   0  0  0  0  0  0  0  0  0  0  0  0
   -4.0020    0.4260    1.6400 C   0  0  0  0  0  0  0  0  0  0  0  0
   -3.7340    0.5250    2.8800 O   0  0  0  0  0  0  0  0  0  0  0  0
   -5.2960    0.6520    1.1300 N   0  0  0  0  0  0  0  0  0  0  0  0
   -6.4340    1.0160    1.9460 C   0  0  0  0  0  0  0  0  0  0  0  0
   -7.5490    0.2070    1.3300 C   0  0  0  0  0  0  0  0  0  0  0  0
   -7.0610   -0.2390   -0.0240 C   0  0  1  0  0  0  0  0  0  0  0  0
   -8.0130   -0.0420   -1.0730 N   0  0  0  0  0  0  0  0  0  0  0  0
   -5.8000    0.5910   -0.2140 C   0  0  0  0  0  0  0  0  0  0  0  0
   -2.8480   -0.1140   -0.5350 N   0  0  0  0  0  0  0  0  0  0  0  0
   -1.6150   -0.4460   -0.9560 N   0  0  0  0  0  0  0  0  0  0  0  0
   -1.3490   -0.7090   -2.3800 C   0  0  0  0  0  0  0  0  0  0  0  0
  1  2  1  0
  2  3  2  0
  2 17  1  0
  3  4  1  0
  4  5  2  0
  5  6  1  0
  5 16  1  0
  6  7  2  0
  7  8  1  0
  7 13  1  0
  8  9  1  0
  8 12  2  0
  9 10  2  0
 10 11  1  0
 11 12  1  0
 13 14  1  0
 13 15  2  0
 15 16  1  0
 16 17  2  0
 17 18  1  0
 18 19  1  0
 19 20  2  0
 19 21  1  0
 21 22  2  0
 21 33  1  0
 22 23  1  0
 23 24  1  0
 23 32  2  0
 24 25  2  0
 24 26  1  0
 26 27  1  0
 26 31  1  0
 27 28  1  0
 28 29  1  0
 29 30  1  6
 29 31  1  0
 32 33  1  0
 33 34  1  0
M  CHG  1  30   1
M  END
