
     RDKit          3D

 22 23  0  0  0  0  0  0  0  0999 V2000
   -0.6590   -0.9080    2.0430 C   0  0  0  0  0  0  0  0  0  0  0  0
    0.0130   -1.6830    0.9690 C   0  0  1  0  0  0  0  0  0  0  0  0
    0.4890   -2.9960    1.6890 C   0  0  0  0  0  0  0  0  0  0  0  0
   -0.8150   -2.0700   -0.2010 C   0  0  0  0  0  0  0  0  0  0  0  0
   -1.1850   -1.1270   -1.0990 O   0  0  0  0  0  0  0  0  0  0  0  0
   -2.0180   -0.1730   -0.6690 C   0  0  2  0  0  0  0  0  0  0  0  0
   -3.2500   -0.0190   -1.6050 C   0  0  0  0  0  0  0  0  0  0  0  0
   -4.2430    0.7940   -0.8120 C   0  0  0  0  0  0  0  0  0  0  0  0
   -3.7140    2.1690   -0.4810 C   0  0  0  0  0  0  0  0  0  0  0  0
   -2.3000    2.1390    0.0300 C   0  0  0  0  0  0  0  0  0  0  0  0
   -1.3980    1.2410   -0.7500 C   0  0  0  0  0  0  0  0  0  0  0  0
    1.2660   -1.0330    0.6000 N   0  0  0  0  0  0  0  0  0  0  0  0
    2.1680   -1.4930   -0.3710 C   0  0  0  0  0  0  0  0  0  0  0  0
    1.8950   -2.5620   -0.9910 O   0  0  0  0  0  0  0  0  0  0  0  0
    3.4150   -0.8320   -0.7320 C   0  0  0  0  0  0  0  0  0  0  0  0
    4.3300   -1.2680   -1.6850 C   0  0  0  0  0  0  0  0  0  0  0  0
    5.3360   -0.3870   -1.7150 N   0  0  0  0  0  0  0  0  0  0  0  0
    5.1010    0.5620   -0.8450 N   0  0  0  0  0  0  0  0  0  0  0  0
    3.9240    0.3380   -0.2060 C   0  0  0  0  0  0  0  0  0  0  0  0
    3.4150    1.1920    0.7810 N   0  0  0  0  0  0  0  0  0  0  0  0
    3.0630    2.4060    0.5920 C   0  0  0  0  0  0  0  0  0  0  0  0
    2.4240    3.4320    1.8960 S   0  0  0  0  0  0  0  0  0  0  0  0
  2  1  1  1
  2  3  1  0
  2  4  1  0
  2 12  1  0
  4  5  1  0
  6  5  1  6
  6  7  1  0
  6 11  1  0
  7  8  1  0
  8  9  1  0
  9 10  1  0
 10 11  1  0
 12 13  1  0
 13 14  2  0
 13 15  1  0
 15 16  1  0
 15 19  2  0
 16 17  2  0
 17 18  1  0
 18 19  1  0
 19 20  1  0
 20 21  2  3
 21 22  1  0
M  END
