
     RDKit          3D

 22 23  0  0  0  0  0  0  0  0999 V2000
   -1.6470    3.6490   -0.4420 C   0  0  0  0  0  0  0  0  0  0  0  0
   -1.2430    2.6090    0.5330 C   0  0  1  0  0  0  0  0  0  0  0  0
   -1.6100    3.3110    1.9040 C   0  0  0  0  0  0  0  0  0  0  0  0
   -1.9720    1.3230    0.5720 C   0  0  0  0  0  0  0  0  0  0  0  0
   -2.9560    1.0660    1.4580 N   0  0  0  0  0  0  0  0  0  0  0  0
   -3.3490   -0.1390    1.6620 N   0  0  0  0  0  0  0  0  0  0  0  0
   -2.9190   -1.2330    1.0900 C   0  0  0  0  0  0  0  0  0  0  0  0
   -1.8970   -1.0240    0.1310 C   0  0  0  0  0  0  0  0  0  0  0  0
   -1.4340    0.2130   -0.1120 C   0  0  0  0  0  0  0  0  0  0  0  0
   -0.3700    0.5420   -1.1230 C   0  0  0  0  0  0  0  0  0  0  0  0
    0.8950    0.0370   -0.6600 N   0  0  0  0  0  0  0  0  0  0  0  0
    2.1400    0.2440   -1.2620 C   0  0  0  0  0  0  0  0  0  0  0  0
    2.2170    0.7590   -2.4370 O   0  0  0  0  0  0  0  0  0  0  0  0
    3.3630   -0.0580   -0.5910 N   0  0  0  0  0  0  0  0  0  0  0  0
    4.5750    0.1200   -1.2840 C   0  0  0  0  0  0  0  0  0  0  0  0
    5.8290    0.2310   -0.4650 C   0  0  0  0  0  0  0  0  0  0  0  0
    6.1890   -1.0980    0.6580 S   0  0  0  0  0  0  0  0  0  0  0  0
    5.0040   -1.2520    1.6640 O   0  0  0  0  0  0  0  0  0  0  0  0
   -1.5760   -2.1550   -0.8020 C   0  0  0  0  0  0  0  0  0  0  0  0
   -2.8430   -3.0250   -0.8760 C   0  0  0  0  0  0  0  0  0  0  0  0
   -3.1270   -3.6300    0.4740 C   0  0  0  0  0  0  0  0  0  0  0  0
   -3.3660   -2.5580    1.5120 C   0  0  0  0  0  0  0  0  0  0  0  0
  2  1  1  6
  2  3  1  0
  2  4  1  0
  4  5  2  0
  4  9  1  0
  5  6  1  0
  6  7  2  0
  7  8  1  0
  7 22  1  0
  8  9  2  0
  8 19  1  0
  9 10  1  0
 10 11  1  0
 11 12  1  0
 12 13  2  0
 12 14  1  0
 14 15  1  0
 15 16  1  0
 16 17  1  0
 17 18  2  0
 19 20  1  0
 20 21  1  0
 21 22  1  0
M  END
