
     RDKit          3D

 22 23  0  0  0  0  0  0  0  0999 V2000
    5.4860   -2.2040    0.0330 C   0  0  0  0  0  0  0  0  0  0  0  0
    5.3410   -0.7890    0.4050 C   0  0  0  0  0  0  0  0  0  0  0  0
    5.9460   -0.3190    1.3970 O   0  0  0  0  0  0  0  0  0  0  0  0
    4.5030    0.0640   -0.3650 N   0  0  0  0  0  0  0  0  0  0  0  0
    4.3300    1.4700   -0.0320 C   0  0  0  0  0  0  0  0  0  0  0  0
    3.3870    2.0870   -1.0230 C   0  0  0  0  0  0  0  0  0  0  0  0
    2.0740    1.4500   -1.0400 N   0  0  0  0  0  0  0  0  0  0  0  0
    1.2990    1.4400    0.1530 C   0  0  0  0  0  0  0  0  0  0  0  0
    1.7960    2.0110    1.2910 N   0  0  0  0  0  0  0  0  0  0  0  0
    1.1280    2.0300    2.4510 C   0  0  0  0  0  0  0  0  0  0  0  0
   -0.1070    1.4360    2.4460 C   0  0  0  0  0  0  0  0  0  0  0  0
   -0.6740    0.8380    1.3280 C   0  0  0  0  0  0  0  0  0  0  0  0
   -1.8670    0.2690    1.3390 N   0  0  0  0  0  0  0  0  0  0  0  0
   -2.4870   -0.3270    0.3100 C   0  0  0  0  0  0  0  0  0  0  0  0
   -3.7620   -0.9270    0.4020 N   0  0  0  0  0  0  0  0  0  0  0  0
   -3.8450   -2.3300    0.6680 C   0  0  0  0  0  0  0  0  0  0  0  0
   -4.9220   -0.1220    0.2260 C   0  0  0  0  0  0  0  0  0  0  0  0
   -5.7170   -0.3420   -1.0110 C   0  0  0  0  0  0  0  0  0  0  0  0
   -6.3900   -1.9940   -1.2100 S   0  0  0  0  0  0  0  0  0  0  0  0
   -1.7690   -0.3330   -0.8920 C   0  0  0  0  0  0  0  0  0  0  0  0
   -0.5140    0.2460   -0.9660 C   0  0  0  0  0  0  0  0  0  0  0  0
    0.0540    0.8390    0.1390 C   0  0  0  0  0  0  0  0  0  0  0  0
  1  2  1  0
  2  3  2  0
  2  4  1  0
  4  5  1  0
  5  6  1  0
  6  7  1  0
  7  8  1  0
  8  9  2  0
  8 22  1  0
  9 10  1  0
 10 11  2  0
 11 12  1  0
 12 13  2  0
 12 22  1  0
 13 14  1  0
 14 15  1  0
 14 20  2  0
 15 16  1  0
 15 17  1  0
 17 18  1  0
 18 19  1  0
 20 21  1  0
 21 22  2  0
M  END
