
     RDKit          3D

 22 23  0  0  0  0  0  0  0  0999 V2000
   -6.9060   -2.0880    0.3630 C   0  0  0  0  0  0  0  0  0  0  0  0
   -5.9000   -1.5090   -0.6250 C   0  0  0  0  0  0  0  0  0  0  0  0
   -4.9320   -0.8240    0.1540 O   0  0  0  0  0  0  0  0  0  0  0  0
   -3.8530   -0.1660   -0.4240 C   0  0  0  0  0  0  0  0  0  0  0  0
   -3.7440   -0.1870   -1.6710 O   0  0  0  0  0  0  0  0  0  0  0  0
   -2.8600    0.5380    0.4040 C   0  0  0  0  0  0  0  0  0  0  0  0
   -2.8700    0.6320    1.7780 C   0  0  0  0  0  0  0  0  0  0  0  0
   -1.8010    1.3500    2.1130 N   0  0  0  0  0  0  0  0  0  0  0  0
   -1.1380    1.6990    1.0060 N   0  0  0  0  0  0  0  0  0  0  0  0
   -1.7610    1.2150   -0.0930 C   0  0  0  0  0  0  0  0  0  0  0  0
   -1.3080    1.4190   -1.4170 N   0  0  0  0  0  0  0  0  0  0  0  0
   -0.1170    2.1590   -1.7170 C   0  0  0  0  0  0  0  0  0  0  0  0
    1.1070    1.5480   -1.1700 C   0  0  0  0  0  0  0  0  0  0  0  0
    1.0280    0.2920   -0.6250 C   0  0  0  0  0  0  0  0  0  0  0  0
    2.1650   -0.3220   -0.0960 C   0  0  0  0  0  0  0  0  0  0  0  0
    3.3860    0.3390   -0.1180 C   0  0  0  0  0  0  0  0  0  0  0  0
    4.5490   -0.3070    0.4310 N   0  0  0  0  0  0  0  0  0  0  0  0
    6.0660    0.5740    0.3770 S   0  0  0  0  0  0  0  0  0  0  0  0
    4.4840   -1.6240    1.0070 C   0  0  0  0  0  0  0  0  0  0  0  0
    5.8550   -2.0220    1.4920 C   0  0  0  0  0  0  0  0  0  0  0  0
    3.4470    1.5940   -0.6670 C   0  0  0  0  0  0  0  0  0  0  0  0
    2.3130    2.1920   -1.1880 C   0  0  0  0  0  0  0  0  0  0  0  0
  1  2  1  0
  2  3  1  0
  3  4  1  0
  4  5  2  0
  4  6  1  0
  6  7  1  0
  6 10  2  0
  7  8  2  0
  8  9  1  0
  9 10  1  0
 10 11  1  0
 11 12  1  0
 12 13  1  0
 13 14  2  0
 13 22  1  0
 14 15  1  0
 15 16  2  0
 16 17  1  0
 16 21  1  0
 17 18  1  0
 17 19  1  0
 19 20  1  0
 21 22  2  0
M  END
