
     RDKit          3D

 15 16  0  0  0  0  0  0  0  0999 V2000
    5.7530   -0.4990   -0.7130 O   0  0  0  0  0  0  0  0  0  0  0  0
    4.8140   -0.2600    0.0870 C   0  0  0  0  0  0  0  0  0  0  0  0
    3.4400   -0.3040   -0.3960 C   0  0  0  0  0  0  0  0  0  0  0  0
    2.4600   -0.0540    0.4460 C   0  0  0  0  0  0  0  0  0  0  0  0
    1.0410   -0.0620    0.1050 C   0  0  0  0  0  0  0  0  0  0  0  0
    0.1290    0.2270    1.1240 C   0  0  0  0  0  0  0  0  0  0  0  0
   -1.2150    0.2300    0.8460 C   0  0  0  0  0  0  0  0  0  0  0  0
   -2.1570    0.5130    1.8330 C   0  0  0  0  0  0  0  0  0  0  0  0
   -3.5040    0.5070    1.5190 C   0  0  0  0  0  0  0  0  0  0  0  0
   -3.8630    0.2190    0.2240 C   0  0  0  0  0  0  0  0  0  0  0  0
   -2.9320   -0.0630   -0.7600 C   0  0  0  0  0  0  0  0  0  0  0  0
   -1.5870   -0.0580   -0.4490 C   0  0  0  0  0  0  0  0  0  0  0  0
   -0.6700   -0.3400   -1.4380 C   0  0  0  0  0  0  0  0  0  0  0  0
   -0.9990   -0.6060   -2.6300 O   0  0  0  0  0  0  0  0  0  0  0  0
    0.6610   -0.3400   -1.1510 N   0  0  0  0  0  0  0  0  0  0  0  0
  1  2  2  0
  2  3  1  0
  3  4  2  3
  4  5  1  0
  5  6  2  0
  5 15  1  0
  6  7  1  0
  7  8  2  0
  7 12  1  0
  8  9  1  0
  9 10  2  0
 10 11  1  0
 11 12  2  0
 12 13  1  0
 13 14  2  0
 13 15  1  0
M  END
