
     RDKit          3D

  8  7  0  0  0  0  0  0  0  0999 V2000
    0.0870   -1.3930   -0.2310 C   0  0  0  0  0  0  0  0  0  0  0  0
   -0.4700   -0.0840    0.0090 N   0  0  1  0  0  0  0  0  0  0  0  0
   -0.4890    0.6960   -1.2150 C   0  0  0  0  0  0  0  0  0  0  0  0
   -1.8340   -0.2640    0.4680 C   0  0  0  0  0  0  0  0  0  0  0  0
    0.3090    0.6530    1.0030 C   0  0  0  0  0  0  0  0  0  0  0  0
    1.7280    0.6490    0.5820 C   0  0  0  0  0  0  0  0  0  0  0  0
    2.5770    1.2340    1.3050 O   0  0  0  0  0  0  0  0  0  0  0  0
    2.1490    0.0320   -0.5670 O   0  0  0  0  0  0  0  0  0  0  0  0
  2  1  1  6
  2  3  1  0
  2  4  1  0
  2  5  1  0
  5  6  1  0
  6  7  2  0
  6  8  1  0
M  CHG  1   2   1
M  END
