
     RDKit          3D

 14 15  0  0  0  0  0  0  0  0999 V2000
   -2.2950   -1.1390    0.0250 N   0  0  0  0  0  0  0  0  0  0  0  0
   -1.4300    0.0020    0.0000 C   0  0  0  0  0  0  0  0  0  0  0  0
   -0.1500   -0.1500   -0.2740 C   0  0  0  0  0  0  0  0  0  0  0  0
    0.3790   -1.5050   -0.5510 C   0  0  0  0  0  0  0  0  0  0  0  0
   -0.3910   -2.4010   -1.0190 O   0  0  0  0  0  0  0  0  0  0  0  0
    1.7460   -1.7670   -0.2820 N   0  0  0  0  0  0  0  0  0  0  0  0
    2.5270   -0.7290    0.2330 N   0  0  0  0  0  0  0  0  0  0  0  0
    1.9790    0.5570    0.4860 C   0  0  0  0  0  0  0  0  0  0  0  0
    2.4850    1.2730    1.3690 O   0  0  0  0  0  0  0  0  0  0  0  0
    0.8080    0.9650   -0.3460 C   0  0  2  0  0  0  0  0  0  0  0  0
    0.2680    2.1730    0.0110 O   0  0  0  0  0  0  0  0  0  0  0  0
   -1.0590    2.3610    0.2950 C   0  0  0  0  0  0  0  0  0  0  0  0
   -1.5450    3.5050    0.5650 O   0  0  0  0  0  0  0  0  0  0  0  0
   -1.9890    1.2740    0.3060 N   0  0  0  0  0  0  0  0  0  0  0  0
  1  2  1  0
  2  3  2  0
  2 14  1  0
  3  4  1  0
  3 10  1  0
  4  5  2  0
  4  6  1  0
  6  7  1  0
  7  8  1  0
  8  9  2  0
  8 10  1  0
 10 11  1  1
 11 12  1  0
 12 13  2  0
 12 14  1  0
M  END
