
     RDKit          3D

 13 14  0  0  0  0  0  0  0  0999 V2000
   -3.8780    0.9460    1.3050 O   0  0  0  0  0  0  0  0  0  0  0  0
   -2.8280    0.4040    0.8720 C   0  0  0  0  0  0  0  0  0  0  0  0
   -2.8760   -0.8620    0.1190 C   0  0  0  0  0  0  0  0  0  0  0  0
   -1.9020   -0.9150   -0.9080 O   0  0  0  0  0  0  0  0  0  0  0  0
   -0.6490   -0.3580   -0.7270 C   0  0  0  0  0  0  0  0  0  0  0  0
    0.3640   -0.7220   -1.4820 C   0  0  0  0  0  0  0  0  0  0  0  0
    1.6440   -0.1400   -1.2840 N   0  0  0  0  0  0  0  0  0  0  0  0
    1.8970    0.8510   -0.2750 C   0  0  2  0  0  0  0  0  0  0  0  0
    2.9510    0.4790    0.6330 N   0  0  0  0  0  0  0  0  0  0  0  0
    2.7270   -0.6400    1.3070 O   0  0  0  0  0  0  0  0  0  0  0  0
    0.7090    1.1590    0.4780 N   0  0  0  0  0  0  0  0  0  0  0  0
   -0.4420    0.6530    0.3190 C   0  0  0  0  0  0  0  0  0  0  0  0
   -1.5660    1.0140    1.1090 N   0  0  0  0  0  0  0  0  0  0  0  0
  1  2  2  0
  2  3  1  0
  2 13  1  0
  3  4  1  0
  4  5  1  0
  5  6  2  0
  5 12  1  0
  6  7  1  0
  7  8  1  0
  8  9  1  1
  8 11  1  0
  9 10  1  0
 11 12  2  0
 12 13  1  0
M  END
