
     RDKit          3D

 14 14  0  0  0  0  0  0  0  0999 V2000
    0.1360    2.0950   -1.0050 C   0  0  0  0  0  0  0  0  0  0  0  0
    0.1490    0.7270   -0.3730 C   0  0  1  0  0  0  0  0  0  0  0  0
    1.2740    0.6160    0.5220 N   0  0  0  0  0  0  0  0  0  0  0  0
    2.2930   -0.3380    0.3050 C   0  0  0  0  0  0  0  0  0  0  0  0
    2.2370   -1.1250   -0.6950 O   0  0  0  0  0  0  0  0  0  0  0  0
    3.3890   -0.4470    1.1760 O   0  0  0  0  0  0  0  0  0  0  0  0
    4.3430   -1.4080    0.8910 N   0  0  0  0  0  0  0  0  0  0  0  0
   -1.0990    0.4530    0.4290 C   0  0  2  0  0  0  0  0  0  0  0  0
   -0.9750   -0.8380    0.9420 O   0  0  0  0  0  0  0  0  0  0  0  0
   -1.4360   -1.7400    0.0170 C   0  0  0  0  0  0  0  0  0  0  0  0
   -2.9030   -1.7570    0.1400 N   0  0  0  0  0  0  0  0  0  0  0  0
   -3.3230   -0.5010   -0.3130 N   0  0  0  0  0  0  0  0  0  0  0  0
   -2.3330    0.5240   -0.3850 C   0  0  0  0  0  0  0  0  0  0  0  0
   -2.5240    1.5160   -1.1690 O   0  0  0  0  0  0  0  0  0  0  0  0
  2  1  1  1
  2  3  1  0
  2  8  1  0
  3  4  1  0
  4  5  2  0
  4  6  1  0
  6  7  1  0
  8  9  1  6
  8 13  1  0
  9 10  1  0
 10 11  1  0
 11 12  1  0
 12 13  1  0
 13 14  2  0
M  END
