
     RDKit          3D

  7  6  0  0  0  0  0  0  0  0999 V2000
   -3.0440    0.4040   -0.5500 C   0  0  0  0  0  0  0  0  0  0  0  0
   -1.6500   -0.0280   -0.9500 C   0  0  0  0  0  0  0  0  0  0  0  0
   -0.6740    0.1250    0.1780 C   0  0  0  0  0  0  0  0  0  0  0  0
    0.6940   -0.2770   -0.1450 C   0  0  0  0  0  0  0  0  0  0  0  0
    0.8860   -0.6910   -1.2960 O   0  0  0  0  0  0  0  0  0  0  0  0
    1.8080   -0.2460    0.6970 N   0  0  0  0  0  0  0  0  0  0  0  0
    3.0630   -0.2020   -0.0220 C   0  0  0  0  0  0  0  0  0  0  0  0
  1  2  1  0
  2  3  1  0
  3  4  1  0
  4  5  2  0
  4  6  1  0
  6  7  1  0
M  CHG  1   6   1
M  END
