
     RDKit          3D

  7  6  0  0  0  0  0  0  0  0999 V2000
   -1.8770   -0.0900    0.8560 C   0  0  0  0  0  0  0  0  0  0  0  0
   -1.8410   -0.6340   -0.3370 C   0  0  0  0  0  0  0  0  0  0  0  0
   -1.0510   -0.1720   -1.4930 C   0  0  0  0  0  0  0  0  0  0  0  0
   -0.2690    0.9580   -1.2740 O   0  0  0  0  0  0  0  0  0  0  0  0
    0.7280    0.9620   -0.3090 C   0  0  0  0  0  0  0  0  0  0  0  0
    1.3620   -0.1330   -0.0820 N   0  0  0  0  0  0  0  0  0  0  0  0
    2.4100   -0.1540    0.9240 C   0  0  0  0  0  0  0  0  0  0  0  0
  1  2  2  0
  2  3  1  0
  3  4  1  0
  4  5  1  0
  5  6  2  3
  6  7  1  0
M  END
