
     RDKit          3D

  7  6  0  0  0  0  0  0  0  0999 V2000
   -1.8500   -1.0810   -0.4340 C   0  0  0  0  0  0  0  0  0  0  0  0
   -0.9710   -0.4460    0.6210 C   0  0  0  0  0  0  0  0  0  0  0  0
    0.0730    0.3440    0.1530 N   0  0  0  0  0  0  0  0  0  0  0  0
    1.1640   -0.1950   -0.5220 C   0  0  0  0  0  0  0  0  0  0  0  0
    2.1030   -1.0560    0.2720 C   0  0  0  0  0  0  0  0  0  0  0  0
   -0.0230    1.7560    0.2890 C   0  0  0  0  0  0  0  0  0  0  0  0
   -1.1390    2.1850   -0.4400 O   0  0  0  0  0  0  0  0  0  0  0  0
  1  2  1  0
  2  3  1  0
  3  4  1  0
  3  6  1  0
  4  5  1  0
  6  7  1  0
M  END
