
     RDKit          3D

 10 10  0  0  0  0  0  0  0  0999 V2000
   -1.9190    1.1540    0.2080 C   0  0  0  0  0  0  0  0  0  0  0  0
   -1.3420    0.0430   -0.6120 C   0  0  2  0  0  0  0  0  0  0  0  0
   -1.3670   -1.2300    0.0210 N   0  0  0  0  0  0  0  0  0  0  0  0
   -0.3130   -1.5120    0.9200 C   0  0  0  0  0  0  0  0  0  0  0  0
    1.0060   -0.9220    0.5970 C   0  0  0  0  0  0  0  0  0  0  0  0
    0.8880    0.4570   -0.0110 C   0  0  1  0  0  0  0  0  0  0  0  0
    2.2070    0.9570   -0.4420 C   0  0  0  0  0  0  0  0  0  0  0  0
    2.4400    1.2470   -1.6600 O   0  0  0  0  0  0  0  0  0  0  0  0
    3.2390    1.1270    0.4640 O   0  0  0  0  0  0  0  0  0  0  0  0
   -0.0130    0.3660   -1.1300 N   0  0  0  0  0  0  0  0  0  0  0  0
  2  1  1  1
  2  3  1  0
  2 10  1  0
  3  4  1  0
  4  5  1  0
  5  6  1  0
  6  7  1  6
  6 10  1  0
  7  8  2  0
  7  9  1  0
M  CHG  2   3   1  10   1
M  END
