
     RDKit          3D

 10 10  0  0  0  0  0  0  0  0999 V2000
    2.4700   -0.8730    0.4570 N   0  0  0  0  0  0  0  0  0  0  0  0
    1.1040   -0.7120    0.9600 C   0  0  0  0  0  0  0  0  0  0  0  0
    0.2930   -0.1180   -0.1510 C   0  0  2  0  0  0  0  0  0  0  0  0
    0.8200    1.2340   -0.6010 C   0  0  0  0  0  0  0  0  0  0  0  0
   -0.3340    2.1080   -1.0200 C   0  0  0  0  0  0  0  0  0  0  0  0
   -0.2300    3.3460   -0.8190 O   0  0  0  0  0  0  0  0  0  0  0  0
   -1.4760    1.5470   -1.6120 O   0  0  0  0  0  0  0  0  0  0  0  0
   -1.8690    0.2450   -1.1700 C   0  0  0  0  0  0  0  0  0  0  0  0
   -1.1560    0.0420    0.1650 C   0  0  1  0  0  0  0  0  0  0  0  0
   -1.7200   -1.0390    0.9140 N   0  0  0  0  0  0  0  0  0  0  0  0
  1  2  1  0
  3  2  1  1
  3  4  1  0
  3  9  1  0
  4  5  1  0
  5  6  2  0
  5  7  1  0
  7  8  1  0
  8  9  1  0
  9 10  1  6
M  CHG  2   1   1  10   1
M  END
