
     RDKit          3D

 10 10  0  0  0  0  0  0  0  0999 V2000
   -0.4850   -1.6750    0.8000 C   0  0  0  0  0  0  0  0  0  0  0  0
   -0.4960   -0.3050    0.2140 C   0  0  2  0  0  0  0  0  0  0  0  0
    0.5370    0.6210    0.7150 C   0  0  0  0  0  0  0  0  0  0  0  0
    1.9540    0.2190    0.5160 C   0  0  0  0  0  0  0  0  0  0  0  0
    2.2930    0.0520   -0.8850 N   0  0  0  0  0  0  0  0  0  0  0  0
   -1.8000    0.2910    0.5130 N   0  0  0  0  0  0  0  0  0  0  0  0
   -2.0120    1.2380   -0.5570 C   0  0  0  0  0  0  0  0  0  0  0  0
   -1.1410    0.8560   -1.6270 O   0  0  0  0  0  0  0  0  0  0  0  0
   -0.5810   -0.3860   -1.2670 C   0  0  0  0  0  0  0  0  0  0  0  0
   -0.2480   -1.3110   -2.0520 O   0  0  0  0  0  0  0  0  0  0  0  0
  2  1  1  1
  2  3  1  0
  2  6  1  0
  2  9  1  0
  3  4  1  0
  4  5  1  0
  6  7  1  0
  7  8  1  0
  8  9  1  0
  9 10  2  0
M  CHG  2   5   1   6   1
M  END
