
     RDKit          3D

 10 10  0  0  0  0  0  0  0  0999 V2000
    2.3210   -0.9760    0.6950 N   0  0  0  0  0  0  0  0  0  0  0  0
    1.3030    0.0220    1.0350 C   0  0  0  0  0  0  0  0  0  0  0  0
    0.3670    0.1120   -0.1310 C   0  0  2  0  0  0  0  0  0  0  0  0
    1.1710    0.5100   -1.3440 C   0  0  0  0  0  0  0  0  0  0  0  0
    1.6980    1.7590   -1.1530 O   0  0  0  0  0  0  0  0  0  0  0  0
   -0.7600    1.0630    0.0450 C   0  0  0  0  0  0  0  0  0  0  0  0
   -1.8900    0.5930   -0.7740 N   0  0  0  0  0  0  0  0  0  0  0  0
   -2.4850   -0.5090   -0.0170 C   0  0  0  0  0  0  0  0  0  0  0  0
   -1.2930   -1.2950    0.5470 C   0  0  0  0  0  0  0  0  0  0  0  0
   -0.1900   -1.1740   -0.2990 O   0  0  0  0  0  0  0  0  0  0  0  0
  1  2  1  0
  3  2  1  1
  3  4  1  0
  3  6  1  0
  3 10  1  0
  4  5  1  0
  6  7  1  0
  7  8  1  0
  8  9  1  0
  9 10  1  0
M  CHG  2   1   1   7   1
M  END
