
     RDKit          3D

 19 18  0  0  0  0  0  0  0  0999 V2000
   -3.5940   -2.8760    0.4200 C   0  0  0  0  0  0  0  0  0  0  0  0
   -1.8320   -2.9340    0.4910 S   0  0  0  0  0  0  0  0  0  0  0  0
   -0.9610   -1.3990    0.5670 C   0  0  0  0  0  0  0  0  0  0  0  0
   -1.0760   -0.5280   -0.6950 C   0  0  1  0  0  0  0  0  0  0  0  0
   -0.4930   -1.4350   -1.7980 C   0  0  0  0  0  0  0  0  0  0  0  0
   -2.2750   -0.1920   -1.0040 O   0  0  0  0  0  0  0  0  0  0  0  0
   -3.3550    0.3820   -0.7110 C   0  0  0  0  0  0  0  0  0  0  0  0
   -3.4390    1.8890   -0.4410 C   0  0  0  0  0  0  0  0  0  0  0  0
   -4.8250    2.1250   -0.1700 O   0  0  0  0  0  0  0  0  0  0  0  0
   -0.0270    0.5800   -0.5560 C   0  0  2  0  0  0  0  0  0  0  0  0
   -0.2720    1.4910    0.5930 C   0  0  0  0  0  0  0  0  0  0  0  0
   -0.0230    1.2360   -1.7770 O   0  0  0  0  0  0  0  0  0  0  0  0
    1.2750   -0.0130   -0.3650 N   0  0  0  0  0  0  0  0  0  0  0  0
    2.3850    0.8370   -0.0640 C   0  0  0  0  0  0  0  0  0  0  0  0
    2.3730    2.0830   -0.3420 N   0  0  0  0  0  0  0  0  0  0  0  0
    3.6090    0.2900    0.5940 C   0  0  1  0  0  0  0  0  0  0  0  0
    3.2990   -0.2860    1.9430 C   0  0  0  0  0  0  0  0  0  0  0  0
    4.1760   -0.8020   -0.2860 C   0  0  0  0  0  0  0  0  0  0  0  0
    4.5120   -0.2960   -1.5440 O   0  0  0  0  0  0  0  0  0  0  0  0
  1  2  1  0
  2  3  1  0
  3  4  1  0
  4  5  1  6
  4  6  1  0
  4 10  1  0
  6  7  1  0
  7  8  1  0
  8  9  1  0
 10 11  1  1
 10 12  1  0
 10 13  1  0
 13 14  1  0
 14 15  2  0
 14 16  1  0
 16 17  1  1
 16 18  1  0
 18 19  1  0
M  CHG  1  15   1
M  END
