
     RDKit          3D

 19 18  0  0  0  0  0  0  0  0999 V2000
   -4.6000   -0.6920    0.5200 C   0  0  0  0  0  0  0  0  0  0  0  0
   -3.1390   -0.5210    0.9000 C   0  0  0  0  0  0  0  0  0  0  0  0
   -2.3740   -0.3000   -0.3460 C   0  0  1  0  0  0  0  0  0  0  0  0
   -2.5880   -1.4560   -1.2820 C   0  0  0  0  0  0  0  0  0  0  0  0
   -2.9900    0.9130   -1.0630 C   0  0  0  0  0  0  0  0  0  0  0  0
   -3.5200    2.0990   -0.3720 C   0  0  0  0  0  0  0  0  0  0  0  0
   -3.0370    0.9310   -2.2870 O   0  0  0  0  0  0  0  0  0  0  0  0
   -0.9290    0.0560   -0.2480 C   0  0  1  0  0  0  0  0  0  0  0  0
   -0.6400    1.4680   -0.1740 N   0  0  0  0  0  0  0  0  0  0  0  0
   -0.2210   -0.5260    0.9800 C   0  0  0  0  0  0  0  0  0  0  0  0
    0.8490   -1.5430    0.6430 C   0  0  0  0  0  0  0  0  0  0  0  0
    1.8860   -1.0080   -0.2710 C   0  0  0  0  0  0  0  0  0  0  0  0
    2.9460   -0.2120    0.2420 C   0  0  1  0  0  0  0  0  0  0  0  0
    4.0260   -0.9910    0.8350 O   0  0  0  0  0  0  0  0  0  0  0  0
    3.5950    0.8560   -0.4950 C   0  0  0  0  0  0  0  0  0  0  0  0
    4.7440    0.3660   -1.1570 N   0  0  0  0  0  0  0  0  0  0  0  0
    6.0200    0.9210   -0.1150 S   0  0  2  0  0  0  0  0  0  0  0  0
    5.3910    1.2020    1.2750 O   0  0  0  0  0  0  0  0  0  0  0  0
    6.7850    1.9950   -0.5770 O   0  0  0  0  0  0  0  0  0  0  0  0
  1  2  1  0
  2  3  1  0
  3  4  1  6
  3  5  1  0
  3  8  1  0
  5  6  1  0
  5  7  2  0
  8  9  1  1
  8 10  1  0
 10 11  1  0
 11 12  1  0
 12 13  1  0
 13 14  1  6
 13 15  1  0
 15 16  1  0
 17 16  1  6
 17 18  2  0
 17 19  2  0
M  CHG  1   9   1
M  END
