
     RDKit          3D

 19 18  0  0  0  0  0  0  0  0999 V2000
   -4.8470   -1.7240    0.8260 C   0  0  0  0  0  0  0  0  0  0  0  0
   -3.8650   -0.5940    0.7570 C   0  0  0  0  0  0  0  0  0  0  0  0
   -2.8160   -0.7730   -0.2900 C   0  0  2  0  0  0  0  0  0  0  0  0
   -3.4660   -0.8810   -1.6420 C   0  0  0  0  0  0  0  0  0  0  0  0
   -2.1410   -1.9690   -0.0550 O   0  0  0  0  0  0  0  0  0  0  0  0
   -1.8460    0.3840   -0.2080 C   0  0  0  0  0  0  0  0  0  0  0  0
   -0.7860    0.3130   -1.1460 N   0  0  0  0  0  0  0  0  0  0  0  0
    0.5440    0.3440   -0.5820 C   0  0  2  0  0  0  0  0  0  0  0  0
    0.8220   -0.8700    0.2680 C   0  0  0  0  0  0  0  0  0  0  0  0
    2.2090   -0.8490    0.8510 C   0  0  0  0  0  0  0  0  0  0  0  0
    3.2890   -0.8220   -0.2120 C   0  0  0  0  0  0  0  0  0  0  0  0
    4.6290   -0.8040    0.4910 C   0  0  1  0  0  0  0  0  0  0  0  0
    4.7240    0.4260    1.3660 C   0  0  0  0  0  0  0  0  0  0  0  0
    4.6970   -1.9740    1.2530 O   0  0  0  0  0  0  0  0  0  0  0  0
    0.8470    1.5930    0.1690 C   0  0  0  0  0  0  0  0  0  0  0  0
    0.7490    3.0700   -0.7880 S   0  0  2  0  0  0  0  0  0  0  0  0
   -0.8230    3.3230   -1.4490 N   0  0  0  0  0  0  0  0  0  0  0  0
    1.7940    3.0740   -1.8960 O   0  0  0  0  0  0  0  0  0  0  0  0
    1.0620    4.2790    0.0560 O   0  0  0  0  0  0  0  0  0  0  0  0
  1  2  1  0
  2  3  1  0
  3  4  1  6
  3  5  1  0
  3  6  1  0
  6  7  1  0
  7  8  1  0
  8  9  1  1
  8 15  1  0
  9 10  1  0
 10 11  1  0
 11 12  1  0
 12 13  1  1
 12 14  1  0
 15 16  1  0
 16 17  1  6
 16 18  2  0
 16 19  2  0
M  CHG  1   7   1
M  END
