
     RDKit          3D

 19 18  0  0  0  0  0  0  0  0999 V2000
    3.4560    0.0890   -2.0560 C   0  0  0  0  0  0  0  0  0  0  0  0
    3.7510   -0.5940   -0.7790 C   0  0  0  0  0  0  0  0  0  0  0  0
    2.8990   -0.5140    0.2140 C   0  0  0  0  0  0  0  0  0  0  0  0
    1.7330    0.2220    0.0150 O   0  0  0  0  0  0  0  0  0  0  0  0
    0.4340   -0.4140    0.1500 C   0  0  0  0  0  0  0  0  0  0  0  0
   -0.5380    0.6940   -0.1370 C   0  0  1  0  0  0  0  0  0  0  0  0
   -1.9670    0.4070    0.0140 C   0  0  0  0  0  0  0  0  0  0  0  0
   -2.6600   -0.6170   -0.7710 C   0  0  2  0  0  0  0  0  0  0  0  0
   -4.1070   -0.6200   -0.3820 N   0  0  0  0  0  0  0  0  0  0  0  0
   -2.2650   -2.0540   -0.6010 C   0  0  1  0  0  0  0  0  0  0  0  0
   -2.4290   -2.5210    0.8310 C   0  0  0  0  0  0  0  0  0  0  0  0
   -3.6080   -2.9930   -1.4980 S   0  0  0  0  0  0  0  0  0  0  0  0
   -0.1760    1.6940    0.8360 O   0  0  0  0  0  0  0  0  0  0  0  0
    0.3880    2.7860    0.1870 C   0  0  0  0  0  0  0  0  0  0  0  0
    0.7500    3.8030    1.2490 C   0  0  0  0  0  0  0  0  0  0  0  0
    1.3180    4.9020    0.5890 O   0  0  0  0  0  0  0  0  0  0  0  0
    3.1810   -1.1800    1.4670 C   0  0  0  0  0  0  0  0  0  0  0  0
    4.2330   -1.8620    1.6880 N   0  0  0  0  0  0  0  0  0  0  0  0
    2.2560   -1.0780    2.5040 O   0  0  0  0  0  0  0  0  0  0  0  0
  1  2  1  0
  2  3  2  3
  3  4  1  0
  3 17  1  0
  4  5  1  0
  6  5  1  1
  6  7  1  0
  6 13  1  0
  7  8  1  0
  8  9  1  1
  8 10  1  0
 10 11  1  1
 10 12  1  0
 13 14  1  0
 14 15  1  0
 15 16  1  0
 17 18  2  0
 17 19  1  0
M  CHG  1   9   1
M  END
