
     RDKit          3D

 27 30  0  0  0  0  0  0  0  0999 V2000
    3.2490   -3.2060   -0.5670 O   0  0  0  0  0  0  0  0  0  0  0  0
    2.7920   -1.8930    0.1110 S   0  0  1  0  0  0  0  0  0  0  0  0
    3.4380   -1.8180    1.4040 O   0  0  0  0  0  0  0  0  0  0  0  0
    3.0650   -0.6210   -1.0660 C   0  0  0  0  0  0  0  0  0  0  0  0
    4.4790   -0.3970   -1.3680 C   0  0  1  0  0  0  0  0  0  0  0  0
    4.5810    0.6280   -2.5480 C   0  0  0  0  0  0  0  0  0  0  0  0
    6.4700    0.5210   -2.5100 S   0  0  0  0  0  0  0  0  0  0  0  0
    6.4470    0.7250   -0.7220 C   0  0  0  0  0  0  0  0  0  0  0  0
    7.1340    1.2550    0.2710 N   0  0  0  0  0  0  0  0  0  0  0  0
    6.4020    1.1500    1.3980 C   0  0  0  0  0  0  0  0  0  0  0  0
    5.2210    0.5110    0.9910 C   0  0  0  0  0  0  0  0  0  0  0  0
    5.2410    0.2390   -0.3170 N   0  0  0  0  0  0  0  0  0  0  0  0
    1.0690   -2.0130    0.3600 N   0  0  0  0  0  0  0  0  0  0  0  0
    0.5480   -0.7880    0.8780 C   0  0  0  0  0  0  0  0  0  0  0  0
   -0.9660   -0.8720    1.1030 C   0  0  0  0  0  0  0  0  0  0  0  0
   -1.5740   -1.1840   -0.2440 C   0  0  0  0  0  0  0  0  0  0  0  0
   -3.0410   -1.2890   -0.2320 C   0  0  0  0  0  0  0  0  0  0  0  0
   -3.8620   -2.4010   -0.2440 C   0  0  0  0  0  0  0  0  0  0  0  0
   -5.1390   -2.0240   -0.2220 N   0  0  0  0  0  0  0  0  0  0  0  0
   -5.2000   -0.6780   -0.1950 C   0  0  0  0  0  0  0  0  0  0  0  0
   -3.8930   -0.2050   -0.2010 C   0  0  0  0  0  0  0  0  0  0  0  0
   -3.7650    1.1090   -0.1760 C   0  0  0  0  0  0  0  0  0  0  0  0
   -4.8770    2.0520   -0.1450 C   0  0  0  0  0  0  0  0  0  0  0  0
   -4.6870    3.3580   -0.1150 C   0  0  0  0  0  0  0  0  0  0  0  0
   -3.4110    3.8810   -0.1120 O   0  0  0  0  0  0  0  0  0  0  0  0
   -6.2530    1.5060   -0.1450 C   0  0  0  0  0  0  0  0  0  0  0  0
   -6.2140    0.0860   -0.1720 N   0  0  0  0  0  0  0  0  0  0  0  0
  1  2  2  0
  2  3  2  0
  2  4  1  6
  2 13  1  0
  5  4  1  1
  5  6  1  0
  5 12  1  0
  6  7  1  0
  7  8  1  0
  8  9  2  0
  8 12  1  0
  9 10  1  0
 10 11  2  0
 11 12  1  0
 13 14  1  0
 14 15  1  0
 15 16  1  0
 16 17  1  0
 17 18  2  0
 17 21  1  0
 18 19  1  0
 19 20  1  0
 20 21  1  0
 20 27  2  0
 21 22  2  0
 22 23  1  0
 23 24  2  3
 23 26  1  0
 24 25  1  0
 26 27  1  0
M  END
