
     RDKit          3D

 26 29  0  0  0  0  0  0  0  0999 V2000
    5.4700    0.2460   -0.1170 C   0  0  0  0  0  0  0  0  0  0  0  0
    4.2590    0.1390    0.8240 C   0  0  0  0  0  0  0  0  0  0  0  0
    4.5060   -0.1360    2.1700 C   0  0  0  0  0  0  0  0  0  0  0  0
    2.8910   -0.2200    2.8940 S   0  0  0  0  0  0  0  0  0  0  0  0
    1.9910    0.1160    1.3640 C   0  0  0  0  0  0  0  0  0  0  0  0
    0.5900    0.1800    1.3100 N   0  0  0  0  0  0  0  0  0  0  0  0
   -0.2180   -0.0240    2.4730 C   0  0  0  0  0  0  0  0  0  0  0  0
    0.3650   -0.2640    3.5540 O   0  0  0  0  0  0  0  0  0  0  0  0
   -1.7010    0.0430    2.4200 C   0  0  0  0  0  0  0  0  0  0  0  0
   -2.1950    0.3260    1.1090 N   0  0  0  0  0  0  0  0  0  0  0  0
   -2.4250    1.6550    0.6400 C   0  0  0  0  0  0  0  0  0  0  0  0
   -1.7760    2.6020    1.0890 O   0  0  0  0  0  0  0  0  0  0  0  0
   -3.4790    1.8730   -0.4150 C   0  0  0  0  0  0  0  0  0  0  0  0
   -3.1610    0.9710   -1.5630 C   0  0  0  0  0  0  0  0  0  0  0  0
   -2.9590   -0.4130   -1.0880 C   0  0  0  0  0  0  0  0  0  0  0  0
   -3.2470   -1.4560   -1.9770 C   0  0  0  0  0  0  0  0  0  0  0  0
   -3.0810   -2.7720   -1.6480 C   0  0  0  0  0  0  0  0  0  0  0  0
   -2.6100   -3.0670   -0.3870 C   0  0  0  0  0  0  0  0  0  0  0  0
   -2.3220   -2.0420    0.5020 C   0  0  0  0  0  0  0  0  0  0  0  0
   -2.4870   -0.7030    0.1790 C   0  0  0  0  0  0  0  0  0  0  0  0
    2.9900    0.2660    0.4250 C   0  0  0  0  0  0  0  0  0  0  0  0
    2.5540    0.6030   -0.9720 C   0  0  0  0  0  0  0  0  0  0  0  0
    1.2960    0.5360   -1.4340 N   0  0  0  0  0  0  0  0  0  0  0  0
    1.2260    0.8600   -2.7290 C   0  0  0  0  0  0  0  0  0  0  0  0
    2.4740    1.1380   -3.0910 N   0  0  0  0  0  0  0  0  0  0  0  0
    3.2860    0.9790   -2.0070 N   0  0  0  0  0  0  0  0  0  0  0  0
  1  2  1  0
  2  3  2  0
  2 21  1  0
  3  4  1  0
  4  5  1  0
  5  6  1  0
  5 21  2  0
  6  7  1  0
  7  8  2  0
  7  9  1  0
  9 10  1  0
 10 11  1  0
 10 20  1  0
 11 12  2  0
 11 13  1  0
 13 14  1  0
 14 15  1  0
 15 16  2  0
 15 20  1  0
 16 17  1  0
 17 18  2  0
 18 19  1  0
 19 20  2  0
 21 22  1  0
 22 23  2  0
 22 26  1  0
 23 24  1  0
 24 25  2  0
 25 26  1  0
M  END
