
     RDKit          3D

 15 15  0  0  0  0  0  0  0  0999 V2000
    5.1590    0.4090   -0.0010 C   0  0  0  0  0  0  0  0  0  0  0  0
    4.4990   -0.8070   -0.6590 C   0  0  0  0  0  0  0  0  0  0  0  0
    3.0510   -0.8100   -0.1770 C   0  0  0  0  0  0  0  0  0  0  0  0
    2.4430    0.4930   -0.6320 C   0  0  0  0  0  0  0  0  0  0  0  0
    1.1070    0.6290   -0.2570 O   0  0  0  0  0  0  0  0  0  0  0  0
    0.0800   -0.2210   -0.6300 C   0  0  0  0  0  0  0  0  0  0  0  0
    0.3910   -1.1930   -1.3690 O   0  0  0  0  0  0  0  0  0  0  0  0
   -1.2580    0.0590   -0.1550 C   0  0  2  0  0  0  0  0  0  0  0  0
   -1.2630    1.2000    0.6370 O   0  0  0  0  0  0  0  0  0  0  0  0
   -1.8890   -1.0400    0.6560 C   0  0  0  0  0  0  0  0  0  0  0  0
   -3.0970   -0.4790    1.3360 C   0  0  0  0  0  0  0  0  0  0  0  0
   -3.9150    0.4690    0.5800 C   0  0  2  0  0  0  0  0  0  0  0  0
   -5.1640   -0.1300    0.2850 O   0  0  0  0  0  0  0  0  0  0  0  0
   -3.3840    1.0390   -0.6730 C   0  0  0  0  0  0  0  0  0  0  0  0
   -2.2560    0.2910   -1.3010 C   0  0  0  0  0  0  0  0  0  0  0  0
  1  2  1  0
  2  3  1  0
  3  4  1  0
  4  5  1  0
  5  6  1  0
  6  7  2  0
  6  8  1  0
  8  9  1  1
  8 10  1  0
  8 15  1  0
 10 11  1  0
 11 12  1  0
 12 13  1  6
 12 14  1  0
 14 15  1  0
M  END
