
     RDKit          3D

 27 29  0  0  0  0  0  0  0  0999 V2000
   -7.2400    1.4820    0.2670 C   0  0  0  0  0  0  0  0  0  0  0  0
   -7.5920    0.2430    1.0690 C   0  0  0  0  0  0  0  0  0  0  0  0
   -6.9790   -0.9930    0.4570 C   0  0  1  0  0  0  0  0  0  0  0  0
   -7.5060   -1.1510   -0.9490 C   0  0  0  0  0  0  0  0  0  0  0  0
   -5.4950   -0.7760    0.4400 C   0  0  0  0  0  0  0  0  0  0  0  0
   -4.8050   -0.7370   -0.6700 C   0  0  0  0  0  0  0  0  0  0  0  0
   -3.3750   -0.5340   -0.7920 C   0  0  0  0  0  0  0  0  0  0  0  0
   -2.8810   -0.5260   -1.9450 O   0  0  0  0  0  0  0  0  0  0  0  0
   -2.5160   -0.3450    0.3090 N   0  0  0  0  0  0  0  0  0  0  0  0
   -1.1370   -0.1420    0.3010 C   0  0  0  0  0  0  0  0  0  0  0  0
   -0.4550    0.0490    1.5010 C   0  0  0  0  0  0  0  0  0  0  0  0
    0.8400    0.2490    1.6330 N   0  0  0  0  0  0  0  0  0  0  0  0
    1.6750    0.2870    0.5440 C   0  0  0  0  0  0  0  0  0  0  0  0
    2.9550    0.4720    0.5230 N   0  0  0  0  0  0  0  0  0  0  0  0
    3.7010    0.5060   -0.4580 C   0  0  0  0  0  0  0  0  0  0  0  0
    5.0470    0.6750   -0.8180 N   0  0  0  0  0  0  0  0  0  0  0  0
    6.0310    0.8950    0.1690 C   0  0  0  0  0  0  0  0  0  0  0  0
    5.6530    0.9310    1.3640 O   0  0  0  0  0  0  0  0  0  0  0  0
    7.4590    1.0800   -0.1390 C   0  0  2  0  0  0  0  0  0  0  0  0
    8.0230   -0.0670   -0.9350 C   0  0  0  0  0  0  0  0  0  0  0  0
    8.1600   -1.2410    0.0170 C   0  0  0  0  0  0  0  0  0  0  0  0
    8.6770   -0.3590    1.5260 S   0  0  0  0  0  0  0  0  0  0  0  0
   10.1980   -0.4340    1.5660 O   0  0  0  0  0  0  0  0  0  0  0  0
    8.2720    1.2870    1.0100 N   0  0  0  0  0  0  0  0  0  0  0  0
    2.4240    0.2170   -1.7950 S   0  0  0  0  0  0  0  0  0  0  0  0
    1.0270    0.1000   -0.6540 C   0  0  0  0  0  0  0  0  0  0  0  0
   -0.3330   -0.1110   -0.8130 C   0  0  0  0  0  0  0  0  0  0  0  0
  1  2  1  0
  2  3  1  0
  3  4  1  6
  3  5  1  0
  5  6  2  3
  6  7  1  0
  7  8  2  0
  7  9  1  0
  9 10  1  0
 10 11  2  0
 10 27  1  0
 11 12  1  0
 12 13  2  0
 13 14  1  0
 13 26  1  0
 14 15  2  0
 15 16  1  0
 15 25  1  0
 16 17  1  0
 17 18  2  0
 19 17  1  1
 19 20  1  0
 19 24  1  0
 20 21  1  0
 22 21  1  6
 22 23  2  0
 22 24  1  0
 25 26  1  0
 26 27  2  0
M  END
