
     RDKit          3D

 27 30  0  0  0  0  0  0  0  0999 V2000
   -0.4480    1.9290    2.6700 N   0  0  0  0  0  0  0  0  0  0  0  0
    0.0120    0.7470    2.0340 C   0  0  0  0  0  0  0  0  0  0  0  0
   -0.6990   -0.2640    1.7120 N   0  0  0  0  0  0  0  0  0  0  0  0
    0.1250   -1.2450    1.0950 C   0  0  0  0  0  0  0  0  0  0  0  0
   -0.2340   -2.4140    0.6290 N   0  0  0  0  0  0  0  0  0  0  0  0
   -1.8810   -2.9070    0.7350 S   0  0  1  0  0  0  0  0  0  0  0  0
   -2.3450   -3.5620   -0.5330 O   0  0  0  0  0  0  0  0  0  0  0  0
   -1.9720   -3.8920    1.8860 O   0  0  0  0  0  0  0  0  0  0  0  0
   -2.8630   -1.5380    1.1420 N   0  0  0  0  0  0  0  0  0  0  0  0
   -3.3330   -0.7010    0.1130 C   0  0  0  0  0  0  0  0  0  0  0  0
   -2.8020   -0.7690   -1.1360 C   0  0  0  0  0  0  0  0  0  0  0  0
   -3.2810    0.0740   -2.1340 C   0  0  0  0  0  0  0  0  0  0  0  0
   -4.2860    0.9670   -1.8510 C   0  0  0  0  0  0  0  0  0  0  0  0
   -4.8320    1.0390   -0.5740 C   0  0  0  0  0  0  0  0  0  0  0  0
   -5.8190    1.8080   -0.0010 C   0  0  0  0  0  0  0  0  0  0  0  0
   -5.9340    1.4400    1.3080 C   0  0  0  0  0  0  0  0  0  0  0  0
   -5.0370    0.4660    1.5330 N   0  0  0  0  0  0  0  0  0  0  0  0
   -4.3460    0.1940    0.4110 C   0  0  0  0  0  0  0  0  0  0  0  0
    1.4760   -0.6890    1.0770 C   0  0  0  0  0  0  0  0  0  0  0  0
    2.8730   -1.5640    0.4100 S   0  0  0  0  0  0  0  0  0  0  0  0
    4.3320   -0.5290    0.4520 C   0  0  0  0  0  0  0  0  0  0  0  0
    4.1930    0.6190   -0.5290 C   0  0  2  0  0  0  0  0  0  0  0  0
    4.0230    0.0020   -1.9140 C   0  0  0  0  0  0  0  0  0  0  0  0
    5.5030   -0.0860   -2.3160 C   0  0  0  0  0  0  0  0  0  0  0  0
    5.9820    1.2400   -1.7560 C   0  0  0  0  0  0  0  0  0  0  0  0
    5.3930    1.2910   -0.5250 O   0  0  0  0  0  0  0  0  0  0  0  0
    1.4120    0.5060    1.6400 C   0  0  0  0  0  0  0  0  0  0  0  0
  1  2  1  0
  2  3  2  0
  2 27  1  0
  3  4  1  0
  4  5  2  3
  4 19  1  0
  5  6  1  0
  6  7  2  0
  6  8  2  0
  6  9  1  1
  9 10  1  0
 10 11  2  0
 10 18  1  0
 11 12  1  0
 12 13  2  0
 13 14  1  0
 14 15  1  0
 14 18  2  0
 15 16  2  0
 16 17  1  0
 17 18  1  0
 19 20  1  0
 19 27  2  0
 20 21  1  0
 22 21  1  1
 22 23  1  0
 22 26  1  0
 23 24  1  0
 24 25  1  0
 25 26  1  0
M  END
