
     RDKit          3D

 35 38  0  0  0  0  0  0  0  0999 V2000
    5.1650   -2.5340   -1.3290 C   0  0  0  0  0  0  0  0  0  0  0  0
    5.8280   -1.3990   -0.5620 C   0  0  0  0  0  0  0  0  0  0  0  0
    6.9450   -0.8270   -0.9180 N   0  0  0  0  0  0  0  0  0  0  0  0
    7.5610    0.0530   -0.4230 C   0  0  0  0  0  0  0  0  0  0  0  0
    8.7870    0.7300   -0.4420 N   0  0  0  0  0  0  0  0  0  0  0  0
   10.0670    1.0710   -0.6670 C   0  0  0  0  0  0  0  0  0  0  0  0
   10.4250    1.1830    0.9240 C   0  0  0  0  0  0  0  0  0  0  0  0
   10.6950    1.2740    2.0610 N   0  0  0  0  0  0  0  0  0  0  0  0
    6.4170    0.4110    1.0840 S   0  0  0  0  0  0  0  0  0  0  0  0
    5.2250   -0.9320    0.5670 C   0  0  0  0  0  0  0  0  0  0  0  0
    4.0570   -1.1730    1.3810 C   0  0  0  0  0  0  0  0  0  0  0  0
    2.8230   -0.5630    0.8460 C   0  0  0  0  0  0  0  0  0  0  0  0
    1.6870   -0.6670    1.7890 C   0  0  0  0  0  0  0  0  0  0  0  0
    0.4760   -0.4130    2.0080 N   0  0  0  0  0  0  0  0  0  0  0  0
   -0.0360   -0.7810    3.1950 C   0  0  0  0  0  0  0  0  0  0  0  0
   -1.4290   -0.5760    3.7250 C   0  0  0  0  0  0  0  0  0  0  0  0
   -1.5940   -0.8230    5.0790 C   0  0  0  0  0  0  0  0  0  0  0  0
   -3.3180   -0.4630    5.4220 S   0  0  0  0  0  0  0  0  0  0  0  0
   -3.7050   -0.0090    3.6960 C   0  0  0  0  0  0  0  0  0  0  0  0
   -5.0390    0.3680    3.2300 C   0  0  0  0  0  0  0  0  0  0  0  0
   -2.4970   -0.1620    3.0140 C   0  0  0  0  0  0  0  0  0  0  0  0
   -2.5010    0.0240    1.5650 C   0  0  0  0  0  0  0  0  0  0  0  0
   -1.8410    1.1410    0.8660 C   0  0  0  0  0  0  0  0  0  0  0  0
   -2.1630    0.8660   -0.5630 N   0  0  0  0  0  0  0  0  0  0  0  0
   -1.5850    1.5290   -1.6320 C   0  0  0  0  0  0  0  0  0  0  0  0
   -0.7120    2.3970   -1.4080 O   0  0  0  0  0  0  0  0  0  0  0  0
   -1.9980    1.2120   -3.0280 C   0  0  0  0  0  0  0  0  0  0  0  0
   -3.4290    0.0290   -2.8160 S   0  0  0  0  0  0  0  0  0  0  0  0
   -4.7650    1.0910   -2.1710 C   0  0  1  0  0  0  0  0  0  0  0  0
   -5.3650    1.8520   -3.3650 C   0  0  0  0  0  0  0  0  0  0  0  0
   -6.5050    0.8630   -3.3020 C   0  0  1  0  0  0  0  0  0  0  0  0
   -6.3030   -0.3180   -4.2220 C   0  0  0  0  0  0  0  0  0  0  0  0
   -6.0890    0.5420   -1.8590 C   0  0  0  0  0  0  0  0  0  0  0  0
    1.0070   -1.3380    3.7780 N   0  0  0  0  0  0  0  0  0  0  0  0
    2.0590   -1.3310    3.0590 O   0  0  0  0  0  0  0  0  0  0  0  0
  1  2  1  0
  2  3  1  0
  2 10  2  0
  3  4  2  0
  4  5  1  0
  4  9  1  0
  5  6  1  0
  6  7  1  0
  7  8  3  0
  9 10  1  0
 10 11  1  0
 11 12  1  0
 12 13  1  0
 13 14  2  0
 13 35  1  0
 14 15  1  0
 15 16  1  0
 15 34  2  0
 16 17  2  0
 16 21  1  0
 17 18  1  0
 18 19  1  0
 19 20  1  0
 19 21  2  0
 21 22  1  0
 22 23  1  0
 23 24  1  0
 24 25  1  0
 25 26  2  0
 25 27  1  0
 27 28  1  0
 29 28  1  6
 29 30  1  0
 29 33  1  0
 30 31  1  0
 31 32  1  6
 31 33  1  0
 34 35  1  0
M  END
