
     RDKit          3D

 35 38  0  0  0  0  0  0  0  0999 V2000
   -7.2830    1.5420   -0.4450 C   0  0  0  0  0  0  0  0  0  0  0  0
   -6.4790    1.2690    0.8130 C   0  0  0  0  0  0  0  0  0  0  0  0
   -5.5270    2.3950    1.1380 C   0  0  0  0  0  0  0  0  0  0  0  0
   -4.5870    2.5880    0.0450 N   0  0  0  0  0  0  0  0  0  0  0  0
   -4.7190    3.3980   -1.0140 C   0  0  0  0  0  0  0  0  0  0  0  0
   -5.8390    4.2550   -1.2770 N   0  0  0  0  0  0  0  0  0  0  0  0
   -3.6130    3.2490   -1.7610 N   0  0  0  0  0  0  0  0  0  0  0  0
   -2.8290    2.3690   -1.1670 N   0  0  0  0  0  0  0  0  0  0  0  0
   -3.4140    1.9420   -0.0370 C   0  0  0  0  0  0  0  0  0  0  0  0
   -2.7600    0.7370    1.1430 S   0  0  0  0  0  0  0  0  0  0  0  0
   -1.1220    0.1970    0.4990 C   0  0  0  0  0  0  0  0  0  0  0  0
   -1.3440   -0.5460   -0.7660 C   0  0  0  0  0  0  0  0  0  0  0  0
   -0.1470   -1.0960   -1.4540 C   0  0  0  0  0  0  0  0  0  0  0  0
    0.6320   -2.0400   -0.7270 N   0  0  0  0  0  0  0  0  0  0  0  0
    1.7040   -1.7890    0.0250 C   0  0  0  0  0  0  0  0  0  0  0  0
    2.4220   -0.4840    0.2770 C   0  0  0  0  0  0  0  0  0  0  0  0
    3.5010   -0.3790   -0.7810 C   0  0  0  0  0  0  0  0  0  0  0  0
    4.2100    0.8540   -0.5840 N   0  0  0  0  0  0  0  0  0  0  0  0
    4.9040    1.1180    0.6160 C   0  0  0  0  0  0  0  0  0  0  0  0
    4.9530    0.2950    1.5920 O   0  0  0  0  0  0  0  0  0  0  0  0
    5.5900    2.3870    0.7360 C   0  0  0  0  0  0  0  0  0  0  0  0
    5.7200    3.4530   -0.1170 C   0  0  0  0  0  0  0  0  0  0  0  0
    6.4330    4.5170    0.2770 C   0  0  0  0  0  0  0  0  0  0  0  0
    7.0090    4.5270    1.4950 C   0  0  0  0  0  0  0  0  0  0  0  0
    7.9860    5.7110    2.3250 S   0  0  0  0  0  0  0  0  0  0  0  0
    9.0950    6.2670    1.4390 O   0  0  0  0  0  0  0  0  0  0  0  0
    6.5340    2.9050    2.2010 S   0  0  0  0  0  0  0  0  0  0  0  0
    2.1160   -3.0130    0.5660 C   0  0  0  0  0  0  0  0  0  0  0  0
    1.2700   -4.0040    0.1240 C   0  0  0  0  0  0  0  0  0  0  0  0
    1.2290   -5.3580    0.3520 C   0  0  0  0  0  0  0  0  0  0  0  0
    0.2510   -6.1250   -0.2320 C   0  0  0  0  0  0  0  0  0  0  0  0
    0.2280   -7.6090    0.0340 C   0  0  0  0  0  0  0  0  0  0  0  0
   -0.6670   -5.5250   -1.0320 C   0  0  0  0  0  0  0  0  0  0  0  0
   -0.6150   -4.1720   -1.2520 C   0  0  0  0  0  0  0  0  0  0  0  0
    0.3500   -3.3630   -0.6850 C   0  0  0  0  0  0  0  0  0  0  0  0
  1  2  1  0
  2  3  1  0
  3  4  1  0
  4  5  1  0
  4  9  1  0
  5  6  1  0
  5  7  2  0
  7  8  1  0
  8  9  2  0
  9 10  1  0
 10 11  1  0
 11 12  1  0
 12 13  1  0
 13 14  1  0
 14 15  1  0
 14 35  1  0
 15 16  1  0
 15 28  2  0
 16 17  1  0
 17 18  1  0
 18 19  1  0
 19 20  2  0
 19 21  1  0
 21 22  2  0
 21 27  1  0
 22 23  1  0
 23 24  2  0
 24 25  1  0
 24 27  1  0
 25 26  2  0
 28 29  1  0
 29 30  2  0
 29 35  1  0
 30 31  1  0
 31 32  1  0
 31 33  2  0
 33 34  1  0
 34 35  2  0
M  END
