
     RDKit          3D

 35 37  0  0  0  0  0  0  0  0999 V2000
   -0.2150    7.0820   -0.0480 C   0  0  0  0  0  0  0  0  0  0  0  0
   -0.9210    7.3060   -1.3650 C   0  0  0  0  0  0  0  0  0  0  0  0
   -1.2320    5.9830   -2.0320 C   0  0  0  0  0  0  0  0  0  0  0  0
   -2.0760    5.1490   -1.2410 N   0  0  0  0  0  0  0  0  0  0  0  0
   -3.4490    5.5070   -1.0010 C   0  0  0  0  0  0  0  0  0  0  0  0
   -1.6080    3.9450   -0.6560 C   0  0  0  0  0  0  0  0  0  0  0  0
   -2.0240    3.0160    0.0400 N   0  0  0  0  0  0  0  0  0  0  0  0
   -1.3450    1.9610    0.4750 C   0  0  0  0  0  0  0  0  0  0  0  0
   -2.1000    0.9860    1.3150 C   0  0  0  0  0  0  0  0  0  0  0  0
   -2.2260   -0.2880    1.1510 C   0  0  0  0  0  0  0  0  0  0  0  0
   -1.6320   -1.0750    0.0470 C   0  0  0  0  0  0  0  0  0  0  0  0
   -2.6410   -1.7570   -0.7310 N   0  0  0  0  0  0  0  0  0  0  0  0
   -3.5230   -0.9130   -1.4760 C   0  0  0  0  0  0  0  0  0  0  0  0
   -4.4330   -1.4950   -2.2300 C   0  0  0  0  0  0  0  0  0  0  0  0
   -4.6060   -2.9470   -2.3590 C   0  0  0  0  0  0  0  0  0  0  0  0
   -3.6490   -3.7010   -1.5510 C   0  0  0  0  0  0  0  0  0  0  0  0
   -2.7190   -3.1520   -0.7790 C   0  0  0  0  0  0  0  0  0  0  0  0
   -1.8110   -4.0320   -0.0680 C   0  0  0  0  0  0  0  0  0  0  0  0
   -2.0560   -4.0050    1.4180 C   0  0  0  0  0  0  0  0  0  0  0  0
   -0.8990   -5.1410    2.2530 S   0  0  0  0  0  0  0  0  0  0  0  0
   -0.0460    1.8800    0.1340 C   0  0  0  0  0  0  0  0  0  0  0  0
    1.0660    1.0220    0.3740 C   0  0  0  0  0  0  0  0  0  0  0  0
    2.1720    1.2260   -0.2900 O   0  0  0  0  0  0  0  0  0  0  0  0
    1.1370   -0.0380    1.2660 N   0  0  0  0  0  0  0  0  0  0  0  0
    2.3360   -0.8180    1.3860 C   0  0  0  0  0  0  0  0  0  0  0  0
    3.4230   -0.8520    0.9050 N   0  0  0  0  0  0  0  0  0  0  0  0
    4.4030   -1.6720    1.1560 C   0  0  0  0  0  0  0  0  0  0  0  0
    5.7280   -1.6270    0.4910 C   0  0  0  0  0  0  0  0  0  0  0  0
    6.5880   -2.6890    0.9070 N   0  0  0  0  0  0  0  0  0  0  0  0
    6.4200   -4.0260    0.4370 C   0  0  0  0  0  0  0  0  0  0  0  0
    7.3460   -5.0590    0.9120 C   0  0  0  0  0  0  0  0  0  0  0  0
    5.4750   -4.2300   -0.3660 O   0  0  0  0  0  0  0  0  0  0  0  0
    4.1320   -2.6440    2.1290 C   0  0  0  0  0  0  0  0  0  0  0  0
    2.4340   -2.2420    2.5770 S   0  0  0  0  0  0  0  0  0  0  0  0
    0.1450    3.4020   -0.8640 S   0  0  0  0  0  0  0  0  0  0  0  0
  1  2  1  0
  2  3  1  0
  3  4  1  0
  4  5  1  0
  4  6  1  0
  6  7  2  0
  6 35  1  0
  7  8  1  0
  8  9  1  0
  8 21  2  0
  9 10  2  3
 10 11  1  0
 11 12  1  0
 12 13  1  0
 12 17  1  0
 13 14  2  0
 14 15  1  0
 15 16  1  0
 16 17  2  0
 17 18  1  0
 18 19  1  0
 19 20  1  0
 21 22  1  0
 21 35  1  0
 22 23  2  0
 22 24  1  0
 24 25  1  0
 25 26  2  0
 25 34  1  0
 26 27  1  0
 27 28  1  0
 27 33  2  0
 28 29  1  0
 29 30  1  0
 30 31  1  0
 30 32  2  0
 33 34  1  0
M  END
