
     RDKit          3D

 35 38  0  0  0  0  0  0  0  0999 V2000
   -5.3850    0.5420    0.7270 O   0  0  0  0  0  0  0  0  0  0  0  0
   -5.2430   -0.2620   -0.2070 C   0  0  0  0  0  0  0  0  0  0  0  0
   -6.4950   -0.8150   -0.8370 C   0  0  0  0  0  0  0  0  0  0  0  0
   -7.6840   -0.2140   -0.1310 C   0  0  2  0  0  0  0  0  0  0  0  0
   -8.9410   -0.7450   -0.7360 C   0  0  0  0  0  0  0  0  0  0  0  0
   -9.6530    0.2410   -1.2570 C   0  0  0  0  0  0  0  0  0  0  0  0
   -8.9190    1.4770   -1.0320 C   0  0  0  0  0  0  0  0  0  0  0  0
   -7.7960    1.2410   -0.3930 C   0  0  0  0  0  0  0  0  0  0  0  0
   -3.9660   -0.6370   -0.6540 N   0  0  0  0  0  0  0  0  0  0  0  0
   -2.7300   -0.1850   -0.1380 C   0  0  0  0  0  0  0  0  0  0  0  0
   -2.5670    0.6440    0.9290 C   0  0  0  0  0  0  0  0  0  0  0  0
   -1.3020    1.0420    1.3610 C   0  0  0  0  0  0  0  0  0  0  0  0
   -0.1610    0.6090    0.7220 C   0  0  0  0  0  0  0  0  0  0  0  0
    1.1340    1.0080    1.1580 N   0  0  0  0  0  0  0  0  0  0  0  0
    1.7680    2.2160    0.6700 C   0  0  0  0  0  0  0  0  0  0  0  0
    1.9890    2.1980   -0.8300 C   0  0  0  0  0  0  0  0  0  0  0  0
    2.8330    1.1180   -1.2580 N   0  0  0  0  0  0  0  0  0  0  0  0
    4.1590    0.9880   -0.7860 C   0  0  0  0  0  0  0  0  0  0  0  0
    4.6760    1.7840    0.0160 O   0  0  0  0  0  0  0  0  0  0  0  0
    4.9790   -0.1930   -1.2970 C   0  0  0  0  0  0  0  0  0  0  0  0
    4.6280   -1.1110   -2.1170 C   0  0  0  0  0  0  0  0  0  0  0  0
    5.8060   -2.2670   -2.4580 S   0  0  0  0  0  0  0  0  0  0  0  0
    7.1490   -2.0050   -1.6930 C   0  0  0  0  0  0  0  0  0  0  0  0
    8.3570   -2.4500   -1.5020 N   0  0  0  0  0  0  0  0  0  0  0  0
    9.3170   -1.8060   -0.6220 C   0  0  0  0  0  0  0  0  0  0  0  0
   10.4260   -0.7240   -1.5370 S   0  0  0  0  0  0  0  0  0  0  0  0
    6.6340   -0.4510   -0.7800 S   0  0  0  0  0  0  0  0  0  0  0  0
    1.8200    0.1910    2.0990 C   0  0  0  0  0  0  0  0  0  0  0  0
    1.2170   -0.9630    2.5690 C   0  0  0  0  0  0  0  0  0  0  0  0
    1.9110   -1.6960    3.4560 N   0  0  0  0  0  0  0  0  0  0  0  0
    3.1380   -1.3480    3.8850 C   0  0  0  0  0  0  0  0  0  0  0  0
    3.7010   -0.1880    3.3880 C   0  0  0  0  0  0  0  0  0  0  0  0
    3.0440    0.5730    2.5020 N   0  0  0  0  0  0  0  0  0  0  0  0
   -0.3540   -0.2270   -0.3510 C   0  0  0  0  0  0  0  0  0  0  0  0
   -1.5710   -0.6310   -0.7950 C   0  0  0  0  0  0  0  0  0  0  0  0
  1  2  2  0
  2  3  1  0
  2  9  1  0
  4  3  1  6
  4  5  1  0
  4  8  1  0
  5  6  2  0
  6  7  1  0
  7  8  2  0
  9 10  1  0
 10 11  2  0
 10 35  1  0
 11 12  1  0
 12 13  2  0
 13 14  1  0
 13 34  1  0
 14 15  1  0
 14 28  1  0
 15 16  1  0
 16 17  1  0
 17 18  1  0
 18 19  2  0
 18 20  1  0
 20 21  2  0
 20 27  1  0
 21 22  1  0
 22 23  1  0
 23 24  2  3
 23 27  1  0
 24 25  1  0
 25 26  1  0
 28 29  2  0
 28 33  1  0
 29 30  1  0
 30 31  2  0
 31 32  1  0
 32 33  2  0
 34 35  2  0
M  END
