
     RDKit          3D

 35 38  0  0  0  0  0  0  0  0999 V2000
    5.5250   -2.1330    2.1890 C   0  0  0  0  0  0  0  0  0  0  0  0
    4.0410   -1.9680    2.3660 C   0  0  0  0  0  0  0  0  0  0  0  0
    3.3640   -1.7380    1.0340 C   0  0  2  0  0  0  0  0  0  0  0  0
    3.5340   -2.7690    0.1020 N   0  0  0  0  0  0  0  0  0  0  0  0
    2.3800   -3.8290   -0.3470 S   0  0  2  0  0  0  0  0  0  0  0  0
    1.8570   -4.7790    0.6920 O   0  0  0  0  0  0  0  0  0  0  0  0
    2.9750   -4.7670   -1.4120 O   0  0  0  0  0  0  0  0  0  0  0  0
    1.0180   -3.0840   -1.1130 C   0  0  0  0  0  0  0  0  0  0  0  0
   -0.2290   -2.9590   -0.5420 C   0  0  0  0  0  0  0  0  0  0  0  0
   -1.0220   -2.3150   -1.3850 N   0  0  0  0  0  0  0  0  0  0  0  0
   -0.2810   -2.0380   -2.4760 C   0  0  0  0  0  0  0  0  0  0  0  0
   -0.9300   -1.1680   -3.8900 S   0  0  0  0  0  0  0  0  0  0  0  0
   -0.6940    0.6380   -3.6890 C   0  0  0  0  0  0  0  0  0  0  0  0
   -1.5460    1.0510   -2.5460 C   0  0  0  0  0  0  0  0  0  0  0  0
   -1.3200    1.1340   -1.2360 C   0  0  0  0  0  0  0  0  0  0  0  0
   -2.2890    1.5480   -0.4030 C   0  0  0  0  0  0  0  0  0  0  0  0
   -3.5080    1.8740   -0.9680 C   0  0  0  0  0  0  0  0  0  0  0  0
   -4.7670    2.3530   -0.3650 C   0  0  0  0  0  0  0  0  0  0  0  0
   -5.6550    1.2610   -0.1330 N   0  0  0  0  0  0  0  0  0  0  0  0
   -5.0850    0.3000    0.7600 C   0  0  0  0  0  0  0  0  0  0  0  0
   -6.2060   -0.2890    1.5680 C   0  0  0  0  0  0  0  0  0  0  0  0
   -7.4330    0.3210    0.9740 C   0  0  0  0  0  0  0  0  0  0  0  0
   -6.9390    1.6370    0.4080 C   0  0  1  0  0  0  0  0  0  0  0  0
   -6.8470    2.6800    1.4780 C   0  0  0  0  0  0  0  0  0  0  0  0
   -3.2070    1.5690   -2.7090 S   0  0  0  0  0  0  0  0  0  0  0  0
    0.9610   -2.5070   -2.3080 N   0  0  0  0  0  0  0  0  0  0  0  0
    1.9940   -2.3830   -3.3300 C   0  0  0  0  0  0  0  0  0  0  0  0
    3.7030   -0.4190    0.5240 C   0  0  0  0  0  0  0  0  0  0  0  0
    3.2300    0.0540   -0.7060 C   0  0  0  0  0  0  0  0  0  0  0  0
    3.5250    1.2760   -1.2210 C   0  0  0  0  0  0  0  0  0  0  0  0
    4.3260    2.0970   -0.5090 N   0  0  0  0  0  0  0  0  0  0  0  0
    4.8290    1.7420    0.6750 C   0  0  0  0  0  0  0  0  0  0  0  0
    5.6660    2.6100    1.4100 N   0  0  0  0  0  0  0  0  0  0  0  0
    5.9920    3.9260    0.8620 C   0  0  0  0  0  0  0  0  0  0  0  0
    4.5240    0.5100    1.1820 C   0  0  0  0  0  0  0  0  0  0  0  0
  1  2  1  0
  3  2  1  1
  3  4  1  0
  3 28  1  0
  5  4  1  1
  5  6  2  0
  5  7  2  0
  5  8  1  0
  8  9  2  0
  8 26  1  0
  9 10  1  0
 10 11  2  0
 11 12  1  0
 11 26  1  0
 12 13  1  0
 13 14  1  0
 14 15  2  0
 14 25  1  0
 15 16  1  0
 16 17  2  0
 17 18  1  0
 17 25  1  0
 18 19  1  0
 19 20  1  0
 19 23  1  0
 20 21  1  0
 21 22  1  0
 22 23  1  0
 23 24  1  1
 26 27  1  0
 28 29  2  0
 28 35  1  0
 29 30  1  0
 30 31  2  0
 31 32  1  0
 32 33  1  0
 32 35  2  0
 33 34  1  0
M  END
