
     RDKit          3D

 20 21  0  0  0  0  0  0  0  0999 V2000
   -2.1370   -2.4070   -0.2910 C   0  0  0  0  0  0  0  0  0  0  0  0
   -1.9970   -1.0580    0.4310 C   0  0  2  0  0  0  0  0  0  0  0  0
   -2.7820   -1.1680    1.5970 O   0  0  0  0  0  0  0  0  0  0  0  0
   -2.5010   -0.0110   -0.5020 C   0  0  0  0  0  0  0  0  0  0  0  0
   -1.8310    1.3080   -0.4040 C   0  0  0  0  0  0  0  0  0  0  0  0
   -0.8090    1.4910   -1.4450 N   0  0  0  0  0  0  0  0  0  0  0  0
    0.2930    2.3630   -1.2930 C   0  0  0  0  0  0  0  0  0  0  0  0
    0.9130    2.6680   -2.3680 O   0  0  0  0  0  0  0  0  0  0  0  0
    0.7680    2.9230   -0.0810 N   0  0  0  0  0  0  0  0  0  0  0  0
    1.1040    2.2210    1.0960 C   0  0  0  0  0  0  0  0  0  0  0  0
    0.5450    2.6560    2.1720 O   0  0  0  0  0  0  0  0  0  0  0  0
    1.9770    1.1090    1.2150 N   0  0  0  0  0  0  0  0  0  0  0  0
    2.3830    0.2360    0.1750 C   0  0  0  0  0  0  0  0  0  0  0  0
    3.6140    0.0850   -0.2650 N   0  0  0  0  0  0  0  0  0  0  0  0
    3.6730   -0.8650   -1.3120 C   0  0  1  0  0  0  0  0  0  0  0  0
    4.6610   -2.2500   -0.7450 Cl  0  0  0  0  0  0  0  0  0  0  0  0
    2.2750   -1.3110   -1.4820 C   0  0  0  0  0  0  0  0  0  0  0  0
    1.5270   -0.6540   -0.6000 C   0  0  0  0  0  0  0  0  0  0  0  0
    0.1720   -0.7610   -0.4090 O   0  0  0  0  0  0  0  0  0  0  0  0
   -0.5370   -0.9250    0.7880 C   0  0  0  0  0  0  0  0  0  0  0  0
  2  1  1  6
  2  3  1  0
  2  4  1  0
  2 20  1  0
  4  5  1  0
  5  6  1  0
  6  7  1  0
  7  8  2  0
  7  9  1  0
  9 10  1  0
 10 11  2  0
 10 12  1  0
 12 13  1  0
 13 14  2  0
 13 18  1  0
 14 15  1  0
 15 16  1  1
 15 17  1  0
 17 18  2  0
 18 19  1  0
 19 20  1  0
M  END
