
     RDKit          3D

 19 20  0  0  0  0  0  0  0  0999 V2000
   -2.7450   -0.5910    1.0710 C   0  0  0  0  0  0  0  0  0  0  0  0
   -1.7820   -0.4820   -0.0940 C   0  0  1  0  0  0  0  0  0  0  0  0
   -2.1180   -1.6280   -1.0250 C   0  0  0  0  0  0  0  0  0  0  0  0
   -1.9490    0.8220   -0.8350 C   0  0  0  0  0  0  0  0  0  0  0  0
   -0.8630    1.7410   -0.2580 C   0  0  1  0  0  0  0  0  0  0  0  0
   -1.4700    2.4550    0.8690 C   0  0  0  0  0  0  0  0  0  0  0  0
   -1.1420    2.3460    2.0670 O   0  0  0  0  0  0  0  0  0  0  0  0
   -2.5060    3.3330    0.5720 O   0  0  0  0  0  0  0  0  0  0  0  0
    0.1890    0.8530    0.0750 N   0  0  0  0  0  0  0  0  0  0  0  0
    1.5960    0.9460    0.2160 C   0  0  0  0  0  0  0  0  0  0  0  0
    2.1090    2.0560    0.5670 O   0  0  0  0  0  0  0  0  0  0  0  0
    2.4520   -0.2340   -0.0420 C   0  0  0  0  0  0  0  0  0  0  0  0
    3.8880   -0.1740    0.0930 C   0  0  0  0  0  0  0  0  0  0  0  0
    4.5650    1.0060    0.4770 N   0  0  0  0  0  0  0  0  0  0  0  0
    4.5650   -1.1970   -0.1360 O   0  0  0  0  0  0  0  0  0  0  0  0
    1.8370   -1.3410   -0.4000 C   0  0  0  0  0  0  0  0  0  0  0  0
    2.5520   -2.5580   -0.6800 N   0  0  0  0  0  0  0  0  0  0  0  0
    0.4080   -1.3740   -0.5300 N   0  0  0  0  0  0  0  0  0  0  0  0
   -0.3630   -0.4910    0.3210 C   0  0  2  0  0  0  0  0  0  0  0  0
  2  1  1  1
  2  3  1  0
  2  4  1  0
  2 19  1  0
  4  5  1  0
  5  6  1  1
  5  9  1  0
  6  7  2  0
  6  8  1  0
  9 10  1  0
  9 19  1  0
 10 11  2  0
 10 12  1  0
 12 13  1  0
 12 16  2  0
 13 14  1  0
 13 15  2  0
 16 17  1  0
 16 18  1  0
 19 18  1  6
M  END
