
     RDKit          3D

 19 20  0  0  0  0  0  0  0  0999 V2000
    4.7980    1.0710   -0.4910 C   0  0  0  0  0  0  0  0  0  0  0  0
    3.6880    1.2650    0.5030 C   0  0  0  0  0  0  0  0  0  0  0  0
    2.5000    0.7480   -0.0390 O   0  0  0  0  0  0  0  0  0  0  0  0
    1.2890    0.7390    0.5560 C   0  0  0  0  0  0  0  0  0  0  0  0
    1.2190    1.2420    1.7030 O   0  0  0  0  0  0  0  0  0  0  0  0
    0.0280    0.1940   -0.0090 C   0  0  0  0  0  0  0  0  0  0  0  0
    0.0670   -0.3270   -1.2200 C   0  0  0  0  0  0  0  0  0  0  0  0
    1.3800   -0.3260   -1.9250 C   0  0  0  0  0  0  0  0  0  0  0  0
   -1.0710   -0.8850   -1.8860 N   0  0  0  0  0  0  0  0  0  0  0  0
   -2.2900   -0.8500   -1.1550 C   0  0  0  0  0  0  0  0  0  0  0  0
   -3.4990   -1.3870   -1.7380 N   0  0  0  0  0  0  0  0  0  0  0  0
   -2.3520   -0.3390    0.0390 C   0  0  0  0  0  0  0  0  0  0  0  0
   -3.6490   -0.3290    0.7790 C   0  0  0  0  0  0  0  0  0  0  0  0
   -4.7350   -0.3170    0.1860 O   0  0  0  0  0  0  0  0  0  0  0  0
   -3.5420   -0.3360    2.1920 N   0  0  0  0  0  0  0  0  0  0  0  0
   -2.3220   -0.3530    2.8740 N   0  0  0  0  0  0  0  0  0  0  0  0
   -1.1100   -0.3620    2.0930 C   0  0  0  0  0  0  0  0  0  0  0  0
   -0.0360   -0.8280    2.4700 O   0  0  0  0  0  0  0  0  0  0  0  0
   -1.2120    0.2490    0.7290 C   0  0  1  0  0  0  0  0  0  0  0  0
  1  2  1  0
  2  3  1  0
  3  4  1  0
  4  5  2  0
  4  6  1  0
  6  7  2  0
 19  6  1  6
  7  8  1  0
  7  9  1  0
  9 10  1  0
 10 11  1  0
 10 12  2  0
 12 13  1  0
 12 19  1  0
 13 14  2  0
 13 15  1  0
 15 16  1  0
 16 17  1  0
 17 18  2  0
 17 19  1  0
M  END
