
     RDKit          3D

 20 21  0  0  0  0  0  0  0  0999 V2000
   -5.3710    1.5670   -1.9450 O   0  0  0  0  0  0  0  0  0  0  0  0
   -4.7890    0.9330   -1.0420 C   0  0  0  0  0  0  0  0  0  0  0  0
   -5.5380    0.4790    0.1400 C   0  0  0  0  0  0  0  0  0  0  0  0
   -4.9430   -0.9070    0.4220 C   0  0  0  0  0  0  0  0  0  0  0  0
   -3.5520   -0.8190    0.8790 C   0  0  0  0  0  0  0  0  0  0  0  0
   -2.7700    0.3620    0.2030 C   0  0  1  0  0  0  0  0  0  0  0  0
   -1.4240   -0.2540    0.0650 C   0  0  0  0  0  0  0  0  0  0  0  0
   -1.1670   -1.2710    0.8120 O   0  0  0  0  0  0  0  0  0  0  0  0
   -0.4250    0.2300   -0.8420 N   0  0  0  0  0  0  0  0  0  0  0  0
    0.8010   -0.4640   -0.8020 N   0  0  0  0  0  0  0  0  0  0  0  0
    2.0110    0.1620   -0.4270 C   0  0  0  0  0  0  0  0  0  0  0  0
    2.0530    1.3860   -0.1890 O   0  0  0  0  0  0  0  0  0  0  0  0
    3.1840   -0.6050   -0.3180 N   0  0  0  0  0  0  0  0  0  0  0  0
    4.4780   -0.1540    0.0640 C   0  0  0  0  0  0  0  0  0  0  0  0
    5.1680   -0.5120    1.1060 C   0  0  0  0  0  0  0  0  0  0  0  0
    6.4550    0.1950    1.1250 C   0  0  0  0  0  0  0  0  0  0  0  0
    6.5370    0.8970   -0.0530 O   0  0  0  0  0  0  0  0  0  0  0  0
    5.3610    0.7940   -0.7390 C   0  0  2  0  0  0  0  0  0  0  0  0
    4.5670    2.3450   -0.9720 Cl  0  0  0  0  0  0  0  0  0  0  0  0
   -3.3840    0.5770   -1.0840 N   0  0  0  0  0  0  0  0  0  0  0  0
  1  2  2  0
  2  3  1  0
  2 20  1  0
  3  4  1  0
  4  5  1  0
  5  6  1  0
  6  7  1  6
  6 20  1  0
  7  8  2  0
  7  9  1  0
  9 10  1  0
 10 11  1  0
 11 12  2  0
 11 13  1  0
 13 14  1  0
 14 15  2  0
 14 18  1  0
 15 16  1  0
 16 17  1  0
 17 18  1  0
 18 19  1  1
M  END
