
     RDKit          3D

 25 26  0  0  0  0  0  0  0  0999 V2000
   -1.1920    1.1500   -1.9940 C   0  0  0  0  0  0  0  0  0  0  0  0
   -1.2170    1.8480   -0.6940 C   0  0  0  0  0  0  0  0  0  0  0  0
   -1.6660    1.0220    0.5370 C   0  0  2  0  0  0  0  0  0  0  0  0
   -0.7380   -0.1230    0.6230 N   0  0  0  0  0  0  0  0  0  0  0  0
    0.6620   -0.0800    0.4820 C   0  0  0  0  0  0  0  0  0  0  0  0
    1.2270    1.0030    0.2560 O   0  0  0  0  0  0  0  0  0  0  0  0
    1.4450   -1.3230    0.5960 C   0  0  0  0  0  0  0  0  0  0  0  0
    2.7240   -1.2760    0.0510 O   0  0  0  0  0  0  0  0  0  0  0  0
    3.7750   -0.5200    0.4060 C   0  0  0  0  0  0  0  0  0  0  0  0
    4.8670   -0.5890   -0.3530 C   0  0  0  0  0  0  0  0  0  0  0  0
    4.8560   -1.4750   -1.5410 C   0  0  0  0  0  0  0  0  0  0  0  0
    6.1190    0.1280    0.0010 C   0  0  0  0  0  0  0  0  0  0  0  0
    7.2280   -0.1800   -0.5820 O   0  0  0  0  0  0  0  0  0  0  0  0
    6.1200    1.1870    1.0070 C   0  0  0  0  0  0  0  0  0  0  0  0
    4.8790    1.1490    1.8030 C   0  0  0  0  0  0  0  0  0  0  0  0
    3.8300    0.3860    1.5230 C   0  0  0  0  0  0  0  0  0  0  0  0
   -3.0290    0.5030    0.3320 C   0  0  0  0  0  0  0  0  0  0  0  0
   -3.2420   -0.6840   -0.3840 C   0  0  0  0  0  0  0  0  0  0  0  0
   -4.5700   -1.0040   -0.2370 C   0  0  0  0  0  0  0  0  0  0  0  0
   -5.2720   -2.1900   -0.7250 C   0  0  0  0  0  0  0  0  0  0  0  0
   -4.5660   -3.3500   -1.1420 N   0  0  0  0  0  0  0  0  0  0  0  0
   -6.5350   -2.2200   -0.7830 O   0  0  0  0  0  0  0  0  0  0  0  0
   -5.1160   -0.0540    0.5250 N   0  0  0  0  0  0  0  0  0  0  0  0
   -4.2120    0.8580    0.8770 C   0  0  0  0  0  0  0  0  0  0  0  0
   -4.5250    2.0660    1.7140 C   0  0  0  0  0  0  0  0  0  0  0  0
  1  2  1  0
  3  2  1  6
  3  4  1  0
  3 17  1  0
  4  5  1  0
  5  6  2  0
  5  7  1  0
  7  8  1  0
  8  9  1  0
  9 10  2  0
  9 16  1  0
 10 11  1  0
 10 12  1  0
 12 13  2  0
 12 14  1  0
 14 15  1  0
 15 16  2  0
 17 18  1  0
 17 24  2  0
 18 19  2  0
 19 20  1  0
 19 23  1  0
 20 21  1  0
 20 22  2  0
 23 24  1  0
 24 25  1  0
M  END
