
     RDKit          3D

 20 21  0  0  0  0  0  0  0  0999 V2000
    6.2040   -0.5980   -0.6320 N   0  0  0  0  0  0  0  0  0  0  0  0
    5.3150    0.0830   -0.0040 C   0  0  0  0  0  0  0  0  0  0  0  0
    5.6940    0.8850    1.1060 N   0  0  0  0  0  0  0  0  0  0  0  0
    3.9210    0.0260   -0.4400 C   0  0  0  0  0  0  0  0  0  0  0  0
    2.9710    0.7030    0.1660 C   0  0  0  0  0  0  0  0  0  0  0  0
    3.3980    1.6960    1.5300 Cl  0  0  0  0  0  0  0  0  0  0  0  0
    1.5870    0.6090   -0.3150 C   0  0  0  0  0  0  0  0  0  0  0  0
    0.6370    0.0790    0.7270 C   0  0  0  0  0  0  0  0  0  0  0  0
   -0.7280    0.0310    0.1720 C   0  0  1  0  0  0  0  0  0  0  0  0
   -0.9680   -0.8230   -1.0150 C   0  0  0  0  0  0  0  0  0  0  0  0
   -2.2280   -0.3980   -1.5690 O   0  0  0  0  0  0  0  0  0  0  0  0
   -3.2880   -0.3220   -0.6790 C   0  0  0  0  0  0  0  0  0  0  0  0
   -3.0310   -0.2700    0.6740 C   0  0  0  0  0  0  0  0  0  0  0  0
   -4.1260   -0.1960    1.5080 C   0  0  0  0  0  0  0  0  0  0  0  0
   -3.9080   -0.1480    2.7390 O   0  0  0  0  0  0  0  0  0  0  0  0
   -5.3790   -0.1750    1.0070 N   0  0  0  0  0  0  0  0  0  0  0  0
   -5.5870   -0.2270   -0.2980 N   0  0  0  0  0  0  0  0  0  0  0  0
   -4.5840   -0.3000   -1.1720 C   0  0  0  0  0  0  0  0  0  0  0  0
   -4.7650   -0.3500   -2.4270 O   0  0  0  0  0  0  0  0  0  0  0  0
   -1.7240   -0.2940    1.1310 O   0  0  0  0  0  0  0  0  0  0  0  0
  1  2  2  0
  2  3  1  0
  2  4  1  0
  4  5  2  3
  5  6  1  0
  5  7  1  0
  7  8  1  0
  9  8  1  1
  9 10  1  0
  9 20  1  0
 10 11  1  0
 11 12  1  0
 12 13  2  0
 12 18  1  0
 13 14  1  0
 13 20  1  0
 14 15  2  0
 14 16  1  0
 16 17  1  0
 17 18  1  0
 18 19  2  0
M  END
