
     RDKit          3D

 12 12  0  0  0  0  0  0  0  0999 V2000
    3.7340    0.6460    0.8160 C   0  0  0  0  0  0  0  0  0  0  0  0
    2.3340    0.4500    0.7460 O   0  0  0  0  0  0  0  0  0  0  0  0
    1.7320    0.1140   -0.4660 C   0  0  0  0  0  0  0  0  0  0  0  0
    2.4970    0.0030   -1.4550 O   0  0  0  0  0  0  0  0  0  0  0  0
    0.3040   -0.1080   -0.6380 C   0  0  2  0  0  0  0  0  0  0  0  0
    0.0420   -0.4240   -1.9670 O   0  0  0  0  0  0  0  0  0  0  0  0
   -0.5470    1.0930   -0.2940 C   0  0  0  0  0  0  0  0  0  0  0  0
   -1.4940    0.7970    0.8550 C   0  0  0  0  0  0  0  0  0  0  0  0
   -2.4180   -0.3180    0.4390 C   0  0  1  0  0  0  0  0  0  0  0  0
   -3.2780    0.2220   -0.5450 O   0  0  0  0  0  0  0  0  0  0  0  0
   -1.6500   -1.4740   -0.1520 C   0  0  0  0  0  0  0  0  0  0  0  0
   -0.1840   -1.2710    0.1960 C   0  0  0  0  0  0  0  0  0  0  0  0
  1  2  1  0
  2  3  1  0
  3  4  2  0
  3  5  1  0
  5  6  1  6
  5  7  1  0
  5 12  1  0
  7  8  1  0
  8  9  1  0
  9 10  1  6
  9 11  1  0
 11 12  1  0
M  END
