
     RDKit          3D

 11 11  0  0  0  0  0  0  0  0999 V2000
    3.5140    0.0140    0.0490 O   0  0  0  0  0  0  0  0  0  0  0  0
    2.9560   -0.8640   -0.9020 C   0  0  0  0  0  0  0  0  0  0  0  0
    1.7810   -0.3570   -1.4430 O   0  0  0  0  0  0  0  0  0  0  0  0
    0.8010   -0.1380   -0.4690 C   0  0  2  0  0  0  0  0  0  0  0  0
   -0.3090   -1.1140   -0.7460 C   0  0  0  0  0  0  0  0  0  0  0  0
   -1.1820   -1.2580    0.4570 C   0  0  0  0  0  0  0  0  0  0  0  0
   -2.3800   -0.3700    0.3020 C   0  0  0  0  0  0  0  0  0  0  0  0
   -2.0720    0.9110   -0.4340 C   0  0  0  0  0  0  0  0  0  0  0  0
   -0.8940    1.6380    0.1090 C   0  0  1  0  0  0  0  0  0  0  0  0
   -0.8590    1.5710    1.5070 O   0  0  0  0  0  0  0  0  0  0  0  0
    0.4110    1.2850   -0.5280 C   0  0  0  0  0  0  0  0  0  0  0  0
  1  2  1  0
  2  3  1  0
  4  3  1  6
  4  5  1  0
  4 11  1  0
  5  6  1  0
  6  7  1  0
  7  8  1  0
  8  9  1  0
  9 10  1  1
  9 11  1  0
M  END
