
     RDKit          3D

  9  9  0  0  0  0  0  0  0  0999 V2000
    3.2480    0.4590    0.1850 C   0  0  0  0  0  0  0  0  0  0  0  0
    1.8170   -0.0110    0.1690 C   0  0  0  0  0  0  0  0  0  0  0  0
    1.5100   -1.2450    0.2350 N   0  0  0  0  0  0  0  0  0  0  0  0
    0.1880   -1.7110    0.2230 N   0  0  0  0  0  0  0  0  0  0  0  0
   -0.8920   -0.7900    0.1320 C   0  0  0  0  0  0  0  0  0  0  0  0
   -2.2680   -1.3050    0.1210 C   0  0  0  0  0  0  0  0  0  0  0  0
   -0.5930    0.5050    0.0620 C   0  0  0  0  0  0  0  0  0  0  0  0
   -1.7140    1.4800   -0.0330 C   0  0  0  0  0  0  0  0  0  0  0  0
    0.7600    0.9450    0.0770 N   0  0  0  0  0  0  0  0  0  0  0  0
  1  2  1  0
  2  3  2  0
  2  9  1  0
  3  4  1  0
  4  5  1  0
  5  6  1  0
  5  7  2  0
  7  8  1  0
  7  9  1  0
M  END
