
     RDKit          3D

 12 12  0  0  0  0  0  0  0  0999 V2000
    4.8730    0.2940   -0.2220 O   0  0  0  0  0  0  0  0  0  0  0  0
    3.7320    0.1420    0.5590 C   0  0  0  0  0  0  0  0  0  0  0  0
    2.5360    0.0290   -0.3350 C   0  0  0  0  0  0  0  0  0  0  0  0
    1.3550   -0.1250    0.3870 O   0  0  0  0  0  0  0  0  0  0  0  0
    0.2670   -0.2260   -0.4730 C   0  0  1  0  0  0  0  0  0  0  0  0
   -0.3220   -1.4320   -0.3080 O   0  0  0  0  0  0  0  0  0  0  0  0
   -1.6370   -1.5350   -0.6450 C   0  0  0  0  0  0  0  0  0  0  0  0
   -2.4600   -1.3420    0.6240 C   0  0  0  0  0  0  0  0  0  0  0  0
   -2.7750    0.1400    0.7130 C   0  0  0  0  0  0  0  0  0  0  0  0
   -1.4910    0.8850    0.9360 C   0  0  0  0  0  0  0  0  0  0  0  0
   -0.6070    0.9700   -0.2500 C   0  0  2  0  0  0  0  0  0  0  0  0
   -1.2670    1.3050   -1.4290 O   0  0  0  0  0  0  0  0  0  0  0  0
  1  2  1  0
  2  3  1  0
  3  4  1  0
  5  4  1  1
  5  6  1  0
  5 11  1  0
  6  7  1  0
  7  8  1  0
  8  9  1  0
  9 10  1  0
 10 11  1  0
 11 12  1  6
M  END
