
     RDKit          3D

 12 12  0  0  0  0  0  0  0  0999 V2000
   -4.2910   -0.1470   -0.2610 O   0  0  0  0  0  0  0  0  0  0  0  0
   -3.0800    0.0600    0.0230 C   0  0  0  0  0  0  0  0  0  0  0  0
   -2.2400   -1.0700    0.4640 C   0  0  0  0  0  0  0  0  0  0  0  0
   -1.0160   -1.1890   -0.3950 C   0  0  0  0  0  0  0  0  0  0  0  0
   -0.0830   -0.0410   -0.2940 C   0  0  2  0  0  0  0  0  0  0  0  0
    1.1840   -0.4480    0.0950 O   0  0  0  0  0  0  0  0  0  0  0  0
    2.1620   -0.1670   -0.8390 C   0  0  0  0  0  0  0  0  0  0  0  0
    3.4770   -0.6770   -0.2560 C   0  0  0  0  0  0  0  0  0  0  0  0
    3.6590    0.0310    0.9520 O   0  0  0  0  0  0  0  0  0  0  0  0
   -0.5220    1.0390    0.6550 C   0  0  0  0  0  0  0  0  0  0  0  0
   -1.4680    2.0310    0.0180 C   0  0  0  0  0  0  0  0  0  0  0  0
   -2.7150    1.3970   -0.1350 O   0  0  0  0  0  0  0  0  0  0  0  0
  1  2  2  0
  2  3  1  0
  2 12  1  0
  3  4  1  0
  4  5  1  0
  5  6  1  1
  5 10  1  0
  6  7  1  0
  7  8  1  0
  8  9  1  0
 10 11  1  0
 11 12  1  0
M  END
