
     RDKit          3D

 11 11  0  0  0  0  0  0  0  0999 V2000
   -2.2430   -2.3390   -0.0580 C   0  0  0  0  0  0  0  0  0  0  0  0
   -1.0170   -1.7880    0.3790 O   0  0  0  0  0  0  0  0  0  0  0  0
   -0.7570   -0.4400    0.1760 C   0  0  0  0  0  0  0  0  0  0  0  0
   -1.6850    0.4520    0.3950 C   0  0  0  0  0  0  0  0  0  0  0  0
   -1.4840    1.8760    0.2040 C   0  0  0  0  0  0  0  0  0  0  0  0
   -0.1520    2.3030   -0.2600 C   0  0  0  0  0  0  0  0  0  0  0  0
    0.8120    1.2310   -0.4740 C   0  0  0  0  0  0  0  0  0  0  0  0
    0.5780   -0.0480   -0.2860 C   0  0  0  0  0  0  0  0  0  0  0  0
    1.5780   -0.9800   -0.5240 O   0  0  0  0  0  0  0  0  0  0  0  0
    2.8020   -0.8440    0.1730 C   0  0  0  0  0  0  0  0  0  0  0  0
    3.6750   -1.8620   -0.1930 O   0  0  0  0  0  0  0  0  0  0  0  0
  1  2  1  0
  2  3  1  0
  3  4  2  0
  3  8  1  0
  4  5  1  0
  5  6  1  0
  6  7  1  0
  7  8  2  0
  8  9  1  0
  9 10  1  0
 10 11  1  0
M  END
