
     RDKit          3D

 37 42  0  0  0  0  0  0  0  0999 V2000
    8.8840    1.5100    1.2920 C   0  0  0  0  0  0  0  0  0  0  0  0
    7.6790    0.7210    1.0720 N   0  0  0  0  0  0  0  0  0  0  0  0
    8.1130   -0.5700    0.5580 C   0  0  0  0  0  0  0  0  0  0  0  0
    6.9230   -1.4270    0.2680 C   0  0  0  0  0  0  0  0  0  0  0  0
    6.0070   -0.8260   -0.7430 C   0  0  0  0  0  0  0  0  0  0  0  0
    6.1720   -1.0800   -2.0880 C   0  0  0  0  0  0  0  0  0  0  0  0
    5.3240   -0.5240   -3.0200 C   0  0  0  0  0  0  0  0  0  0  0  0
    4.2710    0.3120   -2.6620 C   0  0  0  0  0  0  0  0  0  0  0  0
    4.0980    0.5710   -1.3270 C   0  0  0  0  0  0  0  0  0  0  0  0
    3.1150    1.3650   -0.8390 O   0  0  0  0  0  0  0  0  0  0  0  0
    1.8750    1.0130   -0.3580 C   0  0  0  0  0  0  0  0  0  0  0  0
    1.5520    1.3080    0.9780 C   0  0  0  0  0  0  0  0  0  0  0  0
    0.3050    0.9580    1.4810 C   0  0  0  0  0  0  0  0  0  0  0  0
   -0.6290    0.3240    0.6930 C   0  0  0  0  0  0  0  0  0  0  0  0
   -0.3210    0.0260   -0.6350 C   0  0  0  0  0  0  0  0  0  0  0  0
    0.9360    0.3900   -1.1070 C   0  0  0  0  0  0  0  0  0  0  0  0
    1.2090    0.0830   -2.4340 O   0  0  0  0  0  0  0  0  0  0  0  0
    0.7900    1.0960   -3.3660 C   0  0  0  0  0  0  0  0  0  0  0  0
    1.4500    2.2810   -3.0510 O   0  0  0  0  0  0  0  0  0  0  0  0
   -1.2720   -0.6180   -1.4340 O   0  0  0  0  0  0  0  0  0  0  0  0
   -2.5410   -0.9780   -0.9270 C   0  0  0  0  0  0  0  0  0  0  0  0
   -3.6030   -1.5370   -1.3390 N   0  0  0  0  0  0  0  0  0  0  0  0
   -4.5900   -1.6160   -0.3520 N   0  0  0  0  0  0  0  0  0  0  0  0
   -5.8890   -2.1890   -0.7110 C   0  0  0  0  0  0  0  0  0  0  0  0
   -6.9400   -1.8180    0.3140 C   0  0  0  0  0  0  0  0  0  0  0  0
   -7.5100   -0.5320    0.0750 N   0  0  1  0  0  0  0  0  0  0  0  0
   -8.6250   -0.3420    0.9860 C   0  0  0  0  0  0  0  0  0  0  0  0
   -6.6050    0.5710    0.0640 C   0  0  0  0  0  0  0  0  0  0  0  0
   -5.8800    0.8180    1.3450 C   0  0  0  0  0  0  0  0  0  0  0  0
   -4.6760    0.0630    1.4550 N   0  0  0  0  0  0  0  0  0  0  0  0
   -3.8450    0.6740    2.4800 C   0  0  0  0  0  0  0  0  0  0  0  0
   -4.3220    1.5110    3.2560 O   0  0  0  0  0  0  0  0  0  0  0  0
   -2.4010    0.2920    2.6040 C   0  0  0  0  0  0  0  0  0  0  0  0
   -1.9010   -0.0280    1.2440 C   0  0  0  0  0  0  0  0  0  0  0  0
   -2.7400   -0.6340    0.4420 C   0  0  0  0  0  0  0  0  0  0  0  0
   -4.0940   -1.0860    0.8530 C   0  0  2  0  0  0  0  0  0  0  0  0
    4.9630    0.0020   -0.3900 C   0  0  0  0  0  0  0  0  0  0  0  0
  1  2  1  0
  2  3  1  0
  3  4  1  0
  4  5  1  0
  5  6  2  0
  5 37  1  0
  6  7  1  0
  7  8  2  0
  8  9  1  0
  9 10  1  0
  9 37  2  0
 10 11  1  0
 11 12  2  0
 11 16  1  0
 12 13  1  0
 13 14  2  0
 14 15  1  0
 14 34  1  0
 15 16  2  0
 15 20  1  0
 16 17  1  0
 17 18  1  0
 18 19  1  0
 20 21  1  0
 21 22  2  0
 21 35  1  0
 22 23  1  0
 23 24  1  0
 36 23  1  6
 24 25  1  0
 25 26  1  0
 26 27  1  1
 26 28  1  0
 28 29  1  0
 29 30  1  0
 30 31  1  0
 30 36  1  0
 31 32  2  0
 31 33  1  0
 33 34  1  0
 34 35  2  0
 35 36  1  0
M  CHG  2   2   1  26   1
M  END
