
     RDKit          3D

 38 42  0  0  0  0  0  0  0  0999 V2000
    5.7020   -0.0140    1.4550 C   0  0  0  0  0  0  0  0  0  0  0  0
    4.6320    0.7610    1.9180 O   0  0  0  0  0  0  0  0  0  0  0  0
    4.7160    1.6690    2.9450 C   0  0  0  0  0  0  0  0  0  0  0  0
    5.9230    1.8460    3.5800 C   0  0  0  0  0  0  0  0  0  0  0  0
    6.0990    2.7330    4.6150 C   0  0  0  0  0  0  0  0  0  0  0  0
    5.0060    3.4630    5.0130 C   0  0  0  0  0  0  0  0  0  0  0  0
    3.7670    3.2810    4.3630 C   0  0  0  0  0  0  0  0  0  0  0  0
    3.5900    2.3960    3.3300 C   0  0  0  0  0  0  0  0  0  0  0  0
    2.3580    2.1510    2.6800 N   0  0  0  0  0  0  0  0  0  0  0  0
    1.1530    2.8570    2.7720 C   0  0  0  0  0  0  0  0  0  0  0  0
    1.1720    3.8900    3.5480 O   0  0  0  0  0  0  0  0  0  0  0  0
   -0.1280    2.5890    2.1200 C   0  0  0  0  0  0  0  0  0  0  0  0
   -0.2950    1.4870    1.3350 O   0  0  0  0  0  0  0  0  0  0  0  0
    0.3060    1.0990    0.1660 C   0  0  0  0  0  0  0  0  0  0  0  0
    1.1840    1.8600   -0.3040 O   0  0  0  0  0  0  0  0  0  0  0  0
   -0.0880   -0.1620   -0.4920 C   0  0  0  0  0  0  0  0  0  0  0  0
    0.6630   -1.3110   -0.2090 C   0  0  0  0  0  0  0  0  0  0  0  0
    1.8690   -1.1630    0.6690 C   0  0  0  0  0  0  0  0  0  0  0  0
    2.7290   -2.7150    0.8100 Cl  0  0  0  0  0  0  0  0  0  0  0  0
    0.3040   -2.5020   -0.6990 N   0  0  0  0  0  0  0  0  0  0  0  0
   -0.8010   -2.6260   -1.4820 C   0  0  0  0  0  0  0  0  0  0  0  0
   -1.1990   -3.8840   -2.0190 N   0  0  0  0  0  0  0  0  0  0  0  0
   -2.3910   -4.1040   -2.7920 C   0  0  0  0  0  0  0  0  0  0  0  0
   -2.6500   -5.5960   -2.7660 C   0  0  0  0  0  0  0  0  0  0  0  0
   -1.2630   -6.1860   -2.6200 C   0  0  0  0  0  0  0  0  0  0  0  0
   -0.4890   -5.1220   -1.8920 C   0  0  0  0  0  0  0  0  0  0  0  0
   -1.4760   -1.5180   -1.7200 N   0  0  0  0  0  0  0  0  0  0  0  0
   -1.1920   -0.2610   -1.2700 C   0  0  0  0  0  0  0  0  0  0  0  0
   -2.1250    0.7870   -1.5660 C   0  0  0  0  0  0  0  0  0  0  0  0
   -1.8210    2.1100   -1.5830 C   0  0  0  0  0  0  0  0  0  0  0  0
   -2.7730    3.1220   -1.7940 C   0  0  0  0  0  0  0  0  0  0  0  0
   -4.0900    2.7880   -1.9970 C   0  0  0  0  0  0  0  0  0  0  0  0
   -4.4300    1.4340   -1.9810 C   0  0  0  0  0  0  0  0  0  0  0  0
   -3.4860    0.4590   -1.7750 C   0  0  0  0  0  0  0  0  0  0  0  0
   -5.8920    1.3700   -2.1840 C   0  0  0  0  0  0  0  0  0  0  0  0
   -6.5220    0.3100   -2.4610 O   0  0  0  0  0  0  0  0  0  0  0  0
   -6.3820    2.7560   -1.9900 C   0  0  0  0  0  0  0  0  0  0  0  0
   -5.2290    3.5940   -2.2420 N   0  0  0  0  0  0  0  0  0  0  0  0
  1  2  1  0
  2  3  1  0
  3  4  2  0
  3  8  1  0
  4  5  1  0
  5  6  2  0
  6  7  1  0
  7  8  2  0
  8  9  1  0
  9 10  1  0
 10 11  2  0
 10 12  1  0
 12 13  1  0
 13 14  1  0
 14 15  2  0
 14 16  1  0
 16 17  2  0
 16 28  1  0
 17 18  1  0
 17 20  1  0
 18 19  1  0
 20 21  2  0
 21 22  1  0
 21 27  1  0
 22 23  1  0
 22 26  1  0
 23 24  1  0
 24 25  1  0
 25 26  1  0
 27 28  2  0
 28 29  1  0
 29 30  2  0
 29 34  1  0
 30 31  1  0
 31 32  2  0
 32 33  1  0
 32 38  1  0
 33 34  2  0
 33 35  1  0
 35 36  2  0
 35 37  1  0
 37 38  1  0
M  CHG  2  20   1  27   1
M  END
