
     RDKit          3D

 38 42  0  0  0  0  0  0  0  0999 V2000
    6.0290    4.1360   -0.7670 C   0  0  0  0  0  0  0  0  0  0  0  0
    6.5540    3.0990   -1.7150 C   0  0  0  0  0  0  0  0  0  0  0  0
    5.8490    1.7940   -1.6050 C   0  0  0  0  0  0  0  0  0  0  0  0
    4.8290    1.5810   -0.7430 N   0  0  0  0  0  0  0  0  0  0  0  0
    4.2270    0.3820   -0.6840 C   0  0  0  0  0  0  0  0  0  0  0  0
    4.6730   -0.6100   -1.5150 C   0  0  0  0  0  0  0  0  0  0  0  0
    5.7240   -0.3640   -2.3910 C   0  0  0  0  0  0  0  0  0  0  0  0
    6.1720   -1.2490   -3.1750 O   0  0  0  0  0  0  0  0  0  0  0  0
    6.2460    0.8330   -2.3760 O   0  0  0  0  0  0  0  0  0  0  0  0
    4.0860   -1.9900   -1.5390 C   0  0  0  0  0  0  0  0  0  0  0  0
    2.7810   -1.9710   -0.7020 C   0  0  0  0  0  0  0  0  0  0  0  0
    3.1130   -1.2950    0.5060 N   0  0  2  0  0  0  0  0  0  0  0  0
    2.4860   -1.6930    1.7010 C   0  0  0  0  0  0  0  0  0  0  0  0
    1.0180   -1.6330    1.7910 C   0  0  0  0  0  0  0  0  0  0  0  0
    0.0700   -1.2690    0.9500 N   0  0  0  0  0  0  0  0  0  0  0  0
   -1.1740   -1.3960    1.4800 C   0  0  0  0  0  0  0  0  0  0  0  0
   -2.4740   -1.1120    0.8030 C   0  0  2  0  0  0  0  0  0  0  0  0
   -2.6620   -2.1690   -0.3040 C   0  0  0  0  0  0  0  0  0  0  0  0
   -4.1070   -2.1380   -0.6830 C   0  0  0  0  0  0  0  0  0  0  0  0
   -4.6880   -0.7800   -0.8490 C   0  0  0  0  0  0  0  0  0  0  0  0
   -3.8310    0.3210   -0.5120 N   0  0  0  0  0  0  0  0  0  0  0  0
   -4.3160    1.6490   -0.8110 C   0  0  0  0  0  0  0  0  0  0  0  0
   -3.6200    2.6620   -0.5500 O   0  0  0  0  0  0  0  0  0  0  0  0
   -5.6270    1.8640   -1.4230 C   0  0  0  0  0  0  0  0  0  0  0  0
   -6.5210    0.9680   -1.7660 O   0  0  0  0  0  0  0  0  0  0  0  0
   -7.5910    1.4970   -2.2900 C   0  0  0  0  0  0  0  0  0  0  0  0
   -7.4230    2.8700   -2.3120 C   0  0  0  0  0  0  0  0  0  0  0  0
   -6.1710    3.0880   -1.7570 C   0  0  0  0  0  0  0  0  0  0  0  0
   -5.5120    4.4100   -1.5570 C   0  0  0  0  0  0  0  0  0  0  0  0
   -2.5210    0.2030    0.1050 C   0  0  0  0  0  0  0  0  0  0  0  0
   -0.9470   -1.8570    2.7090 N   0  0  0  0  0  0  0  0  0  0  0  0
    0.3470   -2.0310    2.9810 C   0  0  0  0  0  0  0  0  0  0  0  0
    0.9780   -2.5180    4.1850 C   0  0  0  0  0  0  0  0  0  0  0  0
    0.5120   -2.9060    5.3190 C   0  0  0  0  0  0  0  0  0  0  0  0
   -0.8430   -2.9770    5.7670 C   0  0  0  0  0  0  0  0  0  0  0  0
   -1.0730   -3.4050    6.9760 O   0  0  0  0  0  0  0  0  0  0  0  0
   -2.2330   -2.5500    4.8710 Cl  0  0  0  0  0  0  0  0  0  0  0  0
    3.1140    0.1430    0.2430 C   0  0  0  0  0  0  0  0  0  0  0  0
  1  2  1  0
  2  3  1  0
  3  4  2  0
  3  9  1  0
  4  5  1  0
  5  6  2  0
  5 38  1  0
  6  7  1  0
  6 10  1  0
  7  8  2  0
  7  9  1  0
 10 11  1  0
 11 12  1  0
 12 13  1  1
 12 38  1  0
 13 14  1  0
 14 15  1  0
 14 32  2  0
 15 16  1  0
 17 16  1  6
 16 31  2  0
 17 18  1  0
 17 30  1  0
 18 19  1  0
 19 20  1  0
 20 21  1  0
 21 22  1  0
 21 30  1  0
 22 23  2  0
 22 24  1  0
 24 25  1  0
 24 28  2  0
 25 26  1  0
 26 27  2  0
 27 28  1  0
 28 29  1  0
 31 32  1  0
 32 33  1  0
 33 34  2  3
 34 35  1  0
 35 36  2  0
 35 37  1  0
M  CHG  2   4   1  12   1
M  END
