
     RDKit          3D

 38 42  0  0  0  0  0  0  0  0999 V2000
    7.6860   -1.7600    0.5000 C   0  0  0  0  0  0  0  0  0  0  0  0
    7.9290   -1.1510    1.7040 O   0  0  0  0  0  0  0  0  0  0  0  0
    7.4230    0.1200    1.8480 C   0  0  0  0  0  0  0  0  0  0  0  0
    7.9820    1.0700    0.8270 C   0  0  0  0  0  0  0  0  0  0  0  0
    9.3540    1.2450    0.8180 C   0  0  0  0  0  0  0  0  0  0  0  0
    9.8980    2.1110   -0.1030 C   0  0  0  0  0  0  0  0  0  0  0  0
    9.0420    2.7600   -0.9700 C   0  0  0  0  0  0  0  0  0  0  0  0
    9.6990    3.8810   -2.1670 Cl  0  0  0  0  0  0  0  0  0  0  0  0
    7.6950    2.5500   -0.9170 C   0  0  0  0  0  0  0  0  0  0  0  0
    7.1460    1.7010   -0.0160 N   0  0  0  0  0  0  0  0  0  0  0  0
    5.7430    1.4820    0.0500 C   0  0  0  0  0  0  0  0  0  0  0  0
    5.1860    0.4430   -0.6590 C   0  0  0  0  0  0  0  0  0  0  0  0
    3.8060    0.1840   -0.6240 C   0  0  0  0  0  0  0  0  0  0  0  0
    3.0100    0.9940    0.1380 C   0  0  0  0  0  0  0  0  0  0  0  0
    1.5670    0.7880    0.2330 C   0  0  0  0  0  0  0  0  0  0  0  0
    0.9050    1.5910    0.9620 O   0  0  0  0  0  0  0  0  0  0  0  0
    0.8710   -0.2250   -0.4180 N   0  0  0  0  0  0  0  0  0  0  0  0
   -0.5100   -0.5020   -0.3910 C   0  0  0  0  0  0  0  0  0  0  0  0
   -0.9780   -1.6820   -0.9840 C   0  0  0  0  0  0  0  0  0  0  0  0
   -2.3180   -2.0310   -1.0070 C   0  0  0  0  0  0  0  0  0  0  0  0
   -3.2620   -1.2330   -0.4470 C   0  0  0  0  0  0  0  0  0  0  0  0
   -4.5960   -1.5420   -0.4480 O   0  0  0  0  0  0  0  0  0  0  0  0
   -5.1520   -2.6720   -1.0000 C   0  0  1  0  0  0  0  0  0  0  0  0
   -5.8730   -3.5180    0.0720 C   0  0  0  0  0  0  0  0  0  0  0  0
   -6.7730   -4.3500   -0.7850 C   0  0  0  0  0  0  0  0  0  0  0  0
   -7.2790   -3.4300   -1.7590 N   0  0  0  0  0  0  0  0  0  0  0  0
   -6.3500   -2.3380   -1.8870 C   0  0  0  0  0  0  0  0  0  0  0  0
   -2.8160   -0.0520    0.1480 C   0  0  0  0  0  0  0  0  0  0  0  0
   -3.7850    0.8180    0.7520 C   0  0  0  0  0  0  0  0  0  0  0  0
   -3.4050    1.8860    1.2940 O   0  0  0  0  0  0  0  0  0  0  0  0
   -5.1270    0.5270    0.7620 O   0  0  0  0  0  0  0  0  0  0  0  0
   -6.0240    1.4180    1.3690 C   0  0  0  0  0  0  0  0  0  0  0  0
   -5.9310    2.7530    0.6810 C   0  0  1  0  0  0  0  0  0  0  0  0
   -6.8430    3.8600    1.2080 C   0  0  0  0  0  0  0  0  0  0  0  0
   -5.3310    3.9190    1.4120 C   0  0  0  0  0  0  0  0  0  0  0  0
   -1.4870    0.2790    0.1630 C   0  0  0  0  0  0  0  0  0  0  0  0
    3.5970    1.9930    0.8110 N   0  0  0  0  0  0  0  0  0  0  0  0
    4.9010    2.2370    0.7770 N   0  0  0  0  0  0  0  0  0  0  0  0
  1  2  1  0
  2  3  1  0
  3  4  1  0
  4  5  2  0
  4 10  1  0
  5  6  1  0
  6  7  2  0
  7  8  1  0
  7  9  1  0
  9 10  2  0
 10 11  1  0
 11 12  2  0
 11 38  1  0
 12 13  1  0
 13 14  2  0
 14 15  1  0
 14 37  1  0
 15 16  2  0
 15 17  1  0
 17 18  1  0
 18 19  2  0
 18 36  1  0
 19 20  1  0
 20 21  2  0
 21 22  1  0
 21 28  1  0
 23 22  1  1
 23 24  1  0
 23 27  1  0
 24 25  1  0
 25 26  1  0
 26 27  1  0
 28 29  1  0
 28 36  2  0
 29 30  2  0
 29 31  1  0
 31 32  1  0
 33 32  1  1
 33 34  1  0
 33 35  1  0
 34 35  1  0
 37 38  2  0
M  CHG  2  10   1  26   1
M  END
