
     RDKit          3D

 36 39  0  0  0  0  0  0  0  0999 V2000
    6.5210   -0.3970    1.2520 C   0  0  0  0  0  0  0  0  0  0  0  0
    5.4560   -0.3780    0.2240 C   0  0  0  0  0  0  0  0  0  0  0  0
    4.8160   -1.4980   -0.0620 C   0  0  0  0  0  0  0  0  0  0  0  0
    5.0800   -2.7260    0.5460 O   0  0  0  0  0  0  0  0  0  0  0  0
    4.2390   -3.7140   -0.0040 C   0  0  0  0  0  0  0  0  0  0  0  0
    3.4200   -2.9940   -0.9860 C   0  0  0  0  0  0  0  0  0  0  0  0
    3.7590   -1.7140   -1.0150 C   0  0  0  0  0  0  0  0  0  0  0  0
    2.9250   -0.4970   -2.0390 S   0  0  2  0  0  0  0  0  0  0  0  0
    2.8210   -1.2470   -3.4070 O   0  0  0  0  0  0  0  0  0  0  0  0
    3.8230    0.6240   -2.2990 O   0  0  0  0  0  0  0  0  0  0  0  0
    1.3980   -0.1860   -1.4670 N   0  0  0  0  0  0  0  0  0  0  0  0
    0.5650    0.7790   -0.9400 C   0  0  0  0  0  0  0  0  0  0  0  0
   -0.7260    0.3360   -0.6410 N   0  0  0  0  0  0  0  0  0  0  0  0
   -1.6910    1.1090   -0.1630 C   0  0  0  0  0  0  0  0  0  0  0  0
   -2.9620    0.5740    0.1140 C   0  0  0  0  0  0  0  0  0  0  0  0
   -3.1240   -0.8460   -0.1580 C   0  0  0  0  0  0  0  0  0  0  0  0
   -2.4600   -1.3350   -1.1070 O   0  0  0  0  0  0  0  0  0  0  0  0
   -4.0400   -1.7080    0.6510 C   0  0  0  0  0  0  0  0  0  0  0  0
   -4.7880   -2.7230    0.1800 C   0  0  0  0  0  0  0  0  0  0  0  0
   -4.7370   -3.0620   -1.3150 C   0  0  0  0  0  0  0  0  0  0  0  0
   -5.5850   -4.2620   -1.6030 C   0  0  0  0  0  0  0  0  0  0  0  0
   -5.5730   -3.4380    0.9980 C   0  0  0  0  0  0  0  0  0  0  0  0
   -5.2950   -2.6760    2.6110 S   0  0  0  0  0  0  0  0  0  0  0  0
   -4.1450   -1.4670    2.0140 C   0  0  0  0  0  0  0  0  0  0  0  0
   -3.3270   -0.2460    2.9870 Cl  0  0  0  0  0  0  0  0  0  0  0  0
   -3.9440    1.3890    0.6110 C   0  0  0  0  0  0  0  0  0  0  0  0
   -3.7290    2.7310    0.8510 C   0  0  0  0  0  0  0  0  0  0  0  0
   -2.4650    3.2390    0.5700 C   0  0  0  0  0  0  0  0  0  0  0  0
   -2.1630    4.6840    0.8070 C   0  0  0  0  0  0  0  0  0  0  0  0
   -1.4620    2.4440    0.0710 C   0  0  0  0  0  0  0  0  0  0  0  0
   -0.2040    2.9100   -0.2120 C   0  0  0  0  0  0  0  0  0  0  0  0
    0.8210    2.0850   -0.7180 C   0  0  0  0  0  0  0  0  0  0  0  0
    2.1600    2.6920   -0.9330 C   0  0  0  0  0  0  0  0  0  0  0  0
    3.0880    2.3680    0.1950 C   0  0  0  0  0  0  0  0  0  0  0  0
    2.6010    2.9590    1.5240 C   0  0  0  0  0  0  0  0  0  0  0  0
    2.5010    4.7140    1.4030 Cl  0  0  0  0  0  0  0  0  0  0  0  0
  1  2  1  0
  2  3  2  3
  3  4  1  0
  3  7  1  0
  4  5  1  0
  5  6  1  0
  6  7  2  0
  7  8  1  0
  8  9  2  0
  8 10  2  0
  8 11  1  1
 11 12  1  0
 12 13  2  0
 12 32  1  0
 13 14  1  0
 14 15  2  0
 14 30  1  0
 15 16  1  0
 15 26  1  0
 16 17  2  0
 16 18  1  0
 18 19  1  0
 18 24  2  0
 19 20  1  0
 19 22  2  0
 20 21  1  0
 22 23  1  0
 23 24  1  0
 24 25  1  0
 26 27  2  0
 27 28  1  0
 28 29  1  0
 28 30  2  0
 30 31  1  0
 31 32  2  0
 32 33  1  0
 33 34  1  0
 34 35  1  0
 35 36  1  0
M  END
