
     RDKit          3D

 36 39  0  0  0  0  0  0  0  0999 V2000
    7.3130    0.1880    3.0780 C   0  0  0  0  0  0  0  0  0  0  0  0
    7.2870   -0.8690    2.1540 O   0  0  0  0  0  0  0  0  0  0  0  0
    6.4340   -0.7560    1.0630 C   0  0  0  0  0  0  0  0  0  0  0  0
    5.6260    0.3410    0.8630 C   0  0  0  0  0  0  0  0  0  0  0  0
    4.7890    0.4370   -0.2230 C   0  0  0  0  0  0  0  0  0  0  0  0
    4.7180   -0.5820   -1.1820 C   0  0  0  0  0  0  0  0  0  0  0  0
    3.6340   -0.4050   -2.5840 S   0  0  0  0  0  0  0  0  0  0  0  0
    1.9660   -1.0450   -2.0910 C   0  0  0  0  0  0  0  0  0  0  0  0
    0.9950   -0.7340   -3.1110 C   0  0  0  0  0  0  0  0  0  0  0  0
    1.4620   -0.8760   -4.3500 O   0  0  0  0  0  0  0  0  0  0  0  0
   -0.3420   -0.3190   -3.0430 C   0  0  0  0  0  0  0  0  0  0  0  0
   -1.1240   -0.0180   -2.0660 C   0  0  0  0  0  0  0  0  0  0  0  0
   -2.5620    0.3670   -2.5330 C   0  0  0  0  0  0  0  0  0  0  0  0
   -0.8650    0.2510   -0.6990 C   0  0  0  0  0  0  0  0  0  0  0  0
   -1.6850   -0.2200    0.3000 C   0  0  0  0  0  0  0  0  0  0  0  0
   -3.0040   -1.3590   -0.0340 S   0  0  0  0  0  0  0  0  0  0  0  0
   -4.5290   -0.4580   -0.1920 C   0  0  0  0  0  0  0  0  0  0  0  0
   -5.4760   -0.8120   -1.0110 C   0  0  0  0  0  0  0  0  0  0  0  0
   -6.7630   -0.1030   -1.1910 C   0  0  0  0  0  0  0  0  0  0  0  0
   -7.2140   -0.3530   -2.4070 C   0  0  0  0  0  0  0  0  0  0  0  0
   -8.7060    0.2800   -3.0570 Cl  0  0  0  0  0  0  0  0  0  0  0  0
   -6.2480   -1.2610   -3.1280 C   0  0  0  0  0  0  0  0  0  0  0  0
   -5.5430   -1.9620   -1.9560 C   0  0  0  0  0  0  0  0  0  0  0  0
   -1.4970    0.1480    1.5710 N   0  0  0  0  0  0  0  0  0  0  0  0
   -0.5320    0.9760    1.9800 C   0  0  0  0  0  0  0  0  0  0  0  0
   -0.3830    1.3330    3.3830 C   0  0  0  0  0  0  0  0  0  0  0  0
   -1.2050    0.9180    4.4220 C   0  0  0  0  0  0  0  0  0  0  0  0
   -0.7290    1.4680    5.5820 C   0  0  0  0  0  0  0  0  0  0  0  0
    0.3910    2.2150    5.2060 C   0  0  0  0  0  0  0  0  0  0  0  0
    0.5450    2.0950    3.8850 O   0  0  0  0  0  0  0  0  0  0  0  0
    0.2840    1.4580    1.0330 N   0  0  0  0  0  0  0  0  0  0  0  0
    0.1530    1.1320   -0.2590 C   0  0  0  0  0  0  0  0  0  0  0  0
    0.9510    1.6420   -1.0530 O   0  0  0  0  0  0  0  0  0  0  0  0
    5.5240   -1.6680   -0.9750 C   0  0  0  0  0  0  0  0  0  0  0  0
    6.3720   -1.7650    0.1270 C   0  0  0  0  0  0  0  0  0  0  0  0
    7.3950   -3.1810    0.3450 Cl  0  0  0  0  0  0  0  0  0  0  0  0
  1  2  1  0
  2  3  1  0
  3  4  2  0
  3 35  1  0
  4  5  1  0
  5  6  2  0
  6  7  1  0
  6 34  1  0
  7  8  1  0
  8  9  1  0
  9 10  2  0
  9 11  1  0
 11 12  2  3
 12 13  1  0
 12 14  1  0
 14 15  2  0
 14 32  1  0
 15 16  1  0
 15 24  1  0
 16 17  1  0
 17 18  2  3
 18 19  1  0
 18 23  1  0
 19 20  2  0
 20 21  1  0
 20 22  1  0
 22 23  1  0
 24 25  1  0
 25 26  1  0
 25 31  2  0
 26 27  2  0
 26 30  1  0
 27 28  1  0
 28 29  2  0
 29 30  1  0
 31 32  1  0
 32 33  2  0
 34 35  2  0
 35 36  1  0
M  END
