
     RDKit          3D

 36 39  0  0  0  0  0  0  0  0999 V2000
    8.8880   -0.8200    3.3890 C   0  0  0  0  0  0  0  0  0  0  0  0
    7.9640   -0.6780    2.4610 C   0  0  0  0  0  0  0  0  0  0  0  0
    6.6000   -0.4050    2.8660 C   0  0  0  0  0  0  0  0  0  0  0  0
    5.4420   -0.5060    2.2610 C   0  0  0  0  0  0  0  0  0  0  0  0
    4.0710    0.0000    3.3320 S   0  0  0  0  0  0  0  0  0  0  0  0
    2.7390   -1.1840    2.9430 C   0  0  0  0  0  0  0  0  0  0  0  0
    2.7290   -1.5320    1.5250 C   0  0  0  0  0  0  0  0  0  0  0  0
    1.4940   -2.0520    0.9970 N   0  0  0  0  0  0  0  0  0  0  0  0
    0.2740   -1.3280    1.0150 C   0  0  0  0  0  0  0  0  0  0  0  0
    0.3070   -0.1740    1.5310 O   0  0  0  0  0  0  0  0  0  0  0  0
   -0.9840   -1.8340    0.4830 C   0  0  0  0  0  0  0  0  0  0  0  0
   -0.9770   -2.9170   -0.3630 C   0  0  0  0  0  0  0  0  0  0  0  0
   -2.1650   -3.4340   -0.8950 C   0  0  0  0  0  0  0  0  0  0  0  0
   -3.3560   -2.8260   -0.5490 C   0  0  0  0  0  0  0  0  0  0  0  0
   -4.8710   -3.4330   -1.1840 Cl  0  0  0  0  0  0  0  0  0  0  0  0
   -3.3950   -1.7380    0.2980 C   0  0  0  0  0  0  0  0  0  0  0  0
   -4.6160   -1.1660    0.6120 O   0  0  0  0  0  0  0  0  0  0  0  0
   -4.6480   -0.0550    1.4780 C   0  0  0  0  0  0  0  0  0  0  0  0
   -3.9180    1.0510    0.9980 O   0  0  0  0  0  0  0  0  0  0  0  0
   -4.1660    1.7150   -0.1830 C   0  0  0  0  0  0  0  0  0  0  0  0
   -3.3800    2.7900   -0.5560 C   0  0  0  0  0  0  0  0  0  0  0  0
   -3.5980    3.4760   -1.7270 C   0  0  0  0  0  0  0  0  0  0  0  0
   -4.6060    3.1110   -2.5620 C   0  0  0  0  0  0  0  0  0  0  0  0
   -4.8930    3.7460   -3.7600 O   0  0  0  0  0  0  0  0  0  0  0  0
   -4.1820    4.8420   -4.2560 C   0  0  0  0  0  0  0  0  0  0  0  0
   -5.4060    2.0410   -2.2140 C   0  0  0  0  0  0  0  0  0  0  0  0
   -6.5150    1.6130   -3.0940 C   0  0  0  0  0  0  0  0  0  0  0  0
   -5.8710    0.7290   -4.4890 Cl  0  0  0  0  0  0  0  0  0  0  0  0
   -5.1940    1.3450   -1.0380 C   0  0  0  0  0  0  0  0  0  0  0  0
   -2.1850   -1.2560    0.8050 C   0  0  0  0  0  0  0  0  0  0  0  0
    3.7150   -1.4340    0.6560 C   0  0  0  0  0  0  0  0  0  0  0  0
    5.0650   -0.9440    0.9350 C   0  0  0  0  0  0  0  0  0  0  0  0
    5.8340   -0.9600   -0.1660 C   0  0  0  0  0  0  0  0  0  0  0  0
    7.5180   -0.4800   -0.4170 S   0  0  0  0  0  0  0  0  0  0  0  0
    8.4510   -0.8170    1.0790 C   0  0  0  0  0  0  0  0  0  0  0  0
    9.6610   -1.2210    0.9710 N   0  0  0  0  0  0  0  0  0  0  0  0
  1  2  2  0
  2  3  1  0
  2 35  1  0
  3  4  2  0
  4  5  1  0
  4 32  1  0
  5  6  1  0
  6  7  1  0
  7  8  1  0
  7 31  2  0
  8  9  1  0
  9 10  2  0
  9 11  1  0
 11 12  2  0
 11 30  1  0
 12 13  1  0
 13 14  2  0
 14 15  1  0
 14 16  1  0
 16 17  1  0
 16 30  2  0
 17 18  1  0
 18 19  1  0
 19 20  1  0
 20 21  2  0
 20 29  1  0
 21 22  1  0
 22 23  2  0
 23 24  1  0
 23 26  1  0
 24 25  1  0
 26 27  1  0
 26 29  2  0
 27 28  1  0
 31 32  1  0
 32 33  2  0
 33 34  1  0
 34 35  1  0
 35 36  2  0
M  END
