
     RDKit          3D

 36 39  0  0  0  0  0  0  0  0999 V2000
   -2.7920   -6.0710   -1.4610 C   0  0  0  0  0  0  0  0  0  0  0  0
   -1.7730   -5.2890   -0.6830 C   0  0  0  0  0  0  0  0  0  0  0  0
   -2.3440   -4.0810   -0.0330 C   0  0  0  0  0  0  0  0  0  0  0  0
   -2.1080   -2.8100   -0.5670 C   0  0  0  0  0  0  0  0  0  0  0  0
   -2.6130   -1.6540   -0.0040 C   0  0  0  0  0  0  0  0  0  0  0  0
   -2.3470   -0.3300   -0.5920 C   0  0  0  0  0  0  0  0  0  0  0  0
   -1.4140    0.4990    0.0950 N   0  0  0  0  0  0  0  0  0  0  0  0
   -1.7890    1.4460    1.0890 C   0  0  0  0  0  0  0  0  0  0  0  0
   -2.0980    2.8090    0.4730 C   0  0  0  0  0  0  0  0  0  0  0  0
   -1.9820    2.9650   -0.9380 C   0  0  0  0  0  0  0  0  0  0  0  0
   -2.3970    4.5920   -1.2620 S   0  0  0  0  0  0  0  0  0  0  0  0
   -2.7200    5.0100    0.5640 C   0  0  0  0  0  0  0  0  0  0  0  0
   -3.1040    6.1880    1.0690 C   0  0  0  0  0  0  0  0  0  0  0  0
   -3.4000    7.5260    0.4020 C   0  0  0  0  0  0  0  0  0  0  0  0
   -3.2060    5.8690    2.7540 S   0  0  0  0  0  0  0  0  0  0  0  0
   -2.6950    4.0800    2.6250 C   0  0  0  0  0  0  0  0  0  0  0  0
   -2.5630    3.0820    3.9040 Cl  0  0  0  0  0  0  0  0  0  0  0  0
   -2.4900    3.9540    1.1230 C   0  0  0  0  0  0  0  0  0  0  0  0
   -0.0080    0.4250   -0.2080 C   0  0  0  0  0  0  0  0  0  0  0  0
    0.8150    1.1800    0.4140 O   0  0  0  0  0  0  0  0  0  0  0  0
    0.5660   -0.4750   -1.2070 C   0  0  0  0  0  0  0  0  0  0  0  0
    1.9790   -0.3060   -1.3290 O   0  0  0  0  0  0  0  0  0  0  0  0
    2.7670   -0.5500   -0.2310 C   0  0  0  0  0  0  0  0  0  0  0  0
    2.2930   -0.9170    0.8750 O   0  0  0  0  0  0  0  0  0  0  0  0
    4.2270   -0.3900   -0.2970 C   0  0  0  0  0  0  0  0  0  0  0  0
    4.8040    0.0110   -1.4810 C   0  0  0  0  0  0  0  0  0  0  0  0
    6.1540    0.1690   -1.5770 C   0  0  0  0  0  0  0  0  0  0  0  0
    6.9220   -0.0830   -0.4600 C   0  0  0  0  0  0  0  0  0  0  0  0
    8.4150    0.0820   -0.5330 C   0  0  0  0  0  0  0  0  0  0  0  0
    6.3830   -0.4750    0.7090 N   0  0  0  0  0  0  0  0  0  0  0  0
    5.0460   -0.6230    0.7720 C   0  0  0  0  0  0  0  0  0  0  0  0
    4.5430   -0.9880    1.8610 O   0  0  0  0  0  0  0  0  0  0  0  0
   -3.3740   -1.8290    1.1310 C   0  0  0  0  0  0  0  0  0  0  0  0
   -3.6190   -3.0690    1.6740 C   0  0  0  0  0  0  0  0  0  0  0  0
   -3.1080   -4.1960    1.0980 C   0  0  0  0  0  0  0  0  0  0  0  0
   -3.4350   -5.7460    1.8080 Cl  0  0  0  0  0  0  0  0  0  0  0  0
  1  2  1  0
  2  3  1  0
  3  4  2  0
  3 35  1  0
  4  5  1  0
  5  6  1  0
  5 33  2  0
  6  7  1  0
  7  8  1  0
  7 19  1  0
  8  9  1  0
  9 10  2  0
  9 18  1  0
 10 11  1  0
 11 12  1  0
 12 13  2  0
 12 18  1  0
 13 14  1  0
 13 15  1  0
 15 16  1  0
 16 17  1  0
 16 18  2  0
 19 20  2  0
 19 21  1  0
 21 22  1  0
 22 23  1  0
 23 24  2  0
 23 25  1  0
 25 26  2  0
 25 31  1  0
 26 27  1  0
 27 28  2  0
 28 29  1  0
 28 30  1  0
 30 31  1  0
 31 32  2  0
 33 34  1  0
 34 35  2  0
 35 36  1  0
M  END
