
     RDKit          3D

 36 39  0  0  0  0  0  0  0  0999 V2000
   10.2550   -1.9570   -1.0060 C   0  0  0  0  0  0  0  0  0  0  0  0
    8.9660   -1.5300   -0.8760 C   0  0  0  0  0  0  0  0  0  0  0  0
    8.1200   -2.2460    0.0190 C   0  0  0  0  0  0  0  0  0  0  0  0
    6.9060   -2.0040    0.3190 C   0  0  0  0  0  0  0  0  0  0  0  0
    6.0910   -0.9310   -0.1720 C   0  0  0  0  0  0  0  0  0  0  0  0
    4.9770   -0.6080   -0.0830 N   0  0  0  0  0  0  0  0  0  0  0  0
    4.3010    0.4430   -0.4280 C   0  0  0  0  0  0  0  0  0  0  0  0
    2.8490    0.5440   -0.3680 C   0  0  0  0  0  0  0  0  0  0  0  0
    2.1520   -0.6050   -0.0670 N   0  0  0  0  0  0  0  0  0  0  0  0
    0.8340   -0.7130    0.0670 C   0  0  0  0  0  0  0  0  0  0  0  0
    0.2410   -1.9300    0.3310 C   0  0  0  0  0  0  0  0  0  0  0  0
   -1.1620   -1.9740    0.4030 C   0  0  0  0  0  0  0  0  0  0  0  0
   -1.9000   -0.8270    0.2140 C   0  0  0  0  0  0  0  0  0  0  0  0
   -3.6650   -0.9600    0.1660 S   0  0  1  0  0  0  0  0  0  0  0  0
   -4.0920   -1.4780   -1.1230 O   0  0  0  0  0  0  0  0  0  0  0  0
   -3.8580   -2.0530    1.3120 O   0  0  0  0  0  0  0  0  0  0  0  0
   -4.4950    0.4540    0.7800 C   0  0  0  0  0  0  0  0  0  0  0  0
   -5.9350    0.5200    0.4650 C   0  0  0  0  0  0  0  0  0  0  0  0
   -6.3960    1.7160   -0.1680 C   0  0  0  0  0  0  0  0  0  0  0  0
   -7.7280    1.9810   -0.3310 C   0  0  0  0  0  0  0  0  0  0  0  0
   -8.7040    1.0880    0.1150 C   0  0  0  0  0  0  0  0  0  0  0  0
   -8.2860   -0.0550    0.7110 C   0  0  0  0  0  0  0  0  0  0  0  0
   -9.4830   -1.2360    1.2530 Cl  0  0  0  0  0  0  0  0  0  0  0  0
   -6.9280   -0.3090    0.8670 C   0  0  0  0  0  0  0  0  0  0  0  0
   -6.6640   -1.5380    1.4740 O   0  0  0  0  0  0  0  0  0  0  0  0
   -6.7920   -2.7120    0.6340 C   0  0  0  0  0  0  0  0  0  0  0  0
   -1.2840    0.3510   -0.0320 C   0  0  0  0  0  0  0  0  0  0  0  0
    0.0820    0.4440   -0.1140 C   0  0  0  0  0  0  0  0  0  0  0  0
    0.7170    1.6210   -0.4050 C   0  0  0  0  0  0  0  0  0  0  0  0
    0.0160    2.6380   -0.5550 O   0  0  0  0  0  0  0  0  0  0  0  0
    2.1020    1.6740   -0.5300 C   0  0  0  0  0  0  0  0  0  0  0  0
    2.6560    3.0470   -0.5360 C   0  0  0  0  0  0  0  0  0  0  0  0
    2.6610    3.5460    0.9590 C   0  0  0  0  0  0  0  0  0  0  0  0
    3.3050    5.2100    0.8870 Cl  0  0  0  0  0  0  0  0  0  0  0  0
    5.1190    1.4240   -1.0740 C   0  0  0  0  0  0  0  0  0  0  0  0
    6.7710    0.5830   -1.0400 S   0  0  0  0  0  0  0  0  0  0  0  0
  1  2  2  0
  2  3  1  0
  3  4  2  3
  4  5  1  0
  5  6  2  0
  5 36  1  0
  6  7  1  0
  7  8  1  0
  7 35  2  0
  8  9  1  0
  8 31  2  0
  9 10  1  0
 10 11  2  0
 10 28  1  0
 11 12  1  0
 12 13  2  0
 13 14  1  0
 13 27  1  0
 14 15  2  0
 14 16  2  0
 14 17  1  1
 17 18  1  0
 18 19  2  0
 18 24  1  0
 19 20  1  0
 20 21  2  0
 21 22  1  0
 22 23  1  0
 22 24  2  0
 24 25  1  0
 25 26  1  0
 27 28  2  0
 28 29  1  0
 29 30  2  0
 29 31  1  0
 31 32  1  0
 32 33  1  0
 33 34  1  0
 35 36  1  0
M  END
