
     RDKit          3D

 36 39  0  0  0  0  0  0  0  0999 V2000
    0.4580   -2.1550   -4.6050 C   0  0  0  0  0  0  0  0  0  0  0  0
    0.4550   -2.0070   -3.2140 O   0  0  0  0  0  0  0  0  0  0  0  0
   -0.6790   -1.8050   -2.4700 C   0  0  0  0  0  0  0  0  0  0  0  0
   -1.8990   -1.7470   -3.0920 C   0  0  0  0  0  0  0  0  0  0  0  0
   -3.0310   -1.5450   -2.3220 C   0  0  0  0  0  0  0  0  0  0  0  0
   -2.9840   -1.4010   -0.9610 C   0  0  0  0  0  0  0  0  0  0  0  0
   -4.4580   -1.1410   -0.0170 S   0  0  0  0  0  0  0  0  0  0  0  0
   -4.8820    0.5790    0.1700 C   0  0  0  0  0  0  0  0  0  0  0  0
   -4.4610    1.3140    1.2540 C   0  0  0  0  0  0  0  0  0  0  0  0
   -4.7870    2.6710    1.3880 C   0  0  0  0  0  0  0  0  0  0  0  0
   -5.5340    3.3050    0.4420 C   0  0  0  0  0  0  0  0  0  0  0  0
   -5.9710    2.5930   -0.6560 C   0  0  0  0  0  0  0  0  0  0  0  0
   -6.7600    3.2740   -1.6520 C   0  0  0  0  0  0  0  0  0  0  0  0
   -7.4000    3.8150   -2.4750 N   0  0  0  0  0  0  0  0  0  0  0  0
   -5.6460    1.2490   -0.7840 C   0  0  0  0  0  0  0  0  0  0  0  0
   -1.7500   -1.4610   -0.3380 C   0  0  0  0  0  0  0  0  0  0  0  0
   -1.6150   -1.2730    1.0960 C   0  0  0  0  0  0  0  0  0  0  0  0
   -1.2050   -2.2430    1.8660 C   0  0  0  0  0  0  0  0  0  0  0  0
   -0.7990   -3.8260    1.2420 Cl  0  0  0  0  0  0  0  0  0  0  0  0
   -1.0540   -2.0620    3.3470 C   0  0  0  0  0  0  0  0  0  0  0  0
   -1.5140   -0.4000    3.7460 Cl  0  0  0  0  0  0  0  0  0  0  0  0
   -0.6010   -1.6610   -1.0840 C   0  0  0  0  0  0  0  0  0  0  0  0
    0.7040   -1.6530   -0.5340 N   0  0  0  0  0  0  0  0  0  0  0  0
    1.3200   -0.3910   -0.3430 C   0  0  0  0  0  0  0  0  0  0  0  0
    0.6360    0.6410   -0.6900 O   0  0  0  0  0  0  0  0  0  0  0  0
    2.6500   -0.1810    0.2090 C   0  0  0  0  0  0  0  0  0  0  0  0
    3.4590   -1.2390    0.5170 C   0  0  0  0  0  0  0  0  0  0  0  0
    4.7010   -1.0050    1.0400 C   0  0  0  0  0  0  0  0  0  0  0  0
    5.1610    0.2870    1.2670 C   0  0  0  0  0  0  0  0  0  0  0  0
    4.3830    1.3330    0.9720 C   0  0  0  0  0  0  0  0  0  0  0  0
    3.1260    1.1140    0.4430 C   0  0  0  0  0  0  0  0  0  0  0  0
    4.9720    2.6710    1.2480 C   0  0  0  0  0  0  0  0  0  0  0  0
    6.7280    2.2720    1.2720 S   0  0  1  0  0  0  0  0  0  0  0  0
    7.2710    2.3300   -0.1180 O   0  0  0  0  0  0  0  0  0  0  0  0
    7.4730    3.1140    2.2450 O   0  0  0  0  0  0  0  0  0  0  0  0
    6.4960    0.6030    1.8380 C   0  0  0  0  0  0  0  0  0  0  0  0
  1  2  1  0
  2  3  1  0
  3  4  2  0
  3 22  1  0
  4  5  1  0
  5  6  2  0
  6  7  1  0
  6 16  1  0
  7  8  1  0
  8  9  2  0
  8 15  1  0
  9 10  1  0
 10 11  2  0
 11 12  1  0
 12 13  1  0
 12 15  2  0
 13 14  3  0
 16 17  1  0
 16 22  2  0
 17 18  2  3
 18 19  1  0
 18 20  1  0
 20 21  1  0
 22 23  1  0
 23 24  1  0
 24 25  2  0
 24 26  1  0
 26 27  2  0
 26 31  1  0
 27 28  1  0
 28 29  2  0
 29 30  1  0
 29 36  1  0
 30 31  2  0
 30 32  1  0
 33 32  1  6
 33 34  2  0
 33 35  2  0
 33 36  1  0
M  END
