
     RDKit          3D

 24 27  0  0  0  0  0  0  0  0999 V2000
    6.7790   -0.9430   -1.1990 C   0  0  0  0  0  0  0  0  0  0  0  0
    5.3930   -0.5540   -0.7810 C   0  0  0  0  0  0  0  0  0  0  0  0
    4.4460   -1.5220   -0.5430 C   0  0  0  0  0  0  0  0  0  0  0  0
    3.1650   -1.1310   -0.1550 C   0  0  0  0  0  0  0  0  0  0  0  0
    2.8740    0.2070   -0.0190 C   0  0  0  0  0  0  0  0  0  0  0  0
    1.6210    0.6030    0.3600 C   0  0  0  0  0  0  0  0  0  0  0  0
    0.5600   -0.2830    0.6350 N   0  0  0  0  0  0  0  0  0  0  0  0
   -0.7310    0.2650    1.0310 C   0  0  0  0  0  0  0  0  0  0  0  0
   -1.7160   -0.7700    1.2780 N   0  0  0  0  0  0  0  0  0  0  0  0
   -1.9650   -1.5810    0.1420 C   0  0  0  0  0  0  0  0  0  0  0  0
   -3.3930   -1.7630   -0.2530 C   0  0  0  0  0  0  0  0  0  0  0  0
   -4.0350   -0.4370   -0.2450 C   0  0  0  0  0  0  0  0  0  0  0  0
   -3.7860    0.4060    0.8130 C   0  0  0  0  0  0  0  0  0  0  0  0
   -4.3340    1.6100    0.8750 O   0  0  0  0  0  0  0  0  0  0  0  0
   -5.1310    2.0530   -0.0570 C   0  0  0  0  0  0  0  0  0  0  0  0
   -5.4180    1.2600   -1.1380 C   0  0  0  0  0  0  0  0  0  0  0  0
   -4.8650    0.0030   -1.2320 C   0  0  0  0  0  0  0  0  0  0  0  0
   -5.0960   -0.7630   -2.2030 O   0  0  0  0  0  0  0  0  0  0  0  0
   -2.8720   -0.1290    1.8620 C   0  0  0  0  0  0  0  0  0  0  0  0
    1.4160    1.9750    0.4720 C   0  0  0  0  0  0  0  0  0  0  0  0
    2.3890    2.9100    0.2250 C   0  0  0  0  0  0  0  0  0  0  0  0
    3.6050    2.4780   -0.1450 N   0  0  0  0  0  0  0  0  0  0  0  0
    3.8540    1.1640   -0.2680 C   0  0  0  0  0  0  0  0  0  0  0  0
    5.0990    0.7520   -0.6460 N   0  0  0  0  0  0  0  0  0  0  0  0
  1  2  1  0
  2  3  2  0
  2 24  1  0
  3  4  1  0
  4  5  2  0
  5  6  1  0
  5 23  1  0
  6  7  1  0
  6 20  2  0
  7  8  1  0
  8  9  1  0
  9 10  1  0
  9 19  1  0
 10 11  1  0
 11 12  1  0
 12 13  2  0
 12 17  1  0
 13 14  1  0
 13 19  1  0
 14 15  1  0
 15 16  2  0
 16 17  1  0
 17 18  2  0
 20 21  1  0
 21 22  2  0
 22 23  1  0
 23 24  2  0
M  END
