
     RDKit          3D

 25 27  0  0  0  0  0  0  0  0999 V2000
   -1.9900   -3.2740   -1.2910 C   0  0  0  0  0  0  0  0  0  0  0  0
   -0.7570   -2.5210   -0.9610 C   0  0  0  0  0  0  0  0  0  0  0  0
    0.3860   -3.0500   -1.2820 N   0  0  0  0  0  0  0  0  0  0  0  0
    1.4660   -2.2290   -0.9140 C   0  0  0  0  0  0  0  0  0  0  0  0
    0.8400   -1.0460   -0.2880 C   0  0  0  0  0  0  0  0  0  0  0  0
    1.5650    0.0500    0.2540 N   0  0  0  0  0  0  0  0  0  0  0  0
    3.0160    0.0500    0.1810 C   0  0  0  0  0  0  0  0  0  0  0  0
    3.5490   -0.9230   -0.3570 O   0  0  0  0  0  0  0  0  0  0  0  0
    3.7860    1.0980    0.6940 N   0  0  0  0  0  0  0  0  0  0  0  0
    5.1980    1.1590    0.6550 C   0  0  0  0  0  0  0  0  0  0  0  0
    6.0170    0.2690    0.1460 C   0  0  0  0  0  0  0  0  0  0  0  0
    7.4360    0.7410    0.3240 C   0  0  0  0  0  0  0  0  0  0  0  0
    7.2690    2.0400    1.0150 C   0  0  0  0  0  0  0  0  0  0  0  0
    5.9870    2.2730    1.2020 C   0  0  0  0  0  0  0  0  0  0  0  0
    5.4890    3.3820    1.8100 F   0  0  0  0  0  0  0  0  0  0  0  0
   -0.5030   -1.2420   -0.3260 C   0  0  0  0  0  0  0  0  0  0  0  0
   -1.4710   -0.2830    0.1340 C   0  0  0  0  0  0  0  0  0  0  0  0
   -0.8680    0.8460    0.5200 O   0  0  0  0  0  0  0  0  0  0  0  0
   -2.8460   -0.1720    0.3000 N   0  0  0  0  0  0  0  0  0  0  0  0
   -3.9280   -1.0930    0.1650 C   0  0  0  0  0  0  0  0  0  0  0  0
   -4.6570   -0.7120   -1.1300 C   0  0  0  0  0  0  0  0  0  0  0  0
   -5.3150    0.6220   -0.8320 C   0  0  0  0  0  0  0  0  0  0  0  0
   -4.8220    1.2280    0.4400 C   0  0  0  0  0  0  0  0  0  0  0  0
   -3.3680    1.2080    0.6770 C   0  0  2  0  0  0  0  0  0  0  0  0
   -2.6240    2.2640   -0.1080 C   0  0  0  0  0  0  0  0  0  0  0  0
  1  2  1  0
  2  3  2  0
  2 16  1  0
  3  4  1  0
  4  5  1  0
  5  6  1  0
  5 16  2  0
  6  7  1  0
  7  8  2  0
  7  9  1  0
  9 10  1  0
 10 11  2  0
 10 14  1  0
 11 12  1  0
 12 13  1  0
 13 14  2  0
 14 15  1  0
 16 17  1  0
 17 18  2  0
 17 19  1  0
 19 20  1  0
 19 24  1  0
 20 21  1  0
 21 22  1  0
 22 23  1  0
 23 24  1  0
 24 25  1  6
M  END
