
     RDKit          3D

 25 28  0  0  0  0  0  0  0  0999 V2000
    4.4200    2.0730   -1.3000 C   0  0  0  0  0  0  0  0  0  0  0  0
    3.2640    2.2060   -0.3660 C   0  0  0  0  0  0  0  0  0  0  0  0
    2.9030    0.8990    0.3100 C   0  0  0  0  0  0  0  0  0  0  0  0
    2.5330   -0.1350   -0.7110 C   0  0  0  0  0  0  0  0  0  0  0  0
    2.1790   -1.3970   -0.1620 N   0  0  0  0  0  0  0  0  0  0  0  0
    3.1780   -2.3100   -0.0130 C   0  0  0  0  0  0  0  0  0  0  0  0
    4.3690   -2.0760   -0.3380 O   0  0  0  0  0  0  0  0  0  0  0  0
    2.8620   -3.5400    0.5170 C   0  0  0  0  0  0  0  0  0  0  0  0
    3.8010   -4.5170    0.7020 F   0  0  0  0  0  0  0  0  0  0  0  0
    1.5660   -3.8330    0.8850 C   0  0  0  0  0  0  0  0  0  0  0  0
    0.5460   -2.8870    0.7280 C   0  0  0  0  0  0  0  0  0  0  0  0
   -0.7080   -3.1690    1.0880 N   0  0  0  0  0  0  0  0  0  0  0  0
   -1.7280   -2.2830    0.9590 C   0  0  0  0  0  0  0  0  0  0  0  0
   -2.8970   -2.6330    1.3270 O   0  0  0  0  0  0  0  0  0  0  0  0
   -1.4320   -1.0610    0.4370 C   0  0  0  0  0  0  0  0  0  0  0  0
   -2.4690   -0.0540    0.2650 C   0  0  0  0  0  0  0  0  0  0  0  0
   -2.2460    1.1950   -0.2530 N   0  0  0  0  0  0  0  0  0  0  0  0
   -3.4280    1.8290   -0.2530 C   0  0  0  0  0  0  0  0  0  0  0  0
   -4.3940    0.9930    0.2580 C   0  0  0  0  0  0  0  0  0  0  0  0
   -3.7560   -0.1760    0.5710 N   0  0  0  0  0  0  0  0  0  0  0  0
   -5.5620    1.5950    0.2660 C   0  0  0  0  0  0  0  0  0  0  0  0
   -5.3960    2.9790   -0.2910 C   0  0  0  0  0  0  0  0  0  0  0  0
   -3.9530    2.9960   -0.5890 C   0  0  0  0  0  0  0  0  0  0  0  0
   -0.1160   -0.7560    0.0550 C   0  0  0  0  0  0  0  0  0  0  0  0
    0.9130   -1.6580    0.1890 C   0  0  0  0  0  0  0  0  0  0  0  0
  1  2  1  0
  2  3  1  0
  3  4  1  0
  4  5  1  0
  5  6  1  0
  5 25  1  0
  6  7  2  0
  6  8  1  0
  8  9  1  0
  8 10  2  0
 10 11  1  0
 11 12  1  0
 11 25  2  0
 12 13  1  0
 13 14  2  0
 13 15  1  0
 15 16  1  0
 15 24  2  0
 16 17  2  0
 16 20  1  0
 17 18  1  0
 18 19  1  0
 18 23  2  0
 19 20  1  0
 19 21  2  0
 21 22  1  0
 22 23  1  0
 24 25  1  0
M  END
