
     RDKit          3D

 25 28  0  0  0  0  0  0  0  0999 V2000
   -2.1830   -1.2270   -3.4490 O   0  0  0  0  0  0  0  0  0  0  0  0
   -1.2760   -0.6830   -2.7330 C   0  0  0  0  0  0  0  0  0  0  0  0
   -0.4120    0.3330   -3.1840 N   0  0  0  0  0  0  0  0  0  0  0  0
    0.4580    0.6810   -2.1000 C   0  0  0  0  0  0  0  0  0  0  0  0
    1.4580    1.5860   -2.0060 N   0  0  0  0  0  0  0  0  0  0  0  0
    2.1560    1.7500   -0.8760 C   0  0  0  0  0  0  0  0  0  0  0  0
    1.8870    1.0160    0.2150 N   0  0  0  0  0  0  0  0  0  0  0  0
    2.6540    1.1980    1.4520 C   0  0  0  0  0  0  0  0  0  0  0  0
    3.8400    0.3000    1.4720 C   0  0  0  0  0  0  0  0  0  0  0  0
    3.8700   -0.9820    1.9790 C   0  0  0  0  0  0  0  0  0  0  0  0
    5.1530   -1.4790    1.8100 C   0  0  0  0  0  0  0  0  0  0  0  0
    5.8500   -0.4580    1.1990 C   0  0  0  0  0  0  0  0  0  0  0  0
    5.0600    0.6080    0.9970 N   0  0  0  0  0  0  0  0  0  0  0  0
    0.9020    0.1110    0.1520 C   0  0  0  0  0  0  0  0  0  0  0  0
    0.6330   -0.5980    1.1870 O   0  0  0  0  0  0  0  0  0  0  0  0
    0.1620   -0.0800   -1.0060 C   0  0  0  0  0  0  0  0  0  0  0  0
   -0.9450   -0.9860   -1.3290 C   0  0  1  0  0  0  0  0  0  0  0  0
   -2.1650   -0.7020   -0.5180 C   0  0  0  0  0  0  0  0  0  0  0  0
   -3.0880    0.2050   -0.9850 C   0  0  0  0  0  0  0  0  0  0  0  0
   -4.2380    0.5170   -0.2890 C   0  0  0  0  0  0  0  0  0  0  0  0
   -4.4890   -0.0990    0.9310 C   0  0  0  0  0  0  0  0  0  0  0  0
   -5.7330    0.2540    1.6610 C   0  0  0  0  0  0  0  0  0  0  0  0
   -5.4160    1.3290    2.4820 F   0  0  0  0  0  0  0  0  0  0  0  0
   -3.5630   -1.0170    1.4130 C   0  0  0  0  0  0  0  0  0  0  0  0
   -2.4020   -1.3200    0.6920 C   0  0  0  0  0  0  0  0  0  0  0  0
  1  2  2  0
  2  3  1  0
  2 17  1  0
  3  4  1  0
  4  5  1  0
  4 16  2  0
  5  6  2  0
  6  7  1  0
  7  8  1  0
  7 14  1  0
  8  9  1  0
  9 10  2  0
  9 13  1  0
 10 11  1  0
 11 12  2  0
 12 13  1  0
 14 15  2  0
 14 16  1  0
 16 17  1  0
 17 18  1  1
 18 19  2  0
 18 25  1  0
 19 20  1  0
 20 21  2  0
 21 22  1  0
 21 24  1  0
 22 23  1  0
 24 25  2  0
M  END
