
     RDKit          3D

 25 28  0  0  0  0  0  0  0  0999 V2000
   -3.1650    4.4610    1.0470 O   0  0  0  0  0  0  0  0  0  0  0  0
   -2.4230    3.6770    0.3670 C   0  0  0  0  0  0  0  0  0  0  0  0
   -2.1220    3.8490   -1.0230 N   0  0  0  0  0  0  0  0  0  0  0  0
   -1.2730    2.7570   -1.3540 C   0  0  0  0  0  0  0  0  0  0  0  0
   -0.4580    2.7280   -2.3170 O   0  0  0  0  0  0  0  0  0  0  0  0
   -1.5620    1.7050   -0.3430 C   0  0  1  0  0  0  0  0  0  0  0  0
   -0.4690    0.7420   -0.1980 C   0  0  0  0  0  0  0  0  0  0  0  0
    0.8560    1.0220   -0.1080 C   0  0  0  0  0  0  0  0  0  0  0  0
    1.5510   -0.1390    0.0160 N   0  0  0  0  0  0  0  0  0  0  0  0
    2.9520   -0.3050    0.1380 C   0  0  0  0  0  0  0  0  0  0  0  0
    3.8040    0.4790   -0.6170 C   0  0  0  0  0  0  0  0  0  0  0  0
    5.1680    0.3030   -0.4850 C   0  0  0  0  0  0  0  0  0  0  0  0
    5.6890   -0.6340    0.3810 C   0  0  0  0  0  0  0  0  0  0  0  0
    4.8370   -1.4070    1.1250 C   0  0  0  0  0  0  0  0  0  0  0  0
    3.4820   -1.2460    1.0070 C   0  0  0  0  0  0  0  0  0  0  0  0
    0.6720   -1.1210    0.0020 N   0  0  0  0  0  0  0  0  0  0  0  0
   -0.5880   -0.6290   -0.1280 C   0  0  0  0  0  0  0  0  0  0  0  0
   -1.7710   -1.4510   -0.1750 C   0  0  0  0  0  0  0  0  0  0  0  0
   -2.8730   -1.0960    0.5700 C   0  0  0  0  0  0  0  0  0  0  0  0
   -3.9850   -1.9080    0.4980 C   0  0  0  0  0  0  0  0  0  0  0  0
   -3.9970   -3.0380   -0.2930 C   0  0  0  0  0  0  0  0  0  0  0  0
   -5.1150   -3.8140   -0.3380 F   0  0  0  0  0  0  0  0  0  0  0  0
   -2.8970   -3.4050   -1.0460 C   0  0  0  0  0  0  0  0  0  0  0  0
   -1.7860   -2.5940   -0.9730 C   0  0  0  0  0  0  0  0  0  0  0  0
   -1.7670    2.5090    0.8480 N   0  0  0  0  0  0  0  0  0  0  0  0
  1  2  2  0
  2  3  1  0
  2 25  1  0
  3  4  1  0
  4  5  2  0
  4  6  1  0
  6  7  1  1
  6 25  1  0
  7  8  2  0
  7 17  1  0
  8  9  1  0
  9 10  1  0
  9 16  1  0
 10 11  2  0
 10 15  1  0
 11 12  1  0
 12 13  2  0
 13 14  1  0
 14 15  2  0
 16 17  2  0
 17 18  1  0
 18 19  2  0
 18 24  1  0
 19 20  1  0
 20 21  2  0
 21 22  1  0
 21 23  1  0
 23 24  2  0
M  END
