
     RDKit          3D

 24 27  0  0  0  0  0  0  0  0999 V2000
   -0.7090    2.8230   -3.2150 O   0  0  0  0  0  0  0  0  0  0  0  0
   -0.3870    2.0320   -2.2740 C   0  0  0  0  0  0  0  0  0  0  0  0
   -0.7160    0.7100   -2.2660 O   0  0  0  0  0  0  0  0  0  0  0  0
   -0.4070   -0.1700   -1.2140 C   0  0  2  0  0  0  0  0  0  0  0  0
   -1.6830   -0.8570   -0.8470 C   0  0  2  0  0  0  0  0  0  0  0  0
   -2.7820    0.0430   -0.3600 C   0  0  0  0  0  0  0  0  0  0  0  0
   -3.8670   -0.9820   -0.0250 C   0  0  0  0  0  0  0  0  0  0  0  0
   -3.1070   -2.2200    0.3950 C   0  0  0  0  0  0  0  0  0  0  0  0
   -1.6220   -1.8550    0.2650 C   0  0  0  0  0  0  0  0  0  0  0  0
    0.3800    0.3870   -0.1240 C   0  0  0  0  0  0  0  0  0  0  0  0
    0.8220   -0.4280    0.9590 N   0  0  0  0  0  0  0  0  0  0  0  0
    1.7250   -1.5270    0.7170 C   0  0  0  0  0  0  0  0  0  0  0  0
    2.1570   -2.3180    1.7570 C   0  0  0  0  0  0  0  0  0  0  0  0
    3.0230   -3.3710    1.5140 C   0  0  0  0  0  0  0  0  0  0  0  0
    3.4500   -3.6210    0.2260 C   0  0  0  0  0  0  0  0  0  0  0  0
    2.9920   -2.8110   -0.7450 N   0  0  0  0  0  0  0  0  0  0  0  0
    2.1630   -1.8030   -0.5210 N   0  0  0  0  0  0  0  0  0  0  0  0
    0.7340    1.6700   -0.0840 C   0  0  0  0  0  0  0  0  0  0  0  0
    1.5180    2.0250    1.0920 C   0  0  0  0  0  0  0  0  0  0  0  0
    1.9890    3.1970    1.3990 N   0  0  0  0  0  0  0  0  0  0  0  0
    1.9250    4.4650    0.7650 C   0  0  0  0  0  0  0  0  0  0  0  0
    1.3470    4.7860   -0.3850 C   0  0  0  0  0  0  0  0  0  0  0  0
    0.6250    3.8720   -1.2770 C   0  0  0  0  0  0  0  0  0  0  0  0
    0.3690    2.5810   -1.1610 C   0  0  0  0  0  0  0  0  0  0  0  0
  1  2  2  0
  2  3  1  0
  2 24  1  0
  4  3  1  6
  4  5  1  0
  4 10  1  0
  5  6  1  1
  5  9  1  0
  6  7  1  0
  7  8  1  0
  8  9  1  0
 10 11  1  0
 10 18  2  0
 11 12  1  0
 12 13  2  0
 12 17  1  0
 13 14  1  0
 14 15  2  0
 15 16  1  0
 16 17  2  0
 18 19  1  0
 18 24  1  0
 19 20  2  0
 20 21  1  0
 21 22  2  0
 22 23  1  0
 23 24  2  0
M  END
