
     RDKit          3D

 33 35  0  0  0  0  0  0  0  0999 V2000
   -3.3250   -0.6040    3.3990 N   0  0  0  0  0  0  0  0  0  0  0  0
   -3.0410   -1.4020    2.2530 C   0  0  0  0  0  0  0  0  0  0  0  0
   -2.4880   -2.5010    2.5080 O   0  0  0  0  0  0  0  0  0  0  0  0
   -3.3440   -1.0260    0.8850 C   0  0  2  0  0  0  0  0  0  0  0  0
   -2.8140    0.2260    0.3470 C   0  0  1  0  0  0  0  0  0  0  0  0
   -3.0960    1.5220    0.9830 C   0  0  0  0  0  0  0  0  0  0  0  0
   -3.0450    2.5920   -0.1300 C   0  0  2  0  0  0  0  0  0  0  0  0
   -4.2720    2.6010   -0.8000 O   0  0  0  0  0  0  0  0  0  0  0  0
   -1.9620    2.2430   -1.1190 C   0  0  0  0  0  0  0  0  0  0  0  0
   -0.8220    1.4390   -0.4940 C   0  0  1  0  0  0  0  0  0  0  0  0
   -1.3010    0.1520    0.1310 C   0  0  0  0  0  0  0  0  0  0  0  0
    0.0930    1.0830   -1.6440 C   0  0  0  0  0  0  0  0  0  0  0  0
    1.4870    0.6300   -1.0800 C   0  0  1  0  0  0  0  0  0  0  0  0
    1.1320   -0.3620   -0.1540 O   0  0  0  0  0  0  0  0  0  0  0  0
    2.1790    0.0740   -2.2640 C   0  0  0  0  0  0  0  0  0  0  0  0
    3.3490   -0.6810   -2.0050 N   0  0  0  0  0  0  0  0  0  0  0  0
    4.5500   -0.2100   -1.4600 C   0  0  0  0  0  0  0  0  0  0  0  0
    4.7410    0.9610   -1.1430 O   0  0  0  0  0  0  0  0  0  0  0  0
    5.6780   -1.1790   -1.2440 C   0  0  1  0  0  0  0  0  0  0  0  0
    6.8020   -0.5500   -0.7060 O   0  0  0  0  0  0  0  0  0  0  0  0
    7.5470   -1.1110    0.3050 C   0  0  0  0  0  0  0  0  0  0  0  0
    8.7900   -1.0950    0.2960 O   0  0  0  0  0  0  0  0  0  0  0  0
    6.8380   -1.7500    1.4330 C   0  0  0  0  0  0  0  0  0  0  0  0
    5.5270   -2.2420    1.0190 N   0  0  0  0  0  0  0  0  0  0  0  0
    5.1940   -2.2290   -0.3470 C   0  0  0  0  0  0  0  0  0  0  0  0
    4.4540   -3.1640   -0.7840 O   0  0  0  0  0  0  0  0  0  0  0  0
    2.0290    1.8720   -0.4940 C   0  0  0  0  0  0  0  0  0  0  0  0
    0.9490    2.8320    0.0100 C   0  0  0  0  0  0  0  0  0  0  0  0
   -0.1640    2.1690    0.4810 O   0  0  0  0  0  0  0  0  0  0  0  0
   -4.6910   -1.4600    0.3900 C   0  0  1  0  0  0  0  0  0  0  0  0
   -4.6970   -2.9140    0.4630 O   0  0  0  0  0  0  0  0  0  0  0  0
   -5.8620   -1.0480    1.2180 C   0  0  0  0  0  0  0  0  0  0  0  0
   -6.1380    0.2860    1.2690 O   0  0  0  0  0  0  0  0  0  0  0  0
  1  2  1  0
  2  3  2  0
  4  2  1  1
  4  5  1  0
  4 30  1  0
  5  6  1  1
  5 11  1  0
  6  7  1  0
  7  8  1  6
  7  9  1  0
 10  9  1  6
 10 11  1  0
 10 12  1  0
 10 29  1  0
 12 13  1  0
 13 14  1  1
 13 15  1  0
 13 27  1  0
 15 16  1  0
 16 17  1  0
 17 18  2  0
 19 17  1  1
 19 20  1  0
 19 25  1  0
 20 21  1  0
 21 22  2  0
 21 23  1  0
 23 24  1  0
 24 25  1  0
 25 26  2  0
 27 28  1  0
 28 29  1  0
 30 31  1  1
 30 32  1  0
 32 33  1  0
M  END
