
     RDKit          3D

 35 37  0  0  0  0  0  0  0  0999 V2000
    6.8990   -1.8190   -1.1930 C   0  0  0  0  0  0  0  0  0  0  0  0
    7.5240   -0.6330   -0.5790 C   0  0  0  0  0  0  0  0  0  0  0  0
    8.8370   -0.3720   -0.3880 N   0  0  0  0  0  0  0  0  0  0  0  0
    8.9510    0.7970    0.1920 O   0  0  0  0  0  0  0  0  0  0  0  0
    7.7710    1.3230    0.3940 C   0  0  0  0  0  0  0  0  0  0  0  0
    7.5160    2.6270    1.0220 C   0  0  0  0  0  0  0  0  0  0  0  0
    6.8020    0.4490   -0.0830 C   0  0  0  0  0  0  0  0  0  0  0  0
    5.3210    0.5990   -0.0770 C   0  0  0  0  0  0  0  0  0  0  0  0
    4.7170   -0.2320    1.0010 C   0  0  0  0  0  0  0  0  0  0  0  0
    3.2360   -0.1700    1.1090 C   0  0  2  0  0  0  0  0  0  0  0  0
    2.5070   -0.6190   -0.1100 C   0  0  0  0  0  0  0  0  0  0  0  0
    1.4000    0.2680   -0.5770 C   0  0  0  0  0  0  0  0  0  0  0  0
    0.6250    0.9000    0.4210 N   0  0  0  0  0  0  0  0  0  0  0  0
   -0.9900    0.1870    0.5940 S   0  0  1  0  0  0  0  0  0  0  0  0
   -0.6470   -1.2650    0.8870 O   0  0  0  0  0  0  0  0  0  0  0  0
   -1.5880    0.8910    1.7640 O   0  0  0  0  0  0  0  0  0  0  0  0
   -1.7820    0.4110   -0.9180 C   0  0  0  0  0  0  0  0  0  0  0  0
   -3.2070    0.0070   -1.1110 C   0  0  2  0  0  0  0  0  0  0  0  0
   -3.5130    0.3290   -2.5970 C   0  0  0  0  0  0  0  0  0  0  0  0
   -4.0290    1.0430   -0.3560 C   0  0  0  0  0  0  0  0  0  0  0  0
   -5.4940    0.9170   -0.4180 C   0  0  2  0  0  0  0  0  0  0  0  0
   -6.0480    2.1100    0.3970 C   0  0  0  0  0  0  0  0  0  0  0  0
   -6.1290   -0.2970    0.0830 C   0  0  0  0  0  0  0  0  0  0  0  0
   -6.6250   -1.2730   -0.6870 N   0  0  0  0  0  0  0  0  0  0  0  0
   -7.2250   -2.3310   -0.1270 C   0  0  0  0  0  0  0  0  0  0  0  0
   -7.3520   -2.4530    1.2260 C   0  0  0  0  0  0  0  0  0  0  0  0
   -7.9610   -3.5230    1.8200 F   0  0  0  0  0  0  0  0  0  0  0  0
   -6.8470   -1.4590    2.0190 C   0  0  0  0  0  0  0  0  0  0  0  0
   -6.2580   -0.4230    1.4150 N   0  0  0  0  0  0  0  0  0  0  0  0
   -3.5590   -1.3360   -0.8680 N   0  0  0  0  0  0  0  0  0  0  0  0
   -3.8990   -2.1520   -1.9570 O   0  0  0  0  0  0  0  0  0  0  0  0
   -3.6240   -2.0350    0.3620 C   0  0  0  0  0  0  0  0  0  0  0  0
   -3.4180   -1.5530    1.5010 O   0  0  0  0  0  0  0  0  0  0  0  0
    1.1990    0.9500    1.7410 C   0  0  0  0  0  0  0  0  0  0  0  0
    2.7020    1.1770    1.5300 C   0  0  0  0  0  0  0  0  0  0  0  0
  1  2  1  0
  2  3  2  0
  2  7  1  0
  3  4  1  0
  4  5  1  0
  5  6  1  0
  5  7  2  0
  7  8  1  0
  8  9  1  0
 10  9  1  6
 10 11  1  0
 10 35  1  0
 11 12  1  0
 12 13  1  0
 13 14  1  0
 13 34  1  0
 14 15  2  0
 14 16  2  0
 14 17  1  6
 17 18  1  0
 18 19  1  6
 18 20  1  0
 18 30  1  0
 20 21  1  0
 21 22  1  1
 21 23  1  0
 23 24  2  0
 23 29  1  0
 24 25  1  0
 25 26  2  0
 26 27  1  0
 26 28  1  0
 28 29  2  0
 30 31  1  0
 30 32  1  0
 32 33  2  0
 34 35  1  0
M  END
