
     RDKit          3D

 18 19  0  0  0  0  0  0  0  0999 V2000
    3.0470    1.3350    0.7500 N   0  0  0  0  0  0  0  0  0  0  0  0
    3.4690    0.1890   -0.0500 C   0  0  0  0  0  0  0  0  0  0  0  0
    2.2410   -0.4700   -0.6350 C   0  0  0  0  0  0  0  0  0  0  0  0
    1.4940    0.4360   -1.4790 N   0  0  0  0  0  0  0  0  0  0  0  0
    0.0960   -0.3140   -2.1450 S   0  0  1  0  0  0  0  0  0  0  0  0
   -0.5520    0.5250   -3.1950 O   0  0  0  0  0  0  0  0  0  0  0  0
    0.5810   -1.5750   -2.8500 O   0  0  0  0  0  0  0  0  0  0  0  0
   -0.9840   -0.8140   -0.8900 C   0  0  0  0  0  0  0  0  0  0  0  0
   -1.3610   -2.1280   -0.7030 C   0  0  0  0  0  0  0  0  0  0  0  0
   -2.2160   -2.5110    0.2940 C   0  0  0  0  0  0  0  0  0  0  0  0
   -2.7230   -1.5550    1.1450 C   0  0  0  0  0  0  0  0  0  0  0  0
   -3.8250   -1.9340    2.4550 Cl  0  0  0  0  0  0  0  0  0  0  0  0
   -2.3660   -0.2320    0.9840 C   0  0  0  0  0  0  0  0  0  0  0  0
   -2.8580    0.7570    1.8240 C   0  0  0  0  0  0  0  0  0  0  0  0
   -2.5040    2.0790    1.6680 C   0  0  0  0  0  0  0  0  0  0  0  0
   -1.6560    2.3990    0.6670 N   0  0  0  0  0  0  0  0  0  0  0  0
   -1.1510    1.4810   -0.1730 C   0  0  0  0  0  0  0  0  0  0  0  0
   -1.4920    0.1520   -0.0360 C   0  0  0  0  0  0  0  0  0  0  0  0
  1  2  1  0
  2  3  1  0
  3  4  1  0
  5  4  1  1
  5  6  2  0
  5  7  2  0
  5  8  1  0
  8  9  2  0
  8 18  1  0
  9 10  1  0
 10 11  2  0
 11 12  1  0
 11 13  1  0
 13 14  2  0
 13 18  1  0
 14 15  1  0
 15 16  2  0
 16 17  1  0
 17 18  2  0
M  CHG  1   1   1
M  END
