
     RDKit          3D

 26 28  0  0  0  0  0  0  0  0999 V2000
   -1.2080    0.2310   -0.1170 C   0  0  0  0  0  0  0  0  0  0  0  0
   -2.1440   -0.9060    0.1510 C   0  0  0  0  0  0  0  0  0  0  0  0
   -3.4400   -0.7610    0.4620 C   0  0  0  0  0  0  0  0  0  0  0  0
   -4.1290    0.5250    0.5870 C   0  0  0  0  0  0  0  0  0  0  0  0
   -5.2550    0.6720   -0.4110 C   0  0  0  0  0  0  0  0  0  0  0  0
   -5.8640    2.0540   -0.1500 C   0  0  0  0  0  0  0  0  0  0  0  0
   -4.8290    2.9680   -0.3570 O   0  0  0  0  0  0  0  0  0  0  0  0
   -4.0190   -2.0750    0.6310 C   0  0  0  0  0  0  0  0  0  0  0  0
   -5.2240   -2.3630    0.9280 O   0  0  0  0  0  0  0  0  0  0  0  0
   -3.0300   -3.0300    0.4140 N   0  0  0  0  0  0  0  0  0  0  0  0
   -1.8060   -2.3040    0.1030 C   0  0  0  0  0  0  0  0  0  0  0  0
   -0.6760   -2.8960   -0.1120 C   0  0  0  0  0  0  0  0  0  0  0  0
    0.5900   -2.2690   -0.3620 C   0  0  0  0  0  0  0  0  0  0  0  0
    1.4400   -2.6010   -1.4240 C   0  0  0  0  0  0  0  0  0  0  0  0
    2.5500   -1.8330   -1.2740 C   0  0  0  0  0  0  0  0  0  0  0  0
    2.4310   -1.0560   -0.1920 N   0  0  0  0  0  0  0  0  0  0  0  0
    3.3810   -0.0870    0.3340 C   0  0  0  0  0  0  0  0  0  0  0  0
    4.5250    0.1060   -0.2750 C   0  0  0  0  0  0  0  0  0  0  0  0
    5.6270    1.0170    0.0650 C   0  0  1  0  0  0  0  0  0  0  0  0
    5.8400    1.8890   -1.0890 N   0  0  0  0  0  0  0  0  0  0  0  0
    5.2730    1.9630    1.4950 S   0  0  2  0  0  0  0  0  0  0  0  0
    5.2890    3.4340    1.1180 O   0  0  0  0  0  0  0  0  0  0  0  0
    6.3570    1.7590    2.5290 O   0  0  0  0  0  0  0  0  0  0  0  0
    3.7110    1.5310    2.1170 C   0  0  0  0  0  0  0  0  0  0  0  0
    2.9660    0.6290    1.5400 C   0  0  0  0  0  0  0  0  0  0  0  0
    1.2690   -1.3380    0.3190 N   0  0  0  0  0  0  0  0  0  0  0  0
  1  2  1  0
  2  3  2  0
  2 11  1  0
  3  4  1  0
  3  8  1  0
  4  5  1  0
  5  6  1  0
  6  7  1  0
  8  9  2  0
  8 10  1  0
 10 11  1  0
 11 12  2  3
 12 13  1  0
 13 14  1  0
 13 26  2  0
 14 15  2  0
 15 16  1  0
 16 17  1  0
 16 26  1  0
 17 18  2  0
 17 25  1  0
 18 19  1  0
 19 20  1  6
 19 21  1  0
 21 22  2  0
 21 23  2  0
 21 24  1  1
 24 25  2  0
M  END
