
     RDKit          3D

 18 19  0  0  0  0  0  0  0  0999 V2000
    5.5820   -0.0830   -0.4360 C   0  0  0  0  0  0  0  0  0  0  0  0
    4.2320   -0.2270   -0.0160 O   0  0  0  0  0  0  0  0  0  0  0  0
    3.5060    0.9230    0.1950 C   0  0  0  0  0  0  0  0  0  0  0  0
    4.0120    2.0510    0.0280 O   0  0  0  0  0  0  0  0  0  0  0  0
    2.0840    0.8040    0.6300 C   0  0  0  0  0  0  0  0  0  0  0  0
    1.1700    0.0420   -0.7620 S   0  0  0  0  0  0  0  0  0  0  0  0
   -0.5540   -0.1900   -0.2810 C   0  0  0  0  0  0  0  0  0  0  0  0
   -1.4650    0.8210   -0.4990 C   0  0  0  0  0  0  0  0  0  0  0  0
   -2.7850    0.6480   -0.1420 C   0  0  0  0  0  0  0  0  0  0  0  0
   -3.7220    1.6350   -0.3500 C   0  0  0  0  0  0  0  0  0  0  0  0
   -3.4080    2.7460   -0.8730 O   0  0  0  0  0  0  0  0  0  0  0  0
   -4.9510    1.3830    0.0150 O   0  0  0  0  0  0  0  0  0  0  0  0
   -5.3450    0.2530    0.5650 C   0  0  0  0  0  0  0  0  0  0  0  0
   -4.4380   -0.7140    0.7700 N   0  0  0  0  0  0  0  0  0  0  0  0
   -3.1420   -0.5540    0.4300 C   0  0  0  0  0  0  0  0  0  0  0  0
   -2.2090   -1.5640    0.6420 C   0  0  0  0  0  0  0  0  0  0  0  0
   -0.8920   -1.4060    0.2920 C   0  0  0  0  0  0  0  0  0  0  0  0
    0.0980   -2.4190    0.4980 N   0  0  0  0  0  0  0  0  0  0  0  0
  1  2  1  0
  2  3  1  0
  3  4  2  0
  3  5  1  0
  5  6  1  0
  6  7  1  0
  7  8  2  0
  7 17  1  0
  8  9  1  0
  9 10  1  0
  9 15  2  0
 10 11  2  0
 10 12  1  0
 12 13  1  0
 13 14  2  0
 14 15  1  0
 15 16  1  0
 16 17  2  0
 17 18  1  0
M  END
