
     RDKit          3D

 26 28  0  0  0  0  0  0  0  0999 V2000
    5.9910   -1.1260    3.2730 C   0  0  0  0  0  0  0  0  0  0  0  0
    5.0850   -1.5710    2.3090 O   0  0  0  0  0  0  0  0  0  0  0  0
    4.1340   -0.8170    1.6720 C   0  0  0  0  0  0  0  0  0  0  0  0
    4.0030    0.5080    1.9610 C   0  0  0  0  0  0  0  0  0  0  0  0
    3.0440    1.2290    1.3070 C   0  0  0  0  0  0  0  0  0  0  0  0
    2.2070    0.6250    0.3570 C   0  0  0  0  0  0  0  0  0  0  0  0
    1.2230    1.3880   -0.3040 N   0  0  0  0  0  0  0  0  0  0  0  0
    0.2880    1.0490   -1.2990 C   0  0  1  0  0  0  0  0  0  0  0  0
    0.8190    0.5300   -2.6070 C   0  0  0  0  0  0  0  0  0  0  0  0
   -0.2350    0.8610   -3.6570 C   0  0  0  0  0  0  0  0  0  0  0  0
   -1.5910    0.3560   -3.2890 C   0  0  0  0  0  0  0  0  0  0  0  0
   -1.9680    0.3800   -1.8620 C   0  0  2  0  0  0  0  0  0  0  0  0
   -2.6420    1.5770   -1.4360 N   0  0  0  0  0  0  0  0  0  0  0  0
   -4.2190    1.3120   -0.8400 S   0  0  1  0  0  0  0  0  0  0  0  0
   -4.8060    2.6420   -0.4670 O   0  0  0  0  0  0  0  0  0  0  0  0
   -5.0270    0.6270   -1.8990 O   0  0  0  0  0  0  0  0  0  0  0  0
   -4.2140    0.2680    0.5900 C   0  0  0  0  0  0  0  0  0  0  0  0
   -4.3040   -1.0440    0.6080 C   0  0  0  0  0  0  0  0  0  0  0  0
   -4.2590   -1.4870    2.0160 C   0  0  0  0  0  0  0  0  0  0  0  0
   -4.1350   -0.2860    2.7690 N   0  0  0  0  0  0  0  0  0  0  0  0
   -4.1100    0.7110    1.9590 C   0  0  0  0  0  0  0  0  0  0  0  0
   -3.9950    2.0300    2.4080 O   0  0  0  0  0  0  0  0  0  0  0  0
   -0.8300    0.1150   -0.8890 C   0  0  0  0  0  0  0  0  0  0  0  0
    2.3530   -0.7080    0.0790 C   0  0  0  0  0  0  0  0  0  0  0  0
    3.3330   -1.4300    0.7510 C   0  0  0  0  0  0  0  0  0  0  0  0
    3.4450   -2.8070    0.4280 N   0  0  0  0  0  0  0  0  0  0  0  0
  1  2  1  0
  2  3  1  0
  3  4  2  0
  3 25  1  0
  4  5  1  0
  5  6  2  0
  6  7  1  0
  6 24  1  0
  8  7  1  1
  8  9  1  0
  8 23  1  0
  9 10  1  0
 10 11  1  0
 11 12  1  0
 12 13  1  1
 12 23  1  0
 14 13  1  6
 14 15  2  0
 14 16  2  0
 14 17  1  0
 17 18  2  0
 17 21  1  0
 18 19  1  0
 19 20  1  0
 20 21  2  0
 21 22  1  0
 24 25  2  0
 25 26  1  0
M  END
