
     RDKit          3D

 18 19  0  0  0  0  0  0  0  0999 V2000
    2.2350   -2.3200    0.2200 O   0  0  0  0  0  0  0  0  0  0  0  0
    2.3640   -1.0560    0.3810 C   0  0  0  0  0  0  0  0  0  0  0  0
    1.2390   -0.3390    0.8490 N   0  0  0  0  0  0  0  0  0  0  0  0
    0.0090   -0.9970    1.1320 N   0  0  0  0  0  0  0  0  0  0  0  0
   -1.2160   -0.5310    0.6220 C   0  0  0  0  0  0  0  0  0  0  0  0
   -2.3480   -1.3100    0.8910 C   0  0  0  0  0  0  0  0  0  0  0  0
   -3.5660   -0.8870    0.4150 C   0  0  0  0  0  0  0  0  0  0  0  0
   -3.6520    0.2640   -0.2980 C   0  0  0  0  0  0  0  0  0  0  0  0
   -5.2370    0.7850   -0.9010 S   0  0  1  0  0  0  0  0  0  0  0  0
   -5.5640    2.0660   -0.2130 O   0  0  0  0  0  0  0  0  0  0  0  0
   -5.1260    1.0900   -2.3720 O   0  0  0  0  0  0  0  0  0  0  0  0
   -2.5590    1.0540   -0.5810 C   0  0  0  0  0  0  0  0  0  0  0  0
   -1.3330    0.6350   -0.1070 C   0  0  0  0  0  0  0  0  0  0  0  0
    3.6490   -0.4230    0.0750 C   0  0  0  0  0  0  0  0  0  0  0  0
    3.9860    0.9100    0.1190 C   0  0  0  0  0  0  0  0  0  0  0  0
    5.3010    1.0470   -0.2470 C   0  0  0  0  0  0  0  0  0  0  0  0
    5.7340   -0.2320   -0.5070 C   0  0  0  0  0  0  0  0  0  0  0  0
    4.7350   -1.0630   -0.3060 O   0  0  0  0  0  0  0  0  0  0  0  0
  1  2  2  0
  2  3  1  0
  2 14  1  0
  3  4  1  0
  4  5  1  0
  5  6  2  0
  5 13  1  0
  6  7  1  0
  7  8  2  0
  9  8  1  1
  8 12  1  0
  9 10  2  0
  9 11  2  0
 12 13  2  0
 14 15  2  0
 14 18  1  0
 15 16  1  0
 16 17  2  0
 17 18  1  0
M  END
