
     RDKit          3D

 30 32  0  0  0  0  0  0  0  0999 V2000
   -3.4850   -2.4430    0.0680 N   0  0  0  0  0  0  0  0  0  0  0  0
   -2.3120   -1.6760    0.5280 C   0  0  1  0  0  0  0  0  0  0  0  0
   -1.1860   -2.6680    0.5630 C   0  0  0  0  0  0  0  0  0  0  0  0
    0.1190   -2.4130   -0.6320 S   0  0  0  0  0  0  0  0  0  0  0  0
    1.0130   -0.8480   -0.2630 C   0  0  0  0  0  0  0  0  0  0  0  0
    2.4220   -0.9250   -0.3430 C   0  0  0  0  0  0  0  0  0  0  0  0
    3.2320   -0.0360   -0.1390 O   0  0  0  0  0  0  0  0  0  0  0  0
    2.9980   -2.1660   -0.6980 O   0  0  0  0  0  0  0  0  0  0  0  0
    4.4040   -2.2990   -0.7920 C   0  0  0  0  0  0  0  0  0  0  0  0
    4.8000   -3.6700   -1.1750 C   0  0  0  0  0  0  0  0  0  0  0  0
    3.9980   -4.6140   -1.3940 O   0  0  0  0  0  0  0  0  0  0  0  0
    6.1540   -3.9410   -1.3040 O   0  0  0  0  0  0  0  0  0  0  0  0
    0.4010    0.2890    0.0640 C   0  0  0  0  0  0  0  0  0  0  0  0
    1.3440    1.3630    0.3010 C   0  0  0  0  0  0  0  0  0  0  0  0
    0.6920    2.6910    0.6350 C   0  0  1  0  0  0  0  0  0  0  0  0
    1.6380    3.5800    1.3280 C   0  0  0  0  0  0  0  0  0  0  0  0
    2.7960    3.1880    1.5560 O   0  0  0  0  0  0  0  0  0  0  0  0
    1.2560    4.8390    1.7240 O   0  0  0  0  0  0  0  0  0  0  0  0
    0.3180    3.3410   -0.6450 C   0  0  0  0  0  0  0  0  0  0  0  0
    0.7530    4.4550   -1.0190 O   0  0  0  0  0  0  0  0  0  0  0  0
   -0.5650    2.6750   -1.4770 O   0  0  0  0  0  0  0  0  0  0  0  0
   -0.9450    3.1870   -2.6310 O   0  0  0  0  0  0  0  0  0  0  0  0
   -0.5660    2.5260    1.4360 C   0  0  0  0  0  0  0  0  0  0  0  0
   -1.4890    1.5340    0.8370 C   0  0  0  0  0  0  0  0  0  0  0  0
   -1.0700    0.4650    0.1810 C   0  0  0  0  0  0  0  0  0  0  0  0
   -2.0750   -0.5020   -0.4020 C   0  0  1  0  0  0  0  0  0  0  0  0
   -1.6190   -1.0280   -1.6080 O   0  0  0  0  0  0  0  0  0  0  0  0
   -3.3570    0.2410   -0.6940 C   0  0  0  0  0  0  0  0  0  0  0  0
   -3.8630    0.9790    0.5220 C   0  0  0  0  0  0  0  0  0  0  0  0
   -2.8460    1.7910    1.0040 O   0  0  0  0  0  0  0  0  0  0  0  0
  2  1  1  6
  2  3  1  0
  2 26  1  0
  3  4  1  0
  4  5  1  0
  5  6  1  0
  5 13  2  0
  6  7  2  0
  6  8  1  0
  8  9  1  0
  9 10  1  0
 10 11  2  0
 10 12  1  0
 13 14  1  0
 13 25  1  0
 14 15  1  0
 15 16  1  1
 15 19  1  0
 15 23  1  0
 16 17  2  0
 16 18  1  0
 19 20  2  0
 19 21  1  0
 21 22  1  0
 23 24  1  0
 24 25  2  0
 24 30  1  0
 25 26  1  0
 26 27  1  6
 26 28  1  0
 28 29  1  0
 29 30  1  0
M  CHG  2   1   1  22  -1
M  END
