
     RDKit          3D

 30 31  0  0  0  0  0  0  0  0999 V2000
   -4.3290    3.1450   -0.5940 C   0  0  0  0  0  0  0  0  0  0  0  0
   -3.8170    1.9890   -0.0110 O   0  0  0  0  0  0  0  0  0  0  0  0
   -2.6400    1.3480   -0.3440 C   0  0  0  0  0  0  0  0  0  0  0  0
   -1.9610    1.8720   -1.2800 O   0  0  0  0  0  0  0  0  0  0  0  0
   -2.1890    0.1080    0.3590 C   0  0  1  0  0  0  0  0  0  0  0  0
   -0.6320   -0.4080   -0.3970 S   0  0  0  0  0  0  0  0  0  0  0  0
    0.6170    0.8590   -0.0310 C   0  0  0  0  0  0  0  0  0  0  0  0
    1.9520    0.4400   -0.5200 C   0  0  0  0  0  0  0  0  0  0  0  0
    2.1230    0.3210   -1.7560 O   0  0  0  0  0  0  0  0  0  0  0  0
    2.9730    0.1890    0.3390 O   0  0  0  0  0  0  0  0  0  0  0  0
    4.2400   -0.2260   -0.0230 C   0  0  0  0  0  0  0  0  0  0  0  0
    4.5960   -1.4980   -0.0590 C   0  0  0  0  0  0  0  0  0  0  0  0
    5.9240   -1.9990   -0.4350 C   0  0  0  0  0  0  0  0  0  0  0  0
    6.7720   -0.9310   -0.7630 O   0  0  0  0  0  0  0  0  0  0  0  0
    6.4480    0.3990   -0.7410 C   0  0  0  0  0  0  0  0  0  0  0  0
    7.4050    1.3550   -1.0940 O   0  0  0  0  0  0  0  0  0  0  0  0
    8.4990    1.5310   -0.2720 N   0  0  0  0  0  0  0  0  0  0  0  0
    5.2290    0.7680   -0.3860 C   0  0  0  0  0  0  0  0  0  0  0  0
    4.9400    2.1460   -0.3770 O   0  0  0  0  0  0  0  0  0  0  0  0
   -1.9860    0.5140    1.8100 C   0  0  2  0  0  0  0  0  0  0  0  0
   -1.3060   -0.4200    2.5480 O   0  0  0  0  0  0  0  0  0  0  0  0
   -3.3250    0.8590    2.3860 C   0  0  0  0  0  0  0  0  0  0  0  0
   -4.3910    0.1840    1.8120 O   0  0  0  0  0  0  0  0  0  0  0  0
   -4.0060   -1.1010    1.4540 C   0  0  0  0  0  0  0  0  0  0  0  0
   -3.1570   -1.0360    0.2130 C   0  0  2  0  0  0  0  0  0  0  0  0
   -2.3530   -2.3180    0.1460 C   0  0  0  0  0  0  0  0  0  0  0  0
   -3.9320   -0.8830   -1.0510 C   0  0  0  0  0  0  0  0  0  0  0  0
   -4.9340   -1.9970   -1.2650 C   0  0  1  0  0  0  0  0  0  0  0  0
   -5.6160   -1.7780   -2.4780 O   0  0  0  0  0  0  0  0  0  0  0  0
   -4.3390   -3.2520   -1.3590 O   0  0  0  0  0  0  0  0  0  0  0  0
  1  2  1  0
  2  3  1  0
  3  4  2  0
  3  5  1  0
  5  6  1  6
  5 20  1  0
  5 25  1  0
  6  7  1  0
  7  8  1  0
  8  9  2  0
  8 10  1  0
 10 11  1  0
 11 12  2  0
 11 18  1  0
 12 13  1  0
 13 14  1  0
 14 15  1  0
 15 16  1  0
 15 18  2  0
 16 17  1  0
 18 19  1  0
 20 21  1  1
 20 22  1  0
 22 23  1  0
 23 24  1  0
 24 25  1  0
 25 26  1  6
 25 27  1  0
 27 28  1  0
 28 29  1  6
 28 30  1  0
M  CHG  2  17   1  29  -1
M  END
