
     RDKit          3D

 39 41  0  0  0  0  0  0  0  0999 V2000
    4.6170   -4.8020    0.3310 C   0  0  0  0  0  0  0  0  0  0  0  0
    4.6400   -3.2750    0.4110 C   0  0  0  0  0  0  0  0  0  0  0  0
    3.5660   -2.8470    1.1510 O   0  0  0  0  0  0  0  0  0  0  0  0
    2.3400   -3.1840    0.6380 C   0  0  0  0  0  0  0  0  0  0  0  0
    1.9570   -2.6040   -0.6670 C   0  0  0  0  0  0  0  0  0  0  0  0
    1.8110   -1.0970   -0.7140 C   0  0  2  0  0  0  0  0  0  0  0  0
    3.0950   -0.4500   -0.3640 C   0  0  0  0  0  0  0  0  0  0  0  0
    3.0550    0.9730   -0.4690 O   0  0  0  0  0  0  0  0  0  0  0  0
    4.1780    1.7060   -0.1740 C   0  0  0  0  0  0  0  0  0  0  0  0
    5.3260    1.0670    0.2250 C   0  0  0  0  0  0  0  0  0  0  0  0
    6.4850    1.7930    0.5310 C   0  0  0  0  0  0  0  0  0  0  0  0
    6.4810    3.1600    0.4330 C   0  0  0  0  0  0  0  0  0  0  0  0
    5.3500    3.8040    0.0380 C   0  0  0  0  0  0  0  0  0  0  0  0
    4.1940    3.0740   -0.2670 C   0  0  0  0  0  0  0  0  0  0  0  0
    3.0500    3.7270   -0.6670 O   0  0  0  0  0  0  0  0  0  0  0  0
    0.7970   -0.7720    0.3600 C   0  0  0  0  0  0  0  0  0  0  0  0
    0.2640    0.5660    0.0830 N   0  0  0  0  0  0  0  0  0  0  0  0
    0.3900    1.5650    1.0400 C   0  0  0  0  0  0  0  0  0  0  0  0
    0.7420    1.1790    2.2150 O   0  0  0  0  0  0  0  0  0  0  0  0
    0.1330    3.3090    0.8790 S   0  0  0  0  0  0  0  0  0  0  0  0
   -1.5010    3.7450    1.6450 C   0  0  0  0  0  0  0  0  0  0  0  0
   -2.3640    2.6240    1.0430 C   0  0  1  0  0  0  0  0  0  0  0  0
   -1.8130    1.4660    1.5530 O   0  0  0  0  0  0  0  0  0  0  0  0
   -3.8080    2.7070    1.2900 C   0  0  0  0  0  0  0  0  0  0  0  0
   -4.2540    1.3460    1.6210 N   0  0  0  0  0  0  0  0  0  0  0  0
   -4.4260    0.3050    0.6770 C   0  0  0  0  0  0  0  0  0  0  0  0
   -5.1590   -0.7260    1.0050 C   0  0  0  0  0  0  0  0  0  0  0  0
   -5.5120   -1.9270    0.2650 C   0  0  2  0  0  0  0  0  0  0  0  0
   -4.3890   -2.5000   -0.9450 Cl  0  0  0  0  0  0  0  0  0  0  0  0
   -6.9420   -1.9620   -0.2420 C   0  0  0  0  0  0  0  0  0  0  0  0
   -7.2970   -0.8520   -1.1700 C   0  0  0  0  0  0  0  0  0  0  0  0
   -9.0000   -0.9990   -1.6930 Cl  0  0  0  0  0  0  0  0  0  0  0  0
   -3.8040    0.3380   -0.6830 C   0  0  0  0  0  0  0  0  0  0  0  0
   -2.6300   -0.3670   -0.7500 O   0  0  0  0  0  0  0  0  0  0  0  0
   -1.4720   -0.3200   -1.4060 C   0  0  0  0  0  0  0  0  0  0  0  0
   -1.2300   -1.1970   -2.3240 O   0  0  0  0  0  0  0  0  0  0  0  0
   -0.3520    0.6470   -1.2260 C   0  0  2  0  0  0  0  0  0  0  0  0
    0.7810    0.3890   -2.2030 C   0  0  0  0  0  0  0  0  0  0  0  0
    1.3820   -0.8260   -2.0040 O   0  0  0  0  0  0  0  0  0  0  0  0
  1  2  1  0
  2  3  1  0
  3  4  1  0
  4  5  1  0
  6  5  1  6
  6  7  1  0
  6 16  1  0
  6 39  1  0
  7  8  1  0
  8  9  1  0
  9 10  2  0
  9 14  1  0
 10 11  1  0
 11 12  2  0
 12 13  1  0
 13 14  2  0
 14 15  1  0
 16 17  1  0
 17 18  1  0
 17 37  1  0
 18 19  2  0
 18 20  1  0
 20 21  1  0
 21 22  1  0
 22 23  1  1
 22 24  1  0
 24 25  1  0
 25 26  1  0
 26 27  2  3
 26 33  1  0
 27 28  1  0
 28 29  1  6
 28 30  1  0
 30 31  1  0
 31 32  1  0
 33 34  1  0
 34 35  1  0
 35 36  2  0
 35 37  1  0
 37 38  1  6
 38 39  1  0
M  END
