
     RDKit          3D

 39 41  0  0  0  0  0  0  0  0999 V2000
   -4.4100    5.0410    3.2000 C   0  0  0  0  0  0  0  0  0  0  0  0
   -4.5080    3.7010    2.9660 C   0  0  0  0  0  0  0  0  0  0  0  0
   -3.7720    2.7790    3.8380 C   0  0  0  0  0  0  0  0  0  0  0  0
   -5.3730    3.3120    1.8520 C   0  0  0  0  0  0  0  0  0  0  0  0
   -4.7530    2.6240    0.8480 O   0  0  0  0  0  0  0  0  0  0  0  0
   -4.1540    1.3860    0.8010 C   0  0  0  0  0  0  0  0  0  0  0  0
   -4.1670    0.7240    1.8540 O   0  0  0  0  0  0  0  0  0  0  0  0
   -3.5660    0.9910   -0.4920 C   0  0  1  0  0  0  0  0  0  0  0  0
   -4.5380    1.2960   -1.5940 C   0  0  0  0  0  0  0  0  0  0  0  0
   -5.8630    0.6600   -1.5480 C   0  0  0  0  0  0  0  0  0  0  0  0
   -5.8640   -0.8410   -1.5870 C   0  0  0  0  0  0  0  0  0  0  0  0
   -7.2170   -1.2870   -1.5660 O   0  0  0  0  0  0  0  0  0  0  0  0
   -2.4420    2.1020   -0.6830 C   0  0  0  0  0  0  0  0  0  0  0  0
   -1.6010    1.2980   -2.0880 S   0  0  0  0  0  0  0  0  0  0  0  0
   -2.0320   -0.4220   -1.5890 C   0  0  1  0  0  0  0  0  0  0  0  0
   -0.7730   -1.1550   -1.1530 C   0  0  0  0  0  0  0  0  0  0  0  0
   -0.4450   -1.1000    0.2350 N   0  0  0  0  0  0  0  0  0  0  0  0
    0.8320   -1.2520    0.7810 C   0  0  0  0  0  0  0  0  0  0  0  0
    0.8320   -0.9820    2.0990 O   0  0  0  0  0  0  0  0  0  0  0  0
    2.1180   -1.6110    0.3220 C   0  0  0  0  0  0  0  0  0  0  0  0
    2.6570   -2.0230   -0.7890 C   0  0  0  0  0  0  0  0  0  0  0  0
    1.9570   -2.2450   -1.9590 O   0  0  0  0  0  0  0  0  0  0  0  0
    1.4360   -3.5580   -2.1610 C   0  0  0  0  0  0  0  0  0  0  0  0
    4.1170   -2.2730   -0.8140 C   0  0  0  0  0  0  0  0  0  0  0  0
    4.9020   -2.2050    0.2140 O   0  0  0  0  0  0  0  0  0  0  0  0
    6.1410   -2.4780   -0.1430 C   0  0  0  0  0  0  0  0  0  0  0  0
    7.3050   -2.4870    0.8040 C   0  0  0  0  0  0  0  0  0  0  0  0
    7.5490   -1.1300    1.1170 O   0  0  0  0  0  0  0  0  0  0  0  0
    7.8620   -0.2230    0.1230 C   0  0  0  0  0  0  0  0  0  0  0  0
    7.9260   -0.6300   -1.0640 O   0  0  0  0  0  0  0  0  0  0  0  0
    8.1180    1.2160    0.4540 C   0  0  1  0  0  0  0  0  0  0  0  0
    9.2890    1.3110    1.4000 C   0  0  0  0  0  0  0  0  0  0  0  0
    8.3440    2.1460   -1.0200 Cl  0  0  0  0  0  0  0  0  0  0  0  0
    6.1660   -2.7390   -1.4790 C   0  0  0  0  0  0  0  0  0  0  0  0
    4.8410   -2.6030   -1.9110 C   0  0  0  0  0  0  0  0  0  0  0  0
    4.3430   -2.8130   -3.5720 Cl  0  0  0  0  0  0  0  0  0  0  0  0
   -1.5380   -0.9070    1.2500 C   0  0  0  0  0  0  0  0  0  0  0  0
   -2.8420   -1.1440    0.5140 C   0  0  0  0  0  0  0  0  0  0  0  0
   -2.8700   -0.1720   -0.4930 N   0  0  0  0  0  0  0  0  0  0  0  0
  1  2  2  0
  2  3  1  0
  2  4  1  0
  4  5  1  0
  5  6  1  0
  6  7  2  0
  6  8  1  0
  8  9  1  6
  8 13  1  0
  8 39  1  0
  9 10  1  0
 10 11  1  0
 11 12  1  0
 13 14  1  0
 14 15  1  0
 15 16  1  1
 15 39  1  0
 16 17  1  0
 17 18  1  0
 17 37  1  0
 18 19  2  0
 18 20  1  0
 20 21  2  3
 21 22  1  0
 21 24  1  0
 22 23  1  0
 24 25  1  0
 24 35  2  0
 25 26  1  0
 26 27  1  0
 26 34  2  0
 27 28  1  0
 28 29  1  0
 29 30  2  0
 29 31  1  0
 31 32  1  1
 31 33  1  0
 34 35  1  0
 35 36  1  0
 37 38  1  0
 38 39  1  0
M  END
