
     RDKit          3D

 39 42  0  0  0  0  0  0  0  0999 V2000
   -5.3490    1.4400    2.1750 C   0  0  0  0  0  0  0  0  0  0  0  0
   -4.2010    1.4520    1.2610 C   0  0  0  0  0  0  0  0  0  0  0  0
   -3.1530    2.3280    1.5870 C   0  0  0  0  0  0  0  0  0  0  0  0
   -2.0480    2.3910    0.7750 C   0  0  0  0  0  0  0  0  0  0  0  0
   -0.9740    3.2280    1.0280 O   0  0  0  0  0  0  0  0  0  0  0  0
   -1.0200    4.0650    2.1930 C   0  0  0  0  0  0  0  0  0  0  0  0
    0.4550    5.0310    2.2930 Cl  0  0  0  0  0  0  0  0  0  0  0  0
   -2.0090    1.5800   -0.3490 C   0  0  0  0  0  0  0  0  0  0  0  0
   -0.8260    1.6970   -1.1950 C   0  0  0  0  0  0  0  0  0  0  0  0
   -0.1920    0.6220   -1.6190 C   0  0  0  0  0  0  0  0  0  0  0  0
   -0.4420   -0.7450   -1.4030 N   0  0  0  0  0  0  0  0  0  0  0  0
    0.5250   -1.5330   -2.0950 C   0  0  0  0  0  0  0  0  0  0  0  0
    0.6120   -2.7910   -2.1290 O   0  0  0  0  0  0  0  0  0  0  0  0
    1.4100   -0.6590   -2.7660 N   0  0  0  0  0  0  0  0  0  0  0  0
    2.5530   -0.9710   -3.5990 C   0  0  0  0  0  0  0  0  0  0  0  0
    3.8060   -1.0700   -2.8520 C   0  0  0  0  0  0  0  0  0  0  0  0
    4.8600   -1.3570   -3.4380 O   0  0  0  0  0  0  0  0  0  0  0  0
    3.9480   -0.8660   -1.4880 O   0  0  0  0  0  0  0  0  0  0  0  0
    5.1420   -0.9640   -0.7880 C   0  0  2  0  0  0  0  0  0  0  0  0
    5.1540   -2.0760    0.2360 C   0  0  0  0  0  0  0  0  0  0  0  0
    6.5360   -2.3310    0.6980 C   0  0  0  0  0  0  0  0  0  0  0  0
    7.3860   -1.1370    0.9860 C   0  0  0  0  0  0  0  0  0  0  0  0
    7.1110    0.0480    0.1230 C   0  0  0  0  0  0  0  0  0  0  0  0
    5.6190    0.2730   -0.1040 C   0  0  2  0  0  0  0  0  0  0  0  0
    5.0010    0.4350    1.2660 C   0  0  0  0  0  0  0  0  0  0  0  0
    5.4590    1.6770    1.9780 C   0  0  0  0  0  0  0  0  0  0  0  0
    5.0910    3.1640    1.1250 Cl  0  0  0  0  0  0  0  0  0  0  0  0
    0.9880    0.6670   -2.4870 C   0  0  0  0  0  0  0  0  0  0  0  0
    1.5340    1.7350   -2.9140 O   0  0  0  0  0  0  0  0  0  0  0  0
   -3.0220    0.7300   -0.6720 C   0  0  0  0  0  0  0  0  0  0  0  0
   -4.1810    0.6440    0.1560 C   0  0  0  0  0  0  0  0  0  0  0  0
   -5.1340   -0.2040   -0.2090 O   0  0  0  0  0  0  0  0  0  0  0  0
   -6.3160   -0.6530    0.1670 C   0  0  2  0  0  0  0  0  0  0  0  0
   -6.2530   -2.1920    0.2880 C   0  0  0  0  0  0  0  0  0  0  0  0
   -7.6180   -2.5990    0.8280 C   0  0  0  0  0  0  0  0  0  0  0  0
   -8.6670   -1.5600   -0.2000 S   0  0  1  0  0  0  0  0  0  0  0  0
   -9.3850   -2.3610   -1.2240 O   0  0  0  0  0  0  0  0  0  0  0  0
   -9.5540   -0.6950    0.6230 O   0  0  0  0  0  0  0  0  0  0  0  0
   -7.4100   -0.5140   -0.9430 C   0  0  0  0  0  0  0  0  0  0  0  0
  1  2  1  0
  2  3  2  0
  2 31  1  0
  3  4  1  0
  4  5  1  0
  4  8  2  0
  5  6  1  0
  6  7  1  0
  8  9  1  0
  8 30  1  0
  9 10  2  3
 10 11  1  0
 10 28  1  0
 11 12  1  0
 12 13  2  0
 12 14  1  0
 14 15  1  0
 14 28  1  0
 15 16  1  0
 16 17  2  0
 16 18  1  0
 19 18  1  1
 19 20  1  0
 19 24  1  0
 20 21  1  0
 21 22  1  0
 22 23  1  0
 23 24  1  0
 24 25  1  1
 25 26  1  0
 26 27  1  0
 28 29  2  0
 30 31  2  0
 31 32  1  0
 33 32  1  6
 33 34  1  0
 33 39  1  0
 34 35  1  0
 36 35  1  1
 36 37  2  0
 36 38  2  0
 36 39  1  0
M  END
