
     RDKit          3D

 39 41  0  0  0  0  0  0  0  0999 V2000
   -0.5540   -6.9510   -1.3570 C   0  0  0  0  0  0  0  0  0  0  0  0
    0.1050   -5.9150   -0.4670 C   0  0  0  0  0  0  0  0  0  0  0  0
   -0.1640   -4.5660   -0.9510 N   0  0  0  0  0  0  0  0  0  0  0  0
    0.3580   -3.4600   -0.2710 C   0  0  0  0  0  0  0  0  0  0  0  0
    1.0780   -3.7110    0.7620 O   0  0  0  0  0  0  0  0  0  0  0  0
    0.1850   -2.0420   -0.6040 C   0  0  2  0  0  0  0  0  0  0  0  0
    1.1330   -1.2330    0.1220 O   0  0  0  0  0  0  0  0  0  0  0  0
    2.0870   -0.4800   -0.4910 C   0  0  0  0  0  0  0  0  0  0  0  0
    2.0510   -0.5690   -1.7840 O   0  0  0  0  0  0  0  0  0  0  0  0
    3.1050    0.3750    0.0220 C   0  0  0  0  0  0  0  0  0  0  0  0
    3.4340    0.7040    1.2480 C   0  0  0  0  0  0  0  0  0  0  0  0
    2.6390    0.1270    2.3430 C   0  0  0  0  0  0  0  0  0  0  0  0
    4.6240    1.4950    1.5340 C   0  0  0  0  0  0  0  0  0  0  0  0
    4.9040    1.9070    2.7450 C   0  0  0  0  0  0  0  0  0  0  0  0
    3.8580    1.5060    4.0270 Cl  0  0  0  0  0  0  0  0  0  0  0  0
    6.2800    2.9920    3.2840 S   0  0  0  0  0  0  0  0  0  0  0  0
    6.4570    4.2420    1.9770 C   0  0  0  0  0  0  0  0  0  0  0  0
    6.4460    4.0170    0.6780 C   0  0  0  0  0  0  0  0  0  0  0  0
    6.2910    2.7260    0.0250 C   0  0  0  0  0  0  0  0  0  0  0  0
    5.5540    1.6960    0.3710 C   0  0  0  0  0  0  0  0  0  0  0  0
    5.7220    0.2140   -0.6040 Cl  0  0  0  0  0  0  0  0  0  0  0  0
   -1.2050   -1.4850   -0.3400 C   0  0  1  0  0  0  0  0  0  0  0  0
   -1.1370   -0.0900   -0.8590 N   0  0  0  0  0  0  0  0  0  0  0  0
   -1.5080    0.9730    0.0030 C   0  0  0  0  0  0  0  0  0  0  0  0
   -1.8850    0.6870    1.1780 O   0  0  0  0  0  0  0  0  0  0  0  0
   -1.4890    2.4090   -0.3640 C   0  0  1  0  0  0  0  0  0  0  0  0
   -2.3500    2.6200   -1.5880 C   0  0  0  0  0  0  0  0  0  0  0  0
   -3.7100    2.7560   -1.2970 O   0  0  0  0  0  0  0  0  0  0  0  0
   -4.1710    3.2890   -0.1190 C   0  0  0  0  0  0  0  0  0  0  0  0
   -5.5180    3.5890    0.0310 C   0  0  0  0  0  0  0  0  0  0  0  0
   -5.9650    4.1280    1.2320 C   0  0  0  0  0  0  0  0  0  0  0  0
   -5.0870    4.3640    2.2690 C   0  0  0  0  0  0  0  0  0  0  0  0
   -3.7560    4.0580    2.0970 C   0  0  0  0  0  0  0  0  0  0  0  0
   -3.2850    3.5190    0.9070 C   0  0  0  0  0  0  0  0  0  0  0  0
   -1.9520    3.2110    0.7270 O   0  0  0  0  0  0  0  0  0  0  0  0
   -2.1850   -2.1650   -1.1940 C   0  0  0  0  0  0  0  0  0  0  0  0
   -2.5440   -1.8170   -2.3260 O   0  0  0  0  0  0  0  0  0  0  0  0
   -2.7830   -3.3250   -0.6710 O   0  0  0  0  0  0  0  0  0  0  0  0
   -3.7490   -4.0430   -1.4230 C   0  0  0  0  0  0  0  0  0  0  0  0
  1  2  1  0
  2  3  1  0
  3  4  1  0
  4  5  2  0
  4  6  1  0
  6  7  1  1
  6 22  1  0
  7  8  1  0
  8  9  2  0
  8 10  1  0
 10 11  2  3
 11 12  1  0
 11 13  1  0
 13 14  2  0
 13 20  1  0
 14 15  1  0
 14 16  1  0
 16 17  1  0
 17 18  2  0
 18 19  1  0
 19 20  2  0
 20 21  1  0
 22 23  1  6
 22 36  1  0
 23 24  1  0
 24 25  2  0
 26 24  1  1
 26 27  1  0
 26 35  1  0
 27 28  1  0
 28 29  1  0
 29 30  2  0
 29 34  1  0
 30 31  1  0
 31 32  2  0
 32 33  1  0
 33 34  2  0
 34 35  1  0
 36 37  2  0
 36 38  1  0
 38 39  1  0
M  END
