
     RDKit          3D

 35 37  0  0  0  0  0  0  0  0999 V2000
    3.1740    1.5300   -0.8150 O   0  0  0  0  0  0  0  0  0  0  0  0
    2.1660    0.7970   -0.6360 C   0  0  0  0  0  0  0  0  0  0  0  0
    2.2330   -0.5890   -0.3580 N   0  0  0  0  0  0  0  0  0  0  0  0
    3.4440   -1.2960   -0.3430 C   0  0  0  0  0  0  0  0  0  0  0  0
    4.5880   -0.9600    0.5610 C   0  0  0  0  0  0  0  0  0  0  0  0
    5.4770   -2.0230    0.1080 O   0  0  0  0  0  0  0  0  0  0  0  0
    6.7370   -1.3720   -0.7270 P   0  0  0  0  0  0  0  0  0  0  0  0
    7.0000    0.2330   -0.9600 O   0  0  0  0  0  0  0  0  0  0  0  0
    8.0050   -2.4300   -1.0200 O   0  0  0  0  0  0  0  0  0  0  0  0
    9.2260   -2.0170    0.2230 P   0  0  0  0  0  0  0  0  0  0  0  0
   10.1970   -0.7830   -0.5510 O   0  0  0  0  0  0  0  0  0  0  0  0
    8.3590   -1.1460    1.5090 O   0  0  0  0  0  0  0  0  0  0  0  0
    0.7640    1.3300   -0.6980 C   0  0  1  0  0  0  0  0  0  0  0  0
    0.0770    0.4080   -1.7060 C   0  0  0  0  0  0  0  0  0  0  0  0
   -1.2540    0.4570   -1.6260 O   0  0  0  0  0  0  0  0  0  0  0  0
   -1.7980    0.1650   -0.3430 C   0  0  2  0  0  0  0  0  0  0  0  0
   -2.3680   -1.2130   -0.5210 C   0  0  0  0  0  0  0  0  0  0  0  0
   -3.1410   -1.7270    0.6200 N   0  0  0  0  0  0  0  0  0  0  0  0
   -3.1880   -3.1670    0.3700 C   0  0  0  0  0  0  0  0  0  0  0  0
   -4.3470   -3.8540    0.9540 C   0  0  0  0  0  0  0  0  0  0  0  0
   -5.4900   -3.3440    0.2790 O   0  0  0  0  0  0  0  0  0  0  0  0
   -5.6150   -2.0740    0.7450 C   0  0  0  0  0  0  0  0  0  0  0  0
   -4.4790   -1.1570    0.4610 C   0  0  0  0  0  0  0  0  0  0  0  0
   -2.7150    1.2510   -0.0830 C   0  0  0  0  0  0  0  0  0  0  0  0
   -3.0290    1.6500    1.1110 O   0  0  0  0  0  0  0  0  0  0  0  0
   -3.3380    1.9370   -1.1170 O   0  0  0  0  0  0  0  0  0  0  0  0
   -4.2110    3.0450   -0.7720 C   0  0  0  0  0  0  0  0  0  0  0  0
   -3.2810    4.0770   -0.1960 C   0  0  0  0  0  0  0  0  0  0  0  0
   -1.9880    3.9770   -0.0220 N   0  0  0  0  0  0  0  0  0  0  0  0
   -1.5320    5.1260    0.5210 O   0  0  0  0  0  0  0  0  0  0  0  0
   -2.5570    5.9750    0.7650 N   0  0  0  0  0  0  0  0  0  0  0  0
   -3.7080    5.3390    0.2740 N   0  0  0  0  0  0  0  0  0  0  0  0
   -0.8080    0.1320    0.6720 O   0  0  0  0  0  0  0  0  0  0  0  0
    0.1970    1.0570    0.6220 C   0  0  0  0  0  0  0  0  0  0  0  0
    0.6400    1.6560    1.6480 O   0  0  0  0  0  0  0  0  0  0  0  0
  1  2  2  0
  2  3  1  0
 13  2  1  1
  3  4  1  0
  4  5  1  0
  5  6  1  0
  6  7  1  0
  7  8  1  0
  7  9  1  0
  9 10  1  0
 10 11  1  0
 10 12  1  0
 13 14  1  0
 13 34  1  0
 14 15  1  0
 15 16  1  0
 16 17  1  6
 16 24  1  0
 16 33  1  0
 17 18  1  0
 18 19  1  0
 18 23  1  0
 19 20  1  0
 20 21  1  0
 21 22  1  0
 22 23  1  0
 24 25  2  0
 24 26  1  0
 26 27  1  0
 27 28  1  0
 28 29  2  0
 28 32  1  0
 29 30  1  0
 30 31  1  0
 31 32  1  0
 33 34  1  0
 34 35  2  0
M  END
