
     RDKit          3D

 35 39  0  0  0  0  0  0  0  0999 V2000
    1.2760   -0.6550    1.1170 O   0  0  0  0  0  0  0  0  0  0  0  0
    0.8570    0.5110    1.0460 C   0  0  0  0  0  0  0  0  0  0  0  0
    1.7120    1.5320    1.3100 O   0  0  0  0  0  0  0  0  0  0  0  0
    3.0560    1.5280    1.6580 C   0  0  0  0  0  0  0  0  0  0  0  0
    3.9040    0.9790    0.5500 C   0  0  2  0  0  0  0  0  0  0  0  0
    3.5880   -0.3480    0.2360 O   0  0  0  0  0  0  0  0  0  0  0  0
    4.7480   -1.0890    0.0730 C   0  0  0  0  0  0  0  0  0  0  0  0
    5.1730   -2.2970   -0.3690 N   0  0  0  0  0  0  0  0  0  0  0  0
    6.4810   -2.2860   -0.2080 N   0  0  0  0  0  0  0  0  0  0  0  0
    6.9110   -1.1440    0.3110 C   0  0  0  0  0  0  0  0  0  0  0  0
    8.2390   -0.7500    0.6320 N   0  0  0  0  0  0  0  0  0  0  0  0
    9.5590   -1.9360    0.3060 P   0  0  0  0  0  0  0  0  0  0  0  0
    9.9730   -1.7730   -1.3780 O   0  0  0  0  0  0  0  0  0  0  0  0
    8.9050   -3.5250    0.5320 O   0  0  0  0  0  0  0  0  0  0  0  0
    5.8210   -0.3740    0.4940 N   0  0  0  0  0  0  0  0  0  0  0  0
    5.3370    0.8790    0.9470 C   0  0  0  0  0  0  0  0  0  0  0  0
    6.0130    1.7240    1.5650 O   0  0  0  0  0  0  0  0  0  0  0  0
   -0.5540    0.7980    0.6800 C   0  0  0  0  0  0  0  0  0  0  0  0
   -0.9840    2.1050    0.6110 C   0  0  0  0  0  0  0  0  0  0  0  0
   -2.2410    2.3590    0.2850 N   0  0  0  0  0  0  0  0  0  0  0  0
   -3.1070    1.3610    0.0190 C   0  0  0  0  0  0  0  0  0  0  0  0
   -2.7380    0.0310    0.0710 C   0  0  0  0  0  0  0  0  0  0  0  0
   -1.4280   -0.2330    0.4110 C   0  0  0  0  0  0  0  0  0  0  0  0
   -3.8590   -0.7370   -0.2550 O   0  0  0  0  0  0  0  0  0  0  0  0
   -4.7080    0.1350   -0.9550 C   0  0  1  0  0  0  0  0  0  0  0  0
   -4.3840    0.2530   -2.4090 C   0  0  0  0  0  0  0  0  0  0  0  0
   -5.1840    1.2670   -2.9370 O   0  0  0  0  0  0  0  0  0  0  0  0
   -6.5340    0.9990   -2.7320 C   0  0  0  0  0  0  0  0  0  0  0  0
   -6.8690    0.8840   -1.4010 O   0  0  0  0  0  0  0  0  0  0  0  0
   -6.1600   -0.1770   -0.8030 C   0  0  2  0  0  0  0  0  0  0  0  0
   -6.5140   -0.3030    0.5220 O   0  0  0  0  0  0  0  0  0  0  0  0
   -7.2660   -1.7990    0.8960 P   0  0  0  0  0  0  0  0  0  0  0  0
   -8.9780   -1.7680    0.6280 O   0  0  0  0  0  0  0  0  0  0  0  0
   -6.8910   -2.3230    2.5240 O   0  0  0  0  0  0  0  0  0  0  0  0
   -4.4540    1.3820   -0.3400 O   0  0  0  0  0  0  0  0  0  0  0  0
  1  2  2  0
  2  3  1  0
  2 18  1  0
  3  4  1  0
  5  4  1  1
  5  6  1  0
  5 16  1  0
  6  7  1  0
  7  8  2  0
  7 15  1  0
  8  9  1  0
  9 10  2  0
 10 11  1  0
 10 15  1  0
 11 12  1  0
 12 13  1  0
 12 14  1  0
 15 16  1  0
 16 17  2  0
 18 19  2  0
 18 23  1  0
 19 20  1  0
 20 21  2  0
 21 22  1  0
 21 35  1  0
 22 23  2  0
 22 24  1  0
 24 25  1  0
 25 26  1  6
 25 30  1  0
 25 35  1  0
 26 27  1  0
 27 28  1  0
 28 29  1  0
 29 30  1  0
 30 31  1  1
 31 32  1  0
 32 33  1  0
 32 34  1  0
M  END
