
     RDKit          3D

 35 38  0  0  0  0  0  0  0  0999 V2000
   -5.0780    4.9190    0.5170 N   0  0  0  0  0  0  0  0  0  0  0  0
   -4.0290    3.9990    0.8040 C   0  0  0  0  0  0  0  0  0  0  0  0
   -4.2330    3.1870    1.7400 O   0  0  0  0  0  0  0  0  0  0  0  0
   -2.7580    4.0160    0.0200 C   0  0  0  0  0  0  0  0  0  0  0  0
   -1.9210    2.9820    0.5480 N   0  0  0  0  0  0  0  0  0  0  0  0
   -0.6130    2.8220   -0.0750 C   0  0  0  0  0  0  0  0  0  0  0  0
   -0.9710    1.4690   -0.5710 C   0  0  1  0  0  0  0  0  0  0  0  0
   -1.2220    1.4780   -2.0820 C   0  0  0  0  0  0  0  0  0  0  0  0
   -1.5320    0.1710   -2.5150 O   0  0  0  0  0  0  0  0  0  0  0  0
   -1.4260   -1.0070   -1.8330 C   0  0  0  0  0  0  0  0  0  0  0  0
   -0.9870   -2.0330   -2.4560 O   0  0  0  0  0  0  0  0  0  0  0  0
   -1.7540   -1.3020   -0.4180 C   0  0  1  0  0  0  0  0  0  0  0  0
   -1.8170   -2.7900   -0.1900 C   0  0  0  0  0  0  0  0  0  0  0  0
   -1.7600   -3.7230   -1.1730 N   0  0  0  0  0  0  0  0  0  0  0  0
   -1.8430   -4.9120   -0.6100 C   0  0  0  0  0  0  0  0  0  0  0  0
   -1.9540   -4.7280    0.7470 C   0  0  0  0  0  0  0  0  0  0  0  0
   -1.9310   -3.4170    0.9320 O   0  0  0  0  0  0  0  0  0  0  0  0
   -2.0550   -5.9190    1.4910 N   0  0  0  0  0  0  0  0  0  0  0  0
   -1.3960   -6.9760    0.9670 O   0  0  0  0  0  0  0  0  0  0  0  0
   -1.8780   -6.7680   -0.7230 P   0  0  0  0  0  0  0  0  0  0  0  0
   -3.5610   -7.1950   -0.9030 O   0  0  0  0  0  0  0  0  0  0  0  0
   -0.9050   -0.6900    0.4720 O   0  0  0  0  0  0  0  0  0  0  0  0
   -0.1300    0.3020   -0.1760 C   0  0  2  0  0  0  0  0  0  0  0  0
    1.0550    0.6320    0.6440 C   0  0  0  0  0  0  0  0  0  0  0  0
    1.1940    0.0650    1.7670 O   0  0  0  0  0  0  0  0  0  0  0  0
    2.0490    1.5480    0.2420 N   0  0  0  0  0  0  0  0  0  0  0  0
    3.2240    1.9020    1.0020 C   0  0  0  0  0  0  0  0  0  0  0  0
    4.0440    0.6540    1.2200 C   0  0  0  0  0  0  0  0  0  0  0  0
    4.3890    0.1630   -0.0520 O   0  0  0  0  0  0  0  0  0  0  0  0
    5.3400   -1.2840    0.1460 P   0  0  0  0  0  0  0  0  0  0  0  0
    6.5770   -1.3360   -1.0670 O   0  0  0  0  0  0  0  0  0  0  0  0
    5.9710   -1.3910    1.7400 O   0  0  0  0  0  0  0  0  0  0  0  0
    7.2860   -1.4910    1.7700 O   0  0  0  0  0  0  0  0  0  0  0  0
    7.8460   -0.8910    0.7380 O   0  0  0  0  0  0  0  0  0  0  0  0
   -2.2590    1.6270    0.2300 C   0  0  0  0  0  0  0  0  0  0  0  0
  1  2  1  0
  2  3  2  0
  2  4  1  0
  4  5  1  0
  5  6  1  0
  5 35  1  0
  7  6  1  6
  7  8  1  0
  7 23  1  0
  7 35  1  0
  8  9  1  0
  9 10  1  0
 10 11  2  0
 10 12  1  0
 12 13  1  6
 12 22  1  0
 13 14  2  0
 13 17  1  0
 14 15  1  0
 15 16  2  0
 15 20  1  0
 16 17  1  0
 16 18  1  0
 18 19  1  0
 19 20  1  0
 20 21  1  0
 22 23  1  0
 23 24  1  1
 24 25  2  0
 24 26  1  0
 26 27  1  0
 27 28  1  0
 28 29  1  0
 29 30  1  0
 30 31  1  0
 30 32  1  0
 32 33  1  0
 33 34  1  0
M  END
