
     RDKit          3D

 35 36  0  0  0  0  0  0  0  0999 V2000
   -5.3450   -1.2380    1.5380 C   0  0  0  0  0  0  0  0  0  0  0  0
   -4.7330   -1.1980    0.1360 C   0  0  2  0  0  0  0  0  0  0  0  0
   -5.4420   -0.3300   -0.6300 O   0  0  0  0  0  0  0  0  0  0  0  0
   -4.8440   -2.5080   -0.3120 O   0  0  0  0  0  0  0  0  0  0  0  0
   -3.9360   -2.9120   -1.2370 C   0  0  0  0  0  0  0  0  0  0  0  0
   -3.1340   -1.8000   -1.8030 C   0  0  0  0  0  0  0  0  0  0  0  0
   -2.4140   -1.2310   -0.6190 N   0  0  0  0  0  0  0  0  0  0  0  0
   -1.0180   -1.3490   -0.6220 C   0  0  0  0  0  0  0  0  0  0  0  0
   -0.5410   -2.4950   -0.3960 O   0  0  0  0  0  0  0  0  0  0  0  0
   -0.0640   -0.2200   -0.8990 C   0  0  2  0  0  0  0  0  0  0  0  0
   -0.3440    0.9420   -0.0430 C   0  0  0  0  0  0  0  0  0  0  0  0
    0.1950    2.2450   -0.3490 C   0  0  0  0  0  0  0  0  0  0  0  0
    0.1550    2.5910   -1.6020 O   0  0  0  0  0  0  0  0  0  0  0  0
    0.7570    3.2490    0.4590 N   0  0  0  0  0  0  0  0  0  0  0  0
    1.1300    4.4900   -0.0910 C   0  0  0  0  0  0  0  0  0  0  0  0
    1.8770    5.5070    0.6910 C   0  0  0  0  0  0  0  0  0  0  0  0
    1.9300    6.6220   -0.2840 O   0  0  0  0  0  0  0  0  0  0  0  0
    1.2490    7.5930    0.3750 O   0  0  0  0  0  0  0  0  0  0  0  0
   -0.1940    0.1490   -2.3120 C   0  0  0  0  0  0  0  0  0  0  0  0
   -1.1800    0.8700   -2.6490 O   0  0  0  0  0  0  0  0  0  0  0  0
    0.6480   -0.2470   -3.3080 O   0  0  0  0  0  0  0  0  0  0  0  0
    1.6180   -1.1590   -3.0070 C   0  0  0  0  0  0  0  0  0  0  0  0
    2.1080   -1.8090   -3.9380 O   0  0  0  0  0  0  0  0  0  0  0  0
    2.0740   -1.3660   -1.6310 C   0  0  0  0  0  0  0  0  0  0  0  0
    1.2340   -0.8770   -0.6010 N   0  0  0  0  0  0  0  0  0  0  0  0
    1.6010   -1.0850    0.7340 C   0  0  0  0  0  0  0  0  0  0  0  0
    0.8420   -1.7450    1.5940 N   0  0  0  0  0  0  0  0  0  0  0  0
    2.8580   -0.6980    1.3180 N   0  0  0  0  0  0  0  0  0  0  0  0
    3.5800   -1.6640    2.6450 P   0  0  0  0  0  0  0  0  0  0  0  0
    3.1110   -3.3310    2.5740 O   0  0  0  0  0  0  0  0  0  0  0  0
    5.7930   -1.6650    2.3510 P   0  0  0  0  0  0  0  0  0  0  0  0
    6.1100   -2.1000    0.7140 O   0  0  0  0  0  0  0  0  0  0  0  0
    6.5630   -2.7320    3.4890 O   0  0  0  0  0  0  0  0  0  0  0  0
   -3.2890   -0.7720    0.3510 C   0  0  0  0  0  0  0  0  0  0  0  0
   -2.9950   -0.0730    1.3270 O   0  0  0  0  0  0  0  0  0  0  0  0
  2  1  1  1
  2  3  1  0
  2  4  1  0
  2 34  1  0
  4  5  1  0
  5  6  1  0
  6  7  1  0
  7  8  1  0
  7 34  1  0
  8  9  2  0
  8 10  1  0
 10 11  1  1
 10 19  1  0
 10 25  1  0
 11 12  1  0
 12 13  2  0
 12 14  1  0
 14 15  1  0
 15 16  1  0
 16 17  1  0
 17 18  1  0
 19 20  2  0
 19 21  1  0
 21 22  1  0
 22 23  2  0
 22 24  1  0
 24 25  1  0
 25 26  1  0
 26 27  2  0
 26 28  1  0
 28 29  1  0
 29 30  1  0
 29 31  1  0
 31 32  1  0
 31 33  1  0
 34 35  2  0
M  END
