
     RDKit          3D

 36 39  0  0  0  0  0  0  0  0999 V2000
  -10.2700    0.3170    0.0650 N   0  0  0  0  0  0  0  0  0  0  0  0
   -8.9120    0.4620   -0.3820 C   0  0  0  0  0  0  0  0  0  0  0  0
   -8.5640    0.2130   -1.6990 N   0  0  0  0  0  0  0  0  0  0  0  0
   -7.2990    0.3040   -2.0320 C   0  0  0  0  0  0  0  0  0  0  0  0
   -6.2780    0.6120   -1.2250 N   0  0  0  0  0  0  0  0  0  0  0  0
   -6.5760    0.8460    0.0670 C   0  0  0  0  0  0  0  0  0  0  0  0
   -7.8900    0.7680    0.4700 C   0  0  0  0  0  0  0  0  0  0  0  0
   -7.9230    1.0470    1.8360 N   0  0  0  0  0  0  0  0  0  0  0  0
   -6.6260    1.2650    2.1600 C   0  0  0  0  0  0  0  0  0  0  0  0
   -5.8150    1.1540    1.1520 N   0  0  0  0  0  0  0  0  0  0  0  0
   -4.3900    1.3160    1.0380 C   0  0  2  0  0  0  0  0  0  0  0  0
   -3.9150    0.7220   -0.1580 O   0  0  0  0  0  0  0  0  0  0  0  0
   -2.6130    0.4490    0.0900 C   0  0  2  0  0  0  0  0  0  0  0  0
   -1.9990   -0.5120   -0.9260 C   0  0  0  0  0  0  0  0  0  0  0  0
   -0.7710    0.0610   -1.2490 O   0  0  0  0  0  0  0  0  0  0  0  0
    0.5750   -0.6710   -0.8860 P   0  0  0  0  0  0  0  0  0  0  0  0
   -0.0190   -1.9260   -0.3420 O   0  0  0  0  0  0  0  0  0  0  0  0
    1.2090   -0.1170    0.6430 O   0  0  0  0  0  0  0  0  0  0  0  0
    1.6920   -1.5630   -1.7430 O   0  0  0  0  0  0  0  0  0  0  0  0
    3.2200   -1.2470   -1.5060 P   0  0  0  0  0  0  0  0  0  0  0  0
    2.8160   -0.8580    0.0980 O   0  0  0  0  0  0  0  0  0  0  0  0
    3.0520   -0.0900   -2.6730 O   0  0  0  0  0  0  0  0  0  0  0  0
    4.5810   -0.6640   -1.1400 O   0  0  0  0  0  0  0  0  0  0  0  0
    5.2630   -1.3540   -0.1030 C   0  0  0  0  0  0  0  0  0  0  0  0
    6.3350   -0.4320    0.3630 C   0  0  1  0  0  0  0  0  0  0  0  0
    7.1330   -0.9580    1.3920 O   0  0  0  0  0  0  0  0  0  0  0  0
    8.1750   -0.0400    1.5250 C   0  0  2  0  0  0  0  0  0  0  0  0
    7.8420    0.9470    2.4550 O   0  0  0  0  0  0  0  0  0  0  0  0
    8.4070    0.5860    0.1610 C   0  0  2  0  0  0  0  0  0  0  0  0
    7.9860    1.9060    0.2270 O   0  0  0  0  0  0  0  0  0  0  0  0
    7.3660   -0.1650   -0.6860 C   0  0  2  0  0  0  0  0  0  0  0  0
    6.9170    0.6180   -1.7170 O   0  0  0  0  0  0  0  0  0  0  0  0
   -2.8550   -0.4300    1.3910 C   0  0  1  0  0  0  0  0  0  0  0  0
   -1.7520   -0.6200    2.1190 O   0  0  0  0  0  0  0  0  0  0  0  0
   -3.8020    0.4510    2.1510 C   0  0  1  0  0  0  0  0  0  0  0  0
   -3.1620    1.2160    3.1400 O   0  0  0  0  0  0  0  0  0  0  0  0
  1  2  1  0
  2  3  2  0
  2  7  1  0
  3  4  1  0
  4  5  2  0
  5  6  1  0
  6  7  2  0
  6 10  1  0
  7  8  1  0
  8  9  2  0
  9 10  1  0
 11 10  1  6
 11 12  1  0
 11 35  1  0
 12 13  1  0
 13 14  1  6
 13 33  1  0
 14 15  1  0
 15 16  1  0
 16 17  1  0
 16 18  1  0
 16 19  1  0
 19 20  1  0
 20 21  1  0
 20 22  1  0
 20 23  1  0
 23 24  1  0
 25 24  1  6
 25 26  1  0
 25 31  1  0
 26 27  1  0
 27 28  1  1
 27 29  1  0
 29 30  1  1
 29 31  1  0
 31 32  1  6
 33 34  1  1
 33 35  1  0
 35 36  1  1
M  END
