
     RDKit          3D

 35 39  0  0  0  0  0  0  0  0999 V2000
    1.4390    0.6250    0.2430 O   0  0  0  0  0  0  0  0  0  0  0  0
    1.1360   -0.3800   -0.4310 C   0  0  0  0  0  0  0  0  0  0  0  0
    2.1100   -1.1870   -0.9360 O   0  0  0  0  0  0  0  0  0  0  0  0
    3.4930   -1.0740   -0.8100 C   0  0  0  0  0  0  0  0  0  0  0  0
    4.0020   -1.2120    0.5780 C   0  0  2  0  0  0  0  0  0  0  0  0
    3.4970   -0.2240    1.4120 O   0  0  0  0  0  0  0  0  0  0  0  0
    4.3940    0.8210    1.5610 C   0  0  0  0  0  0  0  0  0  0  0  0
    4.5880    2.0920    2.0060 N   0  0  0  0  0  0  0  0  0  0  0  0
    5.8290    2.4620    1.7870 N   0  0  0  0  0  0  0  0  0  0  0  0
    6.4790    1.4420    1.1930 C   0  0  0  0  0  0  0  0  0  0  0  0
    7.8370    1.3820    0.7700 N   0  0  0  0  0  0  0  0  0  0  0  0
    8.3730    1.8700   -0.8690 P   0  0  0  0  0  0  0  0  0  0  0  0
   10.0490    2.2920   -0.8590 O   0  0  0  0  0  0  0  0  0  0  0  0
    8.2010    0.5080   -1.9630 O   0  0  0  0  0  0  0  0  0  0  0  0
    5.5770    0.4280    1.0580 N   0  0  0  0  0  0  0  0  0  0  0  0
    5.4780   -0.8970    0.5640 C   0  0  0  0  0  0  0  0  0  0  0  0
    6.3880   -1.6770    0.1860 O   0  0  0  0  0  0  0  0  0  0  0  0
   -0.2780   -0.6560   -0.6540 C   0  0  0  0  0  0  0  0  0  0  0  0
   -0.6380   -1.7610   -1.3960 C   0  0  0  0  0  0  0  0  0  0  0  0
   -1.9470   -2.0000   -1.5920 N   0  0  0  0  0  0  0  0  0  0  0  0
   -2.9340   -1.2350   -1.1150 C   0  0  0  0  0  0  0  0  0  0  0  0
   -2.6150   -0.1080   -0.3600 C   0  0  0  0  0  0  0  0  0  0  0  0
   -1.2700    0.1570   -0.1460 C   0  0  0  0  0  0  0  0  0  0  0  0
   -3.8130    0.4930    0.0030 O   0  0  0  0  0  0  0  0  0  0  0  0
   -4.7790   -0.5420   -0.0550 C   0  0  1  0  0  0  0  0  0  0  0  0
   -4.6080   -1.3940    1.1730 C   0  0  0  0  0  0  0  0  0  0  0  0
   -5.7540   -2.1100    1.4940 O   0  0  0  0  0  0  0  0  0  0  0  0
   -6.8200   -1.2370    1.5580 C   0  0  0  0  0  0  0  0  0  0  0  0
   -7.1450   -0.8760    0.2490 O   0  0  0  0  0  0  0  0  0  0  0  0
   -6.1750   -0.0120   -0.2130 C   0  0  2  0  0  0  0  0  0  0  0  0
   -6.4630    0.2850   -1.5440 O   0  0  0  0  0  0  0  0  0  0  0  0
   -6.8470    1.9690   -1.6960 P   0  0  0  0  0  0  0  0  0  0  0  0
   -7.9790    2.2880   -2.9420 O   0  0  0  0  0  0  0  0  0  0  0  0
   -7.4130    2.6480   -0.2280 O   0  0  0  0  0  0  0  0  0  0  0  0
   -4.3340   -1.2750   -1.1820 O   0  0  0  0  0  0  0  0  0  0  0  0
  1  2  2  0
  2  3  1  0
  2 18  1  0
  3  4  1  0
  5  4  1  6
  5  6  1  0
  5 16  1  0
  6  7  1  0
  7  8  2  0
  7 15  1  0
  8  9  1  0
  9 10  2  0
 10 11  1  0
 10 15  1  0
 11 12  1  0
 12 13  1  0
 12 14  1  0
 15 16  1  0
 16 17  2  0
 18 19  2  0
 18 23  1  0
 19 20  1  0
 20 21  2  0
 21 22  1  0
 21 35  1  0
 22 23  2  0
 22 24  1  0
 24 25  1  0
 25 26  1  1
 25 30  1  0
 25 35  1  0
 26 27  1  0
 27 28  1  0
 28 29  1  0
 29 30  1  0
 30 31  1  6
 31 32  1  0
 32 33  1  0
 32 34  1  0
M  END
