
     RDKit          3D

 36 36  0  0  0  0  0  0  0  0999 V2000
    3.1290    1.5440    1.4770 N   0  0  0  0  0  0  0  0  0  0  0  0
    3.4220    0.7690    0.4940 C   0  0  0  0  0  0  0  0  0  0  0  0
    4.5920    1.0570   -0.2580 N   0  0  0  0  0  0  0  0  0  0  0  0
    5.3140    2.6920   -0.1200 P   0  0  0  0  0  0  0  0  0  0  0  0
    4.4700    3.6250    1.0720 O   0  0  0  0  0  0  0  0  0  0  0  0
    6.9970    2.5610    0.2860 O   0  0  0  0  0  0  0  0  0  0  0  0
    2.5840   -0.3390    0.1900 N   0  0  0  0  0  0  0  0  0  0  0  0
    2.7240   -1.4940    1.0600 C   0  0  0  0  0  0  0  0  0  0  0  0
    1.6310   -2.4650    0.9320 C   0  0  0  0  0  0  0  0  0  0  0  0
    1.8010   -3.4690    0.1750 O   0  0  0  0  0  0  0  0  0  0  0  0
    0.3760   -2.3820    1.5910 N   0  0  0  0  0  0  0  0  0  0  0  0
   -0.2620   -3.5450    2.1170 C   0  0  0  0  0  0  0  0  0  0  0  0
   -1.3730   -3.4770    2.7000 O   0  0  0  0  0  0  0  0  0  0  0  0
    0.3100   -4.8070    2.0110 O   0  0  0  0  0  0  0  0  0  0  0  0
   -0.3410   -1.1130    1.7710 C   0  0  0  0  0  0  0  0  0  0  0  0
   -1.5120   -1.0430    0.8170 C   0  0  0  0  0  0  0  0  0  0  0  0
   -1.9620    0.2750    0.7910 O   0  0  0  0  0  0  0  0  0  0  0  0
   -2.5700    0.6320   -0.3900 C   0  0  1  0  0  0  0  0  0  0  0  0
   -3.7600   -0.0460   -0.6100 N   0  0  0  0  0  0  0  0  0  0  0  0
   -4.9190    0.0570    0.1090 C   0  0  0  0  0  0  0  0  0  0  0  0
   -4.9030   -0.4510    1.5180 C   0  0  0  0  0  0  0  0  0  0  0  0
   -4.0070    0.1850    2.3480 O   0  0  0  0  0  0  0  0  0  0  0  0
   -2.6740    2.1400   -0.4350 C   0  0  1  0  0  0  0  0  0  0  0  0
   -1.4130    2.6690   -0.1970 O   0  0  0  0  0  0  0  0  0  0  0  0
   -3.1320    2.6550   -1.7390 C   0  0  0  0  0  0  0  0  0  0  0  0
   -2.4940    3.4250   -2.4690 O   0  0  0  0  0  0  0  0  0  0  0  0
   -4.3830    2.2400   -2.1840 O   0  0  0  0  0  0  0  0  0  0  0  0
   -1.5340    0.2850   -1.4620 C   0  0  0  0  0  0  0  0  0  0  0  0
   -1.8950   -0.6360   -2.2350 O   0  0  0  0  0  0  0  0  0  0  0  0
   -0.3900    0.9480   -1.4970 O   0  0  0  0  0  0  0  0  0  0  0  0
    0.8520    0.9610   -0.9510 C   0  0  0  0  0  0  0  0  0  0  0  0
    1.6440   -0.3090   -0.9250 C   0  0  1  0  0  0  0  0  0  0  0  0
    2.3770   -0.4990   -2.2510 C   0  0  0  0  0  0  0  0  0  0  0  0
    3.0460   -1.7200   -2.2790 O   0  0  0  0  0  0  0  0  0  0  0  0
    3.8520   -1.8770   -3.8000 P   0  0  0  0  0  0  0  0  0  0  0  0
    3.2660   -2.6990   -4.9770 O   0  0  0  0  0  0  0  0  0  0  0  0
  1  2  2  0
  2  3  1  0
  2  7  1  0
  3  4  1  0
  4  5  1  0
  4  6  1  0
  7  8  1  0
  7 32  1  0
  8  9  1  0
  9 10  2  0
  9 11  1  0
 11 12  1  0
 11 15  1  0
 12 13  2  0
 12 14  1  0
 15 16  1  0
 16 17  1  0
 17 18  1  0
 18 19  1  6
 18 23  1  0
 18 28  1  0
 19 20  1  0
 20 21  1  0
 21 22  1  0
 23 24  1  6
 23 25  1  0
 25 26  2  0
 25 27  1  0
 28 29  2  0
 28 30  1  0
 30 31  1  0
 31 32  1  0
 32 33  1  6
 33 34  1  0
 34 35  1  0
 35 36  2  0
M  END
