
     RDKit          3D

 35 37  0  0  0  0  0  0  0  0999 V2000
    8.0340   -2.1760   -1.0480 N   0  0  0  0  0  0  0  0  0  0  0  0
    6.8470   -1.4690   -0.6740 C   0  0  0  0  0  0  0  0  0  0  0  0
    5.6370   -1.8560   -1.0840 N   0  0  0  0  0  0  0  0  0  0  0  0
    4.4930   -1.2120   -0.7500 C   0  0  0  0  0  0  0  0  0  0  0  0
    4.6180   -0.1060    0.0560 C   0  0  0  0  0  0  0  0  0  0  0  0
    3.4030    0.6670    0.4750 C   0  0  0  0  0  0  0  0  0  0  0  0
    2.2420    0.0660   -0.0840 O   0  0  0  0  0  0  0  0  0  0  0  0
    0.9980    0.5990    0.1600 C   0  0  0  0  0  0  0  0  0  0  0  0
    0.9480    1.6240    0.8880 O   0  0  0  0  0  0  0  0  0  0  0  0
   -0.1830    0.0270   -0.3800 N   0  0  0  0  0  0  0  0  0  0  0  0
   -0.1770   -1.1510   -1.2240 C   0  0  0  0  0  0  0  0  0  0  0  0
   -1.2890   -0.9580   -2.2360 C   0  0  1  0  0  0  0  0  0  0  0  0
   -1.2810   -1.9370   -3.2160 O   0  0  0  0  0  0  0  0  0  0  0  0
   -2.6090   -0.8360   -1.5650 C   0  0  0  0  0  0  0  0  0  0  0  0
   -3.6000   -1.2390   -2.1430 O   0  0  0  0  0  0  0  0  0  0  0  0
   -2.6460   -0.2170   -0.2040 C   0  0  2  0  0  0  0  0  0  0  0  0
   -2.6100   -1.3230    0.8270 C   0  0  0  0  0  0  0  0  0  0  0  0
   -1.6750   -1.3860    1.6700 O   0  0  0  0  0  0  0  0  0  0  0  0
   -3.5910   -2.2750    0.8610 O   0  0  0  0  0  0  0  0  0  0  0  0
   -3.6510   -3.5960    2.0050 P   0  0  0  0  0  0  0  0  0  0  0  0
   -5.0490   -3.5020    3.0250 O   0  0  0  0  0  0  0  0  0  0  0  0
   -3.6580   -5.1310    1.1660 O   0  0  0  0  0  0  0  0  0  0  0  0
   -3.8860    0.5690    0.0650 C   0  0  0  0  0  0  0  0  0  0  0  0
   -3.8090    1.9180   -0.2080 O   0  0  0  0  0  0  0  0  0  0  0  0
   -2.8190    2.5340    0.5850 C   0  0  1  0  0  0  0  0  0  0  0  0
   -2.6560    3.9600    0.0960 C   0  0  0  0  0  0  0  0  0  0  0  0
   -3.8320    4.6410    0.3760 O   0  0  0  0  0  0  0  0  0  0  0  0
   -3.7750    5.8960   -0.0190 O   0  0  0  0  0  0  0  0  0  0  0  0
   -3.2170    2.4640    2.3730 P   0  0  0  0  0  0  0  0  0  0  0  0
   -3.5670    3.7890    3.1110 O   0  0  0  0  0  0  0  0  0  0  0  0
   -1.5580    1.8550    0.2700 N   0  0  0  0  0  0  0  0  0  0  0  0
   -1.4590    0.6460   -0.0790 C   0  0  0  0  0  0  0  0  0  0  0  0
    5.8560    0.3110    0.4920 C   0  0  0  0  0  0  0  0  0  0  0  0
    5.9840    1.3200    1.2280 O   0  0  0  0  0  0  0  0  0  0  0  0
    6.9560   -0.3700    0.1260 N   0  0  0  0  0  0  0  0  0  0  0  0
  1  2  1  0
  2  3  2  0
  2 35  1  0
  3  4  1  0
  4  5  2  0
  5  6  1  0
  5 33  1  0
  6  7  1  0
  7  8  1  0
  8  9  2  0
  8 10  1  0
 10 11  1  0
 10 32  1  0
 11 12  1  0
 12 13  1  6
 12 14  1  0
 14 15  2  0
 14 16  1  0
 16 17  1  1
 16 23  1  0
 16 32  1  0
 17 18  2  0
 17 19  1  0
 19 20  1  0
 20 21  1  0
 20 22  1  0
 23 24  1  0
 24 25  1  0
 25 26  1  6
 25 29  1  0
 25 31  1  0
 26 27  1  0
 27 28  1  0
 29 30  2  0
 31 32  2  0
 33 34  2  0
 33 35  1  0
M  END
