
     RDKit          3D

 35 36  0  0  0  0  0  0  0  0999 V2000
   -2.6430    4.5220   -0.8070 C   0  0  0  0  0  0  0  0  0  0  0  0
   -1.5250    4.4390    0.0860 N   0  0  0  0  0  0  0  0  0  0  0  0
   -0.8940    5.6590    0.4600 C   0  0  0  0  0  0  0  0  0  0  0  0
   -1.3940    6.8750   -0.0600 N   0  0  0  0  0  0  0  0  0  0  0  0
    0.0910    5.7170    1.2330 O   0  0  0  0  0  0  0  0  0  0  0  0
   -1.0240    3.2520    0.6010 C   0  0  0  0  0  0  0  0  0  0  0  0
   -0.0290    3.4060    1.4180 O   0  0  0  0  0  0  0  0  0  0  0  0
   -1.4020    1.9170    0.3990 N   0  0  0  0  0  0  0  0  0  0  0  0
   -2.4410    1.6340   -0.5270 N   0  0  0  0  0  0  0  0  0  0  0  0
   -3.5110    0.6770   -0.3140 C   0  0  0  0  0  0  0  0  0  0  0  0
   -4.4920    0.7700   -1.0620 O   0  0  0  0  0  0  0  0  0  0  0  0
   -3.5600   -0.3570    0.6590 N   0  0  0  0  0  0  0  0  0  0  0  0
   -2.4530   -0.7930    1.4850 C   0  0  0  0  0  0  0  0  0  0  0  0
   -1.1540   -0.5080    0.7720 C   0  0  2  0  0  0  0  0  0  0  0  0
   -1.3350   -0.5600   -0.5760 O   0  0  0  0  0  0  0  0  0  0  0  0
   -1.5310   -1.6970   -1.2370 C   0  0  0  0  0  0  0  0  0  0  0  0
   -2.7000   -2.5690   -1.0020 C   0  0  0  0  0  0  0  0  0  0  0  0
   -2.5220   -3.6740   -1.9070 O   0  0  0  0  0  0  0  0  0  0  0  0
   -3.8340   -4.7600   -1.7180 P   0  0  0  0  0  0  0  0  0  0  0  0
   -5.3520   -3.9460   -1.5380 O   0  0  0  0  0  0  0  0  0  0  0  0
   -3.5600   -5.8980   -0.4530 O   0  0  0  0  0  0  0  0  0  0  0  0
   -0.0560   -1.2610    1.2230 O   0  0  0  0  0  0  0  0  0  0  0  0
    0.9070   -0.4550    1.7970 C   0  0  0  0  0  0  0  0  0  0  0  0
    1.7120   -0.7710    2.6860 O   0  0  0  0  0  0  0  0  0  0  0  0
    0.7500    0.8520    1.1200 C   0  0  1  0  0  0  0  0  0  0  0  0
    1.3010    0.8860   -0.2400 C   0  0  0  0  0  0  0  0  0  0  0  0
    2.5990    0.6760   -0.5170 O   0  0  0  0  0  0  0  0  0  0  0  0
    3.2070   -0.5090   -0.3010 C   0  0  0  0  0  0  0  0  0  0  0  0
    4.6800   -0.4360   -0.7910 C   0  0  0  0  0  0  0  0  0  0  0  0
    5.3560   -1.7630   -0.5480 C   0  0  0  0  0  0  0  0  0  0  0  0
    5.3270   -2.0440    0.8170 O   0  0  0  0  0  0  0  0  0  0  0  0
    6.0980   -3.5670    1.1340 P   0  0  0  0  0  0  0  0  0  0  0  0
    7.3720   -3.2820    2.2860 O   0  0  0  0  0  0  0  0  0  0  0  0
    6.8330   -4.1310   -0.3350 O   0  0  0  0  0  0  0  0  0  0  0  0
   -0.7510    0.9270    1.1730 C   0  0  1  0  0  0  0  0  0  0  0  0
  1  2  1  0
  2  3  1  0
  2  6  1  0
  3  4  1  0
  3  5  2  0
  6  7  2  0
  6  8  1  0
  8  9  1  0
 35  8  1  6
  9 10  1  0
 10 11  2  0
 10 12  1  0
 12 13  1  0
 13 14  1  0
 14 15  1  6
 14 22  1  0
 14 35  1  0
 15 16  1  0
 16 17  1  0
 17 18  1  0
 18 19  1  0
 19 20  1  0
 19 21  1  0
 22 23  1  0
 23 24  2  0
 23 25  1  0
 25 26  1  6
 25 35  1  0
 26 27  1  0
 27 28  1  0
 28 29  1  0
 29 30  1  0
 30 31  1  0
 31 32  1  0
 32 33  1  0
 32 34  1  0
M  END
