
     RDKit          3D

 35 36  0  0  0  0  0  0  0  0999 V2000
   -0.3960    5.3090   -1.0910 C   0  0  0  0  0  0  0  0  0  0  0  0
   -0.2610    4.3050    0.0360 C   0  0  2  0  0  0  0  0  0  0  0  0
   -1.0750    4.7460    1.0820 O   0  0  0  0  0  0  0  0  0  0  0  0
    1.0630    4.2260    0.3680 O   0  0  0  0  0  0  0  0  0  0  0  0
    1.4360    3.2400    1.2330 C   0  0  0  0  0  0  0  0  0  0  0  0
    0.3440    2.2520    1.5650 C   0  0  0  0  0  0  0  0  0  0  0  0
   -0.3530    1.8520    0.3730 N   0  0  0  0  0  0  0  0  0  0  0  0
   -0.6970    0.5460   -0.0310 C   0  0  0  0  0  0  0  0  0  0  0  0
   -1.3660    0.4370   -1.1290 O   0  0  0  0  0  0  0  0  0  0  0  0
   -0.3940   -0.7140    0.6440 C   0  0  2  0  0  0  0  0  0  0  0  0
   -0.6200   -1.9480   -0.1850 C   0  0  0  0  0  0  0  0  0  0  0  0
   -1.9980   -2.1490   -0.6360 C   0  0  0  0  0  0  0  0  0  0  0  0
   -2.9540   -1.4050   -0.3010 O   0  0  0  0  0  0  0  0  0  0  0  0
   -2.3660   -3.2340   -1.5130 N   0  0  0  0  0  0  0  0  0  0  0  0
   -3.7260   -3.4260   -1.9520 C   0  0  0  0  0  0  0  0  0  0  0  0
   -4.7010   -3.6520   -0.8240 C   0  0  0  0  0  0  0  0  0  0  0  0
   -5.9650   -3.8180   -1.4400 O   0  0  0  0  0  0  0  0  0  0  0  0
   -6.8950   -4.0230   -0.5440 O   0  0  0  0  0  0  0  0  0  0  0  0
   -1.3090   -0.7510    1.8550 C   0  0  0  0  0  0  0  0  0  0  0  0
   -2.1630    0.1010    2.0800 O   0  0  0  0  0  0  0  0  0  0  0  0
   -1.1270   -1.8240    2.7150 O   0  0  0  0  0  0  0  0  0  0  0  0
    0.1850   -2.3210    2.7840 C   0  0  0  0  0  0  0  0  0  0  0  0
    0.4740   -3.4820    3.1370 O   0  0  0  0  0  0  0  0  0  0  0  0
    1.2380   -1.3720    2.4050 C   0  0  0  0  0  0  0  0  0  0  0  0
    0.9690   -0.7240    1.1110 N   0  0  0  0  0  0  0  0  0  0  0  0
    2.0830   -0.1810    0.4210 C   0  0  0  0  0  0  0  0  0  0  0  0
    3.1550    0.0700    1.0800 N   0  0  0  0  0  0  0  0  0  0  0  0
    2.1290    0.1240   -0.9630 N   0  0  0  0  0  0  0  0  0  0  0  0
    3.6720    0.6750   -1.7460 P   0  0  0  0  0  0  0  0  0  0  0  0
    4.5580    1.6980   -0.6310 O   0  0  0  0  0  0  0  0  0  0  0  0
    4.9030   -1.1230   -2.0700 P   0  0  0  0  0  0  0  0  0  0  0  0
    5.7810   -1.4320   -0.6080 O   0  0  0  0  0  0  0  0  0  0  0  0
    6.0250   -0.7670   -3.3530 O   0  0  0  0  0  0  0  0  0  0  0  0
   -0.7110    2.9810   -0.4640 C   0  0  0  0  0  0  0  0  0  0  0  0
   -1.3520    2.8060   -1.5200 O   0  0  0  0  0  0  0  0  0  0  0  0
  2  1  1  6
  2  3  1  0
  2  4  1  0
  2 34  1  0
  4  5  1  0
  5  6  1  0
  6  7  1  0
  7  8  1  0
  7 34  1  0
  8  9  2  0
  8 10  1  0
 10 11  1  6
 10 19  1  0
 10 25  1  0
 11 12  1  0
 12 13  2  0
 12 14  1  0
 14 15  1  0
 15 16  1  0
 16 17  1  0
 17 18  1  0
 19 20  2  0
 19 21  1  0
 21 22  1  0
 22 23  2  0
 22 24  1  0
 24 25  1  0
 25 26  1  0
 26 27  2  0
 26 28  1  0
 28 29  1  0
 29 30  1  0
 29 31  1  0
 31 32  1  0
 31 33  1  0
 34 35  2  0
M  END
