
     RDKit          3D

 35 37  0  0  0  0  0  0  0  0999 V2000
   -2.1320    4.7300   -3.2730 N   0  0  0  0  0  0  0  0  0  0  0  0
   -1.2650    3.5830   -3.1180 C   0  0  0  0  0  0  0  0  0  0  0  0
   -1.5230    2.9700   -1.7920 C   0  0  0  0  0  0  0  0  0  0  0  0
   -2.3960    3.5010   -1.0600 O   0  0  0  0  0  0  0  0  0  0  0  0
   -0.8250    1.8430   -1.3620 O   0  0  0  0  0  0  0  0  0  0  0  0
   -1.1130    1.3250   -0.1210 C   0  0  0  0  0  0  0  0  0  0  0  0
   -2.0170    1.9190    0.5710 O   0  0  0  0  0  0  0  0  0  0  0  0
   -0.4880    0.1400    0.5030 C   0  0  2  0  0  0  0  0  0  0  0  0
   -1.2630   -0.1580    1.6320 O   0  0  0  0  0  0  0  0  0  0  0  0
   -1.7690   -1.4140    1.6930 C   0  0  0  0  0  0  0  0  0  0  0  0
   -2.7040   -1.6590    0.5240 C   0  0  1  0  0  0  0  0  0  0  0  0
   -3.2070   -2.9710    0.6230 O   0  0  0  0  0  0  0  0  0  0  0  0
   -4.5110   -3.3610    0.6730 C   0  0  0  0  0  0  0  0  0  0  0  0
   -4.8640   -4.2700    1.4590 O   0  0  0  0  0  0  0  0  0  0  0  0
   -5.4310   -2.7290   -0.1630 O   0  0  0  0  0  0  0  0  0  0  0  0
   -4.9340   -1.0800   -0.6340 P   0  0  0  0  0  0  0  0  0  0  0  0
   -4.2080   -1.2440   -2.2220 O   0  0  0  0  0  0  0  0  0  0  0  0
   -3.6810   -0.6790    0.5330 O   0  0  0  0  0  0  0  0  0  0  0  0
    0.9210    0.5540    0.9820 C   0  0  1  0  0  0  0  0  0  0  0  0
    1.4610   -0.5070    1.7200 O   0  0  0  0  0  0  0  0  0  0  0  0
    1.6220   -0.1410    3.0380 C   0  0  0  0  0  0  0  0  0  0  0  0
    2.2320   -1.2060    3.8850 C   0  0  0  0  0  0  0  0  0  0  0  0
    1.1570   -2.7070    3.8650 P   0  0  0  0  0  0  0  0  0  0  0  0
   -0.2040   -2.7700    4.6170 O   0  0  0  0  0  0  0  0  0  0  0  0
    1.7270    0.9900   -0.1380 C   0  0  0  0  0  0  0  0  0  0  0  0
    1.4600    2.1830   -0.5870 O   0  0  0  0  0  0  0  0  0  0  0  0
    2.7630    0.3430   -0.8400 N   0  0  0  0  0  0  0  0  0  0  0  0
    3.5290    1.0970   -1.8110 C   0  0  0  0  0  0  0  0  0  0  0  0
    4.6240    0.3810   -2.4570 C   0  0  0  0  0  0  0  0  0  0  0  0
    4.9070   -0.8290   -2.2250 N   0  0  0  0  0  0  0  0  0  0  0  0
    4.1540   -1.5770   -1.2930 C   0  0  0  0  0  0  0  0  0  0  0  0
    4.2340   -2.8760   -0.8780 N   0  0  0  0  0  0  0  0  0  0  0  0
    3.2960   -3.0740   -0.0110 O   0  0  0  0  0  0  0  0  0  0  0  0
    2.6170   -1.9980    0.1640 N   0  0  0  0  0  0  0  0  0  0  0  0
    3.0970   -1.0130   -0.6070 C   0  0  0  0  0  0  0  0  0  0  0  0
  1  2  1  0
  2  3  1  0
  3  4  2  0
  3  5  1  0
  5  6  1  0
  6  7  2  0
  6  8  1  0
  8  9  1  1
  8 19  1  0
  9 10  1  0
 11 10  1  1
 11 12  1  0
 11 18  1  0
 12 13  1  0
 13 14  2  0
 13 15  1  0
 15 16  1  0
 16 17  1  0
 16 18  1  0
 19 20  1  6
 19 25  1  0
 20 21  1  0
 21 22  1  0
 22 23  1  0
 23 24  2  0
 25 26  2  0
 25 27  1  0
 27 28  1  0
 27 35  1  0
 28 29  1  0
 29 30  2  0
 30 31  1  0
 31 32  2  0
 31 35  1  0
 32 33  1  0
 33 34  1  0
 34 35  2  0
M  END
