
     RDKit          3D

 32 33  0  0  0  0  0  0  0  0999 V2000
    6.1860    1.7570    0.7370 C   0  0  0  0  0  0  0  0  0  0  0  0
    4.8410    1.9750    0.4980 O   0  0  0  0  0  0  0  0  0  0  0  0
    3.8750    1.8950    1.9260 P   0  0  0  0  0  0  0  0  0  0  0  0
    4.8180    1.1740    3.2150 O   0  0  0  0  0  0  0  0  0  0  0  0
    2.5010    0.8810    1.6150 O   0  0  0  0  0  0  0  0  0  0  0  0
    2.9330   -0.1950    0.3540 P   0  0  0  0  0  0  0  0  0  0  0  0
    4.3860   -0.9050    0.0180 O   0  0  0  0  0  0  0  0  0  0  0  0
    4.4620   -1.5920   -1.0850 C   0  0  0  0  0  0  0  0  0  0  0  0
    5.6530   -2.1050   -1.2450 O   0  0  0  0  0  0  0  0  0  0  0  0
    3.6380   -1.8480   -1.9980 O   0  0  0  0  0  0  0  0  0  0  0  0
    2.4430   -1.6050   -2.2930 O   0  0  0  0  0  0  0  0  0  0  0  0
    1.5990   -0.6630   -1.2130 P   0  0  0  0  0  0  0  0  0  0  0  0
   -0.0700    0.0390   -1.3320 C   0  0  2  0  0  0  0  0  0  0  0  0
   -0.4960    0.7340   -3.0230 P   0  0  0  0  0  0  0  0  0  0  0  0
    0.5480    1.6000   -3.7350 O   0  0  0  0  0  0  0  0  0  0  0  0
   -0.1480    1.2270   -0.3760 C   0  0  0  0  0  0  0  0  0  0  0  0
   -1.8350    1.8760   -0.4790 S   0  0  0  0  0  0  0  0  0  0  0  0
   -2.9340    0.4180   -0.2760 C   0  0  1  0  0  0  0  0  0  0  0  0
   -4.2720    0.8830   -0.4490 N   0  0  0  0  0  0  0  0  0  0  0  0
   -5.1570    0.7780    0.6640 C   0  0  0  0  0  0  0  0  0  0  0  0
   -4.7410    0.2810    1.7630 O   0  0  0  0  0  0  0  0  0  0  0  0
   -6.4740    1.1890    0.6290 O   0  0  0  0  0  0  0  0  0  0  0  0
   -7.2520    1.0560    1.7270 O   0  0  0  0  0  0  0  0  0  0  0  0
   -7.5780    2.1960    2.2520 O   0  0  0  0  0  0  0  0  0  0  0  0
   -2.4900   -0.5640   -1.3420 C   0  0  0  0  0  0  0  0  0  0  0  0
   -1.1260   -0.9130   -1.0270 N   0  0  0  0  0  0  0  0  0  0  0  0
   -0.7970   -2.1320   -0.4140 C   0  0  0  0  0  0  0  0  0  0  0  0
    0.4420   -2.4030   -0.1700 O   0  0  0  0  0  0  0  0  0  0  0  0
   -1.7280   -3.1710   -0.0000 C   0  0  0  0  0  0  0  0  0  0  0  0
   -2.9690   -3.1230   -0.1190 O   0  0  0  0  0  0  0  0  0  0  0  0
   -1.0040   -4.7010    0.7700 P   0  0  0  0  0  0  0  0  0  0  0  0
   -1.7090   -6.0730    0.5960 O   0  0  0  0  0  0  0  0  0  0  0  0
  1  2  1  0
  2  3  1  0
  3  4  1  0
  3  5  1  0
  5  6  1  0
  6  7  1  0
  6 12  1  0
  7  8  1  0
  8  9  2  0
  8 10  1  0
 10 11  1  0
 11 12  1  0
 13 12  1  6
 13 14  1  0
 13 16  1  0
 13 26  1  0
 14 15  2  0
 16 17  1  0
 17 18  1  0
 18 19  1  6
 18 25  1  0
 19 20  1  0
 20 21  2  0
 20 22  1  0
 22 23  1  0
 23 24  1  0
 25 26  1  0
 26 27  1  0
 27 28  2  0
 27 29  1  0
 29 30  2  0
 29 31  1  0
 31 32  2  0
M  END
