
     RDKit          3D

 31 32  0  0  0  0  0  0  0  0999 V2000
    6.2300   -1.3930    0.3930 C   0  0  0  0  0  0  0  0  0  0  0  0
    5.8880   -1.4860   -0.9490 O   0  0  0  0  0  0  0  0  0  0  0  0
    5.2190   -0.0550   -1.5970 P   0  0  0  0  0  0  0  0  0  0  0  0
    3.5170    0.0590   -1.4400 O   0  0  0  0  0  0  0  0  0  0  0  0
    3.1010    0.0320    0.2390 P   0  0  0  0  0  0  0  0  0  0  0  0
    2.6510    1.6250    0.8000 O   0  0  0  0  0  0  0  0  0  0  0  0
    1.7550   -1.0490    0.4250 O   0  0  0  0  0  0  0  0  0  0  0  0
    0.9370   -0.6260    1.8680 P   0  0  0  0  0  0  0  0  0  0  0  0
   -0.7680   -0.7800    1.7730 O   0  0  0  0  0  0  0  0  0  0  0  0
   -1.2970   -0.5250    0.5360 C   0  0  1  0  0  0  0  0  0  0  0  0
   -0.8030   -1.4140   -0.5590 C   0  0  0  0  0  0  0  0  0  0  0  0
   -2.0560   -1.8290   -1.3090 C   0  0  0  0  0  0  0  0  0  0  0  0
   -3.1130   -1.2020   -0.6960 O   0  0  0  0  0  0  0  0  0  0  0  0
   -2.7810   -0.9320    0.6080 C   0  0  1  0  0  0  0  0  0  0  0  0
   -2.8550   -2.1060    1.5340 C   0  0  0  0  0  0  0  0  0  0  0  0
   -3.4500    0.2470    1.1350 N   0  0  0  0  0  0  0  0  0  0  0  0
   -4.7620   -0.0360    1.6260 C   0  0  0  0  0  0  0  0  0  0  0  0
   -5.3130    1.1310    2.1440 O   0  0  0  0  0  0  0  0  0  0  0  0
   -5.4520    2.3910    1.0150 S   0  0  0  0  0  0  0  0  0  0  0  0
   -3.5300    1.1660    0.1160 O   0  0  0  0  0  0  0  0  0  0  0  0
   -2.3600    1.1000   -0.5470 N   0  0  0  0  0  0  0  0  0  0  0  0
   -2.3340    1.3110   -1.9370 C   0  0  0  0  0  0  0  0  0  0  0  0
   -1.2450    1.2540   -2.5470 O   0  0  0  0  0  0  0  0  0  0  0  0
   -3.5450    1.5900   -2.6720 C   0  0  0  0  0  0  0  0  0  0  0  0
   -4.6850    1.6620   -2.1420 O   0  0  0  0  0  0  0  0  0  0  0  0
   -3.5050    1.8010   -4.0520 O   0  0  0  0  0  0  0  0  0  0  0  0
   -1.2420    0.8240    0.1800 O   0  0  0  0  0  0  0  0  0  0  0  0
    6.1520    1.7690   -0.8950 P   0  0  0  0  0  0  0  0  0  0  0  0
    6.3500    1.8290    0.8180 O   0  0  0  0  0  0  0  0  0  0  0  0
    7.9650    2.2960   -1.9780 P   0  0  0  0  0  0  0  0  0  0  0  0
    9.1760    1.3630   -2.1660 O   0  0  0  0  0  0  0  0  0  0  0  0
  1  2  1  0
  2  3  1  0
  3  4  1  0
  3 28  1  0
  4  5  1  0
  5  6  1  0
  5  7  1  0
  7  8  1  0
  8  9  1  0
 10  9  1  1
 10 11  1  0
 10 14  1  0
 10 27  1  0
 11 12  1  0
 12 13  1  0
 13 14  1  0
 14 15  1  1
 14 16  1  0
 16 17  1  0
 16 20  1  0
 17 18  1  0
 18 19  1  0
 20 21  1  0
 21 22  1  0
 21 27  1  0
 22 23  2  0
 22 24  1  0
 24 25  2  0
 24 26  1  0
 28 29  1  0
 28 30  1  0
 30 31  2  0
M  END
