
     RDKit          3D

 31 33  0  0  0  0  0  0  0  0999 V2000
    6.5300    4.2160   -0.7040 O   0  0  0  0  0  0  0  0  0  0  0  0
    5.7820    2.9190   -1.0490 P   0  0  0  0  0  0  0  0  0  0  0  0
    6.7180    1.4860   -1.4870 O   0  0  0  0  0  0  0  0  0  0  0  0
    6.7820    0.3860   -0.6240 C   0  0  0  0  0  0  0  0  0  0  0  0
    5.8210    0.0830    0.2180 C   0  0  0  0  0  0  0  0  0  0  0  0
    4.6200    0.7540    0.4070 O   0  0  0  0  0  0  0  0  0  0  0  0
    4.0410    0.7870    1.6060 O   0  0  0  0  0  0  0  0  0  0  0  0
    2.3410    0.9800    1.4110 P   0  0  0  0  0  0  0  0  0  0  0  0
    2.0520    1.6790   -0.1530 O   0  0  0  0  0  0  0  0  0  0  0  0
    1.2970   -0.9190    1.6280 P   0  0  0  0  0  0  0  0  0  0  0  0
   -0.3370   -0.7590    2.1000 O   0  0  0  0  0  0  0  0  0  0  0  0
   -1.4470   -1.2990    0.8780 P   0  0  0  0  0  0  0  0  0  0  0  0
   -1.3450   -0.0610   -0.5420 C   0  0  0  0  0  0  0  0  0  0  0  0
   -2.4280    0.8100   -0.0800 N   0  0  0  0  0  0  0  0  0  0  0  0
   -3.4950   -0.0640    0.3490 C   0  0  2  0  0  0  0  0  0  0  0  0
   -4.0300   -0.9330   -0.7580 C   0  0  0  0  0  0  0  0  0  0  0  0
   -5.0730   -1.6840   -0.2320 O   0  0  0  0  0  0  0  0  0  0  0  0
   -6.1880   -0.9530    0.0880 C   0  0  0  0  0  0  0  0  0  0  0  0
   -5.9300    0.4170    0.4010 N   0  0  0  0  0  0  0  0  0  0  0  0
   -6.9880    1.3880    0.3120 C   0  0  0  0  0  0  0  0  0  0  0  0
   -8.1270    1.0320   -0.0360 O   0  0  0  0  0  0  0  0  0  0  0  0
   -6.7740    2.7250    0.6080 O   0  0  0  0  0  0  0  0  0  0  0  0
   -4.6110    0.8090    0.8010 C   0  0  0  0  0  0  0  0  0  0  0  0
   -4.4590    1.8380    1.4940 O   0  0  0  0  0  0  0  0  0  0  0  0
   -3.0380   -0.7880    1.4410 O   0  0  0  0  0  0  0  0  0  0  0  0
    1.4440   -2.1750   -0.1490 P   0  0  0  0  0  0  0  0  0  0  0  0
    1.5230   -1.2160   -1.5700 O   0  0  0  0  0  0  0  0  0  0  0  0
    2.7930   -3.2800   -0.0410 O   0  0  0  0  0  0  0  0  0  0  0  0
    6.1690   -1.0640    0.9440 O   0  0  0  0  0  0  0  0  0  0  0  0
    7.4860   -1.3880    0.5560 C   0  0  0  0  0  0  0  0  0  0  0  0
    7.8120   -0.5240   -0.5120 O   0  0  0  0  0  0  0  0  0  0  0  0
  1  2  2  0
  2  3  1  0
  3  4  1  0
  4  5  2  0
  4 31  1  0
  5  6  1  0
  5 29  1  0
  6  7  1  0
  7  8  1  0
  8  9  1  0
  8 10  1  0
 10 11  1  0
 10 26  1  0
 11 12  1  0
 12 13  1  0
 12 25  1  0
 13 14  1  0
 14 15  1  0
 15 16  1  6
 15 23  1  0
 15 25  1  0
 16 17  1  0
 17 18  1  0
 18 19  1  0
 19 20  1  0
 19 23  1  0
 20 21  2  0
 20 22  1  0
 23 24  2  0
 26 27  1  0
 26 28  1  0
 29 30  1  0
 30 31  1  0
M  END
