
     RDKit          3D

 32 34  0  0  0  0  0  0  0  0999 V2000
   -7.4060    1.0300   -2.5600 N   0  0  0  0  0  0  0  0  0  0  0  0
   -6.9530    0.4950   -1.3340 C   0  0  0  0  0  0  0  0  0  0  0  0
   -5.6440    0.2610   -1.1410 N   0  0  0  0  0  0  0  0  0  0  0  0
   -5.1460   -0.2510    0.0110 C   0  0  0  0  0  0  0  0  0  0  0  0
   -6.0330   -0.5420    1.0280 C   0  0  0  0  0  0  0  0  0  0  0  0
   -5.2810   -1.0330    2.0480 N   0  0  0  0  0  0  0  0  0  0  0  0
   -3.9930   -1.0360    1.6570 C   0  0  0  0  0  0  0  0  0  0  0  0
   -3.8970   -0.5580    0.4090 N   0  0  0  0  0  0  0  0  0  0  0  0
   -2.7370   -0.3670   -0.4370 C   0  0  2  0  0  0  0  0  0  0  0  0
   -1.6740   -1.1460   -0.0290 O   0  0  0  0  0  0  0  0  0  0  0  0
   -0.4980   -0.5440   -0.3970 C   0  0  2  0  0  0  0  0  0  0  0  0
    0.4750   -0.4850    0.7850 C   0  0  0  0  0  0  0  0  0  0  0  0
    1.6630    0.1190    0.4280 O   0  0  0  0  0  0  0  0  0  0  0  0
    2.8250    0.2910    1.4960 P   0  0  0  0  0  0  0  0  0  0  0  0
    3.5000    1.7910    1.8190 O   0  0  0  0  0  0  0  0  0  0  0  0
    3.3530   -1.0260    2.4140 O   0  0  0  0  0  0  0  0  0  0  0  0
    3.9730    0.0040    0.5280 O   0  0  0  0  0  0  0  0  0  0  0  0
    4.5290   -1.4080    0.0210 P   0  0  0  0  0  0  0  0  0  0  0  0
    5.7650   -2.2490    0.7690 O   0  0  0  0  0  0  0  0  0  0  0  0
    3.7040   -2.2390   -1.1860 O   0  0  0  0  0  0  0  0  0  0  0  0
    5.6000   -0.7870   -0.9770 N   0  0  0  0  0  0  0  0  0  0  0  0
    6.4020    0.6270   -0.5550 P   0  0  0  0  0  0  0  0  0  0  0  0
    7.8290    0.2420   -0.9330 O   0  0  0  0  0  0  0  0  0  0  0  0
    6.8740    0.8880    1.0180 O   0  0  0  0  0  0  0  0  0  0  0  0
    6.4820    1.9030   -1.6440 O   0  0  0  0  0  0  0  0  0  0  0  0
   -0.8000    0.8890   -0.7740 C   0  0  1  0  0  0  0  0  0  0  0  0
   -0.8680    1.0280   -2.1450 O   0  0  0  0  0  0  0  0  0  0  0  0
   -2.2150    1.0360   -0.1970 C   0  0  1  0  0  0  0  0  0  0  0  0
   -2.9310    1.9980   -0.8700 O   0  0  0  0  0  0  0  0  0  0  0  0
   -7.3600   -0.3040    0.8290 C   0  0  0  0  0  0  0  0  0  0  0  0
   -8.1680   -0.5780    1.7770 O   0  0  0  0  0  0  0  0  0  0  0  0
   -7.8010    0.2060   -0.3360 N   0  0  0  0  0  0  0  0  0  0  0  0
  1  2  1  0
  2  3  1  0
  2 32  2  0
  3  4  1  0
  4  5  2  0
  4  8  1  0
  5  6  1  0
  5 30  1  0
  6  7  2  0
  7  8  1  0
  9  8  1  1
  9 10  1  0
  9 28  1  0
 10 11  1  0
 11 12  1  1
 11 26  1  0
 12 13  1  0
 13 14  1  0
 14 15  1  0
 14 16  1  0
 14 17  1  0
 17 18  1  0
 18 19  1  0
 18 20  1  0
 18 21  1  0
 21 22  1  0
 22 23  1  0
 22 24  1  0
 22 25  1  0
 26 27  1  6
 26 28  1  0
 28 29  1  6
 30 31  2  0
 30 32  1  0
M  CHG  1  32   1
M  END
