
     RDKit          3D

 32 33  0  0  0  0  0  0  0  0999 V2000
    0.3560    4.8010   -2.5770 O   0  0  0  0  0  0  0  0  0  0  0  0
    0.4730    3.4970   -1.7820 P   0  0  0  0  0  0  0  0  0  0  0  0
    0.4900    1.8870   -2.5820 C   0  0  0  0  0  0  0  0  0  0  0  0
    0.0850    0.7290   -1.9270 N   0  0  0  0  0  0  0  0  0  0  0  0
    0.2100   -0.5950   -3.0170 S   0  0  0  0  0  0  0  0  0  0  0  0
   -0.4720   -2.0440   -2.4910 O   0  0  0  0  0  0  0  0  0  0  0  0
   -0.4060   -2.1920   -0.8090 P   0  0  0  0  0  0  0  0  0  0  0  0
   -1.6600   -3.2000   -0.1580 O   0  0  0  0  0  0  0  0  0  0  0  0
   -2.5780   -3.4330   -1.0750 O   0  0  0  0  0  0  0  0  0  0  0  0
   -3.8360   -4.3850   -0.3090 P   0  0  0  0  0  0  0  0  0  0  0  0
   -0.4200   -0.5810    0.1180 C   0  0  2  0  0  0  0  0  0  0  0  0
    0.5730   -0.9530    1.6630 P   0  0  0  0  0  0  0  0  0  0  0  0
    1.0760    0.1300    2.6180 O   0  0  0  0  0  0  0  0  0  0  0  0
   -1.7640   -0.3680    0.6250 N   0  0  0  0  0  0  0  0  0  0  0  0
   -2.1070   -0.4460    2.0460 C   0  0  0  0  0  0  0  0  0  0  0  0
   -3.1310    0.5420    2.4470 C   0  0  0  0  0  0  0  0  0  0  0  0
   -3.0950    1.1530    3.5670 O   0  0  0  0  0  0  0  0  0  0  0  0
   -4.1720    0.8120    1.5700 O   0  0  0  0  0  0  0  0  0  0  0  0
   -3.9960    0.4970    0.2630 O   0  0  0  0  0  0  0  0  0  0  0  0
   -2.8510   -0.0750   -0.2440 C   0  0  0  0  0  0  0  0  0  0  0  0
   -2.7160   -0.3560   -1.4600 O   0  0  0  0  0  0  0  0  0  0  0  0
    0.2480    0.5480   -0.5650 C   0  0  1  0  0  0  0  0  0  0  0  0
    1.5990    0.5400   -0.2300 O   0  0  0  0  0  0  0  0  0  0  0  0
    2.4080   -0.3820   -0.7900 C   0  0  0  0  0  0  0  0  0  0  0  0
    3.8320   -0.2740   -0.3650 C   0  0  0  0  0  0  0  0  0  0  0  0
    4.6780   -1.0280   -0.7790 O   0  0  0  0  0  0  0  0  0  0  0  0
    4.3450    1.0220    0.8110 P   0  0  0  0  0  0  0  0  0  0  0  0
    4.1620    0.4040    2.4330 O   0  0  0  0  0  0  0  0  0  0  0  0
    5.9580    1.5510    0.5520 O   0  0  0  0  0  0  0  0  0  0  0  0
   -0.2660    1.7810    0.1430 C   0  0  0  0  0  0  0  0  0  0  0  0
    0.4890    2.4560    0.9280 O   0  0  0  0  0  0  0  0  0  0  0  0
   -1.5310    2.2860    0.0270 O   0  0  0  0  0  0  0  0  0  0  0  0
  1  2  2  0
  2  3  1  0
  3  4  1  0
  4  5  1  0
  4 22  1  0
  5  6  1  0
  6  7  1  0
  7  8  1  0
  7 11  1  0
  8  9  1  0
  9 10  1  0
 11 12  1  0
 11 14  1  1
 11 22  1  0
 12 13  2  0
 14 15  1  0
 14 20  1  0
 15 16  1  0
 16 17  2  0
 16 18  1  0
 18 19  1  0
 19 20  1  0
 20 21  2  0
 22 23  1  6
 22 30  1  0
 23 24  1  0
 24 25  1  0
 25 26  2  0
 25 27  1  0
 27 28  1  0
 27 29  1  0
 30 31  2  0
 30 32  1  0
M  END
