
     RDKit          3D

 41 46  0  0  0  0  0  0  0  0999 V2000
    6.5300    2.1200    4.5600 C   0  0  0  0  0  0  0  0  0  0  0  0
    7.5120    1.4620    3.6400 C   0  0  0  0  0  0  0  0  0  0  0  0
    7.3060    1.8370    2.1950 C   0  0  2  0  0  0  0  0  0  0  0  0
    7.4580    3.2520    2.0680 N   0  0  0  0  0  0  0  0  0  0  0  0
    5.8760    1.4690    1.7560 C   0  0  0  0  0  0  0  0  0  0  0  0
    5.3450    2.0030    0.5700 C   0  0  0  0  0  0  0  0  0  0  0  0
    3.6880    1.3050    0.5080 S   0  0  0  0  0  0  0  0  0  0  0  0
    3.8330    0.3770    2.0380 C   0  0  0  0  0  0  0  0  0  0  0  0
    2.8100   -0.4450    2.6320 C   0  0  0  0  0  0  0  0  0  0  0  0
    1.6350   -0.6450    2.1860 C   0  0  0  0  0  0  0  0  0  0  0  0
    0.9410   -0.1630    1.0050 C   0  0  0  0  0  0  0  0  0  0  0  0
   -0.3400   -0.5070    0.7530 C   0  0  0  0  0  0  0  0  0  0  0  0
   -0.8930   -1.3230    1.7000 O   0  0  0  0  0  0  0  0  0  0  0  0
   -1.4770   -0.6520    2.8280 C   0  0  0  0  0  0  0  0  0  0  0  0
   -1.0000   -0.0270   -0.4090 C   0  0  0  0  0  0  0  0  0  0  0  0
   -0.4090    1.0300   -1.1280 C   0  0  0  0  0  0  0  0  0  0  0  0
   -0.9210    1.5210   -2.2970 C   0  0  0  0  0  0  0  0  0  0  0  0
   -0.2380    2.6510   -3.0190 C   0  0  0  0  0  0  0  0  0  0  0  0
    0.9480    3.2190   -2.5540 C   0  0  0  0  0  0  0  0  0  0  0  0
    1.2980    4.4990   -3.7940 S   0  0  0  0  0  0  0  0  0  0  0  0
   -0.2540    4.0670   -4.7870 C   0  0  0  0  0  0  0  0  0  0  0  0
   -0.5020    4.8680   -6.0170 C   0  0  1  0  0  0  0  0  0  0  0  0
   -1.3110    4.2840   -7.1190 C   0  0  0  0  0  0  0  0  0  0  0  0
   -1.9940    5.2190   -6.2000 C   0  0  0  0  0  0  0  0  0  0  0  0
   -0.6730    3.1990   -4.1240 N   0  0  0  0  0  0  0  0  0  0  0  0
   -2.0560    0.9460   -2.7680 C   0  0  0  0  0  0  0  0  0  0  0  0
   -2.6700   -0.1040   -2.0800 C   0  0  0  0  0  0  0  0  0  0  0  0
   -2.1580   -0.6110   -0.8930 C   0  0  0  0  0  0  0  0  0  0  0  0
   -2.8640   -1.6540   -0.2440 N   0  0  0  0  0  0  0  0  0  0  0  0
   -3.8540   -2.4920   -0.8360 C   0  0  0  0  0  0  0  0  0  0  0  0
   -4.1520   -2.3690   -2.0160 O   0  0  0  0  0  0  0  0  0  0  0  0
   -4.5060   -3.4910   -0.0400 N   0  0  0  0  0  0  0  0  0  0  0  0
   -5.4870   -4.3720   -0.5410 C   0  0  0  0  0  0  0  0  0  0  0  0
   -5.8670   -4.5120   -1.8470 C   0  0  0  0  0  0  0  0  0  0  0  0
   -6.8160   -5.5030   -1.8570 N   0  0  0  0  0  0  0  0  0  0  0  0
   -6.9860   -5.9170   -0.6600 O   0  0  0  0  0  0  0  0  0  0  0  0
   -6.2080   -5.2720    0.2000 C   0  0  0  0  0  0  0  0  0  0  0  0
   -6.1940   -5.5370    1.6540 C   0  0  1  0  0  0  0  0  0  0  0  0
   -7.0130   -6.6920    2.1410 C   0  0  0  0  0  0  0  0  0  0  0  0
   -5.4970   -6.6460    2.2990 C   0  0  0  0  0  0  0  0  0  0  0  0
    5.0800    0.6600    2.4550 C   0  0  0  0  0  0  0  0  0  0  0  0
  1  2  1  0
  2  3  1  0
  3  4  1  1
  3  5  1  0
  5  6  2  0
  5 41  1  0
  6  7  1  0
  7  8  1  0
  8  9  1  0
  8 41  2  0
  9 10  2  3
 10 11  1  0
 11 12  2  3
 12 13  1  0
 12 15  1  0
 13 14  1  0
 15 16  2  0
 15 28  1  0
 16 17  1  0
 17 18  1  0
 17 26  2  0
 18 19  2  0
 18 25  1  0
 19 20  1  0
 20 21  1  0
 22 21  1  1
 21 25  2  0
 22 23  1  0
 22 24  1  0
 23 24  1  0
 26 27  1  0
 27 28  2  0
 28 29  1  0
 29 30  1  0
 30 31  2  0
 30 32  1  0
 32 33  1  0
 33 34  1  0
 33 37  2  0
 34 35  2  0
 35 36  1  0
 36 37  1  0
 38 37  1  6
 38 39  1  0
 38 40  1  0
 39 40  1  0
M  CHG  1   4   1
M  END
