
     RDKit          3D

 41 45  0  0  0  0  0  0  0  0999 V2000
   -7.8940    2.3650   -1.2610 C   0  0  0  0  0  0  0  0  0  0  0  0
   -6.8000    1.9160   -0.4040 C   0  0  0  0  0  0  0  0  0  0  0  0
   -5.8000    1.1030   -0.6410 C   0  0  0  0  0  0  0  0  0  0  0  0
   -4.8890    0.8560    0.4090 C   0  0  0  0  0  0  0  0  0  0  0  0
   -3.8030    0.0200    0.2790 C   0  0  0  0  0  0  0  0  0  0  0  0
   -2.9700   -0.1270    1.4650 C   0  0  0  0  0  0  0  0  0  0  0  0
   -1.6480    0.1540    1.5070 C   0  0  0  0  0  0  0  0  0  0  0  0
   -0.8930    0.0970    2.6780 C   0  0  0  0  0  0  0  0  0  0  0  0
    0.3740    0.3630    2.7170 O   0  0  0  0  0  0  0  0  0  0  0  0
    1.5110    0.6870    2.1770 C   0  0  0  0  0  0  0  0  0  0  0  0
    2.0380   -0.2060    1.0810 C   0  0  0  0  0  0  0  0  0  0  0  0
    1.3740   -1.1140    0.5610 O   0  0  0  0  0  0  0  0  0  0  0  0
    3.3750    0.0660    0.6820 N   0  0  0  0  0  0  0  0  0  0  0  0
    4.0280   -0.6900   -0.3330 C   0  0  0  0  0  0  0  0  0  0  0  0
    5.4560   -0.1960   -0.4410 C   0  0  0  0  0  0  0  0  0  0  0  0
    5.8380    0.7470    0.3000 O   0  0  0  0  0  0  0  0  0  0  0  0
    6.3700   -0.7650   -1.3450 N   0  0  0  0  0  0  0  0  0  0  0  0
    7.7280   -0.3920   -1.5220 C   0  0  0  0  0  0  0  0  0  0  0  0
    8.6070   -1.2790   -2.1630 C   0  0  0  0  0  0  0  0  0  0  0  0
    9.9360   -1.0280   -2.3610 C   0  0  0  0  0  0  0  0  0  0  0  0
   10.8260   -2.0310   -3.0410 C   0  0  0  0  0  0  0  0  0  0  0  0
   10.4390    0.1710   -1.9060 C   0  0  0  0  0  0  0  0  0  0  0  0
    9.6260    1.0860   -1.2700 C   0  0  0  0  0  0  0  0  0  0  0  0
   10.1910    2.2600   -0.8430 O   0  0  0  0  0  0  0  0  0  0  0  0
    9.5280    3.3030   -0.1860 C   0  0  0  0  0  0  0  0  0  0  0  0
    8.2610    0.7910   -1.0820 C   0  0  0  0  0  0  0  0  0  0  0  0
   -1.5510   -0.2750    3.8810 C   0  0  0  0  0  0  0  0  0  0  0  0
   -2.8660   -0.5490    3.7800 C   0  0  0  0  0  0  0  0  0  0  0  0
   -3.6550   -0.5100    2.6650 C   0  0  0  0  0  0  0  0  0  0  0  0
   -4.8960   -0.8010    2.6870 O   0  0  0  0  0  0  0  0  0  0  0  0
   -6.1270   -1.1000    2.7650 C   0  0  0  0  0  0  0  0  0  0  0  0
   -6.9100   -1.5900    1.7830 C   0  0  0  0  0  0  0  0  0  0  0  0
   -8.2650   -1.7980    2.2970 C   0  0  0  0  0  0  0  0  0  0  0  0
   -8.2070   -1.3760    3.6980 C   0  0  0  0  0  0  0  0  0  0  0  0
   -7.0050   -0.9860    3.9560 C   0  0  0  0  0  0  0  0  0  0  0  0
   -3.5990   -0.5950   -0.9070 C   0  0  0  0  0  0  0  0  0  0  0  0
   -4.4870   -0.3650   -1.9650 C   0  0  0  0  0  0  0  0  0  0  0  0
   -5.5770    0.4730   -1.8450 C   0  0  0  0  0  0  0  0  0  0  0  0
   -6.2340    0.5160   -2.9890 C   0  0  0  0  0  0  0  0  0  0  0  0
   -5.5970   -0.3500   -4.0270 C   0  0  0  0  0  0  0  0  0  0  0  0
   -4.4290   -0.9450   -3.3410 C   0  0  0  0  0  0  0  0  0  0  0  0
  1  2  1  0
  2  3  2  3
  3  4  1  0
  3 38  1  0
  4  5  2  0
  5  6  1  0
  5 36  1  0
  6  7  2  0
  6 29  1  0
  7  8  1  0
  8  9  1  0
  8 27  2  0
  9 10  1  0
 10 11  1  0
 11 12  2  0
 11 13  1  0
 13 14  1  0
 14 15  1  0
 15 16  2  0
 15 17  1  0
 17 18  1  0
 18 19  2  0
 18 26  1  0
 19 20  1  0
 20 21  1  0
 20 22  2  0
 22 23  1  0
 23 24  1  0
 23 26  2  0
 24 25  1  0
 27 28  1  0
 28 29  2  0
 29 30  1  0
 30 31  1  0
 31 32  2  0
 31 35  1  0
 32 33  1  0
 33 34  1  0
 34 35  2  0
 36 37  2  0
 37 38  1  0
 37 41  1  0
 38 39  2  0
 39 40  1  0
 40 41  1  0
M  END
