
     RDKit          3D

 41 45  0  0  0  0  0  0  0  0999 V2000
   -4.4690    0.0210   -4.1630 C   0  0  0  0  0  0  0  0  0  0  0  0
   -3.1310    0.2300   -4.4670 O   0  0  0  0  0  0  0  0  0  0  0  0
   -2.6950    1.4580   -4.0260 C   0  0  0  0  0  0  0  0  0  0  0  0
   -2.8200    1.6400   -2.5290 C   0  0  0  0  0  0  0  0  0  0  0  0
   -2.0560    0.6610   -1.8600 O   0  0  0  0  0  0  0  0  0  0  0  0
   -2.0710    0.7000   -0.4540 C   0  0  0  0  0  0  0  0  0  0  0  0
   -3.2590    0.6850    0.1070 C   0  0  0  0  0  0  0  0  0  0  0  0
   -3.4480    0.7210    1.5690 C   0  0  0  0  0  0  0  0  0  0  0  0
   -4.6520    0.7060    2.0850 C   0  0  0  0  0  0  0  0  0  0  0  0
   -5.0220    0.7360    3.4960 C   0  0  0  0  0  0  0  0  0  0  0  0
   -5.8680    1.9730    3.8290 C   0  0  0  0  0  0  0  0  0  0  0  0
   -6.2130    1.9970    5.1590 O   0  0  0  0  0  0  0  0  0  0  0  0
   -2.2240    0.7750    2.3460 C   0  0  0  0  0  0  0  0  0  0  0  0
   -2.2190    0.8100    3.6050 O   0  0  0  0  0  0  0  0  0  0  0  0
   -0.9400    0.7880    1.6140 C   0  0  0  0  0  0  0  0  0  0  0  0
   -0.8320    0.7540    0.3120 C   0  0  0  0  0  0  0  0  0  0  0  0
    0.4240    0.7680   -0.3590 N   0  0  0  0  0  0  0  0  0  0  0  0
    1.4010   -0.2620   -0.0680 C   0  0  2  0  0  0  0  0  0  0  0  0
    2.6630   -0.0460   -0.8700 C   0  0  0  0  0  0  0  0  0  0  0  0
    3.3140    1.2510   -0.5760 C   0  0  0  0  0  0  0  0  0  0  0  0
    4.2100    1.2490    0.4990 C   0  0  0  0  0  0  0  0  0  0  0  0
    4.8960    2.3820    0.8820 C   0  0  0  0  0  0  0  0  0  0  0  0
    4.7100    3.5630    0.2000 C   0  0  0  0  0  0  0  0  0  0  0  0
    5.3960    4.6910    0.5830 C   0  0  0  0  0  0  0  0  0  0  0  0
    5.2310    5.8820   -0.0770 C   0  0  0  0  0  0  0  0  0  0  0  0
    4.3380    5.8950   -1.1540 C   0  0  0  0  0  0  0  0  0  0  0  0
    3.6510    4.7610   -1.5380 C   0  0  0  0  0  0  0  0  0  0  0  0
    3.8300    3.5750   -0.8610 C   0  0  0  0  0  0  0  0  0  0  0  0
    3.1410    2.4170   -1.2380 C   0  0  0  0  0  0  0  0  0  0  0  0
    0.8450   -1.6300   -0.2680 C   0  0  0  0  0  0  0  0  0  0  0  0
   -0.3200   -1.6460   -0.7370 O   0  0  0  0  0  0  0  0  0  0  0  0
    1.5330   -2.8060    0.0280 N   0  0  0  0  0  0  0  0  0  0  0  0
    2.8010   -2.8740    0.7670 C   0  0  0  0  0  0  0  0  0  0  0  0
    2.4720   -3.7050    2.0160 C   0  0  0  0  0  0  0  0  0  0  0  0
    2.0800   -5.0920    1.6520 C   0  0  0  0  0  0  0  0  0  0  0  0
    1.2490   -5.2000    0.4360 C   0  0  0  0  0  0  0  0  0  0  0  0
    0.7380   -6.4190    0.0840 C   0  0  0  0  0  0  0  0  0  0  0  0
   -0.0410   -6.5670   -1.0630 C   0  0  0  0  0  0  0  0  0  0  0  0
   -0.2780   -5.4480   -1.8290 C   0  0  0  0  0  0  0  0  0  0  0  0
    0.2400   -4.1980   -1.4750 C   0  0  0  0  0  0  0  0  0  0  0  0
    1.0070   -4.0770   -0.3350 C   0  0  0  0  0  0  0  0  0  0  0  0
  1  2  1  0
  2  3  1  0
  3  4  1  0
  4  5  1  0
  5  6  1  0
  6  7  2  0
  6 16  1  0
  7  8  1  0
  8  9  2  3
  8 13  1  0
  9 10  1  0
 10 11  1  0
 11 12  1  0
 13 14  2  0
 13 15  1  0
 15 16  2  0
 16 17  1  0
 17 18  1  0
 18 19  1  6
 18 30  1  0
 19 20  1  0
 20 21  2  0
 20 29  1  0
 21 22  1  0
 22 23  2  0
 23 24  1  0
 23 28  1  0
 24 25  2  0
 25 26  1  0
 26 27  2  0
 27 28  1  0
 28 29  2  0
 30 31  2  0
 30 32  1  0
 32 33  1  0
 32 41  1  0
 33 34  1  0
 34 35  1  0
 35 36  1  0
 36 37  2  0
 36 41  1  0
 37 38  1  0
 38 39  2  0
 39 40  1  0
 40 41  2  0
M  END
