
     RDKit          3D

 11 11  0  0  0  0  0  0  0  0999 V2000
    2.3140   -1.8180    0.0290 N   0  0  0  0  0  0  0  0  0  0  0  0
    2.0690   -0.4170   -0.0140 C   0  0  0  0  0  0  0  0  0  0  0  0
    0.8060   -0.0210   -0.0750 C   0  0  0  0  0  0  0  0  0  0  0  0
   -0.2210   -1.0570   -0.0930 C   0  0  0  0  0  0  0  0  0  0  0  0
   -1.5260   -0.9500    0.0670 C   0  0  0  0  0  0  0  0  0  0  0  0
   -2.3210   -2.1270    0.0050 N   0  0  0  0  0  0  0  0  0  0  0  0
   -2.2530    0.2910    0.3080 C   0  0  0  0  0  0  0  0  0  0  0  0
   -1.8380    1.5570    0.3040 C   0  0  0  0  0  0  0  0  0  0  0  0
   -0.4870    2.0830    0.0500 C   0  0  0  0  0  0  0  0  0  0  0  0
    0.6530    1.4440   -0.1160 C   0  0  0  0  0  0  0  0  0  0  0  0
    1.8530    2.1410   -0.3530 N   0  0  0  0  0  0  0  0  0  0  0  0
  1  2  1  0
  2  3  2  3
  3  4  1  0
  3 10  1  0
  4  5  2  0
  5  6  1  0
  5  7  1  0
  7  8  2  0
  8  9  1  0
  9 10  2  0
 10 11  1  0
M  END
