
     RDKit          3D

 11 11  0  0  0  0  0  0  0  0999 V2000
   -2.8970   -0.8910    0.4640 C   0  0  0  0  0  0  0  0  0  0  0  0
   -1.7060   -0.5870   -0.0100 C   0  0  0  0  0  0  0  0  0  0  0  0
   -0.8780   -1.6070   -0.7050 C   0  0  0  0  0  0  0  0  0  0  0  0
    0.4610   -1.4730   -0.1720 N   0  0  0  0  0  0  0  0  0  0  0  0
    1.0080   -0.1570   -0.0310 C   0  0  0  0  0  0  0  0  0  0  0  0
    2.3140   -0.0170   -0.0480 C   0  0  0  0  0  0  0  0  0  0  0  0
    3.2160   -1.0980   -0.1990 N   0  0  0  0  0  0  0  0  0  0  0  0
    2.8570    1.2870    0.0920 N   0  0  0  0  0  0  0  0  0  0  0  0
    0.1250    0.9900    0.1280 C   0  0  0  0  0  0  0  0  0  0  0  0
   -1.1750    0.7490    0.1340 C   0  0  0  0  0  0  0  0  0  0  0  0
   -2.1370    1.8880    0.2940 C   0  0  0  0  0  0  0  0  0  0  0  0
  1  2  2  0
  2  3  1  0
  2 10  1  0
  3  4  1  0
  4  5  1  0
  5  6  2  3
  5  9  1  0
  6  7  1  0
  6  8  1  0
  9 10  2  0
 10 11  1  0
M  END
