
     RDKit          3D

 11 11  0  0  0  0  0  0  0  0999 V2000
   -3.7860    0.9100   -0.0960 N   0  0  0  0  0  0  0  0  0  0  0  0
   -2.4930    1.0780    0.1170 C   0  0  0  0  0  0  0  0  0  0  0  0
   -1.6130   -0.0350   -0.1130 C   0  0  0  0  0  0  0  0  0  0  0  0
   -2.1820   -1.2760   -0.5690 N   0  0  0  0  0  0  0  0  0  0  0  0
   -0.3150    0.0100    0.0740 C   0  0  0  0  0  0  0  0  0  0  0  0
    0.3260    1.2340    0.5430 C   0  0  0  0  0  0  0  0  0  0  0  0
    1.6100    1.5700    0.3780 C   0  0  0  0  0  0  0  0  0  0  0  0
    2.6400    0.7620   -0.3170 C   0  0  0  0  0  0  0  0  0  0  0  0
    2.7070   -0.5510   -0.4490 C   0  0  0  0  0  0  0  0  0  0  0  0
    1.7620   -1.5590    0.0680 C   0  0  0  0  0  0  0  0  0  0  0  0
    0.3930   -1.2180   -0.2270 N   0  0  0  0  0  0  0  0  0  0  0  0
  1  2  2  0
  2  3  1  0
  3  4  1  0
  3  5  2  3
  5  6  1  0
  5 11  1  0
  6  7  2  0
  7  8  1  0
  8  9  2  0
  9 10  1  0
 10 11  1  0
M  END
