
     RDKit          3D

 11 12  0  0  0  0  0  0  0  0999 V2000
   -2.9020   -1.5530   -0.4180 N   0  0  0  0  0  0  0  0  0  0  0  0
   -1.8630   -0.6090   -0.2140 C   0  0  0  0  0  0  0  0  0  0  0  0
   -2.0930    0.7400   -0.0460 C   0  0  0  0  0  0  0  0  0  0  0  0
   -1.0780    1.6550    0.1510 C   0  0  0  0  0  0  0  0  0  0  0  0
    0.2330    1.2310    0.1870 C   0  0  0  0  0  0  0  0  0  0  0  0
    1.4070    1.9030    0.3620 N   0  0  0  0  0  0  0  0  0  0  0  0
    2.4310    1.0290    0.3160 C   0  0  0  0  0  0  0  0  0  0  0  0
    1.8730   -0.2210    0.1050 C   0  0  0  0  0  0  0  0  0  0  0  0
    2.6010   -1.4380   -0.0100 N   0  0  0  0  0  0  0  0  0  0  0  0
    0.4980   -0.1200    0.0210 C   0  0  0  0  0  0  0  0  0  0  0  0
   -0.5360   -1.0160   -0.1760 C   0  0  0  0  0  0  0  0  0  0  0  0
  1  2  1  0
  2  3  2  0
  2 11  1  0
  3  4  1  0
  4  5  2  0
  5  6  1  0
  5 10  1  0
  6  7  1  0
  7  8  2  0
  8  9  1  0
  8 10  1  0
 10 11  2  0
M  END
