
     RDKit          3D

 11 11  0  0  0  0  0  0  0  0999 V2000
    3.5230   -0.2440    0.1390 N   0  0  0  0  0  0  0  0  0  0  0  0
    2.1120   -0.0390   -0.0440 C   0  0  0  0  0  0  0  0  0  0  0  0
    1.7500    1.2370   -0.0510 C   0  0  0  0  0  0  0  0  0  0  0  0
    0.4970    1.9810   -0.1950 C   0  0  0  0  0  0  0  0  0  0  0  0
   -0.7960    1.6970   -0.1830 C   0  0  0  0  0  0  0  0  0  0  0  0
   -1.5700    0.4530   -0.0110 C   0  0  0  0  0  0  0  0  0  0  0  0
   -2.9520    0.6860    0.1920 N   0  0  0  0  0  0  0  0  0  0  0  0
   -1.2090   -0.8200   -0.0140 C   0  0  0  0  0  0  0  0  0  0  0  0
   -2.2840   -1.6940    0.1890 N   0  0  0  0  0  0  0  0  0  0  0  0
    0.0490   -1.5730   -0.1760 C   0  0  0  0  0  0  0  0  0  0  0  0
    1.3440   -1.2700   -0.1880 C   0  0  0  0  0  0  0  0  0  0  0  0
  1  2  1  0
  2  3  2  0
  2 11  1  0
  3  4  1  0
  4  5  2  0
  5  6  1  0
  6  7  1  0
  6  8  2  0
  8  9  1  0
  8 10  1  0
 10 11  2  0
M  END
