
     RDKit          3D

 23 24  0  0  0  0  0  0  0  0999 V2000
   -3.8380    2.5640   -0.2470 C   0  0  0  0  0  0  0  0  0  0  0  0
   -2.8230    1.5490   -0.6380 C   0  0  0  0  0  0  0  0  0  0  0  0
   -2.1620    1.6090   -1.6890 O   0  0  0  0  0  0  0  0  0  0  0  0
   -2.5500    0.4390    0.1820 O   0  0  0  0  0  0  0  0  0  0  0  0
   -1.5690   -0.5120   -0.2310 C   0  0  0  0  0  0  0  0  0  0  0  0
   -2.0380   -1.5230   -0.9130 C   0  0  0  0  0  0  0  0  0  0  0  0
   -3.4200   -1.6660   -1.2190 C   0  0  0  0  0  0  0  0  0  0  0  0
   -4.4070   -0.7360   -0.8100 N   0  0  0  0  0  0  0  0  0  0  0  0
   -3.8850   -2.6560   -1.8950 O   0  0  0  0  0  0  0  0  0  0  0  0
   -0.9230   -2.7790   -1.4890 S   0  0  0  0  0  0  0  0  0  0  0  0
    0.7260   -2.2840   -0.9250 C   0  0  0  0  0  0  0  0  0  0  0  0
    1.7760   -2.9540   -1.1580 N   0  0  0  0  0  0  0  0  0  0  0  0
    3.1350   -2.1670   -0.4650 S   0  0  1  0  0  0  0  0  0  0  0  0
    3.7290   -2.9880    0.6460 O   0  0  0  0  0  0  0  0  0  0  0  0
    4.1340   -1.7760   -1.5120 O   0  0  0  0  0  0  0  0  0  0  0  0
    2.2720   -0.8080    0.2110 C   0  0  0  0  0  0  0  0  0  0  0  0
    2.7440    0.2070    0.8960 C   0  0  0  0  0  0  0  0  0  0  0  0
    4.1470    0.3380    1.2000 C   0  0  0  0  0  0  0  0  0  0  0  0
    4.6600    1.5250    1.9950 C   0  0  0  0  0  0  0  0  0  0  0  0
    5.2910   -0.7140    0.7540 S   0  0  0  0  0  0  0  0  0  0  0  0
    0.8530   -1.0780   -0.1800 C   0  0  0  0  0  0  0  0  0  0  0  0
   -0.1840   -0.2860    0.1280 C   0  0  0  0  0  0  0  0  0  0  0  0
    0.0090    0.9010    0.8720 O   0  0  0  0  0  0  0  0  0  0  0  0
  1  2  1  0
  2  3  2  0
  2  4  1  0
  4  5  1  0
  5  6  2  0
  5 22  1  0
  6  7  1  0
  6 10  1  0
  7  8  1  0
  7  9  2  0
 10 11  1  0
 11 12  2  0
 11 21  1  0
 13 12  1  6
 13 14  2  0
 13 15  2  0
 13 16  1  0
 16 17  2  3
 16 21  1  0
 17 18  1  0
 18 19  1  0
 18 20  2  0
 21 22  2  0
 22 23  1  0
M  END
