
     RDKit          3D

 23 25  0  0  0  0  0  0  0  0999 V2000
    1.3240    1.6920   -0.3770 O   0  0  0  0  0  0  0  0  0  0  0  0
    0.7110    0.5930   -0.4070 C   0  0  0  0  0  0  0  0  0  0  0  0
   -0.7310    0.5570   -0.1780 C   0  0  0  0  0  0  0  0  0  0  0  0
   -1.3570   -1.1390   -0.2770 S   0  0  0  0  0  0  0  0  0  0  0  0
   -3.1370   -1.1650    0.0060 C   0  0  0  0  0  0  0  0  0  0  0  0
   -3.7180   -2.3330    0.0650 C   0  0  0  0  0  0  0  0  0  0  0  0
   -5.4570   -2.4330    0.3240 S   0  0  0  0  0  0  0  0  0  0  0  0
   -6.0550   -0.8780    0.8110 C   0  0  2  0  0  0  0  0  0  0  0  0
   -7.4490   -0.1880   -0.1800 S   0  0  0  0  0  0  0  0  0  0  0  0
   -6.9870    1.5460    0.1340 C   0  0  0  0  0  0  0  0  0  0  0  0
   -5.7910    1.4240    0.8250 O   0  0  0  0  0  0  0  0  0  0  0  0
   -5.0890    0.2220    0.5910 C   0  0  0  0  0  0  0  0  0  0  0  0
   -3.8440    0.0710    0.2630 C   0  0  0  0  0  0  0  0  0  0  0  0
    1.4310   -0.6070   -0.6650 N   0  0  0  0  0  0  0  0  0  0  0  0
    2.8110   -0.5700   -0.8840 N   0  0  0  0  0  0  0  0  0  0  0  0
    3.7270    0.0270    0.0110 C   0  0  0  0  0  0  0  0  0  0  0  0
    3.2560    0.5470    1.0540 O   0  0  0  0  0  0  0  0  0  0  0  0
    5.1660    0.0590   -0.2290 C   0  0  0  0  0  0  0  0  0  0  0  0
    5.8560   -0.4560   -1.3050 C   0  0  0  0  0  0  0  0  0  0  0  0
    7.1800   -0.1930   -1.1020 C   0  0  0  0  0  0  0  0  0  0  0  0
    7.2650    0.4810    0.1020 C   0  0  0  0  0  0  0  0  0  0  0  0
    8.4750    0.9260    0.6570 O   0  0  0  0  0  0  0  0  0  0  0  0
    6.0640    0.5960    0.5580 O   0  0  0  0  0  0  0  0  0  0  0  0
  1  2  2  0
  2  3  1  0
  2 14  1  0
  3  4  1  0
  4  5  1  0
  5  6  2  0
  5 13  1  0
  6  7  1  0
  8  7  1  6
  8  9  1  0
  8 12  1  0
  9 10  1  0
 10 11  1  0
 11 12  1  0
 12 13  2  0
 14 15  1  0
 15 16  1  0
 16 17  2  0
 16 18  1  0
 18 19  2  0
 18 23  1  0
 19 20  1  0
 20 21  2  0
 21 22  1  0
 21 23  1  0
M  END
