
     RDKit          3D

 22 24  0  0  0  0  0  0  0  0999 V2000
    4.6980   -1.0070   -0.2750 C   0  0  0  0  0  0  0  0  0  0  0  0
    3.5180   -0.6210   -0.8930 O   0  0  0  0  0  0  0  0  0  0  0  0
    2.4540    0.0560   -0.2760 C   0  0  0  0  0  0  0  0  0  0  0  0
    2.4630    1.4510   -0.2690 C   0  0  0  0  0  0  0  0  0  0  0  0
    3.5830    2.1890   -0.9040 C   0  0  0  0  0  0  0  0  0  0  0  0
    1.4050    2.0750    0.3420 C   0  0  0  0  0  0  0  0  0  0  0  0
    0.3910    1.4070    0.9160 N   0  0  0  0  0  0  0  0  0  0  0  0
    0.3510    0.0490    0.9270 C   0  0  0  0  0  0  0  0  0  0  0  0
   -0.7810   -0.6350    1.5470 C   0  0  0  0  0  0  0  0  0  0  0  0
   -1.7840   -1.1150    0.6160 N   0  0  0  0  0  0  0  0  0  0  0  0
   -1.9110   -2.2950    0.0100 C   0  0  0  0  0  0  0  0  0  0  0  0
   -3.0190   -2.3310   -0.7820 N   0  0  0  0  0  0  0  0  0  0  0  0
   -3.5930   -1.1420   -0.6650 C   0  0  0  0  0  0  0  0  0  0  0  0
   -4.7480   -0.6130   -1.2470 C   0  0  0  0  0  0  0  0  0  0  0  0
   -5.7400   -1.5470   -2.3500 Cl  0  0  0  0  0  0  0  0  0  0  0  0
   -5.0690    0.6500   -0.9210 N   0  0  0  0  0  0  0  0  0  0  0  0
   -4.3170    1.3790   -0.0750 C   0  0  0  0  0  0  0  0  0  0  0  0
   -4.6900    2.7130    0.2430 N   0  0  0  0  0  0  0  0  0  0  0  0
   -3.1970    0.8810    0.4950 N   0  0  0  0  0  0  0  0  0  0  0  0
   -2.8580   -0.3790    0.1840 C   0  0  0  0  0  0  0  0  0  0  0  0
    1.3980   -0.6080    0.3220 C   0  0  0  0  0  0  0  0  0  0  0  0
    1.4590   -2.0890    0.2950 C   0  0  0  0  0  0  0  0  0  0  0  0
  1  2  1  0
  2  3  1  0
  3  4  2  0
  3 21  1  0
  4  5  1  0
  4  6  1  0
  6  7  2  0
  7  8  1  0
  8  9  1  0
  8 21  2  0
  9 10  1  0
 10 11  1  0
 10 20  1  0
 11 12  2  0
 12 13  1  0
 13 14  2  0
 13 20  1  0
 14 15  1  0
 14 16  1  0
 16 17  2  0
 17 18  1  0
 17 19  1  0
 19 20  2  0
 21 22  1  0
M  END
