
     RDKit          3D

  9  9  0  0  0  0  0  0  0  0999 V2000
    3.5380    0.3640   -0.1150 O   0  0  0  0  0  0  0  0  0  0  0  0
    2.2880    0.3280    0.5330 C   0  0  0  0  0  0  0  0  0  0  0  0
    1.3530   -0.4210   -0.4160 C   0  0  0  0  0  0  0  0  0  0  0  0
    0.0000   -0.4780    0.2500 C   0  0  2  0  0  0  0  0  0  0  0  0
    0.0800   -1.1450    1.4690 O   0  0  0  0  0  0  0  0  0  0  0  0
   -1.0330   -1.1320   -0.6340 C   0  0  0  0  0  0  0  0  0  0  0  0
   -2.2260   -0.2060   -0.6090 C   0  0  0  0  0  0  0  0  0  0  0  0
   -2.0220    0.5490    0.6140 N   0  0  0  0  0  0  0  0  0  0  0  0
   -0.5960    0.8780    0.4940 C   0  0  0  0  0  0  0  0  0  0  0  0
  1  2  1  0
  2  3  1  0
  3  4  1  0
  4  5  1  1
  4  6  1  0
  4  9  1  0
  6  7  1  0
  7  8  1  0
  8  9  1  0
M  CHG  1   8   1
M  END
