
     RDKit          3D

 10 10  0  0  0  0  0  0  0  0999 V2000
    2.4290   -0.3890    0.9920 O   0  0  0  0  0  0  0  0  0  0  0  0
    2.2950   -0.1620   -0.3890 C   0  0  0  0  0  0  0  0  0  0  0  0
    0.7860   -0.1430   -0.6680 C   0  0  1  0  0  0  0  0  0  0  0  0
    0.1990   -1.4420   -0.2810 C   0  0  0  0  0  0  0  0  0  0  0  0
   -1.0930   -1.4110    0.2970 N   0  0  0  0  0  0  0  0  0  0  0  0
   -1.9020   -0.2820    0.0070 C   0  0  0  0  0  0  0  0  0  0  0  0
   -1.2530    1.0440    0.1280 C   0  0  1  0  0  0  0  0  0  0  0  0
   -1.6360    1.7360    1.2990 O   0  0  0  0  0  0  0  0  0  0  0  0
    0.2270    1.0450    0.0720 C   0  0  2  0  0  0  0  0  0  0  0  0
    0.6760    2.2060   -0.5450 O   0  0  0  0  0  0  0  0  0  0  0  0
  1  2  1  0
  3  2  1  1
  3  4  1  0
  3  9  1  0
  4  5  1  0
  5  6  1  0
  6  7  1  0
  7  8  1  1
  7  9  1  0
  9 10  1  6
M  CHG  1   5   1
M  END
