
     RDKit          3D

 10 10  0  0  0  0  0  0  0  0999 V2000
    3.0490   -0.2420   -0.5960 N   0  0  0  0  0  0  0  0  0  0  0  0
    1.8340   -0.3820    0.1620 C   0  0  0  0  0  0  0  0  0  0  0  0
    0.7690    0.6180   -0.2520 C   0  0  0  0  0  0  0  0  0  0  0  0
   -0.4350    0.3680    0.6060 C   0  0  1  0  0  0  0  0  0  0  0  0
   -0.1780    0.5220    1.9470 O   0  0  0  0  0  0  0  0  0  0  0  0
   -1.5940    1.2850    0.2540 C   0  0  0  0  0  0  0  0  0  0  0  0
   -2.7470    0.6470    0.6330 O   0  0  0  0  0  0  0  0  0  0  0  0
   -2.4790   -0.6760    0.8650 C   0  0  0  0  0  0  0  0  0  0  0  0
   -1.0910   -0.9670    0.3240 C   0  0  1  0  0  0  0  0  0  0  0  0
   -1.2190   -1.1630   -1.0460 O   0  0  0  0  0  0  0  0  0  0  0  0
  1  2  1  0
  2  3  1  0
  3  4  1  0
  4  5  1  1
  4  6  1  0
  4  9  1  0
  6  7  1  0
  7  8  1  0
  8  9  1  0
  9 10  1  6
M  CHG  1   1   1
M  END
