
     RDKit          3D

 10 10  0  0  0  0  0  0  0  0999 V2000
   -1.9360   -0.1780    1.0660 N   0  0  0  0  0  0  0  0  0  0  0  0
   -1.2500   -0.5940   -0.1100 C   0  0  1  0  0  0  0  0  0  0  0  0
   -1.8910   -0.0410   -1.3660 C   0  0  0  0  0  0  0  0  0  0  0  0
   -1.8980    1.3330   -1.3700 O   0  0  0  0  0  0  0  0  0  0  0  0
    0.2240   -0.3310   -0.1190 C   0  0  1  0  0  0  0  0  0  0  0  0
    0.6230    1.0940   -0.1510 C   0  0  0  0  0  0  0  0  0  0  0  0
    1.7200    1.2880    0.6980 O   0  0  0  0  0  0  0  0  0  0  0  0
    2.7220    0.3650    0.3760 C   0  0  0  0  0  0  0  0  0  0  0  0
    2.2280   -1.0620    0.6200 C   0  0  0  0  0  0  0  0  0  0  0  0
    0.8570   -0.9890    0.9320 O   0  0  0  0  0  0  0  0  0  0  0  0
  2  1  1  1
  2  3  1  0
  2  5  1  0
  3  4  1  0
  5  6  1  1
  5 10  1  0
  6  7  1  0
  7  8  1  0
  8  9  1  0
  9 10  1  0
M  CHG  1   1   1
M  END
