
     RDKit          3D

 11 11  0  0  0  0  0  0  0  0999 V2000
   -1.8760   -0.7780    1.1640 N   0  0  0  0  0  0  0  0  0  0  0  0
   -1.1290   -0.9590   -0.0460 C   0  0  1  0  0  0  0  0  0  0  0  0
   -2.0040   -1.0750   -1.1260 O   0  0  0  0  0  0  0  0  0  0  0  0
   -0.1650    0.1380   -0.3500 C   0  0  2  0  0  0  0  0  0  0  0  0
   -0.8260    1.4760   -0.5580 C   0  0  0  0  0  0  0  0  0  0  0  0
    0.1960    2.3900   -0.8790 O   0  0  0  0  0  0  0  0  0  0  0  0
    0.4720   -0.1920   -1.5490 O   0  0  0  0  0  0  0  0  0  0  0  0
    1.6210   -0.9240   -1.1800 C   0  0  0  0  0  0  0  0  0  0  0  0
    2.1850    0.0170   -0.1070 C   0  0  0  0  0  0  0  0  0  0  0  0
    0.9170    0.2880    0.6880 C   0  0  2  0  0  0  0  0  0  0  0  0
    0.7870   -0.5990    1.7410 O   0  0  0  0  0  0  0  0  0  0  0  0
  2  1  1  1
  2  3  1  0
  2  4  1  0
  4  5  1  6
  4  7  1  0
  4 10  1  0
  5  6  1  0
  7  8  1  0
  8  9  1  0
  9 10  1  0
 10 11  1  1
M  CHG  1   1   1
M  END
