
     RDKit          3D

 11 11  0  0  0  0  0  0  0  0999 V2000
   -0.7950   -1.8320    1.0530 C   0  0  0  0  0  0  0  0  0  0  0  0
   -1.2390   -0.6460    0.3070 C   0  0  1  0  0  0  0  0  0  0  0  0
   -1.7780    0.3960    1.0900 O   0  0  0  0  0  0  0  0  0  0  0  0
   -2.1530    1.2240    0.1390 O   0  0  0  0  0  0  0  0  0  0  0  0
   -1.0960    1.3820   -0.7540 C   0  0  1  0  0  0  0  0  0  0  0  0
   -0.4140    2.5370   -0.3830 O   0  0  0  0  0  0  0  0  0  0  0  0
   -0.2400    0.1160   -0.4840 C   0  0  2  0  0  0  0  0  0  0  0  0
   -0.0570   -0.5470   -1.7560 N   0  0  0  0  0  0  0  0  0  0  0  0
    0.9830    0.5820    0.1610 C   0  0  0  0  0  0  0  0  0  0  0  0
    1.9220   -0.3820    0.7650 C   0  0  0  0  0  0  0  0  0  0  0  0
    3.0270    0.3440    1.2940 O   0  0  0  0  0  0  0  0  0  0  0  0
  2  1  1  1
  2  3  1  0
  2  7  1  0
  3  4  1  0
  4  5  1  0
  5  6  1  1
  5  7  1  0
  7  8  1  6
  7  9  1  0
  9 10  1  0
 10 11  1  0
M  CHG  1   8   1
M  END
