
     RDKit          3D

 12 12  0  0  0  0  0  0  0  0999 V2000
    0.8330   -1.2760   -0.8340 O   0  0  0  0  0  0  0  0  0  0  0  0
    0.3400   -0.1900   -0.4280 C   0  0  0  0  0  0  0  0  0  0  0  0
    1.1290    0.9210   -0.2220 O   0  0  0  0  0  0  0  0  0  0  0  0
    2.5050    0.9490   -0.4290 C   0  0  0  0  0  0  0  0  0  0  0  0
    3.3360    0.0620    0.4250 C   0  0  0  0  0  0  0  0  0  0  0  0
    3.0810   -1.2900    0.3370 O   0  0  0  0  0  0  0  0  0  0  0  0
   -1.0990   -0.1640   -0.1880 C   0  0  0  0  0  0  0  0  0  0  0  0
   -1.7180    0.9190    0.2380 C   0  0  0  0  0  0  0  0  0  0  0  0
   -3.1750    1.0020    0.4990 C   0  0  0  0  0  0  0  0  0  0  0  0
   -3.8550   -0.1870    0.2520 O   0  0  0  0  0  0  0  0  0  0  0  0
   -3.2230   -1.3250   -0.1920 C   0  0  0  0  0  0  0  0  0  0  0  0
   -1.9060   -1.3470   -0.4120 C   0  0  0  0  0  0  0  0  0  0  0  0
  1  2  2  0
  2  3  1  0
  2  7  1  0
  3  4  1  0
  4  5  1  0
  5  6  1  0
  7  8  2  0
  7 12  1  0
  8  9  1  0
  9 10  1  0
 10 11  1  0
 11 12  2  0
M  END
