
     RDKit          3D

 28 30  0  0  0  0  0  0  0  0999 V2000
   -3.8140    2.8460   -1.8350 C   0  0  0  0  0  0  0  0  0  0  0  0
   -3.1260    3.2940   -0.7610 C   0  0  0  0  0  0  0  0  0  0  0  0
   -2.8230    2.3740    0.3030 C   0  0  0  0  0  0  0  0  0  0  0  0
   -2.1460    2.8100    1.3780 C   0  0  0  0  0  0  0  0  0  0  0  0
   -1.6730    4.1740    1.5930 C   0  0  0  0  0  0  0  0  0  0  0  0
    0.1400    4.1050    1.6670 Cl  0  0  0  0  0  0  0  0  0  0  0  0
   -3.1840    1.0030    0.1860 N   0  0  0  0  0  0  0  0  0  0  0  0
   -2.0860    0.0180    0.1850 C   0  0  0  0  0  0  0  0  0  0  0  0
   -0.9860    0.4520   -0.1130 N   0  0  0  0  0  0  0  0  0  0  0  0
    0.3370    0.2040   -0.3050 C   0  0  0  0  0  0  0  0  0  0  0  0
    1.2350    0.6270    0.7040 C   0  0  0  0  0  0  0  0  0  0  0  0
    2.5700    0.4610    0.6130 C   0  0  0  0  0  0  0  0  0  0  0  0
    3.1510   -0.1530   -0.4990 C   0  0  0  0  0  0  0  0  0  0  0  0
    4.4840   -0.3350   -0.6510 O   0  0  0  0  0  0  0  0  0  0  0  0
    5.4680    0.1500    0.2280 C   0  0  1  0  0  0  0  0  0  0  0  0
    6.1890   -1.0050    0.8780 C   0  0  0  0  0  0  0  0  0  0  0  0
    6.4360    1.0340   -0.5470 C   0  0  0  0  0  0  0  0  0  0  0  0
    2.2630   -0.5600   -1.4600 C   0  0  0  0  0  0  0  0  0  0  0  0
    0.9100   -0.4100   -1.4110 C   0  0  0  0  0  0  0  0  0  0  0  0
   -2.4170   -1.3120    0.4880 N   0  0  0  0  0  0  0  0  0  0  0  0
   -2.4380   -1.6920    1.8640 C   0  0  0  0  0  0  0  0  0  0  0  0
   -2.7560   -2.9300    2.2260 C   0  0  0  0  0  0  0  0  0  0  0  0
   -3.0880   -3.9130    1.1970 C   0  0  0  0  0  0  0  0  0  0  0  0
   -3.0890   -3.6300   -0.0970 C   0  0  0  0  0  0  0  0  0  0  0  0
   -3.3560   -4.3530   -1.2510 O   0  0  0  0  0  0  0  0  0  0  0  0
   -3.1900   -3.5090   -2.3650 C   0  0  0  0  0  0  0  0  0  0  0  0
   -2.8030   -2.1860   -1.8350 C   0  0  0  0  0  0  0  0  0  0  0  0
   -2.7430   -2.2880   -0.5020 C   0  0  0  0  0  0  0  0  0  0  0  0
  1  2  2  0
  2  3  1  0
  3  4  2  3
  3  7  1  0
  4  5  1  0
  5  6  1  0
  7  8  1  0
  8  9  2  3
  8 20  1  0
  9 10  1  0
 10 11  2  0
 10 19  1  0
 11 12  1  0
 12 13  2  0
 13 14  1  0
 13 18  1  0
 14 15  1  0
 15 16  1  6
 15 17  1  0
 18 19  2  0
 20 21  1  0
 20 28  1  0
 21 22  2  0
 22 23  1  0
 23 24  2  0
 24 25  1  0
 24 28  1  0
 25 26  1  0
 26 27  1  0
 27 28  2  0
M  END
