
     RDKit          3D

 28 31  0  0  0  0  0  0  0  0999 V2000
    0.7440   -3.2790   -0.0330 O   0  0  0  0  0  0  0  0  0  0  0  0
    0.3550   -2.1790    0.3740 C   0  0  0  0  0  0  0  0  0  0  0  0
   -0.9770   -1.9660    0.7100 N   0  0  0  0  0  0  0  0  0  0  0  0
   -2.0100   -3.0180    0.4980 C   0  0  0  0  0  0  0  0  0  0  0  0
   -3.3140   -2.3520    0.9010 C   0  0  0  0  0  0  0  0  0  0  0  0
   -3.9010   -2.5360    1.9400 O   0  0  0  0  0  0  0  0  0  0  0  0
   -3.8020   -1.3840   -0.1200 C   0  0  0  0  0  0  0  0  0  0  0  0
   -3.3320   -1.1840   -1.3950 C   0  0  0  0  0  0  0  0  0  0  0  0
   -3.9520   -0.0890   -1.9090 N   0  0  0  0  0  0  0  0  0  0  0  0
   -4.7880    0.4200   -1.0350 C   0  0  0  0  0  0  0  0  0  0  0  0
   -4.7120   -0.3860    0.0900 C   0  0  0  0  0  0  0  0  0  0  0  0
   -5.5890   -0.0500    1.2170 C   0  0  0  0  0  0  0  0  0  0  0  0
   -5.3170    1.3930    1.6190 C   0  0  0  0  0  0  0  0  0  0  0  0
   -5.1160    2.2880    0.4020 C   0  0  0  0  0  0  0  0  0  0  0  0
   -5.6830    1.6240   -0.8760 C   0  0  0  0  0  0  0  0  0  0  0  0
    1.3510   -1.0860    0.4620 C   0  0  0  0  0  0  0  0  0  0  0  0
    0.8220    0.4590    1.0740 Cl  0  0  0  0  0  0  0  0  0  0  0  0
    2.5710   -1.2770    0.0970 C   0  0  0  0  0  0  0  0  0  0  0  0
    3.7380   -0.4420    0.0430 C   0  0  0  0  0  0  0  0  0  0  0  0
    3.8480    0.3020   -1.1390 C   0  0  0  0  0  0  0  0  0  0  0  0
    4.9570    1.0580   -1.4060 C   0  0  0  0  0  0  0  0  0  0  0  0
    6.0020    1.1100   -0.5020 C   0  0  0  0  0  0  0  0  0  0  0  0
    7.1410    1.8490   -0.7980 C   0  0  0  0  0  0  0  0  0  0  0  0
    8.2040    1.8680    0.1090 C   0  0  0  0  0  0  0  0  0  0  0  0
    8.0900    1.1500    1.2720 C   0  0  0  0  0  0  0  0  0  0  0  0
    6.9340    0.4090    1.5480 C   0  0  0  0  0  0  0  0  0  0  0  0
    5.8710    0.3740    0.6670 C   0  0  0  0  0  0  0  0  0  0  0  0
    4.7470   -0.3760    0.8950 N   0  0  0  0  0  0  0  0  0  0  0  0
  1  2  2  0
  2  3  1  0
  2 16  1  0
  3  4  1  0
  4  5  1  0
  5  6  2  0
  5  7  1  0
  7  8  2  0
  7 11  1  0
  8  9  1  0
  9 10  1  0
 10 11  2  0
 10 15  1  0
 11 12  1  0
 12 13  1  0
 13 14  1  0
 14 15  1  0
 16 17  1  0
 16 18  2  3
 18 19  1  0
 19 20  2  0
 19 28  1  0
 20 21  1  0
 21 22  2  0
 22 23  1  0
 22 27  1  0
 23 24  2  0
 24 25  1  0
 25 26  2  0
 26 27  1  0
 27 28  2  0
M  END
