
     RDKit          3D

 30 33  0  0  0  0  0  0  0  0999 V2000
   -5.1670   -2.3080   -2.4190 N   0  0  0  0  0  0  0  0  0  0  0  0
   -4.4120   -1.5480   -1.4930 C   0  0  0  0  0  0  0  0  0  0  0  0
   -3.0350   -1.6310   -1.4440 C   0  0  0  0  0  0  0  0  0  0  0  0
   -2.3280   -0.8340   -0.5430 C   0  0  0  0  0  0  0  0  0  0  0  0
   -0.8500   -0.8590   -0.6280 C   0  0  0  0  0  0  0  0  0  0  0  0
   -0.2470   -1.9200   -0.9100 O   0  0  0  0  0  0  0  0  0  0  0  0
   -0.1560    0.2510   -0.4180 O   0  0  0  0  0  0  0  0  0  0  0  0
    1.2270    0.5300   -0.4530 C   0  0  2  0  0  0  0  0  0  0  0  0
    1.9850   -0.1240    0.5810 C   0  0  0  0  0  0  0  0  0  0  0  0
    2.3800    0.5160    1.7700 C   0  0  0  0  0  0  0  0  0  0  0  0
    3.0910   -0.0800    2.7660 C   0  0  0  0  0  0  0  0  0  0  0  0
    3.4610   -1.3890    2.6320 C   0  0  0  0  0  0  0  0  0  0  0  0
    4.1930   -1.9370    3.6910 O   0  0  0  0  0  0  0  0  0  0  0  0
    4.6090   -3.2270    3.6580 O   0  0  0  0  0  0  0  0  0  0  0  0
    3.1040   -2.0700    1.4970 C   0  0  0  0  0  0  0  0  0  0  0  0
    3.4870   -3.4190    1.3840 O   0  0  0  0  0  0  0  0  0  0  0  0
    2.3750   -1.4290    0.4900 C   0  0  0  0  0  0  0  0  0  0  0  0
    1.2080    2.0630   -0.4000 C   0  0  0  0  0  0  0  0  0  0  0  0
    2.2610    2.7520   -1.1760 C   0  0  0  0  0  0  0  0  0  0  0  0
    3.6790    2.4720   -0.8750 C   0  0  0  0  0  0  0  0  0  0  0  0
    4.0670    1.1340   -1.2240 O   0  0  0  0  0  0  0  0  0  0  0  0
    3.2110    0.2670   -1.9380 C   0  0  0  0  0  0  0  0  0  0  0  0
    3.8100   -0.5030   -2.7690 O   0  0  0  0  0  0  0  0  0  0  0  0
    1.7560    0.1700   -1.8240 C   0  0  0  0  0  0  0  0  0  0  0  0
   -3.0110    0.0010    0.2630 C   0  0  0  0  0  0  0  0  0  0  0  0
   -4.4160    0.0740    0.2060 C   0  0  0  0  0  0  0  0  0  0  0  0
   -5.0680   -0.7010   -0.6650 N   0  0  0  0  0  0  0  0  0  0  0  0
   -4.8250    1.0920    1.2300 C   0  0  0  0  0  0  0  0  0  0  0  0
   -3.6060    1.1800    2.1190 C   0  0  0  0  0  0  0  0  0  0  0  0
   -2.5370    0.8910    1.2260 O   0  0  0  0  0  0  0  0  0  0  0  0
  1  2  1  0
  2  3  2  0
  2 27  1  0
  3  4  1  0
  4  5  1  0
  4 25  2  0
  5  6  2  0
  5  7  1  0
  8  7  1  6
  8  9  1  0
  8 18  1  0
  8 24  1  0
  9 10  2  0
  9 17  1  0
 10 11  1  0
 11 12  2  0
 12 13  1  0
 12 15  1  0
 13 14  1  0
 15 16  1  0
 15 17  2  0
 18 19  1  0
 19 20  1  0
 20 21  1  0
 21 22  1  0
 22 23  2  0
 22 24  1  0
 25 26  1  0
 25 30  1  0
 26 27  2  0
 26 28  1  0
 28 29  1  0
 29 30  1  0
M  CHG  2  14  -1  27   1
M  END
