
     RDKit          3D

 31 34  0  0  0  0  0  0  0  0999 V2000
    3.0210    0.6430    1.3690 O   0  0  0  0  0  0  0  0  0  0  0  0
    2.4190    1.3950    0.4600 C   0  0  0  0  0  0  0  0  0  0  0  0
    3.1640    2.3350   -0.1480 N   0  0  0  0  0  0  0  0  0  0  0  0
    4.5600    2.4960    0.1850 C   0  0  0  0  0  0  0  0  0  0  0  0
    5.2350    1.1800   -0.1180 C   0  0  0  0  0  0  0  0  0  0  0  0
    6.5230    0.8200    0.2450 C   0  0  0  0  0  0  0  0  0  0  0  0
    6.7870   -0.4510   -0.2110 C   0  0  0  0  0  0  0  0  0  0  0  0
    8.0100   -1.2300   -0.0600 C   0  0  0  0  0  0  0  0  0  0  0  0
    9.1650   -0.8390    0.5810 C   0  0  0  0  0  0  0  0  0  0  0  0
   10.0890   -1.8700    0.5000 C   0  0  0  0  0  0  0  0  0  0  0  0
    9.4810   -2.8900   -0.1990 C   0  0  0  0  0  0  0  0  0  0  0  0
    8.2570   -2.4710   -0.5100 N   0  0  0  0  0  0  0  0  0  0  0  0
    5.6680   -0.8450   -0.8400 N   0  0  0  0  0  0  0  0  0  0  0  0
    4.7470    0.1210   -0.7860 N   0  0  0  0  0  0  0  0  0  0  0  0
    1.1670    0.9900    0.3910 N   0  0  0  0  0  0  0  0  0  0  0  0
   -0.1140    0.6650    0.2390 C   0  0  0  0  0  0  0  0  0  0  0  0
   -0.3890   -0.3370    1.0400 O   0  0  0  0  0  0  0  0  0  0  0  0
   -1.1230    1.1440   -0.5290 N   0  0  0  0  0  0  0  0  0  0  0  0
   -2.4040    0.5460   -0.4060 C   0  0  0  0  0  0  0  0  0  0  0  0
   -3.4830    1.3880   -0.3450 C   0  0  0  0  0  0  0  0  0  0  0  0
   -4.7430    0.8520   -0.2040 C   0  0  0  0  0  0  0  0  0  0  0  0
   -4.9840   -0.4910   -0.1210 C   0  0  0  0  0  0  0  0  0  0  0  0
   -6.2190   -1.0860    0.0200 O   0  0  0  0  0  0  0  0  0  0  0  0
   -7.4380   -0.4360    0.1040 C   0  0  1  0  0  0  0  0  0  0  0  0
   -8.3710   -0.9460   -0.9790 C   0  0  0  0  0  0  0  0  0  0  0  0
   -9.7130   -1.1720   -0.3350 C   0  0  0  0  0  0  0  0  0  0  0  0
   -9.5570   -0.7520    1.0500 N   0  0  0  0  0  0  0  0  0  0  0  0
   -8.1710   -0.7690    1.3790 C   0  0  0  0  0  0  0  0  0  0  0  0
   -7.6340   -1.0100    2.4920 O   0  0  0  0  0  0  0  0  0  0  0  0
   -3.8690   -1.3360   -0.1880 C   0  0  0  0  0  0  0  0  0  0  0  0
   -2.5990   -0.8080   -0.3290 C   0  0  0  0  0  0  0  0  0  0  0  0
  1  2  2  0
  2  3  1  0
  2 15  1  0
  3  4  1  0
  4  5  1  0
  5  6  2  0
  5 14  1  0
  6  7  1  0
  7  8  1  0
  7 13  2  0
  8  9  2  0
  8 12  1  0
  9 10  1  0
 10 11  2  0
 11 12  1  0
 13 14  1  0
 15 16  1  0
 16 17  2  0
 16 18  1  0
 18 19  1  0
 19 20  2  0
 19 31  1  0
 20 21  1  0
 21 22  2  0
 22 23  1  0
 22 30  1  0
 24 23  1  1
 24 25  1  0
 24 28  1  0
 25 26  1  0
 26 27  1  0
 27 28  1  0
 28 29  2  0
 30 31  2  0
M  END
