
     RDKit          3D

 30 31  0  0  0  0  0  0  0  0999 V2000
    2.7840    1.6370   -3.0240 C   0  0  0  0  0  0  0  0  0  0  0  0
    2.6220    0.8080   -1.8040 C   0  0  0  0  0  0  0  0  0  0  0  0
    3.3950   -0.2400   -1.5090 C   0  0  0  0  0  0  0  0  0  0  0  0
    4.3810   -0.5060   -2.4390 O   0  0  0  0  0  0  0  0  0  0  0  0
    3.1330   -0.9580   -0.3000 C   0  0  0  0  0  0  0  0  0  0  0  0
    3.8340   -1.9880    0.0840 C   0  0  0  0  0  0  0  0  0  0  0  0
    4.9650   -2.5890   -0.5950 C   0  0  0  0  0  0  0  0  0  0  0  0
    5.5350   -3.6200   -0.0430 N   0  0  0  0  0  0  0  0  0  0  0  0
    5.0850   -4.1300    1.1470 O   0  0  0  0  0  0  0  0  0  0  0  0
    2.0680   -0.5820    0.5680 O   0  0  0  0  0  0  0  0  0  0  0  0
    0.8240   -1.1690    0.4320 C   0  0  0  0  0  0  0  0  0  0  0  0
    0.7060   -2.0180   -0.4930 O   0  0  0  0  0  0  0  0  0  0  0  0
   -0.3710   -0.9040    1.2580 C   0  0  2  0  0  0  0  0  0  0  0  0
   -1.6230   -0.9210    0.4770 C   0  0  0  0  0  0  0  0  0  0  0  0
   -2.2350    0.3680    0.0820 C   0  0  2  0  0  0  0  0  0  0  0  0
   -3.2810    0.6660    0.9560 O   0  0  0  0  0  0  0  0  0  0  0  0
   -2.9630    0.2290   -1.2820 C   0  0  1  0  0  0  0  0  0  0  0  0
   -2.0270   -0.1200   -2.3880 C   0  0  0  0  0  0  0  0  0  0  0  0
   -4.0500   -0.8060   -1.1310 C   0  0  0  0  0  0  0  0  0  0  0  0
   -5.1600   -0.1530   -1.9660 C   0  0  0  0  0  0  0  0  0  0  0  0
   -4.9000    1.2950   -1.7230 C   0  0  0  0  0  0  0  0  0  0  0  0
   -3.5580    1.4330   -1.5270 O   0  0  0  0  0  0  0  0  0  0  0  0
   -1.3170    1.5300    0.0030 C   0  0  0  0  0  0  0  0  0  0  0  0
   -0.9280    2.2090    1.2520 C   0  0  0  0  0  0  0  0  0  0  0  0
   -1.0200    1.3270    2.4340 C   0  0  0  0  0  0  0  0  0  0  0  0
   -0.2270    0.1360    2.2300 N   0  0  0  0  0  0  0  0  0  0  0  0
    0.8410   -0.0070    3.1570 C   0  0  0  0  0  0  0  0  0  0  0  0
    1.5800   -1.0110    3.0770 O   0  0  0  0  0  0  0  0  0  0  0  0
    1.1070    0.9150    4.1540 O   0  0  0  0  0  0  0  0  0  0  0  0
    2.1830    0.7500    5.0760 C   0  0  0  0  0  0  0  0  0  0  0  0
  1  2  1  0
  2  3  2  3
  3  4  1  0
  3  5  1  0
  5  6  2  3
  5 10  1  0
  6  7  1  0
  7  8  2  3
  8  9  1  0
 10 11  1  0
 11 12  2  0
 13 11  1  6
 13 14  1  0
 13 26  1  0
 14 15  1  0
 15 16  1  1
 15 17  1  0
 15 23  1  0
 17 18  1  6
 17 19  1  0
 17 22  1  0
 19 20  1  0
 20 21  1  0
 21 22  1  0
 23 24  1  0
 24 25  1  0
 25 26  1  0
 26 27  1  0
 27 28  2  0
 27 29  1  0
 29 30  1  0
M  CHG  2   8   1   9  -1
M  END
