
     RDKit          3D

 30 33  0  0  0  0  0  0  0  0999 V2000
   -5.3960    3.1260   -1.4560 C   0  0  0  0  0  0  0  0  0  0  0  0
   -4.9310    1.8780   -0.8120 C   0  0  0  0  0  0  0  0  0  0  0  0
   -3.6250    1.4170   -1.0210 C   0  0  0  0  0  0  0  0  0  0  0  0
   -3.1830    0.2650   -0.4310 C   0  0  0  0  0  0  0  0  0  0  0  0
   -1.7790   -0.1910   -0.6760 C   0  0  2  0  0  0  0  0  0  0  0  0
   -1.7320   -1.3770   -1.5600 C   0  0  0  0  0  0  0  0  0  0  0  0
   -2.3870   -2.5540   -1.0940 N   0  0  0  0  0  0  0  0  0  0  0  0
   -1.0890   -0.2990    0.6140 C   0  0  0  0  0  0  0  0  0  0  0  0
    0.3100   -0.7130    0.7360 C   0  0  1  0  0  0  0  0  0  0  0  0
    0.5840   -0.6210    2.1720 O   0  0  0  0  0  0  0  0  0  0  0  0
    0.6500   -2.1600    0.4870 C   0  0  0  0  0  0  0  0  0  0  0  0
    1.9340   -2.3660    1.1180 O   0  0  0  0  0  0  0  0  0  0  0  0
    2.9190   -1.4090    0.8990 C   0  0  0  0  0  0  0  0  0  0  0  0
    4.2370   -1.7910    1.1680 C   0  0  0  0  0  0  0  0  0  0  0  0
    4.5550   -3.1190    1.6510 C   0  0  0  0  0  0  0  0  0  0  0  0
    5.7500   -3.4100    1.8760 O   0  0  0  0  0  0  0  0  0  0  0  0
    3.5470   -4.0340    1.8530 O   0  0  0  0  0  0  0  0  0  0  0  0
    5.2290   -0.8470    0.9540 C   0  0  0  0  0  0  0  0  0  0  0  0
    4.9390    0.4180    0.4960 C   0  0  0  0  0  0  0  0  0  0  0  0
    3.6300    0.7660    0.2390 C   0  0  0  0  0  0  0  0  0  0  0  0
    2.6110   -0.1480    0.4400 C   0  0  0  0  0  0  0  0  0  0  0  0
    1.2810    0.1590    0.1960 O   0  0  0  0  0  0  0  0  0  0  0  0
    3.3600    2.0460   -0.2220 O   0  0  0  0  0  0  0  0  0  0  0  0
    4.4160    3.0150   -0.1180 C   0  0  0  0  0  0  0  0  0  0  0  0
    5.7510    2.4260   -0.5190 C   0  0  0  0  0  0  0  0  0  0  0  0
    5.9910    1.3010    0.3090 O   0  0  0  0  0  0  0  0  0  0  0  0
   -4.0290   -0.4470    0.3740 C   0  0  0  0  0  0  0  0  0  0  0  0
   -5.3190    0.0500    0.5530 C   0  0  0  0  0  0  0  0  0  0  0  0
   -6.1270   -0.5780    1.2880 O   0  0  0  0  0  0  0  0  0  0  0  0
   -5.7560    1.1790   -0.0230 N   0  0  0  0  0  0  0  0  0  0  0  0
  1  2  1  0
  2  3  2  0
  2 30  1  0
  3  4  1  0
  4  5  1  0
  4 27  2  0
  5  6  1  1
  5  8  1  0
  6  7  1  0
  8  9  1  0
  9 10  1  1
  9 11  1  0
  9 22  1  0
 11 12  1  0
 12 13  1  0
 13 14  2  0
 13 21  1  0
 14 15  1  0
 14 18  1  0
 15 16  2  0
 15 17  1  0
 18 19  2  0
 19 20  1  0
 19 26  1  0
 20 21  2  0
 20 23  1  0
 21 22  1  0
 23 24  1  0
 24 25  1  0
 25 26  1  0
 27 28  1  0
 28 29  2  0
 28 30  1  0
M  CHG  2   7   1  17  -1
M  END
