
     RDKit          3D

 21 22  0  0  0  0  0  0  0  0999 V2000
    5.0690   -0.7420    2.0630 C   0  0  0  0  0  0  0  0  0  0  0  0
    4.6870   -0.2770    0.7770 O   0  0  0  0  0  0  0  0  0  0  0  0
    3.4310    0.2440    0.5770 C   0  0  0  0  0  0  0  0  0  0  0  0
    2.4920    0.3430    1.5880 C   0  0  0  0  0  0  0  0  0  0  0  0
    1.2370    0.8750    1.3420 C   0  0  0  0  0  0  0  0  0  0  0  0
    0.8750    1.3210    0.1040 C   0  0  0  0  0  0  0  0  0  0  0  0
   -0.4200    1.8960   -0.2570 C   0  0  0  0  0  0  0  0  0  0  0  0
   -1.4180    0.9360   -0.7120 C   0  0  0  0  0  0  0  0  0  0  0  0
   -1.5990    0.5580   -1.9830 N   0  0  0  0  0  0  0  0  0  0  0  0
   -2.5040   -0.3150   -2.4100 C   0  0  0  0  0  0  0  0  0  0  0  0
   -2.6550   -0.6770   -3.7450 O   0  0  0  0  0  0  0  0  0  0  0  0
   -3.3540   -0.9060   -1.4670 C   0  0  0  0  0  0  0  0  0  0  0  0
   -4.2810   -1.8080   -1.9450 O   0  0  0  0  0  0  0  0  0  0  0  0
   -3.1930   -0.5410   -0.1630 C   0  0  0  0  0  0  0  0  0  0  0  0
   -4.0420   -1.1170    0.8620 C   0  0  0  0  0  0  0  0  0  0  0  0
   -4.9350   -1.9380    0.6810 O   0  0  0  0  0  0  0  0  0  0  0  0
   -3.8100   -0.6850    2.1850 O   0  0  0  0  0  0  0  0  0  0  0  0
   -2.2390    0.3610    0.1760 N   0  0  0  0  0  0  0  0  0  0  0  0
    1.8320    1.2160   -0.9120 C   0  0  0  0  0  0  0  0  0  0  0  0
    3.0870    0.6850   -0.6680 C   0  0  0  0  0  0  0  0  0  0  0  0
    4.3630    0.5650   -2.0990 Br  0  0  0  0  0  0  0  0  0  0  0  0
  1  2  1  0
  2  3  1  0
  3  4  2  0
  3 20  1  0
  4  5  1  0
  5  6  2  0
  6  7  1  0
  6 19  1  0
  7  8  1  0
  8  9  2  0
  8 18  1  0
  9 10  1  0
 10 11  1  0
 10 12  2  0
 12 13  1  0
 12 14  1  0
 14 15  1  0
 14 18  2  0
 15 16  2  0
 15 17  1  0
 19 20  2  0
 20 21  1  0
M  END
