
     RDKit          3D

 15 16  0  0  0  0  0  0  0  0999 V2000
   -4.0240    0.1520    0.9080 C   0  0  0  0  0  0  0  0  0  0  0  0
   -3.1270   -0.9700    0.3770 C   0  0  0  0  0  0  0  0  0  0  0  0
   -1.8270   -0.4140   -0.0800 C   0  0  0  0  0  0  0  0  0  0  0  0
   -0.6400   -0.6580    0.3080 N   0  0  0  0  0  0  0  0  0  0  0  0
    0.3180    0.0910   -0.3920 C   0  0  0  0  0  0  0  0  0  0  0  0
    1.7820    0.0690   -0.2120 C   0  0  0  0  0  0  0  0  0  0  0  0
    2.5870    0.8290   -0.9410 N   0  0  0  0  0  0  0  0  0  0  0  0
    3.9050    0.8520   -0.8240 N   0  0  0  0  0  0  0  0  0  0  0  0
    4.5170    0.0680    0.0820 C   0  0  0  0  0  0  0  0  0  0  0  0
    5.7720    0.0530    0.2320 O   0  0  0  0  0  0  0  0  0  0  0  0
    3.7040   -0.7360    0.8570 C   0  0  0  0  0  0  0  0  0  0  0  0
    4.2440   -1.4750    1.7070 O   0  0  0  0  0  0  0  0  0  0  0  0
    2.3460   -0.7360    0.7120 N   0  0  0  0  0  0  0  0  0  0  0  0
   -0.3010    0.8550   -1.2770 C   0  0  0  0  0  0  0  0  0  0  0  0
   -1.7470    0.5970   -1.1550 C   0  0  0  0  0  0  0  0  0  0  0  0
  1  2  1  0
  2  3  1  0
  3  4  2  0
  3 15  1  0
  4  5  1  0
  5  6  1  0
  5 14  2  0
  6  7  2  0
  6 13  1  0
  7  8  1  0
  8  9  1  0
  9 10  2  0
  9 11  1  0
 11 12  2  0
 11 13  1  0
 14 15  1  0
M  END
