
     RDKit          3D

 21 22  0  0  0  0  0  0  0  0999 V2000
   -4.4360   -1.3400   -0.6760 C   0  0  0  0  0  0  0  0  0  0  0  0
   -3.3620   -0.4410   -0.0890 C   0  0  1  0  0  0  0  0  0  0  0  0
   -4.0540    0.8120    0.3920 C   0  0  0  0  0  0  0  0  0  0  0  0
   -4.9700    0.4640    1.3830 O   0  0  0  0  0  0  0  0  0  0  0  0
   -2.6800   -1.0740    1.0780 C   0  0  0  0  0  0  0  0  0  0  0  0
   -1.3500   -0.4010    1.3690 C   0  0  0  0  0  0  0  0  0  0  0  0
   -0.4440   -0.6460    0.2160 C   0  0  2  0  0  0  0  0  0  0  0  0
    0.2950   -1.8120    0.5240 O   0  0  0  0  0  0  0  0  0  0  0  0
    0.5370    0.4370   -0.0810 C   0  0  2  0  0  0  0  0  0  0  0  0
   -0.2360    1.7290   -0.3930 C   0  0  0  0  0  0  0  0  0  0  0  0
    1.2640    0.0910   -1.3640 C   0  0  0  0  0  0  0  0  0  0  0  0
    2.5680    0.8720   -1.5110 C   0  0  0  0  0  0  0  0  0  0  0  0
    3.5360    0.3080   -0.4960 C   0  0  1  0  0  0  0  0  0  0  0  0
    3.9880   -0.9110   -0.9980 O   0  0  0  0  0  0  0  0  0  0  0  0
    4.7580    1.1930   -0.3400 C   0  0  0  0  0  0  0  0  0  0  0  0
    5.6490    0.5990    0.5360 O   0  0  0  0  0  0  0  0  0  0  0  0
    2.8630    0.0460    0.8110 C   0  0  0  0  0  0  0  0  0  0  0  0
    1.5280    0.7420    0.9560 C   0  0  2  0  0  0  0  0  0  0  0  0
    1.1190    0.4460    2.2630 O   0  0  0  0  0  0  0  0  0  0  0  0
   -1.2990   -1.0100   -0.9780 C   0  0  0  0  0  0  0  0  0  0  0  0
   -2.4350   -0.2060   -1.0710 O   0  0  0  0  0  0  0  0  0  0  0  0
  2  1  1  6
  2  3  1  0
  2  5  1  0
  2 21  1  0
  3  4  1  0
  5  6  1  0
  6  7  1  0
  7  8  1  1
  7  9  1  0
  7 20  1  0
  9 10  1  6
  9 11  1  0
  9 18  1  0
 11 12  1  0
 12 13  1  0
 13 14  1  6
 13 15  1  0
 13 17  1  0
 15 16  1  0
 17 18  1  0
 18 19  1  1
 20 21  1  0
M  END
