
     RDKit          3D

 22 23  0  0  0  0  0  0  0  0999 V2000
    5.7460    0.6970   -1.4690 C   0  0  0  0  0  0  0  0  0  0  0  0
    4.5570    0.8330   -0.7550 O   0  0  0  0  0  0  0  0  0  0  0  0
    4.0440   -0.4670   -0.5720 C   0  0  0  0  0  0  0  0  0  0  0  0
    2.7460   -0.4190    0.1970 C   0  0  2  0  0  0  0  0  0  0  0  0
    1.6390    0.2460   -0.6170 C   0  0  0  0  0  0  0  0  0  0  0  0
    0.3530   -0.1150    0.2040 C   0  0  2  0  0  0  0  0  0  0  0  0
    0.4650   -1.4900    0.2680 O   0  0  0  0  0  0  0  0  0  0  0  0
   -0.8550    0.3210   -0.5550 C   0  0  2  0  0  0  0  0  0  0  0  0
   -0.6820   -0.1400   -1.8590 O   0  0  0  0  0  0  0  0  0  0  0  0
   -0.9310    1.8320   -0.6520 C   0  0  0  0  0  0  0  0  0  0  0  0
   -2.1350    2.3500   -1.3660 C   0  0  0  0  0  0  0  0  0  0  0  0
   -3.3740    1.7780   -0.9130 O   0  0  0  0  0  0  0  0  0  0  0  0
   -3.3210    0.3590   -0.8080 C   0  0  0  0  0  0  0  0  0  0  0  0
   -4.2770   -0.4090   -1.3480 C   0  0  0  0  0  0  0  0  0  0  0  0
   -4.2150   -1.7780   -1.2520 O   0  0  0  0  0  0  0  0  0  0  0  0
   -2.1660   -0.1370   -0.0790 C   0  0  0  0  0  0  0  0  0  0  0  0
   -2.4020   -0.9900    0.8800 C   0  0  0  0  0  0  0  0  0  0  0  0
   -3.6500   -1.5030    1.4490 C   0  0  0  0  0  0  0  0  0  0  0  0
   -3.7020   -1.2000    2.8480 O   0  0  0  0  0  0  0  0  0  0  0  0
    0.5720    0.4430    1.5530 C   0  0  0  0  0  0  0  0  0  0  0  0
    1.7610   -0.3010    2.1950 C   0  0  0  0  0  0  0  0  0  0  0  0
    2.8760    0.1400    1.4430 O   0  0  0  0  0  0  0  0  0  0  0  0
  1  2  1  0
  2  3  1  0
  4  3  1  6
  4  5  1  0
  4 22  1  0
  5  6  1  0
  6  7  1  1
  6  8  1  0
  6 20  1  0
  8  9  1  6
  8 10  1  0
  8 16  1  0
 10 11  1  0
 11 12  1  0
 12 13  1  0
 13 14  2  3
 13 16  1  0
 14 15  1  0
 16 17  2  3
 17 18  1  0
 18 19  1  0
 20 21  1  0
 21 22  1  0
M  END
