
     RDKit          3D

 19 21  0  0  0  0  0  0  0  0999 V2000
    4.8490   -1.6280   -1.3890 N   0  0  0  0  0  0  0  0  0  0  0  0
    4.0590   -0.8760   -0.7000 C   0  0  0  0  0  0  0  0  0  0  0  0
    2.8670   -0.2490   -1.1550 N   0  0  0  0  0  0  0  0  0  0  0  0
    2.3510    0.4670   -0.0410 C   0  0  0  0  0  0  0  0  0  0  0  0
    1.1040    1.2790   -0.0560 C   0  0  0  0  0  0  0  0  0  0  0  0
   -0.0310    0.4660   -0.3890 N   0  0  1  0  0  0  0  0  0  0  0  0
   -0.3490   -0.5200    0.5980 C   0  0  0  0  0  0  0  0  0  0  0  0
   -1.4130   -0.0740    1.5720 C   0  0  0  0  0  0  0  0  0  0  0  0
   -2.7080    0.2800    0.9190 C   0  0  2  0  0  0  0  0  0  0  0  0
   -3.7150   -0.6590    1.1290 O   0  0  0  0  0  0  0  0  0  0  0  0
   -4.5530   -0.7120    0.0170 C   0  0  0  0  0  0  0  0  0  0  0  0
   -4.7190    0.6490   -0.6270 C   0  0  0  0  0  0  0  0  0  0  0  0
   -3.5280    1.1810   -1.0790 O   0  0  0  0  0  0  0  0  0  0  0  0
   -2.4530    0.5050   -0.5570 C   0  0  1  0  0  0  0  0  0  0  0  0
   -1.1800    1.3170   -0.6680 C   0  0  0  0  0  0  0  0  0  0  0  0
    3.1030    0.3240    0.9920 N   0  0  0  0  0  0  0  0  0  0  0  0
    4.2120   -0.5020    0.7000 C   0  0  0  0  0  0  0  0  0  0  0  0
    5.2050   -0.8800    1.5050 C   0  0  0  0  0  0  0  0  0  0  0  0
    6.2310   -1.7020    1.0650 O   0  0  0  0  0  0  0  0  0  0  0  0
  1  2  2  0
  2  3  1  0
  2 17  1  0
  3  4  1  0
  4  5  1  0
  4 16  2  0
  6  5  1  1
  6  7  1  0
  6 15  1  0
  7  8  1  0
  9  8  1  1
  9 10  1  0
  9 14  1  0
 10 11  1  0
 11 12  1  0
 12 13  1  0
 13 14  1  0
 14 15  1  1
 16 17  1  0
 17 18  2  3
 18 19  1  0
M  CHG  1   6   1
M  END
