
     RDKit          3D

 18 18  0  0  0  0  0  0  0  0999 V2000
    5.3310    1.6880   -0.2520 C   0  0  0  0  0  0  0  0  0  0  0  0
    4.4110    0.8790    0.3590 C   0  0  0  0  0  0  0  0  0  0  0  0
    4.7310   -0.5340    0.4870 C   0  0  0  0  0  0  0  0  0  0  0  0
    3.9410   -1.5550   -0.2000 C   0  0  0  0  0  0  0  0  0  0  0  0
    2.5310   -1.8020    0.0860 C   0  0  0  0  0  0  0  0  0  0  0  0
    1.5660   -0.6540   -0.1450 C   0  0  0  0  0  0  0  0  0  0  0  0
    0.1800   -1.0660    0.1100 C   0  0  0  0  0  0  0  0  0  0  0  0
    0.0640   -2.3010    0.4910 O   0  0  0  0  0  0  0  0  0  0  0  0
   -1.0400   -0.3230    0.0080 C   0  0  0  0  0  0  0  0  0  0  0  0
   -2.2280   -0.8330    0.5720 C   0  0  0  0  0  0  0  0  0  0  0  0
   -3.4270   -0.1720    0.5420 C   0  0  0  0  0  0  0  0  0  0  0  0
   -4.5680   -0.8640    1.1880 C   0  0  0  0  0  0  0  0  0  0  0  0
   -5.8400   -0.1030    1.1250 C   0  0  0  0  0  0  0  0  0  0  0  0
   -3.4990    1.0370   -0.0570 C   0  0  0  0  0  0  0  0  0  0  0  0
   -4.6750    1.7230   -0.1040 O   0  0  0  0  0  0  0  0  0  0  0  0
   -2.3810    1.5840   -0.6220 C   0  0  0  0  0  0  0  0  0  0  0  0
   -1.1470    0.8950   -0.5880 C   0  0  0  0  0  0  0  0  0  0  0  0
    0.0090    1.5400   -1.2450 C   0  0  0  0  0  0  0  0  0  0  0  0
  1  2  2  0
  2  3  1  0
  3  4  1  0
  4  5  1  0
  5  6  1  0
  6  7  1  0
  7  8  2  0
  7  9  1  0
  9 10  2  0
  9 17  1  0
 10 11  1  0
 11 12  1  0
 11 14  2  0
 12 13  1  0
 14 15  1  0
 14 16  1  0
 16 17  2  0
 17 18  1  0
M  END
