
     RDKit          3D

 26 27  0  0  0  0  0  0  0  0999 V2000
    8.3670   -0.4430   -2.1220 C   0  0  0  0  0  0  0  0  0  0  0  0
    7.5000   -1.3210   -1.2050 C   0  0  1  0  0  0  0  0  0  0  0  0
    8.2320   -1.6270   -0.0370 O   0  0  0  0  0  0  0  0  0  0  0  0
    6.3610   -0.4700   -0.7990 C   0  0  0  0  0  0  0  0  0  0  0  0
    6.5810    0.5780    0.0470 C   0  0  0  0  0  0  0  0  0  0  0  0
    5.5120    1.3590    0.4230 C   0  0  0  0  0  0  0  0  0  0  0  0
    4.2400    1.0710   -0.0590 C   0  0  0  0  0  0  0  0  0  0  0  0
    3.1770    1.8860    0.3460 N   0  0  0  0  0  0  0  0  0  0  0  0
    1.8280    1.7190   -0.0210 N   0  0  0  0  0  0  0  0  0  0  0  0
    0.9780    0.8060    0.6410 C   0  0  0  0  0  0  0  0  0  0  0  0
    1.4850    0.1340    1.5820 O   0  0  0  0  0  0  0  0  0  0  0  0
   -0.4370    0.5970    0.3070 C   0  0  0  0  0  0  0  0  0  0  0  0
   -0.9760    1.2490   -0.6320 O   0  0  0  0  0  0  0  0  0  0  0  0
   -1.2450   -0.3250    1.0080 N   0  0  0  0  0  0  0  0  0  0  0  0
   -2.6680   -0.5400    0.6930 C   0  0  1  0  0  0  0  0  0  0  0  0
   -3.2160   -1.8720    0.9830 C   0  0  0  0  0  0  0  0  0  0  0  0
   -3.6060   -0.6840    1.8450 C   0  0  2  0  0  0  0  0  0  0  0  0
   -5.2120    0.0030    1.7870 S   0  0  0  0  0  0  0  0  0  0  0  0
   -5.1440    1.5410    1.8490 O   0  0  0  0  0  0  0  0  0  0  0  0
   -6.2940   -0.5220    0.5350 C   0  0  2  0  0  0  0  0  0  0  0  0
   -5.8330   -0.2480   -0.8570 C   0  0  0  0  0  0  0  0  0  0  0  0
   -6.8280   -0.7120   -1.8340 N   0  0  0  0  0  0  0  0  0  0  0  0
   -7.6690    0.1030    0.7910 C   0  0  0  0  0  0  0  0  0  0  0  0
   -7.5890    1.4910    0.7780 O   0  0  0  0  0  0  0  0  0  0  0  0
    4.0970    0.0230   -0.8880 N   0  0  0  0  0  0  0  0  0  0  0  0
    5.1240   -0.7230   -1.2470 N   0  0  0  0  0  0  0  0  0  0  0  0
  2  1  1  6
  2  3  1  0
  2  4  1  0
  4  5  2  0
  4 26  1  0
  5  6  1  0
  6  7  2  0
  7  8  1  0
  7 25  1  0
  8  9  1  0
  9 10  1  0
 10 11  2  0
 10 12  1  0
 12 13  2  0
 12 14  1  0
 15 14  1  1
 15 16  1  0
 15 17  1  0
 17 16  1  6
 17 18  1  0
 18 19  2  0
 18 20  1  6
 20 21  1  6
 20 23  1  0
 21 22  1  0
 23 24  1  0
 25 26  2  0
M  CHG  1  25   1
M  END
