
     RDKit          3D

 26 27  0  0  0  0  0  0  0  0999 V2000
   -4.1110   -0.6680    0.5710 C   0  0  0  0  0  0  0  0  0  0  0  0
   -3.6990    0.5440   -0.2190 C   0  0  1  0  0  0  0  0  0  0  0  0
   -3.6900    0.3560   -1.6900 C   0  0  0  0  0  0  0  0  0  0  0  0
   -4.5600    1.5850    0.2190 O   0  0  0  0  0  0  0  0  0  0  0  0
   -4.0940    1.8950    1.4960 C   0  0  0  0  0  0  0  0  0  0  0  0
   -2.8140    1.3260    1.6380 O   0  0  0  0  0  0  0  0  0  0  0  0
   -2.4110    1.1730    0.3290 C   0  0  2  0  0  0  0  0  0  0  0  0
   -2.3200    2.5490   -0.2740 C   0  0  0  0  0  0  0  0  0  0  0  0
   -1.3790    3.4100    0.4230 N   0  0  0  0  0  0  0  0  0  0  0  0
   -1.2430    0.3280    0.1000 C   0  0  0  0  0  0  0  0  0  0  0  0
    0.0320    0.6670   -0.1580 N   0  0  0  0  0  0  0  0  0  0  0  0
    0.7950   -0.4610   -0.3260 C   0  0  0  0  0  0  0  0  0  0  0  0
    2.2450   -0.5340   -0.6460 C   0  0  2  0  0  0  0  0  0  0  0  0
    2.4760   -1.4320   -1.7020 O   0  0  0  0  0  0  0  0  0  0  0  0
    3.0960   -0.9010    0.5260 C   0  0  0  0  0  0  0  0  0  0  0  0
    4.8130   -0.9220   -0.1350 S   0  0  0  0  0  0  0  0  0  0  0  0
    5.3080    0.7650   -0.5310 C   0  0  0  0  0  0  0  0  0  0  0  0
    5.4670    1.5270    0.7330 C   0  0  0  0  0  0  0  0  0  0  0  0
    5.2800    0.8600    1.9740 N   0  0  0  0  0  0  0  0  0  0  0  0
    5.7650    2.7520    0.7440 O   0  0  0  0  0  0  0  0  0  0  0  0
   -0.0360   -1.5060   -0.1630 N   0  0  0  0  0  0  0  0  0  0  0  0
    0.2520   -2.9370   -0.2170 C   0  0  0  0  0  0  0  0  0  0  0  0
    0.5890   -3.5070    1.0960 C   0  0  0  0  0  0  0  0  0  0  0  0
    0.8930   -4.8840    1.2040 N   0  0  0  0  0  0  0  0  0  0  0  0
    0.6170   -2.8090    2.1360 O   0  0  0  0  0  0  0  0  0  0  0  0
   -1.2210   -1.0380    0.0840 N   0  0  0  0  0  0  0  0  0  0  0  0
  2  1  1  1
  2  3  1  0
  2  4  1  0
  2  7  1  0
  4  5  1  0
  5  6  1  0
  6  7  1  0
  7  8  1  6
  7 10  1  0
  8  9  1  0
 10 11  1  0
 10 26  2  0
 11 12  2  0
 12 13  1  0
 12 21  1  0
 13 14  1  6
 13 15  1  0
 15 16  1  0
 16 17  1  0
 17 18  1  0
 18 19  1  0
 18 20  2  0
 21 22  1  0
 21 26  1  0
 22 23  1  0
 23 24  1  0
 23 25  2  0
M  CHG  1   9   1
M  END
