
     RDKit          3D

 26 27  0  0  0  0  0  0  0  0999 V2000
    5.6320   -2.3370    0.2270 N   0  0  0  0  0  0  0  0  0  0  0  0
    4.2850   -2.0590    0.0860 C   0  0  0  0  0  0  0  0  0  0  0  0
    3.5750   -2.9570   -0.4850 O   0  0  0  0  0  0  0  0  0  0  0  0
    3.5420   -0.8470    0.5020 C   0  0  2  0  0  0  0  0  0  0  0  0
    2.3530   -0.7540   -0.2380 N   0  0  0  0  0  0  0  0  0  0  0  0
    1.0340   -0.6240    0.4870 C   0  0  0  0  0  0  0  0  0  0  0  0
    1.1220   -0.5270    1.6780 O   0  0  0  0  0  0  0  0  0  0  0  0
    0.0130   -0.6630   -0.4820 N   0  0  0  0  0  0  0  0  0  0  0  0
   -1.2810   -0.2570    0.5730 C   0  0  0  0  0  0  0  0  0  0  0  0
   -0.8820   -0.0410    1.6820 O   0  0  0  0  0  0  0  0  0  0  0  0
   -2.5330   -0.2290    0.0430 N   0  0  0  0  0  0  0  0  0  0  0  0
   -2.8700   -0.7220   -1.2570 C   0  0  0  0  0  0  0  0  0  0  0  0
   -4.2280   -1.4470   -1.2130 C   0  0  0  0  0  0  0  0  0  0  0  0
   -5.2290   -0.5290   -1.0990 O   0  0  0  0  0  0  0  0  0  0  0  0
   -5.7070   -0.4040    0.1840 C   0  0  2  0  0  0  0  0  0  0  0  0
   -6.7340    0.6790    0.1940 C   0  0  0  0  0  0  0  0  0  0  0  0
   -6.1980    1.9460   -0.2840 N   0  0  0  0  0  0  0  0  0  0  0  0
   -4.7010   -0.2640    1.2600 C   0  0  0  0  0  0  0  0  0  0  0  0
   -3.4690    0.4720    0.9720 C   0  0  0  0  0  0  0  0  0  0  0  0
    4.3390    0.3500    0.8000 C   0  0  2  0  0  0  0  0  0  0  0  0
    3.5710    1.5370    1.1430 N   0  0  0  0  0  0  0  0  0  0  0  0
    5.4610    0.7170   -0.0520 C   0  0  0  0  0  0  0  0  0  0  0  0
    6.7500    0.5850    0.2110 C   0  0  0  0  0  0  0  0  0  0  0  0
    7.6310    0.9900   -0.7320 O   0  0  0  0  0  0  0  0  0  0  0  0
    7.2020    2.0410   -1.5730 C   0  0  0  0  0  0  0  0  0  0  0  0
    5.4370    1.4660   -1.6880 S   0  0  0  0  0  0  0  0  0  0  0  0
  1  2  1  0
  2  3  2  0
  2  4  1  0
  4  5  1  6
  4 20  1  0
  5  6  1  0
  6  7  2  0
  6  8  1  0
  8  9  1  0
  9 10  2  0
  9 11  1  0
 11 12  1  0
 11 19  1  0
 12 13  1  0
 13 14  1  0
 14 15  1  0
 15 16  1  6
 15 18  1  0
 16 17  1  0
 18 19  1  0
 20 21  1  6
 20 22  1  0
 22 23  2  0
 22 26  1  0
 23 24  1  0
 24 25  1  0
 25 26  1  0
M  CHG  1  17   1
M  END
