
     RDKit          3D

 39 43  0  0  0  0  0  0  0  0999 V2000
   -4.3620    0.9030    2.2300 C   0  0  0  0  0  0  0  0  0  0  0  0
   -3.8570   -0.1910    1.3120 C   0  0  2  0  0  0  0  0  0  0  0  0
   -2.5230    0.0170    0.7950 N   0  0  0  0  0  0  0  0  0  0  0  0
   -1.8630   -1.2100    0.3760 C   0  0  0  0  0  0  0  0  0  0  0  0
   -2.4750   -2.3420    0.3020 N   0  0  0  0  0  0  0  0  0  0  0  0
   -1.9580   -3.5730   -0.0810 C   0  0  0  0  0  0  0  0  0  0  0  0
   -2.5450   -4.3340   -1.0260 C   0  0  0  0  0  0  0  0  0  0  0  0
   -1.7740   -5.5540   -1.2050 C   0  0  0  0  0  0  0  0  0  0  0  0
   -2.2710   -6.9780   -2.0450 Cl  0  0  0  0  0  0  0  0  0  0  0  0
   -0.6380   -5.2900   -0.5720 C   0  0  0  0  0  0  0  0  0  0  0  0
   -0.7960   -4.3480    0.3450 C   0  0  0  0  0  0  0  0  0  0  0  0
   -0.4850   -1.2870    0.0680 N   0  0  0  0  0  0  0  0  0  0  0  0
    0.2900   -0.1050    0.1700 C   0  0  0  0  0  0  0  0  0  0  0  0
    1.7370   -0.1840   -0.0690 C   0  0  0  0  0  0  0  0  0  0  0  0
    2.6060   -0.2120    0.9970 C   0  0  0  0  0  0  0  0  0  0  0  0
    3.9640   -0.2810    0.8750 C   0  0  0  0  0  0  0  0  0  0  0  0
    4.5030   -0.3270   -0.4220 C   0  0  0  0  0  0  0  0  0  0  0  0
    5.9140   -0.3680   -0.5660 N   0  0  0  0  0  0  0  0  0  0  0  0
    6.6120   -0.8750   -1.6850 C   0  0  0  0  0  0  0  0  0  0  0  0
    6.0000   -1.3540   -2.6650 O   0  0  0  0  0  0  0  0  0  0  0  0
    8.1130   -0.8310   -1.6790 C   0  0  0  0  0  0  0  0  0  0  0  0
    8.6060   -0.1290   -0.5990 O   0  0  0  0  0  0  0  0  0  0  0  0
    3.6520   -0.3010   -1.4950 C   0  0  0  0  0  0  0  0  0  0  0  0
    2.2710   -0.2300   -1.3250 C   0  0  0  0  0  0  0  0  0  0  0  0
   -0.2920    1.0230    0.5290 C   0  0  0  0  0  0  0  0  0  0  0  0
    0.5420    2.2450    0.6330 C   0  0  0  0  0  0  0  0  0  0  0  0
    1.7550    2.2060    0.9180 O   0  0  0  0  0  0  0  0  0  0  0  0
   -0.0430    3.5060    0.4030 N   0  0  0  0  0  0  0  0  0  0  0  0
   -1.4280    3.5510    0.0930 C   0  0  0  0  0  0  0  0  0  0  0  0
   -1.8780    4.7660   -0.3820 C   0  0  0  0  0  0  0  0  0  0  0  0
   -3.1370    4.9100   -0.9460 C   0  0  0  0  0  0  0  0  0  0  0  0
   -3.9340    3.7910   -1.0210 C   0  0  0  0  0  0  0  0  0  0  0  0
   -3.4540    2.5810   -0.5310 C   0  0  0  0  0  0  0  0  0  0  0  0
   -2.2210    2.4030    0.0370 C   0  0  0  0  0  0  0  0  0  0  0  0
   -1.7520    1.1920    0.7330 C   0  0  1  0  0  0  0  0  0  0  0  0
   -4.9160   -0.7900    0.5010 C   0  0  2  0  0  0  0  0  0  0  0  0
   -5.8340   -1.3840    1.4400 F   0  0  0  0  0  0  0  0  0  0  0  0
   -4.6100   -1.7490   -0.3640 F   0  0  0  0  0  0  0  0  0  0  0  0
   -5.7990    0.0810   -0.1360 F   0  0  0  0  0  0  0  0  0  0  0  0
  2  1  1  6
  2  3  1  0
  2 36  1  0
  3  4  1  0
 35  3  1  6
  4  5  2  3
  4 12  1  0
  5  6  1  0
  6  7  2  0
  6 11  1  0
  7  8  1  0
  8  9  1  0
  8 10  2  0
 10 11  2  0
 12 13  1  0
 13 14  1  0
 13 25  2  0
 14 15  2  0
 14 24  1  0
 15 16  1  0
 16 17  2  0
 17 18  1  0
 17 23  1  0
 18 19  1  0
 19 20  2  0
 19 21  1  0
 21 22  1  0
 23 24  2  0
 25 26  1  0
 25 35  1  0
 26 27  2  0
 26 28  1  0
 28 29  1  0
 29 30  2  0
 29 34  1  0
 30 31  1  0
 31 32  2  0
 32 33  1  0
 33 34  2  0
 34 35  1  0
 36 37  1  1
 36 38  1  0
 36 39  1  0
M  END
