
     RDKit          3D

 39 42  0  0  0  0  0  0  0  0999 V2000
   10.5280   -1.6750    2.4460 C   0  0  0  0  0  0  0  0  0  0  0  0
    9.9860   -1.3440    1.1140 N   0  0  0  0  0  0  0  0  0  0  0  0
    8.7320   -0.6930    0.9870 C   0  0  0  0  0  0  0  0  0  0  0  0
    8.1520   -0.4440    2.1030 O   0  0  0  0  0  0  0  0  0  0  0  0
    8.1100   -0.3190   -0.3010 C   0  0  1  0  0  0  0  0  0  0  0  0
    6.7920    0.2500    0.0220 N   0  0  0  0  0  0  0  0  0  0  0  0
    5.5850   -0.2990   -0.4750 C   0  0  0  0  0  0  0  0  0  0  0  0
    5.6570   -1.2940   -1.2070 O   0  0  0  0  0  0  0  0  0  0  0  0
    4.3020    0.3070   -0.1230 C   0  0  0  0  0  0  0  0  0  0  0  0
    3.8010    1.2080    0.5070 N   0  0  0  0  0  0  0  0  0  0  0  0
    2.5290    1.4360    0.5780 N   0  0  0  0  0  0  0  0  0  0  0  0
    1.6850    0.7940    0.0370 C   0  0  0  0  0  0  0  0  0  0  0  0
    0.1870    0.8050   -0.0760 C   0  0  0  0  0  0  0  0  0  0  0  0
   -0.3750   -0.0370    1.0560 C   0  0  0  0  0  0  0  0  0  0  0  0
   -1.8160   -0.0180    0.9430 N   0  0  0  0  0  0  0  0  0  0  0  0
   -2.5290   -0.4930   -0.1720 C   0  0  0  0  0  0  0  0  0  0  0  0
   -1.9290   -0.9730   -1.1410 O   0  0  0  0  0  0  0  0  0  0  0  0
   -3.9760   -0.4400   -0.2250 N   0  0  0  0  0  0  0  0  0  0  0  0
   -4.6090   -0.9420   -1.3880 C   0  0  0  0  0  0  0  0  0  0  0  0
   -6.0740   -0.8440   -1.3540 C   0  0  0  0  0  0  0  0  0  0  0  0
   -6.6480   -1.2930   -2.3960 O   0  0  0  0  0  0  0  0  0  0  0  0
   -6.8130   -0.3190   -0.3090 N   0  0  0  0  0  0  0  0  0  0  0  0
   -8.2250   -0.2310   -0.2920 C   0  0  0  0  0  0  0  0  0  0  0  0
   -9.0760   -0.6210   -1.2700 C   0  0  0  0  0  0  0  0  0  0  0  0
  -10.4890   -0.4930   -1.1710 C   0  0  0  0  0  0  0  0  0  0  0  0
  -11.0440    0.0360   -0.0730 C   0  0  0  0  0  0  0  0  0  0  0  0
  -10.1990    0.4560    0.9690 C   0  0  0  0  0  0  0  0  0  0  0  0
   -8.8380    0.3230    0.8540 C   0  0  0  0  0  0  0  0  0  0  0  0
   -8.2700    0.8210    2.0310 O   0  0  0  0  0  0  0  0  0  0  0  0
   -9.2710    0.9320    3.0250 C   0  0  0  0  0  0  0  0  0  0  0  0
  -10.4300    1.0330    2.2160 O   0  0  0  0  0  0  0  0  0  0  0  0
  -12.4240    0.1270   -0.0510 O   0  0  0  0  0  0  0  0  0  0  0  0
  -12.9160   -0.1140   -1.6900 S   0  0  0  0  0  0  0  0  0  0  0  0
  -12.9570    1.2240   -2.3930 O   0  0  0  0  0  0  0  0  0  0  0  0
  -11.3990   -0.8990   -2.1890 N   0  0  0  0  0  0  0  0  0  0  0  0
    2.7260   -0.4760   -0.8240 S   0  0  0  0  0  0  0  0  0  0  0  0
    8.8400    0.8140   -1.0090 C   0  0  2  0  0  0  0  0  0  0  0  0
   10.2710    0.4830   -1.3410 C   0  0  0  0  0  0  0  0  0  0  0  0
    8.8080    2.0760   -0.1630 C   0  0  0  0  0  0  0  0  0  0  0  0
  1  2  1  0
  2  3  1  0
  3  4  2  0
  3  5  1  0
  5  6  1  1
  5 37  1  0
  6  7  1  0
  7  8  2  0
  7  9  1  0
  9 10  2  0
  9 36  1  0
 10 11  1  0
 11 12  2  0
 12 13  1  0
 12 36  1  0
 13 14  1  0
 14 15  1  0
 15 16  1  0
 16 17  2  0
 16 18  1  0
 18 19  1  0
 19 20  1  0
 20 21  2  0
 20 22  1  0
 22 23  1  0
 23 24  2  0
 23 28  1  0
 24 25  1  0
 25 26  2  0
 25 35  1  0
 26 27  1  0
 26 32  1  0
 27 28  2  0
 27 31  1  0
 28 29  1  0
 29 30  1  0
 30 31  1  0
 32 33  1  0
 33 34  2  0
 33 35  1  6
 37 38  1  1
 37 39  1  0
M  END
