
     RDKit          3D

 29 32  0  0  0  0  0  0  0  0999 V2000
    3.7180   -1.1820   -1.9680 C   0  0  0  0  0  0  0  0  0  0  0  0
    3.7590   -0.2920   -0.7660 C   0  0  2  0  0  0  0  0  0  0  0  0
    4.9700   -0.5460    0.0670 C   0  0  0  0  0  0  0  0  0  0  0  0
    6.2900   -0.3180   -0.5910 C   0  0  0  0  0  0  0  0  0  0  0  0
    7.3440   -0.6100    0.4310 C   0  0  0  0  0  0  0  0  0  0  0  0
    7.5970   -1.8190    0.6820 O   0  0  0  0  0  0  0  0  0  0  0  0
    8.0300    0.3800    1.0900 O   0  0  0  0  0  0  0  0  0  0  0  0
    2.5340   -0.4370    0.1150 C   0  0  1  0  0  0  0  0  0  0  0  0
    2.6600    0.4980    1.3310 C   0  0  0  0  0  0  0  0  0  0  0  0
    1.2900    1.1040    1.5460 C   0  0  0  0  0  0  0  0  0  0  0  0
    0.4210    0.2260    0.7450 C   0  0  1  0  0  0  0  0  0  0  0  0
   -0.9420    0.7030    0.4400 C   0  0  1  0  0  0  0  0  0  0  0  0
   -1.6340   -0.4560   -0.2500 C   0  0  2  0  0  0  0  0  0  0  0  0
   -0.8950   -0.6220   -1.5870 C   0  0  0  0  0  0  0  0  0  0  0  0
    0.5520   -0.9880   -1.3380 C   0  0  2  0  0  0  0  0  0  0  0  0
    0.6620   -2.2390   -0.7320 O   0  0  0  0  0  0  0  0  0  0  0  0
    1.2630    0.0520   -0.5220 C   0  0  2  0  0  0  0  0  0  0  0  0
    1.5280    1.3350   -1.2140 C   0  0  0  0  0  0  0  0  0  0  0  0
   -3.0900   -0.2770   -0.4420 C   0  0  1  0  0  0  0  0  0  0  0  0
   -3.4770   -0.6240   -1.8620 C   0  0  0  0  0  0  0  0  0  0  0  0
   -3.8100   -1.2450    0.4630 C   0  0  0  0  0  0  0  0  0  0  0  0
   -5.2260   -0.9680    0.7360 C   0  0  0  0  0  0  0  0  0  0  0  0
   -5.8320    0.2540    0.2030 C   0  0  1  0  0  0  0  0  0  0  0  0
   -6.6320    0.8430    1.2150 O   0  0  0  0  0  0  0  0  0  0  0  0
   -4.9360    1.3100   -0.3180 C   0  0  0  0  0  0  0  0  0  0  0  0
   -3.4790    1.1120   -0.0580 C   0  0  1  0  0  0  0  0  0  0  0  0
   -3.1390    1.3580    1.3780 C   0  0  0  0  0  0  0  0  0  0  0  0
   -1.6880    1.1650    1.6650 C   0  0  1  0  0  0  0  0  0  0  0  0
   -1.4410    0.3470    2.7680 O   0  0  0  0  0  0  0  0  0  0  0  0
  2  1  1  6
  2  3  1  0
  2  8  1  0
  3  4  1  0
  4  5  1  0
  5  6  2  0
  5  7  1  0
  8  9  1  1
  8 17  1  0
  9 10  1  0
 11 10  1  1
 11 12  1  0
 11 17  1  0
 12 13  1  0
 12 28  1  1
 13 14  1  6
 13 19  1  0
 14 15  1  0
 15 16  1  1
 15 17  1  0
 17 18  1  6
 19 20  1  6
 19 21  1  0
 19 26  1  0
 21 22  1  0
 22 23  1  0
 23 24  1  1
 23 25  1  0
 26 25  1  1
 26 27  1  0
 27 28  1  0
 28 29  1  1
M  END
