
     RDKit          3D

 38 42  0  0  0  0  0  0  0  0999 V2000
   -4.1280   -3.1100   -0.8460 C   0  0  0  0  0  0  0  0  0  0  0  0
   -3.4650   -1.8820   -0.7910 O   0  0  0  0  0  0  0  0  0  0  0  0
   -2.2040   -1.7480   -0.2790 C   0  0  0  0  0  0  0  0  0  0  0  0
   -1.7020   -0.5580    0.0300 C   0  0  0  0  0  0  0  0  0  0  0  0
   -0.3730   -0.5910    0.5490 N   0  0  0  0  0  0  0  0  0  0  0  0
    0.8140   -0.3250   -0.1020 C   0  0  0  0  0  0  0  0  0  0  0  0
    0.7580   -0.0250   -1.3490 O   0  0  0  0  0  0  0  0  0  0  0  0
    2.1450   -0.3480    0.4890 C   0  0  0  0  0  0  0  0  0  0  0  0
    3.2140    0.1620   -0.2520 C   0  0  0  0  0  0  0  0  0  0  0  0
    4.5120    0.2080    0.2040 C   0  0  0  0  0  0  0  0  0  0  0  0
    5.5920    0.7440   -0.6130 C   0  0  0  0  0  0  0  0  0  0  0  0
    5.4700    1.9540   -1.2600 C   0  0  0  0  0  0  0  0  0  0  0  0
    6.4720    2.4820   -2.0470 C   0  0  0  0  0  0  0  0  0  0  0  0
    7.6560    1.7750   -2.2020 C   0  0  0  0  0  0  0  0  0  0  0  0
    8.6640    2.2790   -2.9790 F   0  0  0  0  0  0  0  0  0  0  0  0
    7.7990    0.5610   -1.5640 C   0  0  0  0  0  0  0  0  0  0  0  0
    9.2960   -0.3420   -1.7540 Cl  0  0  0  0  0  0  0  0  0  0  0  0
    6.7670    0.0460   -0.7690 C   0  0  0  0  0  0  0  0  0  0  0  0
    4.7570   -0.2820    1.4720 C   0  0  0  0  0  0  0  0  0  0  0  0
    6.1270   -0.2740    2.0740 C   0  0  0  0  0  0  0  0  0  0  0  0
    3.7110   -0.7870    2.2100 C   0  0  0  0  0  0  0  0  0  0  0  0
    2.3920   -0.8340    1.7440 C   0  0  0  0  0  0  0  0  0  0  0  0
    1.4260   -1.3660    2.5490 F   0  0  0  0  0  0  0  0  0  0  0  0
   -2.5430    0.6550   -0.0740 C   0  0  2  0  0  0  0  0  0  0  0  0
   -3.9980    0.2360    0.0300 C   0  0  0  0  0  0  0  0  0  0  0  0
   -4.4120   -0.4130    1.2020 C   0  0  0  0  0  0  0  0  0  0  0  0
   -5.6910   -0.8820    1.3890 C   0  0  0  0  0  0  0  0  0  0  0  0
   -6.0800   -1.5360    2.5880 N   0  0  0  0  0  0  0  0  0  0  0  0
   -6.5680   -0.7870    3.5920 O   0  0  0  0  0  0  0  0  0  0  0  0
   -6.6150   -0.7000    0.3580 C   0  0  0  0  0  0  0  0  0  0  0  0
   -6.2260   -0.0640   -0.7960 C   0  0  0  0  0  0  0  0  0  0  0  0
   -4.9190    0.4050   -0.9610 C   0  0  0  0  0  0  0  0  0  0  0  0
   -4.5420    1.1380   -2.1140 N   0  0  0  0  0  0  0  0  0  0  0  0
   -3.2470    1.7030   -2.2710 C   0  0  0  0  0  0  0  0  0  0  0  0
   -2.7160    2.5220   -3.2140 N   0  0  0  0  0  0  0  0  0  0  0  0
   -1.5040    2.8620   -2.8300 N   0  0  0  0  0  0  0  0  0  0  0  0
   -1.2320    2.2790   -1.6530 C   0  0  0  0  0  0  0  0  0  0  0  0
   -2.3250    1.5110   -1.2430 C   0  0  0  0  0  0  0  0  0  0  0  0
  1  2  1  0
  2  3  1  0
  3  4  2  3
  4  5  1  0
 24  4  1  6
  5  6  1  0
  6  7  2  0
  6  8  1  0
  8  9  2  0
  8 22  1  0
  9 10  1  0
 10 11  1  0
 10 19  2  0
 11 12  2  0
 11 18  1  0
 12 13  1  0
 13 14  2  0
 14 15  1  0
 14 16  1  0
 16 17  1  0
 16 18  2  0
 19 20  1  0
 19 21  1  0
 21 22  2  0
 22 23  1  0
 24 25  1  0
 24 38  1  0
 25 26  2  0
 25 32  1  0
 26 27  1  0
 27 28  1  0
 27 30  2  0
 28 29  1  0
 30 31  1  0
 31 32  2  0
 32 33  1  0
 33 34  1  0
 34 35  1  0
 34 38  2  0
 35 36  1  0
 36 37  2  0
 37 38  1  0
M  END
