
     RDKit          3D

 39 42  0  0  0  0  0  0  0  0999 V2000
    1.6110    0.1300   -1.8980 C   0  0  0  0  0  0  0  0  0  0  0  0
    1.3230   -1.0260   -1.4940 C   0  0  0  0  0  0  0  0  0  0  0  0
    0.1540   -1.8010   -1.0870 C   0  0  0  0  0  0  0  0  0  0  0  0
   -1.1470   -1.2050   -0.9400 C   0  0  0  0  0  0  0  0  0  0  0  0
   -1.4150   -0.0970   -1.6110 C   0  0  0  0  0  0  0  0  0  0  0  0
   -2.6710    0.7090   -1.6950 C   0  0  0  0  0  0  0  0  0  0  0  0
   -2.6630    1.9750   -1.7880 C   0  0  0  0  0  0  0  0  0  0  0  0
   -1.3810    2.7240   -1.8190 C   0  0  0  0  0  0  0  0  0  0  0  0
   -3.9630   -0.0200   -1.7690 N   0  0  0  0  0  0  0  0  0  0  0  0
   -4.3280   -0.9560   -0.7750 C   0  0  0  0  0  0  0  0  0  0  0  0
   -5.5340   -1.0980   -0.3050 N   0  0  0  0  0  0  0  0  0  0  0  0
   -5.5340   -2.0850    0.7090 C   0  0  0  0  0  0  0  0  0  0  0  0
   -4.3160   -2.5530    0.8760 C   0  0  0  0  0  0  0  0  0  0  0  0
   -3.4270   -1.8990   -0.0510 C   0  0  0  0  0  0  0  0  0  0  0  0
   -2.0950   -1.8120    0.0390 C   0  0  0  0  0  0  0  0  0  0  0  0
   -1.4400   -2.4550    1.1300 C   0  0  0  0  0  0  0  0  0  0  0  0
   -0.1340   -2.1320    1.6680 C   0  0  0  0  0  0  0  0  0  0  0  0
    0.3430   -2.9300    2.5190 O   0  0  0  0  0  0  0  0  0  0  0  0
    0.6700   -1.0320    1.4330 N   0  0  0  0  0  0  0  0  0  0  0  0
    1.9680   -0.8890    2.1180 C   0  0  2  0  0  0  0  0  0  0  0  0
    1.8360    0.0070    3.1800 F   0  0  0  0  0  0  0  0  0  0  0  0
    3.0870   -0.4830    1.3010 C   0  0  0  0  0  0  0  0  0  0  0  0
    3.3290    0.7680    0.8850 C   0  0  0  0  0  0  0  0  0  0  0  0
    2.5070    1.9000    1.1890 C   0  0  0  0  0  0  0  0  0  0  0  0
    2.7210    3.1360    0.7990 C   0  0  0  0  0  0  0  0  0  0  0  0
    1.7970    4.1700    1.1910 N   0  0  0  0  0  0  0  0  0  0  0  0
    1.8700    5.3920    0.8970 C   0  0  0  0  0  0  0  0  0  0  0  0
    2.9600    5.9280    0.0820 C   0  0  0  0  0  0  0  0  0  0  0  0
    3.0180    7.1490   -0.2010 O   0  0  0  0  0  0  0  0  0  0  0  0
    3.9190    4.9780   -0.3490 N   0  0  0  0  0  0  0  0  0  0  0  0
    3.8360    3.5760   -0.0130 C   0  0  0  0  0  0  0  0  0  0  0  0
    4.7180    2.8020   -0.4280 O   0  0  0  0  0  0  0  0  0  0  0  0
   -2.2050   -3.2380    1.9670 C   0  0  0  0  0  0  0  0  0  0  0  0
   -3.6400   -3.4800    1.8290 C   0  0  2  0  0  0  0  0  0  0  0  0
   -3.8050   -4.7990    1.4220 F   0  0  0  0  0  0  0  0  0  0  0  0
   -4.2430   -3.3500    3.0640 F   0  0  0  0  0  0  0  0  0  0  0  0
    0.4570   -3.0200   -0.7090 C   0  0  0  0  0  0  0  0  0  0  0  0
    1.8590   -3.5520   -0.6580 C   0  0  0  0  0  0  0  0  0  0  0  0
   -0.7690   -4.3170   -0.6420 Cl  0  0  0  0  0  0  0  0  0  0  0  0
  1  2  2  0
  2  3  1  0
  3  4  1  0
  3 37  2  3
  4  5  2  0
  4 15  1  0
  5  6  1  0
  6  7  2  3
  6  9  1  0
  7  8  1  0
  9 10  1  0
 10 11  2  0
 10 14  1  0
 11 12  1  0
 12 13  2  0
 13 14  1  0
 13 34  1  0
 14 15  2  0
 15 16  1  0
 16 17  1  0
 16 33  2  0
 17 18  2  0
 17 19  1  0
 19 20  1  0
 20 21  1  1
 20 22  1  0
 22 23  2  3
 23 24  1  0
 24 25  2  3
 25 26  1  0
 25 31  1  0
 26 27  2  0
 27 28  1  0
 28 29  2  0
 28 30  1  0
 30 31  1  0
 31 32  2  0
 33 34  1  0
 34 35  1  6
 34 36  1  0
 37 38  1  0
 37 39  1  0
M  END
