
     RDKit          3D

 35 39  0  0  0  0  0  0  0  0999 V2000
   -5.3790   -2.5440    0.0340 N   0  0  0  0  0  0  0  0  0  0  0  0
   -5.5370   -1.2760    0.6950 C   0  0  0  0  0  0  0  0  0  0  0  0
   -5.5310   -0.1710   -0.2940 C   0  0  0  0  0  0  0  0  0  0  0  0
   -4.3070    0.0240   -1.1040 C   0  0  0  0  0  0  0  0  0  0  0  0
   -3.1070    0.3460   -0.3330 N   0  0  0  0  0  0  0  0  0  0  0  0
   -2.2040   -0.6790    0.1440 C   0  0  0  0  0  0  0  0  0  0  0  0
   -1.0660   -1.0400   -0.7270 C   0  0  0  0  0  0  0  0  0  0  0  0
   -0.5400   -2.3800   -0.2440 C   0  0  0  0  0  0  0  0  0  0  0  0
    0.5520   -2.6430    0.3390 C   0  0  0  0  0  0  0  0  0  0  0  0
    1.7040   -1.8720    0.7790 C   0  0  0  0  0  0  0  0  0  0  0  0
    2.0120   -0.6870    1.1520 C   0  0  0  0  0  0  0  0  0  0  0  0
    3.4670   -0.4670    1.5240 N   0  0  0  0  0  0  0  0  0  0  0  0
    4.3480   -0.7020    0.5950 C   0  0  0  0  0  0  0  0  0  0  0  0
    4.1930   -1.1080   -0.6540 N   0  0  0  0  0  0  0  0  0  0  0  0
    5.3650   -1.2470   -1.3100 C   0  0  0  0  0  0  0  0  0  0  0  0
    6.3640   -0.9060   -0.4270 C   0  0  0  0  0  0  0  0  0  0  0  0
    7.5400   -0.6210    0.2460 C   0  0  0  0  0  0  0  0  0  0  0  0
    6.9210   -0.2810    1.4300 C   0  0  0  0  0  0  0  0  0  0  0  0
    5.7100   -0.5480    0.8210 C   0  0  0  0  0  0  0  0  0  0  0  0
    1.3230    0.5970    1.3370 C   0  0  0  0  0  0  0  0  0  0  0  0
    0.9440    0.7230    2.5920 O   0  0  0  0  0  0  0  0  0  0  0  0
    1.0980    1.5430    0.3630 O   0  0  0  0  0  0  0  0  0  0  0  0
    1.2980    2.8150   -0.0090 C   0  0  0  0  0  0  0  0  0  0  0  0
    2.4650    3.3770   -0.5340 C   0  0  0  0  0  0  0  0  0  0  0  0
    2.6200    4.6880   -0.8910 C   0  0  0  0  0  0  0  0  0  0  0  0
    1.5580    5.5360   -0.7300 C   0  0  0  0  0  0  0  0  0  0  0  0
    0.3770    5.0420   -0.2190 C   0  0  0  0  0  0  0  0  0  0  0  0
    0.2230    3.7190    0.1390 C   0  0  0  0  0  0  0  0  0  0  0  0
   -1.0340    3.2870    0.6500 O   0  0  0  0  0  0  0  0  0  0  0  0
   -1.4680    2.0250    0.3460 C   0  0  0  0  0  0  0  0  0  0  0  0
   -2.8360    1.7440   -0.0560 C   0  0  0  0  0  0  0  0  0  0  0  0
   -3.7010    2.5990   -0.1600 O   0  0  0  0  0  0  0  0  0  0  0  0
    0.0980   -4.1220    0.3770 C   0  0  2  0  0  0  0  0  0  0  0  0
    1.1110   -5.1680   -0.6290 Cl  0  0  0  0  0  0  0  0  0  0  0  0
   -1.0330   -3.6990   -0.2510 N   0  0  0  0  0  0  0  0  0  0  0  0
  1  2  1  0
  2  3  1  0
  3  4  1  0
  4  5  1  0
  5  6  1  0
  5 31  1  0
  6  7  1  0
  7  8  1  0
  8  9  2  0
  8 35  1  0
  9 10  1  0
  9 33  1  0
 10 11  2  0
 11 12  1  0
 11 20  1  0
 12 13  2  3
 13 14  1  0
 13 19  1  0
 14 15  2  0
 15 16  1  0
 16 17  2  0
 16 19  1  0
 17 18  1  0
 18 19  2  0
 20 21  2  0
 20 22  1  0
 22 23  1  0
 23 24  2  0
 23 28  1  0
 24 25  1  0
 25 26  2  0
 26 27  1  0
 27 28  2  0
 28 29  1  0
 29 30  1  0
 30 31  1  0
 31 32  2  0
 33 34  1  6
 33 35  1  0
M  CHG  2   1   1  14   1
M  END
