
     RDKit          3D

 46 50  0  0  0  0  0  0  0  0999 V2000
  -11.1050    2.7040   -1.2170 C   0  0  0  0  0  0  0  0  0  0  0  0
  -11.1940    2.1710   -0.0160 C   0  0  0  0  0  0  0  0  0  0  0  0
  -12.0090    0.9480    0.2340 C   0  0  0  0  0  0  0  0  0  0  0  0
  -11.1290   -0.0740    0.7390 O   0  0  0  0  0  0  0  0  0  0  0  0
  -10.0600   -0.5160   -0.0270 C   0  0  0  0  0  0  0  0  0  0  0  0
   -9.8940   -0.0020   -1.1540 O   0  0  0  0  0  0  0  0  0  0  0  0
   -9.1220   -1.5630    0.4420 C   0  0  0  0  0  0  0  0  0  0  0  0
   -8.0720   -1.8120   -0.6520 C   0  0  1  0  0  0  0  0  0  0  0  0
   -8.8110   -2.2770   -1.9040 C   0  0  0  0  0  0  0  0  0  0  0  0
   -7.3350   -0.6640   -0.8810 O   0  0  0  0  0  0  0  0  0  0  0  0
   -6.0060   -0.4960   -0.6570 C   0  0  0  0  0  0  0  0  0  0  0  0
   -5.1830   -1.4510   -0.1440 C   0  0  0  0  0  0  0  0  0  0  0  0
   -3.8210   -1.1910    0.0530 C   0  0  0  0  0  0  0  0  0  0  0  0
   -3.2920    0.0360   -0.2710 C   0  0  0  0  0  0  0  0  0  0  0  0
   -4.1090    1.0000   -0.7860 C   0  0  0  0  0  0  0  0  0  0  0  0
   -5.4370    0.7530   -0.9800 C   0  0  0  0  0  0  0  0  0  0  0  0
   -3.3260    2.2480   -1.0670 C   0  0  0  0  0  0  0  0  0  0  0  0
   -2.0700    2.0450   -0.2690 C   0  0  0  0  0  0  0  0  0  0  0  0
   -1.9900    0.5800   -0.1870 N   0  0  0  0  0  0  0  0  0  0  0  0
   -0.7770   -0.1200   -0.0430 C   0  0  0  0  0  0  0  0  0  0  0  0
    0.3170    0.5640   -0.0390 O   0  0  0  0  0  0  0  0  0  0  0  0
   -0.6210   -1.5650    0.1050 C   0  0  0  0  0  0  0  0  0  0  0  0
    0.8600   -1.9130    0.1360 C   0  0  2  0  0  0  0  0  0  0  0  0
    1.1000   -3.7310    0.3100 S   0  0  0  0  0  0  0  0  0  0  0  0
    2.4520   -3.6390    1.5030 C   0  0  0  0  0  0  0  0  0  0  0  0
    3.1570   -4.6110    1.9330 O   0  0  0  0  0  0  0  0  0  0  0  0
    2.5350   -2.2640    1.8350 N   0  0  0  0  0  0  0  0  0  0  0  0
    3.6960   -1.6430    2.4950 C   0  0  0  0  0  0  0  0  0  0  0  0
    4.6830   -1.1540    1.4500 C   0  0  0  0  0  0  0  0  0  0  0  0
    4.4030   -1.3380    0.2410 O   0  0  0  0  0  0  0  0  0  0  0  0
    5.8640   -0.5190    1.8320 N   0  0  0  0  0  0  0  0  0  0  0  0
    6.8550   -0.0250    0.9470 C   0  0  0  0  0  0  0  0  0  0  0  0
    6.9460   -0.2710   -0.3930 C   0  0  0  0  0  0  0  0  0  0  0  0
    7.9650    0.2910   -1.1810 C   0  0  0  0  0  0  0  0  0  0  0  0
    8.9190    1.1140   -0.6420 C   0  0  0  0  0  0  0  0  0  0  0  0
    8.8420    1.3730    0.7120 C   0  0  0  0  0  0  0  0  0  0  0  0
    9.8780    2.2750    1.2750 C   0  0  0  0  0  0  0  0  0  0  0  0
   11.1470    1.5570    1.4130 C   0  0  0  0  0  0  0  0  0  0  0  0
   12.3250    2.3080    1.9500 C   0  0  0  0  0  0  0  0  0  0  0  0
   11.2290    0.3800    1.0960 O   0  0  0  0  0  0  0  0  0  0  0  0
    7.8410    0.8190    1.4750 C   0  0  0  0  0  0  0  0  0  0  0  0
    9.8110    1.5330   -1.6430 O   0  0  0  0  0  0  0  0  0  0  0  0
    9.7110    0.5800   -2.7130 C   0  0  0  0  0  0  0  0  0  0  0  0
    8.2620    0.1770   -2.6320 C   0  0  0  0  0  0  0  0  0  0  0  0
    1.3940   -1.5220    1.4890 C   0  0  0  0  0  0  0  0  0  0  0  0
    0.8590   -0.6320    2.2030 O   0  0  0  0  0  0  0  0  0  0  0  0
  1  2  2  0
  2  3  1  0
  3  4  1  0
  4  5  1  0
  5  6  2  0
  5  7  1  0
  7  8  1  0
  8  9  1  6
  8 10  1  0
 10 11  1  0
 11 12  2  0
 11 16  1  0
 12 13  1  0
 13 14  2  0
 14 15  1  0
 14 19  1  0
 15 16  2  0
 15 17  1  0
 17 18  1  0
 18 19  1  0
 19 20  1  0
 20 21  2  0
 20 22  1  0
 23 22  1  1
 23 24  1  0
 23 45  1  0
 24 25  1  0
 25 26  2  0
 25 27  1  0
 27 28  1  0
 27 45  1  0
 28 29  1  0
 29 30  2  0
 29 31  1  0
 31 32  1  0
 32 33  2  0
 32 41  1  0
 33 34  1  0
 34 35  2  0
 34 44  1  0
 35 36  1  0
 35 42  1  0
 36 37  1  0
 36 41  2  0
 37 38  1  0
 38 39  1  0
 38 40  2  0
 42 43  1  0
 43 44  1  0
 45 46  2  0
M  END
