
     RDKit          3D

 46 50  0  0  0  0  0  0  0  0999 V2000
   10.1220    1.6770   -2.0490 C   0  0  0  0  0  0  0  0  0  0  0  0
   10.1210    0.6140   -1.7510 C   0  0  0  0  0  0  0  0  0  0  0  0
   10.1290   -1.0720   -1.2460 C   0  0  0  0  0  0  0  0  0  0  0  0
   11.2140   -0.8050   -0.2810 C   0  0  0  0  0  0  0  0  0  0  0  0
   10.7970    0.0160    0.9150 C   0  0  0  0  0  0  0  0  0  0  0  0
    9.3820    0.4260    0.9030 N   0  0  0  0  0  0  0  0  0  0  0  0
    8.3640   -0.5810    0.8560 C   0  0  0  0  0  0  0  0  0  0  0  0
    8.5600   -1.7890    0.8890 O   0  0  0  0  0  0  0  0  0  0  0  0
    6.9600   -0.1110    0.7440 C   0  0  1  0  0  0  0  0  0  0  0  0
    6.8590    1.0370   -0.2540 C   0  0  0  0  0  0  0  0  0  0  0  0
    5.1470    1.6740    0.1120 S   0  0  0  0  0  0  0  0  0  0  0  0
    4.1030    0.1950    0.1360 C   0  0  0  0  0  0  0  0  0  0  0  0
    2.7760    0.3130    0.0630 C   0  0  0  0  0  0  0  0  0  0  0  0
    1.8130   -0.7820    0.0040 C   0  0  0  0  0  0  0  0  0  0  0  0
    0.5660   -0.3300   -0.0000 O   0  0  0  0  0  0  0  0  0  0  0  0
   -0.5460   -1.2250    0.1270 C   0  0  0  0  0  0  0  0  0  0  0  0
   -1.7990   -0.5910   -0.1540 C   0  0  0  0  0  0  0  0  0  0  0  0
   -1.6990    0.6840   -0.5600 O   0  0  0  0  0  0  0  0  0  0  0  0
   -3.1460   -1.0640   -0.0770 N   0  0  0  0  0  0  0  0  0  0  0  0
   -4.2190   -0.1240   -0.3550 C   0  0  0  0  0  0  0  0  0  0  0  0
   -4.0380    1.2120   -0.1530 C   0  0  0  0  0  0  0  0  0  0  0  0
   -5.1930    2.0460   -0.4070 C   0  0  0  0  0  0  0  0  0  0  0  0
   -5.0540    3.4280    0.0470 N   0  0  0  0  0  0  0  0  0  0  0  0
   -5.2290    4.4100   -0.9370 C   0  0  0  0  0  0  0  0  0  0  0  0
   -5.4010    4.3010   -2.0670 O   0  0  0  0  0  0  0  0  0  0  0  0
   -5.1450    5.6470   -0.2470 C   0  0  0  0  0  0  0  0  0  0  0  0
   -4.9430    5.9550    1.0630 C   0  0  0  0  0  0  0  0  0  0  0  0
   -4.7970    4.8960    1.8430 O   0  0  0  0  0  0  0  0  0  0  0  0
   -4.8600    3.6370    1.2700 C   0  0  0  0  0  0  0  0  0  0  0  0
   -4.6600    2.7090    2.2170 O   0  0  0  0  0  0  0  0  0  0  0  0
   -6.3100    1.5170   -0.8130 C   0  0  0  0  0  0  0  0  0  0  0  0
   -6.5840    0.1640   -1.0330 C   0  0  0  0  0  0  0  0  0  0  0  0
   -5.3960   -0.6120   -0.7510 C   0  0  0  0  0  0  0  0  0  0  0  0
   -5.6360   -1.9910   -0.9280 O   0  0  0  0  0  0  0  0  0  0  0  0
   -6.8800   -2.4680   -0.9220 C   0  0  0  0  0  0  0  0  0  0  0  0
   -7.6360   -3.1120   -1.9520 C   0  0  0  0  0  0  0  0  0  0  0  0
   -8.9050   -3.4850   -1.7340 C   0  0  0  0  0  0  0  0  0  0  0  0
   -9.6000   -3.3100   -0.5390 C   0  0  0  0  0  0  0  0  0  0  0  0
   -8.8750   -2.7110    0.4600 C   0  0  0  0  0  0  0  0  0  0  0  0
   -7.5910   -2.3070    0.3060 C   0  0  0  0  0  0  0  0  0  0  0  0
   -6.8360   -1.7430    1.3020 O   0  0  0  0  0  0  0  0  0  0  0  0
   -7.2950   -1.6570    2.6290 C   0  0  0  0  0  0  0  0  0  0  0  0
    2.4710   -1.9760    0.0210 C   0  0  0  0  0  0  0  0  0  0  0  0
    3.8350   -2.0910    0.1060 C   0  0  0  0  0  0  0  0  0  0  0  0
    4.7460   -1.0790    0.1780 C   0  0  0  0  0  0  0  0  0  0  0  0
    6.0790   -1.0830    0.3190 O   0  0  0  0  0  0  0  0  0  0  0  0
  1  2  3  0
  2  3  1  0
  3  4  1  0
  4  5  1  0
  5  6  1  0
  6  7  1  0
  7  8  2  0
  9  7  1  6
  9 10  1  0
  9 46  1  0
 10 11  1  0
 11 12  1  0
 12 13  2  0
 12 45  1  0
 13 14  1  0
 14 15  1  0
 14 43  2  0
 15 16  1  0
 16 17  1  0
 17 18  2  0
 17 19  1  0
 19 20  1  0
 20 21  2  0
 20 33  1  0
 21 22  1  0
 22 23  1  0
 22 31  2  0
 23 24  1  0
 23 29  1  0
 24 25  2  0
 24 26  1  0
 26 27  2  0
 27 28  1  0
 28 29  1  0
 29 30  2  0
 31 32  1  0
 32 33  2  0
 33 34  1  0
 34 35  1  0
 35 36  2  0
 35 40  1  0
 36 37  1  0
 37 38  2  0
 38 39  1  0
 39 40  2  0
 40 41  1  0
 41 42  1  0
 43 44  1  0
 44 45  2  0
 45 46  1  0
M  END
