
     RDKit          3D

 26 26  0  0  0  0  0  0  0  0999 V2000
   -0.9960   -2.4190   -0.0520 C   0  0  0  0  0  0  0  0  0  0  0  0
   -0.5610   -1.2110    0.7950 C   0  0  2  0  0  0  0  0  0  0  0  0
    0.6040   -1.7110    1.6820 C   0  0  2  0  0  0  0  0  0  0  0  0
    1.3600   -2.6700    1.0700 O   0  0  0  0  0  0  0  0  0  0  0  0
    3.0360   -2.3280    1.0740 S   0  0  0  0  0  0  0  0  0  0  0  0
    3.4960   -0.3550    0.5090 S   0  0  0  0  0  0  0  0  0  0  0  0
    3.7420   -0.2210   -1.3030 C   0  0  1  0  0  0  0  0  0  0  0  0
    4.9800   -1.0340   -1.6330 C   0  0  0  0  0  0  0  0  0  0  0  0
    2.5270   -0.7460   -2.0040 C   0  0  0  0  0  0  0  0  0  0  0  0
    4.0470    1.5390   -1.6380 S   0  0  0  0  0  0  0  0  0  0  0  0
    2.5770    2.5320   -1.2890 C   0  0  2  0  0  0  0  0  0  0  0  0
    2.8290    3.8770   -1.5420 O   0  0  0  0  0  0  0  0  0  0  0  0
    2.1490    2.3930    0.0090 O   0  0  0  0  0  0  0  0  0  0  0  0
   -0.2110   -2.3120    2.8440 C   0  0  0  0  0  0  0  0  0  0  0  0
   -1.1010   -1.1390    3.1330 C   0  0  0  0  0  0  0  0  0  0  0  0
   -1.6370   -0.8000    1.7260 C   0  0  1  0  0  0  0  0  0  0  0  0
   -2.1780    0.8720    1.7220 S   0  0  0  0  0  0  0  0  0  0  0  0
   -3.1620    1.4610    0.3600 C   0  0  2  0  0  0  0  0  0  0  0  0
   -4.5000    0.8150    0.2110 C   0  0  1  0  0  0  0  0  0  0  0  0
   -5.3110    0.9920    1.3310 O   0  0  0  0  0  0  0  0  0  0  0  0
   -5.1650    1.3920   -0.8690 O   0  0  0  0  0  0  0  0  0  0  0  0
   -2.2830    1.3830   -1.1700 S   0  0  1  0  0  0  0  0  0  0  0  0
   -2.1650   -0.0150   -1.6300 O   0  0  0  0  0  0  0  0  0  0  0  0
   -3.0480    2.2080   -2.2260 O   0  0  0  0  0  0  0  0  0  0  0  0
   -0.7750    2.0780   -0.9630 O   0  0  0  0  0  0  0  0  0  0  0  0
   -0.8490    3.3670   -1.1910 O   0  0  0  0  0  0  0  0  0  0  0  0
  2  1  1  6
  2  3  1  0
  2 16  1  0
  3  4  1  6
  3 14  1  0
  4  5  1  0
  5  6  1  0
  6  7  1  0
  7  8  1  6
  7  9  1  0
  7 10  1  0
 10 11  1  0
 11 12  1  1
 11 13  1  0
 14 15  1  0
 15 16  1  0
 16 17  1  1
 18 17  1  1
 18 19  1  0
 18 22  1  0
 19 20  1  1
 19 21  1  0
 22 23  2  0
 22 24  2  0
 22 25  1  1
 25 26  1  0
M  END
