
     RDKit          3D

 26 26  0  0  0  0  0  0  0  0999 V2000
   -0.9530   -0.6320   -2.3960 O   0  0  0  0  0  0  0  0  0  0  0  0
   -0.1060   -0.7130   -1.5350 C   0  0  0  0  0  0  0  0  0  0  0  0
   -0.1600    0.1160   -0.3380 C   0  0  0  0  0  0  0  0  0  0  0  0
   -1.3130    1.0490   -0.2590 C   0  0  1  0  0  0  0  0  0  0  0  0
   -2.9330    0.2920   -0.2740 S   0  0  0  0  0  0  0  0  0  0  0  0
   -3.3200   -0.8560    1.4580 S   0  0  0  0  0  0  0  0  0  0  0  0
   -2.8230   -2.5870    1.2700 C   0  0  1  0  0  0  0  0  0  0  0  0
   -3.0470   -3.3660    2.5450 C   0  0  0  0  0  0  0  0  0  0  0  0
   -2.4810   -4.6390    2.3290 O   0  0  0  0  0  0  0  0  0  0  0  0
   -3.4230   -3.1930    0.1780 O   0  0  0  0  0  0  0  0  0  0  0  0
   -2.5950   -3.6430   -0.8010 C   0  0  0  0  0  0  0  0  0  0  0  0
   -3.4240   -4.2140   -1.7950 O   0  0  0  0  0  0  0  0  0  0  0  0
   -1.1570    1.9530    1.3190 S   0  0  0  0  0  0  0  0  0  0  0  0
   -0.2700    3.4120    0.8190 C   0  0  0  0  0  0  0  0  0  0  0  0
   -0.2790    3.6420   -0.4610 C   0  0  0  0  0  0  0  0  0  0  0  0
    0.4000    4.8150   -1.1300 C   0  0  1  0  0  0  0  0  0  0  0  0
    1.3250    4.3080   -2.0110 O   0  0  0  0  0  0  0  0  0  0  0  0
   -0.5860    5.5070   -1.8110 O   0  0  0  0  0  0  0  0  0  0  0  0
    1.0580    5.7130   -0.1040 C   0  0  0  0  0  0  0  0  0  0  0  0
    1.6670    6.7500   -0.7850 O   0  0  0  0  0  0  0  0  0  0  0  0
   -1.1760    2.4340   -1.4180 S   0  0  0  0  0  0  0  0  0  0  0  0
    1.2300   -1.8740   -1.7480 S   0  0  0  0  0  0  0  0  0  0  0  0
    2.3180   -1.8340   -0.4220 O   0  0  0  0  0  0  0  0  0  0  0  0
    3.6180   -2.1300   -0.8280 C   0  0  0  0  0  0  0  0  0  0  0  0
    4.5240   -2.0820    0.3700 C   0  0  0  0  0  0  0  0  0  0  0  0
    4.1490   -2.9990    1.3520 O   0  0  0  0  0  0  0  0  0  0  0  0
  1  2  2  0
  2  3  1  0
  2 22  1  0
  4  3  1  6
  4  5  1  0
  4 13  1  0
  4 21  1  0
  5  6  1  0
  6  7  1  0
  7  8  1  1
  7 10  1  0
  8  9  1  0
 10 11  1  0
 11 12  1  0
 13 14  1  0
 14 15  2  0
 15 16  1  0
 15 21  1  0
 16 17  1  6
 16 18  1  0
 16 19  1  0
 19 20  1  0
 22 23  1  0
 23 24  1  0
 24 25  1  0
 25 26  1  0
M  END
