
     RDKit          3D

 27 26  0  0  0  0  0  0  0  0999 V2000
    0.7410   -2.3150   -2.4580 C   0  0  0  0  0  0  0  0  0  0  0  0
   -0.2570   -2.0140   -1.3440 C   0  0  1  0  0  0  0  0  0  0  0  0
   -0.7330   -3.5120   -0.4440 S   0  0  0  0  0  0  0  0  0  0  0  0
    0.3150   -0.7780   -0.2120 S   0  0  0  0  0  0  0  0  0  0  0  0
    1.7320   -1.1170    0.7740 C   0  0  2  0  0  0  0  0  0  0  0  0
    2.9130   -1.2400    0.0170 O   0  0  0  0  0  0  0  0  0  0  0  0
    1.6860   -2.3550    1.6430 C   0  0  0  0  0  0  0  0  0  0  0  0
    1.6950   -3.5410    0.9230 O   0  0  0  0  0  0  0  0  0  0  0  0
    1.9320    0.0350    1.7360 C   0  0  1  0  0  0  0  0  0  0  0  0
    3.0610   -0.2000    2.5200 O   0  0  0  0  0  0  0  0  0  0  0  0
    1.8590    1.3980    1.2090 C   0  0  0  0  0  0  0  0  0  0  0  0
    2.8170    1.8130    0.1420 C   0  0  1  0  0  0  0  0  0  0  0  0
    2.6430    1.0280   -0.9810 O   0  0  0  0  0  0  0  0  0  0  0  0
    2.5090    3.2560   -0.2900 C   0  0  0  0  0  0  0  0  0  0  0  0
    2.6890    4.0490    0.8640 O   0  0  0  0  0  0  0  0  0  0  0  0
   -1.5570   -1.4830   -1.9740 C   0  0  2  0  0  0  0  0  0  0  0  0
   -2.2660   -2.7140   -3.0970 S   0  0  0  0  0  0  0  0  0  0  0  0
   -2.7780   -4.0920   -2.1950 O   0  0  0  0  0  0  0  0  0  0  0  0
   -1.2280    0.0150   -2.9430 S   0  0  0  0  0  0  0  0  0  0  0  0
   -0.2530   -0.3030   -4.3130 O   0  0  0  0  0  0  0  0  0  0  0  0
   -2.7780   -1.1110   -0.7280 S   0  0  2  0  0  0  0  0  0  0  0  0
   -4.2110   -0.5350   -1.4660 O   0  0  0  0  0  0  0  0  0  0  0  0
   -2.2460    0.1390    0.3160 O   0  0  0  0  0  0  0  0  0  0  0  0
   -2.8340    1.3520   -0.0490 C   0  0  0  0  0  0  0  0  0  0  0  0
   -2.3960    2.4800    0.8330 C   0  0  0  0  0  0  0  0  0  0  0  0
   -2.7440    2.2600    2.2780 C   0  0  0  0  0  0  0  0  0  0  0  0
   -2.3230    3.3220    3.0550 O   0  0  0  0  0  0  0  0  0  0  0  0
  2  1  1  6
  2  3  1  0
  2  4  1  0
  2 16  1  0
  4  5  1  0
  5  6  1  6
  5  7  1  0
  5  9  1  0
  7  8  1  0
  9 10  1  6
  9 11  1  0
 11 12  1  0
 12 13  1  6
 12 14  1  0
 14 15  1  0
 16 17  1  6
 16 19  1  0
 16 21  1  0
 17 18  1  0
 19 20  1  0
 21 22  1  6
 21 23  1  0
 23 24  1  0
 24 25  1  0
 25 26  1  0
 26 27  1  0
M  END
