
     RDKit          3D

 20 20  0  0  0  0  0  0  0  0999 V2000
   -3.1280   -1.5090   -2.4780 O   0  0  0  0  0  0  0  0  0  0  0  0
   -2.9100   -0.5320   -1.7120 C   0  0  0  0  0  0  0  0  0  0  0  0
   -2.8360    0.7590   -2.1640 O   0  0  0  0  0  0  0  0  0  0  0  0
   -2.7340   -0.8470   -0.2650 C   0  0  2  0  0  0  0  0  0  0  0  0
   -4.0070   -1.4030    0.3190 C   0  0  0  0  0  0  0  0  0  0  0  0
   -4.1600   -0.6600    1.6190 C   0  0  0  0  0  0  0  0  0  0  0  0
   -3.6420    0.7370    1.2380 C   0  0  0  0  0  0  0  0  0  0  0  0
   -2.4470    0.3380    0.5070 N   0  0  0  0  0  0  0  0  0  0  0  0
   -1.2080    1.0130    0.5560 C   0  0  0  0  0  0  0  0  0  0  0  0
   -1.1080    2.0420    1.2720 O   0  0  0  0  0  0  0  0  0  0  0  0
   -0.0490    0.4980   -0.2340 C   0  0  0  0  0  0  0  0  0  0  0  0
    1.0150    1.3290   -0.0060 O   0  0  0  0  0  0  0  0  0  0  0  0
    2.3350    0.8340   -0.8410 P   0  0  0  0  0  0  0  0  0  0  0  0
    3.4450    1.9380   -1.3880 O   0  0  0  0  0  0  0  0  0  0  0  0
    2.5380   -0.7460   -1.2770 O   0  0  0  0  0  0  0  0  0  0  0  0
    3.1450    0.6300    0.4340 O   0  0  0  0  0  0  0  0  0  0  0  0
    4.5520   -0.1960    0.5150 P   0  0  0  0  0  0  0  0  0  0  0  0
    4.2710   -0.6240    1.9580 O   0  0  0  0  0  0  0  0  0  0  0  0
    5.9470    0.6210    1.1040 O   0  0  0  0  0  0  0  0  0  0  0  0
    4.7510   -1.6830   -0.0720 O   0  0  0  0  0  0  0  0  0  0  0  0
  1  2  2  0
  2  3  1  0
  4  2  1  6
  4  5  1  0
  4  8  1  0
  5  6  1  0
  6  7  1  0
  7  8  1  0
  8  9  1  0
  9 10  2  0
  9 11  1  0
 11 12  1  0
 12 13  1  0
 13 14  1  0
 13 15  1  0
 13 16  1  0
 16 17  1  0
 17 18  1  0
 17 19  1  0
 17 20  1  0
M  END
