
     RDKit          3D

 20 20  0  0  0  0  0  0  0  0999 V2000
   -4.5800   -0.4910   -0.3320 C   0  0  0  0  0  0  0  0  0  0  0  0
   -3.3140    0.0780   -0.0500 O   0  0  0  0  0  0  0  0  0  0  0  0
   -2.1870   -0.6460    0.2510 C   0  0  0  0  0  0  0  0  0  0  0  0
   -2.3310   -1.9170    0.2680 O   0  0  0  0  0  0  0  0  0  0  0  0
   -0.9250   -0.1020    0.5330 N   0  0  0  0  0  0  0  0  0  0  0  0
   -0.7950    1.3560    0.5040 C   0  0  2  0  0  0  0  0  0  0  0  0
   -0.5970    1.7390   -0.9480 C   0  0  0  0  0  0  0  0  0  0  0  0
   -1.6790    1.3290   -1.6890 O   0  0  0  0  0  0  0  0  0  0  0  0
    0.3900    1.7670    1.3530 C   0  0  0  0  0  0  0  0  0  0  0  0
    1.5540    1.1380    0.7370 N   0  0  0  0  0  0  0  0  0  0  0  0
    2.6210    1.9770    0.4000 C   0  0  0  0  0  0  0  0  0  0  0  0
    2.5670    3.2430    0.6120 O   0  0  0  0  0  0  0  0  0  0  0  0
    3.8870    1.5240   -0.2130 C   0  0  0  0  0  0  0  0  0  0  0  0
    3.9100    0.1620   -0.3800 O   0  0  0  0  0  0  0  0  0  0  0  0
    1.5190   -0.2670    0.5250 C   0  0  0  0  0  0  0  0  0  0  0  0
    0.2060   -0.9410    0.8420 C   0  0  2  0  0  0  0  0  0  0  0  0
    0.1460   -2.2330    0.1860 N   0  0  0  0  0  0  0  0  0  0  0  0
    0.0860   -3.4630    0.9200 C   0  0  0  0  0  0  0  0  0  0  0  0
    0.0850   -3.4210    2.1840 O   0  0  0  0  0  0  0  0  0  0  0  0
    0.0290   -4.7000    0.2910 O   0  0  0  0  0  0  0  0  0  0  0  0
  1  2  1  0
  2  3  1  0
  3  4  2  0
  3  5  1  0
  5  6  1  0
  5 16  1  0
  6  7  1  6
  6  9  1  0
  7  8  1  0
  9 10  1  0
 10 11  1  0
 10 15  1  0
 11 12  2  0
 11 13  1  0
 13 14  1  0
 15 16  1  0
 16 17  1  6
 17 18  1  0
 18 19  2  0
 18 20  1  0
M  END
