
     RDKit          3D

 20 21  0  0  0  0  0  0  0  0999 V2000
   -6.5900    1.3040   -0.7780 O   0  0  0  0  0  0  0  0  0  0  0  0
   -5.3930    0.9200   -0.7140 C   0  0  0  0  0  0  0  0  0  0  0  0
   -4.9050   -0.2710   -1.3230 N   0  0  0  0  0  0  0  0  0  0  0  0
   -3.5910   -0.4810   -0.7890 C   0  0  0  0  0  0  0  0  0  0  0  0
   -3.1100    0.9580   -0.5780 C   0  0  2  0  0  0  0  0  0  0  0  0
   -2.0190    0.8760    0.4370 C   0  0  0  0  0  0  0  0  0  0  0  0
   -2.2380    1.3250    1.5830 O   0  0  0  0  0  0  0  0  0  0  0  0
   -0.7570    0.3120    0.1440 N   0  0  0  0  0  0  0  0  0  0  0  0
    0.3160    0.2270    1.1260 C   0  0  0  0  0  0  0  0  0  0  0  0
    1.4880   -0.4220    0.4630 C   0  0  0  0  0  0  0  0  0  0  0  0
    1.4390   -0.7910   -0.7460 O   0  0  0  0  0  0  0  0  0  0  0  0
    2.6790   -0.6510    1.1310 O   0  0  0  0  0  0  0  0  0  0  0  0
    3.7770   -1.2530    0.5320 C   0  0  0  0  0  0  0  0  0  0  0  0
    4.0400   -2.5570    0.5010 C   0  0  0  0  0  0  0  0  0  0  0  0
    5.2210   -2.7990   -0.1830 O   0  0  0  0  0  0  0  0  0  0  0  0
    5.7310   -1.6080   -0.6040 O   0  0  0  0  0  0  0  0  0  0  0  0
    4.8700   -0.6130   -0.1860 C   0  0  0  0  0  0  0  0  0  0  0  0
    4.9640    0.6980   -0.3700 C   0  0  0  0  0  0  0  0  0  0  0  0
    4.0160    1.5800    0.1120 O   0  0  0  0  0  0  0  0  0  0  0  0
   -4.2970    1.5720   -0.0400 N   0  0  0  0  0  0  0  0  0  0  0  0
  1  2  2  0
  2  3  1  0
  2 20  1  0
  3  4  1  0
  4  5  1  0
  5  6  1  1
  5 20  1  0
  6  7  2  0
  6  8  1  0
  8  9  1  0
  9 10  1  0
 10 11  2  0
 10 12  1  0
 12 13  1  0
 13 14  2  0
 13 17  1  0
 14 15  1  0
 15 16  1  0
 16 17  1  0
 17 18  2  3
 18 19  1  0
M  END
