
     RDKit          3D

 10  9  0  0  0  0  0  0  0  0999 V2000
   -3.1520   -1.0390    0.1260 O   0  0  0  0  0  0  0  0  0  0  0  0
   -2.9540    0.3060   -0.2490 C   0  0  0  0  0  0  0  0  0  0  0  0
   -1.6010    0.7370    0.2570 C   0  0  0  0  0  0  0  0  0  0  0  0
   -0.4960   -0.1260   -0.3420 C   0  0  2  0  0  0  0  0  0  0  0  0
   -0.6890   -1.4620    0.0040 O   0  0  0  0  0  0  0  0  0  0  0  0
    0.8630    0.3540    0.1780 C   0  0  0  0  0  0  0  0  0  0  0  0
    1.9770   -0.4900   -0.4050 C   0  0  0  0  0  0  0  0  0  0  0  0
    3.2770    0.0660    0.1720 C   0  0  1  0  0  0  0  0  0  0  0  0
    3.3830    1.7630   -0.3360 Cl  0  0  0  0  0  0  0  0  0  0  0  0
    3.0760    0.0620    1.9530 Cl  0  0  0  0  0  0  0  0  0  0  0  0
  1  2  1  0
  2  3  1  0
  3  4  1  0
  4  5  1  1
  4  6  1  0
  6  7  1  0
  7  8  1  0
  8  9  1  6
  8 10  1  0
M  END
