
     RDKit          3D

  9  8  0  0  0  0  0  0  0  0999 V2000
   -2.6440    1.6340    0.3030 O   0  0  0  0  0  0  0  0  0  0  0  0
   -2.7250    0.2650    0.5110 C   0  0  0  0  0  0  0  0  0  0  0  0
   -1.5920   -0.4720   -0.1670 C   0  0  0  0  0  0  0  0  0  0  0  0
   -0.2380    0.0020    0.3720 C   0  0  1  0  0  0  0  0  0  0  0  0
   -0.2200   -0.2560    1.7390 O   0  0  0  0  0  0  0  0  0  0  0  0
    0.8030   -0.8190   -0.2860 C   0  0  0  0  0  0  0  0  0  0  0  0
    2.2110   -0.5300    0.0900 C   0  0  0  0  0  0  0  0  0  0  0  0
    2.6990    0.8400   -0.1790 C   0  0  0  0  0  0  0  0  0  0  0  0
    4.3980    0.9740    0.3420 Cl  0  0  0  0  0  0  0  0  0  0  0  0
  1  2  1  0
  2  3  1  0
  3  4  1  0
  4  5  1  1
  4  6  1  0
  6  7  1  0
  7  8  1  0
  8  9  1  0
M  END
