
     RDKit          3D

 21 22  0  0  0  0  0  0  0  0999 V2000
    5.6890   -0.9200    0.3590 C   0  0  0  0  0  0  0  0  0  0  0  0
    4.3400   -0.2990    0.2790 C   0  0  0  0  0  0  0  0  0  0  0  0
    4.0880    0.9890   -0.0290 C   0  0  0  0  0  0  0  0  0  0  0  0
    2.8390    1.4990   -0.0940 C   0  0  0  0  0  0  0  0  0  0  0  0
    2.5600    3.1550   -0.5920 Cl  0  0  0  0  0  0  0  0  0  0  0  0
    1.7320    0.6600    0.1620 C   0  0  0  0  0  0  0  0  0  0  0  0
    0.4810    1.3850    0.5180 C   0  0  0  0  0  0  0  0  0  0  0  0
   -0.7470    1.1260   -0.1920 N   0  0  0  0  0  0  0  0  0  0  0  0
   -1.2370   -0.1280   -0.0750 C   0  0  2  0  0  0  0  0  0  0  0  0
   -1.0100   -0.9210   -1.3870 C   0  0  0  0  0  0  0  0  0  0  0  0
   -1.7380   -0.4050   -2.4490 O   0  0  0  0  0  0  0  0  0  0  0  0
   -2.6950   -0.3090    0.0700 C   0  0  0  0  0  0  0  0  0  0  0  0
   -3.3650   -1.1860   -0.7030 C   0  0  0  0  0  0  0  0  0  0  0  0
   -4.8500   -1.2150   -0.3970 C   0  0  0  0  0  0  0  0  0  0  0  0
   -5.4100    0.0180   -0.1330 O   0  0  0  0  0  0  0  0  0  0  0  0
   -4.8410    0.9240    0.7420 C   0  0  0  0  0  0  0  0  0  0  0  0
   -3.4340    0.7320    0.8190 C   0  0  0  0  0  0  0  0  0  0  0  0
   -2.6750    1.6750    2.1300 Cl  0  0  0  0  0  0  0  0  0  0  0  0
    1.9610   -0.5800    0.4560 N   0  0  0  0  0  0  0  0  0  0  0  0
    3.2580   -1.1140    0.5400 C   0  0  0  0  0  0  0  0  0  0  0  0
    3.4070   -2.3010    0.8540 O   0  0  0  0  0  0  0  0  0  0  0  0
  1  2  1  0
  2  3  2  0
  2 20  1  0
  3  4  1  0
  4  5  1  0
  4  6  2  0
  6  7  1  0
  6 19  1  0
  7  8  1  0
  8  9  1  0
  9 10  1  6
  9 12  1  0
 10 11  1  0
 12 13  2  0
 12 17  1  0
 13 14  1  0
 14 15  1  0
 15 16  1  0
 16 17  2  0
 17 18  1  0
 19 20  1  0
 20 21  2  0
M  CHG  1   8   1
M  END
