
     RDKit          3D

 10 10  0  0  0  0  0  0  0  0999 V2000
   -2.8970    2.0330    0.7160 Cl  0  0  0  0  0  0  0  0  0  0  0  0
   -2.8530    0.3830    0.0620 C   0  0  0  0  0  0  0  0  0  0  0  0
   -1.4840   -0.2260    0.2940 C   0  0  0  0  0  0  0  0  0  0  0  0
   -0.4680    0.5340   -0.3410 O   0  0  0  0  0  0  0  0  0  0  0  0
    0.8430    0.0890   -0.2110 C   0  0  0  0  0  0  0  0  0  0  0  0
    1.3190   -1.0250    0.4700 C   0  0  0  0  0  0  0  0  0  0  0  0
    2.6280   -1.0770    0.3390 O   0  0  0  0  0  0  0  0  0  0  0  0
    3.0730   -0.0830   -0.3790 C   0  0  0  0  0  0  0  0  0  0  0  0
    4.7540    0.2570   -0.8180 Cl  0  0  0  0  0  0  0  0  0  0  0  0
    1.9750    0.6750   -0.7440 C   0  0  0  0  0  0  0  0  0  0  0  0
  1  2  1  0
  2  3  1  0
  3  4  1  0
  4  5  1  0
  5  6  2  0
  5 10  1  0
  6  7  1  0
  7  8  1  0
  8  9  1  0
  8 10  2  0
M  END
