
     RDKit          3D

 16 17  0  0  0  0  0  0  0  0999 V2000
   -0.9000   -2.7230   -0.5420 C   0  0  0  0  0  0  0  0  0  0  0  0
   -0.2600   -1.4140   -0.6210 C   0  0  0  0  0  0  0  0  0  0  0  0
   -0.6340   -0.2340   -0.2530 C   0  0  0  0  0  0  0  0  0  0  0  0
   -1.9390   -0.0250    0.3900 C   0  0  0  0  0  0  0  0  0  0  0  0
   -2.4150   -1.0780    1.2890 C   0  0  0  0  0  0  0  0  0  0  0  0
   -2.7630    1.0390    0.2990 C   0  0  0  0  0  0  0  0  0  0  0  0
   -2.4630    2.1630   -0.4690 O   0  0  0  0  0  0  0  0  0  0  0  0
   -1.2600    2.8770   -0.4610 C   0  0  0  0  0  0  0  0  0  0  0  0
   -0.0600    2.2150   -0.9920 C   0  0  0  0  0  0  0  0  0  0  0  0
    0.2330    0.8840   -0.5270 N   0  0  0  0  0  0  0  0  0  0  0  0
    1.6010    0.6090   -0.3130 C   0  0  0  0  0  0  0  0  0  0  0  0
    2.5810    1.5060   -0.6050 N   0  0  0  0  0  0  0  0  0  0  0  0
    3.7190    0.9340   -0.2850 N   0  0  0  0  0  0  0  0  0  0  0  0
    3.5100   -0.2950    0.2010 C   0  0  0  0  0  0  0  0  0  0  0  0
    4.4910   -1.2270    0.6560 N   0  0  0  0  0  0  0  0  0  0  0  0
    2.2090   -0.4450    0.1640 O   0  0  0  0  0  0  0  0  0  0  0  0
  1  2  1  0
  2  3  2  3
  3  4  1  0
  3 10  1  0
  4  5  1  0
  4  6  2  0
  6  7  1  0
  7  8  1  0
  8  9  1  0
  9 10  1  0
 10 11  1  0
 11 12  2  0
 11 16  1  0
 12 13  1  0
 13 14  2  0
 14 15  1  0
 14 16  1  0
M  END
