
     RDKit          3D

 16 17  0  0  0  0  0  0  0  0999 V2000
   -0.3540   -1.2280    0.5390 O   0  0  0  0  0  0  0  0  0  0  0  0
   -0.2450   -0.1390    0.0520 C   0  0  0  0  0  0  0  0  0  0  0  0
    0.8070    0.7320   -0.2780 N   0  0  0  0  0  0  0  0  0  0  0  0
    2.1040   -0.3180    0.1640 C   0  0  0  0  0  0  0  0  0  0  0  0
    1.7360   -1.3650    0.5400 O   0  0  0  0  0  0  0  0  0  0  0  0
    3.3910    0.2930   -0.0160 C   0  0  0  0  0  0  0  0  0  0  0  0
    4.5590   -0.3090    0.2410 C   0  0  0  0  0  0  0  0  0  0  0  0
    5.6410    0.6300   -0.0640 C   0  0  0  0  0  0  0  0  0  0  0  0
    4.9630    1.8240   -0.5130 N   0  0  0  0  0  0  0  0  0  0  0  0
    3.7420    1.5790   -0.4650 N   0  0  0  0  0  0  0  0  0  0  0  0
   -1.5100    0.5470   -0.3450 N   0  0  0  0  0  0  0  0  0  0  0  0
   -2.7690   -0.0080   -0.1810 C   0  0  0  0  0  0  0  0  0  0  0  0
   -3.1580   -1.1180    0.3920 C   0  0  0  0  0  0  0  0  0  0  0  0
   -4.6310   -1.1920    0.2580 C   0  0  0  0  0  0  0  0  0  0  0  0
   -5.0260    0.0280   -0.4850 C   0  0  0  0  0  0  0  0  0  0  0  0
   -3.9420    0.7080   -0.7320 C   0  0  0  0  0  0  0  0  0  0  0  0
  1  2  2  0
  2  3  1  0
  2 11  1  0
  3  4  1  0
  4  5  2  0
  4  6  1  0
  6  7  2  0
  6 10  1  0
  7  8  1  0
  8  9  1  0
  9 10  2  0
 11 12  1  0
 12 13  2  0
 12 16  1  0
 13 14  1  0
 14 15  1  0
 15 16  2  0
M  END
