
     RDKit          3D

 16 17  0  0  0  0  0  0  0  0999 V2000
    3.5930    1.3410    0.5950 C   0  0  0  0  0  0  0  0  0  0  0  0
    2.7170    0.3190    0.0020 C   0  0  0  0  0  0  0  0  0  0  0  0
    1.7740   -0.2610    0.6410 N   0  0  0  0  0  0  0  0  0  0  0  0
    0.9500   -1.2230    0.0810 N   0  0  0  0  0  0  0  0  0  0  0  0
    1.4320   -2.4570   -0.2470 C   0  0  0  0  0  0  0  0  0  0  0  0
    0.3910   -3.1850   -0.7770 C   0  0  0  0  0  0  0  0  0  0  0  0
   -0.7200   -2.3620   -0.7580 C   0  0  0  0  0  0  0  0  0  0  0  0
   -0.3480   -1.1310   -0.2140 C   0  0  0  0  0  0  0  0  0  0  0  0
   -1.2350   -0.0010   -0.0260 C   0  0  0  0  0  0  0  0  0  0  0  0
   -0.8780    1.2080    0.5070 C   0  0  0  0  0  0  0  0  0  0  0  0
   -1.7500    2.2680    0.6730 C   0  0  0  0  0  0  0  0  0  0  0  0
   -1.3520    3.3650    1.1740 O   0  0  0  0  0  0  0  0  0  0  0  0
   -3.0230    2.0870    0.2850 N   0  0  0  0  0  0  0  0  0  0  0  0
   -3.4060    0.9150   -0.2410 C   0  0  0  0  0  0  0  0  0  0  0  0
   -4.6240    0.8160   -0.5850 O   0  0  0  0  0  0  0  0  0  0  0  0
   -2.5450   -0.1070   -0.3960 N   0  0  0  0  0  0  0  0  0  0  0  0
  1  2  1  0
  2  3  2  3
  3  4  1  0
  4  5  1  0
  4  8  1  0
  5  6  2  0
  6  7  1  0
  7  8  2  0
  8  9  1  0
  9 10  2  0
  9 16  1  0
 10 11  1  0
 11 12  2  0
 11 13  1  0
 13 14  1  0
 14 15  2  0
 14 16  1  0
M  END
