
     RDKit          3D

 26 28  0  0  0  0  0  0  0  0999 V2000
   -7.0850    2.7580   -0.8030 C   0  0  0  0  0  0  0  0  0  0  0  0
   -5.9750    1.8980   -0.7360 O   0  0  0  0  0  0  0  0  0  0  0  0
   -5.8790    0.8830    0.2020 C   0  0  0  0  0  0  0  0  0  0  0  0
   -6.7960    0.6920    1.0370 O   0  0  0  0  0  0  0  0  0  0  0  0
   -4.6920    0.0450    0.1920 C   0  0  0  0  0  0  0  0  0  0  0  0
   -4.4750   -0.9860    1.0610 N   0  0  0  0  0  0  0  0  0  0  0  0
   -3.2840   -1.5280    0.7550 C   0  0  0  0  0  0  0  0  0  0  0  0
   -2.7180   -2.6880    1.5040 C   0  0  0  0  0  0  0  0  0  0  0  0
   -2.7070   -0.8780   -0.2990 C   0  0  0  0  0  0  0  0  0  0  0  0
   -1.4080   -1.1430   -0.9580 C   0  0  0  0  0  0  0  0  0  0  0  0
   -0.3170   -0.6220   -0.0860 C   0  0  0  0  0  0  0  0  0  0  0  0
    1.0330   -0.8590   -0.6960 C   0  0  0  0  0  0  0  0  0  0  0  0
    1.0260   -1.4400   -1.7940 O   0  0  0  0  0  0  0  0  0  0  0  0
    2.2070   -0.4590   -0.0820 N   0  0  0  0  0  0  0  0  0  0  0  0
    3.5470   -0.6650   -0.6310 C   0  0  0  0  0  0  0  0  0  0  0  0
    3.6720   -1.3370   -1.8380 C   0  0  0  0  0  0  0  0  0  0  0  0
    5.4370   -1.3610   -2.1030 S   0  0  0  0  0  0  0  0  0  0  0  0
    5.8750   -0.4980   -0.6290 C   0  0  0  0  0  0  0  0  0  0  0  0
    4.6790   -0.2450   -0.0280 C   0  0  0  0  0  0  0  0  0  0  0  0
    4.7950    0.5210    1.3080 C   0  0  0  0  0  0  0  0  0  0  0  0
    5.8250    1.5900    1.0810 C   0  0  0  0  0  0  0  0  0  0  0  0
    7.2110    0.9870    1.0070 C   0  0  0  0  0  0  0  0  0  0  0  0
    7.1600   -0.0750   -0.0340 C   0  0  0  0  0  0  0  0  0  0  0  0
    8.1990   -0.6640   -0.4590 O   0  0  0  0  0  0  0  0  0  0  0  0
   -3.6200    0.1240   -0.6450 C   0  0  0  0  0  0  0  0  0  0  0  0
   -3.4870    1.1300   -1.7360 C   0  0  0  0  0  0  0  0  0  0  0  0
  1  2  1  0
  2  3  1  0
  3  4  2  0
  3  5  1  0
  5  6  1  0
  5 25  2  0
  6  7  1  0
  7  8  1  0
  7  9  2  0
  9 10  1  0
  9 25  1  0
 10 11  1  0
 11 12  1  0
 12 13  2  0
 12 14  1  0
 14 15  1  0
 15 16  2  0
 15 19  1  0
 16 17  1  0
 17 18  1  0
 18 19  2  0
 18 23  1  0
 19 20  1  0
 20 21  1  0
 21 22  1  0
 22 23  1  0
 23 24  2  0
 25 26  1  0
M  END
