
     RDKit          3D

 14 15  0  0  0  0  0  0  0  0999 V2000
   -3.0750    3.2440   -2.4860 N   0  0  0  0  0  0  0  0  0  0  0  0
   -2.2450    2.5010   -2.0440 C   0  0  0  0  0  0  0  0  0  0  0  0
   -1.2570    1.6470   -1.5390 C   0  0  0  0  0  0  0  0  0  0  0  0
   -1.4420    0.9350   -0.3550 C   0  0  0  0  0  0  0  0  0  0  0  0
   -0.4820    0.1010    0.1470 C   0  0  0  0  0  0  0  0  0  0  0  0
   -0.6340   -0.6200    1.3180 C   0  0  0  0  0  0  0  0  0  0  0  0
    0.3430   -1.4540    1.8040 C   0  0  0  0  0  0  0  0  0  0  0  0
    1.5210   -1.5570    1.0710 C   0  0  0  0  0  0  0  0  0  0  0  0
    2.5090   -2.4110    1.5800 O   0  0  0  0  0  0  0  0  0  0  0  0
    1.6710   -0.8390   -0.0920 C   0  0  0  0  0  0  0  0  0  0  0  0
    0.7000    0.0010   -0.5950 C   0  0  0  0  0  0  0  0  0  0  0  0
    0.8390    0.6810   -1.6970 O   0  0  0  0  0  0  0  0  0  0  0  0
   -0.0440    1.4900   -2.2210 C   0  0  0  0  0  0  0  0  0  0  0  0
    0.1210    2.1310   -3.2870 O   0  0  0  0  0  0  0  0  0  0  0  0
  1  2  3  0
  2  3  1  0
  3  4  2  0
  3 13  1  0
  4  5  1  0
  5  6  2  0
  5 11  1  0
  6  7  1  0
  7  8  2  0
  8  9  1  0
  8 10  1  0
 10 11  2  0
 11 12  1  0
 12 13  1  0
 13 14  2  0
M  END
