
     RDKit          3D

 26 28  0  0  0  0  0  0  0  0999 V2000
    9.3310   -1.6210    1.3150 O   0  0  0  0  0  0  0  0  0  0  0  0
    8.7530   -0.2250    1.2130 S   0  0  0  0  0  0  0  0  0  0  0  0
    7.0530   -0.1820    1.7550 C   0  0  0  0  0  0  0  0  0  0  0  0
    6.1850    0.1150    0.5930 C   0  0  0  0  0  0  0  0  0  0  0  0
    6.6980    0.2830   -0.5220 O   0  0  0  0  0  0  0  0  0  0  0  0
    4.7950    0.1990    0.7800 N   0  0  0  0  0  0  0  0  0  0  0  0
    3.8390    0.4750   -0.2070 C   0  0  0  0  0  0  0  0  0  0  0  0
    4.1620    0.9210   -1.4580 C   0  0  0  0  0  0  0  0  0  0  0  0
    3.1550    1.1640   -2.4080 C   0  0  0  0  0  0  0  0  0  0  0  0
    1.8420    0.9630   -2.1090 C   0  0  0  0  0  0  0  0  0  0  0  0
    1.4890    0.5150   -0.8550 C   0  0  0  0  0  0  0  0  0  0  0  0
    0.1410    0.3260   -0.5980 O   0  0  0  0  0  0  0  0  0  0  0  0
   -0.6750    1.3270   -0.0880 C   0  0  0  0  0  0  0  0  0  0  0  0
   -0.1370    2.4400    0.1400 O   0  0  0  0  0  0  0  0  0  0  0  0
   -2.1050    1.0950    0.1750 C   0  0  0  0  0  0  0  0  0  0  0  0
   -2.9590    2.0470    0.6790 C   0  0  0  0  0  0  0  0  0  0  0  0
   -4.1860    1.4890    0.7900 N   0  0  0  0  0  0  0  0  0  0  0  0
   -4.1290    0.2240    0.3740 C   0  0  0  0  0  0  0  0  0  0  0  0
   -5.2400   -0.7230    0.3350 C   0  0  0  0  0  0  0  0  0  0  0  0
   -5.0600   -2.0060   -0.1160 C   0  0  0  0  0  0  0  0  0  0  0  0
   -6.1280   -2.8790   -0.1420 C   0  0  0  0  0  0  0  0  0  0  0  0
   -7.3890   -2.5080    0.2730 C   0  0  0  0  0  0  0  0  0  0  0  0
   -7.5790   -1.2060    0.7320 C   0  0  0  0  0  0  0  0  0  0  0  0
   -6.4940   -0.3460    0.7500 C   0  0  0  0  0  0  0  0  0  0  0  0
   -2.8320   -0.0360   -0.0140 C   0  0  0  0  0  0  0  0  0  0  0  0
    2.4760    0.2850    0.0490 C   0  0  0  0  0  0  0  0  0  0  0  0
  1  2  2  0
  2  3  1  0
  3  4  1  0
  4  5  2  0
  4  6  1  0
  6  7  1  0
  7  8  2  0
  7 26  1  0
  8  9  1  0
  9 10  2  0
 10 11  1  0
 11 12  1  0
 11 26  2  0
 12 13  1  0
 13 14  2  0
 13 15  1  0
 15 16  2  0
 15 25  1  0
 16 17  1  0
 17 18  1  0
 18 19  1  0
 18 25  2  0
 19 20  2  0
 19 24  1  0
 20 21  1  0
 21 22  2  0
 22 23  1  0
 23 24  2  0
M  END
