
     RDKit          3D

 12 13  0  0  0  0  0  0  0  0999 V2000
   -3.7020    1.3790   -0.2350 N   0  0  0  0  0  0  0  0  0  0  0  0
   -3.0440    0.2010   -0.6420 C   0  0  0  0  0  0  0  0  0  0  0  0
   -3.7790   -0.7630   -1.7650 S   0  0  0  0  0  0  0  0  0  0  0  0
   -1.7440   -0.2160   -0.1250 C   0  0  0  0  0  0  0  0  0  0  0  0
   -1.6130   -1.2910    0.7580 C   0  0  0  0  0  0  0  0  0  0  0  0
   -0.4070   -1.7010    1.2560 C   0  0  0  0  0  0  0  0  0  0  0  0
    0.7090   -1.0350    0.8760 N   0  0  0  0  0  0  0  0  0  0  0  0
    0.6420    0.0050    0.0300 C   0  0  0  0  0  0  0  0  0  0  0  0
    1.9090    0.6910   -0.3450 C   0  0  1  0  0  0  0  0  0  0  0  0
    3.0000    0.7980    0.6650 C   0  0  0  0  0  0  0  0  0  0  0  0
    3.1230   -0.1650   -0.4690 C   0  0  0  0  0  0  0  0  0  0  0  0
   -0.5730    0.4270   -0.4790 C   0  0  0  0  0  0  0  0  0  0  0  0
  1  2  1  0
  2  3  2  0
  2  4  1  0
  4  5  2  0
  4 12  1  0
  5  6  1  0
  6  7  2  0
  7  8  1  0
  9  8  1  1
  8 12  2  0
  9 10  1  0
  9 11  1  0
 10 11  1  0
M  CHG  1   7   1
M  END
