
     RDKit          3D

 11 11  0  0  0  0  0  0  0  0999 V2000
    4.1430   -1.5490   -0.1490 O   0  0  0  0  0  0  0  0  0  0  0  0
    3.0410   -0.9290   -0.0690 C   0  0  0  0  0  0  0  0  0  0  0  0
    1.8680   -1.3850    0.6230 C   0  0  0  0  0  0  0  0  0  0  0  0
    0.8920   -0.4690    0.4950 C   0  0  0  0  0  0  0  0  0  0  0  0
   -0.7530   -0.5930    1.1830 S   0  0  0  0  0  0  0  0  0  0  0  0
   -1.8680    0.6580    0.6200 C   0  0  0  0  0  0  0  0  0  0  0  0
   -2.2750    0.5050   -0.8200 C   0  0  0  0  0  0  0  0  0  0  0  0
   -2.9250   -0.7180   -1.0420 O   0  0  0  0  0  0  0  0  0  0  0  0
    1.4140    0.6260   -0.2970 C   0  0  0  0  0  0  0  0  0  0  0  0
    0.7900    1.6740   -0.6270 O   0  0  0  0  0  0  0  0  0  0  0  0
    2.7830    0.3290   -0.6550 N   0  0  0  0  0  0  0  0  0  0  0  0
  1  2  2  0
  2  3  1  0
  2 11  1  0
  3  4  2  0
  4  5  1  0
  4  9  1  0
  5  6  1  0
  6  7  1  0
  7  8  1  0
  9 10  2  0
  9 11  1  0
M  END
