
     RDKit          3D

 11 11  0  0  0  0  0  0  0  0999 V2000
    3.9240    0.8010    0.3740 C   0  0  0  0  0  0  0  0  0  0  0  0
    2.8990   -0.0770   -0.0740 O   0  0  0  0  0  0  0  0  0  0  0  0
    1.5540    0.2030    0.1000 C   0  0  0  0  0  0  0  0  0  0  0  0
    1.2510    1.2690    0.6730 O   0  0  0  0  0  0  0  0  0  0  0  0
    0.5480   -0.7250   -0.3750 C   0  0  0  0  0  0  0  0  0  0  0  0
   -0.7530   -0.5100   -0.2360 C   0  0  0  0  0  0  0  0  0  0  0  0
   -1.8500   -1.3110   -0.6420 N   0  0  0  0  0  0  0  0  0  0  0  0
   -3.0430   -0.6090   -0.8150 C   0  0  0  0  0  0  0  0  0  0  0  0
   -3.8980   -0.7950   -1.7500 O   0  0  0  0  0  0  0  0  0  0  0  0
   -3.2780    0.4360    0.2160 C   0  0  0  0  0  0  0  0  0  0  0  0
   -1.5360    0.9250    0.5440 S   0  0  0  0  0  0  0  0  0  0  0  0
  1  2  1  0
  2  3  1  0
  3  4  2  0
  3  5  1  0
  5  6  2  3
  6  7  1  0
  6 11  1  0
  7  8  1  0
  8  9  2  0
  8 10  1  0
 10 11  1  0
M  END
