
     RDKit          3D

 28 30  0  0  0  0  0  0  0  0999 V2000
    3.2970    2.5500    2.3380 C   0  0  0  0  0  0  0  0  0  0  0  0
    4.1860    1.7650    1.5040 N   0  0  0  0  0  0  0  0  0  0  0  0
    5.3800    2.2910    1.1510 C   0  0  0  0  0  0  0  0  0  0  0  0
    6.2550    1.5830    0.3630 C   0  0  0  0  0  0  0  0  0  0  0  0
    5.8740    0.3180   -0.0560 C   0  0  0  0  0  0  0  0  0  0  0  0
    7.0200   -0.5550   -1.0630 Cl  0  0  0  0  0  0  0  0  0  0  0  0
    4.6600   -0.2360    0.2930 C   0  0  0  0  0  0  0  0  0  0  0  0
    4.3650   -1.5870   -0.1940 C   0  0  0  0  0  0  0  0  0  0  0  0
    3.1000   -2.1280    0.1560 N   0  0  0  0  0  0  0  0  0  0  0  0
    1.8450   -1.6060   -0.2470 C   0  0  0  0  0  0  0  0  0  0  0  0
    1.8050   -0.5900   -0.9740 O   0  0  0  0  0  0  0  0  0  0  0  0
    0.5410   -2.2310    0.1680 C   0  0  2  0  0  0  0  0  0  0  0  0
    0.5460   -3.6040   -0.4540 C   0  0  0  0  0  0  0  0  0  0  0  0
   -0.4660   -3.4820   -1.5790 C   0  0  0  0  0  0  0  0  0  0  0  0
   -1.4320   -2.4230   -1.0590 C   0  0  0  0  0  0  0  0  0  0  0  0
   -0.5800   -1.4950   -0.3090 N   0  0  0  0  0  0  0  0  0  0  0  0
   -0.8140   -0.1060   -0.0960 C   0  0  0  0  0  0  0  0  0  0  0  0
    0.0550    0.5200    0.6040 O   0  0  0  0  0  0  0  0  0  0  0  0
   -1.9910    0.6280   -0.6390 C   0  0  2  0  0  0  0  0  0  0  0  0
   -1.8170    2.0530   -0.3060 N   0  0  0  0  0  0  0  0  0  0  0  0
   -3.2150    0.0830    0.0600 C   0  0  0  0  0  0  0  0  0  0  0  0
   -4.4600    0.7510   -0.4030 C   0  0  0  0  0  0  0  0  0  0  0  0
   -4.8620    1.8780    0.2800 C   0  0  0  0  0  0  0  0  0  0  0  0
   -6.0140    2.5720   -0.0790 C   0  0  0  0  0  0  0  0  0  0  0  0
   -6.7490    2.1030   -1.1420 C   0  0  0  0  0  0  0  0  0  0  0  0
   -6.3430    0.9680   -1.8280 C   0  0  0  0  0  0  0  0  0  0  0  0
   -5.2010    0.2930   -1.4600 C   0  0  0  0  0  0  0  0  0  0  0  0
    3.8270    0.5170    1.0830 C   0  0  0  0  0  0  0  0  0  0  0  0
  1  2  1  0
  2  3  2  0
  2 28  1  0
  3  4  1  0
  4  5  2  0
  5  6  1  0
  5  7  1  0
  7  8  1  0
  7 28  2  0
  8  9  1  0
  9 10  1  0
 10 11  2  0
 12 10  1  6
 12 13  1  0
 12 16  1  0
 13 14  1  0
 14 15  1  0
 15 16  1  0
 16 17  1  0
 17 18  2  0
 17 19  1  0
 19 20  1  1
 19 21  1  0
 21 22  1  0
 22 23  2  0
 22 27  1  0
 23 24  1  0
 24 25  2  0
 25 26  1  0
 26 27  2  0
M  CHG  2   2   1  20   1
M  END
