
     RDKit          3D

 11 11  0  0  0  0  0  0  0  0999 V2000
    3.6880   -1.5160    0.6510 O   0  0  0  0  0  0  0  0  0  0  0  0
    2.9240   -0.3940    0.0170 S   0  0  2  0  0  0  0  0  0  0  0  0
    3.8490    0.3320   -0.8950 O   0  0  0  0  0  0  0  0  0  0  0  0
    2.4430    0.6160    1.2660 O   0  0  0  0  0  0  0  0  0  0  0  0
    1.5680   -1.0970   -0.7900 N   0  0  0  0  0  0  0  0  0  0  0  0
    0.6080   -0.1030   -1.1830 C   0  0  0  0  0  0  0  0  0  0  0  0
   -0.1980    0.4330   -0.0360 C   0  0  1  0  0  0  0  0  0  0  0  0
   -1.4180    1.1180   -0.6290 C   0  0  0  0  0  0  0  0  0  0  0  0
   -2.4660    0.0480   -0.3870 C   0  0  0  0  0  0  0  0  0  0  0  0
   -2.1620   -0.3230    1.0620 C   0  0  0  0  0  0  0  0  0  0  0  0
   -0.6590   -0.5500    0.9670 C   0  0  0  0  0  0  0  0  0  0  0  0
  1  2  2  0
  2  3  2  0
  2  4  1  1
  2  5  1  0
  5  6  1  0
  7  6  1  6
  7  8  1  0
  7 11  1  0
  8  9  1  0
  9 10  1  0
 10 11  1  0
M  END
