
     RDKit          3D

 24 26  0  0  0  0  0  0  0  0999 V2000
   -6.1050    0.8220    2.7870 N   0  0  0  0  0  0  0  0  0  0  0  0
   -6.2780    0.2910    1.4890 C   0  0  0  0  0  0  0  0  0  0  0  0
   -7.5240   -0.0480    1.0390 C   0  0  0  0  0  0  0  0  0  0  0  0
   -7.7380   -0.5750   -0.2370 C   0  0  0  0  0  0  0  0  0  0  0  0
   -6.6060   -0.7350   -1.0180 C   0  0  0  0  0  0  0  0  0  0  0  0
   -5.3450   -0.4120   -0.6120 C   0  0  0  0  0  0  0  0  0  0  0  0
   -4.1070   -0.4780   -1.1900 C   0  0  0  0  0  0  0  0  0  0  0  0
   -3.2020   -0.0050   -0.2800 C   0  0  0  0  0  0  0  0  0  0  0  0
   -1.7360    0.1190   -0.4490 C   0  0  0  0  0  0  0  0  0  0  0  0
   -1.1830   -0.2450   -1.5630 C   0  0  0  0  0  0  0  0  0  0  0  0
    0.1680   -0.2330   -1.9800 C   0  0  0  0  0  0  0  0  0  0  0  0
    0.3240   -0.7080   -3.2120 O   0  0  0  0  0  0  0  0  0  0  0  0
    1.3500    0.1740   -1.3600 N   0  0  0  0  0  0  0  0  0  0  0  0
    1.6350    0.7480   -0.0910 C   0  0  0  0  0  0  0  0  0  0  0  0
    2.5430   -0.1730    0.7280 C   0  0  0  0  0  0  0  0  0  0  0  0
    3.8360   -0.4330   -0.0670 C   0  0  1  0  0  0  0  0  0  0  0  0
    4.6060   -1.2500    0.6730 O   0  0  0  0  0  0  0  0  0  0  0  0
    5.8440   -0.9310    1.0700 C   0  0  0  0  0  0  0  0  0  0  0  0
    6.0670    0.2470    1.9520 C   0  0  0  0  0  0  0  0  0  0  0  0
    5.6810    1.5220    1.4670 N   0  0  0  0  0  0  0  0  0  0  0  0
    3.3530   -1.1050   -1.3670 C   0  0  0  0  0  0  0  0  0  0  0  0
    2.6180   -0.0360   -2.1570 C   0  0  0  0  0  0  0  0  0  0  0  0
   -3.8770    0.3340    0.8050 N   0  0  0  0  0  0  0  0  0  0  0  0
   -5.1890    0.1040    0.6540 C   0  0  0  0  0  0  0  0  0  0  0  0
  1  2  1  0
  2  3  2  0
  2 24  1  0
  3  4  1  0
  4  5  2  0
  5  6  1  0
  6  7  1  0
  6 24  2  0
  7  8  2  0
  8  9  1  0
  8 23  1  0
  9 10  2  3
 10 11  1  0
 11 12  2  0
 11 13  1  0
 13 14  1  0
 13 22  1  0
 14 15  1  0
 15 16  1  0
 16 17  1  1
 16 21  1  0
 17 18  1  0
 18 19  1  0
 19 20  1  0
 21 22  1  0
 23 24  1  0
M  CHG  1  20   1
M  END
