
     RDKit          3D

  9  9  0  0  0  0  0  0  0  0999 V2000
    3.3410   -0.0360    0.5930 C   0  0  0  0  0  0  0  0  0  0  0  0
    1.9670    0.0400    0.6440 O   0  0  0  0  0  0  0  0  0  0  0  0
    1.3720   -0.2560   -0.5800 C   0  0  0  0  0  0  0  0  0  0  0  0
   -0.1110   -0.1670   -0.5030 C   0  0  0  0  0  0  0  0  0  0  0  0
   -0.7380    0.6960   -1.2880 C   0  0  0  0  0  0  0  0  0  0  0  0
   -2.2090    0.8020   -1.2290 C   0  0  0  0  0  0  0  0  0  0  0  0
   -2.6500    0.3330    0.1410 C   0  0  0  0  0  0  0  0  0  0  0  0
   -2.1670   -0.9080    0.4740 O   0  0  0  0  0  0  0  0  0  0  0  0
   -0.8080   -1.0410    0.4390 C   0  0  0  0  0  0  0  0  0  0  0  0
  1  2  1  0
  2  3  1  0
  3  4  1  0
  4  5  2  0
  4  9  1  0
  5  6  1  0
  6  7  1  0
  7  8  1  0
  8  9  1  0
M  END
