
     RDKit          3D

 20 23  0  0  0  0  0  0  0  0999 V2000
    0.5090   -3.1850   -0.0100 O   0  0  0  0  0  0  0  0  0  0  0  0
   -0.1670   -2.1040   -0.0270 C   0  0  0  0  0  0  0  0  0  0  0  0
   -1.4710   -2.1560   -0.0570 O   0  0  0  0  0  0  0  0  0  0  0  0
   -2.1870   -1.0400   -0.0740 C   0  0  0  0  0  0  0  0  0  0  0  0
   -3.5720   -1.1400   -0.1060 C   0  0  0  0  0  0  0  0  0  0  0  0
   -4.3290    0.0050   -0.1240 C   0  0  0  0  0  0  0  0  0  0  0  0
   -5.7150   -0.1140   -0.1550 O   0  0  0  0  0  0  0  0  0  0  0  0
   -3.7580    1.2650   -0.1130 C   0  0  0  0  0  0  0  0  0  0  0  0
   -2.3850    1.3690   -0.0820 C   0  0  0  0  0  0  0  0  0  0  0  0
   -1.6140    0.2130   -0.0630 C   0  0  0  0  0  0  0  0  0  0  0  0
   -0.2330    0.2990   -0.0310 C   0  0  0  0  0  0  0  0  0  0  0  0
    0.5960    1.3100   -0.0140 O   0  0  0  0  0  0  0  0  0  0  0  0
    1.8380    0.8910    0.0150 C   0  0  0  0  0  0  0  0  0  0  0  0
    3.0860    1.5270    0.0420 C   0  0  0  0  0  0  0  0  0  0  0  0
    4.2530    0.8050    0.0700 C   0  0  0  0  0  0  0  0  0  0  0  0
    5.4800    1.4370    0.0970 O   0  0  0  0  0  0  0  0  0  0  0  0
    4.2130   -0.5650    0.0700 C   0  0  0  0  0  0  0  0  0  0  0  0
    2.9810   -1.2180    0.0430 C   0  0  0  0  0  0  0  0  0  0  0  0
    1.8090   -0.4960    0.0160 C   0  0  0  0  0  0  0  0  0  0  0  0
    0.4750   -0.8840   -0.0140 C   0  0  0  0  0  0  0  0  0  0  0  0
  1  2  2  0
  2  3  1  0
  2 20  1  0
  3  4  1  0
  4  5  2  0
  4 10  1  0
  5  6  1  0
  6  7  1  0
  6  8  2  0
  8  9  1  0
  9 10  2  0
 10 11  1  0
 11 12  1  0
 11 20  2  0
 12 13  1  0
 13 14  2  0
 13 19  1  0
 14 15  1  0
 15 16  1  0
 15 17  2  0
 17 18  1  0
 18 19  2  0
 19 20  1  0
M  END
