
     RDKit          3D

 10 10  0  0  0  0  0  0  0  0999 V2000
    2.9280    0.8560    0.4500 C   0  0  0  0  0  0  0  0  0  0  0  0
    1.8520    0.1160   -0.3440 C   0  0  0  0  0  0  0  0  0  0  0  0
    0.7570   -0.1660    0.4450 O   0  0  0  0  0  0  0  0  0  0  0  0
   -0.2400   -0.8440   -0.2420 C   0  0  1  0  0  0  0  0  0  0  0  0
    0.2540   -2.0530   -0.7260 O   0  0  0  0  0  0  0  0  0  0  0  0
   -1.4150   -1.1600    0.6880 C   0  0  0  0  0  0  0  0  0  0  0  0
   -1.8710    0.1480    1.3010 C   0  0  0  0  0  0  0  0  0  0  0  0
   -2.2810    0.9910    0.3050 O   0  0  0  0  0  0  0  0  0  0  0  0
   -1.3030    1.3000   -0.6290 C   0  0  0  0  0  0  0  0  0  0  0  0
   -0.8410    0.0160   -1.3340 C   0  0  0  0  0  0  0  0  0  0  0  0
  1  2  1  0
  2  3  1  0
  3  4  1  0
  4  5  1  6
  4  6  1  0
  4 10  1  0
  6  7  1  0
  7  8  1  0
  8  9  1  0
  9 10  1  0
M  END
