
     RDKit          3D

 10 10  0  0  0  0  0  0  0  0999 V2000
   -2.7520    0.6630   -0.0320 C   0  0  0  0  0  0  0  0  0  0  0  0
   -2.5750   -0.8040    0.1400 C   0  0  0  0  0  0  0  0  0  0  0  0
   -1.3790   -1.3510   -0.0430 O   0  0  0  0  0  0  0  0  0  0  0  0
   -0.2830   -1.1020    0.6930 C   0  0  0  0  0  0  0  0  0  0  0  0
    0.2130    0.2850    0.6110 C   0  0  1  0  0  0  0  0  0  0  0  0
    1.4650    0.5050    1.4670 C   0  0  0  0  0  0  0  0  0  0  0  0
    2.5530   -0.1960    0.9740 O   0  0  0  0  0  0  0  0  0  0  0  0
    2.8420    0.3740   -0.2870 C   0  0  0  0  0  0  0  0  0  0  0  0
    1.6620   -0.0230   -1.1750 C   0  0  0  0  0  0  0  0  0  0  0  0
    0.5400    0.6030   -0.7010 O   0  0  0  0  0  0  0  0  0  0  0  0
  1  2  1  0
  2  3  1  0
  3  4  1  0
  5  4  1  6
  5  6  1  0
  5 10  1  0
  6  7  1  0
  7  8  1  0
  8  9  1  0
  9 10  1  0
M  END
