
     RDKit          3D

 10 10  0  0  0  0  0  0  0  0999 V2000
    4.4630   -1.0130    0.3540 O   0  0  0  0  0  0  0  0  0  0  0  0
    3.9740    0.7010    0.7130 C   0  0  0  0  0  0  0  0  0  0  0  0
    2.5480    0.1580    0.8010 C   0  0  0  0  0  0  0  0  0  0  0  0
    0.9930   -0.4650    0.8890 C   0  0  0  0  0  0  0  0  0  0  0  0
   -0.1820   -0.9150    0.9520 C   0  0  0  0  0  0  0  0  0  0  0  0
   -0.9810   -0.2120    0.0770 O   0  0  0  0  0  0  0  0  0  0  0  0
   -1.6640    0.7520   -0.4140 C   0  0  1  0  0  0  0  0  0  0  0  0
   -2.2300    0.4910   -1.7420 C   0  0  0  0  0  0  0  0  0  0  0  0
   -2.9750   -0.6140   -1.0770 O   0  0  0  0  0  0  0  0  0  0  0  0
   -3.2360    0.3070   -0.1790 C   0  0  0  0  0  0  0  0  0  0  0  0
  1  2  1  0
  2  3  1  0
  3  4  3  0
  4  5  1  0
  5  6  1  0
  7  6  1  1
  7  8  1  0
  7 10  1  0
  8  9  1  0
  9 10  1  0
M  END
