
     RDKit          3D

 10  9  0  0  0  0  0  0  0  0999 V2000
   -3.6410    0.8620   -0.5080 C   0  0  0  0  0  0  0  0  0  0  0  0
   -2.5200    0.7210    0.4580 C   0  0  0  0  0  0  0  0  0  0  0  0
   -1.5550   -0.1720    0.2870 C   0  0  0  0  0  0  0  0  0  0  0  0
   -0.4870   -0.2480    1.2840 C   0  0  0  0  0  0  0  0  0  0  0  0
    0.8010   -0.0030    0.7600 O   0  0  0  0  0  0  0  0  0  0  0  0
    1.3660   -0.7790   -0.2400 C   0  0  0  0  0  0  0  0  0  0  0  0
    0.6510   -1.7270   -0.6560 O   0  0  0  0  0  0  0  0  0  0  0  0
    2.6960   -0.5290   -0.7850 C   0  0  0  0  0  0  0  0  0  0  0  0
    3.4540    0.4510   -0.3660 C   0  0  0  0  0  0  0  0  0  0  0  0
    4.7040    0.6550   -0.9050 O   0  0  0  0  0  0  0  0  0  0  0  0
  1  2  1  0
  2  3  2  3
  3  4  1  0
  4  5  1  0
  5  6  1  0
  6  7  2  0
  6  8  1  0
  8  9  2  3
  9 10  1  0
M  END
