
     RDKit          3D

 25 26  0  0  0  0  0  0  0  0999 V2000
   -4.3200   -1.6670    0.6200 C   0  0  0  0  0  0  0  0  0  0  0  0
   -3.6390   -0.6750    1.5010 C   0  0  0  0  0  0  0  0  0  0  0  0
   -2.7130    0.1550    0.7000 C   0  0  0  0  0  0  0  0  0  0  0  0
   -3.1480    1.2900   -0.0870 C   0  0  0  0  0  0  0  0  0  0  0  0
   -4.1950    1.0820   -1.0220 N   0  0  0  0  0  0  0  0  0  0  0  0
   -5.5630    0.8710   -0.7820 C   0  0  0  0  0  0  0  0  0  0  0  0
   -6.0080    0.8810    0.3720 O   0  0  0  0  0  0  0  0  0  0  0  0
   -6.5350    0.6270   -1.8940 C   0  0  0  0  0  0  0  0  0  0  0  0
   -8.2950    0.3880   -1.1430 Br  0  0  0  0  0  0  0  0  0  0  0  0
   -1.4030   -0.2360    0.7370 C   0  0  0  0  0  0  0  0  0  0  0  0
   -1.0030   -1.3580    1.4900 O   0  0  0  0  0  0  0  0  0  0  0  0
    0.3630   -1.5230    1.3390 C   0  0  0  0  0  0  0  0  0  0  0  0
    0.8360   -0.4450    0.4480 C   0  0  0  0  0  0  0  0  0  0  0  0
    2.2090   -0.3040    0.0170 C   0  0  0  0  0  0  0  0  0  0  0  0
    2.5410    0.5860   -0.7800 O   0  0  0  0  0  0  0  0  0  0  0  0
    3.2470   -1.1760    0.4810 N   0  0  0  0  0  0  0  0  0  0  0  0
    4.5980   -1.0350    0.0540 C   0  0  0  0  0  0  0  0  0  0  0  0
    5.2400   -2.0050   -0.5820 C   0  0  0  0  0  0  0  0  0  0  0  0
    6.6190   -1.5920   -0.9060 C   0  0  0  0  0  0  0  0  0  0  0  0
    6.6800   -0.2150   -0.3540 C   0  0  0  0  0  0  0  0  0  0  0  0
    5.5070    0.0720    0.1880 C   0  0  0  0  0  0  0  0  0  0  0  0
    5.2020    1.3670    0.8390 C   0  0  0  0  0  0  0  0  0  0  0  0
   -0.2210    0.2790    0.1270 C   0  0  0  0  0  0  0  0  0  0  0  0
   -0.1110    1.3860   -0.7000 O   0  0  0  0  0  0  0  0  0  0  0  0
    0.2570    2.6740   -0.1710 C   0  0  0  0  0  0  0  0  0  0  0  0
  1  2  1  0
  2  3  1  0
  3  4  1  0
  3 10  2  3
  4  5  1  0
  5  6  1  0
  6  7  2  0
  6  8  1  0
  8  9  1  0
 10 11  1  0
 10 23  1  0
 11 12  1  0
 12 13  1  0
 13 14  1  0
 13 23  2  0
 14 15  2  0
 14 16  1  0
 16 17  1  0
 17 18  2  0
 17 21  1  0
 18 19  1  0
 19 20  1  0
 20 21  2  0
 21 22  1  0
 23 24  1  0
 24 25  1  0
M  END
