
     RDKit          3D

 25 26  0  0  0  0  0  0  0  0999 V2000
   -5.1190   -1.3850   -0.6890 C   0  0  0  0  0  0  0  0  0  0  0  0
   -4.7970   -0.1280   -0.5320 C   0  0  0  0  0  0  0  0  0  0  0  0
   -3.4350    0.3910   -0.5320 C   0  0  0  0  0  0  0  0  0  0  0  0
   -3.2430    1.6720   -0.3570 C   0  0  0  0  0  0  0  0  0  0  0  0
   -4.3870    2.5720   -0.1630 C   0  0  0  0  0  0  0  0  0  0  0  0
   -2.3440   -0.5850   -0.7520 C   0  0  1  0  0  0  0  0  0  0  0  0
   -2.5000   -1.1730   -2.1300 C   0  0  0  0  0  0  0  0  0  0  0  0
   -1.0290   -0.0340   -0.5320 N   0  0  0  0  0  0  0  0  0  0  0  0
   -0.1400   -0.5680    0.4840 C   0  0  0  0  0  0  0  0  0  0  0  0
   -0.6250   -1.5220    1.1230 O   0  0  0  0  0  0  0  0  0  0  0  0
    1.1430   -0.0280    0.6960 N   0  0  0  0  0  0  0  0  0  0  0  0
    2.0310   -0.5030    1.6650 C   0  0  0  0  0  0  0  0  0  0  0  0
    1.7900   -1.4300    2.6450 C   0  0  0  0  0  0  0  0  0  0  0  0
    2.7020   -1.8080    3.6150 C   0  0  0  0  0  0  0  0  0  0  0  0
    3.9410   -1.2400    3.6300 C   0  0  0  0  0  0  0  0  0  0  0  0
    4.2390   -0.3040    2.6700 C   0  0  0  0  0  0  0  0  0  0  0  0
    3.3070    0.0650    1.6970 C   0  0  0  0  0  0  0  0  0  0  0  0
    3.7040    1.0040    0.6740 C   0  0  0  0  0  0  0  0  0  0  0  0
    3.7960    0.7800   -0.5970 C   0  0  0  0  0  0  0  0  0  0  0  0
    4.1830    1.7330   -1.5630 O   0  0  0  0  0  0  0  0  0  0  0  0
    3.6590    1.3000   -2.8280 C   0  0  1  0  0  0  0  0  0  0  0  0
    4.9100    1.9120   -4.1700 Br  0  0  0  0  0  0  0  0  0  0  0  0
    3.8160   -0.0940   -2.7100 O   0  0  0  0  0  0  0  0  0  0  0  0
    3.5580   -0.4260   -1.3780 C   0  0  0  0  0  0  0  0  0  0  0  0
    3.1920   -1.5620   -0.9460 O   0  0  0  0  0  0  0  0  0  0  0  0
  1  2  2  0
  2  3  1  0
  3  4  2  3
  3  6  1  0
  4  5  1  0
  6  7  1  6
  6  8  1  0
  8  9  1  0
  9 10  2  0
  9 11  1  0
 11 12  1  0
 12 13  2  0
 12 17  1  0
 13 14  1  0
 14 15  2  0
 15 16  1  0
 16 17  2  0
 17 18  1  0
 18 19  2  3
 19 20  1  0
 19 24  1  0
 20 21  1  0
 21 22  1  6
 21 23  1  0
 23 24  1  0
 24 25  2  0
M  END
