
     RDKit          3D

 25 26  0  0  0  0  0  0  0  0999 V2000
   -5.4270    1.1710    1.5520 C   0  0  0  0  0  0  0  0  0  0  0  0
   -5.5690    0.4480    0.4600 C   0  0  0  0  0  0  0  0  0  0  0  0
   -6.8040   -0.2000    0.1820 N   0  0  0  0  0  0  0  0  0  0  0  0
   -6.9070   -0.9770   -1.0240 C   0  0  0  0  0  0  0  0  0  0  0  0
   -5.8720   -1.0830   -1.8530 C   0  0  0  0  0  0  0  0  0  0  0  0
   -4.6080   -0.4120   -1.5550 C   0  0  0  0  0  0  0  0  0  0  0  0
   -4.4520    0.3160   -0.4640 C   0  0  0  0  0  0  0  0  0  0  0  0
   -3.2420    0.9810   -0.1410 N   0  0  0  0  0  0  0  0  0  0  0  0
   -1.9740    0.3510   -0.1650 C   0  0  0  0  0  0  0  0  0  0  0  0
   -1.8550   -0.9650   -0.5100 N   0  0  0  0  0  0  0  0  0  0  0  0
   -0.6660   -1.5840   -0.5400 C   0  0  0  0  0  0  0  0  0  0  0  0
   -0.5480   -2.8040   -0.8580 O   0  0  0  0  0  0  0  0  0  0  0  0
    0.4390   -0.8300   -0.2060 C   0  0  0  0  0  0  0  0  0  0  0  0
    1.7460   -1.4280   -0.2160 N   0  0  0  0  0  0  0  0  0  0  0  0
    2.8700   -0.6330    0.1320 C   0  0  0  0  0  0  0  0  0  0  0  0
    2.7320    0.5750    0.4440 O   0  0  0  0  0  0  0  0  0  0  0  0
    4.2250   -1.2880    0.1110 C   0  0  0  0  0  0  0  0  0  0  0  0
    5.2380   -0.3130    0.4950 N   0  0  0  0  0  0  0  0  0  0  0  0
    5.5480   -0.2080    1.8770 C   0  0  0  0  0  0  0  0  0  0  0  0
    6.4140    0.6230    2.2270 O   0  0  0  0  0  0  0  0  0  0  0  0
    5.8900    0.5040   -0.4910 C   0  0  0  0  0  0  0  0  0  0  0  0
    7.1430   -0.1170   -1.0480 C   0  0  0  0  0  0  0  0  0  0  0  0
    0.2870    0.4620    0.1290 N   0  0  0  0  0  0  0  0  0  0  0  0
   -0.8880    1.0480    0.1510 N   0  0  0  0  0  0  0  0  0  0  0  0
   -0.9540    2.4680    0.5300 C   0  0  0  0  0  0  0  0  0  0  0  0
  1  2  2  0
  2  3  1  0
  2  7  1  0
  3  4  1  0
  4  5  2  0
  5  6  1  0
  6  7  2  0
  7  8  1  0
  8  9  1  0
  9 10  2  0
  9 24  1  0
 10 11  1  0
 11 12  2  0
 11 13  1  0
 13 14  1  0
 13 23  2  0
 14 15  1  0
 15 16  2  0
 15 17  1  0
 17 18  1  0
 18 19  1  0
 18 21  1  0
 19 20  2  0
 21 22  1  0
 23 24  1  0
 24 25  1  0
M  END
