
     RDKit          3D

 28 30  0  0  0  0  0  0  0  0999 V2000
    5.3790    1.2540   -0.9990 C   0  0  0  0  0  0  0  0  0  0  0  0
    4.2200    1.8040   -0.3790 N   0  0  0  0  0  0  0  0  0  0  0  0
    4.0270    3.1440   -0.3830 C   0  0  0  0  0  0  0  0  0  0  0  0
    2.9250    3.7120    0.2020 C   0  0  0  0  0  0  0  0  0  0  0  0
    1.9990    2.9090    0.8050 C   0  0  0  0  0  0  0  0  0  0  0  0
    0.6010    3.5910    1.5520 Cl  0  0  0  0  0  0  0  0  0  0  0  0
    2.2080    1.5490    0.8030 C   0  0  0  0  0  0  0  0  0  0  0  0
    3.3290    0.9870    0.2050 C   0  0  0  0  0  0  0  0  0  0  0  0
    3.5810   -0.4510    0.1890 C   0  0  0  0  0  0  0  0  0  0  0  0
    2.4890   -1.2650    0.6200 N   0  0  0  0  0  0  0  0  0  0  0  0
    1.2190   -1.2860   -0.0330 C   0  0  0  0  0  0  0  0  0  0  0  0
    1.0600   -0.5580   -1.0280 O   0  0  0  0  0  0  0  0  0  0  0  0
    0.1780   -2.1710    0.5130 C   0  0  2  0  0  0  0  0  0  0  0  0
    0.6170   -3.6270    0.3060 C   0  0  0  0  0  0  0  0  0  0  0  0
   -0.0540   -4.0830   -0.9720 C   0  0  0  0  0  0  0  0  0  0  0  0
   -0.8170   -2.8360   -1.4420 C   0  0  0  0  0  0  0  0  0  0  0  0
   -1.0650   -2.1810   -0.1870 N   0  0  0  0  0  0  0  0  0  0  0  0
   -2.3100   -1.6850    0.2500 C   0  0  0  0  0  0  0  0  0  0  0  0
   -3.3670   -1.7970   -0.4650 O   0  0  0  0  0  0  0  0  0  0  0  0
   -2.4960   -1.0040    1.5640 C   0  0  2  0  0  0  0  0  0  0  0  0
   -3.9100   -0.9150    1.8980 N   0  0  0  0  0  0  0  0  0  0  0  0
   -1.9070    0.3860    1.4100 C   0  0  0  0  0  0  0  0  0  0  0  0
   -2.5900    1.1640    0.3660 C   0  0  0  0  0  0  0  0  0  0  0  0
   -2.2200    1.1580   -0.9580 C   0  0  0  0  0  0  0  0  0  0  0  0
   -2.8990    1.9150   -1.9050 C   0  0  0  0  0  0  0  0  0  0  0  0
   -3.9730    2.7040   -1.5530 C   0  0  0  0  0  0  0  0  0  0  0  0
   -4.3490    2.7140   -0.2260 C   0  0  0  0  0  0  0  0  0  0  0  0
   -3.6730    1.9620    0.7050 C   0  0  0  0  0  0  0  0  0  0  0  0
  1  2  1  0
  2  3  2  0
  2  8  1  0
  3  4  1  0
  4  5  2  0
  5  6  1  0
  5  7  1  0
  7  8  2  0
  8  9  1  0
  9 10  1  0
 10 11  1  0
 11 12  2  0
 13 11  1  6
 13 14  1  0
 13 17  1  0
 14 15  1  0
 15 16  1  0
 16 17  1  0
 17 18  1  0
 18 19  2  0
 18 20  1  0
 20 21  1  6
 20 22  1  0
 22 23  1  0
 23 24  2  0
 23 28  1  0
 24 25  1  0
 25 26  2  0
 26 27  1  0
 27 28  2  0
M  CHG  2   2   1  21   1
M  END
