
     RDKit          3D

 25 26  0  0  0  0  0  0  0  0999 V2000
   -5.8440   -1.4820   -0.8010 C   0  0  0  0  0  0  0  0  0  0  0  0
   -5.8120   -0.0140   -0.7200 C   0  0  0  0  0  0  0  0  0  0  0  0
   -4.6620    0.6290   -0.6120 C   0  0  0  0  0  0  0  0  0  0  0  0
   -3.4200   -0.1440   -0.5740 C   0  0  0  0  0  0  0  0  0  0  0  0
   -2.2850    0.5470   -0.4640 C   0  0  0  0  0  0  0  0  0  0  0  0
   -1.0210   -0.2450   -0.4260 C   0  0  0  0  0  0  0  0  0  0  0  0
   -0.0330    0.4180    0.5140 C   0  0  1  0  0  0  0  0  0  0  0  0
   -0.4980    0.1880    1.9000 C   0  0  0  0  0  0  0  0  0  0  0  0
   -1.5510   -0.4640    2.1070 O   0  0  0  0  0  0  0  0  0  0  0  0
    0.2100    0.6840    3.0300 N   0  0  0  0  0  0  0  0  0  0  0  0
   -0.3230    0.4090    4.3470 C   0  0  0  0  0  0  0  0  0  0  0  0
    1.3090   -0.1800    0.3360 C   0  0  0  0  0  0  0  0  0  0  0  0
    1.8720   -0.7180    1.2850 O   0  0  0  0  0  0  0  0  0  0  0  0
    1.9220   -0.1210   -0.9320 N   0  0  0  0  0  0  0  0  0  0  0  0
    3.1890   -0.6360   -1.2760 C   0  0  0  0  0  0  0  0  0  0  0  0
    4.0450   -1.2850   -0.4330 C   0  0  0  0  0  0  0  0  0  0  0  0
    5.3000   -1.7780   -0.8340 C   0  0  0  0  0  0  0  0  0  0  0  0
    6.1260   -2.4330    0.0800 O   0  0  0  0  0  0  0  0  0  0  0  0
    5.6730   -1.5930   -2.1360 C   0  0  0  0  0  0  0  0  0  0  0  0
    4.8510   -0.9510   -3.0140 C   0  0  0  0  0  0  0  0  0  0  0  0
    3.6290   -0.4790   -2.5920 C   0  0  0  0  0  0  0  0  0  0  0  0
    2.5590    0.4070   -3.9130 Br  0  0  0  0  0  0  0  0  0  0  0  0
    0.1050    1.8970    0.2100 C   0  0  0  0  0  0  0  0  0  0  0  0
   -1.2000    2.6140    0.1940 C   0  0  0  0  0  0  0  0  0  0  0  0
   -2.2570    1.9180   -0.3890 O   0  0  0  0  0  0  0  0  0  0  0  0
  1  2  1  0
  2  3  2  3
  3  4  1  0
  4  5  2  3
  5  6  1  0
  5 25  1  0
  6  7  1  0
  7  8  1  1
  7 12  1  0
  7 23  1  0
  8  9  2  0
  8 10  1  0
 10 11  1  0
 12 13  2  0
 12 14  1  0
 14 15  1  0
 15 16  2  0
 15 21  1  0
 16 17  1  0
 17 18  1  0
 17 19  2  0
 19 20  1  0
 20 21  2  0
 21 22  1  0
 23 24  1  0
 24 25  1  0
M  END
