
     RDKit          3D

 25 26  0  0  0  0  0  0  0  0999 V2000
    7.9120    2.4460   -0.4090 C   0  0  0  0  0  0  0  0  0  0  0  0
    7.1210    1.3620    0.1200 N   0  0  0  0  0  0  0  0  0  0  0  0
    6.6730    0.4400   -0.6950 C   0  0  0  0  0  0  0  0  0  0  0  0
    5.8850   -0.6460   -0.1920 N   0  0  0  0  0  0  0  0  0  0  0  0
    5.4220   -1.6160   -1.0960 C   0  0  0  0  0  0  0  0  0  0  0  0
    5.6890   -1.5040   -2.3150 O   0  0  0  0  0  0  0  0  0  0  0  0
    5.5480   -0.7580    1.2060 C   0  0  0  0  0  0  0  0  0  0  0  0
    4.3180   -0.0400    1.6330 C   0  0  0  0  0  0  0  0  0  0  0  0
    3.1240   -0.4670    0.9760 N   0  0  0  0  0  0  0  0  0  0  0  0
    1.8400    0.1320    1.2750 C   0  0  0  0  0  0  0  0  0  0  0  0
    1.8090    1.0400    2.1330 O   0  0  0  0  0  0  0  0  0  0  0  0
    0.6870   -0.3350    0.5890 N   0  0  0  0  0  0  0  0  0  0  0  0
   -0.5800    0.2370    0.8670 C   0  0  0  0  0  0  0  0  0  0  0  0
   -0.8360    1.2040    1.7330 N   0  0  0  0  0  0  0  0  0  0  0  0
   -2.1080    1.4760    1.7250 N   0  0  0  0  0  0  0  0  0  0  0  0
   -2.7420    0.6670    0.8220 C   0  0  0  0  0  0  0  0  0  0  0  0
   -4.1710    0.6450    0.5040 C   0  0  1  0  0  0  0  0  0  0  0  0
   -4.5210    1.1060   -0.8830 C   0  0  0  0  0  0  0  0  0  0  0  0
   -5.4350    0.1500   -1.6160 C   0  0  0  0  0  0  0  0  0  0  0  0
   -6.6100   -0.3070   -0.8220 C   0  0  1  0  0  0  0  0  0  0  0  0
   -6.9710   -1.5970   -1.2450 O   0  0  0  0  0  0  0  0  0  0  0  0
   -6.3510   -0.3900    0.6660 C   0  0  0  0  0  0  0  0  0  0  0  0
   -4.8510   -0.6780    0.8210 C   0  0  0  0  0  0  0  0  0  0  0  0
   -1.7660   -0.1040    0.2930 N   0  0  0  0  0  0  0  0  0  0  0  0
   -1.9450   -1.1290   -0.7160 C   0  0  0  0  0  0  0  0  0  0  0  0
  1  2  1  0
  2  3  2  3
  3  4  1  0
  4  5  1  0
  4  7  1  0
  5  6  2  0
  7  8  1  0
  8  9  1  0
  9 10  1  0
 10 11  2  0
 10 12  1  0
 12 13  1  0
 13 14  2  0
 13 24  1  0
 14 15  1  0
 15 16  2  0
 17 16  1  6
 16 24  1  0
 17 18  1  0
 17 23  1  0
 18 19  1  0
 19 20  1  0
 20 21  1  6
 20 22  1  0
 22 23  1  0
 24 25  1  0
M  END
