
     RDKit          3D

 33 35  0  0  0  0  0  0  0  0999 V2000
   -7.9280   -3.5930    1.4290 C   0  0  0  0  0  0  0  0  0  0  0  0
   -7.1620   -2.5960    1.0470 C   0  0  0  0  0  0  0  0  0  0  0  0
   -7.6080   -1.2300    1.1600 C   0  0  0  0  0  0  0  0  0  0  0  0
   -6.7980   -0.2330    0.7590 C   0  0  0  0  0  0  0  0  0  0  0  0
   -5.4560   -0.5500    0.2040 C   0  0  0  0  0  0  0  0  0  0  0  0
   -4.8700    0.6670   -0.3420 N   0  0  0  0  0  0  0  0  0  0  0  0
   -3.4890    0.4430   -0.7140 C   0  0  1  0  0  0  0  0  0  0  0  0
   -3.3750   -0.6330   -1.7800 C   0  0  0  0  0  0  0  0  0  0  0  0
   -2.0060   -0.5120   -2.4090 C   0  0  0  0  0  0  0  0  0  0  0  0
   -1.0570    0.2160   -1.5980 N   0  0  0  0  0  0  0  0  0  0  0  0
    0.2270   -0.3060   -1.2680 C   0  0  0  0  0  0  0  0  0  0  0  0
    0.5180   -1.4530   -1.7180 O   0  0  0  0  0  0  0  0  0  0  0  0
    1.1530    0.4140   -0.4680 N   0  0  0  0  0  0  0  0  0  0  0  0
    2.4270   -0.1540   -0.1760 C   0  0  0  0  0  0  0  0  0  0  0  0
    2.6790   -1.2820   -0.6440 O   0  0  0  0  0  0  0  0  0  0  0  0
    3.3450    0.6420    0.6570 C   0  0  0  0  0  0  0  0  0  0  0  0
    4.5880    0.0150    0.8810 O   0  0  0  0  0  0  0  0  0  0  0  0
    5.3950   -0.3030   -0.2030 C   0  0  0  0  0  0  0  0  0  0  0  0
    4.9800   -0.0180   -1.3400 O   0  0  0  0  0  0  0  0  0  0  0  0
    6.6980   -0.9630    0.0800 C   0  0  0  0  0  0  0  0  0  0  0  0
    7.4690   -1.2430   -1.1650 C   0  0  0  0  0  0  0  0  0  0  0  0
    9.0370   -2.0250   -0.7240 S   0  0  0  0  0  0  0  0  0  0  0  0
   10.0880   -0.8090    0.1130 C   0  0  0  0  0  0  0  0  0  0  0  0
   11.2550   -1.0980    0.6500 C   0  0  0  0  0  0  0  0  0  0  0  0
   11.8130    0.1350    1.2380 C   0  0  0  0  0  0  0  0  0  0  0  0
   10.8090    1.1620    0.9650 C   0  0  0  0  0  0  0  0  0  0  0  0
    9.8210    0.5960    0.3150 C   0  0  0  0  0  0  0  0  0  0  0  0
   -1.3770    1.5530   -1.0740 C   0  0  0  0  0  0  0  0  0  0  0  0
   -2.8890    1.6840   -1.3260 C   0  0  0  0  0  0  0  0  0  0  0  0
   -4.9170    1.6250    0.7610 C   0  0  0  0  0  0  0  0  0  0  0  0
   -6.3260    2.2260    0.6720 C   0  0  0  0  0  0  0  0  0  0  0  0
   -7.2330    1.1120    0.8700 N   0  0  0  0  0  0  0  0  0  0  0  0
   -8.6360    1.3430    1.1930 C   0  0  0  0  0  0  0  0  0  0  0  0
  1  2  2  0
  2  3  1  0
  3  4  2  3
  4  5  1  0
  4 32  1  0
  5  6  1  0
  7  6  1  6
  6 30  1  0
  7  8  1  0
  7 29  1  0
  8  9  1  0
  9 10  1  0
 10 11  1  0
 10 28  1  0
 11 12  2  0
 11 13  1  0
 13 14  1  0
 14 15  2  0
 14 16  1  0
 16 17  1  0
 17 18  1  0
 18 19  2  0
 18 20  1  0
 20 21  1  0
 21 22  1  0
 22 23  1  0
 23 24  2  0
 23 27  1  0
 24 25  1  0
 25 26  1  0
 26 27  2  0
 28 29  1  0
 30 31  1  0
 31 32  1  0
 32 33  1  0
M  END
