
     RDKit          3D

 33 36  0  0  0  0  0  0  0  0999 V2000
   -3.5130   -0.6280   -4.0220 C   0  0  0  0  0  0  0  0  0  0  0  0
   -4.1690   -0.9840   -2.7930 N   0  0  0  0  0  0  0  0  0  0  0  0
   -3.4690   -1.1710   -1.5680 C   0  0  0  0  0  0  0  0  0  0  0  0
   -2.0950   -0.9950   -1.5190 C   0  0  0  0  0  0  0  0  0  0  0  0
   -1.3930   -1.1660   -0.3360 C   0  0  0  0  0  0  0  0  0  0  0  0
    0.0150   -0.9870   -0.2920 N   0  0  0  0  0  0  0  0  0  0  0  0
    0.5660   -0.0060    0.6080 C   0  0  0  0  0  0  0  0  0  0  0  0
    0.7100    1.3220   -0.0480 C   0  0  0  0  0  0  0  0  0  0  0  0
    0.3700    1.4760   -1.2300 O   0  0  0  0  0  0  0  0  0  0  0  0
    1.2440    2.3750    0.7350 N   0  0  0  0  0  0  0  0  0  0  0  0
    1.3930    3.6740    0.1170 C   0  0  0  0  0  0  0  0  0  0  0  0
    1.4450    4.7310    1.2050 C   0  0  0  0  0  0  0  0  0  0  0  0
    0.6280    4.4040    2.2790 O   0  0  0  0  0  0  0  0  0  0  0  0
    1.0550    3.3070    2.9850 C   0  0  0  0  0  0  0  0  0  0  0  0
    1.6490    2.2280    2.1150 C   0  0  0  0  0  0  0  0  0  0  0  0
    0.8670   -1.7610   -1.1020 C   0  0  0  0  0  0  0  0  0  0  0  0
    0.2720   -2.6430   -1.8280 O   0  0  0  0  0  0  0  0  0  0  0  0
    2.3250   -1.6360   -1.1740 C   0  0  0  0  0  0  0  0  0  0  0  0
    3.0750   -2.4560   -2.0090 C   0  0  0  0  0  0  0  0  0  0  0  0
    4.7820   -1.8730   -1.6990 S   0  0  0  0  0  0  0  0  0  0  0  0
    4.1650   -0.5920   -0.4620 C   0  0  0  0  0  0  0  0  0  0  0  0
    5.2150    0.2570    0.1740 C   0  0  2  0  0  0  0  0  0  0  0  0
    5.9780    1.0230   -0.8680 C   0  0  0  0  0  0  0  0  0  0  0  0
    6.1800   -0.6180    0.9610 C   0  0  0  0  0  0  0  0  0  0  0  0
    3.0550   -0.7860   -0.4980 N   0  0  0  0  0  0  0  0  0  0  0  0
   -2.0690   -1.5120    0.7930 C   0  0  0  0  0  0  0  0  0  0  0  0
   -3.4370   -1.6960    0.7820 C   0  0  0  0  0  0  0  0  0  0  0  0
   -4.1300   -1.5220   -0.4100 C   0  0  0  0  0  0  0  0  0  0  0  0
   -5.5970   -1.7190   -0.4510 C   0  0  0  0  0  0  0  0  0  0  0  0
   -6.0790   -2.5220    0.7320 C   0  0  0  0  0  0  0  0  0  0  0  0
   -5.5730   -1.9710    2.0590 C   0  0  0  0  0  0  0  0  0  0  0  0
   -4.1060   -2.0620    2.0220 C   0  0  0  0  0  0  0  0  0  0  0  0
   -3.4800   -2.4430    3.0370 O   0  0  0  0  0  0  0  0  0  0  0  0
  1  2  1  0
  2  3  1  0
  3  4  2  0
  3 28  1  0
  4  5  1  0
  5  6  1  0
  5 26  2  0
  6  7  1  0
  6 16  1  0
  7  8  1  0
  8  9  2  0
  8 10  1  0
 10 11  1  0
 10 15  1  0
 11 12  1  0
 12 13  1  0
 13 14  1  0
 14 15  1  0
 16 17  2  0
 16 18  1  0
 18 19  2  0
 18 25  1  0
 19 20  1  0
 20 21  1  0
 21 22  1  0
 21 25  2  0
 22 23  1  6
 22 24  1  0
 26 27  1  0
 27 28  2  0
 27 32  1  0
 28 29  1  0
 29 30  1  0
 30 31  1  0
 31 32  1  0
 32 33  2  0
M  END
