
     RDKit          3D

 33 35  0  0  0  0  0  0  0  0999 V2000
    2.6140   -1.0770    1.8930 C   0  0  0  0  0  0  0  0  0  0  0  0
    1.8710   -0.9350    0.6690 N   0  0  0  0  0  0  0  0  0  0  0  0
    2.5010   -1.1760   -0.6020 C   0  0  0  0  0  0  0  0  0  0  0  0
    3.6580   -0.2750   -0.8370 C   0  0  0  0  0  0  0  0  0  0  0  0
    3.5270    0.9820   -1.3960 C   0  0  0  0  0  0  0  0  0  0  0  0
    4.5780    1.7960   -1.6090 N   0  0  0  0  0  0  0  0  0  0  0  0
    5.8320    1.3840   -1.2670 C   0  0  0  0  0  0  0  0  0  0  0  0
    6.9170    2.1450   -1.4530 N   0  0  0  0  0  0  0  0  0  0  0  0
    8.1660    1.7600   -1.1240 C   0  0  0  0  0  0  0  0  0  0  0  0
    9.2860    2.6140   -1.3460 N   0  0  0  0  0  0  0  0  0  0  0  0
    8.3040    0.5330   -0.5780 N   0  0  0  0  0  0  0  0  0  0  0  0
    7.2680   -0.2970   -0.3550 C   0  0  0  0  0  0  0  0  0  0  0  0
    7.4190   -1.5830    0.2180 N   0  0  0  0  0  0  0  0  0  0  0  0
    5.9900    0.1330   -0.7070 C   0  0  0  0  0  0  0  0  0  0  0  0
    4.9110   -0.6540   -0.5090 N   0  0  0  0  0  0  0  0  0  0  0  0
    0.5140   -0.5560    0.7130 C   0  0  0  0  0  0  0  0  0  0  0  0
    0.1350    0.7650    0.6550 C   0  0  0  0  0  0  0  0  0  0  0  0
   -1.2170    1.0960    0.7020 C   0  0  0  0  0  0  0  0  0  0  0  0
   -2.1970    0.1370    0.8060 C   0  0  0  0  0  0  0  0  0  0  0  0
   -3.5970    0.5140    0.8510 C   0  0  0  0  0  0  0  0  0  0  0  0
   -3.8940    1.7300    0.7290 O   0  0  0  0  0  0  0  0  0  0  0  0
   -4.6540   -0.3940    1.0240 N   0  0  0  0  0  0  0  0  0  0  0  0
   -6.0630   -0.0150    1.0690 C   0  0  1  0  0  0  0  0  0  0  0  0
   -6.8260   -0.7960    0.0410 C   0  0  0  0  0  0  0  0  0  0  0  0
   -6.3680   -0.5880   -1.3630 C   0  0  0  0  0  0  0  0  0  0  0  0
   -6.4640    0.7920   -1.8520 C   0  0  0  0  0  0  0  0  0  0  0  0
   -6.0550    1.0720   -3.0010 O   0  0  0  0  0  0  0  0  0  0  0  0
   -6.9970    1.7990   -1.0750 O   0  0  0  0  0  0  0  0  0  0  0  0
   -6.6310   -0.3850    2.3910 C   0  0  0  0  0  0  0  0  0  0  0  0
   -5.8770   -0.9330    3.2280 O   0  0  0  0  0  0  0  0  0  0  0  0
   -7.9410   -0.1550    2.7390 O   0  0  0  0  0  0  0  0  0  0  0  0
   -1.7870   -1.1780    0.8620 C   0  0  0  0  0  0  0  0  0  0  0  0
   -0.4500   -1.5290    0.8170 C   0  0  0  0  0  0  0  0  0  0  0  0
  1  2  1  0
  2  3  1  0
  2 16  1  0
  3  4  1  0
  4  5  2  0
  4 15  1  0
  5  6  1  0
  6  7  2  0
  7  8  1  0
  7 14  1  0
  8  9  2  0
  9 10  1  0
  9 11  1  0
 11 12  2  0
 12 13  1  0
 12 14  1  0
 14 15  2  0
 16 17  2  0
 16 33  1  0
 17 18  1  0
 18 19  2  0
 19 20  1  0
 19 32  1  0
 20 21  2  0
 20 22  1  0
 22 23  1  0
 23 24  1  6
 23 29  1  0
 24 25  1  0
 25 26  1  0
 26 27  2  0
 26 28  1  0
 29 30  2  0
 29 31  1  0
 32 33  2  0
M  END
