
     RDKit          3D

 33 36  0  0  0  0  0  0  0  0999 V2000
    7.5970   -3.2930    1.1680 C   0  0  0  0  0  0  0  0  0  0  0  0
    6.2300   -2.8710    0.8590 C   0  0  0  0  0  0  0  0  0  0  0  0
    5.9360   -2.4120   -0.3540 C   0  0  0  0  0  0  0  0  0  0  0  0
    7.0050   -2.3300   -1.3720 C   0  0  0  0  0  0  0  0  0  0  0  0
    8.2080   -2.6940   -1.1750 N   0  0  0  0  0  0  0  0  0  0  0  0
    6.6610   -1.7950   -2.6820 C   0  0  0  0  0  0  0  0  0  0  0  0
    5.4260   -1.4090   -2.9030 C   0  0  0  0  0  0  0  0  0  0  0  0
    4.3860   -1.4960   -1.8900 C   0  0  0  0  0  0  0  0  0  0  0  0
    4.5940   -1.9680   -0.6730 C   0  0  0  0  0  0  0  0  0  0  0  0
    3.4670   -2.0520    0.2420 C   0  0  0  0  0  0  0  0  0  0  0  0
    2.1990   -1.6180   -0.0280 N   0  0  0  0  0  0  0  0  0  0  0  0
    1.3740   -1.8330    0.9940 C   0  0  0  0  0  0  0  0  0  0  0  0
   -0.0420   -1.5260    1.1440 C   0  0  0  0  0  0  0  0  0  0  0  0
   -0.5560   -1.9170    2.2630 O   0  0  0  0  0  0  0  0  0  0  0  0
   -0.8780   -0.8840    0.2530 N   0  0  0  0  0  0  0  0  0  0  0  0
   -2.3120   -0.7390    0.5670 C   0  0  0  0  0  0  0  0  0  0  0  0
   -2.5830    0.7480    0.6260 C   0  0  0  0  0  0  0  0  0  0  0  0
   -2.2060    1.3300   -0.6370 N   0  0  0  0  0  0  0  0  0  0  0  0
   -3.0030    1.9220   -1.6050 C   0  0  0  0  0  0  0  0  0  0  0  0
   -2.3070    2.4640   -2.5890 O   0  0  0  0  0  0  0  0  0  0  0  0
   -4.4320    2.0640   -1.7770 C   0  0  0  0  0  0  0  0  0  0  0  0
   -5.3210    2.2920   -0.6340 C   0  0  0  0  0  0  0  0  0  0  0  0
   -5.0630    3.4300    0.2440 C   0  0  0  0  0  0  0  0  0  0  0  0
   -4.1160    4.2240    0.0830 O   0  0  0  0  0  0  0  0  0  0  0  0
   -5.9660    3.6250    1.3510 C   0  0  0  0  0  0  0  0  0  0  0  0
   -7.0590    2.9520    1.7420 C   0  0  0  0  0  0  0  0  0  0  0  0
   -7.7450    3.3140    2.8400 C   0  0  0  0  0  0  0  0  0  0  0  0
   -7.2580    4.4160    3.5370 C   0  0  0  0  0  0  0  0  0  0  0  0
   -5.8180    4.9370    2.6210 S   0  0  0  0  0  0  0  0  0  0  0  0
   -0.7560    1.2160   -0.9330 C   0  0  0  0  0  0  0  0  0  0  0  0
   -0.3940   -0.2680   -0.9680 C   0  0  0  0  0  0  0  0  0  0  0  0
    2.1820   -2.4340    1.9560 C   0  0  0  0  0  0  0  0  0  0  0  0
    3.3780   -2.5260    1.4480 O   0  0  0  0  0  0  0  0  0  0  0  0
  1  2  1  0
  2  3  2  3
  3  4  1  0
  3  9  1  0
  4  5  2  0
  4  6  1  0
  6  7  2  0
  7  8  1  0
  8  9  2  0
  9 10  1  0
 10 11  2  0
 10 33  1  0
 11 12  1  0
 12 13  1  0
 12 32  2  0
 13 14  2  0
 13 15  1  0
 15 16  1  0
 15 31  1  0
 16 17  1  0
 17 18  1  0
 18 19  1  0
 18 30  1  0
 19 20  2  0
 19 21  1  0
 21 22  1  0
 22 23  1  0
 23 24  2  0
 23 25  1  0
 25 26  2  0
 25 29  1  0
 26 27  1  0
 27 28  2  0
 28 29  1  0
 30 31  1  0
 32 33  1  0
M  END
