
     RDKit          3D

 33 35  0  0  0  0  0  0  0  0999 V2000
   -2.5450    0.6040   -2.2730 C   0  0  0  0  0  0  0  0  0  0  0  0
   -2.0900   -0.5910   -1.6050 N   0  0  0  0  0  0  0  0  0  0  0  0
   -2.9860   -1.6350   -1.1580 C   0  0  0  0  0  0  0  0  0  0  0  0
   -3.9190   -1.0660   -0.1590 C   0  0  0  0  0  0  0  0  0  0  0  0
   -3.6840   -1.2530    1.2040 C   0  0  0  0  0  0  0  0  0  0  0  0
   -4.4850   -0.7750    2.1570 N   0  0  0  0  0  0  0  0  0  0  0  0
   -5.5850   -0.0720    1.7990 C   0  0  0  0  0  0  0  0  0  0  0  0
   -6.4240    0.4290    2.7090 N   0  0  0  0  0  0  0  0  0  0  0  0
   -7.5250    1.1320    2.4030 C   0  0  0  0  0  0  0  0  0  0  0  0
   -8.3980    1.6530    3.4010 N   0  0  0  0  0  0  0  0  0  0  0  0
   -7.7630    1.3210    1.0870 N   0  0  0  0  0  0  0  0  0  0  0  0
   -6.9720    0.8520    0.1240 C   0  0  0  0  0  0  0  0  0  0  0  0
   -7.2250    1.0560   -1.2690 N   0  0  0  0  0  0  0  0  0  0  0  0
   -5.8360    0.1260    0.4570 C   0  0  0  0  0  0  0  0  0  0  0  0
   -5.0130   -0.3660   -0.4900 N   0  0  0  0  0  0  0  0  0  0  0  0
   -0.6710   -0.7480   -1.3890 C   0  0  0  0  0  0  0  0  0  0  0  0
   -0.0170   -0.1450   -0.3360 C   0  0  0  0  0  0  0  0  0  0  0  0
    1.3360   -0.2920   -0.1090 C   0  0  0  0  0  0  0  0  0  0  0  0
    2.0560   -1.0820   -0.9820 C   0  0  0  0  0  0  0  0  0  0  0  0
    3.4910   -1.2950   -0.8390 C   0  0  0  0  0  0  0  0  0  0  0  0
    4.0550   -2.2390   -1.4730 O   0  0  0  0  0  0  0  0  0  0  0  0
    4.3400   -0.5020   -0.0160 N   0  0  0  0  0  0  0  0  0  0  0  0
    5.7780   -0.7350    0.1160 C   0  0  1  0  0  0  0  0  0  0  0  0
    6.5190    0.3560   -0.5610 C   0  0  0  0  0  0  0  0  0  0  0  0
    6.3020    1.7420   -0.0790 C   0  0  0  0  0  0  0  0  0  0  0  0
    6.6960    1.9290    1.3350 C   0  0  0  0  0  0  0  0  0  0  0  0
    5.9030    1.8560    2.2950 O   0  0  0  0  0  0  0  0  0  0  0  0
    8.0440    2.2080    1.6440 O   0  0  0  0  0  0  0  0  0  0  0  0
    6.2080   -1.0350    1.4760 C   0  0  0  0  0  0  0  0  0  0  0  0
    5.3940   -1.1350    2.4400 O   0  0  0  0  0  0  0  0  0  0  0  0
    7.5450   -1.2190    1.7410 O   0  0  0  0  0  0  0  0  0  0  0  0
    1.4260   -1.6960   -2.0410 C   0  0  0  0  0  0  0  0  0  0  0  0
    0.0850   -1.5330   -2.2430 C   0  0  0  0  0  0  0  0  0  0  0  0
  1  2  1  0
  2  3  1  0
  2 16  1  0
  3  4  1  0
  4  5  2  0
  4 15  1  0
  5  6  1  0
  6  7  2  0
  7  8  1  0
  7 14  1  0
  8  9  2  0
  9 10  1  0
  9 11  1  0
 11 12  2  0
 12 13  1  0
 12 14  1  0
 14 15  2  0
 16 17  2  0
 16 33  1  0
 17 18  1  0
 18 19  2  0
 19 20  1  0
 19 32  1  0
 20 21  2  0
 20 22  1  0
 22 23  1  0
 23 24  1  1
 23 29  1  0
 24 25  1  0
 25 26  1  0
 26 27  2  0
 26 28  1  0
 29 30  2  0
 29 31  1  0
 32 33  2  0
M  END
