
     RDKit          3D

 33 36  0  0  0  0  0  0  0  0999 V2000
    7.9660    1.1770   -0.5800 C   0  0  0  0  0  0  0  0  0  0  0  0
    7.4240   -0.2050   -0.3590 C   0  0  0  0  0  0  0  0  0  0  0  0
    8.3300   -1.2350   -0.2580 C   0  0  0  0  0  0  0  0  0  0  0  0
    7.8720   -2.5020    0.1020 C   0  0  0  0  0  0  0  0  0  0  0  0
    6.5340   -2.6480    0.3310 N   0  0  0  0  0  0  0  0  0  0  0  0
    5.6530   -1.6460    0.2300 C   0  0  0  0  0  0  0  0  0  0  0  0
    4.4330   -1.8370    0.4580 O   0  0  0  0  0  0  0  0  0  0  0  0
    6.0800   -0.3630   -0.1280 C   0  0  0  0  0  0  0  0  0  0  0  0
    5.1700    0.6940   -0.4540 C   0  0  0  0  0  0  0  0  0  0  0  0
    5.6830    1.6790   -1.1670 O   0  0  0  0  0  0  0  0  0  0  0  0
    3.7740    0.8060   -0.1170 C   0  0  0  0  0  0  0  0  0  0  0  0
    2.4840    1.1000   -1.4300 S   0  0  0  0  0  0  0  0  0  0  0  0
    1.1390    1.2350   -0.1770 C   0  0  0  0  0  0  0  0  0  0  0  0
   -0.2290    1.6560   -0.7340 C   0  0  0  0  0  0  0  0  0  0  0  0
   -1.1920    1.5030    0.4240 C   0  0  0  0  0  0  0  0  0  0  0  0
   -1.5990    0.0720    0.4500 C   0  0  0  0  0  0  0  0  0  0  0  0
   -0.9510   -0.9860    0.9370 C   0  0  0  0  0  0  0  0  0  0  0  0
   -1.4910   -2.2280    0.8340 N   0  0  0  0  0  0  0  0  0  0  0  0
   -2.7030   -2.3850    0.2410 C   0  0  0  0  0  0  0  0  0  0  0  0
   -3.4210   -1.3600   -0.2550 C   0  0  0  0  0  0  0  0  0  0  0  0
   -4.6670   -1.4180   -1.0360 C   0  0  0  0  0  0  0  0  0  0  0  0
   -4.8400   -2.2500   -1.9270 O   0  0  0  0  0  0  0  0  0  0  0  0
   -5.6340   -0.4140   -0.6730 N   0  0  0  0  0  0  0  0  0  0  0  0
   -6.7390    0.0070   -1.5070 C   0  0  0  0  0  0  0  0  0  0  0  0
   -8.0170   -0.0910   -0.7500 C   0  0  0  0  0  0  0  0  0  0  0  0
   -8.0440    0.8060    0.4470 C   0  0  0  0  0  0  0  0  0  0  0  0
   -6.7850    0.8930    1.2250 C   0  0  0  0  0  0  0  0  0  0  0  0
   -5.6820    0.0710    0.6660 C   0  0  0  0  0  0  0  0  0  0  0  0
   -4.7510   -0.1520    1.4910 O   0  0  0  0  0  0  0  0  0  0  0  0
   -2.8680   -0.0830   -0.1580 C   0  0  0  0  0  0  0  0  0  0  0  0
    1.7140    1.0710    0.7940 N   0  0  0  0  0  0  0  0  0  0  0  0
    3.0090    0.8510    0.9840 C   0  0  0  0  0  0  0  0  0  0  0  0
    3.6070    0.7730    2.3740 C   0  0  0  0  0  0  0  0  0  0  0  0
  1  2  1  0
  2  3  1  0
  2  8  2  0
  3  4  2  0
  4  5  1  0
  5  6  1  0
  6  7  2  0
  6  8  1  0
  8  9  1  0
  9 10  2  0
  9 11  1  0
 11 12  1  0
 11 32  2  0
 12 13  1  0
 13 14  1  0
 13 31  2  0
 14 15  1  0
 15 16  1  0
 16 17  2  0
 16 30  1  0
 17 18  1  0
 18 19  2  0
 19 20  1  0
 20 21  1  0
 20 30  2  0
 21 22  2  0
 21 23  1  0
 23 24  1  0
 23 28  1  0
 24 25  1  0
 25 26  1  0
 26 27  1  0
 27 28  1  0
 28 29  2  0
 31 32  1  0
 32 33  1  0
M  END
