
     RDKit          3D

 33 36  0  0  0  0  0  0  0  0999 V2000
   -3.8990    3.9110   -4.5530 C   0  0  0  0  0  0  0  0  0  0  0  0
   -3.2770    3.1240   -3.5600 O   0  0  0  0  0  0  0  0  0  0  0  0
   -3.8150    3.1440   -2.2810 C   0  0  0  0  0  0  0  0  0  0  0  0
   -4.9300    3.9100   -1.9790 C   0  0  0  0  0  0  0  0  0  0  0  0
   -5.4320    3.8990   -0.6990 C   0  0  0  0  0  0  0  0  0  0  0  0
   -4.8060    3.1190    0.2530 C   0  0  0  0  0  0  0  0  0  0  0  0
   -3.6940    2.3580   -0.0570 C   0  0  0  0  0  0  0  0  0  0  0  0
   -3.1710    2.3500   -1.3250 C   0  0  0  0  0  0  0  0  0  0  0  0
   -2.0200    1.6110   -1.7240 N   0  0  0  0  0  0  0  0  0  0  0  0
   -1.2590    0.7950   -0.8580 C   0  0  0  0  0  0  0  0  0  0  0  0
   -1.0950    1.1830    0.3370 N   0  0  0  0  0  0  0  0  0  0  0  0
   -0.3530    0.4610    1.3120 C   0  0  0  0  0  0  0  0  0  0  0  0
   -0.2190    1.1250    2.9820 S   0  0  0  0  0  0  0  0  0  0  0  0
    0.8660   -0.0200    3.9270 C   0  0  0  0  0  0  0  0  0  0  0  0
    2.2290    0.0360    3.3780 C   0  0  0  0  0  0  0  0  0  0  0  0
    2.4950    0.8190    2.4400 O   0  0  0  0  0  0  0  0  0  0  0  0
    3.2580   -0.7880    3.8980 N   0  0  0  0  0  0  0  0  0  0  0  0
    2.9260   -1.6800    4.9700 C   0  0  0  0  0  0  0  0  0  0  0  0
    4.1620   -2.1330    5.6700 C   0  0  0  0  0  0  0  0  0  0  0  0
    5.1090   -2.6390    4.7770 O   0  0  0  0  0  0  0  0  0  0  0  0
    5.5880   -1.6500    3.9370 C   0  0  1  0  0  0  0  0  0  0  0  0
    6.2600   -2.3850    2.7720 C   0  0  0  0  0  0  0  0  0  0  0  0
    4.5930   -0.7310    3.3590 C   0  0  0  0  0  0  0  0  0  0  0  0
    0.2140   -0.6600    1.0350 N   0  0  0  0  0  0  0  0  0  0  0  0
    0.1210   -1.2390   -0.2890 C   0  0  0  0  0  0  0  0  0  0  0  0
    0.6720   -2.3170   -0.5410 O   0  0  0  0  0  0  0  0  0  0  0  0
   -0.6410   -0.4920   -1.2780 C   0  0  0  0  0  0  0  0  0  0  0  0
   -0.8400   -0.8510   -2.5170 C   0  0  0  0  0  0  0  0  0  0  0  0
   -0.3130   -2.0680   -3.0820 C   0  0  0  0  0  0  0  0  0  0  0  0
   -0.5540   -2.3730   -4.3490 C   0  0  0  0  0  0  0  0  0  0  0  0
   -1.3480   -1.5210   -5.2350 C   0  0  0  0  0  0  0  0  0  0  0  0
    0.0150   -3.6490   -4.8820 C   0  0  0  0  0  0  0  0  0  0  0  0
   -6.0120    3.9180    0.6750 C   0  0  0  0  0  0  0  0  0  0  0  0
  1  2  1  0
  2  3  1  0
  3  4  2  0
  3  8  1  0
  4  5  1  0
  5  6  2  0
  5 33  1  0
  6  7  1  0
  6 33  1  0
  7  8  2  0
  8  9  1  0
  9 10  1  0
 10 11  2  0
 10 27  1  0
 11 12  1  0
 12 13  1  0
 12 24  2  0
 13 14  1  0
 14 15  1  0
 15 16  2  0
 15 17  1  0
 17 18  1  0
 17 23  1  0
 18 19  1  0
 19 20  1  0
 20 21  1  0
 21 22  1  6
 21 23  1  0
 24 25  1  0
 25 26  2  0
 25 27  1  0
 27 28  2  3
 28 29  1  0
 29 30  2  3
 30 31  1  0
 30 32  1  0
M  END
