
     RDKit          3D

 33 36  0  0  0  0  0  0  0  0999 V2000
    7.5800   -3.2640    0.3890 C   0  0  0  0  0  0  0  0  0  0  0  0
    6.9440   -1.9460    0.0710 C   0  0  0  0  0  0  0  0  0  0  0  0
    7.6810   -0.9220   -0.4730 C   0  0  0  0  0  0  0  0  0  0  0  0
    7.0910    0.2770   -0.7620 C   0  0  0  0  0  0  0  0  0  0  0  0
    7.9250    1.3520   -1.3440 C   0  0  0  0  0  0  0  0  0  0  0  0
    5.7350    0.4580   -0.5030 C   0  0  0  0  0  0  0  0  0  0  0  0
    4.9680   -0.5170    0.0290 C   0  0  0  0  0  0  0  0  0  0  0  0
    3.5590   -0.3800    0.2820 C   0  0  0  0  0  0  0  0  0  0  0  0
    2.6530   -1.6880    1.1910 S   0  0  0  0  0  0  0  0  0  0  0  0
    1.0580   -0.8670    1.0930 C   0  0  0  0  0  0  0  0  0  0  0  0
   -0.1620   -1.4610    1.6860 C   0  0  0  0  0  0  0  0  0  0  0  0
   -1.3600   -0.7700    1.2900 N   0  0  0  0  0  0  0  0  0  0  0  0
   -1.5090   -0.8130   -0.1090 C   0  0  0  0  0  0  0  0  0  0  0  0
   -2.1690    0.3210   -0.7900 C   0  0  0  0  0  0  0  0  0  0  0  0
   -2.9630    1.0780    0.1400 N   0  0  0  0  0  0  0  0  0  0  0  0
   -4.3420    1.3880   -0.0750 C   0  0  0  0  0  0  0  0  0  0  0  0
   -4.9080    2.0500    0.8100 O   0  0  0  0  0  0  0  0  0  0  0  0
   -5.0170    0.9370   -1.2800 C   0  0  0  0  0  0  0  0  0  0  0  0
   -6.4720    1.1480   -1.4210 C   0  0  0  0  0  0  0  0  0  0  0  0
   -7.3330    0.5250   -0.4680 N   0  0  0  0  0  0  0  0  0  0  0  0
   -7.8820    1.0300    0.7180 C   0  0  0  0  0  0  0  0  0  0  0  0
   -7.8100    2.1490    1.2750 O   0  0  0  0  0  0  0  0  0  0  0  0
   -8.6540   -0.0350    1.3120 N   0  0  0  0  0  0  0  0  0  0  0  0
   -8.5890   -1.1970    0.5020 C   0  0  0  0  0  0  0  0  0  0  0  0
   -9.1710   -2.3020    0.7650 O   0  0  0  0  0  0  0  0  0  0  0  0
   -7.7620   -0.8530   -0.6170 C   0  0  0  0  0  0  0  0  0  0  0  0
   -7.4690   -1.6310   -1.5620 O   0  0  0  0  0  0  0  0  0  0  0  0
   -2.2930    1.5280    1.3350 C   0  0  0  0  0  0  0  0  0  0  0  0
   -1.4960    0.4440    1.9870 C   0  0  0  0  0  0  0  0  0  0  0  0
    1.3230    0.2510    0.4270 C   0  0  0  0  0  0  0  0  0  0  0  0
    2.5830    0.5180    0.0060 C   0  0  0  0  0  0  0  0  0  0  0  0
    2.8970    1.7840   -0.7830 C   0  0  0  0  0  0  0  0  0  0  0  0
    5.6050   -1.7300    0.3120 C   0  0  0  0  0  0  0  0  0  0  0  0
  1  2  1  0
  2  3  2  0
  2 33  1  0
  3  4  1  0
  4  5  1  0
  4  6  2  0
  6  7  1  0
  7  8  1  0
  7 33  2  0
  8  9  1  0
  8 31  2  0
  9 10  1  0
 10 11  1  0
 10 30  2  0
 11 12  1  0
 12 13  1  0
 12 29  1  0
 13 14  1  0
 14 15  1  0
 15 16  1  0
 15 28  1  0
 16 17  2  0
 16 18  1  0
 18 19  1  0
 19 20  1  0
 20 21  1  0
 20 26  1  0
 21 22  2  0
 21 23  1  0
 23 24  1  0
 24 25  2  0
 24 26  1  0
 26 27  2  0
 28 29  1  0
 30 31  1  0
 31 32  1  0
M  END
