
     RDKit          3D

 32 33  0  0  0  0  0  0  0  0999 V2000
   -0.0940   -5.2760   -1.2500 C   0  0  0  0  0  0  0  0  0  0  0  0
    0.8050   -4.1040   -1.3860 C   0  0  0  0  0  0  0  0  0  0  0  0
    0.8700   -3.2280   -0.2060 C   0  0  0  0  0  0  0  0  0  0  0  0
    1.8890   -3.6980    0.8670 C   0  0  0  0  0  0  0  0  0  0  0  0
    1.5200   -5.0540    1.2330 N   0  0  0  0  0  0  0  0  0  0  0  0
    1.8460   -5.3080    2.6430 C   0  0  0  0  0  0  0  0  0  0  0  0
    0.1680   -2.1800    0.0520 C   0  0  0  0  0  0  0  0  0  0  0  0
    0.5530   -1.5410    1.3550 N   0  0  0  0  0  0  0  0  0  0  0  0
    1.7050   -0.6670    1.3950 C   0  0  0  0  0  0  0  0  0  0  0  0
    1.5890    0.6260    0.6740 C   0  0  0  0  0  0  0  0  0  0  0  0
    2.7180    1.5070    0.7280 N   0  0  2  0  0  0  0  0  0  0  0  0
    4.0100    0.9280    0.7530 C   0  0  0  0  0  0  0  0  0  0  0  0
    4.8990    1.6040   -0.2960 C   0  0  0  0  0  0  0  0  0  0  0  0
    5.4640    2.8860    0.2170 C   0  0  0  0  0  0  0  0  0  0  0  0
    4.3740    3.8400    0.6890 C   0  0  0  0  0  0  0  0  0  0  0  0
    3.7650    3.3600    1.9710 C   0  0  0  0  0  0  0  0  0  0  0  0
    2.5720    2.4790    1.8070 C   0  0  0  0  0  0  0  0  0  0  0  0
   -0.8890   -1.4340   -0.6010 C   0  0  0  0  0  0  0  0  0  0  0  0
   -1.4050   -0.3670    0.1090 C   0  0  0  0  0  0  0  0  0  0  0  0
   -2.3700    0.5580   -0.1730 C   0  0  0  0  0  0  0  0  0  0  0  0
   -2.2290    1.1930    1.3050 O   0  0  0  0  0  0  0  0  0  0  0  0
   -3.3280    1.4520   -0.5020 N   0  0  0  0  0  0  0  0  0  0  0  0
   -3.8890    1.6230   -1.8490 C   0  0  0  0  0  0  0  0  0  0  0  0
   -4.5700    2.9890   -1.8620 C   0  0  1  0  0  0  0  0  0  0  0  0
   -4.9860    3.2630   -3.2940 C   0  0  0  0  0  0  0  0  0  0  0  0
   -5.7250    2.9020   -1.1120 O   0  0  0  0  0  0  0  0  0  0  0  0
   -5.5000    2.3710    0.1460 C   0  0  2  0  0  0  0  0  0  0  0  0
   -6.2320    3.1580    1.1870 C   0  0  0  0  0  0  0  0  0  0  0  0
   -4.0090    2.3470    0.4590 C   0  0  0  0  0  0  0  0  0  0  0  0
   -1.5490   -1.6790   -1.8450 C   0  0  0  0  0  0  0  0  0  0  0  0
   -1.3350   -2.6330   -2.8490 N   0  0  0  0  0  0  0  0  0  0  0  0
   -2.5420   -0.9030   -2.1520 O   0  0  0  0  0  0  0  0  0  0  0  0
  1  2  1  0
  2  3  1  0
  3  4  1  0
  3  7  2  3
  4  5  1  0
  5  6  1  0
  7  8  1  0
  7 18  1  0
  8  9  1  0
  9 10  1  0
 11 10  1  1
 11 12  1  0
 11 17  1  0
 12 13  1  0
 13 14  1  0
 14 15  1  0
 15 16  1  0
 16 17  1  0
 18 19  2  3
 18 30  1  0
 19 20  1  0
 20 21  2  0
 20 22  1  0
 22 23  1  0
 22 29  1  0
 23 24  1  0
 24 25  1  6
 24 26  1  0
 26 27  1  0
 27 28  1  1
 27 29  1  0
 30 31  1  0
 30 32  2  0
M  CHG  2   5   1  11   1
M  END
