
     RDKit          3D

 33 36  0  0  0  0  0  0  0  0999 V2000
   10.7920    1.0400    0.8110 C   0  0  0  0  0  0  0  0  0  0  0  0
    9.4990    0.5040    0.4090 N   0  0  0  0  0  0  0  0  0  0  0  0
    9.3900   -0.7740    0.0070 C   0  0  0  0  0  0  0  0  0  0  0  0
    8.1770   -1.3480   -0.3880 C   0  0  0  0  0  0  0  0  0  0  0  0
    7.0900   -0.5760   -0.3600 C   0  0  0  0  0  0  0  0  0  0  0  0
    5.6970   -0.9960   -0.7010 C   0  0  0  0  0  0  0  0  0  0  0  0
    5.2620   -2.1370   -0.5000 O   0  0  0  0  0  0  0  0  0  0  0  0
    4.8550   -0.0080   -1.2730 N   0  0  0  0  0  0  0  0  0  0  0  0
    3.4620   -0.2240   -1.5960 C   0  0  0  0  0  0  0  0  0  0  0  0
    2.8670   -0.6490   -0.2620 C   0  0  0  0  0  0  0  0  0  0  0  0
    2.4120   -1.7680   -0.1480 O   0  0  0  0  0  0  0  0  0  0  0  0
    2.8880    0.2800    0.7600 O   0  0  0  0  0  0  0  0  0  0  0  0
    2.2180   -0.2730    1.9750 C   0  0  0  0  0  0  0  0  0  0  0  0
    0.7970   -0.4060    1.4250 C   0  0  0  0  0  0  0  0  0  0  0  0
    0.0410    0.5620    1.0930 N   0  0  0  0  0  0  0  0  0  0  0  0
   -1.1070    0.4340    0.5320 C   0  0  0  0  0  0  0  0  0  0  0  0
   -1.5440   -0.8180    0.2680 C   0  0  0  0  0  0  0  0  0  0  0  0
   -0.1330   -1.8170    0.9260 S   0  0  0  0  0  0  0  0  0  0  0  0
   -2.7700   -1.2020   -0.3830 C   0  0  0  0  0  0  0  0  0  0  0  0
   -3.7660   -0.0860    0.0650 C   0  0  2  0  0  0  0  0  0  0  0  0
   -3.6640   -0.0990    1.5670 C   0  0  0  0  0  0  0  0  0  0  0  0
   -5.0500   -0.3350   -0.3750 N   0  0  0  0  0  0  0  0  0  0  0  0
   -5.7080   -1.4930    0.0540 C   0  0  0  0  0  0  0  0  0  0  0  0
   -6.9530   -1.0880    0.8170 C   0  0  0  0  0  0  0  0  0  0  0  0
   -7.9390   -0.6330   -0.2600 C   0  0  0  0  0  0  0  0  0  0  0  0
   -7.9340    0.8470   -0.4590 C   0  0  0  0  0  0  0  0  0  0  0  0
   -6.5730    1.4380   -0.6720 C   0  0  0  0  0  0  0  0  0  0  0  0
   -5.6350    0.4760   -1.3670 C   0  0  0  0  0  0  0  0  0  0  0  0
   -3.1630    1.1520   -0.5670 C   0  0  0  0  0  0  0  0  0  0  0  0
   -1.9610    1.6440    0.1070 C   0  0  0  0  0  0  0  0  0  0  0  0
    7.2010    0.7430    0.0580 C   0  0  0  0  0  0  0  0  0  0  0  0
    8.3820    1.2950    0.4410 C   0  0  0  0  0  0  0  0  0  0  0  0
    8.4710    2.4970    0.8070 O   0  0  0  0  0  0  0  0  0  0  0  0
  1  2  1  0
  2  3  1  0
  2 32  1  0
  3  4  2  0
  4  5  1  0
  5  6  1  0
  5 31  2  0
  6  7  2  0
  6  8  1  0
  8  9  1  0
  9 10  1  0
 10 11  2  0
 10 12  1  0
 12 13  1  0
 13 14  1  0
 14 15  2  0
 14 18  1  0
 15 16  1  0
 16 17  2  0
 16 30  1  0
 17 18  1  0
 17 19  1  0
 19 20  1  0
 20 21  1  1
 20 22  1  0
 20 29  1  0
 22 23  1  0
 22 28  1  0
 23 24  1  0
 24 25  1  0
 25 26  1  0
 26 27  1  0
 27 28  1  0
 29 30  1  0
 31 32  1  0
 32 33  2  0
M  END
