
     RDKit          3D

 19 20  0  0  0  0  0  0  0  0999 V2000
    7.3980   -0.0970   -0.3910 N   0  0  0  0  0  0  0  0  0  0  0  0
    6.5090   -0.5370    0.5920 C   0  0  0  0  0  0  0  0  0  0  0  0
    6.9690   -1.0160    1.6700 O   0  0  0  0  0  0  0  0  0  0  0  0
    5.0910   -0.4280    0.3420 C   0  0  0  0  0  0  0  0  0  0  0  0
    4.3660    0.0510   -0.7360 C   0  0  0  0  0  0  0  0  0  0  0  0
    3.0270    0.0090   -0.6480 C   0  0  0  0  0  0  0  0  0  0  0  0
    2.4450   -0.4760    0.4390 C   0  0  0  0  0  0  0  0  0  0  0  0
    0.9880   -0.6270    0.7720 C   0  0  0  0  0  0  0  0  0  0  0  0
    0.6480   -1.1110    1.8540 O   0  0  0  0  0  0  0  0  0  0  0  0
    0.0460   -0.2110   -0.1670 N   0  0  0  0  0  0  0  0  0  0  0  0
   -1.3690   -0.3020    0.0330 C   0  0  0  0  0  0  0  0  0  0  0  0
   -2.1350   -0.7700    1.0780 C   0  0  0  0  0  0  0  0  0  0  0  0
   -3.4720   -0.7060    0.9290 C   0  0  0  0  0  0  0  0  0  0  0  0
   -3.9960   -0.2090   -0.1870 C   0  0  0  0  0  0  0  0  0  0  0  0
   -5.4330   -0.0230   -0.6120 C   0  0  0  0  0  0  0  0  0  0  0  0
   -5.9110    1.3640   -0.1610 C   0  0  0  0  0  0  0  0  0  0  0  0
   -5.1190    2.3500   -0.7480 O   0  0  0  0  0  0  0  0  0  0  0  0
   -2.5910    0.2150   -1.1330 S   0  0  0  0  0  0  0  0  0  0  0  0
    3.7710   -0.9270    1.4570 S   0  0  0  0  0  0  0  0  0  0  0  0
  1  2  1  0
  2  3  2  0
  2  4  1  0
  4  5  2  0
  4 19  1  0
  5  6  1  0
  6  7  2  0
  7  8  1  0
  7 19  1  0
  8  9  2  0
  8 10  1  0
 10 11  1  0
 11 12  2  0
 11 18  1  0
 12 13  1  0
 13 14  2  0
 14 15  1  0
 14 18  1  0
 15 16  1  0
 16 17  1  0
M  END
