
     RDKit          3D

 19 20  0  0  0  0  0  0  0  0999 V2000
    5.5610   -1.4320   -1.7400 O   0  0  0  0  0  0  0  0  0  0  0  0
    5.8100   -0.0980   -1.0900 S   0  0  1  0  0  0  0  0  0  0  0  0
    7.0020   -0.2830   -0.1840 O   0  0  0  0  0  0  0  0  0  0  0  0
    6.2000    1.0780   -2.2150 O   0  0  0  0  0  0  0  0  0  0  0  0
    4.3790    0.3580   -0.2040 C   0  0  0  0  0  0  0  0  0  0  0  0
    4.4160    1.1420    0.9250 C   0  0  0  0  0  0  0  0  0  0  0  0
    3.2880    1.4870    1.6210 C   0  0  0  0  0  0  0  0  0  0  0  0
    2.0440    1.0450    1.1970 C   0  0  0  0  0  0  0  0  0  0  0  0
    1.9520    0.2570    0.0740 C   0  0  0  0  0  0  0  0  0  0  0  0
    0.7690   -0.3020   -0.4400 N   0  0  0  0  0  0  0  0  0  0  0  0
   -0.4310   -0.5300    0.2490 C   0  0  0  0  0  0  0  0  0  0  0  0
   -0.6600   -0.1950    1.8060 S   0  0  0  0  0  0  0  0  0  0  0  0
   -1.5300   -1.1210   -0.4660 N   0  0  0  0  0  0  0  0  0  0  0  0
   -2.7990   -1.3870    0.1890 C   0  0  0  0  0  0  0  0  0  0  0  0
   -3.4500   -0.0360    0.4530 C   0  0  2  0  0  0  0  0  0  0  0  0
   -4.8040   -0.1410    1.1770 C   0  0  0  0  0  0  0  0  0  0  0  0
   -5.4270   -0.4360   -0.1480 C   0  0  0  0  0  0  0  0  0  0  0  0
   -4.2860    0.3820   -0.7740 C   0  0  0  0  0  0  0  0  0  0  0  0
    3.1410   -0.0720   -0.6110 C   0  0  0  0  0  0  0  0  0  0  0  0
  1  2  2  0
  2  3  2  0
  2  4  1  6
  2  5  1  0
  5  6  2  0
  5 19  1  0
  6  7  1  0
  7  8  2  0
  8  9  1  0
  9 10  1  0
  9 19  2  0
 10 11  1  0
 11 12  2  0
 11 13  1  0
 13 14  1  0
 15 14  1  6
 15 16  1  0
 15 18  1  0
 16 17  1  0
 17 18  1  0
M  END
