
     RDKit          3D

 19 20  0  0  0  0  0  0  0  0999 V2000
    1.6070   -0.3410    1.2790 O   0  0  0  0  0  0  0  0  0  0  0  0
    1.8410   -0.4000    0.0610 C   0  0  0  0  0  0  0  0  0  0  0  0
    3.1650   -0.4340   -0.4010 N   0  0  0  0  0  0  0  0  0  0  0  0
    4.2940   -0.4010    0.5030 C   0  0  0  0  0  0  0  0  0  0  0  0
    5.5890   -0.4500   -0.2890 C   0  0  0  0  0  0  0  0  0  0  0  0
    6.6870   -0.4200    0.5360 O   0  0  0  0  0  0  0  0  0  0  0  0
    0.7050   -0.4340   -0.8660 C   0  0  0  0  0  0  0  0  0  0  0  0
    0.9390   -0.4940   -2.0660 O   0  0  0  0  0  0  0  0  0  0  0  0
   -0.6210   -0.3980   -0.4270 N   0  0  0  0  0  0  0  0  0  0  0  0
   -1.7820   -0.4340   -1.2740 C   0  0  0  0  0  0  0  0  0  0  0  0
   -1.5800   -0.8370   -2.5980 C   0  0  0  0  0  0  0  0  0  0  0  0
   -3.2830   -0.8770   -3.3680 S   0  0  0  0  0  0  0  0  0  0  0  0
   -4.0430   -0.3560   -1.8410 C   0  0  0  0  0  0  0  0  0  0  0  0
   -3.0350   -0.1880   -0.8890 C   0  0  0  0  0  0  0  0  0  0  0  0
   -3.4210    0.2960    0.4080 C   0  0  0  0  0  0  0  0  0  0  0  0
   -4.6470    0.4840    1.0070 C   0  0  0  0  0  0  0  0  0  0  0  0
   -4.7470    0.9470    2.2390 C   0  0  0  0  0  0  0  0  0  0  0  0
   -3.6290    1.2550    2.9590 C   0  0  0  0  0  0  0  0  0  0  0  0
   -2.2780    0.8280    1.7210 S   0  0  0  0  0  0  0  0  0  0  0  0
  1  2  2  0
  2  3  1  0
  2  7  1  0
  3  4  1  0
  4  5  1  0
  5  6  1  0
  7  8  2  0
  7  9  1  0
  9 10  1  0
 10 11  2  0
 10 14  1  0
 11 12  1  0
 12 13  1  0
 13 14  2  0
 14 15  1  0
 15 16  2  0
 15 19  1  0
 16 17  1  0
 17 18  2  0
 18 19  1  0
M  END
