
     RDKit          3D

 19 20  0  0  0  0  0  0  0  0999 V2000
   -5.1980    2.0240    0.6310 C   0  0  0  0  0  0  0  0  0  0  0  0
   -4.3650    1.1430    0.1060 C   0  0  0  0  0  0  0  0  0  0  0  0
   -4.8980   -0.1830   -0.2960 C   0  0  0  0  0  0  0  0  0  0  0  0
   -4.2680   -1.1920    0.4110 O   0  0  0  0  0  0  0  0  0  0  0  0
   -2.6730    1.5530   -0.2260 S   0  0  0  0  0  0  0  0  0  0  0  0
   -1.8210    0.1460   -0.9260 C   0  0  0  0  0  0  0  0  0  0  0  0
   -0.6620   -0.3320   -0.1210 C   0  0  0  0  0  0  0  0  0  0  0  0
   -0.9190   -1.0270    0.9170 O   0  0  0  0  0  0  0  0  0  0  0  0
    0.6280   -0.0260   -0.4870 N   0  0  0  0  0  0  0  0  0  0  0  0
    1.8140   -0.4220    0.1920 C   0  0  0  0  0  0  0  0  0  0  0  0
    1.8800   -1.2360    1.2930 C   0  0  0  0  0  0  0  0  0  0  0  0
    3.1320   -1.5190    1.8190 C   0  0  0  0  0  0  0  0  0  0  0  0
    4.2950   -1.0450    1.3180 C   0  0  0  0  0  0  0  0  0  0  0  0
    4.2730   -0.1900    0.1700 C   0  0  0  0  0  0  0  0  0  0  0  0
    5.2990    0.3330   -0.4040 N   0  0  0  0  0  0  0  0  0  0  0  0
    5.2020    1.1330   -1.4820 C   0  0  0  0  0  0  0  0  0  0  0  0
    5.9840    1.7410   -2.2000 O   0  0  0  0  0  0  0  0  0  0  0  0
    3.3550    1.1300   -1.7010 S   0  0  0  0  0  0  0  0  0  0  0  0
    3.0190    0.0530   -0.3050 C   0  0  0  0  0  0  0  0  0  0  0  0
  1  2  2  0
  2  3  1  0
  2  5  1  0
  3  4  1  0
  5  6  1  0
  6  7  1  0
  7  8  2  0
  7  9  1  0
  9 10  1  0
 10 11  2  0
 10 19  1  0
 11 12  1  0
 12 13  2  0
 13 14  1  0
 14 15  1  0
 14 19  2  0
 15 16  1  0
 16 17  2  0
 16 18  1  0
 18 19  1  0
M  END
