
     RDKit          3D

 19 20  0  0  0  0  0  0  0  0999 V2000
    5.5960   -1.3260    0.6010 N   0  0  0  0  0  0  0  0  0  0  0  0
    5.9970   -0.2590   -0.2110 C   0  0  0  0  0  0  0  0  0  0  0  0
    7.1920   -0.2320   -0.6080 O   0  0  0  0  0  0  0  0  0  0  0  0
    5.1200    0.8280   -0.6370 C   0  0  0  0  0  0  0  0  0  0  0  0
    3.7800    0.6660   -0.1340 O   0  0  0  0  0  0  0  0  0  0  0  0
    2.7910    1.5640   -0.4770 C   0  0  0  0  0  0  0  0  0  0  0  0
    3.1640    2.5150   -1.2530 O   0  0  0  0  0  0  0  0  0  0  0  0
    1.3870    1.4800   -0.0190 C   0  0  0  0  0  0  0  0  0  0  0  0
    0.7710    0.2440   -0.6650 C   0  0  0  0  0  0  0  0  0  0  0  0
   -0.6670    0.1450   -0.2690 C   0  0  0  0  0  0  0  0  0  0  0  0
   -1.6600    1.4460    0.4140 S   0  0  0  0  0  0  0  0  0  0  0  0
   -3.1750    0.5130    0.5630 C   0  0  0  0  0  0  0  0  0  0  0  0
   -2.8160   -0.6750    0.0980 C   0  0  0  0  0  0  0  0  0  0  0  0
   -1.5560   -0.9110   -0.3350 C   0  0  0  0  0  0  0  0  0  0  0  0
   -1.0450   -2.1800   -0.8550 N   0  0  0  0  0  0  0  0  0  0  0  0
   -3.9410   -1.7170    0.1080 C   0  0  0  0  0  0  0  0  0  0  0  0
   -5.3230   -0.8310   -0.7040 S   0  0  0  0  0  0  0  0  0  0  0  0
   -5.6920    0.5400    0.4590 C   0  0  0  0  0  0  0  0  0  0  0  0
   -4.4270    1.0000    1.0840 C   0  0  0  0  0  0  0  0  0  0  0  0
  1  2  1  0
  2  3  2  0
  2  4  1  0
  4  5  1  0
  5  6  1  0
  6  7  2  0
  6  8  1  0
  8  9  1  0
  9 10  1  0
 10 11  1  0
 10 14  2  0
 11 12  1  0
 12 13  2  0
 12 19  1  0
 13 14  1  0
 13 16  1  0
 14 15  1  0
 16 17  1  0
 17 18  1  0
 18 19  1  0
M  END
