
     RDKit          3D

 19 20  0  0  0  0  0  0  0  0999 V2000
   -0.9100   -0.9580    1.9500 O   0  0  0  0  0  0  0  0  0  0  0  0
   -0.4120   -0.3510    0.9810 C   0  0  0  0  0  0  0  0  0  0  0  0
   -1.2920    0.2850    0.0640 N   0  0  0  0  0  0  0  0  0  0  0  0
   -2.6960    0.2660    0.1920 C   0  0  0  0  0  0  0  0  0  0  0  0
   -3.3750   -0.5150    1.4410 S   0  0  0  0  0  0  0  0  0  0  0  0
   -3.7020    1.0920   -1.0090 S   0  0  0  0  0  0  0  0  0  0  0  0
   -5.4620    0.9430   -0.6540 C   0  0  0  0  0  0  0  0  0  0  0  0
   -5.8960   -0.5000   -0.7910 C   0  0  0  0  0  0  0  0  0  0  0  0
   -7.2350   -0.6710   -0.5290 O   0  0  0  0  0  0  0  0  0  0  0  0
    1.0440   -0.2980    0.7980 C   0  0  0  0  0  0  0  0  0  0  0  0
    2.0180   -0.8580    1.5940 C   0  0  0  0  0  0  0  0  0  0  0  0
    3.2540   -0.5790    1.0780 C   0  0  0  0  0  0  0  0  0  0  0  0
    4.5480   -0.8740    1.4430 C   0  0  0  0  0  0  0  0  0  0  0  0
    5.6240   -0.4320    0.6860 C   0  0  0  0  0  0  0  0  0  0  0  0
    5.4060    0.3140   -0.4480 C   0  0  0  0  0  0  0  0  0  0  0  0
    6.4680    0.7530   -1.1990 O   0  0  0  0  0  0  0  0  0  0  0  0
    4.1040    0.6120   -0.8170 C   0  0  0  0  0  0  0  0  0  0  0  0
    3.0280    0.1740   -0.0670 C   0  0  0  0  0  0  0  0  0  0  0  0
    1.7140    0.3160   -0.1940 N   0  0  0  0  0  0  0  0  0  0  0  0
  1  2  2  0
  2  3  1  0
  2 10  1  0
  3  4  1  0
  4  5  2  0
  4  6  1  0
  6  7  1  0
  7  8  1  0
  8  9  1  0
 10 11  2  0
 10 19  1  0
 11 12  1  0
 12 13  2  0
 12 18  1  0
 13 14  1  0
 14 15  2  0
 15 16  1  0
 15 17  1  0
 17 18  2  0
 18 19  1  0
M  END
