
     RDKit          3D

 18 19  0  0  0  0  0  0  0  0999 V2000
   -5.0820   -1.2490    1.6490 N   0  0  0  0  0  0  0  0  0  0  0  0
   -4.1120   -0.2520    1.3610 C   0  0  0  0  0  0  0  0  0  0  0  0
   -3.1470   -0.0930    2.1500 O   0  0  0  0  0  0  0  0  0  0  0  0
   -4.2850    0.5570    0.1340 C   0  0  0  0  0  0  0  0  0  0  0  0
   -3.1810    1.5520   -0.0130 C   0  0  0  0  0  0  0  0  0  0  0  0
   -1.8950    0.8520   -0.0930 N   0  0  0  0  0  0  0  0  0  0  0  0
   -0.6780    1.5700   -0.2360 C   0  0  0  0  0  0  0  0  0  0  0  0
   -0.6910    2.8190   -0.2960 O   0  0  0  0  0  0  0  0  0  0  0  0
    0.5980    0.8250   -0.3130 C   0  0  0  0  0  0  0  0  0  0  0  0
    0.7930   -0.5180   -0.2640 C   0  0  0  0  0  0  0  0  0  0  0  0
    2.1470   -0.7460   -0.3730 C   0  0  0  0  0  0  0  0  0  0  0  0
    2.7310    0.4950   -0.4860 C   0  0  0  0  0  0  0  0  0  0  0  0
    4.1950    0.7520   -0.6290 C   0  0  2  0  0  0  0  0  0  0  0  0
    4.8490   -0.1970   -2.0540 S   0  0  0  0  0  0  0  0  0  0  0  0
    5.4020   -1.6960   -1.2930 C   0  0  0  0  0  0  0  0  0  0  0  0
    5.5430   -1.6530    0.0100 C   0  0  0  0  0  0  0  0  0  0  0  0
    5.1350   -0.0670    0.7070 S   0  0  0  0  0  0  0  0  0  0  0  0
    1.7740    1.3900   -0.4450 O   0  0  0  0  0  0  0  0  0  0  0  0
  1  2  1  0
  2  3  2  0
  2  4  1  0
  4  5  1  0
  5  6  1  0
  6  7  1  0
  7  8  2  0
  7  9  1  0
  9 10  2  0
  9 18  1  0
 10 11  1  0
 11 12  2  0
 13 12  1  1
 12 18  1  0
 13 14  1  0
 13 17  1  0
 14 15  1  0
 15 16  2  0
 16 17  1  0
M  END
