
     RDKit          3D

 21 20  0  0  0  0  0  0  0  0999 V2000
    6.1530    1.5090   -0.5000 C   0  0  0  0  0  0  0  0  0  0  0  0
    6.6060    0.2840   -0.3340 C   0  0  0  0  0  0  0  0  0  0  0  0
    5.7710   -0.8830   -0.0410 C   0  0  0  0  0  0  0  0  0  0  0  0
    4.3570   -0.6210    0.0630 N   0  0  0  0  0  0  0  0  0  0  0  0
    3.5240   -1.7460    0.3480 C   0  0  0  0  0  0  0  0  0  0  0  0
    4.1060   -2.8660    0.4820 O   0  0  0  0  0  0  0  0  0  0  0  0
    2.0790   -1.6820    0.4890 C   0  0  0  0  0  0  0  0  0  0  0  0
    1.4620   -0.4030    0.3310 N   0  0  0  0  0  0  0  0  0  0  0  0
    0.0480   -0.2710    0.4570 C   0  0  0  0  0  0  0  0  0  0  0  0
   -0.6000   -1.3260    0.7110 O   0  0  0  0  0  0  0  0  0  0  0  0
   -0.6360    0.9410    0.3180 N   0  0  0  0  0  0  0  0  0  0  0  0
   -2.0420    1.1410    0.3660 C   0  0  0  0  0  0  0  0  0  0  0  0
   -2.8290    0.6100   -0.8080 C   0  0  2  0  0  0  0  0  0  0  0  0
   -4.1760    0.7580   -0.5430 O   0  0  0  0  0  0  0  0  0  0  0  0
   -5.0300    0.3310    0.3930 C   0  0  0  0  0  0  0  0  0  0  0  0
   -5.6880   -0.8190    0.2380 C   0  0  0  0  0  0  0  0  0  0  0  0
   -5.2850    1.1220    1.6380 C   0  0  0  0  0  0  0  0  0  0  0  0
   -5.7870    2.3940    1.2930 O   0  0  0  0  0  0  0  0  0  0  0  0
   -2.3490   -0.6490   -1.3410 C   0  0  0  0  0  0  0  0  0  0  0  0
   -1.0920   -0.6740   -2.0390 N   0  0  0  0  0  0  0  0  0  0  0  0
   -2.9660   -1.7110   -1.2410 O   0  0  0  0  0  0  0  0  0  0  0  0
  1  2  2  0
  2  3  1  0
  3  4  1  0
  4  5  1  0
  5  6  2  0
  5  7  1  0
  7  8  1  0
  8  9  1  0
  9 10  2  0
  9 11  1  0
 11 12  1  0
 13 12  1  1
 13 14  1  0
 13 19  1  0
 14 15  1  0
 15 16  2  0
 15 17  1  0
 17 18  1  0
 19 20  1  0
 19 21  2  0
M  END
