
     RDKit          3D

 20 21  0  0  0  0  0  0  0  0999 V2000
   -5.5070    1.5900    0.6770 N   0  0  0  0  0  0  0  0  0  0  0  0
   -5.1990   -0.0520    0.2060 S   0  0  1  0  0  0  0  0  0  0  0  0
   -5.8700   -0.9720    1.2010 O   0  0  0  0  0  0  0  0  0  0  0  0
   -5.7370   -0.2920   -1.1760 O   0  0  0  0  0  0  0  0  0  0  0  0
   -3.4690   -0.3410    0.2220 C   0  0  0  0  0  0  0  0  0  0  0  0
   -2.6680   -0.1160   -0.8580 C   0  0  0  0  0  0  0  0  0  0  0  0
   -1.2840   -0.3480   -0.8470 C   0  0  0  0  0  0  0  0  0  0  0  0
   -0.6990   -0.8210    0.2950 C   0  0  0  0  0  0  0  0  0  0  0  0
    0.6660   -1.0940    0.4270 N   0  0  0  0  0  0  0  0  0  0  0  0
    1.6730   -0.8970   -0.5510 C   0  0  0  0  0  0  0  0  0  0  0  0
    1.3790   -0.4280   -1.6760 O   0  0  0  0  0  0  0  0  0  0  0  0
    3.1030   -1.2470   -0.2430 C   0  0  0  0  0  0  0  0  0  0  0  0
    3.9830   -0.0740   -0.3840 C   0  0  0  0  0  0  0  0  0  0  0  0
    4.3840    0.8640    0.5340 C   0  0  0  0  0  0  0  0  0  0  0  0
    5.2010    1.8450    0.1250 C   0  0  0  0  0  0  0  0  0  0  0  0
    5.6020    1.8860   -1.1460 C   0  0  0  0  0  0  0  0  0  0  0  0
    4.7790    0.4350   -1.8710 S   0  0  0  0  0  0  0  0  0  0  0  0
   -1.5180   -1.0460    1.3820 C   0  0  0  0  0  0  0  0  0  0  0  0
   -0.9820   -1.5220    2.5560 F   0  0  0  0  0  0  0  0  0  0  0  0
   -2.8760   -0.8170    1.3650 C   0  0  0  0  0  0  0  0  0  0  0  0
  2  1  1  1
  2  3  2  0
  2  4  2  0
  2  5  1  0
  5  6  2  0
  5 20  1  0
  6  7  1  0
  7  8  2  0
  8  9  1  0
  8 18  1  0
  9 10  1  0
 10 11  2  0
 10 12  1  0
 12 13  1  0
 13 14  2  0
 13 17  1  0
 14 15  1  0
 15 16  2  0
 16 17  1  0
 18 19  1  0
 18 20  2  0
M  END
