
     RDKit          3D

 21 20  0  0  0  0  0  0  0  0999 V2000
   -5.6480    0.3190   -1.9910 C   0  0  0  0  0  0  0  0  0  0  0  0
   -5.9770   -0.0020   -0.5300 C   0  0  0  0  0  0  0  0  0  0  0  0
   -4.7100   -0.4080    0.1660 C   0  0  0  0  0  0  0  0  0  0  0  0
   -3.7030    0.7210    0.1060 C   0  0  1  0  0  0  0  0  0  0  0  0
   -4.2660    1.8280    0.7410 O   0  0  0  0  0  0  0  0  0  0  0  0
   -2.4790    0.3760    0.8100 N   0  0  0  0  0  0  0  0  0  0  0  0
   -1.2220    0.3680    0.1930 C   0  0  0  0  0  0  0  0  0  0  0  0
   -1.1580    0.6740   -1.0280 O   0  0  0  0  0  0  0  0  0  0  0  0
    0.0430    0.0230    0.8810 C   0  0  1  0  0  0  0  0  0  0  0  0
    0.3560    0.9240    2.0320 C   0  0  0  0  0  0  0  0  0  0  0  0
   -0.1400   -1.3860    1.4410 C   0  0  0  0  0  0  0  0  0  0  0  0
    1.1810   -0.0540   -0.0720 C   0  0  0  0  0  0  0  0  0  0  0  0
    1.0700    0.1510   -1.3050 O   0  0  0  0  0  0  0  0  0  0  0  0
    2.4590   -0.3810    0.4720 N   0  0  0  0  0  0  0  0  0  0  0  0
    3.6230   -0.4850   -0.3350 C   0  0  0  0  0  0  0  0  0  0  0  0
    3.5520   -0.2850   -1.5790 O   0  0  0  0  0  0  0  0  0  0  0  0
    4.9300   -0.8350    0.3240 C   0  0  0  0  0  0  0  0  0  0  0  0
    5.9950   -0.8940   -0.6490 N   0  0  0  0  0  0  0  0  0  0  0  0
    6.3550    0.2280   -1.4400 C   0  0  0  0  0  0  0  0  0  0  0  0
    7.4020    0.1770   -2.4000 N   0  0  0  0  0  0  0  0  0  0  0  0
    5.7050    1.3120   -1.2720 O   0  0  0  0  0  0  0  0  0  0  0  0
  1  2  1  0
  2  3  1  0
  3  4  1  0
  4  5  1  1
  4  6  1  0
  6  7  1  0
  7  8  2  0
  7  9  1  0
  9 10  1  1
  9 11  1  0
  9 12  1  0
 12 13  2  0
 12 14  1  0
 14 15  1  0
 15 16  2  0
 15 17  1  0
 17 18  1  0
 18 19  1  0
 19 20  1  0
 19 21  2  0
M  END
