
     RDKit          3D

 21 20  0  0  0  0  0  0  0  0999 V2000
   -1.8140   -0.5300   -2.7890 C   0  0  0  0  0  0  0  0  0  0  0  0
   -0.6180   -0.3870   -1.9100 C   0  0  0  0  0  0  0  0  0  0  0  0
   -0.7400   -0.6000   -0.4660 C   0  0  1  0  0  0  0  0  0  0  0  0
   -1.2870   -1.9790   -0.2990 N   0  0  0  0  0  0  0  0  0  0  0  0
    0.6940   -0.8200    0.1020 C   0  0  0  0  0  0  0  0  0  0  0  0
    1.0020   -1.8780    0.6860 O   0  0  0  0  0  0  0  0  0  0  0  0
    1.6760    0.1830   -0.0370 N   0  0  0  0  0  0  0  0  0  0  0  0
    3.0000   -0.0130    0.4950 C   0  0  0  0  0  0  0  0  0  0  0  0
    3.2130   -1.1060    1.0740 O   0  0  0  0  0  0  0  0  0  0  0  0
    3.9780    0.9520    0.3710 O   0  0  0  0  0  0  0  0  0  0  0  0
    5.2780    0.7560    0.8960 C   0  0  0  0  0  0  0  0  0  0  0  0
    5.9380   -0.4210    0.2930 C   0  0  0  0  0  0  0  0  0  0  0  0
    5.2490   -1.1800   -0.6800 N   0  0  0  0  0  0  0  0  0  0  0  0
    7.0960   -0.7470    0.6370 O   0  0  0  0  0  0  0  0  0  0  0  0
   -1.4740    0.2650    0.4470 C   0  0  1  0  0  0  0  0  0  0  0  0
   -0.9690    1.7110    0.4250 C   0  0  0  0  0  0  0  0  0  0  0  0
   -2.9490    0.2530    0.5770 C   0  0  2  0  0  0  0  0  0  0  0  0
   -3.7920    0.6450   -0.5690 C   0  0  0  0  0  0  0  0  0  0  0  0
   -3.3720    0.8630    1.8370 N   0  0  0  0  0  0  0  0  0  0  0  0
   -3.8980    0.1530    2.9390 C   0  0  0  0  0  0  0  0  0  0  0  0
   -4.0160   -1.0820    2.8460 O   0  0  0  0  0  0  0  0  0  0  0  0
  1  2  1  0
  2  3  1  0
  3  4  1  6
  3  5  1  0
  3 15  1  0
  5  6  2  0
  5  7  1  0
  7  8  1  0
  8  9  2  0
  8 10  1  0
 10 11  1  0
 11 12  1  0
 12 13  1  0
 12 14  2  0
 15 16  1  6
 15 17  1  0
 17 18  1  6
 17 19  1  0
 19 20  1  0
 20 21  2  0
M  END
