
     RDKit          3D

 13 13  0  0  0  0  0  0  0  0999 V2000
   -3.3050   -1.8280   -0.7790 O   0  0  0  0  0  0  0  0  0  0  0  0
   -3.2170   -0.6650   -0.3440 C   0  0  0  0  0  0  0  0  0  0  0  0
   -4.2890    0.2070   -0.3890 O   0  0  0  0  0  0  0  0  0  0  0  0
   -1.9880   -0.2160    0.2150 N   0  0  0  0  0  0  0  0  0  0  0  0
   -0.8560   -0.9930    0.3130 N   0  0  0  0  0  0  0  0  0  0  0  0
    0.3330   -0.5590    0.0810 C   0  0  0  0  0  0  0  0  0  0  0  0
    0.6340    0.6970   -0.2840 N   0  0  0  0  0  0  0  0  0  0  0  0
    1.8390    1.1840   -0.5310 C   0  0  0  0  0  0  0  0  0  0  0  0
    1.8800    2.4260   -0.8670 O   0  0  0  0  0  0  0  0  0  0  0  0
    3.0100    0.5340   -0.4720 N   0  0  0  0  0  0  0  0  0  0  0  0
    3.1520   -0.7500   -0.1420 C   0  0  0  0  0  0  0  0  0  0  0  0
    4.6000   -1.5040   -0.0820 S   0  0  0  0  0  0  0  0  0  0  0  0
    1.7010   -1.5750    0.2190 S   0  0  0  0  0  0  0  0  0  0  0  0
  1  2  2  0
  2  3  1  0
  2  4  1  0
  4  5  1  0
  5  6  2  3
  6  7  1  0
  6 13  1  0
  7  8  1  0
  8  9  2  0
  8 10  1  0
 10 11  1  0
 11 12  2  0
 11 13  1  0
M  END
