
     RDKit          3D

 13 13  0  0  0  0  0  0  0  0999 V2000
    2.5990    0.5080   -0.8400 N   0  0  0  0  0  0  0  0  0  0  0  0
    2.7620   -0.6800   -0.0950 C   0  0  0  0  0  0  0  0  0  0  0  0
    4.2490   -1.3460    0.0700 S   0  0  0  0  0  0  0  0  0  0  0  0
    1.4040   -1.5320    0.7050 S   0  0  0  0  0  0  0  0  0  0  0  0
   -0.1210   -0.7060    0.4430 N   0  0  0  0  0  0  0  0  0  0  0  0
   -1.2170   -1.3520    0.0290 N   0  0  0  0  0  0  0  0  0  0  0  0
   -2.3660   -0.6890   -0.1610 C   0  0  0  0  0  0  0  0  0  0  0  0
   -3.4290   -1.2730   -0.5550 O   0  0  0  0  0  0  0  0  0  0  0  0
   -2.3850    0.6530    0.0770 C   0  0  0  0  0  0  0  0  0  0  0  0
   -3.4570    1.2980   -0.0960 O   0  0  0  0  0  0  0  0  0  0  0  0
   -1.2890    1.3400    0.4990 N   0  0  0  0  0  0  0  0  0  0  0  0
   -0.1700    0.6130    0.6690 C   0  0  0  0  0  0  0  0  0  0  0  0
    0.8540    1.2660    1.0650 O   0  0  0  0  0  0  0  0  0  0  0  0
  1  2  1  0
  2  3  2  0
  2  4  1  0
  4  5  1  0
  5  6  1  0
  5 12  1  0
  6  7  1  0
  7  8  2  0
  7  9  1  0
  9 10  2  0
  9 11  1  0
 11 12  1  0
 12 13  2  0
M  END
