
     RDKit          3D

 25 28  0  0  0  0  0  0  0  0999 V2000
   -3.3380   -1.8640    1.9030 C   0  0  0  0  0  0  0  0  0  0  0  0
   -4.0220   -1.0860    0.8790 C   0  0  0  0  0  0  0  0  0  0  0  0
   -5.3530   -1.4750    0.6490 F   0  0  0  0  0  0  0  0  0  0  0  0
   -3.6070   -0.0820    0.1530 C   0  0  0  0  0  0  0  0  0  0  0  0
   -4.5010    0.5520   -0.8340 C   0  0  0  0  0  0  0  0  0  0  0  0
   -5.6670    0.1200   -1.1090 N   0  0  0  0  0  0  0  0  0  0  0  0
   -4.0260    1.7380   -1.5890 C   0  0  0  0  0  0  0  0  0  0  0  0
   -2.8370    2.1740   -1.3530 C   0  0  0  0  0  0  0  0  0  0  0  0
   -1.9350    1.5670   -0.3890 C   0  0  0  0  0  0  0  0  0  0  0  0
   -2.2560    0.4890    0.3510 C   0  0  0  0  0  0  0  0  0  0  0  0
   -1.2640   -0.0900    1.2560 C   0  0  0  0  0  0  0  0  0  0  0  0
    0.1350    0.2280    0.9130 N   0  0  0  0  0  0  0  0  0  0  0  0
    0.5920   -0.5970   -0.1780 C   0  0  0  0  0  0  0  0  0  0  0  0
    1.9740   -0.2870   -0.5190 C   0  0  0  0  0  0  0  0  0  0  0  0
    3.0980   -0.8180   -0.0120 N   0  0  0  0  0  0  0  0  0  0  0  0
    4.1740   -0.2610   -0.5940 C   0  0  0  0  0  0  0  0  0  0  0  0
    5.5520   -0.5980   -0.2870 C   0  0  0  0  0  0  0  0  0  0  0  0
    5.9930   -1.5240    0.6300 C   0  0  0  0  0  0  0  0  0  0  0  0
    7.3740   -1.5190    0.5950 C   0  0  0  0  0  0  0  0  0  0  0  0
    7.7460   -0.6460   -0.2870 O   0  0  0  0  0  0  0  0  0  0  0  0
    6.7050   -0.0680   -0.8430 C   0  0  0  0  0  0  0  0  0  0  0  0
    3.6770    0.6250   -1.4690 N   0  0  0  0  0  0  0  0  0  0  0  0
    2.3790    0.5890   -1.4040 O   0  0  0  0  0  0  0  0  0  0  0  0
    0.3280    1.6310    0.7140 C   0  0  0  0  0  0  0  0  0  0  0  0
   -0.6560    2.1670   -0.1910 N   0  0  0  0  0  0  0  0  0  0  0  0
  1  2  1  0
  2  3  1  0
  2  4  2  3
  4  5  1  0
  4 10  1  0
  5  6  2  0
  5  7  1  0
  7  8  2  0
  8  9  1  0
  9 10  2  0
  9 25  1  0
 10 11  1  0
 11 12  1  0
 12 13  1  0
 12 24  1  0
 13 14  1  0
 14 15  2  0
 14 23  1  0
 15 16  1  0
 16 17  1  0
 16 22  2  0
 17 18  1  0
 17 21  2  0
 18 19  2  0
 19 20  1  0
 20 21  1  0
 22 23  1  0
 24 25  1  0
M  CHG  1   6   1
M  END
