
     RDKit          3D

 24 26  0  0  0  0  0  0  0  0999 V2000
    7.5340    0.7920   -1.6110 C   0  0  0  0  0  0  0  0  0  0  0  0
    7.4290    1.0650   -0.1450 C   0  0  0  0  0  0  0  0  0  0  0  0
    6.3040    0.3300    0.5190 C   0  0  0  0  0  0  0  0  0  0  0  0
    5.0460    0.6700   -0.0300 O   0  0  0  0  0  0  0  0  0  0  0  0
    3.9000    0.0850    0.4640 C   0  0  0  0  0  0  0  0  0  0  0  0
    2.6590    0.4030   -0.0580 C   0  0  0  0  0  0  0  0  0  0  0  0
    1.4810   -0.1770    0.4260 C   0  0  0  0  0  0  0  0  0  0  0  0
    0.2350    0.2170   -0.1830 C   0  0  0  0  0  0  0  0  0  0  0  0
    0.2250    1.0660   -1.1270 O   0  0  0  0  0  0  0  0  0  0  0  0
   -0.9730   -0.3440    0.2770 N   0  0  0  0  0  0  0  0  0  0  0  0
   -2.2220    0.0370   -0.3170 C   0  0  0  0  0  0  0  0  0  0  0  0
   -2.4020    1.2020   -1.6370 S   0  0  0  0  0  0  0  0  0  0  0  0
   -4.1760    1.0970   -1.7660 C   0  0  0  0  0  0  0  0  0  0  0  0
   -5.0350    1.8350   -2.7050 C   0  0  0  0  0  0  0  0  0  0  0  0
   -4.5030    0.1610   -0.7720 C   0  0  0  0  0  0  0  0  0  0  0  0
   -3.5030   -0.3510   -0.0640 C   0  0  0  0  0  0  0  0  0  0  0  0
   -3.8440   -1.3570    0.9970 C   0  0  0  0  0  0  0  0  0  0  0  0
   -3.0500   -2.2200    1.3760 O   0  0  0  0  0  0  0  0  0  0  0  0
   -5.1990   -1.2690    1.5800 C   0  0  0  0  0  0  0  0  0  0  0  0
   -6.1400   -1.3470    0.3920 C   0  0  0  0  0  0  0  0  0  0  0  0
   -5.9630   -0.2260   -0.5480 C   0  0  0  0  0  0  0  0  0  0  0  0
    1.6030   -1.0840    1.4500 C   0  0  0  0  0  0  0  0  0  0  0  0
    2.8600   -1.3830    1.9550 C   0  0  0  0  0  0  0  0  0  0  0  0
    3.9690   -0.8120    1.4710 N   0  0  0  0  0  0  0  0  0  0  0  0
  1  2  1  0
  2  3  1  0
  3  4  1  0
  4  5  1  0
  5  6  2  0
  5 24  1  0
  6  7  1  0
  7  8  1  0
  7 22  2  0
  8  9  2  0
  8 10  1  0
 10 11  1  0
 11 12  1  0
 11 16  2  0
 12 13  1  0
 13 14  1  0
 13 15  2  0
 15 16  1  0
 15 21  1  0
 16 17  1  0
 17 18  2  0
 17 19  1  0
 19 20  1  0
 20 21  1  0
 22 23  1  0
 23 24  2  0
M  END
