
     RDKit          3D

 24 26  0  0  0  0  0  0  0  0999 V2000
    4.3210    0.9110    2.9750 C   0  0  0  0  0  0  0  0  0  0  0  0
    4.5330    0.8270    1.6780 C   0  0  0  0  0  0  0  0  0  0  0  0
    3.5460    0.2030    0.8270 C   0  0  0  0  0  0  0  0  0  0  0  0
    3.7580    0.1190   -0.4650 C   0  0  0  0  0  0  0  0  0  0  0  0
    4.9970    0.6580   -1.0460 C   0  0  0  0  0  0  0  0  0  0  0  0
    2.3060   -0.3360    1.3960 C   0  0  0  0  0  0  0  0  0  0  0  0
    1.4520   -0.9260    0.3530 N   0  0  0  0  0  0  0  0  0  0  0  0
    1.5730   -2.2260    0.0370 C   0  0  0  0  0  0  0  0  0  0  0  0
    2.4240   -2.9040    0.6600 O   0  0  0  0  0  0  0  0  0  0  0  0
    0.8090   -2.7930   -0.9170 N   0  0  0  0  0  0  0  0  0  0  0  0
   -0.1040   -2.0880   -1.5940 C   0  0  0  0  0  0  0  0  0  0  0  0
   -0.2330   -0.7310   -1.2670 C   0  0  0  0  0  0  0  0  0  0  0  0
   -1.2250    0.0820   -1.9870 C   0  0  0  0  0  0  0  0  0  0  0  0
   -2.4600    0.3670   -1.2370 C   0  0  0  0  0  0  0  0  0  0  0  0
   -2.6540    1.5270   -0.5210 C   0  0  0  0  0  0  0  0  0  0  0  0
   -3.7980    1.8130    0.1860 C   0  0  0  0  0  0  0  0  0  0  0  0
   -4.8530    0.8940    0.2040 C   0  0  0  0  0  0  0  0  0  0  0  0
   -4.6720   -0.2660   -0.5040 C   0  0  0  0  0  0  0  0  0  0  0  0
   -3.5250   -0.5430   -1.2090 C   0  0  0  0  0  0  0  0  0  0  0  0
   -6.2210   -1.1740   -0.2250 S   0  0  0  0  0  0  0  0  0  0  0  0
   -6.6750   -0.1550    1.2490 C   0  0  0  0  0  0  0  0  0  0  0  0
   -6.0340    1.0320    0.8480 O   0  0  0  0  0  0  0  0  0  0  0  0
    0.5470   -0.1730   -0.2990 C   0  0  0  0  0  0  0  0  0  0  0  0
    0.4870    1.0520    0.0510 O   0  0  0  0  0  0  0  0  0  0  0  0
  1  2  2  0
  2  3  1  0
  3  4  2  3
  3  6  1  0
  4  5  1  0
  6  7  1  0
  7  8  1  0
  7 23  1  0
  8  9  2  0
  8 10  1  0
 10 11  1  0
 11 12  2  0
 12 13  1  0
 12 23  1  0
 13 14  1  0
 14 15  2  0
 14 19  1  0
 15 16  1  0
 16 17  2  0
 17 18  1  0
 17 22  1  0
 18 19  2  0
 18 20  1  0
 20 21  1  0
 21 22  1  0
 23 24  2  0
M  END
