
     RDKit          3D

 24 26  0  0  0  0  0  0  0  0999 V2000
   -5.8350   -0.3590   -1.3360 C   0  0  0  0  0  0  0  0  0  0  0  0
   -5.2010    0.2290   -0.3430 C   0  0  0  0  0  0  0  0  0  0  0  0
   -3.7980   -0.0460   -0.1240 C   0  0  0  0  0  0  0  0  0  0  0  0
   -3.1930    0.5660    0.8700 C   0  0  0  0  0  0  0  0  0  0  0  0
   -3.9310    1.5080    1.7380 C   0  0  0  0  0  0  0  0  0  0  0  0
   -3.0140   -1.0170   -0.9680 C   0  0  2  0  0  0  0  0  0  0  0  0
   -3.5760   -2.3570   -0.7610 C   0  0  0  0  0  0  0  0  0  0  0  0
   -2.4370   -3.0280    0.5200 S   0  0  0  0  0  0  0  0  0  0  0  0
   -1.1330   -1.8790    0.1050 C   0  0  0  0  0  0  0  0  0  0  0  0
    0.1410   -1.8980    0.4550 N   0  0  0  0  0  0  0  0  0  0  0  0
    1.0060   -0.9400    0.0420 C   0  0  0  0  0  0  0  0  0  0  0  0
    2.3220   -0.9370    0.3880 C   0  0  0  0  0  0  0  0  0  0  0  0
    2.8210   -2.0280    1.2510 C   0  0  0  0  0  0  0  0  0  0  0  0
    3.2380    0.0490   -0.0310 C   0  0  0  0  0  0  0  0  0  0  0  0
    4.5120   -0.0480    0.3670 O   0  0  0  0  0  0  0  0  0  0  0  0
    5.6600    0.6800    0.2030 C   0  0  0  0  0  0  0  0  0  0  0  0
    5.5870    2.0570    0.8080 C   0  0  0  0  0  0  0  0  0  0  0  0
    6.7910    2.7370    0.5990 O   0  0  0  0  0  0  0  0  0  0  0  0
    2.7250    1.0380   -0.8310 C   0  0  0  0  0  0  0  0  0  0  0  0
    1.3800    1.0620   -1.2020 C   0  0  0  0  0  0  0  0  0  0  0  0
    0.5160    0.0610   -0.7580 C   0  0  0  0  0  0  0  0  0  0  0  0
   -0.8050    0.0460   -1.0970 C   0  0  0  0  0  0  0  0  0  0  0  0
   -1.1880    0.9980   -1.8370 O   0  0  0  0  0  0  0  0  0  0  0  0
   -1.6320   -0.9220   -0.6680 N   0  0  0  0  0  0  0  0  0  0  0  0
  1  2  2  0
  2  3  1  0
  3  4  2  3
  6  3  1  1
  4  5  1  0
  6  7  1  0
  6 24  1  0
  7  8  1  0
  8  9  1  0
  9 10  2  0
  9 24  1  0
 10 11  1  0
 11 12  2  0
 11 21  1  0
 12 13  1  0
 12 14  1  0
 14 15  1  0
 14 19  2  0
 15 16  1  0
 16 17  1  0
 17 18  1  0
 19 20  1  0
 20 21  2  0
 21 22  1  0
 22 23  2  0
 22 24  1  0
M  END
