
     RDKit          3D

 16 17  0  0  0  0  0  0  0  0999 V2000
   -1.6000    2.4000   -1.1400 C   0  0  0  0  0  0  0  0  0  0  0  0
   -0.7430    1.3740   -0.6280 O   0  0  0  0  0  0  0  0  0  0  0  0
   -1.3230    0.1620   -0.2500 C   0  0  0  0  0  0  0  0  0  0  0  0
   -2.6900   -0.0400   -0.3690 C   0  0  0  0  0  0  0  0  0  0  0  0
   -3.2570   -1.2390    0.0050 C   0  0  0  0  0  0  0  0  0  0  0  0
   -2.4350   -2.2270    0.4980 C   0  0  0  0  0  0  0  0  0  0  0  0
   -1.0630   -2.0050    0.6110 C   0  0  0  0  0  0  0  0  0  0  0  0
   -0.4830   -0.8170    0.2420 C   0  0  0  0  0  0  0  0  0  0  0  0
    0.9480   -0.5460    0.3450 C   0  0  0  0  0  0  0  0  0  0  0  0
    1.8360   -1.4840    0.8280 C   0  0  0  0  0  0  0  0  0  0  0  0
    3.1960   -1.2020    0.9160 C   0  0  0  0  0  0  0  0  0  0  0  0
    4.3230   -2.3840    1.5270 Cl  0  0  0  0  0  0  0  0  0  0  0  0
    3.6490    0.0000    0.5240 N   0  0  0  0  0  0  0  0  0  0  0  0
    2.7890    0.9180    0.0520 C   0  0  0  0  0  0  0  0  0  0  0  0
    3.3290    2.1710   -0.3470 N   0  0  0  0  0  0  0  0  0  0  0  0
    1.4770    0.6350   -0.0290 N   0  0  0  0  0  0  0  0  0  0  0  0
  1  2  1  0
  2  3  1  0
  3  4  2  0
  3  8  1  0
  4  5  1  0
  5  6  2  0
  6  7  1  0
  7  8  2  0
  8  9  1  0
  9 10  2  0
  9 16  1  0
 10 11  1  0
 11 12  1  0
 11 13  2  0
 13 14  1  0
 14 15  1  0
 14 16  2  0
M  END
