
     RDKit          3D

 24 26  0  0  0  0  0  0  0  0999 V2000
    4.2780   -2.0220    1.9510 C   0  0  0  0  0  0  0  0  0  0  0  0
    4.6890   -0.8910    1.0800 C   0  0  0  0  0  0  0  0  0  0  0  0
    5.9840   -0.8390    0.6210 C   0  0  0  0  0  0  0  0  0  0  0  0
    6.3840    0.2070   -0.1890 C   0  0  0  0  0  0  0  0  0  0  0  0
    5.4490    1.1640   -0.5050 C   0  0  0  0  0  0  0  0  0  0  0  0
    4.1390    1.1150   -0.0440 C   0  0  0  0  0  0  0  0  0  0  0  0
    3.2210    2.2130   -0.4530 C   0  0  0  0  0  0  0  0  0  0  0  0
    3.7430    0.0880    0.7530 C   0  0  0  0  0  0  0  0  0  0  0  0
    2.1170   -0.0170    1.3640 S   0  0  1  0  0  0  0  0  0  0  0  0
    2.1430   -0.7350    2.7130 O   0  0  0  0  0  0  0  0  0  0  0  0
    1.5450    1.3390    1.6460 O   0  0  0  0  0  0  0  0  0  0  0  0
    1.0410   -0.8820    0.3840 N   0  0  0  0  0  0  0  0  0  0  0  0
   -0.0080   -0.0730   -0.2210 C   0  0  0  0  0  0  0  0  0  0  0  0
   -0.8780   -0.9410   -1.0460 C   0  0  0  0  0  0  0  0  0  0  0  0
   -1.9500   -0.1770   -1.7510 C   0  0  0  0  0  0  0  0  0  0  0  0
   -2.8600    0.5780   -0.9870 N   0  0  0  0  0  0  0  0  0  0  0  0
   -2.7240    1.8000   -0.2600 C   0  0  0  0  0  0  0  0  0  0  0  0
   -3.6030    1.6190    0.9720 C   0  0  0  0  0  0  0  0  0  0  0  0
   -4.7410    0.7720    0.4610 C   0  0  0  0  0  0  0  0  0  0  0  0
   -5.9580    0.5690    0.9280 C   0  0  0  0  0  0  0  0  0  0  0  0
   -6.7870   -0.2790    0.2250 O   0  0  0  0  0  0  0  0  0  0  0  0
   -6.4540   -0.8990   -0.9910 C   0  0  0  0  0  0  0  0  0  0  0  0
   -5.0690   -0.6330   -1.4320 C   0  0  0  0  0  0  0  0  0  0  0  0
   -4.2430    0.1560   -0.7730 C   0  0  0  0  0  0  0  0  0  0  0  0
  1  2  1  0
  2  3  2  0
  2  8  1  0
  3  4  1  0
  4  5  2  0
  5  6  1  0
  6  7  1  0
  6  8  2  0
  8  9  1  0
  9 10  2  0
  9 11  2  0
  9 12  1  6
 12 13  1  0
 13 14  1  0
 14 15  1  0
 15 16  1  0
 16 17  1  0
 16 24  1  0
 17 18  1  0
 18 19  1  0
 19 20  2  0
 19 24  1  0
 20 21  1  0
 21 22  1  0
 22 23  1  0
 23 24  2  0
M  END
