
     RDKit          3D

 27 28  0  0  0  0  0  0  0  0999 V2000
   -7.1370   -0.1970   -2.0230 C   0  0  0  0  0  0  0  0  0  0  0  0
   -6.1090    0.3110   -1.1590 O   0  0  0  0  0  0  0  0  0  0  0  0
   -6.1260    0.0020    0.1730 C   0  0  0  0  0  0  0  0  0  0  0  0
   -4.9970   -0.2590    0.8060 C   0  0  0  0  0  0  0  0  0  0  0  0
   -5.0040   -0.5930    2.2470 C   0  0  0  0  0  0  0  0  0  0  0  0
   -3.8970   -0.8600    2.9140 C   0  0  0  0  0  0  0  0  0  0  0  0
   -2.6090   -0.8340    2.2450 C   0  0  0  0  0  0  0  0  0  0  0  0
   -1.5230   -1.0970    2.9030 N   0  0  0  0  0  0  0  0  0  0  0  0
   -0.2720   -1.0520    2.1710 C   0  0  0  0  0  0  0  0  0  0  0  0
    0.3430   -2.1190    1.9600 O   0  0  0  0  0  0  0  0  0  0  0  0
    0.2370    0.1750    1.7080 N   0  0  0  0  0  0  0  0  0  0  0  0
    1.4530    0.3550    0.9810 C   0  0  0  0  0  0  0  0  0  0  0  0
    2.3690   -0.6030    0.6980 C   0  0  0  0  0  0  0  0  0  0  0  0
    3.5380   -0.3730   -0.0240 C   0  0  0  0  0  0  0  0  0  0  0  0
    3.8030    0.8800   -0.4860 C   0  0  0  0  0  0  0  0  0  0  0  0
    4.9410    1.2420   -1.2230 N   0  0  0  0  0  0  0  0  0  0  0  0
    6.0090    0.4030   -1.6220 C   0  0  0  0  0  0  0  0  0  0  0  0
    5.9930   -0.8010   -1.3140 O   0  0  0  0  0  0  0  0  0  0  0  0
    7.1480    0.9360   -2.4020 C   0  0  0  0  0  0  0  0  0  0  0  0
    8.0800    0.1250   -2.7310 N   0  0  0  0  0  0  0  0  0  0  0  0
    9.1710    0.5370   -3.4540 O   0  0  0  0  0  0  0  0  0  0  0  0
    8.0080   -1.1910   -2.3630 O   0  0  0  0  0  0  0  0  0  0  0  0
    2.8890    1.9100   -0.2220 C   0  0  0  0  0  0  0  0  0  0  0  0
    3.1350    3.1880   -0.6790 F   0  0  0  0  0  0  0  0  0  0  0  0
    1.7570    1.6330    0.4910 C   0  0  0  0  0  0  0  0  0  0  0  0
   -2.5960   -0.5040    0.8220 C   0  0  0  0  0  0  0  0  0  0  0  0
   -3.7010   -0.2370    0.1530 C   0  0  0  0  0  0  0  0  0  0  0  0
  1  2  1  0
  2  3  1  0
  3  4  2  3
  4  5  1  0
  4 27  1  0
  5  6  2  0
  6  7  1  0
  7  8  2  3
  7 26  1  0
  8  9  1  0
  9 10  2  0
  9 11  1  0
 11 12  1  0
 12 13  2  0
 12 25  1  0
 13 14  1  0
 14 15  2  0
 15 16  1  0
 15 23  1  0
 16 17  1  0
 17 18  2  0
 17 19  1  0
 19 20  2  3
 20 21  1  0
 20 22  1  0
 23 24  1  0
 23 25  2  0
 26 27  2  0
M  CHG  3  20   1  21  -1  22  -1
M  END
