
     RDKit          3D

 27 31  0  0  0  0  0  0  0  0999 V2000
    5.7250    2.4150   -0.1640 C   0  0  0  0  0  0  0  0  0  0  0  0
    4.4010    2.5260   -0.9310 C   0  0  0  0  0  0  0  0  0  0  0  0
    3.3490    1.9120   -0.1210 N   0  0  0  0  0  0  0  0  0  0  0  0
    2.5790    2.4860    0.7820 N   0  0  0  0  0  0  0  0  0  0  0  0
    1.7350    1.5860    1.3100 C   0  0  0  0  0  0  0  0  0  0  0  0
    0.7770    1.9010    2.3130 N   0  0  0  0  0  0  0  0  0  0  0  0
    2.0000    0.3900    0.6960 C   0  0  0  0  0  0  0  0  0  0  0  0
    3.0060    0.6120   -0.1890 C   0  0  0  0  0  0  0  0  0  0  0  0
    3.4970   -0.4560   -0.9790 N   0  0  0  0  0  0  0  0  0  0  0  0
    2.9230   -1.7320   -0.8220 C   0  0  0  0  0  0  0  0  0  0  0  0
    3.2390   -2.8830   -1.4690 N   0  0  0  0  0  0  0  0  0  0  0  0
    2.4410   -3.8180   -0.9960 N   0  0  0  0  0  0  0  0  0  0  0  0
    1.6110   -3.3240   -0.0610 C   0  0  0  0  0  0  0  0  0  0  0  0
    0.6370   -4.0630    0.6380 O   0  0  0  0  0  0  0  0  0  0  0  0
    1.9020   -1.9850    0.0690 C   0  0  0  0  0  0  0  0  0  0  0  0
    1.3460   -0.9320    0.9160 C   0  0  2  0  0  0  0  0  0  0  0  0
   -0.1260   -0.7720    0.7500 C   0  0  0  0  0  0  0  0  0  0  0  0
   -1.0090   -1.4860    1.5340 C   0  0  0  0  0  0  0  0  0  0  0  0
   -2.3730   -1.3360    1.3780 C   0  0  0  0  0  0  0  0  0  0  0  0
   -2.9190   -0.4780    0.4460 C   0  0  0  0  0  0  0  0  0  0  0  0
   -4.3950   -0.3260    0.2880 C   0  0  1  0  0  0  0  0  0  0  0  0
   -4.7970    1.1010    0.4620 C   0  0  0  0  0  0  0  0  0  0  0  0
   -6.0830    1.1580   -0.3250 C   0  0  0  0  0  0  0  0  0  0  0  0
   -6.0880    0.1700   -1.2100 C   0  0  0  0  0  0  0  0  0  0  0  0
   -4.8450   -0.6390   -1.1220 C   0  0  0  0  0  0  0  0  0  0  0  0
   -2.0390    0.2360   -0.3380 C   0  0  0  0  0  0  0  0  0  0  0  0
   -0.6710    0.0860   -0.1820 C   0  0  0  0  0  0  0  0  0  0  0  0
  1  2  1  0
  2  3  1  0
  3  4  1  0
  3  8  1  0
  4  5  2  0
  5  6  1  0
  5  7  1  0
  7  8  2  0
  7 16  1  0
  8  9  1  0
  9 10  1  0
 10 11  1  0
 10 15  2  0
 11 12  1  0
 12 13  2  0
 13 14  1  0
 13 15  1  0
 15 16  1  0
 16 17  1  6
 17 18  2  0
 17 27  1  0
 18 19  1  0
 19 20  2  0
 21 20  1  6
 20 26  1  0
 21 22  1  0
 21 25  1  0
 22 23  1  0
 23 24  2  0
 24 25  1  0
 26 27  2  0
M  END
