
     RDKit          3D

 27 30  0  0  0  0  0  0  0  0999 V2000
   -4.9650   -0.4100   -0.8800 C   0  0  0  0  0  0  0  0  0  0  0  0
   -3.5200   -0.6650   -0.6700 C   0  0  0  0  0  0  0  0  0  0  0  0
   -2.9940   -1.8750   -1.0380 C   0  0  0  0  0  0  0  0  0  0  0  0
   -1.6510   -2.0970   -0.8570 C   0  0  0  0  0  0  0  0  0  0  0  0
   -0.9140   -3.1870   -1.1210 N   0  0  0  0  0  0  0  0  0  0  0  0
    0.3000   -2.9070   -0.7580 N   0  0  0  0  0  0  0  0  0  0  0  0
    0.3910   -1.6370   -0.2510 C   0  0  0  0  0  0  0  0  0  0  0  0
    1.5780   -0.9940    0.2920 C   0  0  0  0  0  0  0  0  0  0  0  0
    2.1040    0.0920   -0.3750 C   0  0  0  0  0  0  0  0  0  0  0  0
    3.2660    0.7270    0.0570 C   0  0  0  0  0  0  0  0  0  0  0  0
    3.7950    1.8160   -0.6160 C   0  0  0  0  0  0  0  0  0  0  0  0
    4.9680    2.4220   -0.1400 C   0  0  0  0  0  0  0  0  0  0  0  0
    5.5560    1.8950    1.0010 C   0  0  0  0  0  0  0  0  0  0  0  0
    6.6030    2.4160    1.4470 O   0  0  0  0  0  0  0  0  0  0  0  0
    5.0330    0.8840    1.5970 O   0  0  0  0  0  0  0  0  0  0  0  0
    3.9310    0.2890    1.1750 C   0  0  0  0  0  0  0  0  0  0  0  0
    3.3960   -0.8080    1.8470 C   0  0  0  0  0  0  0  0  0  0  0  0
    2.2350   -1.4450    1.4160 C   0  0  0  0  0  0  0  0  0  0  0  0
    1.7900   -2.5450    2.1830 N   0  0  0  0  0  0  0  0  0  0  0  0
    2.0800   -2.6050    3.3920 O   0  0  0  0  0  0  0  0  0  0  0  0
    1.0640   -3.5290    1.6140 O   0  0  0  0  0  0  0  0  0  0  0  0
   -0.8780   -1.0910   -0.3110 C   0  0  0  0  0  0  0  0  0  0  0  0
   -1.4190    0.1510    0.0640 C   0  0  0  0  0  0  0  0  0  0  0  0
   -2.7630    0.3730   -0.1160 C   0  0  0  0  0  0  0  0  0  0  0  0
   -3.4430    1.6080    0.2600 C   0  0  0  0  0  0  0  0  0  0  0  0
   -2.6460    2.6590    0.7910 N   0  0  0  0  0  0  0  0  0  0  0  0
   -2.4510    3.6590   -0.1400 O   0  0  0  0  0  0  0  0  0  0  0  0
  1  2  1  0
  2  3  2  0
  2 24  1  0
  3  4  1  0
  4  5  1  0
  4 22  2  0
  5  6  1  0
  6  7  2  0
  7  8  1  0
  7 22  1  0
  8  9  2  0
  8 18  1  0
  9 10  1  0
 10 11  1  0
 10 16  2  0
 11 12  2  0
 12 13  1  0
 13 14  2  0
 13 15  1  0
 15 16  1  0
 16 17  1  0
 17 18  2  0
 18 19  1  0
 19 20  2  0
 19 21  1  0
 22 23  1  0
 23 24  2  0
 24 25  1  0
 25 26  1  0
 26 27  1  0
M  CHG  4  19   1  21  -1  26   1  27  -1
M  END
