
     RDKit          3D

 23 24  0  0  0  0  0  0  0  0999 V2000
   -3.6740    2.6110    1.5130 C   0  0  0  0  0  0  0  0  0  0  0  0
   -3.3150    1.3920    0.7440 C   0  0  0  0  0  0  0  0  0  0  0  0
   -2.2970    0.5790    1.1990 C   0  0  0  0  0  0  0  0  0  0  0  0
   -1.9970   -0.5420    0.4550 C   0  0  0  0  0  0  0  0  0  0  0  0
   -0.9550   -1.4800    0.8160 C   0  0  0  0  0  0  0  0  0  0  0  0
   -1.1690   -2.5780    1.6130 C   0  0  0  0  0  0  0  0  0  0  0  0
   -2.8030   -2.8470    2.2240 Cl  0  0  0  0  0  0  0  0  0  0  0  0
   -0.1330   -3.4330    1.9190 C   0  0  0  0  0  0  0  0  0  0  0  0
    1.1440   -3.2370    1.4500 C   0  0  0  0  0  0  0  0  0  0  0  0
    1.3640   -2.1220    0.6390 C   0  0  0  0  0  0  0  0  0  0  0  0
    0.3410   -1.2520    0.3210 C   0  0  0  0  0  0  0  0  0  0  0  0
    0.4840   -0.1470   -0.4670 O   0  0  0  0  0  0  0  0  0  0  0  0
    1.6450    0.3140   -1.0510 C   0  0  0  0  0  0  0  0  0  0  0  0
    2.7360    0.7770   -0.1450 C   0  0  0  0  0  0  0  0  0  0  0  0
    3.9080    1.2140   -1.0360 C   0  0  0  0  0  0  0  0  0  0  0  0
    5.0660    1.7010   -0.1950 C   0  0  1  0  0  0  0  0  0  0  0  0
    5.4590    0.6550    0.6180 F   0  0  0  0  0  0  0  0  0  0  0  0
    6.1040    1.9790   -1.0510 F   0  0  0  0  0  0  0  0  0  0  0  0
    4.7200    2.7700    0.5910 F   0  0  0  0  0  0  0  0  0  0  0  0
   -2.7030   -0.7790   -0.6590 N   0  0  0  0  0  0  0  0  0  0  0  0
   -3.6930    0.0260   -1.0880 C   0  0  0  0  0  0  0  0  0  0  0  0
   -4.4160   -0.2770   -2.2880 N   0  0  0  0  0  0  0  0  0  0  0  0
   -4.0050    1.1310   -0.3740 N   0  0  0  0  0  0  0  0  0  0  0  0
  1  2  1  0
  2  3  2  0
  2 23  1  0
  3  4  1  0
  4  5  1  0
  4 20  2  0
  5  6  2  0
  5 11  1  0
  6  7  1  0
  6  8  1  0
  8  9  2  0
  9 10  1  0
 10 11  2  0
 11 12  1  0
 12 13  1  0
 13 14  1  0
 14 15  1  0
 15 16  1  0
 16 17  1  1
 16 18  1  0
 16 19  1  0
 20 21  1  0
 21 22  1  0
 21 23  2  0
M  END
