
     RDKit          3D

 34 35  0  0  0  0  0  0  0  0999 V2000
   -6.8560    0.0090   -0.3150 C   0  0  0  0  0  0  0  0  0  0  0  0
   -6.9780    1.8010   -0.6000 S   0  0  0  0  0  0  0  0  0  0  0  0
   -5.7090    2.6610    0.3770 C   0  0  0  0  0  0  0  0  0  0  0  0
   -4.3510    2.3000   -0.1330 C   0  0  0  0  0  0  0  0  0  0  0  0
   -3.2820    3.0180    0.6800 C   0  0  1  0  0  0  0  0  0  0  0  0
   -3.3620    2.6620    2.0140 O   0  0  0  0  0  0  0  0  0  0  0  0
   -1.9070    2.7700    0.1010 C   0  0  0  0  0  0  0  0  0  0  0  0
   -1.5560    1.3530    0.1970 N   0  0  0  0  0  0  0  0  0  0  0  0
   -0.3070    0.8830   -0.2860 C   0  0  0  0  0  0  0  0  0  0  0  0
    0.4450    1.7790   -0.7920 O   0  0  0  0  0  0  0  0  0  0  0  0
    0.0970   -0.4740   -0.2240 N   0  0  0  0  0  0  0  0  0  0  0  0
   -0.7220   -1.4790    0.3330 C   0  0  0  0  0  0  0  0  0  0  0  0
   -0.3730   -2.7450    0.3890 C   0  0  0  0  0  0  0  0  0  0  0  0
   -1.3510   -3.6210    0.9970 C   0  0  0  0  0  0  0  0  0  0  0  0
   -2.4360   -3.0710    1.3020 O   0  0  0  0  0  0  0  0  0  0  0  0
   -1.2430   -5.0100    1.2920 N   0  0  0  0  0  0  0  0  0  0  0  0
   -0.1080   -5.8640    1.0040 C   0  0  0  0  0  0  0  0  0  0  0  0
    0.4200   -5.4900   -0.3780 C   0  0  0  0  0  0  0  0  0  0  0  0
    1.5560   -4.5060   -0.2010 C   0  0  0  0  0  0  0  0  0  0  0  0
    0.9320   -3.1360   -0.1470 C   0  0  0  0  0  0  0  0  0  0  0  0
    1.7300   -2.2420   -0.6700 C   0  0  0  0  0  0  0  0  0  0  0  0
    2.9700   -2.7100   -1.1640 O   0  0  0  0  0  0  0  0  0  0  0  0
    1.3880   -0.8110   -0.7560 C   0  0  2  0  0  0  0  0  0  0  0  0
    2.4820   -0.0830   -0.0280 C   0  0  0  0  0  0  0  0  0  0  0  0
    2.1290    0.6760    0.9030 O   0  0  0  0  0  0  0  0  0  0  0  0
    3.8090   -0.2070   -0.3250 O   0  0  0  0  0  0  0  0  0  0  0  0
    4.8550    0.4580    0.3340 C   0  0  0  0  0  0  0  0  0  0  0  0
    4.7240    1.9360    0.2350 C   0  0  0  0  0  0  0  0  0  0  0  0
    3.7470    2.3880   -0.3910 O   0  0  0  0  0  0  0  0  0  0  0  0
    5.6140    2.8150    0.7900 O   0  0  0  0  0  0  0  0  0  0  0  0
    5.4660    4.1960    0.6800 C   0  0  0  0  0  0  0  0  0  0  0  0
    5.4610    4.6910   -0.6980 C   0  0  0  0  0  0  0  0  0  0  0  0
    5.5810    3.8950   -1.6580 O   0  0  0  0  0  0  0  0  0  0  0  0
    5.3250    6.0370   -0.9770 O   0  0  0  0  0  0  0  0  0  0  0  0
  1  2  1  0
  2  3  1  0
  3  4  1  0
  4  5  1  0
  5  6  1  1
  5  7  1  0
  7  8  1  0
  8  9  1  0
  9 10  2  0
  9 11  1  0
 11 12  1  0
 11 23  1  0
 12 13  2  0
 13 14  1  0
 13 20  1  0
 14 15  2  0
 14 16  1  0
 16 17  1  0
 17 18  1  0
 18 19  1  0
 19 20  1  0
 20 21  2  0
 21 22  1  0
 21 23  1  0
 23 24  1  1
 24 25  2  0
 24 26  1  0
 26 27  1  0
 27 28  1  0
 28 29  2  0
 28 30  1  0
 30 31  1  0
 31 32  1  0
 32 33  2  0
 32 34  1  0
M  END
