
     RDKit          3D

 34 35  0  0  0  0  0  0  0  0999 V2000
    4.5920    1.1490   -2.4750 C   0  0  0  0  0  0  0  0  0  0  0  0
    5.1890   -0.1800   -2.1180 C   0  0  0  0  0  0  0  0  0  0  0  0
    4.2050   -1.2250   -1.7240 C   0  0  0  0  0  0  0  0  0  0  0  0
    3.3760   -0.8440   -0.5150 C   0  0  2  0  0  0  0  0  0  0  0  0
    2.6870    0.3150   -0.8510 O   0  0  0  0  0  0  0  0  0  0  0  0
    1.3380    0.4770   -0.8070 C   0  0  0  0  0  0  0  0  0  0  0  0
    0.7510    1.6920   -1.1960 C   0  0  0  0  0  0  0  0  0  0  0  0
   -0.6120    1.8760   -1.1570 C   0  0  0  0  0  0  0  0  0  0  0  0
   -1.1780    3.1100   -1.5510 N   0  0  0  0  0  0  0  0  0  0  0  0
   -2.3820    3.8510   -0.5690 S   0  0  2  0  0  0  0  0  0  0  0  0
   -3.5630    2.9600   -0.4620 O   0  0  0  0  0  0  0  0  0  0  0  0
   -2.7680    5.1830   -1.1860 O   0  0  0  0  0  0  0  0  0  0  0  0
   -1.6700    4.2060    1.0410 C   0  0  0  0  0  0  0  0  0  0  0  0
   -2.7600    4.8570    1.8860 C   0  0  0  0  0  0  0  0  0  0  0  0
   -3.8030    3.9210    1.9670 O   0  0  0  0  0  0  0  0  0  0  0  0
   -1.4150    0.8560   -0.7310 C   0  0  0  0  0  0  0  0  0  0  0  0
   -0.8880   -0.3670   -0.3340 C   0  0  0  0  0  0  0  0  0  0  0  0
   -1.7220   -1.4280    0.1170 N   0  0  0  0  0  0  0  0  0  0  0  0
   -2.5480   -1.4400    1.3050 C   0  0  0  0  0  0  0  0  0  0  0  0
   -2.8190   -0.4270    1.9630 O   0  0  0  0  0  0  0  0  0  0  0  0
   -2.9530   -2.8800    1.5100 C   0  0  0  0  0  0  0  0  0  0  0  0
   -3.1450   -3.2980    0.0770 C   0  0  1  0  0  0  0  0  0  0  0  0
   -4.3160   -2.6300   -0.5320 C   0  0  0  0  0  0  0  0  0  0  0  0
   -5.6560   -2.8760    0.0840 C   0  0  0  0  0  0  0  0  0  0  0  0
   -5.7930   -2.4670    1.3890 O   0  0  0  0  0  0  0  0  0  0  0  0
   -1.8920   -2.6820   -0.5280 C   0  0  0  0  0  0  0  0  0  0  0  0
   -1.1790   -3.2030   -1.4150 O   0  0  0  0  0  0  0  0  0  0  0  0
    0.4950   -0.5020   -0.3920 C   0  0  0  0  0  0  0  0  0  0  0  0
    4.2260   -0.6770    0.6930 C   0  0  0  0  0  0  0  0  0  0  0  0
    4.2430    0.4310    1.2610 O   0  0  0  0  0  0  0  0  0  0  0  0
    5.0020   -1.7390    1.2000 N   0  0  0  0  0  0  0  0  0  0  0  0
    5.8130   -1.5570    2.3720 C   0  0  0  0  0  0  0  0  0  0  0  0
    5.8090   -0.4090    2.9320 O   0  0  0  0  0  0  0  0  0  0  0  0
    6.5920   -2.5380    2.9260 O   0  0  0  0  0  0  0  0  0  0  0  0
  1  2  1  0
  2  3  1  0
  4  3  1  6
  4  5  1  0
  4 29  1  0
  5  6  1  0
  6  7  2  0
  6 28  1  0
  7  8  1  0
  8  9  1  0
  8 16  2  0
  9 10  1  0
 10 11  2  0
 10 12  2  0
 10 13  1  1
 13 14  1  0
 14 15  1  0
 16 17  1  0
 17 18  1  0
 17 28  2  0
 18 19  1  0
 18 26  1  0
 19 20  2  0
 19 21  1  0
 21 22  1  0
 22 23  1  6
 22 26  1  0
 23 24  1  0
 24 25  1  0
 26 27  2  0
 29 30  2  0
 29 31  1  0
 31 32  1  0
 32 33  2  0
 32 34  1  0
M  END
