
     RDKit          3D

 34 34  0  0  0  0  0  0  0  0999 V2000
   -5.0910    6.4140   -1.1360 C   0  0  0  0  0  0  0  0  0  0  0  0
   -4.6290    5.0920   -1.1730 O   0  0  0  0  0  0  0  0  0  0  0  0
   -5.4820    4.3460   -0.3660 C   0  0  0  0  0  0  0  0  0  0  0  0
   -5.0280    2.9340   -0.3790 C   0  0  0  0  0  0  0  0  0  0  0  0
   -5.6280    2.0410    0.2710 O   0  0  0  0  0  0  0  0  0  0  0  0
   -3.9180    2.5710   -1.1180 O   0  0  0  0  0  0  0  0  0  0  0  0
   -3.5380    1.2160   -1.0890 N   0  0  0  0  0  0  0  0  0  0  0  0
   -2.4030    0.8650   -0.3700 C   0  0  0  0  0  0  0  0  0  0  0  0
   -1.8050    1.8530    0.2110 O   0  0  0  0  0  0  0  0  0  0  0  0
   -1.8810   -0.4620   -0.2290 C   0  0  0  0  0  0  0  0  0  0  0  0
   -2.4420   -1.5180   -0.7530 C   0  0  0  0  0  0  0  0  0  0  0  0
   -3.6110   -1.5040   -1.5150 N   0  0  0  0  0  0  0  0  0  0  0  0
   -1.8960   -2.8480   -0.5520 N   0  0  0  0  0  0  0  0  0  0  0  0
   -2.6080   -3.8420    0.2100 C   0  0  0  0  0  0  0  0  0  0  0  0
   -1.8030   -5.0890    0.2500 C   0  0  0  0  0  0  0  0  0  0  0  0
   -0.6800   -5.1640   -0.3220 O   0  0  0  0  0  0  0  0  0  0  0  0
   -2.3340   -6.1890    0.9490 O   0  0  0  0  0  0  0  0  0  0  0  0
   -1.5560   -7.3850    0.9830 C   0  0  0  0  0  0  0  0  0  0  0  0
   -0.5800   -0.6330    0.5210 C   0  0  1  0  0  0  0  0  0  0  0  0
   -0.6090   -1.8180    1.2060 O   0  0  0  0  0  0  0  0  0  0  0  0
    0.6550   -0.2170   -0.1330 C   0  0  1  0  0  0  0  0  0  0  0  0
    1.2090   -1.3190   -1.0740 C   0  0  0  0  0  0  0  0  0  0  0  0
    0.5450    0.9940   -1.0100 C   0  0  0  0  0  0  0  0  0  0  0  0
    1.6670    0.0390    0.8410 O   0  0  0  0  0  0  0  0  0  0  0  0
    2.2240   -0.8240    1.7110 C   0  0  0  0  0  0  0  0  0  0  0  0
    1.8410   -2.0310    1.6840 O   0  0  0  0  0  0  0  0  0  0  0  0
    3.2540   -0.4380    2.7010 C   0  0  0  0  0  0  0  0  0  0  0  0
    3.7400    1.2500    2.5140 S   0  0  0  0  0  0  0  0  0  0  0  0
    4.7340    1.6430    1.1100 C   0  0  2  0  0  0  0  0  0  0  0  0
    4.1030    1.4870   -0.2440 C   0  0  0  0  0  0  0  0  0  0  0  0
    5.1040    1.9890   -1.2940 C   0  0  0  0  0  0  0  0  0  0  0  0
    6.2560    2.4560   -0.6610 O   0  0  0  0  0  0  0  0  0  0  0  0
    6.9210    1.5110    0.0790 C   0  0  0  0  0  0  0  0  0  0  0  0
    6.0160    0.8030    1.0650 C   0  0  0  0  0  0  0  0  0  0  0  0
  1  2  1  0
  2  3  1  0
  3  4  1  0
  4  5  2  0
  4  6  1  0
  6  7  1  0
  7  8  1  0
  8  9  2  0
  8 10  1  0
 10 11  2  3
 10 19  1  0
 11 12  1  0
 11 13  1  0
 13 14  1  0
 14 15  1  0
 15 16  2  0
 15 17  1  0
 17 18  1  0
 19 20  1  6
 19 21  1  0
 21 22  1  6
 21 23  1  0
 21 24  1  0
 24 25  1  0
 25 26  2  0
 25 27  1  0
 27 28  1  0
 29 28  1  1
 29 30  1  0
 29 34  1  0
 30 31  1  0
 31 32  1  0
 32 33  1  0
 33 34  1  0
M  END
