
     RDKit          3D

 34 35  0  0  0  0  0  0  0  0999 V2000
    6.7380   -1.8810   -0.7190 C   0  0  0  0  0  0  0  0  0  0  0  0
    6.7040   -0.4510   -0.6210 O   0  0  0  0  0  0  0  0  0  0  0  0
    6.1170    0.3220   -1.6480 C   0  0  0  0  0  0  0  0  0  0  0  0
    5.6410   -0.3300   -2.6000 O   0  0  0  0  0  0  0  0  0  0  0  0
    6.0740    1.7670   -1.6040 C   0  0  0  0  0  0  0  0  0  0  0  0
    5.2820    2.4330   -0.5570 C   0  0  0  0  0  0  0  0  0  0  0  0
    3.5500    2.1990   -0.5150 S   0  0  0  0  0  0  0  0  0  0  0  0
    2.8640    0.6750    0.0240 C   0  0  2  0  0  0  0  0  0  0  0  0
    1.3540    0.8570    0.1150 C   0  0  0  0  0  0  0  0  0  0  0  0
    0.8870    1.9700   -0.1640 O   0  0  0  0  0  0  0  0  0  0  0  0
    0.5110   -0.1980    0.4990 N   0  0  0  0  0  0  0  0  0  0  0  0
   -0.9170    0.0560    0.5600 C   0  0  0  0  0  0  0  0  0  0  0  0
   -1.6970   -0.6050   -0.2330 C   0  0  0  0  0  0  0  0  0  0  0  0
   -3.1240   -0.5680   -0.3910 C   0  0  0  0  0  0  0  0  0  0  0  0
   -3.8820    0.1590    0.2930 O   0  0  0  0  0  0  0  0  0  0  0  0
   -3.7640   -1.3920   -1.3750 N   0  0  0  0  0  0  0  0  0  0  0  0
   -5.2250   -1.3270   -1.5240 C   0  0  1  0  0  0  0  0  0  0  0  0
   -5.9130   -2.0630   -0.4400 C   0  0  0  0  0  0  0  0  0  0  0  0
   -7.3890   -2.0880   -0.5190 C   0  0  0  0  0  0  0  0  0  0  0  0
   -8.0730   -1.6210   -1.4520 O   0  0  0  0  0  0  0  0  0  0  0  0
   -8.1530   -2.6790    0.5170 O   0  0  0  0  0  0  0  0  0  0  0  0
   -5.5430    0.1100   -1.6450 C   0  0  0  0  0  0  0  0  0  0  0  0
   -6.8270    0.6600   -1.4250 N   0  0  0  0  0  0  0  0  0  0  0  0
   -4.6390    0.9240   -1.9570 O   0  0  0  0  0  0  0  0  0  0  0  0
   -1.3450    1.0600    1.5030 C   0  0  0  0  0  0  0  0  0  0  0  0
   -0.5110    1.7410    2.4060 C   0  0  0  0  0  0  0  0  0  0  0  0
   -1.2610    2.6270    3.1450 C   0  0  0  0  0  0  0  0  0  0  0  0
   -2.5400    2.4640    2.6720 C   0  0  0  0  0  0  0  0  0  0  0  0
   -2.5410    1.5540    1.7310 O   0  0  0  0  0  0  0  0  0  0  0  0
    3.3870    0.2230    1.3790 C   0  0  0  0  0  0  0  0  0  0  0  0
    3.6310   -1.2390    1.1860 C   0  0  0  0  0  0  0  0  0  0  0  0
    3.6010   -1.5150   -0.1940 O   0  0  0  0  0  0  0  0  0  0  0  0
    3.0160   -0.4910   -0.8810 C   0  0  0  0  0  0  0  0  0  0  0  0
    2.6520   -0.4990   -2.0770 O   0  0  0  0  0  0  0  0  0  0  0  0
  1  2  1  0
  2  3  1  0
  3  4  2  0
  3  5  1  0
  5  6  1  0
  6  7  1  0
  8  7  1  6
  8  9  1  0
  8 30  1  0
  8 33  1  0
  9 10  2  0
  9 11  1  0
 11 12  1  0
 12 13  2  3
 12 25  1  0
 13 14  1  0
 14 15  2  0
 14 16  1  0
 16 17  1  0
 17 18  1  1
 17 22  1  0
 18 19  1  0
 19 20  2  0
 19 21  1  0
 22 23  1  0
 22 24  2  0
 25 26  2  0
 25 29  1  0
 26 27  1  0
 27 28  2  0
 28 29  1  0
 30 31  1  0
 31 32  1  0
 32 33  1  0
 33 34  2  0
M  END
