
     RDKit          3D

 34 35  0  0  0  0  0  0  0  0999 V2000
    6.0120   -0.6760    3.7170 N   0  0  0  0  0  0  0  0  0  0  0  0
    7.0810   -1.5470    3.4350 C   0  0  0  0  0  0  0  0  0  0  0  0
    7.5290   -2.2450    4.4030 O   0  0  0  0  0  0  0  0  0  0  0  0
    7.6730   -1.6590    2.0730 C   0  0  0  0  0  0  0  0  0  0  0  0
    6.9720   -0.7810    1.2480 O   0  0  0  0  0  0  0  0  0  0  0  0
    7.1870   -0.5430   -0.0840 C   0  0  0  0  0  0  0  0  0  0  0  0
    8.1080   -1.1670   -0.6720 O   0  0  0  0  0  0  0  0  0  0  0  0
    6.3370    0.4320   -0.7770 C   0  0  0  0  0  0  0  0  0  0  0  0
    6.3820    0.8300   -2.0870 C   0  0  0  0  0  0  0  0  0  0  0  0
    5.3680    1.7750   -2.2570 C   0  0  0  0  0  0  0  0  0  0  0  0
    4.7630    1.9000   -1.0460 C   0  0  0  0  0  0  0  0  0  0  0  0
    3.6330    2.7660   -0.6640 C   0  0  0  0  0  0  0  0  0  0  0  0
    2.0180    2.1010   -0.9790 S   0  0  0  0  0  0  0  0  0  0  0  0
    1.5450    0.6510   -0.0750 C   0  0  2  0  0  0  0  0  0  0  0  0
    2.2790   -0.6050   -0.3850 C   0  0  0  0  0  0  0  0  0  0  0  0
    2.1120   -0.9880   -1.8420 C   0  0  0  0  0  0  0  0  0  0  0  0
    2.7980   -2.1650   -2.1400 O   0  0  0  0  0  0  0  0  0  0  0  0
    0.0770    0.4130   -0.3220 C   0  0  0  0  0  0  0  0  0  0  0  0
   -0.6290    1.3880   -0.7310 O   0  0  0  0  0  0  0  0  0  0  0  0
   -0.5080   -0.8350   -0.1120 O   0  0  0  0  0  0  0  0  0  0  0  0
   -1.9140   -0.8960   -0.3820 C   0  0  0  0  0  0  0  0  0  0  0  0
   -2.5710   -0.0220    0.5450 C   0  0  0  0  0  0  0  0  0  0  0  0
   -1.8650    0.6120    1.4440 O   0  0  0  0  0  0  0  0  0  0  0  0
   -3.8430    0.3490    0.7510 N   0  0  0  0  0  0  0  0  0  0  0  0
   -5.1480    0.5280    0.6990 C   0  0  0  0  0  0  0  0  0  0  0  0
   -5.4830    1.3510    1.6680 O   0  0  0  0  0  0  0  0  0  0  0  0
   -6.1670    0.0950   -0.0670 N   0  0  0  0  0  0  0  0  0  0  0  0
   -7.5160    0.5170    0.1450 C   0  0  2  0  0  0  0  0  0  0  0  0
   -8.3680   -0.7060    0.3010 C   0  0  0  0  0  0  0  0  0  0  0  0
   -8.9610   -0.9570   -1.0670 C   0  0  0  0  0  0  0  0  0  0  0  0
   -9.1180    0.4200   -1.6320 C   0  0  0  0  0  0  0  0  0  0  0  0
   -8.0540    1.2310   -1.0230 C   0  0  0  0  0  0  0  0  0  0  0  0
   -7.7120    2.3210   -1.4660 O   0  0  0  0  0  0  0  0  0  0  0  0
    5.3620    1.0980   -0.2180 O   0  0  0  0  0  0  0  0  0  0  0  0
  1  2  1  0
  2  3  2  0
  2  4  1  0
  4  5  1  0
  5  6  1  0
  6  7  2  0
  6  8  1  0
  8  9  2  0
  8 34  1  0
  9 10  1  0
 10 11  2  0
 11 12  1  0
 11 34  1  0
 12 13  1  0
 13 14  1  0
 14 15  1  6
 14 18  1  0
 15 16  1  0
 16 17  1  0
 18 19  2  0
 18 20  1  0
 20 21  1  0
 21 22  1  0
 22 23  2  0
 22 24  1  0
 24 25  1  0
 25 26  2  0
 25 27  1  0
 28 27  1  6
 28 29  1  0
 28 32  1  0
 29 30  1  0
 30 31  1  0
 31 32  1  0
 32 33  2  0
M  END
