
     RDKit          3D

 20 21  0  0  0  0  0  0  0  0999 V2000
    4.6200   -3.2080   -0.1140 C   0  0  0  0  0  0  0  0  0  0  0  0
    3.6680   -2.3130    0.0230 C   0  0  0  0  0  0  0  0  0  0  0  0
    3.9530   -0.8940   -0.0090 C   0  0  0  0  0  0  0  0  0  0  0  0
    2.9880    0.0020    0.1290 C   0  0  0  0  0  0  0  0  0  0  0  0
    1.5960   -0.2070    0.3180 N   0  0  0  0  0  0  0  0  0  0  0  0
    0.9510    0.9050    0.4150 C   0  0  0  0  0  0  0  0  0  0  0  0
   -0.7790    1.1160    0.6540 S   0  0  0  0  0  0  0  0  0  0  0  0
   -1.7300   -0.3580    0.7740 C   0  0  1  0  0  0  0  0  0  0  0  0
   -3.2160   -0.0340    0.9810 C   0  0  0  0  0  0  0  0  0  0  0  0
   -3.9900   -0.1450   -0.2870 C   0  0  0  0  0  0  0  0  0  0  0  0
   -4.7460   -1.4450   -0.4230 C   0  0  0  0  0  0  0  0  0  0  0  0
   -3.8340   -2.5820   -0.0060 C   0  0  0  0  0  0  0  0  0  0  0  0
   -2.5290   -2.3580   -0.5530 O   0  0  0  0  0  0  0  0  0  0  0  0
   -1.6920   -1.2330   -0.4280 C   0  0  0  0  0  0  0  0  0  0  0  0
   -0.9060   -0.9830   -1.3620 O   0  0  0  0  0  0  0  0  0  0  0  0
    1.8490    2.0110    0.3010 N   0  0  0  0  0  0  0  0  0  0  0  0
    1.5320    3.4310    0.3580 C   0  0  0  0  0  0  0  0  0  0  0  0
    0.7350    3.9230   -0.7990 C   0  0  0  0  0  0  0  0  0  0  0  0
    3.1420    1.4540    0.1190 C   0  0  0  0  0  0  0  0  0  0  0  0
    4.2550    2.0670   -0.0290 N   0  0  0  0  0  0  0  0  0  0  0  0
  1  2  2  0
  2  3  1  0
  3  4  2  3
  4  5  1  0
  4 19  1  0
  5  6  2  0
  6  7  1  0
  6 16  1  0
  8  7  1  6
  8  9  1  0
  8 14  1  0
  9 10  1  0
 10 11  1  0
 11 12  1  0
 12 13  1  0
 13 14  1  0
 14 15  2  0
 16 17  1  0
 16 19  1  0
 17 18  1  0
 19 20  2  0
M  CHG  1   5   1
M  END
