
     RDKit          3D

 20 22  0  0  0  0  0  0  0  0999 V2000
    6.8000    2.0850    0.1410 O   0  0  0  0  0  0  0  0  0  0  0  0
    5.4570    1.4260   -0.0010 S   0  0  1  0  0  0  0  0  0  0  0  0
    4.8130    2.0080   -1.2260 O   0  0  0  0  0  0  0  0  0  0  0  0
    5.7080   -0.2920   -0.2220 C   0  0  0  0  0  0  0  0  0  0  0  0
    4.4350   -1.0650   -0.4240 C   0  0  0  0  0  0  0  0  0  0  0  0
    3.4890   -0.9320    0.7600 C   0  0  0  0  0  0  0  0  0  0  0  0
    2.2710   -1.6900    0.5340 C   0  0  0  0  0  0  0  0  0  0  0  0
    1.0330   -1.3690    0.4260 C   0  0  0  0  0  0  0  0  0  0  0  0
    0.3500   -0.1090    0.4850 C   0  0  0  0  0  0  0  0  0  0  0  0
    0.8150    1.1380    0.6340 N   0  0  0  0  0  0  0  0  0  0  0  0
   -0.2110    2.0440    0.6440 C   0  0  0  0  0  0  0  0  0  0  0  0
   -1.3470    1.3350    0.4970 C   0  0  0  0  0  0  0  0  0  0  0  0
   -1.0090    0.0640    0.4030 N   0  0  0  0  0  0  0  0  0  0  0  0
   -2.1160   -0.8820    0.2370 C   0  0  0  0  0  0  0  0  0  0  0  0
   -3.0010   -0.4590   -0.8280 N   0  0  0  0  0  0  0  0  0  0  0  0
   -4.1060   -1.3550   -0.8930 C   0  0  0  0  0  0  0  0  0  0  0  0
   -5.3380   -0.6090   -0.4460 C   0  0  0  0  0  0  0  0  0  0  0  0
   -4.9590    0.8410   -0.4880 C   0  0  0  0  0  0  0  0  0  0  0  0
   -3.4670    0.8730   -0.6930 C   0  0  1  0  0  0  0  0  0  0  0  0
   -2.8200    1.6480    0.4190 C   0  0  0  0  0  0  0  0  0  0  0  0
  1  2  2  0
  2  3  2  0
  2  4  1  6
  4  5  1  0
  5  6  1  0
  6  7  1  0
  7  8  2  3
  8  9  1  0
  9 10  2  0
  9 13  1  0
 10 11  1  0
 11 12  2  0
 12 13  1  0
 12 20  1  0
 13 14  1  0
 14 15  1  0
 15 16  1  0
 15 19  1  0
 16 17  1  0
 17 18  1  0
 19 18  1  1
 19 20  1  0
M  CHG  1  10   1
M  END
