
     RDKit          3D

 20 21  0  0  0  0  0  0  0  0999 V2000
   -1.5110    4.3740   -0.3000 C   0  0  0  0  0  0  0  0  0  0  0  0
   -0.8560    3.2310   -0.3520 C   0  0  0  0  0  0  0  0  0  0  0  0
    0.4140    2.9800   -0.9250 N   0  0  0  0  0  0  0  0  0  0  0  0
    0.7550    1.7690   -0.8030 C   0  0  0  0  0  0  0  0  0  0  0  0
    2.0090    1.0680   -1.2590 C   0  0  0  0  0  0  0  0  0  0  0  0
    2.2250    0.0030   -0.1700 C   0  0  2  0  0  0  0  0  0  0  0  0
    3.5290   -0.5730   -0.2540 N   0  0  0  0  0  0  0  0  0  0  0  0
    3.9400   -0.8720   -1.6160 C   0  0  0  0  0  0  0  0  0  0  0  0
    1.1090   -0.9760   -0.3510 C   0  0  0  0  0  0  0  0  0  0  0  0
   -0.1420   -0.3170    0.1330 C   0  0  0  0  0  0  0  0  0  0  0  0
   -1.1380   -1.0690    0.8290 N   0  0  0  0  0  0  0  0  0  0  0  0
   -1.1770   -1.1740    2.2610 C   0  0  0  0  0  0  0  0  0  0  0  0
   -0.3520   -2.3200    2.7970 C   0  0  0  0  0  0  0  0  0  0  0  0
   -2.2910   -1.9000   -0.1220 S   0  0  2  0  0  0  0  0  0  0  0  0
   -3.2790   -0.8480   -1.1350 C   0  0  0  0  0  0  0  0  0  0  0  0
   -3.2230   -2.6470    0.8190 O   0  0  0  0  0  0  0  0  0  0  0  0
   -1.6330   -2.9790   -0.9640 O   0  0  0  0  0  0  0  0  0  0  0  0
   -0.2730    0.9770   -0.1000 C   0  0  0  0  0  0  0  0  0  0  0  0
   -1.3210    1.9380    0.1910 C   0  0  0  0  0  0  0  0  0  0  0  0
   -2.4550    1.7740    0.7930 C   0  0  0  0  0  0  0  0  0  0  0  0
  1  2  2  0
  2  3  1  0
  2 19  1  0
  3  4  2  0
  4  5  1  0
  4 18  1  0
  5  6  1  0
  6  7  1  6
  6  9  1  0
  7  8  1  0
  9 10  1  0
 10 11  1  0
 10 18  2  0
 11 12  1  0
 11 14  1  0
 12 13  1  0
 14 15  1  6
 14 16  2  0
 14 17  2  0
 18 19  1  0
 19 20  2  0
M  CHG  1   7   1
M  END
