
     RDKit          3D

 20 21  0  0  0  0  0  0  0  0999 V2000
    4.4210    0.0580    0.8680 C   0  0  0  0  0  0  0  0  0  0  0  0
    3.2650    0.3450    0.2160 C   0  0  0  0  0  0  0  0  0  0  0  0
    2.5140    1.3730    0.6660 O   0  0  0  0  0  0  0  0  0  0  0  0
    1.8400    2.4300    0.0790 C   0  0  0  0  0  0  0  0  0  0  0  0
    1.0670    1.9890   -1.1180 C   0  0  0  0  0  0  0  0  0  0  0  0
    1.8740    2.0200   -2.1490 O   0  0  0  0  0  0  0  0  0  0  0  0
   -0.2110    1.6400   -1.0830 N   0  0  0  0  0  0  0  0  0  0  0  0
   -1.2630    1.1280   -0.7270 C   0  0  0  0  0  0  0  0  0  0  0  0
   -2.9110    1.2620   -1.5310 S   0  0  0  0  0  0  0  0  0  0  0  0
   -3.7350    0.1630   -0.4420 C   0  0  0  0  0  0  0  0  0  0  0  0
   -5.1580   -0.2290   -0.6010 C   0  0  0  0  0  0  0  0  0  0  0  0
   -2.8630   -0.1900    0.4610 C   0  0  0  0  0  0  0  0  0  0  0  0
   -3.3590   -1.1620    1.5450 C   0  0  0  0  0  0  0  0  0  0  0  0
   -1.5560    0.2860    0.3650 N   0  0  0  0  0  0  0  0  0  0  0  0
   -0.4580   -0.0140    1.3400 C   0  0  0  0  0  0  0  0  0  0  0  0
    0.4450   -1.0960    0.9050 C   0  0  0  0  0  0  0  0  0  0  0  0
    0.6070   -1.2740   -0.5330 C   0  0  0  0  0  0  0  0  0  0  0  0
    1.6390   -1.0380   -1.3080 C   0  0  0  0  0  0  0  0  0  0  0  0
    2.9420   -0.5230   -0.9470 C   0  0  0  0  0  0  0  0  0  0  0  0
    3.9590   -0.8350   -1.6820 N   0  0  0  0  0  0  0  0  0  0  0  0
  1  2  2  0
  2  3  1  0
  2 19  1  0
  3  4  1  0
  4  5  1  0
  5  6  2  0
  5  7  1  0
  7  8  2  0
  8  9  1  0
  8 14  1  0
  9 10  1  0
 10 11  1  0
 10 12  2  0
 12 13  1  0
 12 14  1  0
 14 15  1  0
 15 16  1  0
 16 17  1  0
 17 18  2  0
 18 19  1  0
 19 20  2  0
M  CHG  1  20   1
M  END
