
     RDKit          3D

 20 22  0  0  0  0  0  0  0  0999 V2000
    4.5570    2.9010    2.1340 O   0  0  0  0  0  0  0  0  0  0  0  0
    4.6390    2.7040    0.6560 S   0  0  1  0  0  0  0  0  0  0  0  0
    5.9940    2.2140    0.2350 O   0  0  0  0  0  0  0  0  0  0  0  0
    3.4320    1.5050    0.2030 C   0  0  0  0  0  0  0  0  0  0  0  0
    3.8200    0.2170   -0.0520 C   0  0  0  0  0  0  0  0  0  0  0  0
    2.8860   -0.7340   -0.4080 C   0  0  0  0  0  0  0  0  0  0  0  0
    1.5610   -0.4340   -0.5180 C   0  0  0  0  0  0  0  0  0  0  0  0
    0.4740   -1.3310   -0.8810 C   0  0  1  0  0  0  0  0  0  0  0  0
    0.7380   -2.7890   -0.7910 C   0  0  0  0  0  0  0  0  0  0  0  0
   -0.0290   -3.2770    0.4360 C   0  0  0  0  0  0  0  0  0  0  0  0
   -0.3870   -1.9920    1.1310 C   0  0  0  0  0  0  0  0  0  0  0  0
   -0.6700   -1.1210    0.0080 N   0  0  0  0  0  0  0  0  0  0  0  0
   -1.7910   -0.3050   -0.1270 C   0  0  0  0  0  0  0  0  0  0  0  0
   -2.2720    0.3470    0.9400 C   0  0  0  0  0  0  0  0  0  0  0  0
   -3.4690    1.2070    0.7540 C   0  0  0  0  0  0  0  0  0  0  0  0
   -3.4440    1.9960   -0.4370 N   0  0  0  0  0  0  0  0  0  0  0  0
   -2.7120    1.4200   -1.5360 C   0  0  0  0  0  0  0  0  0  0  0  0
   -2.5430   -0.0730   -1.3900 C   0  0  0  0  0  0  0  0  0  0  0  0
    1.2220    0.8960   -0.2460 C   0  0  0  0  0  0  0  0  0  0  0  0
    2.1360    1.8090    0.0980 N   0  0  0  0  0  0  0  0  0  0  0  0
  1  2  2  0
  2  3  2  0
  2  4  1  1
  4  5  2  0
  4 20  1  0
  5  6  1  0
  6  7  2  0
  8  7  1  1
  7 19  1  0
  8  9  1  0
  8 12  1  0
  9 10  1  0
 10 11  1  0
 11 12  1  0
 12 13  1  0
 13 14  2  0
 13 18  1  0
 14 15  1  0
 15 16  1  0
 16 17  1  0
 17 18  1  0
 19 20  2  0
M  CHG  1  16   1
M  END
