
     RDKit          3D

  7  6  0  0  0  0  0  0  0  0999 V2000
    2.9460   -0.3350    0.2680 C   0  0  0  0  0  0  0  0  0  0  0  0
    1.7330    0.5450   -0.0650 C   0  0  0  0  0  0  0  0  0  0  0  0
    0.5460   -0.3970   -0.0890 C   0  0  0  0  0  0  0  0  0  0  0  0
   -0.6980    0.3150   -0.3990 C   0  0  0  0  0  0  0  0  0  0  0  0
   -0.6520    1.5180   -0.5930 O   0  0  0  0  0  0  0  0  0  0  0  0
   -1.9200   -0.4210   -0.4620 N   0  0  0  0  0  0  0  0  0  0  0  0
   -2.9200    0.3810    0.2510 C   0  0  0  0  0  0  0  0  0  0  0  0
  1  2  1  0
  2  3  1  0
  3  4  1  0
  4  5  2  0
  4  6  1  0
  6  7  1  0
M  CHG  1   6   1
M  END
