
     RDKit          3D

  7  6  0  0  0  0  0  0  0  0999 V2000
    0.6160    1.5240   -0.3780 C   0  0  0  0  0  0  0  0  0  0  0  0
    0.5990    0.0350   -0.3970 C   0  0  1  0  0  0  0  0  0  0  0  0
    1.7550   -0.5010    0.3930 C   0  0  0  0  0  0  0  0  0  0  0  0
    1.9460   -1.8620    0.1840 O   0  0  0  0  0  0  0  0  0  0  0  0
   -0.6600   -0.5840   -0.0860 N   0  0  0  0  0  0  0  0  0  0  0  0
   -1.6680   -0.2550   -1.0640 C   0  0  0  0  0  0  0  0  0  0  0  0
   -1.1590   -0.2290    1.2220 C   0  0  0  0  0  0  0  0  0  0  0  0
  2  1  1  1
  2  3  1  0
  2  5  1  0
  3  4  1  0
  5  6  1  0
  5  7  1  0
M  END
