
     RDKit          3D

  7  6  0  0  0  0  0  0  0  0999 V2000
    2.7180   -0.3490    0.2170 C   0  0  0  0  0  0  0  0  0  0  0  0
    1.4000    0.3000    0.2630 C   0  0  0  0  0  0  0  0  0  0  0  0
    0.3380   -0.3500   -0.1340 C   0  0  0  0  0  0  0  0  0  0  0  0
    0.5020   -1.6490   -0.5900 O   0  0  0  0  0  0  0  0  0  0  0  0
   -0.9780    0.2410   -0.1100 N   0  0  0  0  0  0  0  0  0  0  0  0
   -2.0830   -0.5660    0.3730 C   0  0  0  0  0  0  0  0  0  0  0  0
   -1.2360    1.5900   -0.5440 C   0  0  0  0  0  0  0  0  0  0  0  0
  1  2  1  0
  2  3  2  3
  3  4  1  0
  3  5  1  0
  5  6  1  0
  5  7  1  0
M  END
