
     RDKit          3D

  7  6  0  0  0  0  0  0  0  0999 V2000
   -1.7020   -1.1300    0.7060 C   0  0  0  0  0  0  0  0  0  0  0  0
   -0.8990   -0.6670   -0.5160 C   0  0  0  0  0  0  0  0  0  0  0  0
   -0.2090    0.5320   -0.3520 N   0  0  0  0  0  0  0  0  0  0  0  0
   -0.9780    1.6860   -0.2400 C   0  0  0  0  0  0  0  0  0  0  0  0
    1.1350    0.5950   -0.6520 C   0  0  0  0  0  0  0  0  0  0  0  0
    2.0610   -0.1730    0.3190 C   0  0  0  0  0  0  0  0  0  0  0  0
    1.7860   -1.5130    0.3710 O   0  0  0  0  0  0  0  0  0  0  0  0
  1  2  1  0
  2  3  1  0
  3  4  1  0
  3  5  1  0
  5  6  1  0
  6  7  1  0
M  END
