
     RDKit          3D

  7  6  0  0  0  0  0  0  0  0999 V2000
    2.6150   -0.0390   -0.5650 C   0  0  0  0  0  0  0  0  0  0  0  0
    1.1860   -0.3710   -0.6180 N   0  0  0  0  0  0  0  0  0  0  0  0
    0.4400    0.5780    0.1430 C   0  0  0  0  0  0  0  0  0  0  0  0
   -0.9780    0.1940    0.4130 C   0  0  1  0  0  0  0  0  0  0  0  0
   -1.7130    0.1150   -0.9340 C   0  0  0  0  0  0  0  0  0  0  0  0
   -1.0740   -1.1640    1.0790 C   0  0  0  0  0  0  0  0  0  0  0  0
   -1.6490    1.1370    1.1680 O   0  0  0  0  0  0  0  0  0  0  0  0
  1  2  1  0
  2  3  1  0
  3  4  1  0
  4  5  1  6
  4  6  1  0
  4  7  1  0
M  END
