
     RDKit          3D

  7  6  0  0  0  0  0  0  0  0999 V2000
   -2.4550    0.7110    0.1760 C   0  0  0  0  0  0  0  0  0  0  0  0
   -1.8280   -0.3310   -0.5740 N   0  0  0  0  0  0  0  0  0  0  0  0
   -0.8860   -1.1190    0.1860 C   0  0  0  0  0  0  0  0  0  0  0  0
    0.2710   -0.2910    0.6990 C   0  0  0  0  0  0  0  0  0  0  0  0
    1.0060    0.3200   -0.4530 C   0  0  0  0  0  0  0  0  0  0  0  0
    2.0660    1.0830   -0.0380 O   0  0  0  0  0  0  0  0  0  0  0  0
    3.0290    0.4240    0.6810 C   0  0  0  0  0  0  0  0  0  0  0  0
  1  2  1  0
  2  3  1  0
  3  4  1  0
  4  5  1  0
  5  6  1  0
  6  7  1  0
M  CHG  1   2   1
M  END
