
     RDKit          3D

 40 43  0  0  0  0  0  0  0  0999 V2000
    7.0290    3.6530    0.6940 C   0  0  0  0  0  0  0  0  0  0  0  0
    5.9890    2.9340    1.5160 C   0  0  0  0  0  0  0  0  0  0  0  0
    4.6060    3.2690    1.1180 C   0  0  0  0  0  0  0  0  0  0  0  0
    4.2180    4.7350    1.2490 C   0  0  0  0  0  0  0  0  0  0  0  0
    3.6850    2.4540    0.6840 C   0  0  0  0  0  0  0  0  0  0  0  0
    3.7810    0.9950    0.4770 C   0  0  0  0  0  0  0  0  0  0  0  0
    2.7440    0.2690    1.3560 C   0  0  0  0  0  0  0  0  0  0  0  0
    2.8220   -1.1720    1.1670 C   0  0  0  0  0  0  0  0  0  0  0  0
    4.2480   -1.6910    1.5430 C   0  0  0  0  0  0  0  0  0  0  0  0
    2.0340   -2.0990    0.7780 C   0  0  0  0  0  0  0  0  0  0  0  0
    0.6540   -2.1750    0.3200 C   0  0  0  0  0  0  0  0  0  0  0  0
    0.1750   -3.4040    0.0490 C   0  0  0  0  0  0  0  0  0  0  0  0
   -1.1210   -3.8320   -0.3980 C   0  0  0  0  0  0  0  0  0  0  0  0
   -2.2100   -4.1220    0.3340 C   0  0  0  0  0  0  0  0  0  0  0  0
   -2.3020   -4.0640    1.8090 C   0  0  2  0  0  0  0  0  0  0  0  0
   -2.2140   -5.5590    2.2310 C   0  0  0  0  0  0  0  0  0  0  0  0
   -3.5280   -3.6060    2.3360 N   0  0  0  0  0  0  0  0  0  0  0  0
   -3.3880   -2.4890    3.2820 C   0  0  0  0  0  0  0  0  0  0  0  0
   -3.7170   -1.2690    2.4600 C   0  0  1  0  0  0  0  0  0  0  0  0
   -3.0500    0.0640    2.6620 C   0  0  0  0  0  0  0  0  0  0  0  0
   -2.5700   -0.9240    1.6740 C   0  0  2  0  0  0  0  0  0  0  0  0
   -2.6590   -0.8580    0.2700 N   0  0  0  0  0  0  0  0  0  0  0  0
   -3.7790   -0.6080   -0.5630 C   0  0  1  0  0  0  0  0  0  0  0  0
   -4.9690   -1.4860   -0.5120 C   0  0  0  0  0  0  0  0  0  0  0  0
   -5.6240   -1.1830   -1.8860 C   0  0  0  0  0  0  0  0  0  0  0  0
   -5.5760    0.5970   -1.8270 S   0  0  1  0  0  0  0  0  0  0  0  0
   -4.9780    1.1680   -3.0770 O   0  0  0  0  0  0  0  0  0  0  0  0
   -6.8770    1.1830   -1.4420 O   0  0  0  0  0  0  0  0  0  0  0  0
   -4.4120    0.7800   -0.4380 C   0  0  0  0  0  0  0  0  0  0  0  0
   -1.4580   -1.0790   -0.4800 C   0  0  0  0  0  0  0  0  0  0  0  0
   -1.4820   -1.4420   -1.7010 O   0  0  0  0  0  0  0  0  0  0  0  0
   -0.0570   -0.9070    0.0720 C   0  0  2  0  0  0  0  0  0  0  0  0
    0.6350   -0.1600   -1.0160 N   0  0  0  0  0  0  0  0  0  0  0  0
    0.2410    1.2140   -1.0810 C   0  0  0  0  0  0  0  0  0  0  0  0
    1.0440    1.9950   -2.0910 C   0  0  1  0  0  0  0  0  0  0  0  0
    0.9270    1.4420   -3.4820 C   0  0  0  0  0  0  0  0  0  0  0  0
    0.3440    2.4900   -4.3990 C   0  0  0  0  0  0  0  0  0  0  0  0
    1.1790    3.7480   -4.3410 C   0  0  0  0  0  0  0  0  0  0  0  0
    1.3540    4.1280   -2.8970 C   0  0  0  0  0  0  0  0  0  0  0  0
    0.5680    3.3190   -2.0690 O   0  0  0  0  0  0  0  0  0  0  0  0
  1  2  1  0
  2  3  1  0
  3  4  1  0
  3  5  2  3
  5  6  1  0
  6  7  1  0
  7  8  1  0
  8  9  1  0
  8 10  2  3
 10 11  1  0
 11 12  2  0
 11 32  1  0
 12 13  1  0
 13 14  2  0
 14 15  1  0
 15 16  1  1
 15 17  1  0
 17 18  1  0
 19 18  1  1
 19 20  1  0
 19 21  1  0
 21 20  1  1
 21 22  1  0
 23 22  1  1
 22 30  1  0
 23 24  1  0
 23 29  1  0
 24 25  1  0
 26 25  1  6
 26 27  2  0
 26 28  2  0
 26 29  1  0
 30 31  2  0
 30 32  1  0
 32 33  1  6
 33 34  1  0
 35 34  1  1
 35 36  1  0
 35 40  1  0
 36 37  1  0
 37 38  1  0
 38 39  1  0
 39 40  1  0
M  CHG  2  17   1  33   1
M  END
