
     RDKit          3D

 40 43  0  0  0  0  0  0  0  0999 V2000
   -3.5340   -2.3090    4.7930 C   0  0  0  0  0  0  0  0  0  0  0  0
   -2.8450   -1.9730    3.5350 C   0  0  0  0  0  0  0  0  0  0  0  0
   -3.5690   -1.8020    2.4390 C   0  0  0  0  0  0  0  0  0  0  0  0
   -4.9320   -1.9480    2.5320 O   0  0  0  0  0  0  0  0  0  0  0  0
   -2.9550   -1.4680    1.1580 C   0  0  0  0  0  0  0  0  0  0  0  0
   -3.8660   -1.3290    0.1300 C   0  0  0  0  0  0  0  0  0  0  0  0
   -3.3930   -0.9680   -1.2330 C   0  0  0  0  0  0  0  0  0  0  0  0
   -3.3950   -1.9610   -2.2540 N   0  0  0  0  0  0  0  0  0  0  0  0
   -3.0960    0.3270   -1.5840 C   0  0  0  0  0  0  0  0  0  0  0  0
   -3.2010    1.4770   -0.7650 C   0  0  0  0  0  0  0  0  0  0  0  0
   -2.8010    2.3500    0.1330 C   0  0  0  0  0  0  0  0  0  0  0  0
   -1.5700    2.4570    0.9010 C   0  0  0  0  0  0  0  0  0  0  0  0
   -1.5520    3.3950    1.9190 C   0  0  0  0  0  0  0  0  0  0  0  0
   -2.6260    4.2680    2.2610 C   0  0  0  0  0  0  0  0  0  0  0  0
   -3.7210    4.2120    1.5640 C   0  0  0  0  0  0  0  0  0  0  0  0
   -3.9580    3.3500    0.4570 C   0  0  2  0  0  0  0  0  0  0  0  0
   -5.1610    2.6520    0.5660 F   0  0  0  0  0  0  0  0  0  0  0  0
   -0.2960    1.8020    0.7150 N   0  0  0  0  0  0  0  0  0  0  0  0
    0.4480    0.6620    0.7250 C   0  0  0  0  0  0  0  0  0  0  0  0
    1.5580    0.6780    1.5710 O   0  0  0  0  0  0  0  0  0  0  0  0
    0.5100   -0.6670    0.1240 C   0  0  0  0  0  0  0  0  0  0  0  0
    1.5960   -1.0760   -0.5500 C   0  0  0  0  0  0  0  0  0  0  0  0
    2.7630   -0.1720   -0.7060 C   0  0  0  0  0  0  0  0  0  0  0  0
    2.7710    0.9750   -0.2780 O   0  0  0  0  0  0  0  0  0  0  0  0
    3.9200   -0.6330   -1.3690 N   0  0  0  0  0  0  0  0  0  0  0  0
    5.1250    0.0200   -1.6490 C   0  0  0  0  0  0  0  0  0  0  0  0
    5.3640    1.3530   -1.6490 C   0  0  0  0  0  0  0  0  0  0  0  0
    4.3460    2.2450   -1.4070 O   0  0  0  0  0  0  0  0  0  0  0  0
    4.5620    3.6290   -1.4000 C   0  0  0  0  0  0  0  0  0  0  0  0
    6.6210    1.8630   -1.8930 N   0  0  0  0  0  0  0  0  0  0  0  0
    7.6530    1.0530   -2.1400 C   0  0  0  0  0  0  0  0  0  0  0  0
    7.4680   -0.2690   -2.1530 N   0  0  0  0  0  0  0  0  0  0  0  0
    6.2510   -0.7830   -1.9170 C   0  0  0  0  0  0  0  0  0  0  0  0
    6.1720   -2.0350   -1.9490 O   0  0  0  0  0  0  0  0  0  0  0  0
    1.7370   -2.3140   -1.1430 O   0  0  0  0  0  0  0  0  0  0  0  0
    0.7700   -3.2810   -1.1110 C   0  0  0  0  0  0  0  0  0  0  0  0
    0.9620   -4.6160   -1.7680 C   0  0  0  0  0  0  0  0  0  0  0  0
   -0.3510   -2.9670   -0.4630 C   0  0  0  0  0  0  0  0  0  0  0  0
   -0.5990   -1.6830    0.1990 C   0  0  0  0  0  0  0  0  0  0  0  0
   -1.6700   -1.3540    0.7390 N   0  0  0  0  0  0  0  0  0  0  0  0
  1  2  1  0
  2  3  2  3
  3  4  1  0
  3  5  1  0
  5  6  2  0
  5 40  1  0
  6  7  1  0
  7  8  1  0
  7  9  2  0
  9 10  1  0
 10 11  2  0
 11 12  1  0
 11 16  1  0
 12 13  2  0
 12 18  1  0
 13 14  1  0
 14 15  2  0
 15 16  1  0
 16 17  1  1
 18 19  1  0
 19 20  2  0
 19 21  1  0
 21 22  2  0
 21 39  1  0
 22 23  1  0
 22 35  1  0
 23 24  2  0
 23 25  1  0
 25 26  1  0
 26 27  2  0
 26 33  1  0
 27 28  1  0
 27 30  1  0
 28 29  1  0
 30 31  2  0
 31 32  1  0
 32 33  1  0
 33 34  2  0
 35 36  1  0
 36 37  1  0
 36 38  2  0
 38 39  1  0
 39 40  2  0
M  END
