
     RDKit          3D

 40 43  0  0  0  0  0  0  0  0999 V2000
    5.2400   -2.1930    3.7360 C   0  0  0  0  0  0  0  0  0  0  0  0
    5.1110   -2.1260    2.2280 C   0  0  0  0  0  0  0  0  0  0  0  0
    5.7030   -0.8070    1.7840 C   0  0  0  0  0  0  0  0  0  0  0  0
    5.6690   -0.5800    0.3770 N   0  0  0  0  0  0  0  0  0  0  0  0
    4.6150    0.0620   -0.2140 C   0  0  0  0  0  0  0  0  0  0  0  0
    4.5150    0.3220   -1.5400 C   0  0  0  0  0  0  0  0  0  0  0  0
    3.3650    1.0130   -2.1110 C   0  0  0  0  0  0  0  0  0  0  0  0
    2.9770    0.6550   -3.2540 O   0  0  0  0  0  0  0  0  0  0  0  0
    2.6700    2.0470   -1.4630 N   0  0  0  0  0  0  0  0  0  0  0  0
    1.5190    2.7320   -2.0470 C   0  0  2  0  0  0  0  0  0  0  0  0
    1.7880    4.2170   -2.1410 C   0  0  0  0  0  0  0  0  0  0  0  0
    0.3180    2.4750   -1.1900 C   0  0  0  0  0  0  0  0  0  0  0  0
    0.2910    2.5470    0.1840 C   0  0  0  0  0  0  0  0  0  0  0  0
   -0.9970    2.2390    0.5500 C   0  0  0  0  0  0  0  0  0  0  0  0
   -1.7050    1.9930   -0.6000 C   0  0  0  0  0  0  0  0  0  0  0  0
   -3.1600    1.6170   -0.6870 C   0  0  2  0  0  0  0  0  0  0  0  0
   -3.9420    2.3980    0.1400 O   0  0  0  0  0  0  0  0  0  0  0  0
   -3.2940    0.1560   -0.3990 C   0  0  0  0  0  0  0  0  0  0  0  0
   -4.6990   -0.2830   -0.4680 C   0  0  0  0  0  0  0  0  0  0  0  0
   -5.6080    0.5350   -0.7430 O   0  0  0  0  0  0  0  0  0  0  0  0
   -5.0660   -1.6340   -0.2280 N   0  0  0  0  0  0  0  0  0  0  0  0
   -6.4470   -2.0050   -0.3000 C   0  0  0  0  0  0  0  0  0  0  0  0
   -7.2670   -1.3750    0.7620 C   0  0  0  0  0  0  0  0  0  0  0  0
   -6.7200   -0.5820    1.7360 C   0  0  0  0  0  0  0  0  0  0  0  0
   -7.5600   -0.0590    2.6930 C   0  0  0  0  0  0  0  0  0  0  0  0
   -7.0750    0.6700    3.5930 O   0  0  0  0  0  0  0  0  0  0  0  0
   -8.8800   -0.3190    2.6750 N   0  0  0  0  0  0  0  0  0  0  0  0
   -9.4420   -1.0970    1.7260 C   0  0  0  0  0  0  0  0  0  0  0  0
   -8.6390   -1.6400    0.7490 C   0  0  0  0  0  0  0  0  0  0  0  0
   -9.2540   -2.4570   -0.2390 N   0  0  0  0  0  0  0  0  0  0  0  0
   -0.8790    2.1470   -1.5960 O   0  0  0  0  0  0  0  0  0  0  0  0
    5.5150   -0.0690   -2.3700 C   0  0  0  0  0  0  0  0  0  0  0  0
    5.5230    0.1240   -3.6240 O   0  0  0  0  0  0  0  0  0  0  0  0
    6.6000   -0.7210   -1.8190 C   0  0  0  0  0  0  0  0  0  0  0  0
    7.6490   -1.1470   -2.6200 C   0  0  0  0  0  0  0  0  0  0  0  0
    8.7480   -1.8010   -2.1320 C   0  0  0  0  0  0  0  0  0  0  0  0
    8.7820   -2.0280   -0.8070 N   0  0  0  0  0  0  0  0  0  0  0  0
    7.7740   -1.6290    0.0250 C   0  0  0  0  0  0  0  0  0  0  0  0
    7.8610   -1.8920    1.3530 F   0  0  0  0  0  0  0  0  0  0  0  0
    6.6630   -0.9700   -0.4430 C   0  0  0  0  0  0  0  0  0  0  0  0
  1  2  1  0
  2  3  1  0
  3  4  1  0
  4  5  1  0
  4 40  1  0
  5  6  2  0
  6  7  1  0
  6 32  1  0
  7  8  2  0
  7  9  1  0
  9 10  1  0
 10 11  1  1
 10 12  1  0
 12 13  2  0
 12 31  1  0
 13 14  1  0
 14 15  2  0
 15 16  1  0
 15 31  1  0
 16 17  1  1
 16 18  1  0
 18 19  1  0
 19 20  2  0
 19 21  1  0
 21 22  1  0
 22 23  1  0
 23 24  2  0
 23 29  1  0
 24 25  1  0
 25 26  2  0
 25 27  1  0
 27 28  1  0
 28 29  2  0
 29 30  1  0
 32 33  2  0
 32 34  1  0
 34 35  2  0
 34 40  1  0
 35 36  1  0
 36 37  2  0
 37 38  1  0
 38 39  1  0
 38 40  2  0
M  END
