
     RDKit          3D

 40 43  0  0  0  0  0  0  0  0999 V2000
   -8.3430   -1.9000    1.5880 C   0  0  0  0  0  0  0  0  0  0  0  0
   -7.1580   -1.1190    1.1110 C   0  0  1  0  0  0  0  0  0  0  0  0
   -5.9590   -1.9810    0.7930 C   0  0  0  0  0  0  0  0  0  0  0  0
   -4.7780   -1.0140    0.6140 C   0  0  1  0  0  0  0  0  0  0  0  0
   -3.5120   -1.8340    0.5440 C   0  0  0  0  0  0  0  0  0  0  0  0
   -2.2930   -1.0430    0.3820 C   0  0  0  0  0  0  0  0  0  0  0  0
   -2.3700    0.2140    0.3640 O   0  0  0  0  0  0  0  0  0  0  0  0
   -1.0160   -1.6410    0.2440 N   0  0  0  0  0  0  0  0  0  0  0  0
   -0.9090   -3.0780    0.2520 C   0  0  0  0  0  0  0  0  0  0  0  0
    0.0320   -3.6140    1.2970 C   0  0  0  0  0  0  0  0  0  0  0  0
    1.0860   -2.5720    1.5990 C   0  0  0  0  0  0  0  0  0  0  0  0
    1.3440   -1.8190    0.3090 C   0  0  2  0  0  0  0  0  0  0  0  0
    2.7160   -1.2440    0.2420 C   0  0  1  0  0  0  0  0  0  0  0  0
    2.8850   -0.5000   -1.0510 C   0  0  0  0  0  0  0  0  0  0  0  0
    4.1610    0.2870   -1.0140 C   0  0  0  0  0  0  0  0  0  0  0  0
    5.3940   -0.5770   -0.7150 C   0  0  1  0  0  0  0  0  0  0  0  0
    5.4390   -1.8090   -1.5700 C   0  0  0  0  0  0  0  0  0  0  0  0
    6.5640    0.3570   -1.0290 C   0  0  1  0  0  0  0  0  0  0  0  0
    6.4350    1.4450   -0.1720 O   0  0  0  0  0  0  0  0  0  0  0  0
    7.9040   -0.2650   -0.8690 C   0  0  0  0  0  0  0  0  0  0  0  0
    8.8890    0.7340   -1.1870 O   0  0  0  0  0  0  0  0  0  0  0  0
    8.9390    1.9240   -0.4350 C   0  0  0  0  0  0  0  0  0  0  0  0
    8.8870    3.0760   -1.0490 C   0  0  0  0  0  0  0  0  0  0  0  0
    8.9200    4.4380   -0.5280 C   0  0  0  0  0  0  0  0  0  0  0  0
    9.0540    4.4390    1.2610 S   0  0  0  0  0  0  0  0  0  0  0  0
    9.1070    2.7700    1.8440 C   0  0  0  0  0  0  0  0  0  0  0  0
    9.0480    1.7600    0.9980 C   0  0  0  0  0  0  0  0  0  0  0  0
    5.4070   -1.0000    0.7320 C   0  0  0  0  0  0  0  0  0  0  0  0
    4.4430   -0.2430    1.6020 C   0  0  0  0  0  0  0  0  0  0  0  0
    3.0700   -0.3770    1.3200 N   0  0  0  0  0  0  0  0  0  0  0  0
    0.2110   -0.8780    0.0920 C   0  0  0  0  0  0  0  0  0  0  0  0
   -5.0550   -0.2460   -0.6270 C   0  0  0  0  0  0  0  0  0  0  0  0
   -6.3340    0.4030   -0.5480 N   0  0  0  0  0  0  0  0  0  0  0  0
   -6.4020    1.7980   -0.8680 C   0  0  0  0  0  0  0  0  0  0  0  0
   -5.3170    2.3850   -1.1920 O   0  0  0  0  0  0  0  0  0  0  0  0
   -7.6510    2.5840   -0.8440 C   0  0  1  0  0  0  0  0  0  0  0  0
   -8.6210    1.9670   -1.8430 C   0  0  0  0  0  0  0  0  0  0  0  0
   -8.2940    2.6670    0.5080 C   0  0  0  0  0  0  0  0  0  0  0  0
   -7.3230    4.0180   -1.2960 C   0  0  0  0  0  0  0  0  0  0  0  0
   -7.5020   -0.3450   -0.1610 C   0  0  0  0  0  0  0  0  0  0  0  0
  2  1  1  6
  2  3  1  0
  2 40  1  0
  3  4  1  0
  4  5  1  6
  4 32  1  0
  5  6  1  0
  6  7  2  0
  6  8  1  0
  8  9  1  0
  8 31  1  0
  9 10  1  0
 10 11  1  0
 12 11  1  1
 12 13  1  0
 12 31  1  0
 13 14  1  6
 13 30  1  0
 14 15  1  0
 15 16  1  0
 16 17  1  6
 16 18  1  0
 16 28  1  0
 18 19  1  1
 18 20  1  0
 20 21  1  0
 21 22  1  0
 22 23  2  0
 22 27  1  0
 23 24  1  0
 24 25  1  0
 25 26  1  0
 26 27  2  0
 28 29  1  0
 29 30  1  0
 32 33  1  0
 33 34  1  0
 33 40  1  0
 34 35  2  0
 34 36  1  0
 36 37  1  6
 36 38  1  0
 36 39  1  0
M  CHG  1  30   1
M  END
