
     RDKit          3D

 14 15  0  0  0  0  0  0  0  0999 V2000
   -4.6230   -1.0370    0.3020 N   0  0  0  0  0  0  0  0  0  0  0  0
   -3.2450   -0.7840   -0.0220 C   0  0  0  0  0  0  0  0  0  0  0  0
   -2.8490   -0.2520   -1.1310 N   0  0  0  0  0  0  0  0  0  0  0  0
   -1.4380   -0.1480   -1.1200 C   0  0  1  0  0  0  0  0  0  0  0  0
   -0.8290    0.9170   -1.6550 O   0  0  0  0  0  0  0  0  0  0  0  0
    0.1450    1.5490   -0.9630 C   0  0  0  0  0  0  0  0  0  0  0  0
    0.9680    0.7820    0.0100 C   0  0  2  0  0  0  0  0  0  0  0  0
    1.0900    1.5970    1.1640 O   0  0  0  0  0  0  0  0  0  0  0  0
    2.3610    0.5040   -0.4500 C   0  0  0  0  0  0  0  0  0  0  0  0
    3.1460   -0.2690    0.5770 C   0  0  0  0  0  0  0  0  0  0  0  0
    2.5490   -1.4880    0.8460 O   0  0  0  0  0  0  0  0  0  0  0  0
    0.2530   -0.4790    0.5200 C   0  0  0  0  0  0  0  0  0  0  0  0
   -1.1980   -0.0850    0.4020 C   0  0  2  0  0  0  0  0  0  0  0  0
   -2.1270   -1.0640    0.7940 O   0  0  0  0  0  0  0  0  0  0  0  0
  1  2  1  0
  2  3  2  0
  2 14  1  0
  3  4  1  0
  4  5  1  6
  4 13  1  0
  5  6  1  0
  6  7  1  0
  7  8  1  1
  7  9  1  0
  7 12  1  0
  9 10  1  0
 10 11  1  0
 13 12  1  6
 13 14  1  0
M  END
