
     RDKit          3D

 23 24  0  0  0  0  0  0  0  0999 V2000
   -1.3980   -2.8580   -2.6370 C   0  0  0  0  0  0  0  0  0  0  0  0
   -1.6440   -2.3620   -1.2800 C   0  0  0  0  0  0  0  0  0  0  0  0
   -2.0960   -3.1090   -0.2930 O   0  0  0  0  0  0  0  0  0  0  0  0
   -2.2050   -2.3780    0.7710 N   0  0  0  0  0  0  0  0  0  0  0  0
   -1.8160   -1.0900    0.5030 C   0  0  0  0  0  0  0  0  0  0  0  0
   -1.8250    0.0330    1.4680 C   0  0  2  0  0  0  0  0  0  0  0  0
   -2.1930   -0.5570    2.8420 C   0  0  0  0  0  0  0  0  0  0  0  0
   -2.9090    1.0470    1.1690 C   0  0  0  0  0  0  0  0  0  0  0  0
   -1.4540   -1.0610   -0.8030 C   0  0  0  0  0  0  0  0  0  0  0  0
   -0.8910    0.2330   -1.7950 S   0  0  2  0  0  0  0  0  0  0  0  0
   -1.3740    1.5910   -1.2810 O   0  0  0  0  0  0  0  0  0  0  0  0
   -1.5080    0.1680   -3.1880 O   0  0  0  0  0  0  0  0  0  0  0  0
    0.7990    0.2880   -1.9670 N   0  0  0  0  0  0  0  0  0  0  0  0
    1.7130    0.4780   -0.9080 C   0  0  0  0  0  0  0  0  0  0  0  0
    1.4140    1.3340    0.1310 C   0  0  0  0  0  0  0  0  0  0  0  0
    2.2640    1.5930    1.1810 C   0  0  0  0  0  0  0  0  0  0  0  0
    1.9140    2.4850    2.2310 N   0  0  0  0  0  0  0  0  0  0  0  0
    3.4970    0.9500    1.1920 C   0  0  0  0  0  0  0  0  0  0  0  0
    3.7990    0.0980    0.1620 C   0  0  0  0  0  0  0  0  0  0  0  0
    2.9410   -0.1580   -0.8900 C   0  0  0  0  0  0  0  0  0  0  0  0
    3.3260   -1.0590   -1.9210 N   0  0  0  0  0  0  0  0  0  0  0  0
    4.5290   -1.2280   -2.2010 O   0  0  0  0  0  0  0  0  0  0  0  0
    2.4140   -1.7770   -2.6490 O   0  0  0  0  0  0  0  0  0  0  0  0
  1  2  1  0
  2  3  1  0
  2  9  2  0
  3  4  1  0
  4  5  2  0
  5  6  1  0
  5  9  1  0
  6  7  1  1
  6  8  1  0
  9 10  1  0
 10 11  2  0
 10 12  2  0
 10 13  1  6
 13 14  1  0
 14 15  2  0
 14 20  1  0
 15 16  1  0
 16 17  1  0
 16 18  2  0
 18 19  1  0
 19 20  2  0
 20 21  1  0
 21 22  2  0
 21 23  1  0
M  CHG  2  21   1  23  -1
M  END
