
     RDKit          3D

 22 23  0  0  0  0  0  0  0  0999 V2000
    7.4780    1.5270    1.1330 C   0  0  0  0  0  0  0  0  0  0  0  0
    6.3370    0.6870    0.7350 C   0  0  0  0  0  0  0  0  0  0  0  0
    6.1100   -0.6480    0.8470 C   0  0  0  0  0  0  0  0  0  0  0  0
    4.9490   -1.1350    0.3830 C   0  0  0  0  0  0  0  0  0  0  0  0
    4.0600   -0.3090   -0.1690 C   0  0  0  0  0  0  0  0  0  0  0  0
    2.7110   -0.5590   -0.7610 C   0  0  0  0  0  0  0  0  0  0  0  0
    1.6740   -0.4930    0.2360 N   0  0  0  0  0  0  0  0  0  0  0  0
    0.3170   -0.7000   -0.0990 C   0  0  0  0  0  0  0  0  0  0  0  0
   -0.0200   -0.9510   -1.2980 O   0  0  0  0  0  0  0  0  0  0  0  0
   -0.7470   -0.6470    0.8410 N   0  0  0  0  0  0  0  0  0  0  0  0
   -2.0820   -0.8580    0.4870 N   0  0  0  0  0  0  0  0  0  0  0  0
   -3.0330    0.1920    0.3710 C   0  0  0  0  0  0  0  0  0  0  0  0
   -2.5740    1.3340    0.6140 O   0  0  0  0  0  0  0  0  0  0  0  0
   -4.4230    0.0240    0.0080 C   0  0  0  0  0  0  0  0  0  0  0  0
   -4.9010   -1.2620   -0.2530 C   0  0  0  0  0  0  0  0  0  0  0  0
   -6.2210   -1.5150   -0.6060 C   0  0  0  0  0  0  0  0  0  0  0  0
   -7.0780   -0.4920   -0.7020 N   0  0  0  0  0  0  0  0  0  0  0  0
   -6.6760    0.7550   -0.4650 C   0  0  0  0  0  0  0  0  0  0  0  0
   -7.5380    1.8290   -0.5570 O   0  0  0  0  0  0  0  0  0  0  0  0
   -5.3320    1.0410   -0.1030 C   0  0  0  0  0  0  0  0  0  0  0  0
   -4.9820    2.3380    0.1280 O   0  0  0  0  0  0  0  0  0  0  0  0
    4.8150    1.2580   -0.0710 S   0  0  0  0  0  0  0  0  0  0  0  0
  1  2  1  0
  2  3  2  0
  2 22  1  0
  3  4  1  0
  4  5  2  0
  5  6  1  0
  5 22  1  0
  6  7  1  0
  7  8  1  0
  8  9  2  0
  8 10  1  0
 10 11  1  0
 11 12  1  0
 12 13  2  0
 12 14  1  0
 14 15  2  0
 14 20  1  0
 15 16  1  0
 16 17  2  0
 17 18  1  0
 18 19  1  0
 18 20  2  0
 20 21  1  0
M  END
