
     RDKit          3D

 23 24  0  0  0  0  0  0  0  0999 V2000
   -5.2720    1.5200   -2.1080 C   0  0  0  0  0  0  0  0  0  0  0  0
   -4.0150    1.2030   -1.5840 O   0  0  0  0  0  0  0  0  0  0  0  0
   -3.9260    0.4120   -0.4400 C   0  0  0  0  0  0  0  0  0  0  0  0
   -5.0740   -0.0360    0.1420 C   0  0  0  0  0  0  0  0  0  0  0  0
   -4.9940   -0.8230    1.2790 C   0  0  0  0  0  0  0  0  0  0  0  0
   -3.7630   -1.1460    1.8120 C   0  0  0  0  0  0  0  0  0  0  0  0
   -3.6800   -1.9340    2.9510 O   0  0  0  0  0  0  0  0  0  0  0  0
   -2.6040   -0.6650    1.1820 C   0  0  0  0  0  0  0  0  0  0  0  0
   -2.6530    0.1110    0.0630 C   0  0  0  0  0  0  0  0  0  0  0  0
   -1.5360    0.6230   -0.6140 N   0  0  0  0  0  0  0  0  0  0  0  0
   -0.1950    0.4010   -0.2310 C   0  0  0  0  0  0  0  0  0  0  0  0
    0.1500   -0.2730    0.7490 O   0  0  0  0  0  0  0  0  0  0  0  0
    0.8820    0.9760   -1.0010 N   0  0  0  0  0  0  0  0  0  0  0  0
    2.2340    0.7590   -0.6270 N   0  0  0  0  0  0  0  0  0  0  0  0
    2.7510   -0.5170   -0.5260 C   0  0  0  0  0  0  0  0  0  0  0  0
    1.9170   -1.4710   -0.7930 O   0  0  0  0  0  0  0  0  0  0  0  0
    4.0990   -0.9340   -0.1610 C   0  0  0  0  0  0  0  0  0  0  0  0
    4.5770   -2.6350   -0.0730 S   0  0  0  0  0  0  0  0  0  0  0  0
    6.2730   -2.3370    0.4050 C   0  0  0  0  0  0  0  0  0  0  0  0
    7.2940   -3.2940    0.6640 O   0  0  0  0  0  0  0  0  0  0  0  0
    6.3220   -0.9670    0.4540 N   0  0  0  0  0  0  0  0  0  0  0  0
    5.2500   -0.2840    0.1750 C   0  0  0  0  0  0  0  0  0  0  0  0
    5.2240    1.2560    0.2030 C   0  0  0  0  0  0  0  0  0  0  0  0
  1  2  1  0
  2  3  1  0
  3  4  2  0
  3  9  1  0
  4  5  1  0
  5  6  2  0
  6  7  1  0
  6  8  1  0
  8  9  2  0
  9 10  1  0
 10 11  1  0
 11 12  2  0
 11 13  1  0
 13 14  1  0
 14 15  1  0
 15 16  2  0
 15 17  1  0
 17 18  1  0
 17 22  2  0
 18 19  1  0
 19 20  1  0
 19 21  2  0
 21 22  1  0
 22 23  1  0
M  CHG  2  20  -1  21   1
M  END
