
     RDKit          3D

 23 23  0  0  0  0  0  0  0  0999 V2000
   -7.7600   -1.0730   -0.9540 C   0  0  0  0  0  0  0  0  0  0  0  0
   -6.9270   -0.0600   -0.7690 C   0  0  0  0  0  0  0  0  0  0  0  0
   -7.1690    1.2670   -1.3830 C   0  0  0  0  0  0  0  0  0  0  0  0
   -5.7310   -0.2470    0.0660 C   0  0  0  0  0  0  0  0  0  0  0  0
   -4.1890    0.0550   -0.8390 S   0  0  0  0  0  0  0  0  0  0  0  0
   -2.8280   -0.2040    0.2850 C   0  0  0  0  0  0  0  0  0  0  0  0
   -3.0190   -0.5370    1.4820 O   0  0  0  0  0  0  0  0  0  0  0  0
   -1.4650   -0.0480   -0.1140 N   0  0  0  0  0  0  0  0  0  0  0  0
   -0.3930   -0.2530    0.7740 C   0  0  0  0  0  0  0  0  0  0  0  0
   -0.5570   -0.5820    1.9600 O   0  0  0  0  0  0  0  0  0  0  0  0
    0.9880   -0.0690    0.2760 C   0  0  0  0  0  0  0  0  0  0  0  0
    1.1930    0.2620   -0.9130 O   0  0  0  0  0  0  0  0  0  0  0  0
    2.0980   -0.2640    1.1300 N   0  0  0  0  0  0  0  0  0  0  0  0
    3.4690   -0.1300    0.7950 C   0  0  0  0  0  0  0  0  0  0  0  0
    4.4050   -0.1070    1.8430 C   0  0  0  0  0  0  0  0  0  0  0  0
    5.7520    0.0030    1.6620 C   0  0  0  0  0  0  0  0  0  0  0  0
    6.2140    0.0970    0.3560 C   0  0  0  0  0  0  0  0  0  0  0  0
    7.6140    0.2110    0.1790 N   0  0  0  0  0  0  0  0  0  0  0  0
    5.3270    0.0760   -0.6710 C   0  0  0  0  0  0  0  0  0  0  0  0
    5.8100    0.1730   -2.0070 N   0  0  0  0  0  0  0  0  0  0  0  0
    5.2030   -0.3090   -2.9590 O   0  0  0  0  0  0  0  0  0  0  0  0
    6.9980    0.8280   -2.2400 O   0  0  0  0  0  0  0  0  0  0  0  0
    3.9480   -0.0370   -0.4890 C   0  0  0  0  0  0  0  0  0  0  0  0
  1  2  2  0
  2  3  1  0
  2  4  1  0
  4  5  1  0
  5  6  1  0
  6  7  2  0
  6  8  1  0
  8  9  1  0
  9 10  2  0
  9 11  1  0
 11 12  2  0
 11 13  1  0
 13 14  1  0
 14 15  2  0
 14 23  1  0
 15 16  1  0
 16 17  2  0
 17 18  1  0
 17 19  1  0
 19 20  1  0
 19 23  2  0
 20 21  2  0
 20 22  1  0
M  CHG  2  20   1  22  -1
M  END
