
     RDKit          3D

 25 26  0  0  0  0  0  0  0  0999 V2000
   -1.3250    2.7150    2.7580 C   0  0  0  0  0  0  0  0  0  0  0  0
   -1.3920    1.4140    2.2310 O   0  0  0  0  0  0  0  0  0  0  0  0
   -2.3630    0.9770    1.3580 C   0  0  0  0  0  0  0  0  0  0  0  0
   -3.2460    1.8110    1.0170 O   0  0  0  0  0  0  0  0  0  0  0  0
   -2.3900   -0.3470    0.8500 N   0  0  0  0  0  0  0  0  0  0  0  0
   -1.3190   -1.1850    1.3280 C   0  0  0  0  0  0  0  0  0  0  0  0
   -0.7830   -2.1230    0.2730 C   0  0  2  0  0  0  0  0  0  0  0  0
   -0.4720   -1.3450   -0.9620 C   0  0  0  0  0  0  0  0  0  0  0  0
    0.5540   -0.2850   -0.6760 C   0  0  0  0  0  0  0  0  0  0  0  0
    1.8120   -0.9260   -0.1770 C   0  0  0  0  0  0  0  0  0  0  0  0
    2.8420    0.0040    0.1030 O   0  0  0  0  0  0  0  0  0  0  0  0
    3.3980    0.8490   -0.8340 C   0  0  0  0  0  0  0  0  0  0  0  0
    2.9840    0.8070   -2.0040 O   0  0  0  0  0  0  0  0  0  0  0  0
    4.4680    1.7840   -0.4370 C   0  0  0  0  0  0  0  0  0  0  0  0
    5.0670    2.6260   -1.2310 C   0  0  0  0  0  0  0  0  0  0  0  0
    6.0700    3.3730   -0.4480 C   0  0  0  0  0  0  0  0  0  0  0  0
    5.9610    2.8380    0.9080 C   0  0  0  0  0  0  0  0  0  0  0  0
    5.0220    1.9120    0.8980 C   0  0  0  0  0  0  0  0  0  0  0  0
   -1.8420   -3.1860   -0.0160 C   0  0  0  0  0  0  0  0  0  0  0  0
   -2.7300   -2.7380   -1.0740 N   0  0  0  0  0  0  0  0  0  0  0  0
   -3.8760   -2.0260   -0.5690 C   0  0  2  0  0  0  0  0  0  0  0  0
   -4.7990   -1.8130   -1.7800 C   0  0  0  0  0  0  0  0  0  0  0  0
   -4.0210   -1.0570   -2.6880 O   0  0  0  0  0  0  0  0  0  0  0  0
   -3.4280   -0.7070   -0.0390 C   0  0  0  0  0  0  0  0  0  0  0  0
   -4.0800    0.3170   -0.4400 O   0  0  0  0  0  0  0  0  0  0  0  0
  1  2  1  0
  2  3  1  0
  3  4  2  0
  3  5  1  0
  5  6  1  0
  5 24  1  0
  6  7  1  0
  7  8  1  6
  7 19  1  0
  8  9  1  0
  9 10  1  0
 10 11  1  0
 11 12  1  0
 12 13  2  0
 12 14  1  0
 14 15  2  0
 14 18  1  0
 15 16  1  0
 16 17  1  0
 17 18  2  0
 19 20  1  0
 20 21  1  0
 21 22  1  6
 21 24  1  0
 22 23  1  0
 24 25  2  0
M  END
