
     RDKit          3D

 26 27  0  0  0  0  0  0  0  0999 V2000
   -3.2430    2.1670    1.2970 O   0  0  0  0  0  0  0  0  0  0  0  0
   -2.0010    2.3490    1.0990 C   0  0  0  0  0  0  0  0  0  0  0  0
   -1.0810    1.8470    1.9900 N   0  0  0  0  0  0  0  0  0  0  0  0
   -0.8350    0.6290    2.2290 C   0  0  0  0  0  0  0  0  0  0  0  0
    0.2370    0.3440    3.2730 C   0  0  0  0  0  0  0  0  0  0  0  0
    1.3200   -0.3110    2.6700 O   0  0  0  0  0  0  0  0  0  0  0  0
    2.0710    0.2050    1.6440 C   0  0  0  0  0  0  0  0  0  0  0  0
    1.7880    1.3540    1.1900 O   0  0  0  0  0  0  0  0  0  0  0  0
    3.1760   -0.5580    1.0880 C   0  0  0  0  0  0  0  0  0  0  0  0
    3.9560   -0.0630    0.0480 C   0  0  0  0  0  0  0  0  0  0  0  0
    4.9990   -0.8020   -0.4670 C   0  0  0  0  0  0  0  0  0  0  0  0
    5.2840   -2.0460    0.0450 C   0  0  0  0  0  0  0  0  0  0  0  0
    6.3430   -2.7840   -0.4850 O   0  0  0  0  0  0  0  0  0  0  0  0
    4.5190   -2.5550    1.0800 C   0  0  0  0  0  0  0  0  0  0  0  0
    3.4750   -1.8030    1.5870 C   0  0  0  0  0  0  0  0  0  0  0  0
   -1.5180   -0.3470    1.5650 O   0  0  0  0  0  0  0  0  0  0  0  0
   -1.6650   -0.4250    0.2070 C   0  0  0  0  0  0  0  0  0  0  0  0
   -2.4930   -1.6340   -0.2290 C   0  0  1  0  0  0  0  0  0  0  0  0
   -2.5540   -1.5660   -1.7420 C   0  0  0  0  0  0  0  0  0  0  0  0
   -2.4650   -3.0200   -2.1170 C   0  0  0  0  0  0  0  0  0  0  0  0
   -2.3490   -3.7540   -0.9550 O   0  0  0  0  0  0  0  0  0  0  0  0
   -1.7810   -2.9250    0.0060 C   0  0  0  0  0  0  0  0  0  0  0  0
   -1.6150    3.0880   -0.0690 N   0  0  0  0  0  0  0  0  0  0  0  0
   -2.6420    3.5810   -0.9490 C   0  0  0  0  0  0  0  0  0  0  0  0
   -2.0790    4.3310   -2.1250 C   0  0  0  0  0  0  0  0  0  0  0  0
   -1.3360    5.4290   -1.6790 O   0  0  0  0  0  0  0  0  0  0  0  0
  1  2  2  0
  2  3  1  0
  2 23  1  0
  3  4  2  3
  4  5  1  0
  4 16  1  0
  5  6  1  0
  6  7  1  0
  7  8  2  0
  7  9  1  0
  9 10  2  0
  9 15  1  0
 10 11  1  0
 11 12  2  0
 12 13  1  0
 12 14  1  0
 14 15  2  0
 16 17  1  0
 18 17  1  6
 18 19  1  0
 18 22  1  0
 19 20  1  0
 20 21  1  0
 21 22  1  0
 23 24  1  0
 24 25  1  0
 25 26  1  0
M  END
