
     RDKit          3D

 25 27  0  0  0  0  0  0  0  0999 V2000
   -1.0000    0.1290   -3.1390 O   0  0  0  0  0  0  0  0  0  0  0  0
   -0.1550   -0.2030   -2.2930 C   0  0  0  0  0  0  0  0  0  0  0  0
   -0.1130   -1.6190   -1.8120 C   0  0  0  0  0  0  0  0  0  0  0  0
    0.5100   -1.5860   -0.5060 N   0  0  0  0  0  0  0  0  0  0  0  0
   -0.0990   -2.2350    0.6240 C   0  0  0  0  0  0  0  0  0  0  0  0
   -0.9690   -1.3750    1.4680 C   0  0  0  0  0  0  0  0  0  0  0  0
   -2.0830   -0.8080    0.7650 N   0  0  0  0  0  0  0  0  0  0  0  0
   -3.0020    0.0470    1.4770 C   0  0  0  0  0  0  0  0  0  0  0  0
   -2.8160    0.2830    2.6930 O   0  0  0  0  0  0  0  0  0  0  0  0
   -4.1430    0.6390    0.7910 C   0  0  0  0  0  0  0  0  0  0  0  0
   -4.4440    0.4650   -0.4860 C   0  0  0  0  0  0  0  0  0  0  0  0
   -5.6720    1.2410   -0.7570 C   0  0  0  0  0  0  0  0  0  0  0  0
   -6.0100    1.7330    0.4060 C   0  0  0  0  0  0  0  0  0  0  0  0
   -5.1440    1.5140    1.3800 C   0  0  0  0  0  0  0  0  0  0  0  0
   -5.2010    2.0210    2.6710 O   0  0  0  0  0  0  0  0  0  0  0  0
    1.7700   -0.8990   -0.4060 C   0  0  0  0  0  0  0  0  0  0  0  0
    2.5990   -1.3490    0.4240 O   0  0  0  0  0  0  0  0  0  0  0  0
    1.9930    0.2700   -1.2760 C   0  0  2  0  0  0  0  0  0  0  0  0
    2.6990    1.3910   -0.5940 C   0  0  0  0  0  0  0  0  0  0  0  0
    4.0300    1.0280   -0.0900 C   0  0  0  0  0  0  0  0  0  0  0  0
    4.3980    0.5900    1.1610 C   0  0  0  0  0  0  0  0  0  0  0  0
    5.7690    0.3830    1.1230 C   0  0  0  0  0  0  0  0  0  0  0  0
    6.1690    0.7010   -0.1370 C   0  0  0  0  0  0  0  0  0  0  0  0
    5.1290    1.0780   -0.8340 O   0  0  0  0  0  0  0  0  0  0  0  0
    0.7320    0.7120   -1.8010 O   0  0  0  0  0  0  0  0  0  0  0  0
  1  2  2  0
  2  3  1  0
  2 25  1  0
  3  4  1  0
  4  5  1  0
  4 16  1  0
  5  6  1  0
  6  7  1  0
  7  8  1  0
  8  9  2  0
  8 10  1  0
 10 11  2  0
 10 14  1  0
 11 12  1  0
 12 13  2  0
 13 14  2  0
 14 15  1  0
 16 17  2  0
 16 18  1  0
 18 19  1  1
 18 25  1  0
 19 20  1  0
 20 21  2  0
 20 24  1  0
 21 22  1  0
 22 23  2  0
 23 24  1  0
M  END
