
     RDKit          3D

 27 29  0  0  0  0  0  0  0  0999 V2000
   -5.4730    2.2600    1.3700 C   0  0  0  0  0  0  0  0  0  0  0  0
   -5.2640    0.8970    0.8310 C   0  0  0  0  0  0  0  0  0  0  0  0
   -4.2000    0.6650    0.0980 C   0  0  0  0  0  0  0  0  0  0  0  0
   -3.2380    1.6490   -0.2050 O   0  0  0  0  0  0  0  0  0  0  0  0
   -1.8910    1.2080   -0.4420 C   0  0  1  0  0  0  0  0  0  0  0  0
   -1.3700    0.5630    0.8100 C   0  0  0  0  0  0  0  0  0  0  0  0
   -0.0190    0.1080    0.5960 N   0  0  0  0  0  0  0  0  0  0  0  0
    1.0700    0.9260    0.2510 C   0  0  0  0  0  0  0  0  0  0  0  0
    0.8800    2.1590    0.1100 O   0  0  0  0  0  0  0  0  0  0  0  0
    2.4520    0.3880    0.0420 C   0  0  1  0  0  0  0  0  0  0  0  0
    2.4580   -0.6660   -1.0550 C   0  0  0  0  0  0  0  0  0  0  0  0
    3.3640    1.4680   -0.3120 N   0  0  0  0  0  0  0  0  0  0  0  0
    4.7360    1.2780   -0.0110 C   0  0  0  0  0  0  0  0  0  0  0  0
    5.5730    2.0130   -0.5960 O   0  0  0  0  0  0  0  0  0  0  0  0
    5.2410    0.2810    0.9370 C   0  0  2  0  0  0  0  0  0  0  0  0
    6.3310   -0.5190    0.2460 C   0  0  0  0  0  0  0  0  0  0  0  0
    5.8310   -1.2990   -0.7700 O   0  0  0  0  0  0  0  0  0  0  0  0
    4.2330   -0.5430    1.5220 N   0  0  0  0  0  0  0  0  0  0  0  0
    2.8680   -0.2690    1.2920 C   0  0  0  0  0  0  0  0  0  0  0  0
    2.0100   -0.5810    2.1430 O   0  0  0  0  0  0  0  0  0  0  0  0
   -1.8570    0.1950   -1.5520 C   0  0  0  0  0  0  0  0  0  0  0  0
   -2.7710   -0.8810   -1.2590 N   0  0  0  0  0  0  0  0  0  0  0  0
   -2.7910   -2.2690   -1.6340 C   0  0  0  0  0  0  0  0  0  0  0  0
   -1.8680   -2.7830   -2.3340 O   0  0  0  0  0  0  0  0  0  0  0  0
   -4.0080   -2.8840   -1.0730 C   0  0  0  0  0  0  0  0  0  0  0  0
   -4.6450   -1.7790   -0.3340 C   0  0  0  0  0  0  0  0  0  0  0  0
   -3.9180   -0.6680   -0.4780 C   0  0  0  0  0  0  0  0  0  0  0  0
  1  2  1  0
  2  3  2  3
  3  4  1  0
  3 27  1  0
  4  5  1  0
  5  6  1  1
  5 21  1  0
  6  7  1  0
  7  8  1  0
  8  9  2  0
  8 10  1  0
 10 11  1  6
 10 12  1  0
 10 19  1  0
 12 13  1  0
 13 14  2  0
 13 15  1  0
 15 16  1  6
 15 18  1  0
 16 17  1  0
 18 19  1  0
 19 20  2  0
 21 22  1  0
 22 23  1  0
 22 27  1  0
 23 24  2  0
 23 25  1  0
 25 26  1  0
 26 27  2  0
M  END
