
     RDKit          3D

 16 17  0  0  0  0  0  0  0  0999 V2000
    5.5040   -0.5390    0.6120 O   0  0  0  0  0  0  0  0  0  0  0  0
    4.2160   -0.4400    0.5950 C   0  0  0  0  0  0  0  0  0  0  0  0
    3.6290    0.7000    1.1110 O   0  0  0  0  0  0  0  0  0  0  0  0
    3.4380   -1.5500    0.0290 C   0  0  0  0  0  0  0  0  0  0  0  0
    1.9520   -1.2700   -0.1110 C   0  0  0  0  0  0  0  0  0  0  0  0
    1.7530   -0.1440   -1.0520 C   0  0  0  0  0  0  0  0  0  0  0  0
    0.3470    0.2270   -1.3940 C   0  0  0  0  0  0  0  0  0  0  0  0
   -0.4570    0.6070   -0.2420 C   0  0  2  0  0  0  0  0  0  0  0  0
   -0.7150   -0.6550    1.0290 S   0  0  0  0  0  0  0  0  0  0  0  0
   -2.3070   -0.0320    1.6620 C   0  0  0  0  0  0  0  0  0  0  0  0
   -2.5690    1.1590    0.7610 C   0  0  2  0  0  0  0  0  0  0  0  0
   -3.9780    1.0410    0.3890 N   0  0  0  0  0  0  0  0  0  0  0  0
   -3.9800    0.0100   -0.5960 C   0  0  0  0  0  0  0  0  0  0  0  0
   -4.9990   -0.6070   -1.0000 O   0  0  0  0  0  0  0  0  0  0  0  0
   -2.6290   -0.2130   -1.0560 N   0  0  0  0  0  0  0  0  0  0  0  0
   -1.9030    0.9290   -0.5540 C   0  0  2  0  0  0  0  0  0  0  0  0
  1  2  2  0
  2  3  1  0
  2  4  1  0
  4  5  1  0
  5  6  1  0
  6  7  1  0
  8  7  1  6
  8  9  1  0
  8 16  1  0
  9 10  1  0
 11 10  1  1
 11 12  1  0
 11 16  1  0
 12 13  1  0
 13 14  2  0
 13 15  1  0
 16 15  1  1
M  END
