
     RDKit          3D

 27 29  0  0  0  0  0  0  0  0999 V2000
    4.7560    0.6010   -1.2220 C   0  0  0  0  0  0  0  0  0  0  0  0
    3.8690    1.6420   -0.6140 C   0  0  0  0  0  0  0  0  0  0  0  0
    2.4970    1.1590   -0.2730 C   0  0  0  0  0  0  0  0  0  0  0  0
    2.4650    0.0420    0.7030 C   0  0  2  0  0  0  0  0  0  0  0  0
    3.0610    0.3000    2.0330 C   0  0  0  0  0  0  0  0  0  0  0  0
    2.9650   -1.1680    0.0420 N   0  0  0  0  0  0  0  0  0  0  0  0
    1.8740   -1.5480   -0.8400 C   0  0  0  0  0  0  0  0  0  0  0  0
    2.0310   -2.1930   -1.8970 O   0  0  0  0  0  0  0  0  0  0  0  0
    0.6250   -1.0660   -0.3090 N   0  0  0  0  0  0  0  0  0  0  0  0
   -0.6830   -1.3740   -0.7700 C   0  0  0  0  0  0  0  0  0  0  0  0
   -1.7320   -0.6050   -0.5680 C   0  0  0  0  0  0  0  0  0  0  0  0
   -1.4210    0.5950    0.1420 N   0  0  0  0  0  0  0  0  0  0  0  0
   -2.1420    1.3880    1.0680 C   0  0  0  0  0  0  0  0  0  0  0  0
   -1.5080    2.4680    1.7840 C   0  0  0  0  0  0  0  0  0  0  0  0
   -0.3020    2.7230    1.5930 O   0  0  0  0  0  0  0  0  0  0  0  0
   -2.2240    3.2250    2.6830 O   0  0  0  0  0  0  0  0  0  0  0  0
   -3.4450    1.2200    1.3340 C   0  0  0  0  0  0  0  0  0  0  0  0
   -4.4310    0.2660    0.8070 C   0  0  0  0  0  0  0  0  0  0  0  0
   -3.8780   -1.0500    0.3900 C   0  0  0  0  0  0  0  0  0  0  0  0
   -3.1320   -0.9240   -0.9540 C   0  0  2  0  0  0  0  0  0  0  0  0
   -3.2990   -2.1160   -1.7620 C   0  0  0  0  0  0  0  0  0  0  0  0
   -4.4090   -2.3770   -2.2500 O   0  0  0  0  0  0  0  0  0  0  0  0
   -2.2150   -2.9870   -2.0010 N   0  0  0  0  0  0  0  0  0  0  0  0
   -0.9390   -2.6140   -1.5120 C   0  0  0  0  0  0  0  0  0  0  0  0
    0.0060   -3.3960   -1.7300 O   0  0  0  0  0  0  0  0  0  0  0  0
    1.0440   -0.4060    0.9010 C   0  0  0  0  0  0  0  0  0  0  0  0
    0.3810   -0.2400    1.9180 O   0  0  0  0  0  0  0  0  0  0  0  0
  1  2  1  0
  2  3  1  0
  3  4  1  0
  4  5  1  1
  4  6  1  0
  4 26  1  0
  6  7  1  0
  7  8  2  0
  7  9  1  0
  9 10  1  0
  9 26  1  0
 10 11  2  0
 10 24  1  0
 11 12  1  0
 11 20  1  0
 12 13  1  0
 13 14  1  0
 13 17  2  0
 14 15  2  0
 14 16  1  0
 17 18  1  0
 18 19  1  0
 20 19  1  1
 20 21  1  0
 21 22  2  0
 21 23  1  0
 23 24  1  0
 24 25  2  0
 26 27  2  0
M  END
