
     RDKit          3D

 27 29  0  0  0  0  0  0  0  0999 V2000
    5.6210    2.5230    1.7480 C   0  0  0  0  0  0  0  0  0  0  0  0
    4.6430    2.2720    0.7070 N   0  0  0  0  0  0  0  0  0  0  0  0
    4.2000    0.9750    0.3610 C   0  0  0  0  0  0  0  0  0  0  0  0
    4.6720   -0.0010    0.9800 O   0  0  0  0  0  0  0  0  0  0  0  0
    3.1880    0.7010   -0.7150 C   0  0  2  0  0  0  0  0  0  0  0  0
    2.7490    1.8680   -1.3190 O   0  0  0  0  0  0  0  0  0  0  0  0
    1.3550    1.9330   -1.2300 C   0  0  0  0  0  0  0  0  0  0  0  0
    0.7030    2.9200   -1.7200 O   0  0  0  0  0  0  0  0  0  0  0  0
    0.9130    0.7530   -0.5340 C   0  0  0  0  0  0  0  0  0  0  0  0
   -0.4060    0.3460   -0.1600 C   0  0  0  0  0  0  0  0  0  0  0  0
   -1.5800    0.8700   -0.3470 C   0  0  0  0  0  0  0  0  0  0  0  0
   -2.0640    2.0260   -0.9780 N   0  0  0  0  0  0  0  0  0  0  0  0
   -3.5070    2.1110   -0.8750 C   0  0  0  0  0  0  0  0  0  0  0  0
   -4.2340    3.0270   -1.3380 O   0  0  0  0  0  0  0  0  0  0  0  0
   -3.9270    0.9590   -0.1520 C   0  0  0  0  0  0  0  0  0  0  0  0
   -5.0840    0.3330    0.3400 C   0  0  0  0  0  0  0  0  0  0  0  0
   -6.4570    0.8500    0.1800 C   0  0  0  0  0  0  0  0  0  0  0  0
   -4.6690   -0.7670    0.9440 N   0  0  0  0  0  0  0  0  0  0  0  0
   -3.3250   -0.8740    0.8650 C   0  0  0  0  0  0  0  0  0  0  0  0
   -2.4930   -1.9670    1.4210 C   0  0  0  0  0  0  0  0  0  0  0  0
   -2.8360    0.2180    0.1700 C   0  0  0  0  0  0  0  0  0  0  0  0
    2.0260    0.0110   -0.2240 C   0  0  0  0  0  0  0  0  0  0  0  0
    1.9830   -1.1670    0.4380 O   0  0  0  0  0  0  0  0  0  0  0  0
    1.7320   -2.4640    0.0600 C   0  0  0  0  0  0  0  0  0  0  0  0
    2.6530   -3.0860   -0.9040 C   0  0  0  0  0  0  0  0  0  0  0  0
    2.4220   -4.4080   -1.3910 N   0  0  0  0  0  0  0  0  0  0  0  0
    3.6510   -2.4970   -1.3250 O   0  0  0  0  0  0  0  0  0  0  0  0
  1  2  1  0
  2  3  1  0
  3  4  2  0
  5  3  1  1
  5  6  1  0
  5 22  1  0
  6  7  1  0
  7  8  2  0
  7  9  1  0
  9 10  1  0
  9 22  2  0
 10 11  2  3
 11 12  1  0
 11 21  1  0
 12 13  1  0
 13 14  2  0
 13 15  1  0
 15 16  2  0
 15 21  1  0
 16 17  1  0
 16 18  1  0
 18 19  1  0
 19 20  1  0
 19 21  2  0
 22 23  1  0
 23 24  1  0
 24 25  1  0
 25 26  1  0
 25 27  2  0
M  END
