
     RDKit          3D

 18 19  0  0  0  0  0  0  0  0999 V2000
    3.5840   -0.7870   -1.7830 C   0  0  0  0  0  0  0  0  0  0  0  0
    3.7880   -0.1440   -0.6740 C   0  0  0  0  0  0  0  0  0  0  0  0
    2.7810    0.6030    0.0380 C   0  0  0  0  0  0  0  0  0  0  0  0
    3.1840    1.2220    1.1620 C   0  0  0  0  0  0  0  0  0  0  0  0
    4.5670    1.1420    1.6370 C   0  0  0  0  0  0  0  0  0  0  0  0
    1.3400    0.6850   -0.3640 C   0  0  1  0  0  0  0  0  0  0  0  0
    1.3860    0.9790   -1.7450 O   0  0  0  0  0  0  0  0  0  0  0  0
    0.6670   -0.5900   -0.1680 C   0  0  1  0  0  0  0  0  0  0  0  0
    0.5510   -1.0480    1.2780 C   0  0  0  0  0  0  0  0  0  0  0  0
   -0.2310   -2.3300    1.0530 C   0  0  0  0  0  0  0  0  0  0  0  0
   -0.7430   -2.2350   -0.3950 C   0  0  0  0  0  0  0  0  0  0  0  0
   -0.6550   -0.7710   -0.6250 N   0  0  1  0  0  0  0  0  0  0  0  0
   -1.7660   -0.2200    0.0680 C   0  0  1  0  0  0  0  0  0  0  0  0
   -1.7410    1.2460    0.2950 C   0  0  0  0  0  0  0  0  0  0  0  0
   -3.1440    1.8590    0.4370 C   0  0  0  0  0  0  0  0  0  0  0  0
   -3.7620    1.5670   -0.9410 C   0  0  0  0  0  0  0  0  0  0  0  0
   -4.1420    0.1310   -0.8100 C   0  0  0  0  0  0  0  0  0  0  0  0
   -3.0020   -0.7750   -0.5700 C   0  0  0  0  0  0  0  0  0  0  0  0
  1  2  2  0
  2  3  1  0
  3  4  2  3
  3  6  1  0
  4  5  1  0
  6  7  1  6
  6  8  1  0
  8  9  1  1
  8 12  1  0
  9 10  1  0
 10 11  1  0
 12 11  1  1
 12 13  1  0
 13 14  1  6
 13 18  1  0
 14 15  1  0
 15 16  1  0
 16 17  1  0
 17 18  1  0
M  CHG  1  12   1
M  END
