
     RDKit          3D

 18 20  0  0  0  0  0  0  0  0999 V2000
    4.5600    1.3020   -0.6950 C   0  0  0  0  0  0  0  0  0  0  0  0
    3.5180    0.4820   -0.0050 C   0  0  2  0  0  0  0  0  0  0  0  0
    4.1380   -0.7800    0.6120 C   0  0  0  0  0  0  0  0  0  0  0  0
    2.9930   -1.6940    0.9470 C   0  0  0  0  0  0  0  0  0  0  0  0
    1.6640   -0.9430    1.0240 C   0  0  0  0  0  0  0  0  0  0  0  0
    1.2490   -0.5400   -0.3550 C   0  0  1  0  0  0  0  0  0  0  0  0
    0.3240    0.5590   -0.3890 N   0  0  0  0  0  0  0  0  0  0  0  0
   -0.8540    0.4260    0.4110 C   0  0  1  0  0  0  0  0  0  0  0  0
   -1.2680    1.9080    0.5710 C   0  0  1  0  0  0  0  0  0  0  0  0
   -1.4920    2.7040   -0.6690 C   0  0  0  0  0  0  0  0  0  0  0  0
   -2.5930    2.4170    0.2760 C   0  0  0  0  0  0  0  0  0  0  0  0
   -1.9880   -0.3440   -0.0830 C   0  0  2  0  0  0  0  0  0  0  0  0
   -3.1170   -0.4720    0.9190 C   0  0  0  0  0  0  0  0  0  0  0  0
   -4.3590   -0.8700    0.1540 C   0  0  0  0  0  0  0  0  0  0  0  0
   -3.9400   -1.7830   -0.9840 C   0  0  0  0  0  0  0  0  0  0  0  0
   -2.8740   -2.5440   -0.5000 O   0  0  0  0  0  0  0  0  0  0  0  0
   -1.7020   -1.7650   -0.4940 C   0  0  0  0  0  0  0  0  0  0  0  0
    2.5270   -0.0210   -1.0430 C   0  0  0  0  0  0  0  0  0  0  0  0
  2  1  1  6
  2  3  1  0
  2 18  1  0
  3  4  1  0
  4  5  1  0
  5  6  1  0
  6  7  1  1
  6 18  1  0
  8  7  1  6
  8  9  1  0
  8 12  1  0
  9 10  1  6
  9 11  1  0
 10 11  1  0
 12 13  1  1
 12 17  1  0
 13 14  1  0
 14 15  1  0
 15 16  1  0
 16 17  1  0
M  CHG  1   7   1
M  END
