
     RDKit          3D

 18 20  0  0  0  0  0  0  0  0999 V2000
    5.9140   -0.0090   -1.0070 C   0  0  0  0  0  0  0  0  0  0  0  0
    5.4000   -0.9000    0.0760 C   0  0  0  0  0  0  0  0  0  0  0  0
    4.0330   -1.4740   -0.2220 C   0  0  0  0  0  0  0  0  0  0  0  0
    3.0470   -0.3440   -0.3940 C   0  0  2  0  0  0  0  0  0  0  0  0
    2.9640    0.4840    0.8460 C   0  0  0  0  0  0  0  0  0  0  0  0
    1.4900    0.9690    0.7480 C   0  0  0  0  0  0  0  0  0  0  0  0
    0.8710   -0.2570    0.1920 C   0  0  1  0  0  0  0  0  0  0  0  0
   -0.5000   -0.1520   -0.3890 C   0  0  0  0  0  0  0  0  0  0  0  0
   -1.5710    0.2780    0.5120 C   0  0  1  0  0  0  0  0  0  0  0  0
   -1.3820    1.6310    1.0860 C   0  0  0  0  0  0  0  0  0  0  0  0
   -2.7680    2.2600    1.0690 C   0  0  0  0  0  0  0  0  0  0  0  0
   -3.5260    1.5470    0.0800 N   0  0  0  0  0  0  0  0  0  0  0  0
   -2.9540    0.2360   -0.0470 C   0  0  2  0  0  0  0  0  0  0  0  0
   -3.8160   -0.7250    0.7390 C   0  0  0  0  0  0  0  0  0  0  0  0
   -4.5580   -1.5690   -0.2780 C   0  0  0  0  0  0  0  0  0  0  0  0
   -3.5130   -1.6500   -1.3980 C   0  0  0  0  0  0  0  0  0  0  0  0
   -3.0580   -0.2090   -1.4580 C   0  0  0  0  0  0  0  0  0  0  0  0
    1.7920   -0.7590   -0.7320 O   0  0  0  0  0  0  0  0  0  0  0  0
  1  2  1  0
  2  3  1  0
  4  3  1  1
  4  5  1  0
  4 18  1  0
  5  6  1  0
  6  7  1  0
  7  8  1  6
  7 18  1  0
  9  8  1  6
  9 10  1  0
  9 13  1  0
 10 11  1  0
 11 12  1  0
 12 13  1  0
 13 14  1  1
 13 17  1  0
 14 15  1  0
 15 16  1  0
 16 17  1  0
M  CHG  1  12   1
M  END
