
     RDKit          3D

 18 20  0  0  0  0  0  0  0  0999 V2000
    1.7330   -3.5750   -0.7650 C   0  0  0  0  0  0  0  0  0  0  0  0
    0.5900   -2.5890   -0.9140 C   0  0  0  0  0  0  0  0  0  0  0  0
    1.0190   -1.2950   -0.2200 C   0  0  1  0  0  0  0  0  0  0  0  0
    2.2720   -0.8610   -0.9540 C   0  0  0  0  0  0  0  0  0  0  0  0
    2.6760    0.5530   -0.6370 C   0  0  0  0  0  0  0  0  0  0  0  0
    1.9460    0.9410    0.6220 C   0  0  1  0  0  0  0  0  0  0  0  0
    2.3370    2.3440    1.0310 C   0  0  2  0  0  0  0  0  0  0  0  0
    3.8030    2.5140    1.3050 C   0  0  0  0  0  0  0  0  0  0  0  0
    2.8130    2.5320    2.4220 C   0  0  0  0  0  0  0  0  0  0  0  0
    0.4770    0.9190    0.3410 C   0  0  0  0  0  0  0  0  0  0  0  0
    0.0000   -0.2790   -0.3060 N   0  0  2  0  0  0  0  0  0  0  0  0
   -1.2290   -0.6820    0.3420 C   0  0  0  0  0  0  0  0  0  0  0  0
   -2.4200   -0.3730   -0.5490 C   0  0  1  0  0  0  0  0  0  0  0  0
   -2.3420   -1.0320   -1.7540 O   0  0  0  0  0  0  0  0  0  0  0  0
   -3.7050   -0.7680    0.1320 C   0  0  0  0  0  0  0  0  0  0  0  0
   -4.5920    0.4300    0.1550 C   0  0  0  0  0  0  0  0  0  0  0  0
   -4.0650    1.3560   -0.8890 C   0  0  0  0  0  0  0  0  0  0  0  0
   -2.5610    1.1140   -0.8130 C   0  0  0  0  0  0  0  0  0  0  0  0
  1  2  1  0
  3  2  1  6
  3  4  1  0
  3 11  1  0
  4  5  1  0
  6  5  1  6
  6  7  1  0
  6 10  1  0
  7  8  1  6
  7  9  1  0
  8  9  1  0
 10 11  1  0
 11 12  1  1
 12 13  1  0
 13 14  1  6
 13 15  1  0
 13 18  1  0
 15 16  1  0
 16 17  1  0
 17 18  1  0
M  CHG  1  11   1
M  END
