
     RDKit          3D

 38 42  0  0  0  0  0  0  0  0999 V2000
   -3.5800   -4.1680    1.2430 N   0  0  0  0  0  0  0  0  0  0  0  0
   -3.4650   -2.7580    1.0390 C   0  0  0  0  0  0  0  0  0  0  0  0
   -2.2250   -2.2000    0.8000 C   0  0  0  0  0  0  0  0  0  0  0  0
   -2.1260   -0.8430    0.6060 C   0  0  0  0  0  0  0  0  0  0  0  0
   -0.9010   -0.1670    0.3570 N   0  0  0  0  0  0  0  0  0  0  0  0
    0.3750   -0.7450    0.2810 C   0  0  0  0  0  0  0  0  0  0  0  0
    0.5160   -1.9720    0.4380 O   0  0  0  0  0  0  0  0  0  0  0  0
    1.5620    0.0040    0.0290 N   0  0  0  0  0  0  0  0  0  0  0  0
    2.8450   -0.6510   -0.0370 C   0  0  0  0  0  0  0  0  0  0  0  0
    3.9740    0.2990   -0.3040 C   0  0  1  0  0  0  0  0  0  0  0  0
    4.1460    1.3500    0.7000 C   0  0  0  0  0  0  0  0  0  0  0  0
    3.6050    2.6170    0.5780 C   0  0  0  0  0  0  0  0  0  0  0  0
    3.8340    3.5210    1.5880 C   0  0  0  0  0  0  0  0  0  0  0  0
    4.5620    3.2150    2.6820 N   0  0  0  0  0  0  0  0  0  0  0  0
    5.0980    1.9990    2.8300 C   0  0  0  0  0  0  0  0  0  0  0  0
    4.8860    1.0620    1.8280 C   0  0  0  0  0  0  0  0  0  0  0  0
    5.4550   -0.3090    1.9210 C   0  0  0  0  0  0  0  0  0  0  0  0
    5.9220   -0.8040    0.6040 C   0  0  0  0  0  0  0  0  0  0  0  0
    5.2220   -0.3610   -0.5490 N   0  0  0  0  0  0  0  0  0  0  0  0
    5.1100   -1.3800   -1.5770 C   0  0  0  0  0  0  0  0  0  0  0  0
    6.5030   -1.6310   -2.1220 C   0  0  0  0  0  0  0  0  0  0  0  0
    7.1080   -0.4700   -2.6970 N   0  0  0  0  0  0  0  0  0  0  0  0
   -3.3200   -0.0990    0.6650 C   0  0  0  0  0  0  0  0  0  0  0  0
   -3.1350    1.2800    0.5160 N   0  0  0  0  0  0  0  0  0  0  0  0
   -4.5580   -0.6170    0.8950 C   0  0  0  0  0  0  0  0  0  0  0  0
   -5.6710    0.1760    0.9570 C   0  0  0  0  0  0  0  0  0  0  0  0
   -5.6990    1.5870    0.6730 C   0  0  0  0  0  0  0  0  0  0  0  0
   -5.8790    1.9590   -0.7830 C   0  0  0  0  0  0  0  0  0  0  0  0
   -5.2190    2.7850   -1.5560 C   0  0  0  0  0  0  0  0  0  0  0  0
   -5.7350    2.8450   -2.9190 C   0  0  0  0  0  0  0  0  0  0  0  0
   -6.8630    1.8970   -2.8810 C   0  0  0  0  0  0  0  0  0  0  0  0
   -6.9230    1.4110   -1.6650 C   0  0  0  0  0  0  0  0  0  0  0  0
   -8.1420    0.2390   -1.1940 Cl  0  0  0  0  0  0  0  0  0  0  0  0
   -6.8460   -0.5120    1.2350 N   0  0  0  0  0  0  0  0  0  0  0  0
   -6.9430   -1.8030    1.4250 C   0  0  0  0  0  0  0  0  0  0  0  0
   -8.4780   -2.5690    1.7690 Cl  0  0  0  0  0  0  0  0  0  0  0  0
   -5.8300   -2.5980    1.3580 C   0  0  0  0  0  0  0  0  0  0  0  0
   -4.6220   -1.9980    1.0890 C   0  0  0  0  0  0  0  0  0  0  0  0
  1  2  1  0
  2  3  2  0
  2 38  1  0
  3  4  1  0
  4  5  1  0
  4 23  2  0
  5  6  1  0
  6  7  2  0
  6  8  1  0
  8  9  1  0
 10  9  1  1
 10 11  1  0
 10 19  1  0
 11 12  2  0
 11 16  1  0
 12 13  1  0
 13 14  2  0
 14 15  1  0
 15 16  2  0
 16 17  1  0
 17 18  1  0
 18 19  1  0
 19 20  1  0
 20 21  1  0
 21 22  1  0
 23 24  1  0
 23 25  1  0
 25 26  2  0
 25 38  1  0
 26 27  1  0
 26 34  1  0
 27 28  1  0
 28 29  2  0
 28 32  1  0
 29 30  1  0
 30 31  1  0
 31 32  2  0
 32 33  1  0
 34 35  2  0
 35 36  1  0
 35 37  1  0
 37 38  2  0
M  CHG  1  22   1
M  END
