
     RDKit          3D

 17 17  0  0  0  0  0  0  0  0999 V2000
    3.9020    1.7340   -0.6040 C   0  0  0  0  0  0  0  0  0  0  0  0
    2.7010    1.0400   -0.3400 O   0  0  0  0  0  0  0  0  0  0  0  0
    2.6200   -0.1170    0.3730 C   0  0  0  0  0  0  0  0  0  0  0  0
    3.6240   -0.6460    0.8460 O   0  0  0  0  0  0  0  0  0  0  0  0
    1.2360   -0.8000    0.6060 C   0  0  0  0  0  0  0  0  0  0  0  0
    0.2820   -0.1580    0.0720 C   0  0  0  0  0  0  0  0  0  0  0  0
   -1.1150   -0.0330   -0.1850 C   0  0  0  0  0  0  0  0  0  0  0  0
   -1.4910    0.9780   -1.0150 C   0  0  0  0  0  0  0  0  0  0  0  0
   -0.5240    1.8750   -1.5920 N   0  0  0  0  0  0  0  0  0  0  0  0
   -2.8690    1.1790   -1.4530 C   0  0  0  0  0  0  0  0  0  0  0  0
   -3.8520    0.6070   -0.6340 N   0  0  0  0  0  0  0  0  0  0  0  0
   -3.4460   -0.3940    0.1870 N   0  0  0  0  0  0  0  0  0  0  0  0
   -2.2120   -0.7420    0.4410 C   0  0  0  0  0  0  0  0  0  0  0  0
   -1.9870   -1.7920    1.4550 C   0  0  0  0  0  0  0  0  0  0  0  0
    1.4220   -2.0570    1.2060 C   0  0  0  0  0  0  0  0  0  0  0  0
    2.7380   -2.3860    1.7910 N   0  0  0  0  0  0  0  0  0  0  0  0
    0.6430   -2.9910    1.3320 O   0  0  0  0  0  0  0  0  0  0  0  0
  1  2  1  0
  2  3  1  0
  3  4  2  0
  3  5  1  0
  5  6  2  3
  5 15  1  0
  6  7  1  0
  7  8  2  0
  7 13  1  0
  8  9  1  0
  8 10  1  0
 10 11  1  0
 11 12  1  0
 12 13  2  0
 13 14  1  0
 15 16  1  0
 15 17  2  0
M  CHG  1  11   1
M  END
