
     RDKit          3D

 17 18  0  0  0  0  0  0  0  0999 V2000
    4.4720    0.6000    0.7890 N   0  0  0  0  0  0  0  0  0  0  0  0
    3.3550   -0.3150    0.8590 C   0  0  1  0  0  0  0  0  0  0  0  0
    2.0020    0.3190    0.5980 C   0  0  0  0  0  0  0  0  0  0  0  0
    1.6620   -0.9090   -0.2090 C   0  0  1  0  0  0  0  0  0  0  0  0
    0.8910   -0.6510   -1.4790 C   0  0  0  0  0  0  0  0  0  0  0  0
   -0.4130    0.0190   -1.1150 C   0  0  0  0  0  0  0  0  0  0  0  0
   -1.2540   -0.8450   -0.1980 C   0  0  0  0  0  0  0  0  0  0  0  0
   -2.4680   -0.1090    0.0810 N   0  0  0  0  0  0  0  0  0  0  0  0
   -2.5810    0.7340    1.1220 C   0  0  0  0  0  0  0  0  0  0  0  0
   -1.6100    0.9040    1.8930 O   0  0  0  0  0  0  0  0  0  0  0  0
   -3.7440    1.4090    1.3510 N   0  0  0  0  0  0  0  0  0  0  0  0
   -4.7810    1.2080    0.5030 C   0  0  0  0  0  0  0  0  0  0  0  0
   -5.8560    1.8160    0.6930 O   0  0  0  0  0  0  0  0  0  0  0  0
   -4.6910    0.3720   -0.5420 N   0  0  0  0  0  0  0  0  0  0  0  0
   -3.5310   -0.2710   -0.7300 C   0  0  0  0  0  0  0  0  0  0  0  0
   -3.4240   -1.0510   -1.6930 O   0  0  0  0  0  0  0  0  0  0  0  0
    3.1540   -1.0940   -0.4260 C   0  0  0  0  0  0  0  0  0  0  0  0
  2  1  1  6
  2  3  1  0
  2 17  1  0
  3  4  1  0
  4  5  1  6
  4 17  1  0
  5  6  1  0
  6  7  1  0
  7  8  1  0
  8  9  1  0
  8 15  1  0
  9 10  2  0
  9 11  1  0
 11 12  1  0
 12 13  2  0
 12 14  1  0
 14 15  1  0
 15 16  2  0
M  CHG  1   1   1
M  END
