
     RDKit          3D

 17 18  0  0  0  0  0  0  0  0999 V2000
    0.1430   -2.3610   -1.4350 N   0  0  0  0  0  0  0  0  0  0  0  0
   -0.5290   -1.2990   -0.7420 C   0  0  0  0  0  0  0  0  0  0  0  0
   -0.1040   -0.0630   -0.6320 C   0  0  0  0  0  0  0  0  0  0  0  0
    1.0870    0.4660   -1.1680 O   0  0  0  0  0  0  0  0  0  0  0  0
    2.3090    0.2420   -0.5510 C   0  0  0  0  0  0  0  0  0  0  0  0
    2.4400   -0.5000    0.6070 C   0  0  0  0  0  0  0  0  0  0  0  0
    3.6970   -0.6660    1.1430 C   0  0  0  0  0  0  0  0  0  0  0  0
    4.7830   -0.1120    0.5460 N   0  0  0  0  0  0  0  0  0  0  0  0
    4.6520    0.5890   -0.5510 N   0  0  0  0  0  0  0  0  0  0  0  0
    3.4410    0.7820   -1.1180 C   0  0  0  0  0  0  0  0  0  0  0  0
    3.3120    1.5380   -2.2960 O   0  0  0  0  0  0  0  0  0  0  0  0
   -1.1120    0.6760    0.1630 C   0  0  0  0  0  0  0  0  0  0  0  0
   -2.1320   -0.3300    0.4640 C   0  0  0  0  0  0  0  0  0  0  0  0
   -3.4030   -0.1970    1.2370 C   0  0  0  0  0  0  0  0  0  0  0  0
   -4.3210    0.8110    0.6280 C   0  0  0  0  0  0  0  0  0  0  0  0
   -3.7370    2.0720    0.5810 O   0  0  0  0  0  0  0  0  0  0  0  0
   -1.7530   -1.4270   -0.0700 N   0  0  0  0  0  0  0  0  0  0  0  0
  1  2  1  0
  2  3  2  0
  2 17  1  0
  3  4  1  0
  3 12  1  0
  4  5  1  0
  5  6  2  0
  5 10  1  0
  6  7  1  0
  7  8  2  0
  8  9  1  0
  9 10  2  0
 10 11  1  0
 12 13  1  0
 13 14  1  0
 13 17  2  0
 14 15  1  0
 15 16  1  0
M  CHG  1   8   1
M  END
