
     RDKit          3D

 16 16  0  0  0  0  0  0  0  0999 V2000
   -1.3670   -0.5570    2.7600 C   0  0  0  0  0  0  0  0  0  0  0  0
   -1.0220   -1.0250    1.5050 O   0  0  0  0  0  0  0  0  0  0  0  0
   -1.2870   -0.3370    0.2990 C   0  0  0  0  0  0  0  0  0  0  0  0
   -2.4980    0.1060    0.1270 C   0  0  0  0  0  0  0  0  0  0  0  0
   -3.1110    0.8400   -0.9760 C   0  0  0  0  0  0  0  0  0  0  0  0
   -3.5700    2.0660   -0.4510 O   0  0  0  0  0  0  0  0  0  0  0  0
   -0.2410   -0.1450   -0.6900 C   0  0  2  0  0  0  0  0  0  0  0  0
   -0.1130    1.1900   -1.3250 C   0  0  0  0  0  0  0  0  0  0  0  0
   -0.4070   -1.1780   -1.8190 C   0  0  0  0  0  0  0  0  0  0  0  0
    0.9290   -1.1790   -2.3730 N   0  0  0  0  0  0  0  0  0  0  0  0
    1.7810   -0.8170   -1.4740 C   0  0  0  0  0  0  0  0  0  0  0  0
    3.1980   -0.7180   -1.7120 N   0  0  0  0  0  0  0  0  0  0  0  0
    1.0850   -0.5370   -0.2360 N   0  0  0  0  0  0  0  0  0  0  0  0
    1.6940   -0.6510    1.0410 C   0  0  0  0  0  0  0  0  0  0  0  0
    1.8760    0.7150    1.6940 C   0  0  0  0  0  0  0  0  0  0  0  0
    2.4660    0.6120    2.9430 O   0  0  0  0  0  0  0  0  0  0  0  0
  1  2  1  0
  2  3  1  0
  3  4  2  3
  3  7  1  0
  4  5  1  0
  5  6  1  0
  7  8  1  6
  7  9  1  0
  7 13  1  0
  9 10  1  0
 10 11  2  0
 11 12  1  0
 11 13  1  0
 13 14  1  0
 14 15  1  0
 15 16  1  0
M  CHG  1  10   1
M  END
