
     RDKit          3D

 23 25  0  0  0  0  0  0  0  0999 V2000
   -4.0490   -1.0060   -2.4880 C   0  0  0  0  0  0  0  0  0  0  0  0
   -3.0000   -1.1970   -1.4090 C   0  0  2  0  0  0  0  0  0  0  0  0
   -3.5660   -1.6970   -0.1140 C   0  0  0  0  0  0  0  0  0  0  0  0
   -4.0910   -0.6420    0.7950 C   0  0  0  0  0  0  0  0  0  0  0  0
   -3.6360    0.6960    0.2550 C   0  0  1  0  0  0  0  0  0  0  0  0
   -4.1940    1.8620    0.9860 C   0  0  0  0  0  0  0  0  0  0  0  0
   -3.7230    2.1240    2.2320 O   0  0  0  0  0  0  0  0  0  0  0  0
   -2.2410    0.7040   -0.0210 N   0  0  1  0  0  0  0  0  0  0  0  0
   -1.3510    0.1450    0.9200 C   0  0  0  0  0  0  0  0  0  0  0  0
   -0.5580    1.0880    1.7680 C   0  0  0  0  0  0  0  0  0  0  0  0
    0.4710    2.1480    0.7320 S   0  0  0  0  0  0  0  0  0  0  0  0
    1.7460    1.2040   -0.0360 C   0  0  0  0  0  0  0  0  0  0  0  0
    1.5600    0.6370   -1.2270 N   0  0  0  0  0  0  0  0  0  0  0  0
    2.5420   -0.0930   -1.8310 C   0  0  0  0  0  0  0  0  0  0  0  0
    3.7250   -0.2560   -1.2320 N   0  0  0  0  0  0  0  0  0  0  0  0
    3.9480    0.3020   -0.0310 C   0  0  0  0  0  0  0  0  0  0  0  0
    5.1930    0.1560    0.6520 N   0  0  0  0  0  0  0  0  0  0  0  0
    6.3250   -0.5690    0.1600 C   0  0  1  0  0  0  0  0  0  0  0  0
    6.0040   -2.0440   -0.1150 C   0  0  0  0  0  0  0  0  0  0  0  0
    6.4690   -1.0870   -1.1990 C   0  0  0  0  0  0  0  0  0  0  0  0
    2.9540    1.0480    0.5950 C   0  0  0  0  0  0  0  0  0  0  0  0
    3.1940    1.6470    1.8850 N   0  0  0  0  0  0  0  0  0  0  0  0
   -2.0690   -0.0180   -1.2770 C   0  0  0  0  0  0  0  0  0  0  0  0
  2  1  1  6
  2  3  1  0
  2 23  1  0
  3  4  1  0
  4  5  1  0
  5  6  1  1
  5  8  1  0
  6  7  1  0
  8  9  1  1
  8 23  1  0
  9 10  1  0
 10 11  1  0
 11 12  1  0
 12 13  2  0
 12 21  1  0
 13 14  1  0
 14 15  2  0
 15 16  1  0
 16 17  1  0
 16 21  2  0
 18 17  1  6
 18 19  1  0
 18 20  1  0
 19 20  1  0
 21 22  1  0
M  CHG  1   8   1
M  END
