
     RDKit          3D

 12 11  0  0  0  0  0  0  0  0999 V2000
   -2.0200    0.7560   -2.1570 O   0  0  0  0  0  0  0  0  0  0  0  0
   -2.0870    0.2770   -1.0030 C   0  0  0  0  0  0  0  0  0  0  0  0
   -3.4110    0.0200   -0.3320 C   0  0  0  0  0  0  0  0  0  0  0  0
   -3.2200   -0.5090    0.9290 O   0  0  0  0  0  0  0  0  0  0  0  0
   -0.8880   -0.0320   -0.3110 N   0  0  0  0  0  0  0  0  0  0  0  0
    0.4120    0.1840   -0.8850 C   0  0  0  0  0  0  0  0  0  0  0  0
    0.4520    0.6670   -2.0450 O   0  0  0  0  0  0  0  0  0  0  0  0
    1.6180   -0.1440   -0.1450 C   0  0  0  0  0  0  0  0  0  0  0  0
    1.4920   -0.8180    1.4770 S   0  0  0  0  0  0  0  0  0  0  0  0
    2.7790    0.0790   -0.7300 C   0  0  0  0  0  0  0  0  0  0  0  0
    4.3200   -0.3000    0.1180 S   0  0  0  0  0  0  0  0  0  0  0  0
    4.9880    1.1930    0.6330 O   0  0  0  0  0  0  0  0  0  0  0  0
  1  2  2  0
  2  3  1  0
  2  5  1  0
  3  4  1  0
  5  6  1  0
  6  7  2  0
  6  8  1  0
  8  9  1  0
  8 10  2  3
 10 11  1  0
 11 12  1  0
M  END
