
     RDKit          3D

 13 13  0  0  0  0  0  0  0  0999 V2000
    4.3870   -0.4860   -0.4350 O   0  0  0  0  0  0  0  0  0  0  0  0
    3.1290   -0.2580   -0.2050 C   0  0  0  0  0  0  0  0  0  0  0  0
    2.4760    0.2550    0.8100 N   0  0  0  0  0  0  0  0  0  0  0  0
    1.1780    0.3590    0.7490 C   0  0  0  0  0  0  0  0  0  0  0  0
    0.5120   -0.0470   -0.3250 C   0  0  0  0  0  0  0  0  0  0  0  0
   -0.9090   -0.0520   -0.6660 C   0  0  0  0  0  0  0  0  0  0  0  0
   -1.2740   -0.5290   -1.8220 C   0  0  0  0  0  0  0  0  0  0  0  0
   -2.9570   -0.5860   -2.3390 Cl  0  0  0  0  0  0  0  0  0  0  0  0
   -2.0900    0.5640    0.4430 S   0  0  2  0  0  0  0  0  0  0  0  0
   -3.2720    1.1640   -0.2660 O   0  0  0  0  0  0  0  0  0  0  0  0
   -1.5540    1.6450    1.3430 O   0  0  0  0  0  0  0  0  0  0  0  0
   -2.6450   -0.6620    1.4820 O   0  0  0  0  0  0  0  0  0  0  0  0
    1.7970   -0.6420   -1.3830 S   0  0  0  0  0  0  0  0  0  0  0  0
  1  2  2  0
  2  3  1  0
  2 13  1  0
  3  4  1  0
  4  5  2  0
  5  6  1  0
  5 13  1  0
  6  7  2  3
  6  9  1  0
  7  8  1  0
  9 10  2  0
  9 11  2  0
  9 12  1  1
M  END
