
     RDKit          3D

 23 25  0  0  0  0  0  0  0  0999 V2000
   -4.0720   -2.4120    1.4290 C   0  0  0  0  0  0  0  0  0  0  0  0
   -4.2710   -0.9930    1.0060 C   0  0  0  0  0  0  0  0  0  0  0  0
   -3.5670   -0.5980   -0.2440 C   0  0  2  0  0  0  0  0  0  0  0  0
   -4.0800   -1.4840   -1.3690 C   0  0  0  0  0  0  0  0  0  0  0  0
   -2.1560   -0.7230   -0.2550 N   0  0  0  0  0  0  0  0  0  0  0  0
   -1.3980    0.1270   -1.0760 C   0  0  1  0  0  0  0  0  0  0  0  0
   -1.9930    1.4820   -1.3520 C   0  0  0  0  0  0  0  0  0  0  0  0
   -2.2080    2.2600   -0.0980 C   0  0  0  0  0  0  0  0  0  0  0  0
   -2.7670    3.5600   -0.2360 N   0  0  0  0  0  0  0  0  0  0  0  0
   -1.9310    1.8420    1.0390 O   0  0  0  0  0  0  0  0  0  0  0  0
    0.0060    0.2260   -0.6110 C   0  0  0  0  0  0  0  0  0  0  0  0
    0.7090    1.3530   -0.5050 N   0  0  0  0  0  0  0  0  0  0  0  0
    1.9590    1.3610   -0.0810 C   0  0  0  0  0  0  0  0  0  0  0  0
    2.6010    0.1680    0.2790 C   0  0  0  0  0  0  0  0  0  0  0  0
    1.8660   -0.9850    0.1650 C   0  0  0  0  0  0  0  0  0  0  0  0
    0.6190   -0.9370   -0.2650 N   0  0  0  0  0  0  0  0  0  0  0  0
    2.7240   -2.5140    0.6150 S   0  0  0  0  0  0  0  0  0  0  0  0
    4.4110   -2.1900    0.1430 C   0  0  0  0  0  0  0  0  0  0  0  0
    4.8380   -0.9490    0.2520 C   0  0  0  0  0  0  0  0  0  0  0  0
    6.1160   -0.3630   -0.0390 N   0  0  0  0  0  0  0  0  0  0  0  0
    6.1880    0.9150    0.6080 C   0  0  0  0  0  0  0  0  0  0  0  0
    4.7460    1.3970    0.4640 C   0  0  0  0  0  0  0  0  0  0  0  0
    3.9730    0.1400    0.7670 C   0  0  1  0  0  0  0  0  0  0  0  0
  1  2  1  0
  2  3  1  0
  3  4  1  6
  3  5  1  0
  5  6  1  0
  6  7  1  1
  6 11  1  0
  7  8  1  0
  8  9  1  0
  8 10  2  0
 11 12  2  0
 11 16  1  0
 12 13  1  0
 13 14  2  0
 14 15  1  0
 14 23  1  0
 15 16  2  0
 15 17  1  0
 17 18  1  0
 18 19  2  0
 19 20  1  0
 19 23  1  0
 20 21  1  0
 21 22  1  0
 23 22  1  6
M  CHG  1   5   1
M  END
