
     RDKit          3D

 13 13  0  0  0  0  0  0  0  0999 V2000
   -3.8880    0.3790    0.3830 N   0  0  0  0  0  0  0  0  0  0  0  0
   -2.5280    0.0220    0.5030 C   0  0  0  0  0  0  0  0  0  0  0  0
   -2.0380   -0.1390    1.6510 O   0  0  0  0  0  0  0  0  0  0  0  0
   -1.6830   -0.1670   -0.5830 O   0  0  0  0  0  0  0  0  0  0  0  0
   -0.3230   -0.5260   -0.3980 C   0  0  0  0  0  0  0  0  0  0  0  0
   -0.0080   -1.8440   -0.3480 C   0  0  0  0  0  0  0  0  0  0  0  0
    1.7450   -1.8360   -0.1130 S   0  0  0  0  0  0  0  0  0  0  0  0
    1.9190   -0.1090   -0.1000 C   0  0  0  0  0  0  0  0  0  0  0  0
    3.4680    0.7390    0.1030 S   0  0  1  0  0  0  0  0  0  0  0  0
    3.9610    0.4170    1.4670 O   0  0  0  0  0  0  0  0  0  0  0  0
    4.4490    0.2280   -0.9290 O   0  0  0  0  0  0  0  0  0  0  0  0
    0.6730    0.3540   -0.2700 C   0  0  0  0  0  0  0  0  0  0  0  0
    0.4430    2.1260   -0.3120 Cl  0  0  0  0  0  0  0  0  0  0  0  0
  1  2  1  0
  2  3  2  0
  2  4  1  0
  4  5  1  0
  5  6  2  0
  5 12  1  0
  6  7  1  0
  7  8  1  0
  9  8  1  6
  8 12  2  0
  9 10  2  0
  9 11  2  0
 12 13  1  0
M  END
