
     RDKit          3D

 21 22  0  0  0  0  0  0  0  0999 V2000
    4.6800   -1.2750    0.5760 N   0  0  0  0  0  0  0  0  0  0  0  0
    3.5010   -0.7790    1.7510 S   0  0  2  0  0  0  0  0  0  0  0  0
    4.0500    0.1920    2.7300 O   0  0  0  0  0  0  0  0  0  0  0  0
    3.0860   -2.0470    2.4800 O   0  0  0  0  0  0  0  0  0  0  0  0
    2.1120   -0.1460    0.8980 C   0  0  0  0  0  0  0  0  0  0  0  0
    1.6610    1.1370    1.0540 C   0  0  0  0  0  0  0  0  0  0  0  0
    0.5470    1.6650    0.3800 C   0  0  0  0  0  0  0  0  0  0  0  0
    0.1780    3.0310    0.6460 C   0  0  0  0  0  0  0  0  0  0  0  0
    0.8850    3.6990    1.4730 O   0  0  0  0  0  0  0  0  0  0  0  0
   -0.8720    3.7020    0.0960 O   0  0  0  0  0  0  0  0  0  0  0  0
   -0.0880    0.7980   -0.4750 C   0  0  0  0  0  0  0  0  0  0  0  0
   -1.2080    1.2330   -1.2170 N   0  0  0  0  0  0  0  0  0  0  0  0
   -1.9630    0.3250   -2.0780 C   0  0  0  0  0  0  0  0  0  0  0  0
   -2.6060   -0.7410   -1.2240 C   0  0  0  0  0  0  0  0  0  0  0  0
   -2.6250   -0.8020    0.1540 C   0  0  0  0  0  0  0  0  0  0  0  0
   -3.3150   -1.9350    0.5190 C   0  0  0  0  0  0  0  0  0  0  0  0
   -3.6990   -2.5360   -0.6600 C   0  0  0  0  0  0  0  0  0  0  0  0
   -3.2580   -1.7960   -1.6390 O   0  0  0  0  0  0  0  0  0  0  0  0
    0.3230   -0.5190   -0.6760 C   0  0  0  0  0  0  0  0  0  0  0  0
    1.4160   -0.9570    0.0190 C   0  0  0  0  0  0  0  0  0  0  0  0
    1.9440   -2.6100   -0.2250 Cl  0  0  0  0  0  0  0  0  0  0  0  0
  2  1  1  6
  2  3  2  0
  2  4  2  0
  2  5  1  0
  5  6  2  0
  5 20  1  0
  6  7  1  0
  7  8  1  0
  7 11  2  0
  8  9  2  0
  8 10  1  0
 11 12  1  0
 11 19  1  0
 12 13  1  0
 13 14  1  0
 14 15  2  0
 14 18  1  0
 15 16  1  0
 16 17  2  0
 17 18  1  0
 19 20  2  0
 20 21  1  0
M  END
