
     RDKit          3D

 25 27  0  0  0  0  0  0  0  0999 V2000
   -6.9990    1.5450    0.5190 C   0  0  0  0  0  0  0  0  0  0  0  0
   -5.7000    0.8660    0.7500 C   0  0  0  0  0  0  0  0  0  0  0  0
   -5.6050   -0.5060    0.7190 C   0  0  0  0  0  0  0  0  0  0  0  0
   -4.3800   -1.1280    0.9370 C   0  0  0  0  0  0  0  0  0  0  0  0
   -3.2280   -0.4390    1.1890 C   0  0  0  0  0  0  0  0  0  0  0  0
   -2.0460   -1.0810    1.3970 O   0  0  0  0  0  0  0  0  0  0  0  0
   -0.9760   -1.2600    0.5640 C   0  0  0  0  0  0  0  0  0  0  0  0
    0.2610   -0.7350    0.9500 C   0  0  0  0  0  0  0  0  0  0  0  0
    1.4120   -0.8580    0.1830 C   0  0  0  0  0  0  0  0  0  0  0  0
    2.6530   -0.3250    0.6660 N   0  0  0  0  0  0  0  0  0  0  0  0
    3.6750    0.2450   -0.0890 C   0  0  0  0  0  0  0  0  0  0  0  0
    3.6210    0.6100   -1.4120 C   0  0  0  0  0  0  0  0  0  0  0  0
    4.6720    1.2070   -2.0940 C   0  0  0  0  0  0  0  0  0  0  0  0
    5.8300    1.4400   -1.3830 C   0  0  0  0  0  0  0  0  0  0  0  0
    5.9100    1.0940   -0.0870 N   0  0  0  0  0  0  0  0  0  0  0  0
    7.1550    1.3670    0.6030 C   0  0  0  0  0  0  0  0  0  0  0  0
    4.8870    0.5180    0.5580 C   0  0  0  0  0  0  0  0  0  0  0  0
    5.0550    0.2280    1.7780 O   0  0  0  0  0  0  0  0  0  0  0  0
    1.2840   -1.5370   -1.0050 C   0  0  0  0  0  0  0  0  0  0  0  0
    0.0640   -2.0620   -1.4000 C   0  0  0  0  0  0  0  0  0  0  0  0
   -1.0810   -1.9280   -0.6160 C   0  0  0  0  0  0  0  0  0  0  0  0
   -2.3310   -2.5440   -1.1440 C   0  0  0  0  0  0  0  0  0  0  0  0
   -3.3310    0.9560    1.2200 C   0  0  0  0  0  0  0  0  0  0  0  0
   -4.5360    1.5850    1.0060 C   0  0  0  0  0  0  0  0  0  0  0  0
   -4.6800    3.3470    1.0420 Cl  0  0  0  0  0  0  0  0  0  0  0  0
  1  2  1  0
  2  3  2  0
  2 24  1  0
  3  4  1  0
  4  5  2  0
  5  6  1  0
  5 23  1  0
  6  7  1  0
  7  8  2  0
  7 21  1  0
  8  9  1  0
  9 10  1  0
  9 19  2  0
 10 11  1  0
 11 12  2  0
 11 17  1  0
 12 13  1  0
 13 14  2  0
 14 15  1  0
 15 16  1  0
 15 17  1  0
 17 18  2  0
 19 20  1  0
 20 21  2  0
 21 22  1  0
 23 24  2  0
 24 25  1  0
M  END
