
     RDKit          3D

 23 24  0  0  0  0  0  0  0  0999 V2000
   -4.1070    0.6700    1.5920 C   0  0  0  0  0  0  0  0  0  0  0  0
   -3.0250    0.9200    0.7590 O   0  0  0  0  0  0  0  0  0  0  0  0
   -3.3260    1.2000   -0.5430 C   0  0  1  0  0  0  0  0  0  0  0  0
   -2.9350    2.5450   -0.9460 N   0  0  0  0  0  0  0  0  0  0  0  0
   -2.6780    0.2610   -1.5530 C   0  0  2  0  0  0  0  0  0  0  0  0
   -3.3010   -1.0860   -1.6010 C   0  0  0  0  0  0  0  0  0  0  0  0
   -3.0930   -1.9280   -0.5560 O   0  0  0  0  0  0  0  0  0  0  0  0
   -1.2760    0.3100   -1.4740 N   0  0  0  0  0  0  0  0  0  0  0  0
   -0.5370   -0.2810   -0.3450 C   0  0  0  0  0  0  0  0  0  0  0  0
   -1.0940   -0.8280    0.5330 O   0  0  0  0  0  0  0  0  0  0  0  0
    0.8490   -0.0340   -0.5830 N   0  0  0  0  0  0  0  0  0  0  0  0
    1.4720   -1.1120    0.6230 C   0  0  0  0  0  0  0  0  0  0  0  0
    0.6460   -1.6960    1.2040 O   0  0  0  0  0  0  0  0  0  0  0  0
    2.8990   -1.0740    0.6490 C   0  0  0  0  0  0  0  0  0  0  0  0
    3.7190   -2.1320    1.0200 C   0  0  0  0  0  0  0  0  0  0  0  0
    3.2820   -3.2600    1.3390 O   0  0  0  0  0  0  0  0  0  0  0  0
    4.9990   -1.7330    0.9720 N   0  0  0  0  0  0  0  0  0  0  0  0
    5.0700   -0.4270    0.5790 N   0  0  0  0  0  0  0  0  0  0  0  0
    6.0250    0.4090    0.3920 N   0  0  0  0  0  0  0  0  0  0  0  0
    5.8140    1.6600    0.0120 C   0  0  0  0  0  0  0  0  0  0  0  0
    6.5240    2.6400   -0.2320 O   0  0  0  0  0  0  0  0  0  0  0  0
    3.9560    1.6600   -0.1030 S   0  0  0  0  0  0  0  0  0  0  0  0
    3.8100   -0.0640    0.3950 C   0  0  0  0  0  0  0  0  0  0  0  0
  1  2  1  0
  2  3  1  0
  3  4  1  6
  3  5  1  0
  5  6  1  1
  5  8  1  0
  6  7  1  0
  8  9  1  0
  9 10  2  0
  9 11  1  0
 11 12  1  0
 12 13  2  0
 12 14  1  0
 14 15  1  0
 14 23  2  0
 15 16  2  0
 15 17  1  0
 17 18  1  0
 18 19  1  0
 18 23  1  0
 19 20  1  0
 20 21  2  0
 20 22  1  0
 22 23  1  0
M  END
