
     RDKit          3D

 25 27  0  0  0  0  0  0  0  0999 V2000
   -6.3790   -1.2940    0.8990 C   0  0  0  0  0  0  0  0  0  0  0  0
   -5.1350   -0.9910    0.5730 C   0  0  0  0  0  0  0  0  0  0  0  0
   -4.4980   -1.7640   -0.4290 N   0  0  0  0  0  0  0  0  0  0  0  0
   -3.1470   -1.4260   -0.7750 C   0  0  0  0  0  0  0  0  0  0  0  0
   -2.5300   -2.2030   -1.7710 C   0  0  0  0  0  0  0  0  0  0  0  0
   -1.2360   -1.9040   -2.1250 C   0  0  0  0  0  0  0  0  0  0  0  0
   -0.4210   -2.8550   -3.3740 Cl  0  0  0  0  0  0  0  0  0  0  0  0
   -0.6040   -0.8590   -1.4880 C   0  0  0  0  0  0  0  0  0  0  0  0
   -1.1970   -0.0960   -0.5160 C   0  0  0  0  0  0  0  0  0  0  0  0
   -0.4830    1.0050    0.1320 C   0  0  0  0  0  0  0  0  0  0  0  0
    0.8580    1.1930   -0.3440 N   0  0  0  0  0  0  0  0  0  0  0  0
    1.2170    2.0530   -1.4490 C   0  0  0  0  0  0  0  0  0  0  0  0
    1.9100    0.4930    0.3090 C   0  0  0  0  0  0  0  0  0  0  0  0
    1.6740   -0.2860    1.2950 O   0  0  0  0  0  0  0  0  0  0  0  0
    3.3050    0.6240   -0.1060 C   0  0  0  0  0  0  0  0  0  0  0  0
    4.2780   -0.0300    0.5040 C   0  0  0  0  0  0  0  0  0  0  0  0
    5.6560    0.1640    0.0160 C   0  0  0  0  0  0  0  0  0  0  0  0
    6.7940   -0.4320    0.5260 C   0  0  0  0  0  0  0  0  0  0  0  0
    7.8790    0.0070   -0.2050 C   0  0  0  0  0  0  0  0  0  0  0  0
    7.3460    0.8670   -1.1470 C   0  0  0  0  0  0  0  0  0  0  0  0
    6.0540    0.9190   -0.9720 O   0  0  0  0  0  0  0  0  0  0  0  0
   -2.5120   -0.3850   -0.1430 C   0  0  0  0  0  0  0  0  0  0  0  0
   -3.1730    0.4050    0.8870 C   0  0  0  0  0  0  0  0  0  0  0  0
   -4.4090    0.1090    1.2140 C   0  0  0  0  0  0  0  0  0  0  0  0
   -5.1060    0.9000    2.2630 C   0  0  0  0  0  0  0  0  0  0  0  0
  1  2  2  0
  2  3  1  0
  2 24  1  0
  3  4  1  0
  4  5  2  0
  4 22  1  0
  5  6  1  0
  6  7  1  0
  6  8  2  0
  8  9  1  0
  9 10  1  0
  9 22  2  0
 10 11  1  0
 11 12  1  0
 11 13  1  0
 13 14  2  0
 13 15  1  0
 15 16  2  3
 16 17  1  0
 17 18  2  0
 17 21  1  0
 18 19  1  0
 19 20  2  0
 20 21  1  0
 22 23  1  0
 23 24  2  0
 24 25  1  0
M  END
