
     RDKit          3D

 25 27  0  0  0  0  0  0  0  0999 V2000
    8.1480   -0.2590    0.4290 C   0  0  0  0  0  0  0  0  0  0  0  0
    7.7590    0.5040   -0.8370 C   0  0  0  0  0  0  0  0  0  0  0  0
    6.6490    1.3320   -0.6420 O   0  0  0  0  0  0  0  0  0  0  0  0
    5.3920    0.9330   -0.2760 C   0  0  0  0  0  0  0  0  0  0  0  0
    4.4230    1.8890   -0.1130 C   0  0  0  0  0  0  0  0  0  0  0  0
    3.1480    1.5440    0.2510 C   0  0  0  0  0  0  0  0  0  0  0  0
    2.7600    0.2130    0.4750 C   0  0  0  0  0  0  0  0  0  0  0  0
    1.5320   -0.1780    0.8530 N   0  0  0  0  0  0  0  0  0  0  0  0
    0.3540   -0.3660    0.6870 C   0  0  0  0  0  0  0  0  0  0  0  0
   -0.4690   -0.1200   -0.4920 C   0  0  0  0  0  0  0  0  0  0  0  0
   -0.1290    0.3550   -1.6500 C   0  0  0  0  0  0  0  0  0  0  0  0
    1.1640    0.7410   -2.0140 O   0  0  0  0  0  0  0  0  0  0  0  0
   -1.2430    0.4520   -2.5530 C   0  0  0  0  0  0  0  0  0  0  0  0
   -2.3410    0.0100   -1.9070 C   0  0  0  0  0  0  0  0  0  0  0  0
   -3.9230   -0.0510   -2.6530 Cl  0  0  0  0  0  0  0  0  0  0  0  0
   -1.9520   -0.3860   -0.5610 C   0  0  0  0  0  0  0  0  0  0  0  0
   -2.6230   -0.9830    0.3840 C   0  0  0  0  0  0  0  0  0  0  0  0
   -4.0060   -1.3420    0.5910 C   0  0  0  0  0  0  0  0  0  0  0  0
   -4.9590   -0.7230   -0.2430 N   0  0  0  0  0  0  0  0  0  0  0  0
   -5.0950    0.6650    0.2680 C   0  0  0  0  0  0  0  0  0  0  0  0
   -6.1810    0.5110    1.3200 C   0  0  0  0  0  0  0  0  0  0  0  0
   -7.1580   -0.4230    0.6340 C   0  0  0  0  0  0  0  0  0  0  0  0
   -6.2680   -1.2930   -0.2260 C   0  0  0  0  0  0  0  0  0  0  0  0
    3.7950   -0.7300    0.2930 C   0  0  0  0  0  0  0  0  0  0  0  0
    5.0540   -0.3760   -0.0680 C   0  0  0  0  0  0  0  0  0  0  0  0
  1  2  1  0
  2  3  1  0
  3  4  1  0
  4  5  2  0
  4 25  1  0
  5  6  1  0
  6  7  2  0
  7  8  1  0
  7 24  1  0
  8  9  2  3
  9 10  1  0
 10 11  2  0
 10 16  1  0
 11 12  1  0
 11 13  1  0
 13 14  2  0
 14 15  1  0
 14 16  1  0
 16 17  2  3
 17 18  1  0
 18 19  1  0
 19 20  1  0
 19 23  1  0
 20 21  1  0
 21 22  1  0
 22 23  1  0
 24 25  2  0
M  END
