
     RDKit          3D

 25 27  0  0  0  0  0  0  0  0999 V2000
    4.4330   -2.5420   -1.5790 C   0  0  0  0  0  0  0  0  0  0  0  0
    3.1870   -1.8340   -2.1390 C   0  0  0  0  0  0  0  0  0  0  0  0
    3.4150   -0.4330   -1.9680 N   0  0  0  0  0  0  0  0  0  0  0  0
    4.4190    0.3040   -2.6980 C   0  0  0  0  0  0  0  0  0  0  0  0
    5.2850    1.0180   -1.6850 C   0  0  0  0  0  0  0  0  0  0  0  0
    4.4930    1.8100   -0.8590 O   0  0  0  0  0  0  0  0  0  0  0  0
    3.2070    1.4310   -0.4940 C   0  0  0  0  0  0  0  0  0  0  0  0
    2.4780    2.1830    0.4250 C   0  0  0  0  0  0  0  0  0  0  0  0
    1.1790    1.7740    0.7750 C   0  0  0  0  0  0  0  0  0  0  0  0
    0.6040    0.6610    0.2420 C   0  0  0  0  0  0  0  0  0  0  0  0
   -0.7080    0.2820    0.5780 N   0  0  0  0  0  0  0  0  0  0  0  0
   -1.8330    1.0800    0.8000 C   0  0  0  0  0  0  0  0  0  0  0  0
   -1.8290    2.4170    0.4700 C   0  0  0  0  0  0  0  0  0  0  0  0
   -2.9830    3.1510    0.6780 C   0  0  0  0  0  0  0  0  0  0  0  0
   -4.1190    2.5730    1.2020 C   0  0  0  0  0  0  0  0  0  0  0  0
   -5.2720    3.3390    1.4030 O   0  0  0  0  0  0  0  0  0  0  0  0
   -4.0950    1.2310    1.5230 C   0  0  0  0  0  0  0  0  0  0  0  0
   -5.5520    0.5790    2.2340 Cl  0  0  0  0  0  0  0  0  0  0  0  0
   -2.9860    0.4700    1.3360 C   0  0  0  0  0  0  0  0  0  0  0  0
   -2.9060   -0.9520    1.6980 C   0  0  0  0  0  0  0  0  0  0  0  0
   -3.6820   -1.9010    1.2280 C   0  0  0  0  0  0  0  0  0  0  0  0
   -4.7720   -1.6900    0.2430 C   0  0  0  0  0  0  0  0  0  0  0  0
   -3.4850   -3.3000    1.6940 C   0  0  0  0  0  0  0  0  0  0  0  0
    1.3740   -0.0650   -0.6770 C   0  0  0  0  0  0  0  0  0  0  0  0
    2.6320    0.2970   -1.0400 C   0  0  0  0  0  0  0  0  0  0  0  0
  1  2  1  0
  2  3  1  0
  3  4  1  0
  3 25  1  0
  4  5  1  0
  5  6  1  0
  6  7  1  0
  7  8  2  0
  7 25  1  0
  8  9  1  0
  9 10  2  0
 10 11  1  0
 10 24  1  0
 11 12  1  0
 12 13  2  0
 12 19  1  0
 13 14  1  0
 14 15  2  0
 15 16  1  0
 15 17  1  0
 17 18  1  0
 17 19  2  0
 19 20  1  0
 20 21  2  3
 21 22  1  0
 21 23  1  0
 24 25  2  0
M  END
