
     RDKit          3D

 23 24  0  0  0  0  0  0  0  0999 V2000
    4.0720   -0.1840    0.0500 O   0  0  0  0  0  0  0  0  0  0  0  0
    3.0130   -0.2970    0.7680 C   0  0  0  0  0  0  0  0  0  0  0  0
    2.3360   -1.6140    0.6900 C   0  0  0  0  0  0  0  0  0  0  0  0
    2.3970   -2.1530   -0.6190 N   0  0  0  0  0  0  0  0  0  0  0  0
    1.8820   -1.6440   -1.8310 C   0  0  0  0  0  0  0  0  0  0  0  0
    2.7770   -1.5860   -2.7770 O   0  0  0  0  0  0  0  0  0  0  0  0
    0.5590   -1.2150   -2.0990 N   0  0  0  0  0  0  0  0  0  0  0  0
   -0.6280   -1.6090   -1.5220 N   0  0  0  0  0  0  0  0  0  0  0  0
   -1.0540   -1.7240   -0.1980 C   0  0  0  0  0  0  0  0  0  0  0  0
   -1.1370   -2.9800    0.2520 O   0  0  0  0  0  0  0  0  0  0  0  0
   -1.4180   -0.7620    0.7700 N   0  0  0  0  0  0  0  0  0  0  0  0
   -2.2710    0.4150    0.6110 C   0  0  0  0  0  0  0  0  0  0  0  0
   -2.0390    1.3670   -0.2530 C   0  0  0  0  0  0  0  0  0  0  0  0
   -0.8840    1.4260   -1.1940 C   0  0  0  0  0  0  0  0  0  0  0  0
    0.3480    1.8290   -0.9250 C   0  0  0  0  0  0  0  0  0  0  0  0
    0.9460    2.3090    0.2610 N   0  0  0  0  0  0  0  0  0  0  0  0
    1.4930    1.6540    1.3800 C   0  0  0  0  0  0  0  0  0  0  0  0
    0.8470    1.8310    2.4970 O   0  0  0  0  0  0  0  0  0  0  0  0
    2.6330    0.8260    1.5320 N   0  0  0  0  0  0  0  0  0  0  0  0
   -3.0020    2.4260   -0.2730 O   0  0  0  0  0  0  0  0  0  0  0  0
   -4.3930    1.8160    0.5300 S   0  0  0  0  0  0  0  0  0  0  0  0
   -5.3540    1.1180   -0.3860 O   0  0  0  0  0  0  0  0  0  0  0  0
   -3.4430    0.6640    1.5370 C   0  0  0  0  0  0  0  0  0  0  0  0
  1  2  2  0
  2  3  1  0
  2 19  1  0
  3  4  1  0
  4  5  1  0
  5  6  2  0
  5  7  1  0
  7  8  1  0
  8  9  1  0
  9 10  2  0
  9 11  1  0
 11 12  1  0
 12 13  2  0
 12 23  1  0
 13 14  1  0
 13 20  1  0
 14 15  2  0
 15 16  1  0
 16 17  1  0
 17 18  2  0
 17 19  1  0
 20 21  1  0
 21 22  2  0
 21 23  1  1
M  END
