
     RDKit          3D

 23 24  0  0  0  0  0  0  0  0999 V2000
    0.4670    1.8370   -2.0000 N   0  0  0  0  0  0  0  0  0  0  0  0
    1.6120    1.1520   -1.5180 C   0  0  0  0  0  0  0  0  0  0  0  0
    2.5890    1.0300   -2.3410 O   0  0  0  0  0  0  0  0  0  0  0  0
    1.7160    0.6240   -0.1910 C   0  0  0  0  0  0  0  0  0  0  0  0
    2.8350    0.0730    0.2510 C   0  0  0  0  0  0  0  0  0  0  0  0
    4.1010   -0.1330   -0.3720 C   0  0  0  0  0  0  0  0  0  0  0  0
    5.1500   -0.7250    0.2330 C   0  0  0  0  0  0  0  0  0  0  0  0
    5.2370   -1.3820    1.8970 S   0  0  0  0  0  0  0  0  0  0  0  0
    6.2000   -0.7610   -0.6400 O   0  0  0  0  0  0  0  0  0  0  0  0
    5.9910    0.2810   -1.5470 N   0  0  0  0  0  0  0  0  0  0  0  0
    4.6020    0.1730   -1.6460 O   0  0  0  0  0  0  0  0  0  0  0  0
    0.6180    0.7610    0.8080 C   0  0  0  0  0  0  0  0  0  0  0  0
   -0.4720   -0.1150    0.7470 N   0  0  0  0  0  0  0  0  0  0  0  0
   -1.4450   -0.3730   -0.2100 C   0  0  0  0  0  0  0  0  0  0  0  0
   -1.5350    0.1900   -1.3020 O   0  0  0  0  0  0  0  0  0  0  0  0
   -2.5260   -1.4200    0.0210 C   0  0  0  0  0  0  0  0  0  0  0  0
   -3.8250   -0.7500   -0.0100 N   0  0  0  0  0  0  0  0  0  0  0  0
   -4.4540   -0.2360    1.0060 N   0  0  0  0  0  0  0  0  0  0  0  0
   -5.6080    0.2740    0.5310 C   0  0  0  0  0  0  0  0  0  0  0  0
   -6.5030    0.8580    1.1770 O   0  0  0  0  0  0  0  0  0  0  0  0
   -5.6650    0.0550   -0.8130 N   0  0  0  0  0  0  0  0  0  0  0  0
   -4.5360   -0.5890   -1.1270 C   0  0  0  0  0  0  0  0  0  0  0  0
   -4.2510   -0.9530   -2.2920 O   0  0  0  0  0  0  0  0  0  0  0  0
  1  2  1  0
  2  3  2  0
  2  4  1  0
  4  5  2  3
  4 12  1  0
  5  6  1  0
  6  7  2  0
  6 11  1  0
  7  8  1  0
  7  9  1  0
  9 10  1  0
 10 11  1  0
 12 13  1  0
 13 14  1  0
 14 15  2  0
 14 16  1  0
 16 17  1  0
 17 18  1  0
 17 22  1  0
 18 19  1  0
 19 20  2  0
 19 21  1  0
 21 22  1  0
 22 23  2  0
M  END
