
     RDKit          3D

 23 24  0  0  0  0  0  0  0  0999 V2000
   -6.7990    0.3500    0.4940 N   0  0  0  0  0  0  0  0  0  0  0  0
   -5.5900   -0.1650    1.0100 C   0  0  0  0  0  0  0  0  0  0  0  0
   -5.5320   -0.7780    2.0660 O   0  0  0  0  0  0  0  0  0  0  0  0
   -4.3460    0.0630    0.2110 C   0  0  0  0  0  0  0  0  0  0  0  0
   -4.4240    0.6780   -0.8420 O   0  0  0  0  0  0  0  0  0  0  0  0
   -3.1270   -0.4180    0.6630 N   0  0  0  0  0  0  0  0  0  0  0  0
   -1.8040   -0.4230    0.2400 C   0  0  0  0  0  0  0  0  0  0  0  0
   -1.3460    0.1080   -0.8570 C   0  0  0  0  0  0  0  0  0  0  0  0
   -2.2160    0.7650   -1.7500 N   0  0  0  0  0  0  0  0  0  0  0  0
    0.0330    0.1430   -1.3440 N   0  0  0  0  0  0  0  0  0  0  0  0
    1.1360   -0.6900   -1.0110 C   0  0  0  0  0  0  0  0  0  0  0  0
    1.4390   -0.5990    0.3980 N   0  0  0  0  0  0  0  0  0  0  0  0
    2.6490   -0.1550    0.9210 C   0  0  0  0  0  0  0  0  0  0  0  0
    2.7810   -0.1590    2.1990 O   0  0  0  0  0  0  0  0  0  0  0  0
    3.8040    0.3240    0.1280 C   0  0  0  0  0  0  0  0  0  0  0  0
    4.8960    0.7140    0.7000 C   0  0  0  0  0  0  0  0  0  0  0  0
    5.9960    1.1750   -0.1720 C   0  0  0  0  0  0  0  0  0  0  0  0
    5.4370    0.4040   -1.7310 S   0  0  0  0  0  0  0  0  0  0  0  0
    6.0210   -0.9860   -1.8430 O   0  0  0  0  0  0  0  0  0  0  0  0
    3.7770    0.3800   -1.2550 O   0  0  0  0  0  0  0  0  0  0  0  0
    0.4730   -0.9530    1.4070 N   0  0  0  0  0  0  0  0  0  0  0  0
   -0.9130   -1.1300    1.2430 C   0  0  0  0  0  0  0  0  0  0  0  0
   -1.5040   -1.9430    1.9830 O   0  0  0  0  0  0  0  0  0  0  0  0
  1  2  1  0
  2  3  2  0
  2  4  1  0
  4  5  2  0
  4  6  1  0
  6  7  1  0
  7  8  2  0
  7 22  1  0
  8  9  1  0
  8 10  1  0
 10 11  1  0
 11 12  1  0
 12 13  1  0
 12 21  1  0
 13 14  2  0
 13 15  1  0
 15 16  2  0
 15 20  1  0
 16 17  1  0
 18 17  1  1
 18 19  2  0
 18 20  1  0
 21 22  1  0
 22 23  2  0
M  END
