
     RDKit          3D

 23 24  0  0  0  0  0  0  0  0999 V2000
    4.2250   -3.4580   -0.2580 N   0  0  0  0  0  0  0  0  0  0  0  0
    3.3150   -2.8390    0.6960 C   0  0  2  0  0  0  0  0  0  0  0  0
    1.9960   -2.6610    0.1060 C   0  0  0  0  0  0  0  0  0  0  0  0
    1.6670   -1.3650    0.1530 C   0  0  0  0  0  0  0  0  0  0  0  0
    0.3960   -0.8940   -0.3700 N   0  0  0  0  0  0  0  0  0  0  0  0
   -0.6460   -0.4140    0.4840 C   0  0  0  0  0  0  0  0  0  0  0  0
   -0.4060   -0.4210    1.7150 O   0  0  0  0  0  0  0  0  0  0  0  0
   -1.8850    0.0460    0.0010 N   0  0  0  0  0  0  0  0  0  0  0  0
   -2.9440    0.5340    0.8810 C   0  0  0  0  0  0  0  0  0  0  0  0
   -4.0660    0.9230    0.0490 N   0  0  0  0  0  0  0  0  0  0  0  0
   -4.2750    2.1270   -0.4730 C   0  0  0  0  0  0  0  0  0  0  0  0
   -3.4880    3.1050   -0.2950 O   0  0  0  0  0  0  0  0  0  0  0  0
   -5.4030    2.1070   -1.1760 N   0  0  0  0  0  0  0  0  0  0  0  0
   -5.8870    0.8900   -1.0860 N   0  0  0  0  0  0  0  0  0  0  0  0
   -5.0750    0.1340   -0.3300 C   0  0  0  0  0  0  0  0  0  0  0  0
   -5.2320   -1.0920   -0.0300 O   0  0  0  0  0  0  0  0  0  0  0  0
    2.7300   -0.6270    0.7740 C   0  0  0  0  0  0  0  0  0  0  0  0
    2.8540    0.6600    1.0150 C   0  0  0  0  0  0  0  0  0  0  0  0
    1.9670    1.7720    0.7270 C   0  0  0  0  0  0  0  0  0  0  0  0
    2.9180    2.9520   -0.2920 S   0  0  1  0  0  0  0  0  0  0  0  0
    2.6920    2.6750   -1.7320 O   0  0  0  0  0  0  0  0  0  0  0  0
    2.4900    4.3190    0.0850 O   0  0  0  0  0  0  0  0  0  0  0  0
    3.7180   -1.5910    1.1080 O   0  0  0  0  0  0  0  0  0  0  0  0
  2  1  1  6
  2  3  1  0
  2 23  1  0
  3  4  2  0
  4  5  1  0
  4 17  1  0
  5  6  1  0
  6  7  2  0
  6  8  1  0
  8  9  1  0
  9 10  1  0
 10 11  1  0
 10 15  1  0
 11 12  2  0
 11 13  1  0
 13 14  1  0
 14 15  1  0
 15 16  2  0
 17 18  2  3
 17 23  1  0
 18 19  1  0
 20 19  1  1
 20 21  2  0
 20 22  2  0
M  CHG  1   1   1
M  END
