
     RDKit          3D

  9  8  0  0  0  0  0  0  0  0999 V2000
   -2.6560    1.2190    0.5960 C   0  0  0  0  0  0  0  0  0  0  0  0
   -1.8880    0.3160    0.0310 C   0  0  0  0  0  0  0  0  0  0  0  0
   -2.4740   -0.8980   -0.6150 C   0  0  0  0  0  0  0  0  0  0  0  0
   -0.4180    0.4720    0.0170 C   0  0  0  0  0  0  0  0  0  0  0  0
    0.1190    1.4710    0.5440 O   0  0  0  0  0  0  0  0  0  0  0  0
    0.4010   -0.4680   -0.5720 O   0  0  0  0  0  0  0  0  0  0  0  0
    1.8110   -0.3480   -0.6020 C   0  0  0  0  0  0  0  0  0  0  0  0
    2.4170   -0.2900    0.7840 C   0  0  0  0  0  0  0  0  0  0  0  0
    3.8120   -0.1720    0.5800 O   0  0  0  0  0  0  0  0  0  0  0  0
  1  2  2  0
  2  3  1  0
  2  4  1  0
  4  5  2  0
  4  6  1  0
  6  7  1  0
  7  8  1  0
  8  9  1  0
M  END
