
     RDKit          3D

  9  8  0  0  0  0  0  0  0  0999 V2000
    3.2050   -1.0280    0.5010 C   0  0  0  0  0  0  0  0  0  0  0  0
    1.6790   -0.8230    0.5330 C   0  0  0  0  0  0  0  0  0  0  0  0
    1.3030    0.3620   -0.0250 O   0  0  0  0  0  0  0  0  0  0  0  0
    0.1060    0.9760   -0.2250 C   0  0  0  0  0  0  0  0  0  0  0  0
    0.1860    2.2580   -0.8320 O   0  0  0  0  0  0  0  0  0  0  0  0
   -1.0920    0.5600    0.0570 C   0  0  0  0  0  0  0  0  0  0  0  0
   -2.2360    1.4980   -0.2990 C   0  0  0  0  0  0  0  0  0  0  0  0
   -1.5200   -0.6890    0.6770 C   0  0  0  0  0  0  0  0  0  0  0  0
   -2.3680   -1.3710   -0.2320 O   0  0  0  0  0  0  0  0  0  0  0  0
  1  2  1  0
  2  3  1  0
  3  4  1  0
  4  5  1  0
  4  6  2  3
  6  7  1  0
  6  8  1  0
  8  9  1  0
M  END
