
     RDKit          3D

 14 15  0  0  0  0  0  0  0  0999 V2000
   -4.4570   -1.0630    0.1060 O   0  0  0  0  0  0  0  0  0  0  0  0
   -3.9440    0.2460    0.0560 C   0  0  0  0  0  0  0  0  0  0  0  0
   -2.4820    0.1960   -0.0050 C   0  0  0  0  0  0  0  0  0  0  0  0
   -1.7340    1.3430   -0.0610 C   0  0  0  0  0  0  0  0  0  0  0  0
   -0.3650    1.3250   -0.1190 C   0  0  0  0  0  0  0  0  0  0  0  0
    0.3100    0.1140   -0.1220 C   0  0  0  0  0  0  0  0  0  0  0  0
    1.7970    0.1050   -0.1850 C   0  0  0  0  0  0  0  0  0  0  0  0
    2.5370    1.2270   -0.2410 C   0  0  0  0  0  0  0  0  0  0  0  0
    3.9700    0.8840   -0.2950 C   0  0  0  0  0  0  0  0  0  0  0  0
    3.9820   -0.5850   -0.2640 C   0  0  0  0  0  0  0  0  0  0  0  0
    2.7080   -1.0000   -0.2010 C   0  0  0  0  0  0  0  0  0  0  0  0
   -0.4030   -1.0500   -0.0670 C   0  0  0  0  0  0  0  0  0  0  0  0
    0.2390   -2.2750   -0.0680 O   0  0  0  0  0  0  0  0  0  0  0  0
   -1.8010   -0.9880   -0.0090 C   0  0  0  0  0  0  0  0  0  0  0  0
  1  2  1  0
  2  3  1  0
  3  4  2  0
  3 14  1  0
  4  5  1  0
  5  6  2  0
  6  7  1  0
  6 12  1  0
  7  8  2  0
  7 11  1  0
  8  9  1  0
  9 10  1  0
 10 11  2  0
 12 13  1  0
 12 14  2  0
M  END
