
     RDKit          3D

 20 20  0  0  0  0  0  0  0  0999 V2000
    7.1830    0.0860    0.6170 N   0  0  0  0  0  0  0  0  0  0  0  0
    6.6260    0.4970   -0.6210 C   0  0  0  0  0  0  0  0  0  0  0  0
    7.3880    1.0420   -1.4560 O   0  0  0  0  0  0  0  0  0  0  0  0
    5.1870    0.2640   -0.8650 C   0  0  0  0  0  0  0  0  0  0  0  0
    4.5940   -0.3640    0.2500 O   0  0  0  0  0  0  0  0  0  0  0  0
    3.2550   -0.6880    0.2650 C   0  0  0  0  0  0  0  0  0  0  0  0
    2.5490   -0.4170   -0.7380 O   0  0  0  0  0  0  0  0  0  0  0  0
    2.6070   -1.3500    1.4250 C   0  0  0  0  0  0  0  0  0  0  0  0
    0.8500   -1.6250    1.0980 S   0  0  0  0  0  0  0  0  0  0  0  0
   -0.0450   -0.0560    0.9670 C   0  0  0  0  0  0  0  0  0  0  0  0
   -1.4890   -0.2780    0.6990 C   0  0  0  0  0  0  0  0  0  0  0  0
   -2.0000   -1.4320    0.5880 O   0  0  0  0  0  0  0  0  0  0  0  0
   -2.3960    0.8110    0.5490 N   0  0  0  0  0  0  0  0  0  0  0  0
   -3.7690    0.6300    0.2940 C   0  0  0  0  0  0  0  0  0  0  0  0
   -4.6520    1.1080    1.1490 C   0  0  0  0  0  0  0  0  0  0  0  0
   -6.0090    0.9870    0.9950 O   0  0  0  0  0  0  0  0  0  0  0  0
   -6.6290    0.3430   -0.0720 C   0  0  0  0  0  0  0  0  0  0  0  0
   -5.6460   -0.1870   -1.0200 C   0  0  0  0  0  0  0  0  0  0  0  0
   -4.3390   -0.0580   -0.8570 C   0  0  0  0  0  0  0  0  0  0  0  0
   -3.4450   -0.5770   -1.7830 O   0  0  0  0  0  0  0  0  0  0  0  0
  1  2  1  0
  2  3  2  0
  2  4  1  0
  4  5  1  0
  5  6  1  0
  6  7  2  0
  6  8  1  0
  8  9  1  0
  9 10  1  0
 10 11  1  0
 11 12  2  0
 11 13  1  0
 13 14  1  0
 14 15  2  0
 14 19  1  0
 15 16  1  0
 16 17  1  0
 17 18  1  0
 18 19  2  0
 19 20  1  0
M  END
