
     RDKit          3D

 22 24  0  0  0  0  0  0  0  0999 V2000
   -0.5830    1.1590   -0.3350 O   0  0  0  0  0  0  0  0  0  0  0  0
   -1.0570    0.0450   -0.0570 C   0  0  0  0  0  0  0  0  0  0  0  0
   -0.2040   -1.0680    0.0660 N   0  0  0  0  0  0  0  0  0  0  0  0
    1.2000   -1.0870   -0.0880 C   0  0  0  0  0  0  0  0  0  0  0  0
    2.0070   -0.0260   -0.3920 C   0  0  0  0  0  0  0  0  0  0  0  0
    3.3900   -0.0940   -0.5270 C   0  0  0  0  0  0  0  0  0  0  0  0
    3.9820   -1.3210   -0.3390 C   0  0  0  0  0  0  0  0  0  0  0  0
    5.4260   -1.4440   -0.4420 C   0  0  0  0  0  0  0  0  0  0  0  0
    6.2570   -0.6580    0.1760 C   0  0  0  0  0  0  0  0  0  0  0  0
    7.9910   -0.9820   -0.0970 Cl  0  0  0  0  0  0  0  0  0  0  0  0
    5.9340    0.4320    1.1110 C   0  0  0  0  0  0  0  0  0  0  0  0
    6.7730    0.0130    2.6550 Cl  0  0  0  0  0  0  0  0  0  0  0  0
    3.1780   -2.3720   -0.0380 N   0  0  0  0  0  0  0  0  0  0  0  0
    1.8790   -2.2710    0.0810 N   0  0  0  0  0  0  0  0  0  0  0  0
   -2.4800   -0.0650    0.1310 N   0  0  0  0  0  0  0  0  0  0  0  0
   -3.1710   -1.2750    0.4550 C   0  0  0  0  0  0  0  0  0  0  0  0
   -4.6250   -0.9930    0.3200 C   0  0  0  0  0  0  0  0  0  0  0  0
   -4.7570    0.4720    0.1390 C   0  0  0  0  0  0  0  0  0  0  0  0
   -5.6220    1.4910    0.0380 C   0  0  0  0  0  0  0  0  0  0  0  0
   -4.8860    2.7650   -0.1480 C   0  0  0  0  0  0  0  0  0  0  0  0
   -3.4700    2.3160   -0.1390 C   0  0  0  0  0  0  0  0  0  0  0  0
   -3.4090    1.0040    0.0260 C   0  0  0  0  0  0  0  0  0  0  0  0
  1  2  2  0
  2  3  1  0
  2 15  1  0
  3  4  1  0
  4  5  2  0
  4 14  1  0
  5  6  1  0
  6  7  2  0
  7  8  1  0
  7 13  1  0
  8  9  2  3
  9 10  1  0
  9 11  1  0
 11 12  1  0
 13 14  2  0
 15 16  1  0
 15 22  1  0
 16 17  1  0
 17 18  1  0
 18 19  2  0
 18 22  1  0
 19 20  1  0
 20 21  1  0
 21 22  2  0
M  END
