
     RDKit          3D

 22 24  0  0  0  0  0  0  0  0999 V2000
   -3.8520    1.9860   -0.3100 C   0  0  0  0  0  0  0  0  0  0  0  0
   -4.1330    0.5120   -0.4550 C   0  0  0  0  0  0  0  0  0  0  0  0
   -3.6140   -0.2680    0.6250 N   0  0  0  0  0  0  0  0  0  0  0  0
   -3.9150   -1.6510    0.4240 C   0  0  0  0  0  0  0  0  0  0  0  0
   -3.0330   -2.3390   -0.5740 C   0  0  0  0  0  0  0  0  0  0  0  0
   -1.5960   -2.1980   -0.0770 C   0  0  0  0  0  0  0  0  0  0  0  0
   -1.3030   -0.6920   -0.1100 C   0  0  2  0  0  0  0  0  0  0  0  0
    0.0820   -0.5240    0.3950 C   0  0  0  0  0  0  0  0  0  0  0  0
    0.5720   -0.8660    1.5870 N   0  0  0  0  0  0  0  0  0  0  0  0
    1.8430   -0.5550    1.6550 N   0  0  0  0  0  0  0  0  0  0  0  0
    2.2380    0.0160    0.4770 C   0  0  0  0  0  0  0  0  0  0  0  0
    3.5730    0.4970    0.1620 C   0  0  0  0  0  0  0  0  0  0  0  0
    4.5700    0.3750    1.1380 C   0  0  0  0  0  0  0  0  0  0  0  0
    5.8590    0.8080    0.9100 C   0  0  0  0  0  0  0  0  0  0  0  0
    7.1010    0.6480    2.1460 Cl  0  0  0  0  0  0  0  0  0  0  0  0
    6.2180    1.3790   -0.2900 C   0  0  0  0  0  0  0  0  0  0  0  0
    7.8400    1.9450   -0.6310 Cl  0  0  0  0  0  0  0  0  0  0  0  0
    5.2580    1.5110   -1.2670 C   0  0  0  0  0  0  0  0  0  0  0  0
    3.9540    1.0680   -1.0240 C   0  0  0  0  0  0  0  0  0  0  0  0
    3.0160    1.2150   -2.0260 O   0  0  0  0  0  0  0  0  0  0  0  0
    1.1460    0.0230   -0.2730 N   0  0  0  0  0  0  0  0  0  0  0  0
   -2.2280   -0.0600    0.9010 C   0  0  0  0  0  0  0  0  0  0  0  0
  1  2  1  0
  2  3  1  0
  3  4  1  0
  3 22  1  0
  4  5  1  0
  5  6  1  0
  6  7  1  0
  7  8  1  1
  7 22  1  0
  8  9  2  0
  8 21  1  0
  9 10  1  0
 10 11  2  0
 11 12  1  0
 11 21  1  0
 12 13  2  0
 12 19  1  0
 13 14  1  0
 14 15  1  0
 14 16  2  0
 16 17  1  0
 16 18  1  0
 18 19  2  0
 19 20  1  0
M  END
