
     RDKit          3D

 22 24  0  0  0  0  0  0  0  0999 V2000
   -1.8060   -2.5460    2.2080 C   0  0  0  0  0  0  0  0  0  0  0  0
   -1.9330   -1.4070    1.2600 C   0  0  0  0  0  0  0  0  0  0  0  0
   -1.0670   -0.3800    1.2460 N   0  0  0  0  0  0  0  0  0  0  0  0
   -1.1380    0.6570    0.4210 C   0  0  0  0  0  0  0  0  0  0  0  0
   -0.2120    1.7810    0.4030 C   0  0  0  0  0  0  0  0  0  0  0  0
   -0.6890    3.0040    0.7670 N   0  0  0  0  0  0  0  0  0  0  0  0
    0.0760    4.0920    0.7900 C   0  0  0  0  0  0  0  0  0  0  0  0
    1.3980    4.0130    0.4400 C   0  0  0  0  0  0  0  0  0  0  0  0
    1.9040    2.7900    0.0680 C   0  0  0  0  0  0  0  0  0  0  0  0
    1.1080    1.6500    0.0430 C   0  0  0  0  0  0  0  0  0  0  0  0
    1.6810    0.3650   -0.3660 C   0  0  0  0  0  0  0  0  0  0  0  0
    0.9860   -0.7730   -0.4440 N   0  0  0  0  0  0  0  0  0  0  0  0
    1.7920   -1.7800   -0.8540 C   0  0  0  0  0  0  0  0  0  0  0  0
    1.4420   -3.1770   -1.0720 C   0  0  0  0  0  0  0  0  0  0  0  0
    2.3100   -3.9980   -1.4570 O   0  0  0  0  0  0  0  0  0  0  0  0
    3.0360   -1.2350   -1.0370 C   0  0  0  0  0  0  0  0  0  0  0  0
    2.9230    0.0820   -0.7270 N   0  0  0  0  0  0  0  0  0  0  0  0
   -2.2050    0.6500   -0.4880 C   0  0  0  0  0  0  0  0  0  0  0  0
   -3.1290   -0.3680   -0.5300 C   0  0  0  0  0  0  0  0  0  0  0  0
   -4.4540   -0.3480   -1.6820 Cl  0  0  0  0  0  0  0  0  0  0  0  0
   -2.9770   -1.4060    0.3640 C   0  0  0  0  0  0  0  0  0  0  0  0
   -4.1310   -2.7240    0.3440 Cl  0  0  0  0  0  0  0  0  0  0  0  0
  1  2  1  0
  2  3  2  0
  2 21  1  0
  3  4  1  0
  4  5  1  0
  4 18  2  0
  5  6  2  0
  5 10  1  0
  6  7  1  0
  7  8  2  0
  8  9  1  0
  9 10  2  0
 10 11  1  0
 11 12  2  0
 11 17  1  0
 12 13  1  0
 13 14  1  0
 13 16  2  0
 14 15  2  0
 16 17  1  0
 18 19  1  0
 19 20  1  0
 19 21  2  0
 21 22  1  0
M  END
