
     RDKit          3D

 23 25  0  0  0  0  0  0  0  0999 V2000
    3.5700   -1.7700    1.6730 C   0  0  0  0  0  0  0  0  0  0  0  0
    4.0790   -0.8240    0.7640 O   0  0  0  0  0  0  0  0  0  0  0  0
    3.1910    0.0550    0.1450 C   0  0  0  0  0  0  0  0  0  0  0  0
    1.8440    0.0370    0.3880 C   0  0  0  0  0  0  0  0  0  0  0  0
    1.0060    0.9220   -0.2420 C   0  0  0  0  0  0  0  0  0  0  0  0
   -0.4260    0.9750    0.0090 C   0  0  0  0  0  0  0  0  0  0  0  0
   -0.9450    2.1230    0.4980 N   0  0  0  0  0  0  0  0  0  0  0  0
   -2.2570    2.2640    0.7600 C   0  0  0  0  0  0  0  0  0  0  0  0
   -2.8440    3.5120    1.2960 C   0  0  0  0  0  0  0  0  0  0  0  0
   -3.0840    1.2330    0.5320 N   0  0  0  0  0  0  0  0  0  0  0  0
   -2.6580    0.0570    0.0470 C   0  0  0  0  0  0  0  0  0  0  0  0
   -3.2850   -1.0860   -0.2630 N   0  0  0  0  0  0  0  0  0  0  0  0
   -2.3820   -1.9540   -0.7240 C   0  0  0  0  0  0  0  0  0  0  0  0
   -2.6140   -3.3470   -1.1890 C   0  0  0  0  0  0  0  0  0  0  0  0
   -1.1340   -1.3210   -0.6980 C   0  0  0  0  0  0  0  0  0  0  0  0
    0.0820   -1.9400   -1.1440 C   0  0  0  0  0  0  0  0  0  0  0  0
    1.0830   -2.4360   -1.4910 N   0  0  0  0  0  0  0  0  0  0  0  0
   -1.2850   -0.0700   -0.2210 C   0  0  0  0  0  0  0  0  0  0  0  0
    1.5790    1.8260   -1.1270 C   0  0  0  0  0  0  0  0  0  0  0  0
    0.5140    2.9810   -1.9560 Cl  0  0  0  0  0  0  0  0  0  0  0  0
    2.9310    1.8360   -1.3640 C   0  0  0  0  0  0  0  0  0  0  0  0
    3.7590    0.9470   -0.7290 C   0  0  0  0  0  0  0  0  0  0  0  0
    5.4740    1.0010   -1.0660 Cl  0  0  0  0  0  0  0  0  0  0  0  0
  1  2  1  0
  2  3  1  0
  3  4  2  0
  3 22  1  0
  4  5  1  0
  5  6  1  0
  5 19  2  0
  6  7  2  0
  6 18  1  0
  7  8  1  0
  8  9  1  0
  8 10  2  0
 10 11  1  0
 11 12  1  0
 11 18  2  0
 12 13  1  0
 13 14  1  0
 13 15  2  0
 15 16  1  0
 15 18  1  0
 16 17  3  0
 19 20  1  0
 19 21  1  0
 21 22  2  0
 22 23  1  0
M  END
