
     RDKit          3D

 20 21  0  0  0  0  0  0  0  0999 V2000
    5.9980    0.9110   -1.5790 C   0  0  0  0  0  0  0  0  0  0  0  0
    5.3500    0.3700   -0.5620 C   0  0  0  0  0  0  0  0  0  0  0  0
    4.1830    1.0530    0.0720 C   0  0  0  0  0  0  0  0  0  0  0  0
    3.0150    0.2170   -0.0370 N   0  0  0  0  0  0  0  0  0  0  0  0
    1.7400    0.6240    0.4920 C   0  0  0  0  0  0  0  0  0  0  0  0
    1.6090    1.7150    1.0620 O   0  0  0  0  0  0  0  0  0  0  0  0
    0.6200   -0.2270    0.3630 N   0  0  0  0  0  0  0  0  0  0  0  0
   -0.6760    0.1430    0.8840 C   0  0  1  0  0  0  0  0  0  0  0  0
   -1.6810    0.3320   -0.1680 C   0  0  0  0  0  0  0  0  0  0  0  0
   -1.8120    1.0280   -1.2390 N   0  0  0  0  0  0  0  0  0  0  0  0
   -2.9090    1.0590   -2.1410 C   0  0  1  0  0  0  0  0  0  0  0  0
   -2.4820    0.6850   -3.5070 N   0  0  0  0  0  0  0  0  0  0  0  0
   -4.0400    0.1610   -1.7980 C   0  0  0  0  0  0  0  0  0  0  0  0
   -3.8510   -0.5800   -0.6150 N   0  0  0  0  0  0  0  0  0  0  0  0
   -2.8160   -0.5290    0.1340 C   0  0  0  0  0  0  0  0  0  0  0  0
   -2.4520   -1.2280    1.3870 C   0  0  0  0  0  0  0  0  0  0  0  0
   -3.3750   -2.2200    2.0380 C   0  0  0  0  0  0  0  0  0  0  0  0
   -1.2600   -0.8530    1.8040 C   0  0  0  0  0  0  0  0  0  0  0  0
   -0.4540   -1.4590    3.2710 S   0  0  0  0  0  0  0  0  0  0  0  0
    1.1650   -0.6770    3.4980 C   0  0  0  0  0  0  0  0  0  0  0  0
  1  2  2  0
  2  3  1  0
  3  4  1  0
  4  5  1  0
  5  6  2  0
  5  7  1  0
  8  7  1  6
  8  9  1  0
  8 18  1  0
  9 10  2  0
  9 15  1  0
 10 11  1  0
 11 12  1  6
 11 13  1  0
 13 14  1  0
 14 15  2  0
 15 16  1  0
 16 17  1  0
 16 18  2  0
 18 19  1  0
 19 20  1  0
M  CHG  1  12   1
M  END
