
     RDKit          3D

 20 22  0  0  0  0  0  0  0  0999 V2000
    6.0130    1.8590   -1.3480 N   0  0  0  0  0  0  0  0  0  0  0  0
    4.7940    1.0950   -1.3900 C   0  0  0  0  0  0  0  0  0  0  0  0
    3.5400    1.4940   -2.3290 S   0  0  0  0  0  0  0  0  0  0  0  0
    4.7300   -0.0960   -0.5220 C   0  0  0  0  0  0  0  0  0  0  0  0
    3.4210   -0.7780   -0.6700 C   0  0  0  0  0  0  0  0  0  0  0  0
    2.3010   -0.5530    0.0410 N   0  0  0  0  0  0  0  0  0  0  0  0
    1.3040   -1.3580   -0.3670 C   0  0  0  0  0  0  0  0  0  0  0  0
   -0.0490   -1.3310    0.2390 C   0  0  1  0  0  0  0  0  0  0  0  0
    0.0010   -1.6380    1.7200 C   0  0  0  0  0  0  0  0  0  0  0  0
   -1.4210   -1.6790    2.2190 C   0  0  0  0  0  0  0  0  0  0  0  0
   -2.4370   -1.4980    1.1210 C   0  0  0  0  0  0  0  0  0  0  0  0
   -2.2120   -0.1830    0.3740 C   0  0  2  0  0  0  0  0  0  0  0  0
   -2.7390    0.9000    1.2640 C   0  0  0  0  0  0  0  0  0  0  0  0
   -3.1100    2.1020    0.5880 N   0  0  0  0  0  0  0  0  0  0  0  0
   -3.9040    1.8020   -0.5870 C   0  0  0  0  0  0  0  0  0  0  0  0
   -3.0140    0.9290   -1.4820 C   0  0  0  0  0  0  0  0  0  0  0  0
   -2.8590   -0.2730   -0.8310 O   0  0  0  0  0  0  0  0  0  0  0  0
   -0.7230    0.0050    0.0760 C   0  0  0  0  0  0  0  0  0  0  0  0
    1.8110   -2.0980   -1.3480 N   0  0  0  0  0  0  0  0  0  0  0  0
    3.0810   -1.7630   -1.5440 N   0  0  0  0  0  0  0  0  0  0  0  0
  1  2  1  0
  2  3  2  0
  2  4  1  0
  4  5  1  0
  5  6  2  0
  5 20  1  0
  6  7  1  0
  8  7  1  1
  7 19  2  0
  8  9  1  0
  8 18  1  0
  9 10  1  0
 10 11  1  0
 12 11  1  1
 12 13  1  0
 12 17  1  0
 12 18  1  0
 13 14  1  0
 14 15  1  0
 15 16  1  0
 16 17  1  0
 19 20  1  0
M  CHG  1  14   1
M  END
