
     RDKit          3D

 16 17  0  0  0  0  0  0  0  0999 V2000
   -0.6960    3.2580   -0.4600 C   0  0  0  0  0  0  0  0  0  0  0  0
   -0.1150    2.0180   -0.2240 O   0  0  0  0  0  0  0  0  0  0  0  0
   -0.7900    0.8230   -0.1240 C   0  0  0  0  0  0  0  0  0  0  0  0
   -2.1830    0.7910   -0.2570 C   0  0  0  0  0  0  0  0  0  0  0  0
   -2.9210   -0.3650   -0.1610 C   0  0  0  0  0  0  0  0  0  0  0  0
   -4.3360   -0.3720   -0.2990 N   0  0  0  0  0  0  0  0  0  0  0  0
   -2.2240   -1.5190    0.0750 C   0  0  0  0  0  0  0  0  0  0  0  0
   -0.8390   -1.5450    0.2140 C   0  0  0  0  0  0  0  0  0  0  0  0
   -0.1710   -2.7790    0.4030 N   0  0  0  0  0  0  0  0  0  0  0  0
   -0.1140   -0.3500    0.1120 C   0  0  0  0  0  0  0  0  0  0  0  0
    1.3480   -0.3320    0.1530 C   0  0  0  0  0  0  0  0  0  0  0  0
    2.1140    0.5640   -0.4370 C   0  0  0  0  0  0  0  0  0  0  0  0
    3.5890    0.6100   -0.4100 C   0  0  0  0  0  0  0  0  0  0  0  0
    4.1620   -0.3430    0.4280 O   0  0  0  0  0  0  0  0  0  0  0  0
    3.4330   -1.2970    1.0680 C   0  0  0  0  0  0  0  0  0  0  0  0
    2.0930   -1.3150    0.9550 C   0  0  0  0  0  0  0  0  0  0  0  0
  1  2  1  0
  2  3  1  0
  3  4  2  0
  3 10  1  0
  4  5  1  0
  5  6  1  0
  5  7  2  0
  7  8  1  0
  8  9  1  0
  8 10  2  0
 10 11  1  0
 11 12  2  0
 11 16  1  0
 12 13  1  0
 13 14  1  0
 14 15  1  0
 15 16  2  0
M  END
