
     RDKit          3D

 16 16  0  0  0  0  0  0  0  0999 V2000
    3.7520   -0.1180   -0.6050 C   0  0  0  0  0  0  0  0  0  0  0  0
    2.4910   -0.5400    0.1860 C   0  0  0  0  0  0  0  0  0  0  0  0
    2.7400   -1.4320    1.2580 C   0  0  0  0  0  0  0  0  0  0  0  0
    1.9630   -1.7210    2.1620 O   0  0  0  0  0  0  0  0  0  0  0  0
    4.0020   -2.0790    1.3330 O   0  0  0  0  0  0  0  0  0  0  0  0
    1.4010    0.1060   -0.1120 C   0  0  0  0  0  0  0  0  0  0  0  0
    1.7170    1.1230   -1.1570 N   0  0  0  0  0  0  0  0  0  0  0  0
    0.0220   -0.2030    0.1220 C   0  0  0  0  0  0  0  0  0  0  0  0
   -0.9700    0.6190   -0.1190 C   0  0  0  0  0  0  0  0  0  0  0  0
   -0.7900    1.9700   -0.6400 C   0  0  0  0  0  0  0  0  0  0  0  0
   -1.7240    2.8490   -0.9250 C   0  0  0  0  0  0  0  0  0  0  0  0
   -3.1190    2.7800   -0.8260 N   0  0  0  0  0  0  0  0  0  0  0  0
   -2.3990    0.2620    0.0910 C   0  0  0  0  0  0  0  0  0  0  0  0
   -2.7420   -1.1780    0.2350 C   0  0  0  0  0  0  0  0  0  0  0  0
   -1.6100   -2.1040   -0.0620 C   0  0  0  0  0  0  0  0  0  0  0  0
   -0.3230   -1.5830    0.5790 C   0  0  0  0  0  0  0  0  0  0  0  0
  1  2  1  0
  2  3  1  0
  2  6  2  3
  3  4  2  0
  3  5  1  0
  6  7  1  0
  6  8  1  0
  8  9  2  0
  8 16  1  0
  9 10  1  0
  9 13  1  0
 10 11  2  3
 11 12  1  0
 13 14  1  0
 14 15  1  0
 15 16  1  0
M  END
