
     RDKit          3D

 16 17  0  0  0  0  0  0  0  0999 V2000
    4.0720   -0.7220    0.7290 C   0  0  0  0  0  0  0  0  0  0  0  0
    3.4860   -0.5770   -0.6450 C   0  0  0  0  0  0  0  0  0  0  0  0
    2.0550   -0.2280   -0.5340 C   0  0  0  0  0  0  0  0  0  0  0  0
    1.1330   -1.2220   -0.2250 N   0  0  0  0  0  0  0  0  0  0  0  0
   -0.0890   -0.7100   -0.0490 C   0  0  0  0  0  0  0  0  0  0  0  0
   -1.3160   -1.2670    0.2670 C   0  0  0  0  0  0  0  0  0  0  0  0
   -2.4180   -0.4560    0.4120 C   0  0  0  0  0  0  0  0  0  0  0  0
   -3.7450   -1.0460    0.7040 C   0  0  0  0  0  0  0  0  0  0  0  0
   -3.9610   -1.9430   -0.3720 O   0  0  0  0  0  0  0  0  0  0  0  0
   -2.2950    0.8990    0.2560 C   0  0  0  0  0  0  0  0  0  0  0  0
   -3.4010    1.7370    0.5520 N   0  0  0  0  0  0  0  0  0  0  0  0
   -1.0620    1.4860   -0.0850 C   0  0  0  0  0  0  0  0  0  0  0  0
    0.0090    0.6600   -0.2450 C   0  0  0  0  0  0  0  0  0  0  0  0
    1.3420    0.9080   -0.5660 C   0  0  0  0  0  0  0  0  0  0  0  0
    1.7800    2.2150   -1.0820 C   0  0  0  0  0  0  0  0  0  0  0  0
    2.3040    3.1500   -0.6360 O   0  0  0  0  0  0  0  0  0  0  0  0
  1  2  1  0
  2  3  1  0
  3  4  1  0
  3 14  2  0
  4  5  1  0
  5  6  2  0
  5 13  1  0
  6  7  1  0
  7  8  1  0
  7 10  2  0
  8  9  1  0
 10 11  1  0
 10 12  1  0
 12 13  2  0
 13 14  1  0
 14 15  1  0
 15 16  2  0
M  END
