
     RDKit          3D

 27 27  0  0  0  0  0  0  0  0999 V2000
    0.4710   -0.9610   -2.5510 C   0  0  0  0  0  0  0  0  0  0  0  0
    1.5380   -1.3190   -1.5640 C   0  0  2  0  0  0  0  0  0  0  0  0
    2.6790   -1.6070   -2.3500 O   0  0  0  0  0  0  0  0  0  0  0  0
    1.1010   -2.4920   -0.7700 C   0  0  0  0  0  0  0  0  0  0  0  0
    1.9550   -3.4770   -0.8360 O   0  0  0  0  0  0  0  0  0  0  0  0
   -0.0440   -2.5170   -0.0690 O   0  0  0  0  0  0  0  0  0  0  0  0
   -1.3430   -2.9110   -0.2450 C   0  0  0  0  0  0  0  0  0  0  0  0
   -2.2830   -2.3130    0.8200 C   0  0  0  0  0  0  0  0  0  0  0  0
   -3.4830   -1.8990    0.2920 O   0  0  0  0  0  0  0  0  0  0  0  0
   -3.7170   -0.5190    0.5240 C   0  0  2  0  0  0  0  0  0  0  0  0
   -5.0200   -0.2870    0.1030 O   0  0  0  0  0  0  0  0  0  0  0  0
   -2.6990    0.2150   -0.2930 C   0  0  1  0  0  0  0  0  0  0  0  0
   -3.2300    0.3760   -1.5720 O   0  0  0  0  0  0  0  0  0  0  0  0
   -2.2830    1.5570    0.2020 C   0  0  1  0  0  0  0  0  0  0  0  0
   -3.3390    2.3000    0.8950 C   0  0  0  0  0  0  0  0  0  0  0  0
   -3.1450    2.7360    2.2350 N   0  0  0  0  0  0  0  0  0  0  0  0
   -4.4460    2.5910    0.3720 O   0  0  0  0  0  0  0  0  0  0  0  0
   -1.1750    1.3960    1.0620 O   0  0  0  0  0  0  0  0  0  0  0  0
   -0.0060    0.7130    0.8010 C   0  0  0  0  0  0  0  0  0  0  0  0
    0.5250   -0.0350    1.6610 O   0  0  0  0  0  0  0  0  0  0  0  0
    0.7110    0.8020   -0.4950 C   0  0  0  0  0  0  0  0  0  0  0  0
    1.8610   -0.1510   -0.6300 C   0  0  2  0  0  0  0  0  0  0  0  0
    3.0580    0.4300   -0.9850 O   0  0  0  0  0  0  0  0  0  0  0  0
    4.1530    0.2560   -0.2510 C   0  0  0  0  0  0  0  0  0  0  0  0
    4.0290    0.7850    1.1480 C   0  0  0  0  0  0  0  0  0  0  0  0
    3.7760    2.2740    1.2130 C   0  0  0  0  0  0  0  0  0  0  0  0
    4.8520    2.9360    0.5860 O   0  0  0  0  0  0  0  0  0  0  0  0
  2  1  1  6
  2  3  1  0
  2  4  1  0
  2 22  1  0
  4  5  2  0
  4  6  1  0
  6  7  1  0
  7  8  1  0
  8  9  1  0
  9 10  1  0
 10 11  1  6
 10 12  1  0
 12 13  1  6
 12 14  1  0
 14 15  1  1
 14 18  1  0
 15 16  1  0
 15 17  2  0
 18 19  1  0
 19 20  2  0
 19 21  1  0
 21 22  1  0
 22 23  1  6
 23 24  1  0
 24 25  1  0
 25 26  1  0
 26 27  1  0
M  END
