
     RDKit          3D

 26 27  0  0  0  0  0  0  0  0999 V2000
    1.1250   -1.8510   -1.6690 C   0  0  0  0  0  0  0  0  0  0  0  0
    0.5240   -1.6340   -0.2810 C   0  0  1  0  0  0  0  0  0  0  0  0
   -0.8900   -1.2150   -0.5450 C   0  0  0  0  0  0  0  0  0  0  0  0
   -1.5940   -2.0160   -1.2110 O   0  0  0  0  0  0  0  0  0  0  0  0
   -1.4520   -0.0440   -0.1180 O   0  0  0  0  0  0  0  0  0  0  0  0
   -2.7890    0.3400   -0.3730 C   0  0  1  0  0  0  0  0  0  0  0  0
   -3.5170    0.7810    0.8800 C   0  0  0  0  0  0  0  0  0  0  0  0
   -4.6940    1.5490    0.2790 C   0  0  1  0  0  0  0  0  0  0  0  0
   -5.0550    2.6100    1.0920 O   0  0  0  0  0  0  0  0  0  0  0  0
   -4.2120    2.0460   -1.0820 C   0  0  0  0  0  0  0  0  0  0  0  0
   -2.7440    1.6430   -1.1440 C   0  0  1  0  0  0  0  0  0  0  0  0
   -2.0210    2.5400   -0.3410 O   0  0  0  0  0  0  0  0  0  0  0  0
    0.5270   -2.9870    0.3920 C   0  0  0  0  0  0  0  0  0  0  0  0
    1.5760   -3.1720    1.4200 C   0  0  0  0  0  0  0  0  0  0  0  0
    2.7350   -2.2240    1.3080 C   0  0  2  0  0  0  0  0  0  0  0  0
    3.3980   -2.2570    2.5410 O   0  0  0  0  0  0  0  0  0  0  0  0
    2.3590   -0.8390    0.9300 C   0  0  1  0  0  0  0  0  0  0  0  0
    3.3880   -0.2020   -0.0130 C   0  0  2  0  0  0  0  0  0  0  0  0
    4.6810   -0.4090    0.4950 O   0  0  0  0  0  0  0  0  0  0  0  0
    3.1420    1.2470   -0.2090 C   0  0  0  0  0  0  0  0  0  0  0  0
    4.0530    2.0600    0.1150 O   0  0  0  0  0  0  0  0  0  0  0  0
    1.9500    1.7940   -0.7390 N   0  0  0  0  0  0  0  0  0  0  0  0
    1.7700    3.2080   -0.9100 C   0  0  0  0  0  0  0  0  0  0  0  0
    2.6910    3.9880   -0.5780 O   0  0  0  0  0  0  0  0  0  0  0  0
    0.6070    3.7500   -1.4320 O   0  0  0  0  0  0  0  0  0  0  0  0
    1.1220   -0.6480    0.4280 O   0  0  0  0  0  0  0  0  0  0  0  0
  2  1  1  6
  2  3  1  0
  2 13  1  0
  2 26  1  0
  3  4  2  0
  3  5  1  0
  6  5  1  1
  6  7  1  0
  6 11  1  0
  7  8  1  0
  8  9  1  1
  8 10  1  0
 10 11  1  0
 11 12  1  1
 13 14  1  0
 14 15  1  0
 15 16  1  1
 15 17  1  0
 17 18  1  0
 17 26  1  6
 18 19  1  1
 18 20  1  0
 20 21  2  0
 20 22  1  0
 22 23  1  0
 23 24  2  0
 23 25  1  0
M  END
