
     RDKit          3D

 27 28  0  0  0  0  0  0  0  0999 V2000
    5.7060    2.2300   -0.3530 O   0  0  0  0  0  0  0  0  0  0  0  0
    6.2800    1.1270   -0.5960 C   0  0  0  0  0  0  0  0  0  0  0  0
    7.6470    1.0850   -0.4740 O   0  0  0  0  0  0  0  0  0  0  0  0
    5.5060   -0.0720   -0.9980 C   0  0  0  0  0  0  0  0  0  0  0  0
    4.1480    0.2140   -1.0540 O   0  0  0  0  0  0  0  0  0  0  0  0
    3.4800   -0.9630   -1.4400 C   0  0  0  0  0  0  0  0  0  0  0  0
    2.1220   -0.8000   -1.5290 O   0  0  0  0  0  0  0  0  0  0  0  0
    1.5060   -0.4130   -0.3580 C   0  0  2  0  0  0  0  0  0  0  0  0
    2.0560    0.8270    0.0420 O   0  0  0  0  0  0  0  0  0  0  0  0
    1.8470   -1.3810    0.7570 C   0  0  0  0  0  0  0  0  0  0  0  0
    1.2730   -0.7170    1.9900 C   0  0  0  0  0  0  0  0  0  0  0  0
   -0.2190   -0.7050    1.8680 C   0  0  1  0  0  0  0  0  0  0  0  0
   -0.6110    0.1050    3.0020 O   0  0  0  0  0  0  0  0  0  0  0  0
   -0.7460   -0.0630    0.6370 C   0  0  2  0  0  0  0  0  0  0  0  0
   -2.2140   -0.2860    0.5210 C   0  0  1  0  0  0  0  0  0  0  0  0
   -2.4790   -1.6560    0.4630 O   0  0  0  0  0  0  0  0  0  0  0  0
   -2.9330    0.1390    1.8030 C   0  0  0  0  0  0  0  0  0  0  0  0
   -2.7450    1.4700    2.0880 O   0  0  0  0  0  0  0  0  0  0  0  0
   -2.9710    0.3200   -0.5910 C   0  0  2  0  0  0  0  0  0  0  0  0
   -2.8500   -0.3700   -1.9360 C   0  0  0  0  0  0  0  0  0  0  0  0
   -3.8280    0.1900   -2.8070 O   0  0  0  0  0  0  0  0  0  0  0  0
   -3.0200    1.7930   -0.6850 C   0  0  0  0  0  0  0  0  0  0  0  0
   -4.2090    2.2060   -0.0350 O   0  0  0  0  0  0  0  0  0  0  0  0
   -5.1410    1.1830   -0.1370 C   0  0  0  0  0  0  0  0  0  0  0  0
   -6.3810    1.3070   -0.1430 O   0  0  0  0  0  0  0  0  0  0  0  0
   -4.3870    0.0080   -0.2290 N   0  0  0  0  0  0  0  0  0  0  0  0
    0.0330   -0.2970   -0.5770 C   0  0  0  0  0  0  0  0  0  0  0  0
  1  2  2  0
  2  3  1  0
  2  4  1  0
  4  5  1  0
  5  6  1  0
  6  7  1  0
  7  8  1  0
  8  9  1  1
  8 10  1  0
  8 27  1  0
 10 11  1  0
 11 12  1  0
 12 13  1  1
 12 14  1  0
 14 15  1  0
 14 27  1  6
 15 16  1  6
 15 17  1  0
 15 19  1  0
 17 18  1  0
 19 20  1  6
 19 22  1  0
 19 26  1  0
 20 21  1  0
 22 23  1  0
 23 24  1  0
 24 25  2  0
 24 26  1  0
M  END
