
     RDKit          3D

 27 27  0  0  0  0  0  0  0  0999 V2000
    5.7060    1.8750    2.5210 C   0  0  0  0  0  0  0  0  0  0  0  0
    5.1040    2.1200    1.2610 O   0  0  0  0  0  0  0  0  0  0  0  0
    3.9310    1.4980    0.8610 C   0  0  0  0  0  0  0  0  0  0  0  0
    3.4050    0.6910    1.6690 O   0  0  0  0  0  0  0  0  0  0  0  0
    3.3650    1.8120   -0.4780 C   0  0  0  0  0  0  0  0  0  0  0  0
    2.1710    1.0900   -0.7190 O   0  0  0  0  0  0  0  0  0  0  0  0
    2.1230   -0.2920   -0.7250 C   0  0  0  0  0  0  0  0  0  0  0  0
    3.1940   -0.9060   -0.5050 O   0  0  0  0  0  0  0  0  0  0  0  0
    0.8690   -1.0750   -0.9780 C   0  0  2  0  0  0  0  0  0  0  0  0
    1.1340   -2.4580   -0.9150 O   0  0  0  0  0  0  0  0  0  0  0  0
    1.6380   -3.0870    0.2070 C   0  0  0  0  0  0  0  0  0  0  0  0
    1.8920   -4.4810    0.2380 N   0  0  0  0  0  0  0  0  0  0  0  0
    1.8720   -2.3820    1.2220 O   0  0  0  0  0  0  0  0  0  0  0  0
    0.3240   -0.7780   -2.3610 C   0  0  0  0  0  0  0  0  0  0  0  0
   -0.8860    0.0840   -2.3820 C   0  0  0  0  0  0  0  0  0  0  0  0
   -1.9210   -0.2670   -1.5620 O   0  0  0  0  0  0  0  0  0  0  0  0
   -1.5800   -0.9930   -0.4560 C   0  0  2  0  0  0  0  0  0  0  0  0
   -1.7670   -2.4570   -0.8170 C   0  0  0  0  0  0  0  0  0  0  0  0
   -2.5450   -0.7230    0.6640 C   0  0  2  0  0  0  0  0  0  0  0  0
   -3.8630   -1.0860    0.2880 O   0  0  0  0  0  0  0  0  0  0  0  0
   -2.6260    0.6770    1.1490 C   0  0  0  0  0  0  0  0  0  0  0  0
   -3.0460    1.6940    0.1420 C   0  0  1  0  0  0  0  0  0  0  0  0
   -4.3320    1.3960   -0.3670 O   0  0  0  0  0  0  0  0  0  0  0  0
   -3.2400    3.0070    0.9260 C   0  0  0  0  0  0  0  0  0  0  0  0
   -4.1660    2.7920    1.9340 O   0  0  0  0  0  0  0  0  0  0  0  0
   -0.1840   -0.7090    0.0260 C   0  0  2  0  0  0  0  0  0  0  0  0
   -0.0820    0.6940    0.1750 O   0  0  0  0  0  0  0  0  0  0  0  0
  1  2  1  0
  2  3  1  0
  3  4  2  0
  3  5  1  0
  5  6  1  0
  6  7  1  0
  7  8  2  0
  7  9  1  0
  9 10  1  6
  9 14  1  0
  9 26  1  0
 10 11  1  0
 11 12  1  0
 11 13  2  0
 14 15  1  0
 15 16  1  0
 16 17  1  0
 17 18  1  6
 17 19  1  0
 17 26  1  0
 19 20  1  6
 19 21  1  0
 21 22  1  0
 22 23  1  1
 22 24  1  0
 24 25  1  0
 26 27  1  6
M  END
