
     RDKit          3D

 26 27  0  0  0  0  0  0  0  0999 V2000
   -3.1780   -2.1400   -0.0470 C   0  0  0  0  0  0  0  0  0  0  0  0
   -3.0290   -0.8650    0.7310 C   0  0  2  0  0  0  0  0  0  0  0  0
   -3.0670   -1.1390    2.1820 C   0  0  0  0  0  0  0  0  0  0  0  0
   -1.9980   -1.9320    2.5860 O   0  0  0  0  0  0  0  0  0  0  0  0
   -4.1450   -0.0690    0.3290 O   0  0  0  0  0  0  0  0  0  0  0  0
   -3.9160    0.0160   -1.0440 C   0  0  0  0  0  0  0  0  0  0  0  0
   -2.4240    0.2060   -1.2140 C   0  0  0  0  0  0  0  0  0  0  0  0
   -1.9490    0.0480    0.2180 C   0  0  1  0  0  0  0  0  0  0  0  0
   -2.1700    1.3280    0.9560 C   0  0  0  0  0  0  0  0  0  0  0  0
   -1.8730    1.5690    2.2980 N   0  0  0  0  0  0  0  0  0  0  0  0
   -2.6830    2.3160    0.3160 O   0  0  0  0  0  0  0  0  0  0  0  0
   -0.6250   -0.5380    0.3640 C   0  0  1  0  0  0  0  0  0  0  0  0
   -0.6490   -1.7530   -0.3790 O   0  0  0  0  0  0  0  0  0  0  0  0
    0.5790    0.1870   -0.1210 C   0  0  1  0  0  0  0  0  0  0  0  0
    0.8360    1.5250    0.4640 C   0  0  0  0  0  0  0  0  0  0  0  0
    1.9330    2.1740   -0.1560 O   0  0  0  0  0  0  0  0  0  0  0  0
    2.1350    3.4120    0.4190 C   0  0  2  0  0  0  0  0  0  0  0  0
    2.1020    4.4580   -0.4800 O   0  0  0  0  0  0  0  0  0  0  0  0
    3.4330    3.3950    0.9760 O   0  0  0  0  0  0  0  0  0  0  0  0
    1.7530   -0.5550    0.0740 O   0  0  0  0  0  0  0  0  0  0  0  0
    2.4170   -0.9490   -1.0570 C   0  0  2  0  0  0  0  0  0  0  0  0
    2.7010   -2.4550   -1.0390 C   0  0  0  0  0  0  0  0  0  0  0  0
    4.0340   -2.5700   -0.6410 O   0  0  0  0  0  0  0  0  0  0  0  0
    4.6590   -1.5650   -1.3790 C   0  0  0  0  0  0  0  0  0  0  0  0
    3.8100   -0.3730   -0.9940 C   0  0  1  0  0  0  0  0  0  0  0  0
    3.9810    0.6830   -1.8890 O   0  0  0  0  0  0  0  0  0  0  0  0
  2  1  1  6
  2  3  1  0
  2  5  1  0
  2  8  1  0
  3  4  1  0
  5  6  1  0
  6  7  1  0
  7  8  1  0
  8  9  1  1
  8 12  1  0
  9 10  1  0
  9 11  2  0
 12 13  1  6
 12 14  1  0
 14 15  1  1
 14 20  1  0
 15 16  1  0
 16 17  1  0
 17 18  1  6
 17 19  1  0
 21 20  1  1
 21 22  1  0
 21 25  1  0
 22 23  1  0
 23 24  1  0
 24 25  1  0
 25 26  1  6
M  END
