
     RDKit          3D

 30 33  0  0  0  0  0  0  0  0999 V2000
   -5.7880    2.3330   -1.9040 C   0  0  0  0  0  0  0  0  0  0  0  0
   -4.8280    1.2650   -1.4290 C   0  0  0  0  0  0  0  0  0  0  0  0
   -3.5950    1.6070   -1.2110 C   0  0  0  0  0  0  0  0  0  0  0  0
   -2.5300    0.7380   -0.7560 C   0  0  0  0  0  0  0  0  0  0  0  0
   -1.2680    1.3520   -0.6140 C   0  0  0  0  0  0  0  0  0  0  0  0
   -1.0800    2.7890   -0.9370 C   0  0  0  0  0  0  0  0  0  0  0  0
   -1.6720    3.6170    0.1640 C   0  0  0  0  0  0  0  0  0  0  0  0
   -0.2200    0.5850   -0.1760 C   0  0  0  0  0  0  0  0  0  0  0  0
   -0.3750   -0.7430    0.1200 C   0  0  0  0  0  0  0  0  0  0  0  0
    0.7510   -1.5240    0.5800 C   0  0  0  0  0  0  0  0  0  0  0  0
    0.5300   -2.8620    0.8660 C   0  0  0  0  0  0  0  0  0  0  0  0
    1.5270   -3.6510    1.2990 N   0  0  0  0  0  0  0  0  0  0  0  0
    2.7450   -3.1430    1.4560 C   0  0  0  0  0  0  0  0  0  0  0  0
    3.0930   -1.8000    1.1990 C   0  0  0  0  0  0  0  0  0  0  0  0
    4.4250   -1.3440    1.4040 C   0  0  0  0  0  0  0  0  0  0  0  0
    5.2360   -2.2740    1.8680 O   0  0  0  0  0  0  0  0  0  0  0  0
    4.9950   -0.1240    1.2040 N   0  0  0  0  0  0  0  0  0  0  0  0
    4.3910    1.0610    0.7130 C   0  0  0  0  0  0  0  0  0  0  0  0
    5.4840    2.1340    0.5030 C   0  0  0  0  0  0  0  0  0  0  0  0
    6.4580    1.5330   -0.3830 N   0  0  0  0  0  0  0  0  0  0  0  0
    7.1680    0.4620    0.2770 C   0  0  0  0  0  0  0  0  0  0  0  0
    6.4350    0.0410    1.5340 C   0  0  0  0  0  0  0  0  0  0  0  0
    2.0320   -1.0270    0.7550 C   0  0  0  0  0  0  0  0  0  0  0  0
   -1.6030   -1.2830   -0.0340 N   0  0  0  0  0  0  0  0  0  0  0  0
   -2.6820   -0.5950   -0.4590 C   0  0  0  0  0  0  0  0  0  0  0  0
   -3.9090   -1.1940   -0.5980 O   0  0  0  0  0  0  0  0  0  0  0  0
   -4.1980   -2.5300   -0.3290 C   0  0  1  0  0  0  0  0  0  0  0  0
   -5.4630   -2.6450    0.4970 C   0  0  0  0  0  0  0  0  0  0  0  0
   -6.2390   -2.7080   -0.8070 C   0  0  0  0  0  0  0  0  0  0  0  0
   -4.9690   -3.2020   -1.4710 C   0  0  0  0  0  0  0  0  0  0  0  0
  1  2  1  0
  2  3  2  3
  3  4  1  0
  4  5  2  0
  4 25  1  0
  5  6  1  0
  5  8  1  0
  6  7  1  0
  8  9  2  0
  9 10  1  0
  9 24  1  0
 10 11  2  0
 10 23  1  0
 11 12  1  0
 12 13  2  0
 13 14  1  0
 14 15  1  0
 14 23  2  0
 15 16  2  0
 15 17  1  0
 17 18  1  0
 17 22  1  0
 18 19  1  0
 19 20  1  0
 20 21  1  0
 21 22  1  0
 24 25  2  0
 25 26  1  0
 27 26  1  6
 27 28  1  0
 27 30  1  0
 28 29  1  0
 29 30  1  0
M  CHG  1  20   1
M  END
