
     RDKit          3D

 31 34  0  0  0  0  0  0  0  0999 V2000
    7.1920   -0.4100    0.1900 C   0  0  0  0  0  0  0  0  0  0  0  0
    6.5790   -1.3120   -0.8450 C   0  0  0  0  0  0  0  0  0  0  0  0
    5.1590   -1.5500   -0.5480 N   0  0  0  0  0  0  0  0  0  0  0  0
    4.2580   -0.4650   -0.4890 C   0  0  0  0  0  0  0  0  0  0  0  0
    4.6640    0.7030   -0.6900 O   0  0  0  0  0  0  0  0  0  0  0  0
    2.8540   -0.6750   -0.1980 N   0  0  0  0  0  0  0  0  0  0  0  0
    2.0030    0.4760   -0.1550 C   0  0  0  0  0  0  0  0  0  0  0  0
    0.5870    0.2230    0.1420 C   0  0  0  0  0  0  0  0  0  0  0  0
    0.1010   -1.0170    0.3600 C   0  0  0  0  0  0  0  0  0  0  0  0
   -1.2650   -1.1950    0.6490 C   0  0  0  0  0  0  0  0  0  0  0  0
   -1.7520   -2.5680    0.7360 C   0  0  0  0  0  0  0  0  0  0  0  0
   -2.2270   -3.1190   -0.5490 C   0  0  0  0  0  0  0  0  0  0  0  0
   -1.4020   -3.4580   -1.5940 C   0  0  0  0  0  0  0  0  0  0  0  0
   -2.1870   -3.9450   -2.5640 N   0  0  0  0  0  0  0  0  0  0  0  0
   -3.4480   -3.9280   -2.1800 N   0  0  0  0  0  0  0  0  0  0  0  0
   -3.4990   -3.4110   -0.9110 C   0  0  0  0  0  0  0  0  0  0  0  0
   -2.1340   -0.0840    0.7190 C   0  0  0  0  0  0  0  0  0  0  0  0
   -3.4090   -0.2820    1.4080 C   0  0  1  0  0  0  0  0  0  0  0  0
   -2.8570   -1.0420    2.6070 F   0  0  0  0  0  0  0  0  0  0  0  0
   -3.7650    0.7290    2.3730 F   0  0  0  0  0  0  0  0  0  0  0  0
   -4.3190   -1.1420    1.0790 F   0  0  0  0  0  0  0  0  0  0  0  0
   -1.6190    1.1570    0.4700 C   0  0  0  0  0  0  0  0  0  0  0  0
   -0.2450    1.3190    0.1890 C   0  0  0  0  0  0  0  0  0  0  0  0
    0.2490    2.5750   -0.0530 C   0  0  0  0  0  0  0  0  0  0  0  0
   -0.5370    3.6880   -0.0540 C   0  0  0  0  0  0  0  0  0  0  0  0
   -1.8870    3.5450    0.1890 C   0  0  0  0  0  0  0  0  0  0  0  0
   -2.7150    4.6300    0.0460 C   0  0  0  0  0  0  0  0  0  0  0  0
   -4.0790    4.5130    0.1320 C   0  0  0  0  0  0  0  0  0  0  0  0
   -4.6160    3.2610    0.3650 C   0  0  0  0  0  0  0  0  0  0  0  0
   -3.7970    2.1570    0.5160 C   0  0  0  0  0  0  0  0  0  0  0  0
   -2.4420    2.2870    0.4460 C   0  0  0  0  0  0  0  0  0  0  0  0
  1  2  1  0
  2  3  1  0
  3  4  1  0
  4  5  2  0
  4  6  1  0
  6  7  1  0
  7  8  1  0
  8  9  2  0
  8 23  1  0
  9 10  1  0
 10 11  1  0
 10 17  2  0
 11 12  1  0
 12 13  1  0
 12 16  2  0
 13 14  2  0
 14 15  1  0
 15 16  1  0
 17 18  1  0
 17 22  1  0
 18 19  1  1
 18 20  1  0
 18 21  1  0
 22 23  2  0
 22 31  1  0
 23 24  1  0
 24 25  2  0
 25 26  1  0
 26 27  2  0
 26 31  1  0
 27 28  1  0
 28 29  2  0
 29 30  1  0
 30 31  2  0
M  END
