
     RDKit          3D

 31 34  0  0  0  0  0  0  0  0999 V2000
    7.2220    1.6590    2.4730 C   0  0  0  0  0  0  0  0  0  0  0  0
    6.4100    0.7340    1.6270 C   0  0  0  0  0  0  0  0  0  0  0  0
    6.7730   -0.6090    1.4640 N   0  0  0  0  0  0  0  0  0  0  0  0
    5.3470    1.2110    1.0400 C   0  0  0  0  0  0  0  0  0  0  0  0
    4.5280    0.3470    0.2080 C   0  0  0  0  0  0  0  0  0  0  0  0
    3.4280    0.7540   -0.4280 C   0  0  0  0  0  0  0  0  0  0  0  0
    2.6140   -0.1320   -1.2620 C   0  0  1  0  0  0  0  0  0  0  0  0
    2.9790   -1.5890   -1.1560 C   0  0  0  0  0  0  0  0  0  0  0  0
    2.4150   -1.8800    0.1990 C   0  0  0  0  0  0  0  0  0  0  0  0
    0.9780   -1.4550   -0.0940 N   0  0  0  0  0  0  0  0  0  0  0  0
   -0.0540   -2.3130    0.2040 C   0  0  0  0  0  0  0  0  0  0  0  0
    0.3550   -3.5130    0.6850 O   0  0  0  0  0  0  0  0  0  0  0  0
   -1.4730   -2.1920    0.1030 C   0  0  0  0  0  0  0  0  0  0  0  0
   -2.3460   -3.2510    0.3380 N   0  0  0  0  0  0  0  0  0  0  0  0
   -3.5710   -2.8460    0.2260 N   0  0  0  0  0  0  0  0  0  0  0  0
   -3.6030   -1.5430   -0.0770 C   0  0  0  0  0  0  0  0  0  0  0  0
   -2.2990   -1.1200   -0.1570 C   0  0  0  0  0  0  0  0  0  0  0  0
   -2.0500    0.2920   -0.4990 C   0  0  0  0  0  0  0  0  0  0  0  0
   -3.1980    1.2090   -0.4030 C   0  0  0  0  0  0  0  0  0  0  0  0
   -4.5410    0.6470   -0.4760 C   0  0  0  0  0  0  0  0  0  0  0  0
   -5.6570    1.4590   -0.7200 C   0  0  0  0  0  0  0  0  0  0  0  0
   -6.9270    0.9370   -0.7150 C   0  0  0  0  0  0  0  0  0  0  0  0
   -8.0880    1.8550   -0.9830 C   0  0  0  0  0  0  0  0  0  0  0  0
   -7.1170   -0.4040   -0.4670 C   0  0  0  0  0  0  0  0  0  0  0  0
   -6.0280   -1.2430   -0.2220 C   0  0  0  0  0  0  0  0  0  0  0  0
   -4.7850   -0.6690   -0.2410 C   0  0  0  0  0  0  0  0  0  0  0  0
    1.1720   -0.1910   -0.6870 C   0  0  0  0  0  0  0  0  0  0  0  0
    3.0150    2.1600   -0.2810 C   0  0  1  0  0  0  0  0  0  0  0  0
    2.7610    2.3860    1.0650 F   0  0  0  0  0  0  0  0  0  0  0  0
    3.9640    3.0670   -0.6810 F   0  0  0  0  0  0  0  0  0  0  0  0
    1.8560    2.4400   -0.9840 F   0  0  0  0  0  0  0  0  0  0  0  0
  1  2  1  0
  2  3  1  0
  2  4  2  3
  4  5  1  0
  5  6  2  3
  7  6  1  1
  6 28  1  0
  7  8  1  0
  7 27  1  0
  8  9  1  0
  9 10  1  0
 10 11  1  0
 10 27  1  0
 11 12  2  0
 11 13  1  0
 13 14  1  0
 13 17  2  0
 14 15  1  0
 15 16  2  0
 16 17  1  0
 16 26  1  0
 17 18  1  0
 18 19  1  0
 19 20  1  0
 20 21  2  0
 20 26  1  0
 21 22  1  0
 22 23  1  0
 22 24  2  0
 24 25  1  0
 25 26  2  0
 28 29  1  1
 28 30  1  0
 28 31  1  0
M  END
