
     RDKit          3D

 30 33  0  0  0  0  0  0  0  0999 V2000
    4.8340    6.2490    1.4080 C   0  0  0  0  0  0  0  0  0  0  0  0
    4.1860    5.0580    0.7970 C   0  0  0  0  0  0  0  0  0  0  0  0
    3.4380    5.0530   -0.3300 N   0  0  0  0  0  0  0  0  0  0  0  0
    3.0250    3.8250   -0.5750 O   0  0  0  0  0  0  0  0  0  0  0  0
    3.4810    3.0240    0.3590 C   0  0  0  0  0  0  0  0  0  0  0  0
    3.2400    1.5480    0.4500 C   0  0  0  0  0  0  0  0  0  0  0  0
    2.4240    1.0940   -0.6410 N   0  0  0  0  0  0  0  0  0  0  0  0
    2.8960    1.2790   -1.9920 C   0  0  0  0  0  0  0  0  0  0  0  0
    1.1580    0.4990   -0.3790 C   0  0  0  0  0  0  0  0  0  0  0  0
    0.8910   -0.9100   -0.4570 C   0  0  0  0  0  0  0  0  0  0  0  0
    1.6510   -1.9120   -0.7570 C   0  0  0  0  0  0  0  0  0  0  0  0
    1.0250   -3.2960   -0.7400 C   0  0  0  0  0  0  0  0  0  0  0  0
    1.9660   -4.3200   -0.1550 C   0  0  0  0  0  0  0  0  0  0  0  0
    3.1680   -3.7080    0.2420 O   0  0  0  0  0  0  0  0  0  0  0  0
    3.7510   -3.1490   -0.8870 C   0  0  0  0  0  0  0  0  0  0  0  0
    3.0710   -1.7840   -1.1120 C   0  0  0  0  0  0  0  0  0  0  0  0
    0.1600    1.2870   -0.0420 N   0  0  0  0  0  0  0  0  0  0  0  0
   -1.1080    0.7160    0.2230 C   0  0  0  0  0  0  0  0  0  0  0  0
   -1.5090    0.3830    1.5060 C   0  0  0  0  0  0  0  0  0  0  0  0
   -2.7510   -0.1690    1.7000 C   0  0  0  0  0  0  0  0  0  0  0  0
   -3.6450   -0.4160    0.6480 C   0  0  0  0  0  0  0  0  0  0  0  0
   -4.9620   -0.9750    0.9450 C   0  0  0  0  0  0  0  0  0  0  0  0
   -5.4140   -1.0090    2.2040 C   0  0  0  0  0  0  0  0  0  0  0  0
   -6.7510   -1.6230    2.2020 C   0  0  0  0  0  0  0  0  0  0  0  0
   -7.0070   -1.9620    0.8040 C   0  0  0  0  0  0  0  0  0  0  0  0
   -5.9450   -1.5720    0.0660 C   0  0  0  0  0  0  0  0  0  0  0  0
   -3.2210   -0.0760   -0.6080 C   0  0  0  0  0  0  0  0  0  0  0  0
   -4.0890   -0.2340   -1.7980 C   0  0  0  0  0  0  0  0  0  0  0  0
   -1.9540    0.4910   -0.8390 C   0  0  0  0  0  0  0  0  0  0  0  0
    4.2000    3.7730    1.2120 N   0  0  0  0  0  0  0  0  0  0  0  0
  1  2  1  0
  2  3  2  0
  2 30  1  0
  3  4  1  0
  4  5  1  0
  5  6  1  0
  5 30  2  0
  6  7  1  0
  7  8  1  0
  7  9  1  0
  9 10  1  0
  9 17  2  3
 10 11  2  3
 11 12  1  0
 11 16  1  0
 12 13  1  0
 13 14  1  0
 14 15  1  0
 15 16  1  0
 17 18  1  0
 18 19  2  0
 18 29  1  0
 19 20  1  0
 20 21  2  0
 21 22  1  0
 21 27  1  0
 22 23  2  0
 22 26  1  0
 23 24  1  0
 24 25  1  0
 25 26  2  0
 27 28  1  0
 27 29  2  0
M  CHG  1  17   1
M  END
