
     RDKit          3D

 30 33  0  0  0  0  0  0  0  0999 V2000
   -5.4340   -1.7540   -2.2730 C   0  0  0  0  0  0  0  0  0  0  0  0
   -5.1910   -0.9160   -1.0430 C   0  0  0  0  0  0  0  0  0  0  0  0
   -5.9170   -1.0750    0.0990 N   0  0  0  0  0  0  0  0  0  0  0  0
   -5.6840   -0.3010    1.1710 C   0  0  0  0  0  0  0  0  0  0  0  0
   -6.5610   -0.4300    2.2910 C   0  0  0  0  0  0  0  0  0  0  0  0
   -6.4230    0.4500    3.3680 C   0  0  0  0  0  0  0  0  0  0  0  0
   -5.4180    1.4120    3.3250 C   0  0  0  0  0  0  0  0  0  0  0  0
   -4.5620    1.5040    2.2060 C   0  0  0  0  0  0  0  0  0  0  0  0
   -4.7170    0.6360    1.1470 C   0  0  0  0  0  0  0  0  0  0  0  0
   -3.9420    0.8270   -0.0410 C   0  0  0  0  0  0  0  0  0  0  0  0
   -2.7650    1.6700   -0.0360 C   0  0  0  0  0  0  0  0  0  0  0  0
   -1.4190    1.1860   -0.3170 C   0  0  0  0  0  0  0  0  0  0  0  0
   -0.3670    0.4830    0.4630 C   0  0  0  0  0  0  0  0  0  0  0  0
    0.7990    0.4100   -0.5490 C   0  0  0  0  0  0  0  0  0  0  0  0
    0.6970    1.1530   -1.5850 O   0  0  0  0  0  0  0  0  0  0  0  0
    1.9460   -0.3600   -0.4670 N   0  0  0  0  0  0  0  0  0  0  0  0
    2.9170   -0.2340   -1.5830 C   0  0  0  0  0  0  0  0  0  0  0  0
    4.2550   -0.7960   -1.3140 C   0  0  0  0  0  0  0  0  0  0  0  0
    4.6630   -0.7560    0.0500 N   0  0  0  0  0  0  0  0  0  0  0  0
    6.0080   -0.4700    0.3740 C   0  0  0  0  0  0  0  0  0  0  0  0
    6.3500    0.8580    0.3950 C   0  0  0  0  0  0  0  0  0  0  0  0
    7.6660    1.2000    0.7490 C   0  0  0  0  0  0  0  0  0  0  0  0
    8.5230    0.1830    1.0430 C   0  0  0  0  0  0  0  0  0  0  0  0
    8.1360   -1.1570    0.9990 C   0  0  0  0  0  0  0  0  0  0  0  0
    6.8420   -1.4850    0.6570 N   0  0  0  0  0  0  0  0  0  0  0  0
    3.6970   -1.0030    1.1140 C   0  0  0  0  0  0  0  0  0  0  0  0
    2.3260   -1.2900    0.5360 C   0  0  0  0  0  0  0  0  0  0  0  0
   -4.2150    0.0380   -1.1130 C   0  0  0  0  0  0  0  0  0  0  0  0
   -3.5680    0.2160   -2.4870 C   0  0  0  0  0  0  0  0  0  0  0  0
   -4.0690    1.5020   -2.9620 O   0  0  0  0  0  0  0  0  0  0  0  0
  1  2  1  0
  2  3  2  0
  2 28  1  0
  3  4  1  0
  4  5  2  0
  4  9  1  0
  5  6  1  0
  6  7  2  0
  7  8  1  0
  8  9  2  0
  9 10  1  0
 10 11  1  0
 10 28  2  0
 11 12  1  0
 12 13  1  0
 13 14  1  0
 14 15  2  0
 14 16  1  0
 16 17  1  0
 16 27  1  0
 17 18  1  0
 18 19  1  0
 19 20  1  0
 19 26  1  0
 20 21  2  0
 20 25  1  0
 21 22  1  0
 22 23  2  0
 23 24  1  0
 24 25  2  0
 26 27  1  0
 28 29  1  0
 29 30  1  0
M  CHG  1  25   1
M  END
