
     RDKit          3D

 17 18  0  0  0  0  0  0  0  0999 V2000
    4.7260   -0.0300    0.7560 C   0  0  0  0  0  0  0  0  0  0  0  0
    4.0020   -0.6870   -0.3820 C   0  0  0  0  0  0  0  0  0  0  0  0
    2.5960   -0.5040   -0.2890 O   0  0  0  0  0  0  0  0  0  0  0  0
    2.0480    0.7750   -0.2910 C   0  0  0  0  0  0  0  0  0  0  0  0
    2.8630    1.7260   -0.3790 O   0  0  0  0  0  0  0  0  0  0  0  0
    0.6310    0.9900   -0.1990 C   0  0  0  0  0  0  0  0  0  0  0  0
   -0.1740   -0.0430   -0.1090 C   0  0  0  0  0  0  0  0  0  0  0  0
    0.3680   -1.7500   -0.0930 S   0  0  0  0  0  0  0  0  0  0  0  0
   -1.2900   -2.4470    0.0460 C   0  0  0  0  0  0  0  0  0  0  0  0
   -2.1100   -1.3340    0.0680 C   0  0  0  0  0  0  0  0  0  0  0  0
   -1.5260   -0.1290   -0.0120 C   0  0  0  0  0  0  0  0  0  0  0  0
   -2.3390    0.9660    0.0100 C   0  0  0  0  0  0  0  0  0  0  0  0
   -3.7800    0.8840    0.1140 C   0  0  0  0  0  0  0  0  0  0  0  0
   -4.5260    2.0990    0.1270 N   0  0  0  0  0  0  0  0  0  0  0  0
   -4.3650   -0.2640    0.1920 N   0  0  0  0  0  0  0  0  0  0  0  0
   -3.5930   -1.4370    0.1750 C   0  0  0  0  0  0  0  0  0  0  0  0
   -4.1440   -2.5470    0.2490 O   0  0  0  0  0  0  0  0  0  0  0  0
  1  2  1  0
  2  3  1  0
  3  4  1  0
  4  5  2  0
  4  6  1  0
  6  7  2  3
  7  8  1  0
  7 11  1  0
  8  9  1  0
  9 10  2  0
 10 11  1  0
 10 16  1  0
 11 12  2  0
 12 13  1  0
 13 14  1  0
 13 15  2  0
 15 16  1  0
 16 17  2  0
M  END
