
     RDKit          3D

 17 18  0  0  0  0  0  0  0  0999 V2000
   -0.5430   -2.5800   -0.8280 C   0  0  0  0  0  0  0  0  0  0  0  0
   -0.6310   -1.1420   -0.4550 C   0  0  0  0  0  0  0  0  0  0  0  0
    0.4690   -0.3560   -0.1690 C   0  0  0  0  0  0  0  0  0  0  0  0
    1.8770   -0.7780   -0.1750 C   0  0  0  0  0  0  0  0  0  0  0  0
    2.1680   -1.9600   -0.4600 O   0  0  0  0  0  0  0  0  0  0  0  0
    2.9190    0.1230    0.1360 N   0  0  0  0  0  0  0  0  0  0  0  0
    4.5920   -0.3140    0.1450 S   0  0  1  0  0  0  0  0  0  0  0  0
    5.5350    1.1940    0.2270 C   0  0  0  0  0  0  0  0  0  0  0  0
    4.9510   -1.1210    1.3660 O   0  0  0  0  0  0  0  0  0  0  0  0
    4.9070   -1.0600   -1.1010 O   0  0  0  0  0  0  0  0  0  0  0  0
   -0.0230    0.8650    0.1160 N   0  0  0  0  0  0  0  0  0  0  0  0
   -1.3610    0.8710    0.0220 C   0  0  0  0  0  0  0  0  0  0  0  0
   -1.7810   -0.3960   -0.3420 C   0  0  0  0  0  0  0  0  0  0  0  0
   -3.2010   -0.7310   -0.5370 C   0  0  0  0  0  0  0  0  0  0  0  0
   -4.1470    0.1200    0.2400 C   0  0  0  0  0  0  0  0  0  0  0  0
   -3.5500    1.2700    0.9700 C   0  0  0  0  0  0  0  0  0  0  0  0
   -2.4040    1.9330    0.2320 C   0  0  0  0  0  0  0  0  0  0  0  0
  1  2  1  0
  2  3  2  0
  2 13  1  0
  3  4  1  0
  3 11  1  0
  4  5  2  0
  4  6  1  0
  6  7  1  0
  7  8  1  6
  7  9  2  0
  7 10  2  0
 11 12  1  0
 12 13  2  0
 12 17  1  0
 13 14  1  0
 14 15  1  0
 15 16  1  0
 16 17  1  0
M  END
