
     RDKit          3D

 17 18  0  0  0  0  0  0  0  0999 V2000
   -0.4420    1.4250    0.5780 O   0  0  0  0  0  0  0  0  0  0  0  0
   -0.1180    0.2610    0.2410 C   0  0  0  0  0  0  0  0  0  0  0  0
   -1.1560   -0.6690    0.0070 N   0  0  0  0  0  0  0  0  0  0  0  0
   -2.5180   -0.3140    0.1450 C   0  0  0  0  0  0  0  0  0  0  0  0
   -3.2370   -0.9780    1.0290 C   0  0  0  0  0  0  0  0  0  0  0  0
   -4.6610   -0.6880    1.2500 C   0  0  0  0  0  0  0  0  0  0  0  0
   -5.1500    0.3410    0.4390 O   0  0  0  0  0  0  0  0  0  0  0  0
   -4.4190    1.0420   -0.4850 C   0  0  0  0  0  0  0  0  0  0  0  0
   -3.1400    0.7390   -0.6430 C   0  0  0  0  0  0  0  0  0  0  0  0
    1.3070   -0.1350    0.0910 C   0  0  0  0  0  0  0  0  0  0  0  0
    1.5280   -1.3130   -0.2460 O   0  0  0  0  0  0  0  0  0  0  0  0
    2.3400    0.7630    0.3140 N   0  0  0  0  0  0  0  0  0  0  0  0
    3.7640    0.4650    0.1960 C   0  0  0  0  0  0  0  0  0  0  0  0
    4.2610   -0.7580    0.0590 C   0  0  0  0  0  0  0  0  0  0  0  0
    5.6070   -0.9620   -0.0650 C   0  0  0  0  0  0  0  0  0  0  0  0
    6.2830    0.7550    0.0180 S   0  0  0  0  0  0  0  0  0  0  0  0
    4.6340    1.5400    0.2120 C   0  0  0  0  0  0  0  0  0  0  0  0
  1  2  2  0
  2  3  1  0
  2 10  1  0
  3  4  1  0
  4  5  2  0
  4  9  1  0
  5  6  1  0
  6  7  1  0
  7  8  1  0
  8  9  2  0
 10 11  2  0
 10 12  1  0
 12 13  1  0
 13 14  1  0
 13 17  2  0
 14 15  2  0
 15 16  1  0
 16 17  1  0
M  END
