
     RDKit          3D

 17 18  0  0  0  0  0  0  0  0999 V2000
   -2.9850    0.3590   -1.6040 C   0  0  0  0  0  0  0  0  0  0  0  0
   -3.4260   -0.3300   -0.3290 C   0  0  1  0  0  0  0  0  0  0  0  0
   -2.4340   -1.3190    0.0670 N   0  0  0  0  0  0  0  0  0  0  0  0
   -1.0560   -0.9260    0.1570 C   0  0  0  0  0  0  0  0  0  0  0  0
   -0.0860   -1.8890   -0.1160 C   0  0  0  0  0  0  0  0  0  0  0  0
    1.2470   -1.5850   -0.0530 C   0  0  0  0  0  0  0  0  0  0  0  0
    1.6470   -0.2910    0.2900 C   0  0  0  0  0  0  0  0  0  0  0  0
    3.0380   -0.0250    0.3570 N   0  0  0  0  0  0  0  0  0  0  0  0
    3.6720    1.2230    0.4680 C   0  0  0  0  0  0  0  0  0  0  0  0
    2.9730    2.2610    0.5150 O   0  0  0  0  0  0  0  0  0  0  0  0
    5.1220    1.3680    0.5330 C   0  0  0  0  0  0  0  0  0  0  0  0
    5.8360    0.3520    0.4880 O   0  0  0  0  0  0  0  0  0  0  0  0
    0.7030    0.6590    0.5600 C   0  0  0  0  0  0  0  0  0  0  0  0
   -0.6360    0.3360    0.4920 C   0  0  0  0  0  0  0  0  0  0  0  0
   -1.8690    1.6130    0.8580 S   0  0  0  0  0  0  0  0  0  0  0  0
   -3.4350    0.7500    0.7320 C   0  0  0  0  0  0  0  0  0  0  0  0
   -4.3940    0.9940    1.4090 O   0  0  0  0  0  0  0  0  0  0  0  0
  2  1  1  6
  2  3  1  0
  2 16  1  0
  3  4  1  0
  4  5  2  0
  4 14  1  0
  5  6  1  0
  6  7  2  0
  7  8  1  0
  7 13  1  0
  8  9  1  0
  9 10  2  0
  9 11  1  0
 11 12  2  0
 13 14  2  0
 14 15  1  0
 15 16  1  0
 16 17  2  0
M  END
