
     RDKit          3D

 17 18  0  0  0  0  0  0  0  0999 V2000
    0.0550   -0.2900    1.9790 O   0  0  0  0  0  0  0  0  0  0  0  0
    0.7590   -0.0970    0.8960 C   0  0  0  0  0  0  0  0  0  0  0  0
    2.1800   -0.0150    1.0520 C   0  0  0  0  0  0  0  0  0  0  0  0
    3.2180    0.1550    0.3330 C   0  0  0  0  0  0  0  0  0  0  0  0
    4.8780    0.1670    1.1380 S   0  0  0  0  0  0  0  0  0  0  0  0
    5.7660    0.4330   -0.3820 C   0  0  0  0  0  0  0  0  0  0  0  0
    4.9310    0.4940   -1.2960 N   0  0  0  0  0  0  0  0  0  0  0  0
    3.5610    0.3580   -1.0120 C   0  0  0  0  0  0  0  0  0  0  0  0
    2.7580    0.4300   -1.9880 O   0  0  0  0  0  0  0  0  0  0  0  0
    0.0160    0.0030   -0.2650 N   0  0  0  0  0  0  0  0  0  0  0  0
   -1.4180   -0.0710   -0.4100 C   0  0  0  0  0  0  0  0  0  0  0  0
   -1.9080   -0.3430   -1.6920 C   0  0  0  0  0  0  0  0  0  0  0  0
   -3.2480   -0.4070   -1.9010 C   0  0  0  0  0  0  0  0  0  0  0  0
   -4.1500   -0.2090   -0.8780 C   0  0  0  0  0  0  0  0  0  0  0  0
   -3.6270    0.0540    0.3590 C   0  0  0  0  0  0  0  0  0  0  0  0
   -4.4940    0.2580    1.4130 O   0  0  0  0  0  0  0  0  0  0  0  0
   -2.2600    0.1290    0.6210 C   0  0  0  0  0  0  0  0  0  0  0  0
  1  2  2  0
  2  3  1  0
  2 10  1  0
  3  4  2  3
  4  5  1  0
  4  8  1  0
  5  6  1  0
  6  7  2  0
  7  8  1  0
  8  9  2  0
 10 11  1  0
 11 12  2  0
 11 17  1  0
 12 13  1  0
 13 14  2  0
 14 15  1  0
 15 16  1  0
 15 17  2  0
M  END
