
     RDKit          3D

 16 16  0  0  0  0  0  0  0  0999 V2000
   -0.6210   -2.1510    0.1870 C   0  0  0  0  0  0  0  0  0  0  0  0
   -1.4650   -0.9360    0.2680 C   0  0  0  0  0  0  0  0  0  0  0  0
   -2.5680   -1.1590    0.9580 C   0  0  0  0  0  0  0  0  0  0  0  0
   -3.6480   -0.2260    1.2510 C   0  0  0  0  0  0  0  0  0  0  0  0
   -4.1410    0.6900    0.4370 C   0  0  0  0  0  0  0  0  0  0  0  0
   -3.5930    1.0150   -1.2490 S   0  0  0  0  0  0  0  0  0  0  0  0
   -1.7600    1.1100   -1.0680 C   0  0  0  0  0  0  0  0  0  0  0  0
   -1.1390    2.2650   -1.7080 C   0  0  0  0  0  0  0  0  0  0  0  0
   -0.9800    0.2550   -0.4180 C   0  0  0  0  0  0  0  0  0  0  0  0
    0.4170    0.5140   -0.4100 C   0  0  0  0  0  0  0  0  0  0  0  0
    0.8670    1.4850   -1.1200 O   0  0  0  0  0  0  0  0  0  0  0  0
    1.4550   -0.1450    0.2950 N   0  0  0  0  0  0  0  0  0  0  0  0
    2.8580    0.3020    0.1260 C   0  0  0  0  0  0  0  0  0  0  0  0
    3.7210   -0.5380    0.9570 C   0  0  0  0  0  0  0  0  0  0  0  0
    5.1410   -0.3530    1.0100 N   0  0  0  0  0  0  0  0  0  0  0  0
    3.2090   -1.4580    1.6540 O   0  0  0  0  0  0  0  0  0  0  0  0
  1  2  1  0
  2  3  2  0
  2  9  1  0
  3  4  1  0
  4  5  2  0
  5  6  1  0
  6  7  1  0
  7  8  1  0
  7  9  2  0
  9 10  1  0
 10 11  2  0
 10 12  1  0
 12 13  1  0
 13 14  1  0
 14 15  1  0
 14 16  2  0
M  END
