
     RDKit          3D

 35 36  0  0  0  0  0  0  0  0999 V2000
    0.3760   -2.2260   -1.2880 O   0  0  0  0  0  0  0  0  0  0  0  0
   -0.8240   -2.0250   -1.6300 C   0  0  0  0  0  0  0  0  0  0  0  0
   -1.8780   -2.4260   -0.6810 C   0  0  0  0  0  0  0  0  0  0  0  0
   -1.3380   -2.7590    0.5330 O   0  0  0  0  0  0  0  0  0  0  0  0
   -0.6890   -1.7540    1.1990 C   0  0  2  0  0  0  0  0  0  0  0  0
    0.5000   -2.3280    1.9440 C   0  0  0  0  0  0  0  0  0  0  0  0
    1.2190   -1.3610    2.6420 O   0  0  0  0  0  0  0  0  0  0  0  0
    1.6020   -0.1200    2.2450 C   0  0  0  0  0  0  0  0  0  0  0  0
    1.3510    0.8770    3.0110 O   0  0  0  0  0  0  0  0  0  0  0  0
    2.3040    0.2320    0.9800 C   0  0  2  0  0  0  0  0  0  0  0  0
    3.6830    0.0730    1.1100 O   0  0  0  0  0  0  0  0  0  0  0  0
    4.2130   -0.9000    0.2920 C   0  0  0  0  0  0  0  0  0  0  0  0
    4.0360   -0.7070   -1.0540 O   0  0  0  0  0  0  0  0  0  0  0  0
    4.5810   -1.6910   -1.7010 O   0  0  0  0  0  0  0  0  0  0  0  0
    5.7910   -1.9490   -1.3080 O   0  0  0  0  0  0  0  0  0  0  0  0
    6.7140   -1.2580   -1.9250 O   0  0  0  0  0  0  0  0  0  0  0  0
    1.9100    1.6080    0.5310 C   0  0  0  0  0  0  0  0  0  0  0  0
    1.5490    1.7260   -0.9120 C   0  0  0  0  0  0  0  0  0  0  0  0
    0.4880    0.9140   -1.2710 O   0  0  0  0  0  0  0  0  0  0  0  0
   -0.5230    1.5990   -1.9350 C   0  0  0  0  0  0  0  0  0  0  0  0
   -1.9110    1.1960   -1.4490 C   0  0  2  0  0  0  0  0  0  0  0  0
   -2.6520    0.4690   -2.4790 N   0  0  0  0  0  0  0  0  0  0  0  0
   -2.1230   -0.5790   -3.2380 C   0  0  0  0  0  0  0  0  0  0  0  0
   -2.6780   -0.8030   -4.3720 O   0  0  0  0  0  0  0  0  0  0  0  0
   -1.0410   -1.4310   -2.9030 N   0  0  0  0  0  0  0  0  0  0  0  0
   -2.6100    2.4470   -1.0560 C   0  0  0  0  0  0  0  0  0  0  0  0
   -2.7740    3.2900   -1.9720 O   0  0  0  0  0  0  0  0  0  0  0  0
   -3.0140    2.5870    0.2420 O   0  0  0  0  0  0  0  0  0  0  0  0
   -2.6550    1.7440    1.3170 C   0  0  1  0  0  0  0  0  0  0  0  0
   -2.8740    2.5050    2.6210 C   0  0  0  0  0  0  0  0  0  0  0  0
   -2.5560    1.7780    3.7250 F   0  0  0  0  0  0  0  0  0  0  0  0
   -3.3670    0.4700    1.3480 C   0  0  0  0  0  0  0  0  0  0  0  0
   -4.6310    0.4960    1.1400 O   0  0  0  0  0  0  0  0  0  0  0  0
   -2.8330   -0.7630    1.5770 O   0  0  0  0  0  0  0  0  0  0  0  0
   -1.6300   -1.0920    2.1930 C   0  0  0  0  0  0  0  0  0  0  0  0
  1  2  2  0
  2  3  1  0
  2 25  1  0
  3  4  1  0
  4  5  1  0
  5  6  1  1
  5 35  1  0
  6  7  1  0
  7  8  1  0
  8  9  2  0
  8 10  1  0
 10 11  1  1
 10 17  1  0
 11 12  1  0
 12 13  1  0
 13 14  1  0
 14 15  1  0
 15 16  1  0
 17 18  1  0
 18 19  1  0
 19 20  1  0
 21 20  1  6
 21 22  1  0
 21 26  1  0
 22 23  1  0
 23 24  2  0
 23 25  1  0
 26 27  2  0
 26 28  1  0
 28 29  1  0
 29 30  1  1
 29 32  1  0
 30 31  1  0
 32 33  2  0
 32 34  1  0
 34 35  1  0
M  END
