
     RDKit          3D

 35 36  0  0  0  0  0  0  0  0999 V2000
   -3.3710    2.1120   -0.7350 O   0  0  0  0  0  0  0  0  0  0  0  0
   -3.3450    1.2720    0.2650 C   0  0  0  0  0  0  0  0  0  0  0  0
   -4.4800    1.1580    1.1350 C   0  0  0  0  0  0  0  0  0  0  0  0
   -5.6770    0.3400    0.8790 C   0  0  2  0  0  0  0  0  0  0  0  0
   -5.6910   -1.1360    1.0130 C   0  0  0  0  0  0  0  0  0  0  0  0
   -7.1410   -1.3980    1.1500 O   0  0  0  0  0  0  0  0  0  0  0  0
   -7.8220   -0.6660    0.1770 C   0  0  0  0  0  0  0  0  0  0  0  0
   -6.8640   -0.4490   -0.9990 C   0  0  0  0  0  0  0  0  0  0  0  0
   -5.7950    0.4050   -0.6650 N   0  0  0  0  0  0  0  0  0  0  0  0
   -2.1420    0.4880    0.4190 N   0  0  0  0  0  0  0  0  0  0  0  0
   -0.9590    0.8070   -0.3960 C   0  0  0  0  0  0  0  0  0  0  0  0
    0.1910    0.1890   -0.3940 C   0  0  0  0  0  0  0  0  0  0  0  0
    0.6260   -0.9560    0.3990 C   0  0  2  0  0  0  0  0  0  0  0  0
    0.8330   -2.0750   -0.4410 O   0  0  0  0  0  0  0  0  0  0  0  0
   -0.2700   -1.3800    1.3650 O   0  0  0  0  0  0  0  0  0  0  0  0
    1.8450   -0.7270    1.0800 O   0  0  0  0  0  0  0  0  0  0  0  0
    2.8240   -0.5470    0.0080 C   0  0  2  0  0  0  0  0  0  0  0  0
    3.9160   -1.5260    0.3430 C   0  0  0  0  0  0  0  0  0  0  0  0
    4.9300   -1.6650   -0.7420 C   0  0  0  0  0  0  0  0  0  0  0  0
    5.9260   -2.5860   -0.2800 O   0  0  0  0  0  0  0  0  0  0  0  0
    5.5890   -3.8720    0.0550 C   0  0  0  0  0  0  0  0  0  0  0  0
    4.4360   -4.2970   -0.0250 O   0  0  0  0  0  0  0  0  0  0  0  0
    6.5870   -4.7700    0.5230 O   0  0  0  0  0  0  0  0  0  0  0  0
    3.2050    0.8690    0.2400 C   0  0  0  0  0  0  0  0  0  0  0  0
    2.5950    1.5000    1.1950 O   0  0  0  0  0  0  0  0  0  0  0  0
    4.1270    1.5750   -0.4410 O   0  0  0  0  0  0  0  0  0  0  0  0
    4.3750    2.9090   -0.0640 C   0  0  0  0  0  0  0  0  0  0  0  0
    3.8060    3.5490    0.7450 O   0  0  0  0  0  0  0  0  0  0  0  0
    5.5680    3.4720   -0.8430 C   0  0  0  0  0  0  0  0  0  0  0  0
    6.4460    3.5850    0.3220 O   0  0  0  0  0  0  0  0  0  0  0  0
    7.4860    2.7670    0.0330 O   0  0  0  0  0  0  0  0  0  0  0  0
    0.9630    0.8700   -1.3520 O   0  0  0  0  0  0  0  0  0  0  0  0
    0.4560    2.0540   -1.6040 O   0  0  0  0  0  0  0  0  0  0  0  0
   -0.8770    1.9380   -1.3100 C   0  0  2  0  0  0  0  0  0  0  0  0
   -1.2190    3.1350   -0.6040 F   0  0  0  0  0  0  0  0  0  0  0  0
  1  2  2  0
  2  3  1  0
  2 10  1  0
  4  3  1  6
  4  5  1  0
  4  9  1  0
  5  6  1  0
  6  7  1  0
  7  8  1  0
  8  9  1  0
 10 11  1  0
 11 12  2  0
 11 34  1  0
 12 13  1  0
 12 32  1  0
 13 14  1  6
 13 15  1  0
 13 16  1  0
 16 17  1  0
 17 18  1  1
 17 24  1  0
 18 19  1  0
 19 20  1  0
 20 21  1  0
 21 22  2  0
 21 23  1  0
 24 25  2  0
 24 26  1  0
 26 27  1  0
 27 28  2  0
 27 29  1  0
 29 30  1  0
 30 31  1  0
 32 33  1  0
 33 34  1  0
 34 35  1  1
M  END
