
     RDKit          3D

 35 36  0  0  0  0  0  0  0  0999 V2000
   -3.0620    4.0730   -0.4860 C   0  0  0  0  0  0  0  0  0  0  0  0
   -2.6380    2.8370   -0.9280 O   0  0  0  0  0  0  0  0  0  0  0  0
   -3.7060    2.0170   -1.0190 N   0  0  0  0  0  0  0  0  0  0  0  0
   -3.5430    1.1930   -2.1630 C   0  0  0  0  0  0  0  0  0  0  0  0
   -2.1130    0.6950   -2.3400 C   0  0  0  0  0  0  0  0  0  0  0  0
   -1.4000    1.0810   -1.2110 O   0  0  0  0  0  0  0  0  0  0  0  0
   -0.1130    0.5760   -1.1620 C   0  0  0  0  0  0  0  0  0  0  0  0
    0.4720    1.0980    0.1580 C   0  0  2  0  0  0  0  0  0  0  0  0
    0.3480    2.4920    0.0680 F   0  0  0  0  0  0  0  0  0  0  0  0
    1.8160    0.8110    0.3020 O   0  0  0  0  0  0  0  0  0  0  0  0
    2.3920   -0.4310    0.3230 C   0  0  0  0  0  0  0  0  0  0  0  0
    1.6610   -1.4290    0.2030 O   0  0  0  0  0  0  0  0  0  0  0  0
    3.8820   -0.5020    0.4910 C   0  0  2  0  0  0  0  0  0  0  0  0
    4.6010    0.1410   -0.6460 C   0  0  0  0  0  0  0  0  0  0  0  0
    5.5410   -0.7680   -1.1130 O   0  0  0  0  0  0  0  0  0  0  0  0
    5.6210   -1.7830   -0.1910 C   0  0  1  0  0  0  0  0  0  0  0  0
    5.9600   -3.1010   -0.8630 C   0  0  0  0  0  0  0  0  0  0  0  0
    6.6330   -1.4670    0.7190 O   0  0  0  0  0  0  0  0  0  0  0  0
    6.4150   -0.3300    1.3650 O   0  0  0  0  0  0  0  0  0  0  0  0
    7.5090    0.4260    1.7600 C   0  0  0  0  0  0  0  0  0  0  0  0
    8.6760    0.0490    1.5160 O   0  0  0  0  0  0  0  0  0  0  0  0
    7.3600    1.6370    2.4460 O   0  0  0  0  0  0  0  0  0  0  0  0
    4.3530   -1.8510    0.4970 N   0  0  0  0  0  0  0  0  0  0  0  0
   -0.4230    0.6470    1.2570 C   0  0  0  0  0  0  0  0  0  0  0  0
   -0.9190   -0.6810    1.0560 O   0  0  0  0  0  0  0  0  0  0  0  0
   -2.0990   -1.1550    1.6200 C   0  0  0  0  0  0  0  0  0  0  0  0
   -2.0600   -2.2730    2.2570 O   0  0  0  0  0  0  0  0  0  0  0  0
   -3.2300   -0.4120    1.4670 O   0  0  0  0  0  0  0  0  0  0  0  0
   -3.9220   -0.0560    0.3070 C   0  0  1  0  0  0  0  0  0  0  0  0
   -5.3300   -0.6630    0.4620 C   0  0  0  0  0  0  0  0  0  0  0  0
   -5.1760   -2.0740    0.5850 O   0  0  0  0  0  0  0  0  0  0  0  0
   -6.2690   -2.9090    0.7380 C   0  0  0  0  0  0  0  0  0  0  0  0
   -7.4040   -2.3700    0.7650 O   0  0  0  0  0  0  0  0  0  0  0  0
   -6.1860   -4.2780    0.8620 O   0  0  0  0  0  0  0  0  0  0  0  0
   -4.1020    1.4190    0.1840 C   0  0  0  0  0  0  0  0  0  0  0  0
  1  2  1  0
  2  3  1  0
  3  4  1  0
  3 35  1  0
  4  5  1  0
  5  6  1  0
  6  7  1  0
  7  8  1  0
  8  9  1  6
  8 10  1  0
  8 24  1  0
 10 11  1  0
 11 12  2  0
 13 11  1  6
 13 14  1  0
 13 23  1  0
 14 15  1  0
 15 16  1  0
 16 17  1  6
 16 18  1  0
 16 23  1  0
 18 19  1  0
 19 20  1  0
 20 21  2  0
 20 22  1  0
 24 25  1  0
 25 26  1  0
 26 27  2  0
 26 28  1  0
 28 29  1  0
 29 30  1  1
 29 35  1  0
 30 31  1  0
 31 32  1  0
 32 33  2  0
 32 34  1  0
M  END
