
     RDKit          3D

 36 38  0  0  0  0  0  0  0  0999 V2000
    6.1160    0.9650    0.0400 O   0  0  0  0  0  0  0  0  0  0  0  0
    5.2840    1.3190    0.9100 C   0  0  0  0  0  0  0  0  0  0  0  0
    5.2170    2.6530    1.2820 O   0  0  0  0  0  0  0  0  0  0  0  0
    4.4690    0.3630    1.4620 O   0  0  0  0  0  0  0  0  0  0  0  0
    4.4590   -1.0000    1.1570 C   0  0  0  0  0  0  0  0  0  0  0  0
    4.1370   -1.2640   -0.3040 C   0  0  0  0  0  0  0  0  0  0  0  0
    2.7660   -0.6910   -0.6030 C   0  0  2  0  0  0  0  0  0  0  0  0
    1.7420   -1.3030    0.2260 N   0  0  0  0  0  0  0  0  0  0  0  0
    1.1820   -0.8770    1.4250 C   0  0  0  0  0  0  0  0  0  0  0  0
    0.6760   -1.8350    2.1400 O   0  0  0  0  0  0  0  0  0  0  0  0
    1.0540    0.3320    2.0030 O   0  0  0  0  0  0  0  0  0  0  0  0
    1.2250    1.6470    1.6680 C   0  0  0  0  0  0  0  0  0  0  0  0
    1.9210    2.3180    2.5530 O   0  0  0  0  0  0  0  0  0  0  0  0
    0.7520    2.3690    0.4970 C   0  0  0  0  0  0  0  0  0  0  0  0
    1.7490    2.8860   -0.1660 O   0  0  0  0  0  0  0  0  0  0  0  0
   -0.5140    2.6270   -0.0620 N   0  0  0  0  0  0  0  0  0  0  0  0
   -0.6210    3.6160   -1.0570 O   0  0  0  0  0  0  0  0  0  0  0  0
   -1.8110    2.0840    0.1720 C   0  0  0  0  0  0  0  0  0  0  0  0
   -2.7890    2.8760    0.5080 O   0  0  0  0  0  0  0  0  0  0  0  0
   -2.2720    0.7490    0.1050 N   0  0  0  0  0  0  0  0  0  0  0  0
   -3.4090    0.3630    0.9160 C   0  0  0  0  0  0  0  0  0  0  0  0
   -4.7170    0.6030    0.1780 C   0  0  0  0  0  0  0  0  0  0  0  0
   -5.8980    0.1770    1.0360 C   0  0  0  0  0  0  0  0  0  0  0  0
   -5.7040   -1.1990    1.2870 O   0  0  0  0  0  0  0  0  0  0  0  0
   -6.6590   -1.6990    2.0220 O   0  0  0  0  0  0  0  0  0  0  0  0
   -1.7320   -0.3210   -0.6670 C   0  0  0  0  0  0  0  0  0  0  0  0
   -2.3940   -1.5000   -0.8650 C   0  0  0  0  0  0  0  0  0  0  0  0
   -1.8960   -2.5630   -1.6060 C   0  0  0  0  0  0  0  0  0  0  0  0
   -0.6950   -2.3050   -2.1030 N   0  0  0  0  0  0  0  0  0  0  0  0
    0.0460   -1.2180   -1.9860 C   0  0  0  0  0  0  0  0  0  0  0  0
   -0.5320   -0.2680   -1.2580 N   0  0  0  0  0  0  0  0  0  0  0  0
    1.3590   -1.1700   -2.6070 C   0  0  0  0  0  0  0  0  0  0  0  0
    2.5230   -0.9530   -2.0710 C   0  0  0  0  0  0  0  0  0  0  0  0
    3.4510   -1.0070   -3.0840 O   0  0  0  0  0  0  0  0  0  0  0  0
    2.8610   -0.9870   -4.2850 O   0  0  0  0  0  0  0  0  0  0  0  0
    1.6250   -1.3590   -3.9550 O   0  0  0  0  0  0  0  0  0  0  0  0
  1  2  2  0
  2  3  1  0
  2  4  1  0
  4  5  1  0
  5  6  1  0
  7  6  1  1
  7  8  1  0
  7 33  1  0
  8  9  1  0
  9 10  2  0
  9 11  1  0
 11 12  1  0
 12 13  2  0
 12 14  1  0
 14 15  2  0
 14 16  1  0
 16 17  1  0
 16 18  1  0
 18 19  2  0
 18 20  1  0
 20 21  1  0
 20 26  1  0
 21 22  1  0
 22 23  1  0
 23 24  1  0
 24 25  1  0
 26 27  1  0
 26 31  2  0
 27 28  2  0
 28 29  1  0
 29 30  2  0
 30 31  1  0
 30 32  1  0
 32 33  2  0
 32 36  1  0
 33 34  1  0
 34 35  1  0
 35 36  1  0
M  END
