
     RDKit          3D

 36 38  0  0  0  0  0  0  0  0999 V2000
   -2.5540   -3.3540    1.3910 O   0  0  0  0  0  0  0  0  0  0  0  0
   -1.6120   -3.3800    0.5640 C   0  0  0  0  0  0  0  0  0  0  0  0
   -1.6690   -3.2510   -0.8950 C   0  0  0  0  0  0  0  0  0  0  0  0
   -1.9040   -1.8890   -1.4790 C   0  0  1  0  0  0  0  0  0  0  0  0
   -3.1620   -2.0310   -2.1540 O   0  0  0  0  0  0  0  0  0  0  0  0
   -3.9030   -2.3740   -1.0380 N   0  0  0  0  0  0  0  0  0  0  0  0
   -3.5220   -1.3890   -0.0770 C   0  0  0  0  0  0  0  0  0  0  0  0
   -4.1730   -0.7150    0.9810 C   0  0  0  0  0  0  0  0  0  0  0  0
   -3.5140    0.3710    1.5680 C   0  0  0  0  0  0  0  0  0  0  0  0
   -2.3440    0.6990    1.1010 N   0  0  0  0  0  0  0  0  0  0  0  0
   -1.6150    0.1190    0.0730 C   0  0  0  0  0  0  0  0  0  0  0  0
   -2.2760   -0.9330   -0.4650 C   0  0  0  0  0  0  0  0  0  0  0  0
   -0.4150    0.8820   -0.3100 N   0  0  0  0  0  0  0  0  0  0  0  0
   -0.8500    2.1620   -0.9570 C   0  0  0  0  0  0  0  0  0  0  0  0
   -1.4130    3.0170    0.1630 C   0  0  0  0  0  0  0  0  0  0  0  0
   -0.9490    2.9070    1.3150 O   0  0  0  0  0  0  0  0  0  0  0  0
   -2.4170    3.8680   -0.1310 O   0  0  0  0  0  0  0  0  0  0  0  0
   -3.0560    4.7070    0.7910 O   0  0  0  0  0  0  0  0  0  0  0  0
   -3.5250    5.8830    0.2290 C   0  0  0  0  0  0  0  0  0  0  0  0
   -3.2910    5.9100   -1.0690 O   0  0  0  0  0  0  0  0  0  0  0  0
   -4.1570    6.9930    0.7420 O   0  0  0  0  0  0  0  0  0  0  0  0
    0.9050    0.6980   -0.0720 C   0  0  0  0  0  0  0  0  0  0  0  0
    1.7430    1.7390   -0.1590 O   0  0  0  0  0  0  0  0  0  0  0  0
    1.6450   -0.4420    0.3130 N   0  0  0  0  0  0  0  0  0  0  0  0
    3.0330   -0.4350    0.3210 C   0  0  0  0  0  0  0  0  0  0  0  0
    3.6880   -1.5550    0.8210 O   0  0  0  0  0  0  0  0  0  0  0  0
    3.9500    0.4580   -0.0420 O   0  0  0  0  0  0  0  0  0  0  0  0
    5.3420    0.2270    0.1410 C   0  0  0  0  0  0  0  0  0  0  0  0
    5.8380   -0.6790    0.7000 O   0  0  0  0  0  0  0  0  0  0  0  0
    6.1250    1.4020   -0.5890 C   0  0  0  0  0  0  0  0  0  0  0  0
    7.3890    0.9930   -0.4430 O   0  0  0  0  0  0  0  0  0  0  0  0
    7.9810    0.9120   -1.6730 O   0  0  0  0  0  0  0  0  0  0  0  0
    1.1220   -1.7130    0.8130 C   0  0  0  0  0  0  0  0  0  0  0  0
    1.5430   -2.8970   -0.0180 C   0  0  0  0  0  0  0  0  0  0  0  0
    0.7220   -4.0040    0.3110 O   0  0  0  0  0  0  0  0  0  0  0  0
   -0.2970   -3.5700    1.1210 N   0  0  0  0  0  0  0  0  0  0  0  0
  1  2  2  0
  2  3  1  0
  2 36  1  0
  4  3  1  1
  4  5  1  0
  4 12  1  0
  5  6  1  0
  6  7  1  0
  7  8  1  0
  7 12  2  0
  8  9  2  0
  9 10  1  0
 10 11  2  0
 11 12  1  0
 11 13  1  0
 13 14  1  0
 13 22  1  0
 14 15  1  0
 15 16  2  0
 15 17  1  0
 17 18  1  0
 18 19  1  0
 19 20  2  0
 19 21  1  0
 22 23  2  0
 22 24  1  0
 24 25  1  0
 24 33  1  0
 25 26  2  0
 25 27  1  0
 27 28  1  0
 28 29  2  0
 28 30  1  0
 30 31  1  0
 31 32  1  0
 33 34  1  0
 34 35  1  0
 35 36  1  0
M  END
