
     RDKit          3D

 35 37  0  0  0  0  0  0  0  0999 V2000
    4.4970   -0.3420    1.1160 O   0  0  0  0  0  0  0  0  0  0  0  0
    4.5790   -1.3260    0.3400 C   0  0  0  0  0  0  0  0  0  0  0  0
    3.3870   -1.6510   -0.4860 C   0  0  0  0  0  0  0  0  0  0  0  0
    2.2960   -0.7550   -0.2550 N   0  0  0  0  0  0  0  0  0  0  0  0
    2.2320    0.4490   -1.0970 C   0  0  0  0  0  0  0  0  0  0  0  0
    1.5870    1.4890   -0.4580 O   0  0  0  0  0  0  0  0  0  0  0  0
    2.1930    2.7110   -0.7330 C   0  0  0  0  0  0  0  0  0  0  0  0
    1.1960    3.8410   -0.5860 C   0  0  1  0  0  0  0  0  0  0  0  0
    0.4440    3.8700   -1.7640 O   0  0  0  0  0  0  0  0  0  0  0  0
    0.5380    5.0350   -2.3700 O   0  0  0  0  0  0  0  0  0  0  0  0
    0.2800    3.6270    0.5850 C   0  0  0  0  0  0  0  0  0  0  0  0
   -1.0320    4.0560    0.3080 O   0  0  0  0  0  0  0  0  0  0  0  0
   -1.8410    2.9360    0.1080 C   0  0  0  0  0  0  0  0  0  0  0  0
   -2.6000    2.5960    1.3780 C   0  0  2  0  0  0  0  0  0  0  0  0
   -2.4550    3.6650    2.2650 F   0  0  0  0  0  0  0  0  0  0  0  0
   -2.1270    1.3620    1.9380 N   0  0  0  0  0  0  0  0  0  0  0  0
   -2.6540    0.0810    1.6260 C   0  0  0  0  0  0  0  0  0  0  0  0
   -2.8050   -0.7700    2.5660 O   0  0  0  0  0  0  0  0  0  0  0  0
   -3.0430   -0.3330    0.2540 C   0  0  2  0  0  0  0  0  0  0  0  0
   -4.3350   -0.8820    0.3630 O   0  0  0  0  0  0  0  0  0  0  0  0
   -4.3150   -1.7800    1.3270 O   0  0  0  0  0  0  0  0  0  0  0  0
   -3.6670   -2.9270    0.8760 C   0  0  1  0  0  0  0  0  0  0  0  0
   -4.2510   -3.2510   -0.5050 C   0  0  0  0  0  0  0  0  0  0  0  0
   -4.1270   -2.1840   -1.3600 O   0  0  0  0  0  0  0  0  0  0  0  0
   -2.7900   -1.8820   -1.6050 C   0  0  0  0  0  0  0  0  0  0  0  0
   -2.1600   -1.4230   -0.2970 C   0  0  1  0  0  0  0  0  0  0  0  0
   -0.7600   -0.9580   -0.5890 C   0  0  0  0  0  0  0  0  0  0  0  0
   -0.0270   -0.6720    0.5720 O   0  0  0  0  0  0  0  0  0  0  0  0
    1.3100   -1.0090    0.7450 C   0  0  0  0  0  0  0  0  0  0  0  0
    1.7340   -1.5660    1.8130 O   0  0  0  0  0  0  0  0  0  0  0  0
   -2.1910   -2.6180    0.6230 C   0  0  0  0  0  0  0  0  0  0  0  0
    5.7380   -2.0630    0.2720 O   0  0  0  0  0  0  0  0  0  0  0  0
    6.8290   -1.7730    1.0220 O   0  0  0  0  0  0  0  0  0  0  0  0
    7.6770   -2.7760    0.9530 O   0  0  0  0  0  0  0  0  0  0  0  0
    7.1100   -3.9040    0.6070 O   0  0  0  0  0  0  0  0  0  0  0  0
  1  2  2  0
  2  3  1  0
  2 32  1  0
  3  4  1  0
  4  5  1  0
  4 29  1  0
  5  6  1  0
  6  7  1  0
  7  8  1  0
  8  9  1  6
  8 11  1  0
  9 10  1  0
 11 12  1  0
 12 13  1  0
 13 14  1  0
 14 15  1  1
 14 16  1  0
 16 17  1  0
 17 18  2  0
 17 19  1  0
 19 20  1  1
 19 26  1  0
 20 21  1  0
 21 22  1  0
 22 23  1  6
 22 31  1  0
 23 24  1  0
 24 25  1  0
 26 25  1  6
 26 27  1  0
 26 31  1  0
 27 28  1  0
 28 29  1  0
 29 30  2  0
 32 33  1  0
 33 34  1  0
 34 35  1  0
M  END
