
     RDKit          3D

 35 36  0  0  0  0  0  0  0  0999 V2000
    1.3220    3.0360   -1.6390 C   0  0  0  0  0  0  0  0  0  0  0  0
    1.3040    1.9620   -0.5730 C   0  0  2  0  0  0  0  0  0  0  0  0
    2.2270    2.3820    0.4120 O   0  0  0  0  0  0  0  0  0  0  0  0
    1.8650    3.5410    0.9090 O   0  0  0  0  0  0  0  0  0  0  0  0
    2.9320    4.2410    1.2410 O   0  0  0  0  0  0  0  0  0  0  0  0
    3.7230    4.4230    0.1960 O   0  0  0  0  0  0  0  0  0  0  0  0
    1.7410    0.7470   -1.0340 O   0  0  0  0  0  0  0  0  0  0  0  0
    3.0950    0.5310   -0.9630 C   0  0  0  0  0  0  0  0  0  0  0  0
    3.5080   -0.1730    0.2860 C   0  0  0  0  0  0  0  0  0  0  0  0
    4.7030   -0.9680    0.0900 N   0  0  0  0  0  0  0  0  0  0  0  0
    4.8430   -2.3210    0.5050 C   0  0  0  0  0  0  0  0  0  0  0  0
    5.9540   -2.7300    0.9990 O   0  0  0  0  0  0  0  0  0  0  0  0
    3.7530   -3.1590    0.3570 O   0  0  0  0  0  0  0  0  0  0  0  0
    2.9640   -3.2890   -0.7880 C   0  0  0  0  0  0  0  0  0  0  0  0
    1.8120   -4.2120   -0.5470 C   0  0  0  0  0  0  0  0  0  0  0  0
    0.8000   -3.7770    0.3260 N   0  0  0  0  0  0  0  0  0  0  0  0
    0.2740   -2.4800    0.1170 C   0  0  2  0  0  0  0  0  0  0  0  0
    0.0590   -1.8390    1.4980 C   0  0  0  0  0  0  0  0  0  0  0  0
    0.0740   -0.4800    1.4210 O   0  0  0  0  0  0  0  0  0  0  0  0
   -1.0600    0.1590    1.0330 C   0  0  1  0  0  0  0  0  0  0  0  0
   -0.7430    0.8930   -0.2790 C   0  0  0  0  0  0  0  0  0  0  0  0
    0.0620    1.9670    0.0110 O   0  0  0  0  0  0  0  0  0  0  0  0
   -2.2680   -0.6700    0.7980 C   0  0  1  0  0  0  0  0  0  0  0  0
   -3.3420    0.2080    0.4710 O   0  0  0  0  0  0  0  0  0  0  0  0
   -4.5350    0.2340    1.1620 C   0  0  0  0  0  0  0  0  0  0  0  0
   -4.6700   -0.5590    2.1250 O   0  0  0  0  0  0  0  0  0  0  0  0
   -5.6560    1.1450    0.8260 C   0  0  2  0  0  0  0  0  0  0  0  0
   -5.2490    2.5990    0.9250 C   0  0  0  0  0  0  0  0  0  0  0  0
   -6.6960    0.9570    1.7120 F   0  0  0  0  0  0  0  0  0  0  0  0
   -6.1800    0.8610   -0.5390 C   0  0  0  0  0  0  0  0  0  0  0  0
   -7.3620    0.5180   -0.7680 O   0  0  0  0  0  0  0  0  0  0  0  0
   -5.3300    0.9780   -1.6310 O   0  0  0  0  0  0  0  0  0  0  0  0
   -2.0480   -1.5540   -0.3670 C   0  0  0  0  0  0  0  0  0  0  0  0
   -2.8050   -1.4540   -1.3520 O   0  0  0  0  0  0  0  0  0  0  0  0
   -1.0340   -2.5300   -0.4800 O   0  0  0  0  0  0  0  0  0  0  0  0
  2  1  1  6
  2  3  1  0
  2  7  1  0
  2 22  1  0
  3  4  1  0
  4  5  1  0
  5  6  1  0
  7  8  1  0
  8  9  1  0
  9 10  1  0
 10 11  1  0
 11 12  2  0
 11 13  1  0
 13 14  1  0
 14 15  1  0
 15 16  1  0
 17 16  1  1
 17 18  1  0
 17 35  1  0
 18 19  1  0
 19 20  1  0
 20 21  1  6
 20 23  1  0
 21 22  1  0
 23 24  1  6
 23 33  1  0
 24 25  1  0
 25 26  2  0
 25 27  1  0
 27 28  1  6
 27 29  1  0
 27 30  1  0
 30 31  2  0
 30 32  1  0
 33 34  2  0
 33 35  1  0
M  END
