
     RDKit          3D

 35 37  0  0  0  0  0  0  0  0999 V2000
   -3.8130    2.5960    0.7080 O   0  0  0  0  0  0  0  0  0  0  0  0
   -2.5690    2.5070    0.5620 C   0  0  0  0  0  0  0  0  0  0  0  0
   -1.7190    3.2650    1.5070 C   0  0  0  0  0  0  0  0  0  0  0  0
   -1.8440    2.7980    2.8310 O   0  0  0  0  0  0  0  0  0  0  0  0
   -1.6740    1.5400    3.3100 C   0  0  0  0  0  0  0  0  0  0  0  0
   -2.5470    1.0060    4.0300 O   0  0  0  0  0  0  0  0  0  0  0  0
   -0.4570    0.7550    3.0040 C   0  0  1  0  0  0  0  0  0  0  0  0
   -0.7410   -0.6820    2.7280 C   0  0  0  0  0  0  0  0  0  0  0  0
   -0.6590   -1.0870    1.3350 N   0  0  0  0  0  0  0  0  0  0  0  0
    0.5490   -1.2810    0.6120 C   0  0  0  0  0  0  0  0  0  0  0  0
    1.2320    0.0200    0.1260 C   0  0  1  0  0  0  0  0  0  0  0  0
    2.4670   -0.4510   -0.2960 O   0  0  0  0  0  0  0  0  0  0  0  0
    3.2760    0.3600   -0.9900 C   0  0  0  0  0  0  0  0  0  0  0  0
    4.5540   -0.4420   -1.3140 C   0  0  0  0  0  0  0  0  0  0  0  0
    5.1490   -0.8360   -0.0950 O   0  0  0  0  0  0  0  0  0  0  0  0
    6.2330   -1.5170   -0.2890 O   0  0  0  0  0  0  0  0  0  0  0  0
    7.0580   -0.7990   -1.0090 O   0  0  0  0  0  0  0  0  0  0  0  0
    0.5230    0.4070   -1.0060 O   0  0  0  0  0  0  0  0  0  0  0  0
    0.3180    1.7380   -1.1770 C   0  0  0  0  0  0  0  0  0  0  0  0
   -1.1680    2.0510   -1.4600 C   0  0  1  0  0  0  0  0  0  0  0  0
   -1.1790    3.3960   -1.7660 F   0  0  0  0  0  0  0  0  0  0  0  0
   -1.5220    1.3540   -2.6970 N   0  0  0  0  0  0  0  0  0  0  0  0
   -2.6290    0.4840   -2.8500 C   0  0  0  0  0  0  0  0  0  0  0  0
   -3.4070    0.6670   -3.8670 O   0  0  0  0  0  0  0  0  0  0  0  0
   -2.9780   -0.5550   -2.0230 O   0  0  0  0  0  0  0  0  0  0  0  0
   -2.1890   -1.6620   -1.6450 C   0  0  0  0  0  0  0  0  0  0  0  0
   -2.4660   -2.1070   -0.2420 C   0  0  1  0  0  0  0  0  0  0  0  0
   -2.2650   -3.5920   -0.0560 C   0  0  0  0  0  0  0  0  0  0  0  0
   -1.0240   -4.0770   -0.3190 O   0  0  0  0  0  0  0  0  0  0  0  0
   -1.9720   -1.2640    0.8360 C   0  0  0  0  0  0  0  0  0  0  0  0
   -2.9110   -0.5650    1.4260 O   0  0  0  0  0  0  0  0  0  0  0  0
   -2.0050    1.7510   -0.4130 O   0  0  0  0  0  0  0  0  0  0  0  0
    1.3580    1.0080    1.1780 C   0  0  0  0  0  0  0  0  0  0  0  0
    2.4750    1.6290    1.2830 O   0  0  0  0  0  0  0  0  0  0  0  0
    0.3950    1.3710    2.1060 O   0  0  0  0  0  0  0  0  0  0  0  0
  1  2  2  0
  2  3  1  0
  2 32  1  0
  3  4  1  0
  4  5  1  0
  5  6  2  0
  5  7  1  0
  7  8  1  6
  7 35  1  0
  8  9  1  0
  9 10  1  0
  9 30  1  0
 10 11  1  0
 11 12  1  6
 11 18  1  0
 11 33  1  0
 12 13  1  0
 13 14  1  0
 14 15  1  0
 15 16  1  0
 16 17  1  0
 18 19  1  0
 19 20  1  0
 20 21  1  6
 20 22  1  0
 20 32  1  0
 22 23  1  0
 23 24  2  0
 23 25  1  0
 25 26  1  0
 26 27  1  0
 27 28  1  1
 27 30  1  0
 28 29  1  0
 30 31  2  0
 33 34  2  0
 33 35  1  0
M  END
