
     RDKit          3D

 16 18  0  0  0  0  0  0  0  0999 V2000
    2.2140   -1.0920    2.2680 N   0  0  0  0  0  0  0  0  0  0  0  0
    2.7350   -1.2080    0.9060 C   0  0  0  0  0  0  0  0  0  0  0  0
    3.9930   -1.7170    0.7360 C   0  0  0  0  0  0  0  0  0  0  0  0
    4.1980   -1.6670   -1.1230 S   0  0  0  0  0  0  0  0  0  0  0  0
    2.5640   -0.9670   -1.4160 C   0  0  0  0  0  0  0  0  0  0  0  0
    1.9250   -0.6170   -2.5790 C   0  0  0  0  0  0  0  0  0  0  0  0
    0.6480   -0.0900   -2.5450 C   0  0  0  0  0  0  0  0  0  0  0  0
    0.0800    0.0540   -1.2990 C   0  0  0  0  0  0  0  0  0  0  0  0
   -1.3120    0.6210   -1.1630 C   0  0  1  0  0  0  0  0  0  0  0  0
   -2.2380   -0.3430   -0.5100 C   0  0  0  0  0  0  0  0  0  0  0  0
   -1.9900   -0.5210    0.9560 C   0  0  0  0  0  0  0  0  0  0  0  0
   -1.8710    0.7960    1.6920 C   0  0  0  0  0  0  0  0  0  0  0  0
   -2.2270    1.9560    0.7630 C   0  0  0  0  0  0  0  0  0  0  0  0
   -1.2860    1.9010   -0.3990 C   0  0  0  0  0  0  0  0  0  0  0  0
    0.7300   -0.2950   -0.2060 N   0  0  0  0  0  0  0  0  0  0  0  0
    2.0120   -0.8300   -0.1630 C   0  0  0  0  0  0  0  0  0  0  0  0
  1  2  1  0
  2  3  2  0
  2 16  1  0
  3  4  1  0
  4  5  1  0
  5  6  2  0
  5 16  1  0
  6  7  1  0
  7  8  2  0
  9  8  1  1
  8 15  1  0
  9 10  1  0
  9 14  1  0
 10 11  1  0
 11 12  1  0
 12 13  1  0
 13 14  1  0
 15 16  2  0
M  END
