
     RDKit          3D

 16 18  0  0  0  0  0  0  0  0999 V2000
    3.2190   -1.3770   -0.5320 N   0  0  0  0  0  0  0  0  0  0  0  0
    3.1410    0.0230   -0.0910 C   0  0  0  0  0  0  0  0  0  0  0  0
    4.2850    0.7290    0.0800 C   0  0  0  0  0  0  0  0  0  0  0  0
    4.1470    2.0200    0.4890 C   0  0  0  0  0  0  0  0  0  0  0  0
    2.3810    2.2250    0.6320 S   0  0  0  0  0  0  0  0  0  0  0  0
    1.9640    0.5770    0.1350 C   0  0  0  0  0  0  0  0  0  0  0  0
    0.5630    0.0870    0.0440 C   0  0  0  0  0  0  0  0  0  0  0  0
    0.2250   -1.1780   -0.3360 C   0  0  0  0  0  0  0  0  0  0  0  0
   -1.1070   -1.6030   -0.4100 C   0  0  0  0  0  0  0  0  0  0  0  0
   -2.0840   -0.7160   -0.0890 C   0  0  0  0  0  0  0  0  0  0  0  0
   -3.4080   -1.1340   -0.1610 C   0  0  0  0  0  0  0  0  0  0  0  0
   -4.3670   -0.2010    0.1730 C   0  0  0  0  0  0  0  0  0  0  0  0
   -4.0560    1.0860    0.5620 C   0  0  0  0  0  0  0  0  0  0  0  0
   -2.7280    1.4560    0.6180 C   0  0  0  0  0  0  0  0  0  0  0  0
   -1.7210    0.5550    0.2920 C   0  0  0  0  0  0  0  0  0  0  0  0
   -0.4340    0.9360    0.3540 N   0  0  0  0  0  0  0  0  0  0  0  0
  1  2  1  0
  2  3  1  0
  2  6  2  0
  3  4  2  0
  4  5  1  0
  5  6  1  0
  6  7  1  0
  7  8  2  0
  7 16  1  0
  8  9  1  0
  9 10  2  0
 10 11  1  0
 10 15  1  0
 11 12  2  0
 12 13  1  0
 13 14  2  0
 14 15  1  0
 15 16  2  0
M  END
