
     RDKit          3D

 16 18  0  0  0  0  0  0  0  0999 V2000
    4.9860    0.2180   -0.2640 N   0  0  0  0  0  0  0  0  0  0  0  0
    3.5840    0.1540    0.0500 C   0  0  0  0  0  0  0  0  0  0  0  0
    3.1940    0.0350    1.3600 C   0  0  0  0  0  0  0  0  0  0  0  0
    1.8470   -0.0280    1.6360 C   0  0  0  0  0  0  0  0  0  0  0  0
    0.9800    0.0330    0.5660 C   0  0  0  0  0  0  0  0  0  0  0  0
   -0.3960   -0.0340    0.8150 C   0  0  0  0  0  0  0  0  0  0  0  0
   -1.2800    0.0180   -0.2130 C   0  0  0  0  0  0  0  0  0  0  0  0
   -2.7710   -0.0570    0.0750 C   0  0  0  0  0  0  0  0  0  0  0  0
   -3.6700   -0.6070   -0.7590 C   0  0  0  0  0  0  0  0  0  0  0  0
   -4.9620   -0.6430   -0.4460 C   0  0  0  0  0  0  0  0  0  0  0  0
   -5.0610    0.1440    1.1630 S   0  0  0  0  0  0  0  0  0  0  0  0
   -3.2730    0.4610    1.2650 C   0  0  0  0  0  0  0  0  0  0  0  0
   -0.8260    0.1370   -1.4980 C   0  0  0  0  0  0  0  0  0  0  0  0
    0.5220    0.2060   -1.7900 C   0  0  0  0  0  0  0  0  0  0  0  0
    1.4170    0.1530   -0.7430 C   0  0  0  0  0  0  0  0  0  0  0  0
    2.7360    0.2130   -0.9890 N   0  0  0  0  0  0  0  0  0  0  0  0
  1  2  1  0
  2  3  2  0
  2 16  1  0
  3  4  1  0
  4  5  2  0
  5  6  1  0
  5 15  1  0
  6  7  2  0
  7  8  1  0
  7 13  1  0
  8  9  1  0
  8 12  2  0
  9 10  2  0
 10 11  1  0
 11 12  1  0
 13 14  2  0
 14 15  1  0
 15 16  2  0
M  END
