
     RDKit          3D

 16 18  0  0  0  0  0  0  0  0999 V2000
    5.1030   -0.4440    2.4960 S   0  0  0  0  0  0  0  0  0  0  0  0
    4.0870   -0.2130    1.2270 C   0  0  0  0  0  0  0  0  0  0  0  0
    4.4330   -0.0510   -0.0620 N   0  0  0  0  0  0  0  0  0  0  0  0
    3.2690    0.1030   -0.7310 C   0  0  0  0  0  0  0  0  0  0  0  0
    2.2050    0.0370    0.1410 C   0  0  0  0  0  0  0  0  0  0  0  0
    0.7900    0.1580   -0.1930 C   0  0  0  0  0  0  0  0  0  0  0  0
    0.4150    0.3600   -1.5040 C   0  0  0  0  0  0  0  0  0  0  0  0
   -0.9320    0.4810   -1.8660 C   0  0  0  0  0  0  0  0  0  0  0  0
   -1.8780    0.3930   -0.8780 C   0  0  0  0  0  0  0  0  0  0  0  0
   -3.1990    0.5130   -1.2480 C   0  0  0  0  0  0  0  0  0  0  0  0
   -4.2010    0.4320   -0.2900 C   0  0  0  0  0  0  0  0  0  0  0  0
   -3.8520    0.2300    1.0260 C   0  0  0  0  0  0  0  0  0  0  0  0
   -2.5330    0.1070    1.4100 C   0  0  0  0  0  0  0  0  0  0  0  0
   -1.5490    0.1900    0.4480 C   0  0  0  0  0  0  0  0  0  0  0  0
   -0.2020    0.0760    0.7590 C   0  0  0  0  0  0  0  0  0  0  0  0
    2.7390   -0.1610    1.3590 N   0  0  0  0  0  0  0  0  0  0  0  0
  1  2  2  0
  2  3  1  0
  2 16  1  0
  3  4  1  0
  4  5  2  0
  5  6  1  0
  5 16  1  0
  6  7  2  0
  6 15  1  0
  7  8  1  0
  8  9  2  0
  9 10  1  0
  9 14  1  0
 10 11  2  0
 11 12  1  0
 12 13  2  0
 13 14  1  0
 14 15  2  0
M  END
