
     RDKit          3D

 14 14  0  0  0  0  0  0  0  0999 V2000
    3.2910    1.3110    0.0040 N   0  0  0  0  0  0  0  0  0  0  0  0
    2.8800   -0.0180    0.2440 C   0  0  0  0  0  0  0  0  0  0  0  0
    3.0090   -0.5610    1.3610 O   0  0  0  0  0  0  0  0  0  0  0  0
    2.3030   -0.7620   -0.8130 N   0  0  0  0  0  0  0  0  0  0  0  0
    0.9630   -0.2920   -1.1060 C   0  0  0  0  0  0  0  0  0  0  0  0
   -0.0680   -0.9960   -0.2210 C   0  0  2  0  0  0  0  0  0  0  0  0
   -1.4140   -0.5590   -0.6260 C   0  0  0  0  0  0  0  0  0  0  0  0
   -2.2540    0.0270    0.1730 C   0  0  0  0  0  0  0  0  0  0  0  0
   -3.6050    0.4490   -0.2910 C   0  0  0  0  0  0  0  0  0  0  0  0
   -3.7390    2.2250   -0.0780 Cl  0  0  0  0  0  0  0  0  0  0  0  0
   -1.9100    0.2870    1.5240 N   0  0  0  0  0  0  0  0  0  0  0  0
   -0.6130   -0.1160    1.9760 C   0  0  0  0  0  0  0  0  0  0  0  0
   -0.3060    0.1170    3.1850 O   0  0  0  0  0  0  0  0  0  0  0  0
    0.2300   -0.7260    1.1010 O   0  0  0  0  0  0  0  0  0  0  0  0
  1  2  1  0
  2  3  2  0
  2  4  1  0
  4  5  1  0
  6  5  1  6
  6  7  1  0
  6 14  1  0
  7  8  2  0
  8  9  1  0
  8 11  1  0
  9 10  1  0
 11 12  1  0
 12 13  2  0
 12 14  1  0
M  CHG  1   4   1
M  END
