
     RDKit          3D

 15 15  0  0  0  0  0  0  0  0999 V2000
   -3.6880   -2.2150   -0.8270 O   0  0  0  0  0  0  0  0  0  0  0  0
   -2.6490   -1.6280   -0.4420 C   0  0  0  0  0  0  0  0  0  0  0  0
   -1.6240   -2.3840    0.1940 N   0  0  0  0  0  0  0  0  0  0  0  0
   -0.4650   -1.6810    0.6140 C   0  0  0  0  0  0  0  0  0  0  0  0
    0.3020   -2.1650    1.4780 O   0  0  0  0  0  0  0  0  0  0  0  0
   -0.2080   -0.3590   -0.0130 C   0  0  2  0  0  0  0  0  0  0  0  0
    0.9750    0.1900    0.5150 N   0  0  0  0  0  0  0  0  0  0  0  0
    1.9800    0.3270   -0.5510 C   0  0  0  0  0  0  0  0  0  0  0  0
    3.3780    0.1890    0.0260 C   0  0  0  0  0  0  0  0  0  0  0  0
    3.7300    1.4070    1.2440 Cl  0  0  0  0  0  0  0  0  0  0  0  0
   -1.4560    0.4460    0.1430 C   0  0  1  0  0  0  0  0  0  0  0  0
   -1.3790    1.8390   -0.2520 C   0  0  0  0  0  0  0  0  0  0  0  0
   -2.1530    2.2620   -1.1480 O   0  0  0  0  0  0  0  0  0  0  0  0
   -0.5170    2.7950    0.2650 O   0  0  0  0  0  0  0  0  0  0  0  0
   -2.4830   -0.2280   -0.6290 N   0  0  0  0  0  0  0  0  0  0  0  0
  1  2  2  0
  2  3  1  0
  2 15  1  0
  3  4  1  0
  4  5  2  0
  4  6  1  0
  6  7  1  1
  6 11  1  0
  7  8  1  0
  8  9  1  0
  9 10  1  0
 11 12  1  6
 11 15  1  0
 12 13  2  0
 12 14  1  0
M  CHG  1   7   1
M  END
