
     RDKit          3D

 15 15  0  0  0  0  0  0  0  0999 V2000
    3.5080   -0.6910   -1.7250 O   0  0  0  0  0  0  0  0  0  0  0  0
    3.9540   -1.1430   -0.6110 C   0  0  0  0  0  0  0  0  0  0  0  0
    5.2970   -1.3680   -0.4210 O   0  0  0  0  0  0  0  0  0  0  0  0
    2.9460   -1.3710    0.3660 N   0  0  0  0  0  0  0  0  0  0  0  0
    1.6120   -1.1100    0.0610 N   0  0  0  0  0  0  0  0  0  0  0  0
    1.0510    0.1740   -0.1190 C   0  0  0  0  0  0  0  0  0  0  0  0
    1.8150    1.1640    0.0130 O   0  0  0  0  0  0  0  0  0  0  0  0
   -0.3840    0.3970   -0.4500 C   0  0  1  0  0  0  0  0  0  0  0  0
   -1.2360   -0.7610   -0.0940 C   0  0  0  0  0  0  0  0  0  0  0  0
   -2.6750   -0.4420   -0.4840 C   0  0  0  0  0  0  0  0  0  0  0  0
   -3.1020    0.7340    0.4220 C   0  0  2  0  0  0  0  0  0  0  0  0
   -4.7880    1.1580    0.1210 Cl  0  0  0  0  0  0  0  0  0  0  0  0
   -2.2220    1.8550    0.0040 C   0  0  0  0  0  0  0  0  0  0  0  0
   -2.7110    2.9580   -0.2860 O   0  0  0  0  0  0  0  0  0  0  0  0
   -0.8410    1.6800   -0.0670 N   0  0  0  0  0  0  0  0  0  0  0  0
  1  2  2  0
  2  3  1  0
  2  4  1  0
  4  5  1  0
  5  6  1  0
  6  7  2  0
  8  6  1  1
  8  9  1  0
  8 15  1  0
  9 10  1  0
 10 11  1  0
 11 12  1  6
 11 13  1  0
 13 14  2  0
 13 15  1  0
M  CHG  1  15   1
M  END
