
     RDKit          3D

 15 15  0  0  0  0  0  0  0  0999 V2000
    3.9780   -0.2680   -0.9950 N   0  0  0  0  0  0  0  0  0  0  0  0
    3.2980    0.9400   -0.7630 C   0  0  0  0  0  0  0  0  0  0  0  0
    3.9990    1.9980   -0.9250 O   0  0  0  0  0  0  0  0  0  0  0  0
    1.9090    1.0120   -0.3690 C   0  0  0  0  0  0  0  0  0  0  0  0
    1.1230   -0.0290   -0.1830 C   0  0  0  0  0  0  0  0  0  0  0  0
    1.3600   -1.3370   -0.2930 N   0  0  0  0  0  0  0  0  0  0  0  0
    0.2370   -2.0380   -0.0000 C   0  0  0  0  0  0  0  0  0  0  0  0
    0.1810   -3.2890   -0.0260 O   0  0  0  0  0  0  0  0  0  0  0  0
   -0.6670   -1.1630    0.2830 O   0  0  0  0  0  0  0  0  0  0  0  0
   -0.2150    0.0570    0.1970 C   0  0  0  0  0  0  0  0  0  0  0  0
   -0.8890    1.1500    0.4230 C   0  0  0  0  0  0  0  0  0  0  0  0
   -2.3290    1.1450    0.8280 C   0  0  2  0  0  0  0  0  0  0  0  0
   -2.6070    2.3840    2.0730 Cl  0  0  0  0  0  0  0  0  0  0  0  0
   -2.7360   -0.1120    1.2370 O   0  0  0  0  0  0  0  0  0  0  0  0
   -3.7100   -0.6220    0.4550 N   0  0  0  0  0  0  0  0  0  0  0  0
  1  2  1  0
  2  3  2  0
  2  4  1  0
  4  5  2  3
  5  6  1  0
  5 10  1  0
  6  7  1  0
  7  8  2  0
  7  9  1  0
  9 10  1  0
 10 11  2  3
 11 12  1  0
 12 13  1  1
 12 14  1  0
 14 15  1  0
M  CHG  1  15   1
M  END
