
     RDKit          3D

 15 15  0  0  0  0  0  0  0  0999 V2000
   -3.2930    1.6080   -2.2190 O   0  0  0  0  0  0  0  0  0  0  0  0
   -2.3550    0.9110   -1.7600 C   0  0  0  0  0  0  0  0  0  0  0  0
   -1.0660    0.9990   -2.3540 N   0  0  0  0  0  0  0  0  0  0  0  0
   -0.0270    0.1940   -1.8070 C   0  0  0  0  0  0  0  0  0  0  0  0
    0.8870   -0.2740   -2.5490 O   0  0  0  0  0  0  0  0  0  0  0  0
   -0.0880   -0.0500   -0.3410 C   0  0  2  0  0  0  0  0  0  0  0  0
    0.9720   -0.9310    0.0970 N   0  0  0  0  0  0  0  0  0  0  0  0
    2.2600   -0.3610   -0.0820 C   0  0  0  0  0  0  0  0  0  0  0  0
    2.8710    0.1990    1.1830 C   0  0  0  0  0  0  0  0  0  0  0  0
    1.8980    1.4810    1.9060 Cl  0  0  0  0  0  0  0  0  0  0  0  0
   -1.4250   -0.5020    0.1340 C   0  0  1  0  0  0  0  0  0  0  0  0
   -1.6760   -0.0340    1.5450 C   0  0  0  0  0  0  0  0  0  0  0  0
   -2.6670    0.6750    1.8560 O   0  0  0  0  0  0  0  0  0  0  0  0
   -0.8110   -0.3690    2.5860 O   0  0  0  0  0  0  0  0  0  0  0  0
   -2.5070    0.0260   -0.6640 N   0  0  0  0  0  0  0  0  0  0  0  0
  1  2  2  0
  2  3  1  0
  2 15  1  0
  3  4  1  0
  4  5  2  0
  4  6  1  0
  6  7  1  6
  6 11  1  0
  7  8  1  0
  8  9  1  0
  9 10  1  0
 11 12  1  1
 11 15  1  0
 12 13  2  0
 12 14  1  0
M  CHG  1   7   1
M  END
