
     RDKit          3D

 10 10  0  0  0  0  0  0  0  0999 V2000
   -2.3940   -0.1410    0.6790 C   0  0  0  0  0  0  0  0  0  0  0  0
   -1.0750   -0.0830   -0.0980 C   0  0  1  0  0  0  0  0  0  0  0  0
   -0.6480    1.3490   -0.1270 C   0  0  0  0  0  0  0  0  0  0  0  0
    0.7130    1.5580   -0.6560 C   0  0  0  0  0  0  0  0  0  0  0  0
    0.9050    2.6130   -1.3400 O   0  0  0  0  0  0  0  0  0  0  0  0
    1.8810    0.7460   -0.5220 N   0  0  0  0  0  0  0  0  0  0  0  0
    1.9730   -0.5050   -0.3360 C   0  0  0  0  0  0  0  0  0  0  0  0
    3.2320   -1.0980   -0.2320 O   0  0  0  0  0  0  0  0  0  0  0  0
    0.8600   -1.4950   -0.2020 C   0  0  0  0  0  0  0  0  0  0  0  0
   -0.1310   -0.8810    0.6620 N   0  0  0  0  0  0  0  0  0  0  0  0
  2  1  1  1
  2  3  1  0
  2 10  1  0
  3  4  1  0
  4  5  2  0
  4  6  1  0
  6  7  2  0
  7  8  1  0
  7  9  1  0
  9 10  1  0
M  END
