
     RDKit          3D

 18 19  0  0  0  0  0  0  0  0999 V2000
   -3.5910   -1.4050   -2.0870 C   0  0  0  0  0  0  0  0  0  0  0  0
   -2.7060   -0.7760   -1.0760 C   0  0  0  0  0  0  0  0  0  0  0  0
   -1.3540   -1.0790   -0.9770 C   0  0  0  0  0  0  0  0  0  0  0  0
   -0.5400   -0.4890   -0.0330 C   0  0  0  0  0  0  0  0  0  0  0  0
    0.8920   -0.8090    0.0720 C   0  0  0  0  0  0  0  0  0  0  0  0
    1.4540   -1.6260   -0.6800 O   0  0  0  0  0  0  0  0  0  0  0  0
    1.6460   -0.1880    1.0310 O   0  0  0  0  0  0  0  0  0  0  0  0
    3.0010   -0.3650    1.2750 C   0  0  0  0  0  0  0  0  0  0  0  0
    3.8970   -0.0460    0.1730 C   0  0  0  0  0  0  0  0  0  0  0  0
    4.3550   -0.9150   -0.7850 C   0  0  0  0  0  0  0  0  0  0  0  0
    5.1560   -0.2180   -1.6140 N   0  0  0  0  0  0  0  0  0  0  0  0
    5.2100    1.0490   -1.2040 N   0  0  0  0  0  0  0  0  0  0  0  0
    4.4420    1.1810   -0.1030 C   0  0  0  0  0  0  0  0  0  0  0  0
   -1.1130    0.4240    0.8240 C   0  0  0  0  0  0  0  0  0  0  0  0
   -2.4580    0.7360    0.7390 C   0  0  0  0  0  0  0  0  0  0  0  0
   -3.0920    1.7140    1.6500 C   0  0  0  0  0  0  0  0  0  0  0  0
   -3.2520    0.1310   -0.2160 C   0  0  0  0  0  0  0  0  0  0  0  0
   -4.5980    0.4430   -0.3010 O   0  0  0  0  0  0  0  0  0  0  0  0
  1  2  1  0
  2  3  2  0
  2 17  1  0
  3  4  1  0
  4  5  1  0
  4 14  2  0
  5  6  2  0
  5  7  1  0
  7  8  1  0
  8  9  1  0
  9 10  1  0
  9 13  2  0
 10 11  2  0
 11 12  1  0
 12 13  1  0
 14 15  1  0
 15 16  1  0
 15 17  2  0
 17 18  1  0
M  END
