
     RDKit          3D

 10 10  0  0  0  0  0  0  0  0999 V2000
   -3.2830    0.7470   -0.1400 N   0  0  0  0  0  0  0  0  0  0  0  0
   -1.9220    0.4080   -0.4410 C   0  0  0  0  0  0  0  0  0  0  0  0
   -1.2420    1.2630   -1.0550 O   0  0  0  0  0  0  0  0  0  0  0  0
   -1.4420   -0.8060   -0.0510 O   0  0  0  0  0  0  0  0  0  0  0  0
   -0.1420   -1.2220   -0.2600 C   0  0  0  0  0  0  0  0  0  0  0  0
    0.8760   -0.5650    0.6010 C   0  0  2  0  0  0  0  0  0  0  0  0
    1.0210    0.8640    0.5540 C   0  0  0  0  0  0  0  0  0  0  0  0
    2.2210    1.1750    0.0780 C   0  0  0  0  0  0  0  0  0  0  0  0
    2.9240   -0.0170   -0.2070 N   0  0  0  0  0  0  0  0  0  0  0  0
    2.2220   -1.0470    0.0680 C   0  0  0  0  0  0  0  0  0  0  0  0
  1  2  1  0
  2  3  2  0
  2  4  1  0
  4  5  1  0
  6  5  1  6
  6  7  1  0
  6 10  1  0
  7  8  2  0
  8  9  1  0
  9 10  2  0
M  END
