
     RDKit          3D

 38 40  0  0  0  0  0  0  0  0999 V2000
    1.7870    5.5560   -0.7980 C   0  0  0  0  0  0  0  0  0  0  0  0
    1.3420    5.4330    0.6270 C   0  0  2  0  0  0  0  0  0  0  0  0
    1.8250    3.8110    1.3430 S   0  0  0  0  0  0  0  0  0  0  0  0
    0.1330    3.1700    1.6640 C   0  0  2  0  0  0  0  0  0  0  0  0
    0.0160    1.7580    1.3120 C   0  0  0  0  0  0  0  0  0  0  0  0
   -1.2600    1.2660    1.0190 C   0  0  0  0  0  0  0  0  0  0  0  0
   -1.4760   -0.0380    0.6800 C   0  0  0  0  0  0  0  0  0  0  0  0
   -2.7900   -0.5650    0.3730 C   0  0  0  0  0  0  0  0  0  0  0  0
   -2.9580   -1.7930    0.0680 O   0  0  0  0  0  0  0  0  0  0  0  0
   -3.9320    0.2410    0.3960 N   0  0  0  0  0  0  0  0  0  0  0  0
   -5.2380   -0.2800    0.0910 C   0  0  0  0  0  0  0  0  0  0  0  0
   -6.2630   -0.2680    0.9220 C   0  0  0  0  0  0  0  0  0  0  0  0
   -7.4220   -0.8710    0.2940 C   0  0  0  0  0  0  0  0  0  0  0  0
   -8.5430   -1.0110    0.8130 O   0  0  0  0  0  0  0  0  0  0  0  0
   -7.0420   -1.2660   -1.0050 N   0  0  0  0  0  0  0  0  0  0  0  0
   -7.8940   -1.9130   -1.9840 C   0  0  0  0  0  0  0  0  0  0  0  0
   -7.8140   -3.4340   -1.8390 C   0  0  0  0  0  0  0  0  0  0  0  0
   -8.6400   -4.0080   -2.7880 O   0  0  0  0  0  0  0  0  0  0  0  0
   -5.6650   -0.9000   -1.1500 C   0  0  0  0  0  0  0  0  0  0  0  0
   -5.0080   -1.1070   -2.1900 O   0  0  0  0  0  0  0  0  0  0  0  0
   -0.3810   -0.8810    0.6310 C   0  0  0  0  0  0  0  0  0  0  0  0
    0.8610   -0.4140    0.9130 C   0  0  0  0  0  0  0  0  0  0  0  0
    1.9950   -1.3390    0.8500 C   0  0  0  0  0  0  0  0  0  0  0  0
    1.8150   -2.5390    0.5410 O   0  0  0  0  0  0  0  0  0  0  0  0
    3.2860   -0.9210    1.1280 O   0  0  0  0  0  0  0  0  0  0  0  0
    4.4110   -1.7470    1.0870 C   0  0  2  0  0  0  0  0  0  0  0  0
    5.1620   -1.7910    2.4010 C   0  0  0  0  0  0  0  0  0  0  0  0
    5.3140   -1.2670    0.0080 C   0  0  0  0  0  0  0  0  0  0  0  0
    5.0120   -0.2530   -0.7060 O   0  0  0  0  0  0  0  0  0  0  0  0
    6.5130   -1.8800   -0.2800 O   0  0  0  0  0  0  0  0  0  0  0  0
    7.3510   -1.4100   -1.3030 C   0  0  1  0  0  0  0  0  0  0  0  0
    8.6420   -0.9940   -0.7840 N   0  0  0  0  0  0  0  0  0  0  0  0
    7.5820   -2.3990   -2.3340 N   0  0  0  0  0  0  0  0  0  0  0  0
    8.1630   -3.4930   -1.8100 O   0  0  0  0  0  0  0  0  0  0  0  0
    1.0270    0.8820    1.2440 N   0  0  0  0  0  0  0  0  0  0  0  0
   -0.6250    4.0510    0.7940 N   0  0  0  0  0  0  0  0  0  0  0  0
   -0.1340    5.3580    0.7730 C   0  0  0  0  0  0  0  0  0  0  0  0
   -0.8590    6.4000    0.8670 O   0  0  0  0  0  0  0  0  0  0  0  0
  2  1  1  6
  2  3  1  0
  2 37  1  0
  3  4  1  0
  4  5  1  6
  4 36  1  0
  5  6  2  0
  5 35  1  0
  6  7  1  0
  7  8  1  0
  7 21  2  0
  8  9  2  0
  8 10  1  0
 10 11  1  0
 11 12  2  0
 11 19  1  0
 12 13  1  0
 13 14  2  0
 13 15  1  0
 15 16  1  0
 15 19  1  0
 16 17  1  0
 17 18  1  0
 19 20  2  0
 21 22  1  0
 22 23  1  0
 22 35  2  0
 23 24  2  0
 23 25  1  0
 25 26  1  0
 26 27  1  1
 26 28  1  0
 28 29  2  0
 28 30  1  0
 30 31  1  0
 31 32  1  1
 31 33  1  0
 33 34  1  0
 36 37  1  0
 37 38  2  0
M  END
