
     RDKit          3D

 38 42  0  0  0  0  0  0  0  0999 V2000
   10.2680    2.3970    1.2390 N   0  0  0  0  0  0  0  0  0  0  0  0
    9.1800    1.5190    1.0090 C   0  0  0  0  0  0  0  0  0  0  0  0
    9.2300    0.2540    1.4890 N   0  0  0  0  0  0  0  0  0  0  0  0
    8.2230   -0.6100    1.2930 C   0  0  0  0  0  0  0  0  0  0  0  0
    7.1370   -0.2330    0.6100 N   0  0  0  0  0  0  0  0  0  0  0  0
    7.0260    1.0080    0.1080 C   0  0  0  0  0  0  0  0  0  0  0  0
    8.0590    1.9050    0.3060 C   0  0  0  0  0  0  0  0  0  0  0  0
    7.6840    3.0440   -0.2920 N   0  0  0  0  0  0  0  0  0  0  0  0
    6.4510    2.8630   -0.8470 C   0  0  0  0  0  0  0  0  0  0  0  0
    6.0470    1.6090   -0.6010 N   0  0  0  0  0  0  0  0  0  0  0  0
    4.8040    0.9760   -1.0040 C   0  0  2  0  0  0  0  0  0  0  0  0
    4.0930    0.5140    0.0760 O   0  0  0  0  0  0  0  0  0  0  0  0
    3.2250   -0.4170   -0.4820 C   0  0  2  0  0  0  0  0  0  0  0  0
    2.5440   -1.2500    0.5650 C   0  0  0  0  0  0  0  0  0  0  0  0
    1.6480   -2.2270    0.0070 N   0  0  0  0  0  0  0  0  0  0  0  0
    0.9180   -3.1250    1.3030 S   0  0  1  0  0  0  0  0  0  0  0  0
    0.6220   -4.5120    0.8600 O   0  0  0  0  0  0  0  0  0  0  0  0
    1.8090   -3.1730    2.5010 O   0  0  0  0  0  0  0  0  0  0  0  0
   -0.5720   -2.3100    1.7170 N   0  0  0  0  0  0  0  0  0  0  0  0
   -1.5500   -2.2670    0.7040 C   0  0  0  0  0  0  0  0  0  0  0  0
   -1.3560   -2.7900   -0.4320 O   0  0  0  0  0  0  0  0  0  0  0  0
   -2.8540   -1.5920    0.9530 C   0  0  0  0  0  0  0  0  0  0  0  0
   -3.7560   -1.6730   -0.2310 C   0  0  0  0  0  0  0  0  0  0  0  0
   -5.0990   -0.9950   -0.0050 C   0  0  0  0  0  0  0  0  0  0  0  0
   -4.9560    0.4500    0.2970 C   0  0  0  0  0  0  0  0  0  0  0  0
   -6.1610    1.2410    0.5470 C   0  0  2  0  0  0  0  0  0  0  0  0
   -7.1620    0.6870    1.9910 S   0  0  0  0  0  0  0  0  0  0  0  0
   -8.7450    1.4490    1.4250 C   0  0  0  0  0  0  0  0  0  0  0  0
   -8.3680    2.0450    0.0900 C   0  0  2  0  0  0  0  0  0  0  0  0
   -9.4190    1.6980   -0.8480 N   0  0  0  0  0  0  0  0  0  0  0  0
   -9.2180    0.3110   -1.1470 C   0  0  0  0  0  0  0  0  0  0  0  0
   -9.9840   -0.4140   -1.8250 O   0  0  0  0  0  0  0  0  0  0  0  0
   -7.9700   -0.0910   -0.5190 N   0  0  0  0  0  0  0  0  0  0  0  0
   -7.2380    1.1670   -0.4830 C   0  0  2  0  0  0  0  0  0  0  0  0
    4.0360   -1.2040   -1.4650 C   0  0  1  0  0  0  0  0  0  0  0  0
    3.2490   -1.5800   -2.5400 O   0  0  0  0  0  0  0  0  0  0  0  0
    5.1210   -0.2380   -1.8360 C   0  0  1  0  0  0  0  0  0  0  0  0
    5.0180    0.0550   -3.2030 O   0  0  0  0  0  0  0  0  0  0  0  0
  1  2  1  0
  2  3  2  0
  2  7  1  0
  3  4  1  0
  4  5  2  0
  5  6  1  0
  6  7  2  0
  6 10  1  0
  7  8  1  0
  8  9  2  0
  9 10  1  0
 11 10  1  1
 11 12  1  0
 11 37  1  0
 12 13  1  0
 13 14  1  1
 13 35  1  0
 14 15  1  0
 16 15  1  6
 16 17  2  0
 16 18  2  0
 16 19  1  0
 19 20  1  0
 20 21  2  0
 20 22  1  0
 22 23  1  0
 23 24  1  0
 24 25  1  0
 26 25  1  6
 26 27  1  0
 26 34  1  0
 27 28  1  0
 29 28  1  1
 29 30  1  0
 29 34  1  0
 30 31  1  0
 31 32  2  0
 31 33  1  0
 34 33  1  1
 35 36  1  6
 35 37  1  0
 37 38  1  6
M  END
