
     RDKit          3D

 38 39  0  0  0  0  0  0  0  0999 V2000
   10.4600   -2.3770   -0.0690 C   0  0  0  0  0  0  0  0  0  0  0  0
    9.5730   -2.3820    1.1370 C   0  0  0  0  0  0  0  0  0  0  0  0
   10.1760   -2.6750    2.1670 N   0  0  0  0  0  0  0  0  0  0  0  0
    8.2140   -2.4200    1.3530 N   0  0  0  0  0  0  0  0  0  0  0  0
    7.1950   -1.6950    0.7270 C   0  0  0  0  0  0  0  0  0  0  0  0
    7.6060   -0.9000   -0.0860 O   0  0  0  0  0  0  0  0  0  0  0  0
    5.8180   -1.9100    1.0750 C   0  0  0  0  0  0  0  0  0  0  0  0
    5.3990   -2.8250    1.8400 O   0  0  0  0  0  0  0  0  0  0  0  0
    4.8790   -1.0030    0.5090 N   0  0  0  0  0  0  0  0  0  0  0  0
    3.4690   -1.1580    0.8400 C   0  0  2  0  0  0  0  0  0  0  0  0
    2.6950   -1.5450   -0.3920 C   0  0  0  0  0  0  0  0  0  0  0  0
    2.9640    0.1150    1.3850 C   0  0  0  0  0  0  0  0  0  0  0  0
    3.6330    1.1700    1.0960 O   0  0  0  0  0  0  0  0  0  0  0  0
    1.8440    0.2480    2.1810 O   0  0  0  0  0  0  0  0  0  0  0  0
    1.4040    1.4640    2.7030 C   0  0  0  0  0  0  0  0  0  0  0  0
    0.9390    2.3750    1.6410 C   0  0  0  0  0  0  0  0  0  0  0  0
    0.6660    3.6000    1.9570 O   0  0  0  0  0  0  0  0  0  0  0  0
    0.7550    2.0250    0.3070 N   0  0  0  0  0  0  0  0  0  0  0  0
    0.2870    2.9410   -0.7270 C   0  0  0  0  0  0  0  0  0  0  0  0
   -1.0650    3.4850   -0.3580 C   0  0  1  0  0  0  0  0  0  0  0  0
   -1.6950    4.2390   -1.5360 C   0  0  0  0  0  0  0  0  0  0  0  0
   -3.0430    4.1530   -1.2390 O   0  0  0  0  0  0  0  0  0  0  0  0
   -3.2410    3.1750   -0.2890 C   0  0  1  0  0  0  0  0  0  0  0  0
   -4.3360    2.2910   -0.7070 C   0  0  0  0  0  0  0  0  0  0  0  0
   -4.9340    2.4980   -1.8180 O   0  0  0  0  0  0  0  0  0  0  0  0
   -4.7580    1.2120    0.0780 N   0  0  0  0  0  0  0  0  0  0  0  0
   -5.8130    0.3370   -0.2900 C   0  0  0  0  0  0  0  0  0  0  0  0
   -5.6280   -0.9480   -0.4750 C   0  0  0  0  0  0  0  0  0  0  0  0
   -6.7290   -1.8870   -0.8620 C   0  0  0  0  0  0  0  0  0  0  0  0
   -6.6270   -3.1450   -0.5080 C   0  0  0  0  0  0  0  0  0  0  0  0
   -7.5810   -4.1670   -0.7910 C   0  0  0  0  0  0  0  0  0  0  0  0
   -8.6380   -4.0070   -1.4170 O   0  0  0  0  0  0  0  0  0  0  0  0
   -7.8300   -1.2520   -1.6170 C   0  0  2  0  0  0  0  0  0  0  0  0
   -7.1670   -0.6440   -3.2240 S   0  0  0  0  0  0  0  0  0  0  0  0
   -8.2180   -0.0400   -0.8750 N   0  0  0  0  0  0  0  0  0  0  0  0
   -7.1850    0.8550   -0.4940 C   0  0  0  0  0  0  0  0  0  0  0  0
   -7.4760    2.0690   -0.3420 O   0  0  0  0  0  0  0  0  0  0  0  0
   -2.0350    2.4660   -0.2020 O   0  0  0  0  0  0  0  0  0  0  0  0
  1  2  1  0
  2  3  2  0
  2  4  1  0
  4  5  1  0
  5  6  2  0
  5  7  1  0
  7  8  2  0
  7  9  1  0
  9 10  1  0
 10 11  1  6
 10 12  1  0
 12 13  2  0
 12 14  1  0
 14 15  1  0
 15 16  1  0
 16 17  2  0
 16 18  1  0
 18 19  1  0
 20 19  1  6
 20 21  1  0
 20 38  1  0
 21 22  1  0
 22 23  1  0
 23 24  1  6
 23 38  1  0
 24 25  2  0
 24 26  1  0
 26 27  1  0
 27 28  2  0
 27 36  1  0
 28 29  1  0
 29 30  2  3
 29 33  1  0
 30 31  1  0
 31 32  2  0
 33 34  1  6
 33 35  1  0
 35 36  1  0
 36 37  2  0
M  END
