
     RDKit          3D

 38 40  0  0  0  0  0  0  0  0999 V2000
   -5.2630   -4.7940   -2.7520 C   0  0  0  0  0  0  0  0  0  0  0  0
   -5.0320   -3.7510   -1.8000 O   0  0  0  0  0  0  0  0  0  0  0  0
   -3.7520   -3.3210   -1.6010 C   0  0  0  0  0  0  0  0  0  0  0  0
   -2.8120   -3.8240   -2.2280 O   0  0  0  0  0  0  0  0  0  0  0  0
   -3.5150   -2.2220   -0.6030 C   0  0  0  0  0  0  0  0  0  0  0  0
   -4.4800   -1.7950   -0.0210 O   0  0  0  0  0  0  0  0  0  0  0  0
   -2.2300   -1.7550   -0.3940 N   0  0  0  0  0  0  0  0  0  0  0  0
   -1.5930   -0.8270    0.4190 C   0  0  0  0  0  0  0  0  0  0  0  0
   -0.1230   -0.7380    0.2000 C   0  0  0  0  0  0  0  0  0  0  0  0
    0.6480   -0.0510    0.8260 O   0  0  0  0  0  0  0  0  0  0  0  0
    0.4970   -1.4980   -0.8380 N   0  0  0  0  0  0  0  0  0  0  0  0
    1.9480   -1.4310   -1.0320 C   0  0  1  0  0  0  0  0  0  0  0  0
    2.4270   -2.7200   -1.5330 C   0  0  0  0  0  0  0  0  0  0  0  0
    3.7800   -2.8360   -2.1360 C   0  0  0  0  0  0  0  0  0  0  0  0
    4.0700   -1.5960   -2.9830 C   0  0  0  0  0  0  0  0  0  0  0  0
    3.9070   -0.4490   -2.0150 C   0  0  1  0  0  0  0  0  0  0  0  0
    4.5530    0.7430   -2.3580 O   0  0  0  0  0  0  0  0  0  0  0  0
    4.5050    1.8130   -1.4090 C   0  0  0  0  0  0  0  0  0  0  0  0
    3.8270    2.9150   -1.5680 C   0  0  0  0  0  0  0  0  0  0  0  0
    3.8190    3.9880   -0.5380 C   0  0  2  0  0  0  0  0  0  0  0  0
    4.3090    5.5900   -1.2580 S   0  0  0  0  0  0  0  0  0  0  0  0
    4.5870    3.7150    0.5940 O   0  0  0  0  0  0  0  0  0  0  0  0
    5.2800    2.5490    0.7160 N   0  0  0  0  0  0  0  0  0  0  0  0
    5.2850    1.6400   -0.1630 C   0  0  0  0  0  0  0  0  0  0  0  0
    6.0250    0.4640    0.0310 O   0  0  0  0  0  0  0  0  0  0  0  0
    2.3700   -0.2530   -1.8580 C   0  0  0  0  0  0  0  0  0  0  0  0
   -2.1290   -0.0760    1.3730 C   0  0  0  0  0  0  0  0  0  0  0  0
   -3.4680   -0.1080    1.7920 N   0  0  0  0  0  0  0  0  0  0  0  0
   -4.0860    0.8810    2.5800 C   0  0  0  0  0  0  0  0  0  0  0  0
   -5.3720    0.8330    2.7130 O   0  0  0  0  0  0  0  0  0  0  0  0
   -3.3160    1.9350    3.2320 C   0  0  2  0  0  0  0  0  0  0  0  0
   -3.1320    1.6040    4.7050 C   0  0  0  0  0  0  0  0  0  0  0  0
   -4.0390    3.2630    3.1000 C   0  0  0  0  0  0  0  0  0  0  0  0
   -5.3700    3.3530    3.5560 N   0  0  0  0  0  0  0  0  0  0  0  0
   -3.4810    4.2670    2.5990 O   0  0  0  0  0  0  0  0  0  0  0  0
   -2.0190    2.1260    2.6850 N   0  0  0  0  0  0  0  0  0  0  0  0
   -1.4020    1.1280    1.8690 C   0  0  0  0  0  0  0  0  0  0  0  0
   -0.2160    1.3840    1.6320 O   0  0  0  0  0  0  0  0  0  0  0  0
  1  2  1  0
  2  3  1  0
  3  4  2  0
  3  5  1  0
  5  6  2  0
  5  7  1  0
  7  8  1  0
  8  9  1  0
  8 27  2  3
  9 10  2  0
  9 11  1  0
 12 11  1  6
 12 13  1  0
 12 26  1  0
 13 14  1  0
 14 15  1  0
 15 16  1  0
 16 17  1  6
 16 26  1  0
 17 18  1  0
 18 19  2  0
 18 24  1  0
 19 20  1  0
 20 21  1  6
 20 22  1  0
 22 23  1  0
 23 24  2  0
 24 25  1  0
 27 28  1  0
 27 37  1  0
 28 29  1  0
 29 30  2  0
 29 31  1  0
 31 32  1  1
 31 33  1  0
 31 36  1  0
 33 34  1  0
 33 35  2  0
 36 37  1  0
 37 38  2  0
M  END
