
     RDKit          3D

 38 40  0  0  0  0  0  0  0  0999 V2000
   -5.3880   -4.0270   -0.4430 C   0  0  0  0  0  0  0  0  0  0  0  0
   -4.0540   -4.0680    0.2400 C   0  0  2  0  0  0  0  0  0  0  0  0
   -3.7860   -2.8620    1.0650 C   0  0  0  0  0  0  0  0  0  0  0  0
   -2.7240   -1.9710    0.5460 C   0  0  0  0  0  0  0  0  0  0  0  0
   -2.3650   -1.0080    1.2400 O   0  0  0  0  0  0  0  0  0  0  0  0
   -2.0850   -2.2160   -0.7720 C   0  0  0  0  0  0  0  0  0  0  0  0
   -1.0940   -1.0170   -1.5840 S   0  0  0  0  0  0  0  0  0  0  0  0
   -0.7620    0.4050   -0.5850 C   0  0  0  0  0  0  0  0  0  0  0  0
   -1.7680    1.3580   -0.4700 C   0  0  0  0  0  0  0  0  0  0  0  0
   -1.5680    2.5520    0.2010 C   0  0  0  0  0  0  0  0  0  0  0  0
   -2.5640    3.4530    0.3040 O   0  0  0  0  0  0  0  0  0  0  0  0
   -2.6640    4.7130    0.8370 C   0  0  0  0  0  0  0  0  0  0  0  0
   -1.9050    5.6970    0.0240 C   0  0  0  0  0  0  0  0  0  0  0  0
   -2.2760    6.9850   -0.0030 N   0  0  0  0  0  0  0  0  0  0  0  0
   -1.4030    7.6870   -0.8370 C   0  0  0  0  0  0  0  0  0  0  0  0
   -1.3600    8.9230   -1.1660 O   0  0  0  0  0  0  0  0  0  0  0  0
   -0.4180    6.7040   -1.3510 C   0  0  0  0  0  0  0  0  0  0  0  0
    0.5480    6.8960   -2.1360 N   0  0  0  0  0  0  0  0  0  0  0  0
    0.9000    8.1030   -2.6940 O   0  0  0  0  0  0  0  0  0  0  0  0
   -0.8100    5.5280   -0.7660 O   0  0  0  0  0  0  0  0  0  0  0  0
   -0.3230    2.7750    0.7650 C   0  0  0  0  0  0  0  0  0  0  0  0
    0.6990    1.8280    0.6620 C   0  0  0  0  0  0  0  0  0  0  0  0
    0.4630    0.6370   -0.0200 C   0  0  0  0  0  0  0  0  0  0  0  0
    1.4470   -0.3030   -0.1340 O   0  0  0  0  0  0  0  0  0  0  0  0
    1.5520   -1.5320    0.4390 C   0  0  0  0  0  0  0  0  0  0  0  0
    0.5890   -1.9190    1.2230 O   0  0  0  0  0  0  0  0  0  0  0  0
    2.7200   -2.4430    0.2190 C   0  0  0  0  0  0  0  0  0  0  0  0
    3.9300   -1.7030    0.4690 C   0  0  0  0  0  0  0  0  0  0  0  0
    4.1720   -0.6410    0.8010 O   0  0  0  0  0  0  0  0  0  0  0  0
    5.3150   -2.7220    0.1610 N   0  0  0  0  0  0  0  0  0  0  0  0
    6.2660   -1.7760    0.2680 C   0  0  0  0  0  0  0  0  0  0  0  0
    6.1230   -0.5580    0.3400 O   0  0  0  0  0  0  0  0  0  0  0  0
    7.6220   -2.0790    0.3110 N   0  0  0  0  0  0  0  0  0  0  0  0
    8.6640   -2.9150    0.3110 C   0  0  0  0  0  0  0  0  0  0  0  0
    8.3310   -4.1310    0.4690 O   0  0  0  0  0  0  0  0  0  0  0  0
   -2.2690   -3.3990   -1.3550 C   0  0  0  0  0  0  0  0  0  0  0  0
   -1.6430   -3.5920   -2.6370 N   0  0  0  0  0  0  0  0  0  0  0  0
   -3.0410   -4.3900   -0.7380 N   0  0  0  0  0  0  0  0  0  0  0  0
  2  1  1  6
  2  3  1  0
  2 38  1  0
  3  4  1  0
  4  5  2  0
  4  6  1  0
  6  7  1  0
  6 36  2  0
  7  8  1  0
  8  9  2  0
  8 23  1  0
  9 10  1  0
 10 11  1  0
 10 21  2  0
 11 12  1  0
 12 13  1  0
 13 14  2  0
 13 20  1  0
 14 15  1  0
 15 16  2  0
 15 17  1  0
 17 18  2  3
 17 20  1  0
 18 19  1  0
 21 22  1  0
 22 23  2  0
 23 24  1  0
 24 25  1  0
 25 26  2  0
 25 27  1  0
 27 28  1  0
 28 29  2  0
 28 30  1  0
 30 31  1  0
 31 32  2  0
 31 33  1  0
 33 34  1  0
 34 35  2  0
 36 37  1  0
 36 38  1  0
M  END
