
     RDKit          3D

 10  9  0  0  0  0  0  0  0  0999 V2000
   -2.4690    1.2530   -0.7460 C   0  0  0  0  0  0  0  0  0  0  0  0
   -1.8830    0.3990    0.2560 N   0  0  0  0  0  0  0  0  0  0  0  0
   -1.1330   -0.6890   -0.3330 C   0  0  0  0  0  0  0  0  0  0  0  0
    0.1940   -0.8270    0.3610 C   0  0  1  0  0  0  0  0  0  0  0  0
   -0.0310   -1.1100    1.8250 C   0  0  0  0  0  0  0  0  0  0  0  0
    0.8930   -2.0330   -0.2730 C   0  0  0  0  0  0  0  0  0  0  0  0
    0.9950    0.3830    0.1190 C   0  0  0  0  0  0  0  0  0  0  0  0
    0.4960    1.2950   -0.5810 O   0  0  0  0  0  0  0  0  0  0  0  0
    2.2780    0.5590    0.6320 O   0  0  0  0  0  0  0  0  0  0  0  0
    2.9640    1.7720    0.3350 C   0  0  0  0  0  0  0  0  0  0  0  0
  1  2  1  0
  2  3  1  0
  3  4  1  0
  4  5  1  1
  4  6  1  0
  4  7  1  0
  7  8  2  0
  7  9  1  0
  9 10  1  0
M  CHG  1   2   1
M  END
