
     RDKit          3D

 10 10  0  0  0  0  0  0  0  0999 V2000
    3.3420    0.5640   -0.1700 C   0  0  0  0  0  0  0  0  0  0  0  0
    2.5390   -0.3350   -0.7830 O   0  0  0  0  0  0  0  0  0  0  0  0
    1.5590   -0.9330   -0.0740 C   0  0  0  0  0  0  0  0  0  0  0  0
    0.5550   -0.1190    0.5180 N   0  0  0  0  0  0  0  0  0  0  0  0
   -0.3600   -1.0140    1.2110 C   0  0  0  0  0  0  0  0  0  0  0  0
   -1.4160   -1.5810    0.3150 C   0  0  0  0  0  0  0  0  0  0  0  0
   -1.9790   -0.6770   -0.5510 O   0  0  0  0  0  0  0  0  0  0  0  0
   -1.6650    0.5980   -0.0890 C   0  0  2  0  0  0  0  0  0  0  0  0
   -2.4700    1.6070   -0.8390 C   0  0  0  0  0  0  0  0  0  0  0  0
   -0.1620    0.7450   -0.3530 C   0  0  0  0  0  0  0  0  0  0  0  0
  1  2  1  0
  2  3  1  0
  3  4  1  0
  4  5  1  0
  4 10  1  0
  5  6  1  0
  6  7  1  0
  7  8  1  0
  8  9  1  6
  8 10  1  0
M  END
