
     RDKit          3D

 19 20  0  0  0  0  0  0  0  0999 V2000
   -3.9180    1.4490   -1.8200 O   0  0  0  0  0  0  0  0  0  0  0  0
   -3.9950    0.9340   -0.6820 C   0  0  0  0  0  0  0  0  0  0  0  0
   -5.1370    1.1150    0.0730 O   0  0  0  0  0  0  0  0  0  0  0  0
   -2.8620    0.1370   -0.1620 C   0  0  0  0  0  0  0  0  0  0  0  0
   -2.9250   -0.4150    1.0370 C   0  0  0  0  0  0  0  0  0  0  0  0
   -1.8020   -1.1930    1.5290 C   0  0  0  0  0  0  0  0  0  0  0  0
   -0.7140   -1.3670    0.8100 C   0  0  0  0  0  0  0  0  0  0  0  0
   -0.5060   -0.8090   -0.5460 C   0  0  2  0  0  0  0  0  0  0  0  0
    0.6750   -0.0550   -0.6260 O   0  0  0  0  0  0  0  0  0  0  0  0
    1.9200   -0.5730   -0.3550 C   0  0  0  0  0  0  0  0  0  0  0  0
    2.8960    0.2480    0.0670 C   0  0  0  0  0  0  0  0  0  0  0  0
    2.6410    1.7000    0.2400 C   0  0  1  0  0  0  0  0  0  0  0  0
    3.6420    2.5430    0.8750 C   0  0  0  0  0  0  0  0  0  0  0  0
    3.4480    2.6500   -0.5560 C   0  0  0  0  0  0  0  0  0  0  0  0
    2.2210   -1.9800   -0.5070 C   0  0  0  0  0  0  0  0  0  0  0  0
    3.4120   -2.3680   -0.2290 O   0  0  0  0  0  0  0  0  0  0  0  0
    1.3760   -2.9700   -0.9190 O   0  0  0  0  0  0  0  0  0  0  0  0
   -1.6880   -0.0230   -0.9940 C   0  0  0  0  0  0  0  0  0  0  0  0
   -1.6100    0.4990   -2.1450 O   0  0  0  0  0  0  0  0  0  0  0  0
  1  2  2  0
  2  3  1  0
  2  4  1  0
  4  5  2  0
  4 18  1  0
  5  6  1  0
  6  7  2  0
  7  8  1  0
  8  9  1  1
  8 18  1  0
  9 10  1  0
 10 11  2  3
 10 15  1  0
 12 11  1  6
 12 13  1  0
 12 14  1  0
 13 14  2  0
 15 16  2  0
 15 17  1  0
 18 19  2  0
M  END
