
     RDKit          3D

 35 39  0  0  0  0  0  0  0  0999 V2000
    0.3090   -1.6890   -2.8150 C   0  0  0  0  0  0  0  0  0  0  0  0
    0.2870   -0.2810   -2.3380 C   0  0  0  0  0  0  0  0  0  0  0  0
    0.4220   -0.0960   -0.8800 C   0  0  0  0  0  0  0  0  0  0  0  0
    1.7090    0.1520   -0.4480 N   0  0  0  0  0  0  0  0  0  0  0  0
    2.0370    0.3150    0.8200 C   0  0  0  0  0  0  0  0  0  0  0  0
    3.4000    0.5690    1.2390 C   0  0  0  0  0  0  0  0  0  0  0  0
    3.6990    0.7600    2.5900 C   0  0  0  0  0  0  0  0  0  0  0  0
    4.9710    1.0050    3.0370 C   0  0  0  0  0  0  0  0  0  0  0  0
    5.9930    1.0700    2.1630 N   0  0  0  0  0  0  0  0  0  0  0  0
    5.7330    0.8870    0.8390 C   0  0  0  0  0  0  0  0  0  0  0  0
    4.4670    0.6390    0.3610 C   0  0  0  0  0  0  0  0  0  0  0  0
    4.2520    0.4400   -1.0750 C   0  0  0  0  0  0  0  0  0  0  0  0
    5.5090    0.5660   -1.7960 N   0  0  0  0  0  0  0  0  0  0  0  0
    1.0570    0.2340    1.7350 N   0  0  0  0  0  0  0  0  0  0  0  0
   -0.2100   -0.0020    1.3950 C   0  0  0  0  0  0  0  0  0  0  0  0
   -1.2250   -0.0840    2.3600 N   0  0  0  0  0  0  0  0  0  0  0  0
   -0.5740   -0.1760    0.0710 C   0  0  0  0  0  0  0  0  0  0  0  0
   -1.9470   -0.4080   -0.3160 C   0  0  1  0  0  0  0  0  0  0  0  0
   -2.5690   -1.5540    0.3770 C   0  0  0  0  0  0  0  0  0  0  0  0
   -2.1770   -2.9550    0.4940 C   0  0  0  0  0  0  0  0  0  0  0  0
   -2.8550   -3.8890    1.1670 C   0  0  0  0  0  0  0  0  0  0  0  0
   -2.2050   -5.2070    1.1030 C   0  0  0  0  0  0  0  0  0  0  0  0
   -1.0120   -4.9370    0.3070 C   0  0  0  0  0  0  0  0  0  0  0  0
   -1.0090   -3.6450   -0.0370 C   0  0  0  0  0  0  0  0  0  0  0  0
   -3.6070   -1.1290    0.9490 N   0  0  0  0  0  0  0  0  0  0  0  0
   -3.8130    0.2430    0.7520 C   0  0  0  0  0  0  0  0  0  0  0  0
   -4.9310    0.9380    1.3020 N   0  0  0  0  0  0  0  0  0  0  0  0
   -2.8310    0.7480   -0.0070 C   0  0  0  0  0  0  0  0  0  0  0  0
   -2.7360    2.1760   -0.3850 C   0  0  0  0  0  0  0  0  0  0  0  0
   -1.7580    2.6340   -1.1380 C   0  0  0  0  0  0  0  0  0  0  0  0
   -1.6020    4.0660   -1.5580 C   0  0  0  0  0  0  0  0  0  0  0  0
   -2.5790    4.9140   -1.0570 O   0  0  0  0  0  0  0  0  0  0  0  0
   -3.6060    4.4690   -0.2740 C   0  0  0  0  0  0  0  0  0  0  0  0
   -4.8090    5.6240    0.2960 Cl  0  0  0  0  0  0  0  0  0  0  0  0
   -3.6910    3.1830    0.0490 C   0  0  0  0  0  0  0  0  0  0  0  0
  1  2  1  0
  2  3  1  0
  3  4  2  0
  3 17  1  0
  4  5  1  0
  5  6  1  0
  5 14  2  0
  6  7  2  0
  6 11  1  0
  7  8  1  0
  8  9  2  0
  9 10  1  0
 10 11  2  0
 11 12  1  0
 12 13  1  0
 14 15  1  0
 15 16  1  0
 15 17  2  0
 18 17  1  1
 18 19  1  0
 18 28  1  0
 19 20  1  0
 19 25  2  0
 20 21  2  0
 20 24  1  0
 21 22  1  0
 22 23  1  0
 23 24  2  0
 25 26  1  0
 26 27  1  0
 26 28  2  0
 28 29  1  0
 29 30  2  0
 29 35  1  0
 30 31  1  0
 31 32  1  0
 32 33  1  0
 33 34  1  0
 33 35  2  0
M  CHG  1  13   1
M  END
