
     RDKit          3D

 34 38  0  0  0  0  0  0  0  0999 V2000
    5.3470    2.2550   -1.3620 C   0  0  0  0  0  0  0  0  0  0  0  0
    4.4280    2.3170   -0.1640 C   0  0  1  0  0  0  0  0  0  0  0  0
    3.3630    3.3800   -0.3590 C   0  0  0  0  0  0  0  0  0  0  0  0
    3.8220    1.0280    0.1080 N   0  0  0  0  0  0  0  0  0  0  0  0
    2.5590    0.6330   -0.0700 C   0  0  0  0  0  0  0  0  0  0  0  0
    2.3920   -0.6970    0.3250 C   0  0  0  0  0  0  0  0  0  0  0  0
    1.1530   -1.4510    0.2960 C   0  0  0  0  0  0  0  0  0  0  0  0
    0.8530   -2.3380    1.1190 O   0  0  0  0  0  0  0  0  0  0  0  0
    0.1710   -1.1830   -0.7470 C   0  0  0  0  0  0  0  0  0  0  0  0
    0.6140   -0.6640   -1.9420 C   0  0  0  0  0  0  0  0  0  0  0  0
   -0.2830   -0.4110   -2.9120 N   0  0  0  0  0  0  0  0  0  0  0  0
   -1.5870   -0.6500   -2.7450 C   0  0  0  0  0  0  0  0  0  0  0  0
   -2.0480   -1.1650   -1.5670 C   0  0  0  0  0  0  0  0  0  0  0  0
   -3.4320   -1.4170   -1.4000 N   0  0  0  0  0  0  0  0  0  0  0  0
   -3.8700   -1.9510   -0.1360 C   0  0  2  0  0  0  0  0  0  0  0  0
   -5.3270   -2.2090   -0.0320 C   0  0  0  0  0  0  0  0  0  0  0  0
   -5.8170   -1.5860    1.0860 O   0  0  0  0  0  0  0  0  0  0  0  0
   -4.7660   -1.3160    1.9220 C   0  0  0  0  0  0  0  0  0  0  0  0
   -3.6100   -0.9950    1.0060 C   0  0  2  0  0  0  0  0  0  0  0  0
   -3.6410    0.4310    0.5900 C   0  0  0  0  0  0  0  0  0  0  0  0
   -2.5410    1.2430    0.7600 C   0  0  0  0  0  0  0  0  0  0  0  0
   -2.5540    2.5670    0.3840 C   0  0  0  0  0  0  0  0  0  0  0  0
   -3.6690    3.1400   -0.1820 C   0  0  0  0  0  0  0  0  0  0  0  0
   -3.6860    4.4590   -0.5590 F   0  0  0  0  0  0  0  0  0  0  0  0
   -4.7820    2.3390   -0.3610 C   0  0  0  0  0  0  0  0  0  0  0  0
   -4.7570    0.9920    0.0270 C   0  0  0  0  0  0  0  0  0  0  0  0
   -1.1420   -1.4150   -0.6020 N   0  0  0  0  0  0  0  0  0  0  0  0
    3.6330   -1.1150    0.7630 C   0  0  0  0  0  0  0  0  0  0  0  0
    4.0870   -2.3180    1.2620 C   0  0  0  0  0  0  0  0  0  0  0  0
    3.2240   -3.4300    1.4040 N   0  0  0  0  0  0  0  0  0  0  0  0
    5.3960   -2.4010    1.6040 N   0  0  0  0  0  0  0  0  0  0  0  0
    6.2400   -1.3680    1.4720 C   0  0  0  0  0  0  0  0  0  0  0  0
    5.7790   -0.2040    0.9830 N   0  0  0  0  0  0  0  0  0  0  0  0
    4.4910   -0.0250    0.6150 C   0  0  0  0  0  0  0  0  0  0  0  0
  2  1  1  6
  2  3  1  0
  2  4  1  0
  4  5  1  0
  4 34  1  0
  5  6  2  0
  6  7  1  0
  6 28  1  0
  7  8  2  0
  7  9  1  0
  9 10  2  0
  9 27  1  0
 10 11  1  0
 11 12  2  0
 12 13  1  0
 13 14  1  0
 13 27  2  0
 15 14  1  6
 15 16  1  0
 15 19  1  0
 16 17  1  0
 17 18  1  0
 18 19  1  0
 19 20  1  6
 20 21  2  0
 20 26  1  0
 21 22  1  0
 22 23  2  0
 23 24  1  0
 23 25  1  0
 25 26  2  0
 28 29  2  0
 28 34  1  0
 29 30  1  0
 29 31  1  0
 31 32  2  0
 32 33  1  0
 33 34  2  0
M  END
