
     RDKit          3D

 35 39  0  0  0  0  0  0  0  0999 V2000
   -2.2800   -0.3340   -3.2720 N   0  0  0  0  0  0  0  0  0  0  0  0
   -3.2020   -1.1910   -2.6170 C   0  0  0  0  0  0  0  0  0  0  0  0
   -3.5820   -2.3840   -3.1840 C   0  0  0  0  0  0  0  0  0  0  0  0
   -4.4750   -3.2240   -2.5510 C   0  0  0  0  0  0  0  0  0  0  0  0
   -4.9870   -2.8780   -1.3570 N   0  0  0  0  0  0  0  0  0  0  0  0
   -4.6510   -1.7230   -0.7540 C   0  0  0  0  0  0  0  0  0  0  0  0
   -3.7690   -0.8800   -1.3670 C   0  0  0  0  0  0  0  0  0  0  0  0
   -3.3670    0.3940   -0.7580 C   0  0  2  0  0  0  0  0  0  0  0  0
   -1.8750    0.5370   -0.7270 C   0  0  0  0  0  0  0  0  0  0  0  0
   -1.0820   -0.5430   -0.3530 C   0  0  0  0  0  0  0  0  0  0  0  0
    0.2970   -0.4400   -0.3220 C   0  0  0  0  0  0  0  0  0  0  0  0
    0.9360    0.7540   -0.6650 C   0  0  0  0  0  0  0  0  0  0  0  0
    2.3540    0.8550   -0.6490 N   0  0  0  0  0  0  0  0  0  0  0  0
    2.9840    1.1360    0.5410 N   0  0  0  0  0  0  0  0  0  0  0  0
    4.4220    0.8560    0.4750 C   0  0  1  0  0  0  0  0  0  0  0  0
    4.6490   -0.6310    0.2970 C   0  0  0  0  0  0  0  0  0  0  0  0
    5.8570   -1.0310    1.0690 C   0  0  0  0  0  0  0  0  0  0  0  0
    6.9070   -1.7340    0.2520 C   0  0  0  0  0  0  0  0  0  0  0  0
    7.2100   -1.1000   -1.0600 C   0  0  0  0  0  0  0  0  0  0  0  0
    7.2060    0.4140   -0.9660 C   0  0  0  0  0  0  0  0  0  0  0  0
    5.9250    0.9890   -1.5510 C   0  0  0  0  0  0  0  0  0  0  0  0
    5.1130    1.7140   -0.5290 C   0  0  0  0  0  0  0  0  0  0  0  0
    0.1400    1.7780   -1.0200 N   0  0  0  0  0  0  0  0  0  0  0  0
   -1.2120    1.6960   -1.0570 C   0  0  0  0  0  0  0  0  0  0  0  0
   -3.9770    0.6450    0.5290 N   0  0  0  0  0  0  0  0  0  0  0  0
   -3.6640    1.8590    1.2400 C   0  0  0  0  0  0  0  0  0  0  0  0
   -4.1660    2.1860    2.4020 C   0  0  0  0  0  0  0  0  0  0  0  0
   -3.7920    3.4650    3.0780 C   0  0  0  0  0  0  0  0  0  0  0  0
   -5.2600    4.4460    3.3090 Cl  0  0  0  0  0  0  0  0  0  0  0  0
   -5.1370    1.3410    3.1380 C   0  0  0  0  0  0  0  0  0  0  0  0
   -5.4520    0.1130    2.4370 N   0  0  0  0  0  0  0  0  0  0  0  0
   -4.8990   -0.2430    1.1580 C   0  0  0  0  0  0  0  0  0  0  0  0
   -5.2300   -1.3730    0.5640 C   0  0  0  0  0  0  0  0  0  0  0  0
   -6.1670   -2.3470    1.1420 C   0  0  0  0  0  0  0  0  0  0  0  0
   -7.2360   -2.4710    0.2300 O   0  0  0  0  0  0  0  0  0  0  0  0
  1  2  1  0
  2  3  2  0
  2  7  1  0
  3  4  1  0
  4  5  2  0
  5  6  1  0
  6  7  2  0
  6 33  1  0
  7  8  1  0
  8  9  1  1
  8 25  1  0
  9 10  2  0
  9 24  1  0
 10 11  1  0
 11 12  2  0
 12 13  1  0
 12 23  1  0
 13 14  1  0
 15 14  1  6
 15 16  1  0
 15 22  1  0
 16 17  1  0
 17 18  1  0
 18 19  1  0
 19 20  1  0
 20 21  1  0
 21 22  1  0
 23 24  2  0
 25 26  1  0
 25 32  1  0
 26 27  2  0
 27 28  1  0
 27 30  1  0
 28 29  1  0
 30 31  1  0
 31 32  1  0
 32 33  2  0
 33 34  1  0
 34 35  1  0
M  CHG  1  14   1
M  END
