
     RDKit          3D

 16 16  0  0  0  0  0  0  0  0999 V2000
    3.2390   -2.4390   -0.8680 C   0  0  0  0  0  0  0  0  0  0  0  0
    3.2000   -1.0170   -1.3340 C   0  0  0  0  0  0  0  0  0  0  0  0
    1.7730   -0.4440   -1.2560 C   0  0  0  0  0  0  0  0  0  0  0  0
    1.3640   -0.5250    0.1620 C   0  0  0  0  0  0  0  0  0  0  0  0
   -0.0240    0.0310    0.4740 C   0  0  2  0  0  0  0  0  0  0  0  0
   -0.1840   -0.2360    1.9790 C   0  0  0  0  0  0  0  0  0  0  0  0
   -0.1010   -1.5570    2.3160 O   0  0  0  0  0  0  0  0  0  0  0  0
   -0.9980   -0.6260   -0.3810 C   0  0  0  0  0  0  0  0  0  0  0  0
   -2.4400   -0.3040   -0.3140 C   0  0  2  0  0  0  0  0  0  0  0  0
   -3.1310   -0.5290    0.9850 C   0  0  0  0  0  0  0  0  0  0  0  0
   -3.1660   -1.2680   -1.3090 C   0  0  0  0  0  0  0  0  0  0  0  0
    0.0200    1.5380    0.4260 C   0  0  0  0  0  0  0  0  0  0  0  0
    1.1310    2.2470    0.2090 C   0  0  0  0  0  0  0  0  0  0  0  0
    0.8250    3.6920    0.2250 C   0  0  0  0  0  0  0  0  0  0  0  0
   -0.6160    3.7290    0.5020 C   0  0  0  0  0  0  0  0  0  0  0  0
   -1.0660    2.4890    0.6120 C   0  0  0  0  0  0  0  0  0  0  0  0
  1  2  1  0
  2  3  1  0
  3  4  1  0
  5  4  1  6
  5  6  1  0
  5  8  1  0
  5 12  1  0
  6  7  1  0
  8  9  1  0
  9 10  1  1
  9 11  1  0
 12 13  2  0
 12 16  1  0
 13 14  1  0
 14 15  1  0
 15 16  2  0
M  END
