
     RDKit          3D

 16 16  0  0  0  0  0  0  0  0999 V2000
    3.3400    1.7730    1.4600 C   0  0  0  0  0  0  0  0  0  0  0  0
    4.2270    0.9280    0.5720 C   0  0  0  0  0  0  0  0  0  0  0  0
    3.4160    0.1470   -0.4530 C   0  0  0  0  0  0  0  0  0  0  0  0
    2.6330    1.0550   -1.3470 C   0  0  0  0  0  0  0  0  0  0  0  0
    1.9070    0.3910   -2.2940 O   0  0  0  0  0  0  0  0  0  0  0  0
    0.9850   -0.5260   -1.8170 C   0  0  0  0  0  0  0  0  0  0  0  0
    0.0080    0.1230   -0.9380 C   0  0  0  0  0  0  0  0  0  0  0  0
   -1.0850   -0.6990   -0.3800 C   0  0  0  0  0  0  0  0  0  0  0  0
   -1.4080   -1.9420   -0.6030 C   0  0  0  0  0  0  0  0  0  0  0  0
   -0.7730   -2.9470   -1.5050 C   0  0  0  0  0  0  0  0  0  0  0  0
   -2.5910   -2.2670    0.2240 C   0  0  0  0  0  0  0  0  0  0  0  0
   -2.8970   -1.0330    0.9520 C   0  0  0  0  0  0  0  0  0  0  0  0
   -4.0370   -0.8430    1.9450 C   0  0  0  0  0  0  0  0  0  0  0  0
   -2.0260   -0.1190    0.6050 C   0  0  0  0  0  0  0  0  0  0  0  0
   -2.0230    1.2740    1.1500 C   0  0  0  0  0  0  0  0  0  0  0  0
   -2.2060    2.3290    0.1090 C   0  0  0  0  0  0  0  0  0  0  0  0
  1  2  1  0
  2  3  1  0
  3  4  1  0
  4  5  1  0
  5  6  1  0
  6  7  1  0
  7  8  1  0
  8  9  2  0
  8 14  1  0
  9 10  1  0
  9 11  1  0
 11 12  1  0
 12 13  1  0
 12 14  2  0
 14 15  1  0
 15 16  1  0
M  END
