
     RDKit          3D

 12 12  0  0  0  0  0  0  0  0999 V2000
    3.1650    0.1880   -0.7240 C   0  0  0  0  0  0  0  0  0  0  0  0
    1.9420    0.1610    0.1260 C   0  0  2  0  0  0  0  0  0  0  0  0
    2.0470   -0.9080    1.0120 O   0  0  0  0  0  0  0  0  0  0  0  0
    0.6770    0.0770   -0.7070 C   0  0  0  0  0  0  0  0  0  0  0  0
   -0.5540    0.0510    0.1630 C   0  0  2  0  0  0  0  0  0  0  0  0
   -0.6360    1.3080    1.0100 C   0  0  0  0  0  0  0  0  0  0  0  0
   -0.5850    2.4540    0.2580 O   0  0  0  0  0  0  0  0  0  0  0  0
   -0.6080   -1.1350    0.9470 N   0  0  0  0  0  0  0  0  0  0  0  0
   -1.8640   -1.5960    0.9730 O   0  0  0  0  0  0  0  0  0  0  0  0
   -2.4520   -1.2830   -0.2450 C   0  0  0  0  0  0  0  0  0  0  0  0
   -1.7690   -0.0220   -0.7250 C   0  0  1  0  0  0  0  0  0  0  0  0
   -2.6710    1.0290   -0.4720 O   0  0  0  0  0  0  0  0  0  0  0  0
  2  1  1  6
  2  3  1  0
  2  4  1  0
  5  4  1  6
  5  6  1  0
  5  8  1  0
  5 11  1  0
  6  7  1  0
  8  9  1  0
  9 10  1  0
 10 11  1  0
 11 12  1  1
M  CHG  1   8   1
M  END
