
     RDKit          3D

 12 12  0  0  0  0  0  0  0  0999 V2000
    3.1340    0.4050   -0.1260 N   0  0  0  0  0  0  0  0  0  0  0  0
    2.4560   -0.8110    0.2000 C   0  0  0  0  0  0  0  0  0  0  0  0
    1.1960   -0.6530    0.7150 O   0  0  0  0  0  0  0  0  0  0  0  0
    0.3010   -0.0110   -0.0950 C   0  0  2  0  0  0  0  0  0  0  0  0
   -0.1470    1.2940    0.5310 C   0  0  0  0  0  0  0  0  0  0  0  0
   -1.3370    1.7800   -0.2880 C   0  0  2  0  0  0  0  0  0  0  0  0
   -1.6820    3.0850    0.0410 O   0  0  0  0  0  0  0  0  0  0  0  0
   -2.5030    0.8530   -0.0780 C   0  0  0  0  0  0  0  0  0  0  0  0
   -2.0380   -0.3870    0.3640 O   0  0  0  0  0  0  0  0  0  0  0  0
   -0.9410   -0.8130   -0.3870 C   0  0  2  0  0  0  0  0  0  0  0  0
   -0.7560   -2.2860   -0.1250 C   0  0  0  0  0  0  0  0  0  0  0  0
   -1.9540   -2.9140   -0.5370 O   0  0  0  0  0  0  0  0  0  0  0  0
  1  2  1  0
  2  3  1  0
  4  3  1  1
  4  5  1  0
  4 10  1  0
  5  6  1  0
  6  7  1  1
  6  8  1  0
  8  9  1  0
  9 10  1  0
 10 11  1  1
 11 12  1  0
M  CHG  1   1   1
M  END
