
     RDKit          3D

 25 26  0  0  0  0  0  0  0  0999 V2000
    0.1990    2.5640   -0.2300 C   0  0  0  0  0  0  0  0  0  0  0  0
    0.9470    1.2910   -0.0340 C   0  0  0  0  0  0  0  0  0  0  0  0
    2.1720    1.0860    0.4600 C   0  0  0  0  0  0  0  0  0  0  0  0
    2.3530   -0.2870    0.5230 C   0  0  0  0  0  0  0  0  0  0  0  0
    3.6480   -1.0030    0.8800 C   0  0  0  0  0  0  0  0  0  0  0  0
    4.3410   -1.0730   -0.4510 C   0  0  0  0  0  0  0  0  0  0  0  0
    5.6890   -1.5840   -0.5710 C   0  0  0  0  0  0  0  0  0  0  0  0
    6.6250   -0.7650    0.2730 C   0  0  0  0  0  0  0  0  0  0  0  0
    6.5020   -0.6870    1.5030 O   0  0  0  0  0  0  0  0  0  0  0  0
    7.6650   -0.0690   -0.4290 N   0  0  0  0  0  0  0  0  0  0  0  0
    8.6130    0.7130    0.2910 C   0  0  0  0  0  0  0  0  0  0  0  0
    9.5660   -0.1920    0.9340 N   0  0  0  0  0  0  0  0  0  0  0  0
    1.2330   -0.8990    0.0700 N   0  0  0  0  0  0  0  0  0  0  0  0
    0.3570    0.0490   -0.2840 C   0  0  0  0  0  0  0  0  0  0  0  0
   -0.9010   -0.0940   -1.0720 C   0  0  0  0  0  0  0  0  0  0  0  0
   -1.9860   -0.3430   -0.1840 N   0  0  0  0  0  0  0  0  0  0  0  0
   -3.3190   -0.5960   -0.6320 C   0  0  0  0  0  0  0  0  0  0  0  0
   -3.5700   -0.7820   -1.8190 O   0  0  0  0  0  0  0  0  0  0  0  0
   -4.3640   -0.6060    0.3550 N   0  0  0  0  0  0  0  0  0  0  0  0
   -5.7440   -0.8740    0.1340 C   0  0  1  0  0  0  0  0  0  0  0  0
   -6.4530   -0.8620    1.4440 C   0  0  0  0  0  0  0  0  0  0  0  0
   -6.3240    0.6010    1.8430 C   0  0  0  0  0  0  0  0  0  0  0  0
   -6.2380    1.3910    0.5820 C   0  0  0  0  0  0  0  0  0  0  0  0
   -6.3590    0.3810   -0.5320 C   0  0  2  0  0  0  0  0  0  0  0  0
   -7.8640    0.1550   -0.7110 C   0  0  0  0  0  0  0  0  0  0  0  0
  1  2  1  0
  2  3  1  0
  2 14  2  0
  3  4  2  0
  4  5  1  0
  4 13  1  0
  5  6  1  0
  6  7  1  0
  7  8  1  0
  8  9  2  0
  8 10  1  0
 10 11  1  0
 11 12  1  0
 13 14  1  0
 14 15  1  0
 15 16  1  0
 16 17  1  0
 17 18  2  0
 17 19  1  0
 20 19  1  1
 20 21  1  0
 20 24  1  0
 21 22  1  0
 22 23  1  0
 23 24  1  0
 24 25  1  1
M  END
