
     RDKit          3D

 25 26  0  0  0  0  0  0  0  0999 V2000
   -3.0110    3.7040    2.7920 C   0  0  0  0  0  0  0  0  0  0  0  0
   -2.1450    2.5390    2.3380 C   0  0  0  0  0  0  0  0  0  0  0  0
   -2.5650    1.7980    1.3620 C   0  0  0  0  0  0  0  0  0  0  0  0
   -1.9210    0.6450    0.7630 C   0  0  0  0  0  0  0  0  0  0  0  0
   -2.5220    0.0030   -0.2580 C   0  0  0  0  0  0  0  0  0  0  0  0
   -3.8320    0.5510   -0.7140 C   0  0  0  0  0  0  0  0  0  0  0  0
   -4.3070   -0.0020   -2.0130 C   0  0  0  0  0  0  0  0  0  0  0  0
   -3.7630   -1.3160   -2.4320 C   0  0  0  0  0  0  0  0  0  0  0  0
   -2.2470   -1.3070   -2.3230 C   0  0  0  0  0  0  0  0  0  0  0  0
   -1.9570   -1.2170   -0.8350 C   0  0  2  0  0  0  0  0  0  0  0  0
   -2.7330   -2.4200   -0.2290 C   0  0  0  0  0  0  0  0  0  0  0  0
   -0.5910   -1.4440   -0.5160 N   0  0  0  0  0  0  0  0  0  0  0  0
    0.0560   -0.8070    0.5530 C   0  0  0  0  0  0  0  0  0  0  0  0
    1.3490   -1.1820    1.0090 N   0  0  0  0  0  0  0  0  0  0  0  0
    2.4250   -0.5360    0.7150 C   0  0  0  0  0  0  0  0  0  0  0  0
    2.2960    0.5830   -0.0910 O   0  0  0  0  0  0  0  0  0  0  0  0
    3.7240   -0.9850    1.2240 C   0  0  0  0  0  0  0  0  0  0  0  0
    4.6910   -1.3200    0.2340 N   0  0  0  0  0  0  0  0  0  0  0  0
    5.1880   -0.2270   -0.5440 C   0  0  1  0  0  0  0  0  0  0  0  0
    5.8800    0.7160    0.3480 C   0  0  0  0  0  0  0  0  0  0  0  0
    6.4150    1.4770    1.0480 N   0  0  0  0  0  0  0  0  0  0  0  0
    6.2620   -0.7750   -1.4710 C   0  0  0  0  0  0  0  0  0  0  0  0
    6.8040    0.2300   -2.2720 O   0  0  0  0  0  0  0  0  0  0  0  0
   -0.5930    0.2060    1.1670 C   0  0  0  0  0  0  0  0  0  0  0  0
    0.1230    0.8120    2.2430 N   0  0  0  0  0  0  0  0  0  0  0  0
  1  2  1  0
  2  3  2  3
  3  4  1  0
  4  5  2  0
  4 24  1  0
  5  6  1  0
  5 10  1  0
  6  7  1  0
  7  8  1  0
  8  9  1  0
  9 10  1  0
 10 11  1  1
 10 12  1  0
 12 13  1  0
 13 14  1  0
 13 24  2  0
 14 15  2  3
 15 16  1  0
 15 17  1  0
 17 18  1  0
 18 19  1  0
 19 20  1  1
 19 22  1  0
 20 21  3  0
 22 23  1  0
 24 25  1  0
M  END
