
     RDKit          3D

 11 11  0  0  0  0  0  0  0  0999 V2000
    2.6440   -1.3470    0.3840 O   0  0  0  0  0  0  0  0  0  0  0  0
    2.7650   -0.1100   -0.1910 C   0  0  0  0  0  0  0  0  0  0  0  0
    1.6810    0.3100   -1.1060 C   0  0  0  0  0  0  0  0  0  0  0  0
    0.3170    0.4120   -0.5990 C   0  0  1  0  0  0  0  0  0  0  0  0
   -0.2430   -0.7950   -0.0760 N   0  0  0  0  0  0  0  0  0  0  0  0
   -1.5250   -0.3840    0.4730 C   0  0  2  0  0  0  0  0  0  0  0  0
   -2.5790   -0.6610   -0.5630 C   0  0  0  0  0  0  0  0  0  0  0  0
   -2.5850   -2.0150   -0.8480 O   0  0  0  0  0  0  0  0  0  0  0  0
   -1.4100    1.0740    0.8170 C   0  0  0  0  0  0  0  0  0  0  0  0
    0.0510    1.4130    0.4780 C   0  0  1  0  0  0  0  0  0  0  0  0
    0.7700    1.2240    1.6280 O   0  0  0  0  0  0  0  0  0  0  0  0
  1  2  1  0
  2  3  1  0
  4  3  1  1
  4  5  1  0
  4 10  1  0
  5  6  1  0
  6  7  1  6
  6  9  1  0
  7  8  1  0
  9 10  1  0
 10 11  1  1
M  CHG  1   5   1
M  END
