
     RDKit          3D

 20 20  0  0  0  0  0  0  0  0999 V2000
    0.1710    0.6230   -1.0030 O   0  0  0  0  0  0  0  0  0  0  0  0
    0.3090   -0.6410   -0.8290 C   0  0  0  0  0  0  0  0  0  0  0  0
   -0.7850   -1.5060   -1.1020 N   0  0  0  0  0  0  0  0  0  0  0  0
   -2.0430   -0.9940   -1.5700 C   0  0  0  0  0  0  0  0  0  0  0  0
   -2.6210   -0.0620   -0.6100 C   0  0  0  0  0  0  0  0  0  0  0  0
   -3.8250    0.6500   -0.6830 C   0  0  0  0  0  0  0  0  0  0  0  0
   -4.1640    1.4530    0.3120 C   0  0  0  0  0  0  0  0  0  0  0  0
   -3.2660    1.5430    1.4130 C   0  0  0  0  0  0  0  0  0  0  0  0
   -3.4090    2.3120    2.5580 F   0  0  0  0  0  0  0  0  0  0  0  0
   -1.9560    0.4490    0.9540 S   0  0  0  0  0  0  0  0  0  0  0  0
    1.5970   -1.0980   -0.3570 C   0  0  0  0  0  0  0  0  0  0  0  0
    1.8840   -2.3620   -0.1340 C   0  0  0  0  0  0  0  0  0  0  0  0
    3.1660   -2.7080    0.3240 O   0  0  0  0  0  0  0  0  0  0  0  0
    2.6100   -0.1330   -0.1210 N   0  0  0  0  0  0  0  0  0  0  0  0
    2.4480    0.9160    0.8180 C   0  0  0  0  0  0  0  0  0  0  0  0
    1.3730    0.9860    1.4570 O   0  0  0  0  0  0  0  0  0  0  0  0
    3.5710    1.8780    0.9920 C   0  0  2  0  0  0  0  0  0  0  0  0
    3.7880    2.4810   -0.2300 F   0  0  0  0  0  0  0  0  0  0  0  0
    4.7020    1.1850    1.4150 F   0  0  0  0  0  0  0  0  0  0  0  0
    3.2280    2.8200    1.9660 F   0  0  0  0  0  0  0  0  0  0  0  0
  1  2  2  0
  2  3  1  0
  2 11  1  0
  3  4  1  0
  4  5  1  0
  5  6  2  0
  5 10  1  0
  6  7  1  0
  7  8  2  0
  8  9  1  0
  8 10  1  0
 11 12  2  3
 11 14  1  0
 12 13  1  0
 14 15  1  0
 15 16  2  0
 15 17  1  0
 17 18  1  6
 17 19  1  0
 17 20  1  0
M  END
