
     RDKit          3D

 21 21  0  0  0  0  0  0  0  0999 V2000
   -3.6490    1.9240    0.1360 N   0  0  0  0  0  0  0  0  0  0  0  0
   -3.5180    0.4810    0.1160 C   0  0  1  0  0  0  0  0  0  0  0  0
   -2.4400    0.1020   -0.7990 C   0  0  0  0  0  0  0  0  0  0  0  0
   -1.7780    1.0250   -1.3560 O   0  0  0  0  0  0  0  0  0  0  0  0
   -2.1410   -1.2670   -1.0570 N   0  0  0  0  0  0  0  0  0  0  0  0
   -1.0750   -1.5870   -1.9590 C   0  0  0  0  0  0  0  0  0  0  0  0
    0.2080   -1.0180   -1.4280 C   0  0  0  0  0  0  0  0  0  0  0  0
    0.9400    0.0730   -1.8490 C   0  0  0  0  0  0  0  0  0  0  0  0
    2.0630    0.3420   -1.1640 C   0  0  0  0  0  0  0  0  0  0  0  0
    2.4530   -0.3990   -0.1340 C   0  0  0  0  0  0  0  0  0  0  0  0
    3.5790   -0.3480    0.7620 C   0  0  0  0  0  0  0  0  0  0  0  0
    3.6970   -1.1960    1.6640 O   0  0  0  0  0  0  0  0  0  0  0  0
    4.5230    0.6360    0.6180 O   0  0  0  0  0  0  0  0  0  0  0  0
    5.6570    0.7740    1.4390 C   0  0  1  0  0  0  0  0  0  0  0  0
    5.2090    0.9560    2.7320 F   0  0  0  0  0  0  0  0  0  0  0  0
    6.3730   -0.4200    1.3350 F   0  0  0  0  0  0  0  0  0  0  0  0
    6.3960    1.8370    0.9790 F   0  0  0  0  0  0  0  0  0  0  0  0
    1.1440   -1.6560   -0.0390 S   0  0  0  0  0  0  0  0  0  0  0  0
   -3.3260   -0.0720    1.5120 C   0  0  1  0  0  0  0  0  0  0  0  0
   -4.4220    0.2580    2.3210 F   0  0  0  0  0  0  0  0  0  0  0  0
   -3.2900   -1.4500    1.5080 F   0  0  0  0  0  0  0  0  0  0  0  0
  2  1  1  1
  2  3  1  0
  2 19  1  0
  3  4  2  0
  3  5  1  0
  5  6  1  0
  6  7  1  0
  7  8  2  0
  7 18  1  0
  8  9  1  0
  9 10  2  0
 10 11  1  0
 10 18  1  0
 11 12  2  0
 11 13  1  0
 13 14  1  0
 14 15  1  1
 14 16  1  0
 14 17  1  0
 19 20  1  1
 19 21  1  0
M  END
