
     RDKit          3D

 21 21  0  0  0  0  0  0  0  0999 V2000
   -5.3940    2.2350    1.0550 C   0  0  0  0  0  0  0  0  0  0  0  0
   -4.0420    1.8620    0.9210 O   0  0  0  0  0  0  0  0  0  0  0  0
   -3.7090    0.7010    0.2660 C   0  0  0  0  0  0  0  0  0  0  0  0
   -4.5720   -0.0330   -0.2130 O   0  0  0  0  0  0  0  0  0  0  0  0
   -2.2710    0.3290    0.1380 C   0  0  0  0  0  0  0  0  0  0  0  0
   -0.9490    1.3420    0.8070 S   0  0  0  0  0  0  0  0  0  0  0  0
    0.3740    0.2960    0.2810 C   0  0  0  0  0  0  0  0  0  0  0  0
    1.7680    0.6560    0.5760 C   0  0  0  0  0  0  0  0  0  0  0  0
    1.9620    1.7870    1.2020 O   0  0  0  0  0  0  0  0  0  0  0  0
    2.9500   -0.0170    0.2980 N   0  0  0  0  0  0  0  0  0  0  0  0
    4.2550    0.5670    0.7020 C   0  0  0  0  0  0  0  0  0  0  0  0
    5.3220   -0.3890    0.2640 C   0  0  2  0  0  0  0  0  0  0  0  0
    6.5400    0.1030    0.6130 F   0  0  0  0  0  0  0  0  0  0  0  0
    5.2200   -0.5170   -1.1150 F   0  0  0  0  0  0  0  0  0  0  0  0
   -0.2600   -0.7340   -0.3570 C   0  0  0  0  0  0  0  0  0  0  0  0
    0.5430   -1.8570   -0.9940 C   0  0  2  0  0  0  0  0  0  0  0  0
    1.3710   -1.4120   -1.9790 F   0  0  0  0  0  0  0  0  0  0  0  0
   -0.3360   -2.7440   -1.6620 F   0  0  0  0  0  0  0  0  0  0  0  0
    1.1150   -2.6240   -0.0200 F   0  0  0  0  0  0  0  0  0  0  0  0
   -1.5960   -0.7050   -0.4220 C   0  0  0  0  0  0  0  0  0  0  0  0
   -2.3960   -1.7420   -1.0690 N   0  0  0  0  0  0  0  0  0  0  0  0
  1  2  1  0
  2  3  1  0
  3  4  2  0
  3  5  1  0
  5  6  1  0
  5 20  2  0
  6  7  1  0
  7  8  1  0
  7 15  2  0
  8  9  2  0
  8 10  1  0
 10 11  1  0
 11 12  1  0
 12 13  1  6
 12 14  1  0
 15 16  1  0
 15 20  1  0
 16 17  1  6
 16 18  1  0
 16 19  1  0
 20 21  1  0
M  END
