
     RDKit          3D

 20 20  0  0  0  0  0  0  0  0999 V2000
   -4.1140   -0.1120    0.5440 C   0  0  0  0  0  0  0  0  0  0  0  0
   -2.8100    0.5960    0.2910 C   0  0  0  0  0  0  0  0  0  0  0  0
   -1.7210   -0.0780   -0.0330 C   0  0  0  0  0  0  0  0  0  0  0  0
   -1.8810   -1.5410   -0.1280 C   0  0  0  0  0  0  0  0  0  0  0  0
   -0.8290   -2.4360   -0.4310 N   0  0  0  0  0  0  0  0  0  0  0  0
   -3.0040   -2.0860    0.0630 O   0  0  0  0  0  0  0  0  0  0  0  0
   -0.4220    0.5580   -0.2180 C   0  0  0  0  0  0  0  0  0  0  0  0
    0.7090   -0.2650   -0.5590 N   0  0  0  0  0  0  0  0  0  0  0  0
    2.0030   -0.0130   -0.0630 C   0  0  0  0  0  0  0  0  0  0  0  0
    2.2250    0.9360    0.7140 O   0  0  0  0  0  0  0  0  0  0  0  0
    3.1470   -0.9200   -0.4870 C   0  0  0  0  0  0  0  0  0  0  0  0
    4.4180   -0.4300    0.1850 C   0  0  2  0  0  0  0  0  0  0  0  0
    4.3110   -0.4570    1.5470 F   0  0  0  0  0  0  0  0  0  0  0  0
    4.6780    0.8650   -0.2190 F   0  0  0  0  0  0  0  0  0  0  0  0
    5.4640   -1.2470   -0.1970 F   0  0  0  0  0  0  0  0  0  0  0  0
   -0.1910    1.8310   -0.0770 C   0  0  0  0  0  0  0  0  0  0  0  0
   -1.0880    2.9330    0.2880 C   0  0  1  0  0  0  0  0  0  0  0  0
   -0.6090    3.4410    1.4930 F   0  0  0  0  0  0  0  0  0  0  0  0
   -0.9610    4.0030   -0.6190 F   0  0  0  0  0  0  0  0  0  0  0  0
   -2.7770    2.3730    0.4050 S   0  0  0  0  0  0  0  0  0  0  0  0
  1  2  1  0
  2  3  2  0
  2 20  1  0
  3  4  1  0
  3  7  1  0
  4  5  1  0
  4  6  2  0
  7  8  1  0
  7 16  2  0
  8  9  1  0
  9 10  2  0
  9 11  1  0
 11 12  1  0
 12 13  1  1
 12 14  1  0
 12 15  1  0
 16 17  1  0
 17 18  1  1
 17 19  1  0
 17 20  1  0
M  END
