
     RDKit          3D

 20 20  0  0  0  0  0  0  0  0999 V2000
    5.6030    1.0760   -1.9960 O   0  0  0  0  0  0  0  0  0  0  0  0
    5.5790    0.4960   -0.9030 C   0  0  0  0  0  0  0  0  0  0  0  0
    5.8560   -0.8200   -0.8740 F   0  0  0  0  0  0  0  0  0  0  0  0
    5.2470    1.2540    0.3400 C   0  0  0  0  0  0  0  0  0  0  0  0
    3.5320    1.8170    0.1820 S   0  0  0  0  0  0  0  0  0  0  0  0
    2.4810    0.3760    0.1750 C   0  0  0  0  0  0  0  0  0  0  0  0
    2.9400   -0.7970    0.2990 O   0  0  0  0  0  0  0  0  0  0  0  0
    1.0560    0.5560    0.0190 N   0  0  0  0  0  0  0  0  0  0  0  0
    0.1970   -0.5490   -0.0110 C   0  0  0  0  0  0  0  0  0  0  0  0
    0.7070   -1.6950    0.1210 O   0  0  0  0  0  0  0  0  0  0  0  0
   -1.2810   -0.5120   -0.1870 C   0  0  2  0  0  0  0  0  0  0  0  0
   -1.4620   -1.3170   -1.4880 C   0  0  1  0  0  0  0  0  0  0  0  0
   -0.9150   -2.5760   -1.1750 F   0  0  0  0  0  0  0  0  0  0  0  0
   -2.7560   -1.5570   -1.8010 F   0  0  0  0  0  0  0  0  0  0  0  0
   -0.6890   -0.7680   -2.4600 F   0  0  0  0  0  0  0  0  0  0  0  0
   -1.7570    0.8770   -0.4770 C   0  0  0  0  0  0  0  0  0  0  0  0
   -3.2790    0.9410   -0.3560 C   0  0  0  0  0  0  0  0  0  0  0  0
   -3.5760    0.6780    1.0110 N   0  0  0  0  0  0  0  0  0  0  0  0
   -3.1560   -0.5730    1.5210 C   0  0  0  0  0  0  0  0  0  0  0  0
   -1.9300   -1.1720    0.9670 C   0  0  0  0  0  0  0  0  0  0  0  0
  1  2  2  0
  2  3  1  0
  2  4  1  0
  4  5  1  0
  5  6  1  0
  6  7  2  0
  6  8  1  0
  8  9  1  0
  9 10  2  0
 11  9  1  1
 11 12  1  0
 11 16  1  0
 11 20  1  0
 12 13  1  1
 12 14  1  0
 12 15  1  0
 16 17  1  0
 17 18  1  0
 18 19  1  0
 19 20  1  0
M  END
