
     RDKit          3D

 20 21  0  0  0  0  0  0  0  0999 V2000
   -6.1580    1.1320    0.8080 N   0  0  0  0  0  0  0  0  0  0  0  0
   -6.1050   -0.2540    0.5470 C   0  0  0  0  0  0  0  0  0  0  0  0
   -6.9940   -1.0250    0.9910 O   0  0  0  0  0  0  0  0  0  0  0  0
   -4.9630   -0.7610   -0.2720 C   0  0  0  0  0  0  0  0  0  0  0  0
   -3.6460   -1.2640    0.8550 S   0  0  0  0  0  0  0  0  0  0  0  0
   -2.0570   -0.7210    0.3040 C   0  0  0  0  0  0  0  0  0  0  0  0
   -1.8510    0.0480   -0.8300 C   0  0  0  0  0  0  0  0  0  0  0  0
   -0.5810    0.3820   -1.2340 C   0  0  0  0  0  0  0  0  0  0  0  0
    0.5210   -0.0350   -0.5290 C   0  0  0  0  0  0  0  0  0  0  0  0
    1.7790    0.3060   -0.9410 O   0  0  0  0  0  0  0  0  0  0  0  0
    3.0030    0.0230   -0.4430 C   0  0  0  0  0  0  0  0  0  0  0  0
    3.5180   -1.1950   -0.3720 C   0  0  0  0  0  0  0  0  0  0  0  0
    4.8320   -1.4770    0.1610 C   0  0  0  0  0  0  0  0  0  0  0  0
    5.5650   -0.4630    0.6050 C   0  0  0  0  0  0  0  0  0  0  0  0
    5.0890    0.8840    0.5680 N   0  0  0  0  0  0  0  0  0  0  0  0
    3.8020    1.1660    0.0460 C   0  0  0  0  0  0  0  0  0  0  0  0
    3.3310    2.4000   -0.0030 C   0  0  0  0  0  0  0  0  0  0  0  0
    4.0500    3.4320    0.4390 F   0  0  0  0  0  0  0  0  0  0  0  0
    0.3500   -0.7970    0.5970 C   0  0  0  0  0  0  0  0  0  0  0  0
   -0.9480   -1.1270    0.9930 C   0  0  0  0  0  0  0  0  0  0  0  0
  1  2  1  0
  2  3  2  0
  2  4  1  0
  4  5  1  0
  5  6  1  0
  6  7  2  0
  6 20  1  0
  7  8  1  0
  8  9  2  0
  9 10  1  0
  9 19  1  0
 10 11  1  0
 11 12  2  0
 11 16  1  0
 12 13  1  0
 13 14  2  0
 14 15  1  0
 15 16  1  0
 16 17  2  3
 17 18  1  0
 19 20  2  0
M  END
