
     RDKit          3D

 20 21  0  0  0  0  0  0  0  0999 V2000
    7.8720    1.0180    0.8600 N   0  0  0  0  0  0  0  0  0  0  0  0
    6.4920    0.8420    1.0830 C   0  0  0  0  0  0  0  0  0  0  0  0
    6.0780    0.9860    2.2750 O   0  0  0  0  0  0  0  0  0  0  0  0
    5.5800    0.5030   -0.0420 C   0  0  0  0  0  0  0  0  0  0  0  0
    4.1980    0.3840    0.5060 C   0  0  0  0  0  0  0  0  0  0  0  0
    3.1920    0.0450   -0.5330 C   0  0  0  0  0  0  0  0  0  0  0  0
    3.6120   -0.0950   -1.7110 O   0  0  0  0  0  0  0  0  0  0  0  0
    1.8270   -0.1150   -0.2300 N   0  0  0  0  0  0  0  0  0  0  0  0
    0.8640   -0.4340   -1.1960 C   0  0  0  0  0  0  0  0  0  0  0  0
    1.2110   -0.5880   -2.3880 O   0  0  0  0  0  0  0  0  0  0  0  0
   -0.5680   -0.5910   -0.8180 C   0  0  0  0  0  0  0  0  0  0  0  0
   -1.1670   -0.4800    0.3530 C   0  0  0  0  0  0  0  0  0  0  0  0
   -2.4980   -0.6710    0.4490 C   0  0  0  0  0  0  0  0  0  0  0  0
   -3.1620   -0.9780   -0.7150 C   0  0  0  0  0  0  0  0  0  0  0  0
   -1.8710   -0.9880   -1.9230 S   0  0  0  0  0  0  0  0  0  0  0  0
   -4.5990   -1.2520   -0.9960 C   0  0  0  0  0  0  0  0  0  0  0  0
   -5.3280    0.0700   -0.8290 C   0  0  0  0  0  0  0  0  0  0  0  0
   -4.7360    0.8550    0.3350 C   0  0  0  0  0  0  0  0  0  0  0  0
   -4.6010    0.0050    1.5720 C   0  0  0  0  0  0  0  0  0  0  0  0
   -3.2410   -0.5550    1.7760 C   0  0  0  0  0  0  0  0  0  0  0  0
  1  2  1  0
  2  3  2  0
  2  4  1  0
  4  5  1  0
  5  6  1  0
  6  7  2  0
  6  8  1  0
  8  9  1  0
  9 10  2  0
  9 11  1  0
 11 12  2  0
 11 15  1  0
 12 13  1  0
 13 14  2  0
 13 20  1  0
 14 15  1  0
 14 16  1  0
 16 17  1  0
 17 18  1  0
 18 19  1  0
 19 20  1  0
M  END
