
     RDKit          3D

 21 22  0  0  0  0  0  0  0  0999 V2000
   -6.2500    0.3700   -0.9480 C   0  0  0  0  0  0  0  0  0  0  0  0
   -5.6770   -0.0990    0.2440 O   0  0  0  0  0  0  0  0  0  0  0  0
   -4.3140   -0.1830    0.4590 C   0  0  0  0  0  0  0  0  0  0  0  0
   -3.4710    0.2090   -0.5330 C   0  0  0  0  0  0  0  0  0  0  0  0
   -2.1160    0.1350   -0.3420 C   0  0  0  0  0  0  0  0  0  0  0  0
   -1.2360    0.5060   -1.2780 N   0  0  0  0  0  0  0  0  0  0  0  0
    0.1200    0.4310   -1.0860 C   0  0  0  0  0  0  0  0  0  0  0  0
    0.8560    0.8000   -2.0260 O   0  0  0  0  0  0  0  0  0  0  0  0
    0.6980   -0.0220    0.0670 C   0  0  0  0  0  0  0  0  0  0  0  0
    2.3690   -0.2060    0.4820 S   0  0  0  0  0  0  0  0  0  0  0  0
    3.6480    0.3430   -0.5200 C   0  0  0  0  0  0  0  0  0  0  0  0
    3.6180    1.1430   -1.7670 C   0  0  0  0  0  0  0  0  0  0  0  0
    4.9000   -0.0180   -0.1090 C   0  0  0  0  0  0  0  0  0  0  0  0
    5.1210   -0.8080    1.0870 C   0  0  0  0  0  0  0  0  0  0  0  0
    6.4220   -1.1820    1.5120 N   0  0  0  0  0  0  0  0  0  0  0  0
    4.1500   -1.1860    1.7890 O   0  0  0  0  0  0  0  0  0  0  0  0
   -0.2490   -0.4110    1.0490 C   0  0  0  0  0  0  0  0  0  0  0  0
   -1.5980   -0.3310    0.8410 C   0  0  0  0  0  0  0  0  0  0  0  0
   -2.4850   -0.7280    1.8440 C   0  0  0  0  0  0  0  0  0  0  0  0
   -3.8390   -0.6530    1.6520 C   0  0  0  0  0  0  0  0  0  0  0  0
   -4.7260   -1.0370    2.6220 F   0  0  0  0  0  0  0  0  0  0  0  0
  1  2  1  0
  2  3  1  0
  3  4  2  0
  3 20  1  0
  4  5  1  0
  5  6  1  0
  5 18  2  0
  6  7  1  0
  7  8  2  0
  7  9  1  0
  9 10  1  0
  9 17  2  0
 10 11  1  0
 11 12  1  0
 11 13  2  3
 13 14  1  0
 14 15  1  0
 14 16  2  0
 17 18  1  0
 18 19  1  0
 19 20  2  0
 20 21  1  0
M  END
