
     RDKit          3D

 21 22  0  0  0  0  0  0  0  0999 V2000
    7.4330   -1.5710   -0.8920 C   0  0  0  0  0  0  0  0  0  0  0  0
    6.7040   -0.9540    0.1490 O   0  0  0  0  0  0  0  0  0  0  0  0
    5.3320   -0.8020   -0.0190 C   0  0  0  0  0  0  0  0  0  0  0  0
    4.8250   -1.2200   -1.0810 O   0  0  0  0  0  0  0  0  0  0  0  0
    4.4660   -0.1760    0.9920 C   0  0  0  0  0  0  0  0  0  0  0  0
    3.1030   -0.1790    0.5010 N   0  0  0  0  0  0  0  0  0  0  0  0
    2.0390    0.3540    1.2450 C   0  0  0  0  0  0  0  0  0  0  0  0
    2.3010    0.8440    2.3710 O   0  0  0  0  0  0  0  0  0  0  0  0
    0.6930    0.3190    0.6920 C   0  0  0  0  0  0  0  0  0  0  0  0
    0.2710   -0.3610   -0.8940 S   0  0  0  0  0  0  0  0  0  0  0  0
   -1.4200   -0.0570   -0.8530 C   0  0  0  0  0  0  0  0  0  0  0  0
   -1.5990    0.5520    0.3680 C   0  0  0  0  0  0  0  0  0  0  0  0
   -0.5230    0.7380    1.1440 C   0  0  0  0  0  0  0  0  0  0  0  0
   -0.5990    1.3700    2.4510 N   0  0  0  0  0  0  0  0  0  0  0  0
   -2.9280    1.0350    0.9170 C   0  0  0  0  0  0  0  0  0  0  0  0
   -3.8810   -0.1290    1.0430 C   0  0  0  0  0  0  0  0  0  0  0  0
   -4.8990   -0.1810   -0.0520 C   0  0  0  0  0  0  0  0  0  0  0  0
   -4.4190   -0.8780   -1.2850 C   0  0  2  0  0  0  0  0  0  0  0  0
   -3.7420   -2.0310   -0.8920 F   0  0  0  0  0  0  0  0  0  0  0  0
   -3.5440   -0.0150   -2.1630 C   0  0  0  0  0  0  0  0  0  0  0  0
   -2.1410   -0.5020   -2.0480 C   0  0  0  0  0  0  0  0  0  0  0  0
  1  2  1  0
  2  3  1  0
  3  4  2  0
  3  5  1  0
  5  6  1  0
  6  7  1  0
  7  8  2  0
  7  9  1  0
  9 10  1  0
  9 13  2  0
 10 11  1  0
 11 12  2  0
 11 21  1  0
 12 13  1  0
 12 15  1  0
 13 14  1  0
 15 16  1  0
 16 17  1  0
 17 18  1  0
 18 19  1  1
 18 20  1  0
 20 21  1  0
M  END
