
     RDKit          3D

 20 21  0  0  0  0  0  0  0  0999 V2000
    6.6840    1.3670   -0.3050 O   0  0  0  0  0  0  0  0  0  0  0  0
    5.6720    1.1200   -0.9950 C   0  0  0  0  0  0  0  0  0  0  0  0
    4.5170    0.4050   -0.4590 C   0  0  0  0  0  0  0  0  0  0  0  0
    3.3300    0.0480   -1.0650 C   0  0  0  0  0  0  0  0  0  0  0  0
    2.4220   -0.6100   -0.3510 C   0  0  0  0  0  0  0  0  0  0  0  0
    2.7110   -0.9070    0.9690 C   0  0  0  0  0  0  0  0  0  0  0  0
    1.9020   -1.6100    1.9740 C   0  0  0  0  0  0  0  0  0  0  0  0
    0.5820   -1.8000    1.4740 N   0  0  0  0  0  0  0  0  0  0  0  0
   -0.2650   -0.6830    1.1210 C   0  0  0  0  0  0  0  0  0  0  0  0
    0.2060    0.4490    1.2740 O   0  0  0  0  0  0  0  0  0  0  0  0
   -1.5640   -0.8800    0.6280 N   0  0  0  0  0  0  0  0  0  0  0  0
   -2.4770    0.1210    0.2530 C   0  0  0  0  0  0  0  0  0  0  0  0
   -2.2050    1.4650    0.3230 C   0  0  0  0  0  0  0  0  0  0  0  0
   -3.1820    2.3640   -0.0740 C   0  0  0  0  0  0  0  0  0  0  0  0
   -2.8990    3.6990    0.0000 F   0  0  0  0  0  0  0  0  0  0  0  0
   -4.3980    1.9370   -0.5290 C   0  0  0  0  0  0  0  0  0  0  0  0
   -4.6760    0.6070   -0.6020 C   0  0  0  0  0  0  0  0  0  0  0  0
   -3.7230   -0.3130   -0.2130 C   0  0  0  0  0  0  0  0  0  0  0  0
   -4.0750   -1.6280   -0.3150 O   0  0  0  0  0  0  0  0  0  0  0  0
    4.3070   -0.2230    1.1600 S   0  0  0  0  0  0  0  0  0  0  0  0
  1  2  2  0
  2  3  1  0
  3  4  2  0
  3 20  1  0
  4  5  1  0
  5  6  2  0
  6  7  1  0
  6 20  1  0
  7  8  1  0
  8  9  1  0
  9 10  2  0
  9 11  1  0
 11 12  1  0
 12 13  2  0
 12 18  1  0
 13 14  1  0
 14 15  1  0
 14 16  2  0
 16 17  1  0
 17 18  2  0
 18 19  1  0
M  END
