
     RDKit          3D

 24 24  0  0  0  0  0  0  0  0999 V2000
   -6.1030   -1.2490   -0.6660 N   0  0  0  0  0  0  0  0  0  0  0  0
   -5.4980    0.3860   -0.7640 S   0  0  1  0  0  0  0  0  0  0  0  0
   -5.6390    0.8940   -2.1710 O   0  0  0  0  0  0  0  0  0  0  0  0
   -6.2630    1.2050    0.2050 O   0  0  0  0  0  0  0  0  0  0  0  0
   -3.8040    0.3630   -0.3630 C   0  0  0  0  0  0  0  0  0  0  0  0
   -3.4410    0.5270    0.9650 C   0  0  0  0  0  0  0  0  0  0  0  0
   -2.1280    0.5150    1.3170 C   0  0  0  0  0  0  0  0  0  0  0  0
   -1.1400    0.3390    0.3660 C   0  0  0  0  0  0  0  0  0  0  0  0
    0.2400    0.3400    0.8390 C   0  0  0  0  0  0  0  0  0  0  0  0
    0.4940    0.4950    2.0640 O   0  0  0  0  0  0  0  0  0  0  0  0
    1.3740    0.1740    0.0040 N   0  0  0  0  0  0  0  0  0  0  0  0
    2.7360    0.1820    0.5230 C   0  0  0  0  0  0  0  0  0  0  0  0
    3.6630   -0.0200   -0.6450 C   0  0  2  0  0  0  0  0  0  0  0  0
    3.3980    1.0580   -1.5230 F   0  0  0  0  0  0  0  0  0  0  0  0
    3.3370   -1.1710   -1.3570 F   0  0  0  0  0  0  0  0  0  0  0  0
    5.1120    0.0480   -0.3500 C   0  0  1  0  0  0  0  0  0  0  0  0
    5.8680   -0.1480   -1.5010 F   0  0  0  0  0  0  0  0  0  0  0  0
    5.3910    1.3370    0.0890 F   0  0  0  0  0  0  0  0  0  0  0  0
    5.5530   -0.9680    0.6470 C   0  0  1  0  0  0  0  0  0  0  0  0
    6.9370   -0.7970    0.8070 F   0  0  0  0  0  0  0  0  0  0  0  0
    4.9410   -0.8220    1.8980 F   0  0  0  0  0  0  0  0  0  0  0  0
    5.2590   -2.2300    0.1940 F   0  0  0  0  0  0  0  0  0  0  0  0
   -1.4620    0.1720   -0.9660 C   0  0  0  0  0  0  0  0  0  0  0  0
   -2.8100    0.1890   -1.2980 C   0  0  0  0  0  0  0  0  0  0  0  0
  2  1  1  6
  2  3  2  0
  2  4  2  0
  2  5  1  0
  5  6  2  0
  5 24  1  0
  6  7  1  0
  7  8  2  0
  8  9  1  0
  8 23  1  0
  9 10  2  0
  9 11  1  0
 11 12  1  0
 12 13  1  0
 13 14  1  6
 13 15  1  0
 13 16  1  0
 16 17  1  6
 16 18  1  0
 16 19  1  0
 19 20  1  1
 19 21  1  0
 19 22  1  0
 23 24  2  0
M  END
