
     RDKit          3D

 11 11  0  0  0  0  0  0  0  0999 V2000
    2.9820   -0.0080    1.6200 O   0  0  0  0  0  0  0  0  0  0  0  0
    2.6460   -0.7890    0.5180 C   0  0  0  0  0  0  0  0  0  0  0  0
    1.3900   -0.2160   -0.0760 C   0  0  1  0  0  0  0  0  0  0  0  0
    0.9550   -0.9230   -1.1960 O   0  0  0  0  0  0  0  0  0  0  0  0
   -0.2360   -0.2130   -1.4780 C   0  0  0  0  0  0  0  0  0  0  0  0
   -0.7400    0.0480   -0.0750 C   0  0  1  0  0  0  0  0  0  0  0  0
   -0.9680    1.5190    0.0900 C   0  0  0  0  0  0  0  0  0  0  0  0
   -1.3190    1.8980    1.3620 O   0  0  0  0  0  0  0  0  0  0  0  0
   -1.9860   -0.7710    0.1330 C   0  0  0  0  0  0  0  0  0  0  0  0
   -1.7070   -2.1120   -0.1180 O   0  0  0  0  0  0  0  0  0  0  0  0
    0.2900   -0.3490    0.7740 O   0  0  0  0  0  0  0  0  0  0  0  0
  1  2  1  0
  3  2  1  1
  3  4  1  0
  3 11  1  0
  4  5  1  0
  5  6  1  0
  6  7  1  6
  6  9  1  0
  6 11  1  0
  7  8  1  0
  9 10  1  0
M  END
