
     RDKit          3D

 11 11  0  0  0  0  0  0  0  0999 V2000
    3.4620    1.0680   -0.4260 O   0  0  0  0  0  0  0  0  0  0  0  0
    2.8770    0.7730    0.8070 C   0  0  0  0  0  0  0  0  0  0  0  0
    1.4910    0.6670    0.7120 O   0  0  0  0  0  0  0  0  0  0  0  0
    1.2040   -0.3430   -0.1730 C   0  0  0  0  0  0  0  0  0  0  0  0
   -0.2760   -0.5620   -0.3670 C   0  0  1  0  0  0  0  0  0  0  0  0
   -0.4030   -1.6220   -1.2950 O   0  0  0  0  0  0  0  0  0  0  0  0
   -0.9820   -0.9820    0.8900 C   0  0  0  0  0  0  0  0  0  0  0  0
   -2.3980   -0.4650    0.5900 C   0  0  0  0  0  0  0  0  0  0  0  0
   -2.0200    0.8140   -0.1310 C   0  0  2  0  0  0  0  0  0  0  0  0
   -3.0860    1.3300   -0.8610 O   0  0  0  0  0  0  0  0  0  0  0  0
   -0.9230    0.5150   -0.8950 O   0  0  0  0  0  0  0  0  0  0  0  0
  1  2  1  0
  2  3  1  0
  3  4  1  0
  4  5  1  0
  5  6  1  6
  5  7  1  0
  5 11  1  0
  7  8  1  0
  8  9  1  0
  9 10  1  6
  9 11  1  0
M  END
