
     RDKit          3D

 25 26  0  0  0  0  0  0  0  0999 V2000
   -5.8700    1.4450    0.9860 C   0  0  0  0  0  0  0  0  0  0  0  0
   -4.7900    0.9360    0.4770 C   0  0  0  0  0  0  0  0  0  0  0  0
   -4.8750    0.0370   -0.6670 C   0  0  0  0  0  0  0  0  0  0  0  0
   -5.9320   -0.3620   -1.3010 C   0  0  0  0  0  0  0  0  0  0  0  0
   -7.3430   -0.0940   -1.1370 C   0  0  0  0  0  0  0  0  0  0  0  0
   -3.5840   -0.4520   -1.1240 N   0  0  0  0  0  0  0  0  0  0  0  0
   -2.3940   -0.0530   -0.4720 C   0  0  0  0  0  0  0  0  0  0  0  0
   -1.2440   -0.5210   -0.9200 C   0  0  0  0  0  0  0  0  0  0  0  0
   -0.0180   -0.0970   -0.2340 C   0  0  0  0  0  0  0  0  0  0  0  0
    1.1770   -0.5450   -0.6480 C   0  0  0  0  0  0  0  0  0  0  0  0
    1.2960   -1.4260   -1.7440 N   0  0  0  0  0  0  0  0  0  0  0  0
    0.9500   -2.6790   -1.6770 C   0  0  0  0  0  0  0  0  0  0  0  0
    1.0730   -3.5520   -2.7760 N   0  0  0  0  0  0  0  0  0  0  0  0
    2.3080   -0.0980    0.0550 N   0  0  0  0  0  0  0  0  0  0  0  0
    3.0960    0.9740   -0.4790 C   0  0  0  0  0  0  0  0  0  0  0  0
    4.5540    0.5170   -0.4410 C   0  0  0  0  0  0  0  0  0  0  0  0
    4.8720    0.3020    0.9530 N   0  0  0  0  0  0  0  0  0  0  0  0
    6.1850    0.6560    1.4110 C   0  0  0  0  0  0  0  0  0  0  0  0
    7.2020    1.2240    0.5030 C   0  0  0  0  0  0  0  0  0  0  0  0
    6.5130    0.4870    2.6240 O   0  0  0  0  0  0  0  0  0  0  0  0
    3.9410   -0.2440    1.8900 C   0  0  0  0  0  0  0  0  0  0  0  0
    2.6630   -0.7170    1.2960 C   0  0  0  0  0  0  0  0  0  0  0  0
   -2.4230    0.8320    0.6400 N   0  0  0  0  0  0  0  0  0  0  0  0
   -3.5100    1.3120    1.1100 C   0  0  0  0  0  0  0  0  0  0  0  0
   -3.5340    2.1970    2.2240 N   0  0  0  0  0  0  0  0  0  0  0  0
  1  2  2  0
  2  3  1  0
  2 24  1  0
  3  4  2  3
  3  6  1  0
  4  5  1  0
  6  7  1  0
  7  8  2  3
  7 23  1  0
  8  9  1  0
  9 10  2  3
 10 11  1  0
 10 14  1  0
 11 12  2  3
 12 13  1  0
 14 15  1  0
 14 22  1  0
 15 16  1  0
 16 17  1  0
 17 18  1  0
 17 21  1  0
 18 19  1  0
 18 20  2  0
 21 22  1  0
 23 24  2  0
 24 25  1  0
M  END
