
     RDKit          3D

 25 27  0  0  0  0  0  0  0  0999 V2000
    7.4180   -0.7880    0.1430 C   0  0  0  0  0  0  0  0  0  0  0  0
    6.1290   -0.4650    0.1480 C   0  0  0  0  0  0  0  0  0  0  0  0
    5.6870    0.9110    0.3120 C   0  0  0  0  0  0  0  0  0  0  0  0
    4.4200    1.2270    0.3160 C   0  0  0  0  0  0  0  0  0  0  0  0
    4.0470    2.6690    0.4910 C   0  0  0  0  0  0  0  0  0  0  0  0
    3.3410    0.2210    0.1570 C   0  0  0  0  0  0  0  0  0  0  0  0
    1.9970    0.6630    0.1760 N   0  0  0  0  0  0  0  0  0  0  0  0
    0.8470   -0.1590    0.0370 C   0  0  0  0  0  0  0  0  0  0  0  0
    0.9570   -1.3820   -0.1180 O   0  0  0  0  0  0  0  0  0  0  0  0
   -0.4440    0.4310    0.0760 N   0  0  0  0  0  0  0  0  0  0  0  0
   -1.6570   -0.2620   -0.0390 C   0  0  0  0  0  0  0  0  0  0  0  0
   -1.8220   -1.6010   -0.0080 C   0  0  0  0  0  0  0  0  0  0  0  0
   -3.0890   -2.2070   -0.1470 C   0  0  0  0  0  0  0  0  0  0  0  0
   -3.1480   -3.6790   -0.0980 C   0  0  0  0  0  0  0  0  0  0  0  0
   -4.1400   -1.4180   -0.3120 N   0  0  0  0  0  0  0  0  0  0  0  0
   -4.0660   -0.0770   -0.3540 C   0  0  0  0  0  0  0  0  0  0  0  0
   -5.2700    0.7470   -0.5390 C   0  0  0  0  0  0  0  0  0  0  0  0
   -6.4500    0.1300   -0.6660 N   0  0  0  0  0  0  0  0  0  0  0  0
   -7.6070    0.8190   -0.8400 C   0  0  0  0  0  0  0  0  0  0  0  0
   -7.5560    2.1740   -0.8860 N   0  0  0  0  0  0  0  0  0  0  0  0
   -6.3800    2.7890   -0.7590 C   0  0  0  0  0  0  0  0  0  0  0  0
   -5.2380    2.0840   -0.5860 N   0  0  0  0  0  0  0  0  0  0  0  0
   -2.8240    0.4910   -0.2170 C   0  0  0  0  0  0  0  0  0  0  0  0
    3.7320   -1.0250    0.0080 C   0  0  0  0  0  0  0  0  0  0  0  0
    5.1090   -1.4340   -0.0050 N   0  0  0  0  0  0  0  0  0  0  0  0
  1  2  2  0
  2  3  1  0
  2 25  1  0
  3  4  2  0
  4  5  1  0
  4  6  1  0
  6  7  1  0
  6 24  2  0
  7  8  1  0
  8  9  2  0
  8 10  1  0
 10 11  1  0
 11 12  2  0
 11 23  1  0
 12 13  1  0
 13 14  1  0
 13 15  2  0
 15 16  1  0
 16 17  1  0
 16 23  2  0
 17 18  2  0
 17 22  1  0
 18 19  1  0
 19 20  2  0
 20 21  1  0
 21 22  2  0
 24 25  1  0
M  END
