
     RDKit          3D

 24 26  0  0  0  0  0  0  0  0999 V2000
   -4.3440    2.4680   -0.4350 C   0  0  0  0  0  0  0  0  0  0  0  0
   -3.2030    1.5220   -0.4970 C   0  0  0  0  0  0  0  0  0  0  0  0
   -3.4140    0.2560   -0.3160 C   0  0  0  0  0  0  0  0  0  0  0  0
   -4.7190   -0.3380   -0.0460 C   0  0  0  0  0  0  0  0  0  0  0  0
   -5.7450    0.2840   -0.3430 O   0  0  0  0  0  0  0  0  0  0  0  0
   -4.6900   -1.6890    0.5840 C   0  0  0  0  0  0  0  0  0  0  0  0
   -3.8640   -2.5750   -0.2930 C   0  0  0  0  0  0  0  0  0  0  0  0
   -2.4910   -2.0830   -0.5790 C   0  0  0  0  0  0  0  0  0  0  0  0
   -2.3080   -0.6610   -0.3760 N   0  0  0  0  0  0  0  0  0  0  0  0
   -1.0000   -0.1240   -0.2270 C   0  0  0  0  0  0  0  0  0  0  0  0
   -0.4880   -0.1130    0.9940 C   0  0  0  0  0  0  0  0  0  0  0  0
   -1.3280   -0.6420    1.9870 N   0  0  0  0  0  0  0  0  0  0  0  0
    0.7880    0.3480    1.4440 N   0  0  0  0  0  0  0  0  0  0  0  0
    2.0170    0.4510    0.6740 C   0  0  0  0  0  0  0  0  0  0  0  0
    3.2580    0.4030    1.4970 C   0  0  0  0  0  0  0  0  0  0  0  0
    2.0700    0.5810   -0.6230 C   0  0  0  0  0  0  0  0  0  0  0  0
    3.2840    0.6780   -1.3650 C   0  0  0  0  0  0  0  0  0  0  0  0
    4.5970    0.6570   -0.8980 N   0  0  0  0  0  0  0  0  0  0  0  0
    5.3180   -0.4680   -0.7480 C   0  0  0  0  0  0  0  0  0  0  0  0
    6.5790   -0.1450   -0.3370 C   0  0  0  0  0  0  0  0  0  0  0  0
    6.5930    1.2240   -0.2440 C   0  0  0  0  0  0  0  0  0  0  0  0
    5.3900    1.6670   -0.5870 N   0  0  0  0  0  0  0  0  0  0  0  0
    0.8930    0.6560   -1.5670 C   0  0  0  0  0  0  0  0  0  0  0  0
   -0.3370    0.3650   -1.3800 N   0  0  0  0  0  0  0  0  0  0  0  0
  1  2  1  0
  2  3  2  3
  3  4  1  0
  3  9  1  0
  4  5  2  0
  4  6  1  0
  6  7  1  0
  7  8  1  0
  8  9  1  0
  9 10  1  0
 10 11  2  0
 10 24  1  0
 11 12  1  0
 11 13  1  0
 13 14  1  0
 14 15  1  0
 14 16  2  0
 16 17  1  0
 16 23  1  0
 17 18  1  0
 18 19  1  0
 18 22  1  0
 19 20  2  0
 20 21  1  0
 21 22  2  0
 23 24  2  0
M  END
