
     RDKit          3D

 25 27  0  0  0  0  0  0  0  0999 V2000
    8.6390    0.6920   -0.2190 N   0  0  0  0  0  0  0  0  0  0  0  0
    7.2730    0.2700   -0.0050 C   0  0  0  0  0  0  0  0  0  0  0  0
    7.0720   -0.6580    0.8020 O   0  0  0  0  0  0  0  0  0  0  0  0
    6.2170    0.8960   -0.6890 N   0  0  0  0  0  0  0  0  0  0  0  0
    4.8530    0.5990   -0.5920 C   0  0  0  0  0  0  0  0  0  0  0  0
    3.9330    1.4810   -1.1720 C   0  0  0  0  0  0  0  0  0  0  0  0
    2.6040    1.2260   -1.1120 C   0  0  0  0  0  0  0  0  0  0  0  0
    2.0760    0.1000   -0.4890 C   0  0  0  0  0  0  0  0  0  0  0  0
    0.6810   -0.1430   -0.4410 N   0  0  0  0  0  0  0  0  0  0  0  0
   -0.0690    0.6970    0.1870 C   0  0  0  0  0  0  0  0  0  0  0  0
   -1.4570    0.4240    0.2150 N   0  0  0  0  0  0  0  0  0  0  0  0
   -1.8660   -0.7840    0.2370 C   0  0  0  0  0  0  0  0  0  0  0  0
   -0.8980   -1.7730    0.2320 N   0  0  0  0  0  0  0  0  0  0  0  0
   -1.2770   -3.0430    0.2810 C   0  0  0  0  0  0  0  0  0  0  0  0
   -2.6040   -3.4030    0.3370 C   0  0  0  0  0  0  0  0  0  0  0  0
   -3.5580   -2.3860    0.3400 C   0  0  0  0  0  0  0  0  0  0  0  0
   -3.1640   -1.0780    0.2890 N   0  0  0  0  0  0  0  0  0  0  0  0
   -4.1830   -0.0850    0.2440 C   0  0  0  0  0  0  0  0  0  0  0  0
   -4.0100    1.1900   -0.0210 C   0  0  0  0  0  0  0  0  0  0  0  0
   -5.0500    2.1510   -0.0540 N   0  0  0  0  0  0  0  0  0  0  0  0
   -6.3980    1.8100    0.2490 C   0  0  0  0  0  0  0  0  0  0  0  0
   -6.5970    0.3960    0.5460 C   0  0  0  0  0  0  0  0  0  0  0  0
   -5.5880   -0.4550    0.5420 C   0  0  0  0  0  0  0  0  0  0  0  0
    2.9890   -0.7550    0.0730 C   0  0  0  0  0  0  0  0  0  0  0  0
    4.3810   -0.5200    0.0300 C   0  0  0  0  0  0  0  0  0  0  0  0
  1  2  1  0
  2  3  2  0
  2  4  1  0
  4  5  1  0
  5  6  2  0
  5 25  1  0
  6  7  1  0
  7  8  2  0
  8  9  1  0
  8 24  1  0
  9 10  2  3
 10 11  1  0
 11 12  2  3
 12 13  1  0
 12 17  1  0
 13 14  2  0
 14 15  1  0
 15 16  2  0
 16 17  1  0
 17 18  1  0
 18 19  2  0
 18 23  1  0
 19 20  1  0
 20 21  1  0
 21 22  1  0
 22 23  2  0
 24 25  2  0
M  END
