
     RDKit          3D

 25 27  0  0  0  0  0  0  0  0999 V2000
    0.0700   -2.9330   -0.4750 C   0  0  0  0  0  0  0  0  0  0  0  0
    0.3150   -1.5310   -0.3630 N   0  0  0  0  0  0  0  0  0  0  0  0
   -0.6650   -0.5220   -0.1870 C   0  0  0  0  0  0  0  0  0  0  0  0
   -0.2000    0.6600   -0.4510 O   0  0  0  0  0  0  0  0  0  0  0  0
   -2.0250   -0.6410    0.2220 C   0  0  0  0  0  0  0  0  0  0  0  0
   -2.5810   -1.7710    0.6460 C   0  0  0  0  0  0  0  0  0  0  0  0
   -3.9650   -1.9360    1.0720 C   0  0  0  0  0  0  0  0  0  0  0  0
   -4.7770   -0.9260    1.0590 C   0  0  0  0  0  0  0  0  0  0  0  0
   -4.2960    0.3810    0.6120 C   0  0  0  0  0  0  0  0  0  0  0  0
   -5.2250    1.3120    0.7090 C   0  0  0  0  0  0  0  0  0  0  0  0
   -5.2270    2.7300    0.4000 C   0  0  0  0  0  0  0  0  0  0  0  0
   -4.2240    3.3970   -0.1470 C   0  0  0  0  0  0  0  0  0  0  0  0
   -2.9360    2.8800   -0.5520 C   0  0  0  0  0  0  0  0  0  0  0  0
   -2.4030    1.6570   -0.4050 C   0  0  0  0  0  0  0  0  0  0  0  0
   -2.9260    0.4830    0.1980 N   0  0  0  0  0  0  0  0  0  0  0  0
    1.6920   -1.1520   -0.5240 C   0  0  0  0  0  0  0  0  0  0  0  0
    2.3270   -1.4090   -1.6950 C   0  0  0  0  0  0  0  0  0  0  0  0
    3.6410   -1.0410   -1.8110 N   0  0  0  0  0  0  0  0  0  0  0  0
    4.3080   -0.4440   -0.8160 C   0  0  0  0  0  0  0  0  0  0  0  0
    5.6900   -0.0700   -0.9600 N   0  0  0  0  0  0  0  0  0  0  0  0
    6.3650    0.5720    0.1500 C   0  0  0  0  0  0  0  0  0  0  0  0
    5.6940    1.8170    0.4610 N   0  0  0  0  0  0  0  0  0  0  0  0
    3.6590   -0.1980    0.3370 N   0  0  0  0  0  0  0  0  0  0  0  0
    2.3420   -0.5450    0.5070 C   0  0  0  0  0  0  0  0  0  0  0  0
    1.7050   -0.2650    1.7320 N   0  0  0  0  0  0  0  0  0  0  0  0
  1  2  1  0
  2  3  1  0
  2 16  1  0
  3  4  2  0
  3  5  1  0
  5  6  2  0
  5 15  1  0
  6  7  1  0
  7  8  2  0
  8  9  1  0
  9 10  2  0
  9 15  1  0
 10 11  1  0
 11 12  2  0
 12 13  1  0
 13 14  2  0
 14 15  1  0
 16 17  2  0
 16 24  1  0
 17 18  1  0
 18 19  2  0
 19 20  1  0
 19 23  1  0
 20 21  1  0
 21 22  1  0
 23 24  2  0
 24 25  1  0
M  END
