
     RDKit          3D

 20 21  0  0  0  0  0  0  0  0999 V2000
    3.9040    2.4360   -0.6190 C   0  0  0  0  0  0  0  0  0  0  0  0
    2.5250    2.1750   -0.7910 O   0  0  0  0  0  0  0  0  0  0  0  0
    2.2380    0.8950   -0.2240 C   0  0  0  0  0  0  0  0  0  0  0  0
    0.7550    0.6460   -0.4250 C   0  0  0  0  0  0  0  0  0  0  0  0
    0.2580   -0.6730    0.0650 C   0  0  2  0  0  0  0  0  0  0  0  0
   -1.1870   -0.8790   -0.2140 C   0  0  0  0  0  0  0  0  0  0  0  0
   -2.2110    0.0260    0.2700 C   0  0  0  0  0  0  0  0  0  0  0  0
   -3.0810   -0.3070    1.2300 C   0  0  0  0  0  0  0  0  0  0  0  0
   -3.9820    0.8040    1.4820 C   0  0  0  0  0  0  0  0  0  0  0  0
   -3.5950    1.8290    0.5170 C   0  0  0  0  0  0  0  0  0  0  0  0
   -2.5500    1.3540   -0.1800 C   0  0  0  0  0  0  0  0  0  0  0  0
   -2.0250    2.1820   -1.3160 C   0  0  0  0  0  0  0  0  0  0  0  0
   -2.1440    1.3680   -2.4740 O   0  0  0  0  0  0  0  0  0  0  0  0
    0.4830   -0.7880    1.5570 C   0  0  1  0  0  0  0  0  0  0  0  0
   -0.0120   -1.9840    2.0540 O   0  0  0  0  0  0  0  0  0  0  0  0
    1.8170   -0.7370    1.9370 O   0  0  0  0  0  0  0  0  0  0  0  0
    0.9930   -1.7240   -0.7420 C   0  0  2  0  0  0  0  0  0  0  0  0
    0.7190   -1.5420   -2.1250 O   0  0  0  0  0  0  0  0  0  0  0  0
    0.9100   -3.1710   -0.3530 C   0  0  0  0  0  0  0  0  0  0  0  0
    2.2400   -2.3510   -0.4040 C   0  0  0  0  0  0  0  0  0  0  0  0
  1  2  1  0
  2  3  1  0
  3  4  1  0
  5  4  1  6
  5  6  1  0
  5 14  1  0
  5 17  1  0
  6  7  1  0
  7  8  2  0
  7 11  1  0
  8  9  1  0
  9 10  1  0
 10 11  2  0
 11 12  1  0
 12 13  1  0
 14 15  1  6
 14 16  1  0
 17 18  1  6
 17 19  1  0
 17 20  1  0
 19 20  1  0
M  END
