
     RDKit          3D

 20 21  0  0  0  0  0  0  0  0999 V2000
   -2.9110    1.1320   -1.7990 C   0  0  0  0  0  0  0  0  0  0  0  0
   -2.8830    0.0360   -0.7520 C   0  0  2  0  0  0  0  0  0  0  0  0
   -4.0660   -0.8610   -1.0750 C   0  0  0  0  0  0  0  0  0  0  0  0
   -3.0970    0.6190    0.6010 C   0  0  0  0  0  0  0  0  0  0  0  0
   -2.0870    0.2100    1.6340 C   0  0  2  0  0  0  0  0  0  0  0  0
   -2.0910    1.0970    2.7090 O   0  0  0  0  0  0  0  0  0  0  0  0
   -0.7120    0.0920    1.1470 C   0  0  0  0  0  0  0  0  0  0  0  0
    0.3450    0.4680    1.9460 C   0  0  0  0  0  0  0  0  0  0  0  0
    1.6400    0.3540    1.4820 C   0  0  0  0  0  0  0  0  0  0  0  0
    2.7590    0.7730    2.3810 C   0  0  0  0  0  0  0  0  0  0  0  0
    2.2540    1.2280    3.5900 O   0  0  0  0  0  0  0  0  0  0  0  0
    1.8630   -0.1380    0.2170 C   0  0  0  0  0  0  0  0  0  0  0  0
    3.1530   -0.2450   -0.2270 O   0  0  0  0  0  0  0  0  0  0  0  0
    3.5050   -0.7370   -1.5080 C   0  0  0  0  0  0  0  0  0  0  0  0
    4.9880   -0.7430   -1.7270 C   0  0  0  0  0  0  0  0  0  0  0  0
    5.5450    0.5330   -1.6260 O   0  0  0  0  0  0  0  0  0  0  0  0
    0.7700   -0.5140   -0.5750 C   0  0  0  0  0  0  0  0  0  0  0  0
   -0.5170   -0.3990   -0.1100 C   0  0  0  0  0  0  0  0  0  0  0  0
   -1.6490   -0.7840   -0.9220 C   0  0  1  0  0  0  0  0  0  0  0  0
   -1.9160   -2.1450   -0.6790 O   0  0  0  0  0  0  0  0  0  0  0  0
  2  1  1  6
  2  3  1  0
  2  4  1  0
  2 19  1  0
  4  5  1  0
  5  6  1  1
  5  7  1  0
  7  8  2  0
  7 18  1  0
  8  9  1  0
  9 10  1  0
  9 12  2  0
 10 11  1  0
 12 13  1  0
 12 17  1  0
 13 14  1  0
 14 15  1  0
 15 16  1  0
 17 18  2  0
 18 19  1  0
 19 20  1  1
M  END
