
     RDKit          3D

 30 32  0  0  0  0  0  0  0  0999 V2000
   -3.9190   -1.1130    3.0050 C   0  0  0  0  0  0  0  0  0  0  0  0
   -3.1150   -1.8530    2.2560 C   0  0  0  0  0  0  0  0  0  0  0  0
   -1.8540   -1.2840    1.7810 C   0  0  0  0  0  0  0  0  0  0  0  0
   -1.7490   -1.2470    0.2580 C   0  0  1  0  0  0  0  0  0  0  0  0
   -2.8640   -0.4130   -0.2600 C   0  0  0  0  0  0  0  0  0  0  0  0
   -3.7740   -0.9030   -1.0950 C   0  0  0  0  0  0  0  0  0  0  0  0
   -4.8640   -0.0290   -1.5800 C   0  0  0  0  0  0  0  0  0  0  0  0
   -5.4800   -0.3380   -2.6090 O   0  0  0  0  0  0  0  0  0  0  0  0
   -5.1580    1.1780   -0.7970 C   0  0  0  0  0  0  0  0  0  0  0  0
   -3.9420    1.8190   -0.1910 C   0  0  2  0  0  0  0  0  0  0  0  0
   -4.3120    2.5450    1.0940 C   0  0  0  0  0  0  0  0  0  0  0  0
   -3.3340    2.8100   -1.1830 C   0  0  0  0  0  0  0  0  0  0  0  0
   -2.9440    0.8920    0.1400 O   0  0  0  0  0  0  0  0  0  0  0  0
   -0.4630   -0.7150   -0.0620 N   0  0  2  0  0  0  0  0  0  0  0  0
   -0.3860   -0.0490   -1.3250 C   0  0  0  0  0  0  0  0  0  0  0  0
    0.8510    0.8160   -1.2790 C   0  0  0  0  0  0  0  0  0  0  0  0
    1.8930    0.0910   -0.6220 N   0  0  0  0  0  0  0  0  0  0  0  0
    3.0350    0.7800   -0.1550 C   0  0  0  0  0  0  0  0  0  0  0  0
    3.0640    2.0330   -0.3640 O   0  0  0  0  0  0  0  0  0  0  0  0
    4.1700    0.1180    0.5490 C   0  0  0  0  0  0  0  0  0  0  0  0
    5.1720    1.1420    0.8850 C   0  0  0  0  0  0  0  0  0  0  0  0
    5.2130    1.8770    2.0370 C   0  0  0  0  0  0  0  0  0  0  0  0
    6.3140    2.7430    1.9820 C   0  0  0  0  0  0  0  0  0  0  0  0
    6.8990    2.4760    0.7620 C   0  0  0  0  0  0  0  0  0  0  0  0
    6.2000    1.5170    0.1230 N   0  0  0  0  0  0  0  0  0  0  0  0
    1.8760   -1.3440   -0.3830 C   0  0  2  0  0  0  0  0  0  0  0  0
    2.4460   -2.1080   -1.5530 C   0  0  0  0  0  0  0  0  0  0  0  0
    2.4260   -3.5870   -1.2770 C   0  0  0  0  0  0  0  0  0  0  0  0
    2.9570   -4.3100   -2.3590 O   0  0  0  0  0  0  0  0  0  0  0  0
    0.4660   -1.8400   -0.1540 C   0  0  0  0  0  0  0  0  0  0  0  0
  1  2  2  0
  2  3  1  0
  4  3  1  1
  4  5  1  0
  4 14  1  0
  5  6  2  0
  5 13  1  0
  6  7  1  0
  7  8  2  0
  7  9  1  0
  9 10  1  0
 10 11  1  1
 10 12  1  0
 10 13  1  0
 14 15  1  6
 14 30  1  0
 15 16  1  0
 16 17  1  0
 17 18  1  0
 17 26  1  0
 18 19  2  0
 18 20  1  0
 20 21  1  0
 21 22  2  0
 21 25  1  0
 22 23  1  0
 23 24  2  0
 24 25  1  0
 26 27  1  6
 26 30  1  0
 27 28  1  0
 28 29  1  0
M  CHG  1  14   1
M  END
