
     RDKit          3D

 30 33  0  0  0  0  0  0  0  0999 V2000
   -5.4380   -2.1790   -2.7360 C   0  0  0  0  0  0  0  0  0  0  0  0
   -4.9550   -1.5540   -1.5370 N   0  0  0  0  0  0  0  0  0  0  0  0
   -3.5970   -1.3680   -1.0440 C   0  0  0  0  0  0  0  0  0  0  0  0
   -3.7010    0.0260   -0.4650 C   0  0  2  0  0  0  0  0  0  0  0  0
   -2.6540    0.3380    0.4710 N   0  0  0  0  0  0  0  0  0  0  0  0
   -1.9120    1.5270    0.0950 C   0  0  2  0  0  0  0  0  0  0  0  0
   -0.9430    1.2740   -0.9830 C   0  0  0  0  0  0  0  0  0  0  0  0
    0.2480    0.9560   -0.4950 C   0  0  0  0  0  0  0  0  0  0  0  0
    0.1890    0.9660    0.9730 C   0  0  1  0  0  0  0  0  0  0  0  0
    1.4560    1.4860    1.6100 C   0  0  0  0  0  0  0  0  0  0  0  0
    2.5930    0.6150    1.2020 C   0  0  0  0  0  0  0  0  0  0  0  0
    2.7100   -0.4690    1.8100 O   0  0  0  0  0  0  0  0  0  0  0  0
    3.4720    1.0660    0.1510 C   0  0  0  0  0  0  0  0  0  0  0  0
    4.4810    0.3320   -0.2360 C   0  0  0  0  0  0  0  0  0  0  0  0
    4.7660   -0.9720    0.3720 C   0  0  0  0  0  0  0  0  0  0  0  0
    5.8380   -1.6280   -0.2370 O   0  0  0  0  0  0  0  0  0  0  0  0
    6.9310   -0.8200   -0.4360 C   0  0  2  0  0  0  0  0  0  0  0  0
    8.0270   -1.6880   -1.0320 C   0  0  0  0  0  0  0  0  0  0  0  0
    7.4420   -0.1290    0.7940 C   0  0  0  0  0  0  0  0  0  0  0  0
    6.5620    0.1900   -1.4670 C   0  0  0  0  0  0  0  0  0  0  0  0
    7.3030    0.4590   -2.4450 O   0  0  0  0  0  0  0  0  0  0  0  0
    5.3140    0.8460   -1.2930 N   0  0  0  0  0  0  0  0  0  0  0  0
   -0.9920    1.8670    1.2550 C   0  0  0  0  0  0  0  0  0  0  0  0
   -5.0560    0.0070    0.1440 C   0  0  0  0  0  0  0  0  0  0  0  0
   -5.6070    0.7440    1.1710 C   0  0  0  0  0  0  0  0  0  0  0  0
   -6.9110    0.5170    1.5300 C   0  0  0  0  0  0  0  0  0  0  0  0
   -7.4560    1.2770    2.5780 O   0  0  0  0  0  0  0  0  0  0  0  0
   -7.6710   -0.4370    0.8770 C   0  0  0  0  0  0  0  0  0  0  0  0
   -7.0950   -1.1520   -0.1380 C   0  0  0  0  0  0  0  0  0  0  0  0
   -5.7850   -0.9500   -0.5270 C   0  0  0  0  0  0  0  0  0  0  0  0
  1  2  1  0
  2  3  1  0
  2 30  1  0
  3  4  1  0
  4  5  1  1
  4 24  1  0
  6  5  1  1
  6  7  1  0
  6 23  1  0
  7  8  2  0
  8  9  1  0
  9 10  1  1
  9 23  1  0
 10 11  1  0
 11 12  2  0
 11 13  1  0
 13 14  2  3
 14 15  1  0
 14 22  1  0
 15 16  1  0
 16 17  1  0
 17 18  1  6
 17 19  1  0
 17 20  1  0
 20 21  2  0
 20 22  1  0
 24 25  2  0
 24 30  1  0
 25 26  1  0
 26 27  1  0
 26 28  2  0
 28 29  1  0
 29 30  2  0
M  CHG  1   5   1
M  END
