
     RDKit          3D

 30 33  0  0  0  0  0  0  0  0999 V2000
    1.5040    1.2120   -5.6510 C   0  0  0  0  0  0  0  0  0  0  0  0
    0.9110    0.4550   -4.6150 O   0  0  0  0  0  0  0  0  0  0  0  0
    1.4680    0.4340   -3.3840 C   0  0  0  0  0  0  0  0  0  0  0  0
    2.5480    1.1320   -3.2220 O   0  0  0  0  0  0  0  0  0  0  0  0
    0.9870   -0.2960   -2.1920 C   0  0  0  0  0  0  0  0  0  0  0  0
    1.8140   -0.1050   -1.0110 C   0  0  0  0  0  0  0  0  0  0  0  0
    2.8410    0.6420   -1.1450 O   0  0  0  0  0  0  0  0  0  0  0  0
    1.6460   -0.6310    0.2780 N   0  0  0  0  0  0  0  0  0  0  0  0
    2.4830   -0.4160    1.4090 C   0  0  0  0  0  0  0  0  0  0  0  0
    2.1940   -1.2070    2.5360 C   0  0  0  0  0  0  0  0  0  0  0  0
    2.8980   -1.1180    3.7110 C   0  0  0  0  0  0  0  0  0  0  0  0
    3.9430   -0.2200    3.8190 C   0  0  0  0  0  0  0  0  0  0  0  0
    4.2250    0.5450    2.7310 C   0  0  0  0  0  0  0  0  0  0  0  0
    3.5040    0.4530    1.5320 C   0  0  0  0  0  0  0  0  0  0  0  0
    5.3700    1.4070    3.1120 C   0  0  0  0  0  0  0  0  0  0  0  0
    5.9250    0.7730    4.3600 C   0  0  0  0  0  0  0  0  0  0  0  0
    4.8100    0.0720    4.8740 O   0  0  0  0  0  0  0  0  0  0  0  0
   -0.0930   -1.0120   -2.3120 C   0  0  0  0  0  0  0  0  0  0  0  0
   -0.7770   -1.0460   -3.6630 C   0  0  0  0  0  0  0  0  0  0  0  0
   -0.6730   -1.7780   -1.2590 N   0  0  0  0  0  0  0  0  0  0  0  0
   -1.8650   -1.4790   -0.5210 C   0  0  2  0  0  0  0  0  0  0  0  0
   -3.1480   -1.6520   -1.2990 C   0  0  0  0  0  0  0  0  0  0  0  0
   -4.2110   -2.0530   -0.2830 C   0  0  0  0  0  0  0  0  0  0  0  0
   -4.5670   -0.8320    0.5180 C   0  0  0  0  0  0  0  0  0  0  0  0
   -4.2190    0.4650   -0.0990 C   0  0  0  0  0  0  0  0  0  0  0  0
   -2.8830    0.7870   -0.2980 N   0  0  1  0  0  0  0  0  0  0  0  0
   -2.5640    1.9360    0.5830 C   0  0  0  0  0  0  0  0  0  0  0  0
   -2.3260    1.2550    1.9320 C   0  0  0  0  0  0  0  0  0  0  0  0
   -1.6370   -0.0350    1.5420 C   0  0  0  0  0  0  0  0  0  0  0  0
   -1.8340   -0.0940    0.0570 C   0  0  1  0  0  0  0  0  0  0  0  0
  1  2  1  0
  2  3  1  0
  3  4  2  0
  3  5  1  0
  5  6  1  0
  5 18  2  3
  6  7  2  0
  6  8  1  0
  8  9  1  0
  9 10  2  0
  9 14  1  0
 10 11  1  0
 11 12  2  0
 12 13  1  0
 12 17  1  0
 13 14  2  0
 13 15  1  0
 15 16  1  0
 16 17  1  0
 18 19  1  0
 18 20  1  0
 21 20  1  6
 21 22  1  0
 21 30  1  0
 22 23  1  0
 23 24  1  0
 24 25  1  0
 26 25  1  1
 26 27  1  0
 26 30  1  0
 27 28  1  0
 28 29  1  0
 30 29  1  1
M  CHG  1  26   1
M  END
