
     RDKit          3D

 22 25  0  0  0  0  0  0  0  0999 V2000
    1.9100    1.7140   -1.6280 O   0  0  0  0  0  0  0  0  0  0  0  0
    2.7560    1.0540   -0.9390 C   0  0  0  0  0  0  0  0  0  0  0  0
    3.9160    1.6210   -0.5600 N   0  0  0  0  0  0  0  0  0  0  0  0
    4.8470    0.9470    0.1770 C   0  0  0  0  0  0  0  0  0  0  0  0
    6.0770    1.3250    0.6650 C   0  0  0  0  0  0  0  0  0  0  0  0
    6.5810    0.2380    1.3410 C   0  0  0  0  0  0  0  0  0  0  0  0
    5.6340   -0.7550    1.2360 C   0  0  0  0  0  0  0  0  0  0  0  0
    4.5820   -0.3190    0.5270 N   0  0  0  0  0  0  0  0  0  0  0  0
    3.4030   -0.8880    0.1400 C   0  0  0  0  0  0  0  0  0  0  0  0
    3.1800   -2.0740    0.4810 O   0  0  0  0  0  0  0  0  0  0  0  0
    2.4920   -0.2160   -0.5860 N   0  0  0  0  0  0  0  0  0  0  0  0
    1.2620   -0.8820   -0.9630 C   0  0  0  0  0  0  0  0  0  0  0  0
    0.1860   -0.6780    0.0810 C   0  0  0  0  0  0  0  0  0  0  0  0
   -1.0990   -1.3620   -0.2930 C   0  0  1  0  0  0  0  0  0  0  0  0
   -2.1680   -1.1540    0.7560 C   0  0  0  0  0  0  0  0  0  0  0  0
   -2.5180    0.1320    0.0430 C   0  0  2  0  0  0  0  0  0  0  0  0
   -3.9580    0.4110   -0.0750 C   0  0  0  0  0  0  0  0  0  0  0  0
   -4.8920   -0.1160    0.6970 C   0  0  0  0  0  0  0  0  0  0  0  0
   -6.2240    0.3870    0.2940 C   0  0  0  0  0  0  0  0  0  0  0  0
   -5.8910    1.2880   -0.8350 C   0  0  0  0  0  0  0  0  0  0  0  0
   -4.5680    1.3020   -1.0500 C   0  0  0  0  0  0  0  0  0  0  0  0
   -1.9150   -0.4720   -1.2050 C   0  0  0  0  0  0  0  0  0  0  0  0
  1  2  2  0
  2  3  1  0
  2 11  1  0
  3  4  1  0
  4  5  2  0
  4  8  1  0
  5  6  1  0
  6  7  2  0
  7  8  1  0
  8  9  1  0
  9 10  2  0
  9 11  1  0
 11 12  1  0
 12 13  1  0
 14 13  1  1
 14 15  1  0
 14 22  1  0
 15 16  1  0
 16 17  1  6
 16 22  1  0
 17 18  2  0
 17 21  1  0
 18 19  1  0
 19 20  1  0
 20 21  2  0
M  END
