
     RDKit          3D

 28 31  0  0  0  0  0  0  0  0999 V2000
   -4.6990    3.1970   -0.9430 C   0  0  0  0  0  0  0  0  0  0  0  0
   -4.1300    1.9800   -1.6090 C   0  0  0  0  0  0  0  0  0  0  0  0
   -4.7400    1.4070   -2.7010 C   0  0  0  0  0  0  0  0  0  0  0  0
   -4.1920    0.2910   -3.2900 C   0  0  0  0  0  0  0  0  0  0  0  0
   -4.9540   -0.4660   -4.6960 Cl  0  0  0  0  0  0  0  0  0  0  0  0
   -3.0290   -0.2440   -2.7730 C   0  0  0  0  0  0  0  0  0  0  0  0
   -2.3990    0.3290   -1.6630 C   0  0  0  0  0  0  0  0  0  0  0  0
   -1.2050   -0.2010   -1.1170 N   0  0  0  0  0  0  0  0  0  0  0  0
   -0.0710    0.1770   -1.5580 C   0  0  0  0  0  0  0  0  0  0  0  0
    1.2350   -0.2280   -1.1510 C   0  0  0  0  0  0  0  0  0  0  0  0
    1.5070   -1.0990   -0.2100 C   0  0  0  0  0  0  0  0  0  0  0  0
    0.6050   -1.8550    0.6350 C   0  0  0  0  0  0  0  0  0  0  0  0
   -0.6520   -1.8470    0.6580 O   0  0  0  0  0  0  0  0  0  0  0  0
    1.4480   -2.6600    1.4910 N   0  0  0  0  0  0  0  0  0  0  0  0
    2.8030   -2.4090    1.1830 C   0  0  0  0  0  0  0  0  0  0  0  0
    3.9740   -2.9410    1.7340 C   0  0  0  0  0  0  0  0  0  0  0  0
    5.1940   -2.5240    1.2490 C   0  0  0  0  0  0  0  0  0  0  0  0
    6.5000   -2.8510    1.5740 C   0  0  0  0  0  0  0  0  0  0  0  0
    7.3650   -2.1330    0.7700 C   0  0  0  0  0  0  0  0  0  0  0  0
    6.5840   -1.3770   -0.0330 N   0  0  0  0  0  0  0  0  0  0  0  0
    5.2860   -1.5980    0.2390 C   0  0  0  0  0  0  0  0  0  0  0  0
    4.1320   -1.0690   -0.3090 C   0  0  0  0  0  0  0  0  0  0  0  0
    2.9030   -1.4840    0.1740 C   0  0  0  0  0  0  0  0  0  0  0  0
   -2.9580    1.4470   -1.0830 C   0  0  0  0  0  0  0  0  0  0  0  0
   -2.3270    2.0060    0.0150 O   0  0  0  0  0  0  0  0  0  0  0  0
   -2.6930    1.5490    1.2990 C   0  0  1  0  0  0  0  0  0  0  0  0
   -1.5180    0.9600    2.0450 C   0  0  0  0  0  0  0  0  0  0  0  0
   -3.2570    2.7270    2.1020 C   0  0  0  0  0  0  0  0  0  0  0  0
  1  2  1  0
  2  3  2  0
  2 24  1  0
  3  4  1  0
  4  5  1  0
  4  6  2  0
  6  7  1  0
  7  8  1  0
  7 24  2  0
  8  9  2  3
  9 10  1  0
 10 11  2  3
 11 12  1  0
 11 23  1  0
 12 13  2  0
 12 14  1  0
 14 15  1  0
 15 16  2  0
 15 23  1  0
 16 17  1  0
 17 18  1  0
 17 21  2  0
 18 19  2  0
 19 20  1  0
 20 21  1  0
 21 22  1  0
 22 23  2  0
 24 25  1  0
 25 26  1  0
 26 27  1  1
 26 28  1  0
M  END
