
     RDKit          3D

 18 18  0  0  0  0  0  0  0  0999 V2000
   -6.3410   -0.1020   -0.8180 C   0  0  0  0  0  0  0  0  0  0  0  0
   -4.8450   -0.1870   -1.0660 C   0  0  0  0  0  0  0  0  0  0  0  0
   -4.1770   -0.4270    0.2460 C   0  0  0  0  0  0  0  0  0  0  0  0
   -2.6710   -0.5410    0.1660 C   0  0  0  0  0  0  0  0  0  0  0  0
   -2.1220    0.7290   -0.3850 C   0  0  0  0  0  0  0  0  0  0  0  0
   -0.6720    0.7220   -0.5000 N   0  0  0  0  0  0  0  0  0  0  0  0
    0.1860    0.5520    0.5970 C   0  0  0  0  0  0  0  0  0  0  0  0
   -0.3950    0.4010    1.7290 O   0  0  0  0  0  0  0  0  0  0  0  0
    1.6400    0.5380    0.5330 C   0  0  0  0  0  0  0  0  0  0  0  0
    2.2630    0.6830   -0.6810 C   0  0  0  0  0  0  0  0  0  0  0  0
    3.6390    0.6700   -0.7480 C   0  0  0  0  0  0  0  0  0  0  0  0
    4.4270    0.5160    0.3630 C   0  0  0  0  0  0  0  0  0  0  0  0
    6.1800    0.5020    0.2530 S   0  0  1  0  0  0  0  0  0  0  0  0
    6.6770   -1.1280    0.0130 N   0  0  0  0  0  0  0  0  0  0  0  0
    6.6800    1.3150   -0.8870 O   0  0  0  0  0  0  0  0  0  0  0  0
    6.7790    0.9560    1.5660 O   0  0  0  0  0  0  0  0  0  0  0  0
    3.7740    0.3720    1.5690 C   0  0  0  0  0  0  0  0  0  0  0  0
    2.4050    0.3790    1.6780 C   0  0  0  0  0  0  0  0  0  0  0  0
  1  2  1  0
  2  3  1  0
  3  4  1  0
  4  5  1  0
  5  6  1  0
  6  7  1  0
  7  8  2  0
  7  9  1  0
  9 10  2  0
  9 18  1  0
 10 11  1  0
 11 12  2  0
 12 13  1  0
 12 17  1  0
 13 14  1  6
 13 15  2  0
 13 16  2  0
 17 18  2  0
M  END
