
     RDKit          3D

 28 31  0  0  0  0  0  0  0  0999 V2000
    4.8490    1.8570    0.1960 C   0  0  0  0  0  0  0  0  0  0  0  0
    4.8320    0.4260   -0.1900 C   0  0  0  0  0  0  0  0  0  0  0  0
    5.7750   -0.2050   -0.8430 O   0  0  0  0  0  0  0  0  0  0  0  0
    5.4960   -1.4480   -1.0380 C   0  0  0  0  0  0  0  0  0  0  0  0
    4.2730   -1.7040   -0.4840 C   0  0  0  0  0  0  0  0  0  0  0  0
    3.8280   -0.5200    0.0630 C   0  0  0  0  0  0  0  0  0  0  0  0
    2.5610   -0.2300    0.7060 C   0  0  0  0  0  0  0  0  0  0  0  0
    2.3200   -0.6690    1.8380 O   0  0  0  0  0  0  0  0  0  0  0  0
    1.5700    0.5650    0.0310 N   0  0  0  0  0  0  0  0  0  0  0  0
    0.3740    0.9430    0.4280 N   0  0  0  0  0  0  0  0  0  0  0  0
   -0.7480    0.4860    0.6140 C   0  0  0  0  0  0  0  0  0  0  0  0
   -1.2240   -0.9190    0.4170 C   0  0  0  0  0  0  0  0  0  0  0  0
   -0.3480   -1.9730   -0.0800 C   0  0  0  0  0  0  0  0  0  0  0  0
   -0.8600   -3.2980   -0.4080 C   0  0  0  0  0  0  0  0  0  0  0  0
   -2.0090   -3.9020   -0.3990 C   0  0  0  0  0  0  0  0  0  0  0  0
   -1.8960   -5.3360   -0.8700 C   0  0  0  0  0  0  0  0  0  0  0  0
   -0.4750   -5.4330   -1.1560 C   0  0  0  0  0  0  0  0  0  0  0  0
    0.1300   -4.3170   -0.9080 C   0  0  0  0  0  0  0  0  0  0  0  0
   -2.4970   -0.9250    0.7230 C   0  0  0  0  0  0  0  0  0  0  0  0
   -2.9290    0.4290    1.1270 C   0  0  0  0  0  0  0  0  0  0  0  0
   -1.9320    1.2440    1.0660 C   0  0  0  0  0  0  0  0  0  0  0  0
   -1.9030    2.6310    1.3570 N   0  0  0  0  0  0  0  0  0  0  0  0
   -2.4690    3.6260    0.5120 C   0  0  0  0  0  0  0  0  0  0  0  0
   -1.8190    4.3290   -0.4180 C   0  0  0  0  0  0  0  0  0  0  0  0
   -2.7420    5.2730   -1.0970 C   0  0  0  0  0  0  0  0  0  0  0  0
   -4.0130    4.9870   -0.3980 C   0  0  0  0  0  0  0  0  0  0  0  0
   -3.8670    4.0470    0.5230 C   0  0  0  0  0  0  0  0  0  0  0  0
   -5.1710    3.4390    1.5600 Cl  0  0  0  0  0  0  0  0  0  0  0  0
  1  2  1  0
  2  3  1  0
  2  6  2  0
  3  4  1  0
  4  5  2  0
  5  6  1  0
  6  7  1  0
  7  8  2  0
  7  9  1  0
  9 10  1  0
 10 11  2  3
 11 12  1  0
 11 21  1  0
 12 13  1  0
 12 19  2  0
 13 14  1  0
 14 15  2  0
 14 18  1  0
 15 16  1  0
 16 17  1  0
 17 18  2  0
 19 20  1  0
 20 21  2  0
 21 22  1  0
 22 23  1  0
 23 24  2  0
 23 27  1  0
 24 25  1  0
 25 26  1  0
 26 27  2  0
 27 28  1  0
M  END
