
     RDKit          3D

 31 33  0  0  0  0  0  0  0  0999 V2000
   -3.9900    1.3830   -1.9150 C   0  0  0  0  0  0  0  0  0  0  0  0
   -4.5220    1.8850   -0.7860 C   0  0  0  0  0  0  0  0  0  0  0  0
   -6.0750    2.6690   -0.8900 Cl  0  0  0  0  0  0  0  0  0  0  0  0
   -3.8100    1.7640    0.4590 C   0  0  0  0  0  0  0  0  0  0  0  0
   -2.5300    1.0830    0.3850 N   0  0  0  0  0  0  0  0  0  0  0  0
   -2.5260   -0.3300    0.2210 C   0  0  0  0  0  0  0  0  0  0  0  0
   -3.6680   -1.1330    0.1270 C   0  0  0  0  0  0  0  0  0  0  0  0
   -3.2550   -2.4390   -0.0240 C   0  0  0  0  0  0  0  0  0  0  0  0
   -4.1240   -3.6110   -0.1610 C   0  0  0  0  0  0  0  0  0  0  0  0
   -3.6690   -4.9060   -0.3130 C   0  0  0  0  0  0  0  0  0  0  0  0
   -4.7800   -5.7280   -0.4090 C   0  0  0  0  0  0  0  0  0  0  0  0
   -5.8680   -4.8880   -0.3110 C   0  0  0  0  0  0  0  0  0  0  0  0
   -5.4120   -3.6770   -0.1690 O   0  0  0  0  0  0  0  0  0  0  0  0
   -1.9210   -2.3820   -0.0170 N   0  0  0  0  0  0  0  0  0  0  0  0
   -1.4640   -1.1500    0.1260 N   0  0  0  0  0  0  0  0  0  0  0  0
   -0.0480   -0.7460    0.1720 C   0  0  2  0  0  0  0  0  0  0  0  0
    0.2100   -0.1680    1.5190 C   0  0  0  0  0  0  0  0  0  0  0  0
    1.3210    0.8740    1.5280 C   0  0  0  0  0  0  0  0  0  0  0  0
    2.1790    0.5520    0.4050 N   0  0  2  0  0  0  0  0  0  0  0  0
    3.5050    1.0640    0.5120 C   0  0  0  0  0  0  0  0  0  0  0  0
    4.5060    0.1600   -0.1930 C   0  0  0  0  0  0  0  0  0  0  0  0
    5.8910    0.6670   -0.1020 C   0  0  0  0  0  0  0  0  0  0  0  0
    6.5470    0.4740    0.9710 O   0  0  0  0  0  0  0  0  0  0  0  0
    6.5100    1.3450   -1.1360 O   0  0  0  0  0  0  0  0  0  0  0  0
    7.8460    1.7930   -0.9490 C   0  0  0  0  0  0  0  0  0  0  0  0
    8.7590    0.6170   -0.6770 C   0  0  0  0  0  0  0  0  0  0  0  0
    1.4790    0.9990   -0.7840 C   0  0  0  0  0  0  0  0  0  0  0  0
    0.2790    0.1100   -0.9980 C   0  0  0  0  0  0  0  0  0  0  0  0
   -4.2630    2.2250    1.5830 C   0  0  0  0  0  0  0  0  0  0  0  0
   -5.5370    2.9320    1.8140 C   0  0  0  0  0  0  0  0  0  0  0  0
   -3.4490    2.0230    2.6940 F   0  0  0  0  0  0  0  0  0  0  0  0
  1  2  2  0
  2  3  1  0
  2  4  1  0
  4  5  1  0
  4 29  2  3
  5  6  1  0
  6  7  2  0
  6 15  1  0
  7  8  1  0
  8  9  1  0
  8 14  2  0
  9 10  2  0
  9 13  1  0
 10 11  1  0
 11 12  2  0
 12 13  1  0
 14 15  1  0
 16 15  1  1
 16 17  1  0
 16 28  1  0
 17 18  1  0
 18 19  1  0
 19 20  1  1
 19 27  1  0
 20 21  1  0
 21 22  1  0
 22 23  2  0
 22 24  1  0
 24 25  1  0
 25 26  1  0
 27 28  1  0
 29 30  1  0
 29 31  1  0
M  CHG  1  19   1
M  END
