
     RDKit          3D

 31 34  0  0  0  0  0  0  0  0999 V2000
   -6.3220    2.3260   -0.3740 C   0  0  0  0  0  0  0  0  0  0  0  0
   -6.4220    1.1850    0.6190 C   0  0  0  0  0  0  0  0  0  0  0  0
   -5.4590    1.3120    1.6830 N   0  0  0  0  0  0  0  0  0  0  0  0
   -4.3430    0.3860    1.4740 C   0  0  0  0  0  0  0  0  0  0  0  0
   -3.5960    0.7670    0.1930 C   0  0  0  0  0  0  0  0  0  0  0  0
   -2.4860   -0.1320   -0.0390 N   0  0  0  0  0  0  0  0  0  0  0  0
   -1.2120   -0.0390    0.3690 C   0  0  0  0  0  0  0  0  0  0  0  0
   -0.5500   -1.1510   -0.1130 C   0  0  0  0  0  0  0  0  0  0  0  0
   -1.4310   -1.9310   -0.8230 C   0  0  0  0  0  0  0  0  0  0  0  0
   -1.3420   -3.1380   -1.5200 C   0  0  0  0  0  0  0  0  0  0  0  0
   -2.4340   -3.6950   -2.1560 C   0  0  0  0  0  0  0  0  0  0  0  0
   -2.2810   -5.2170   -3.0240 Cl  0  0  0  0  0  0  0  0  0  0  0  0
   -3.6320   -3.0420   -2.0970 C   0  0  0  0  0  0  0  0  0  0  0  0
   -4.7330   -3.5740   -2.7200 F   0  0  0  0  0  0  0  0  0  0  0  0
   -3.7230   -1.8460   -1.4070 C   0  0  0  0  0  0  0  0  0  0  0  0
   -2.6420   -1.2750   -0.7660 C   0  0  0  0  0  0  0  0  0  0  0  0
    0.8720   -1.5720    0.0310 C   0  0  0  0  0  0  0  0  0  0  0  0
    1.5440   -0.8220    1.1640 C   0  0  0  0  0  0  0  0  0  0  0  0
    1.6630    0.5480    0.7780 N   0  0  0  0  0  0  0  0  0  0  0  0
    2.9340    1.0210    0.3310 C   0  0  0  0  0  0  0  0  0  0  0  0
    4.0950    0.2850    0.2190 C   0  0  0  0  0  0  0  0  0  0  0  0
    5.0840    1.1260   -0.2480 C   0  0  0  0  0  0  0  0  0  0  0  0
    6.4800    0.8160   -0.5280 C   0  0  0  0  0  0  0  0  0  0  0  0
    7.2220    1.7210   -0.9480 O   0  0  0  0  0  0  0  0  0  0  0  0
    7.0020   -0.4620   -0.3380 O   0  0  0  0  0  0  0  0  0  0  0  0
    8.3720   -0.6610   -0.6390 C   0  0  0  0  0  0  0  0  0  0  0  0
    9.2280    0.2310    0.2230 C   0  0  0  0  0  0  0  0  0  0  0  0
    4.5270    2.2800   -0.3980 O   0  0  0  0  0  0  0  0  0  0  0  0
    3.2680    2.2570   -0.0690 N   0  0  0  0  0  0  0  0  0  0  0  0
    0.6480    1.5580    0.7740 C   0  0  0  0  0  0  0  0  0  0  0  0
   -0.7180    1.0750    1.1740 C   0  0  0  0  0  0  0  0  0  0  0  0
  1  2  1  0
  2  3  1  0
  3  4  1  0
  4  5  1  0
  5  6  1  0
  6  7  1  0
  6 16  1  0
  7  8  2  0
  7 31  1  0
  8  9  1  0
  8 17  1  0
  9 10  2  0
  9 16  1  0
 10 11  1  0
 11 12  1  0
 11 13  2  0
 13 14  1  0
 13 15  1  0
 15 16  2  0
 17 18  1  0
 18 19  1  0
 19 20  1  0
 19 30  1  0
 20 21  1  0
 20 29  2  0
 21 22  2  0
 22 23  1  0
 22 28  1  0
 23 24  2  0
 23 25  1  0
 25 26  1  0
 26 27  1  0
 28 29  1  0
 30 31  1  0
M  CHG  1   3   1
M  END
