
     RDKit          3D

 31 34  0  0  0  0  0  0  0  0999 V2000
    6.1050   -1.2990    2.8010 C   0  0  0  0  0  0  0  0  0  0  0  0
    5.4190   -0.7160    1.6210 C   0  0  0  0  0  0  0  0  0  0  0  0
    4.3230    0.1230    1.7820 C   0  0  0  0  0  0  0  0  0  0  0  0
    3.6670    0.6780    0.6990 C   0  0  0  0  0  0  0  0  0  0  0  0
    2.5030    1.5710    0.9020 C   0  0  0  0  0  0  0  0  0  0  0  0
    1.2560    0.9140    1.0210 N   0  0  0  0  0  0  0  0  0  0  0  0
    0.8250    0.1250   -0.0790 C   0  0  0  0  0  0  0  0  0  0  0  0
   -0.6290    0.0450   -0.2960 C   0  0  0  0  0  0  0  0  0  0  0  0
   -1.4720    0.2970    0.8280 N   0  0  2  0  0  0  0  0  0  0  0  0
   -2.8100    0.7520    0.4190 C   0  0  0  0  0  0  0  0  0  0  0  0
   -3.6220   -0.4350    0.0720 C   0  0  0  0  0  0  0  0  0  0  0  0
   -3.1520   -1.5880    0.1480 O   0  0  0  0  0  0  0  0  0  0  0  0
   -5.0150   -0.2290   -0.3700 C   0  0  0  0  0  0  0  0  0  0  0  0
   -5.6530    0.8990   -0.5040 O   0  0  0  0  0  0  0  0  0  0  0  0
   -6.8800    0.7420   -0.9160 C   0  0  0  0  0  0  0  0  0  0  0  0
   -7.9060    1.8110   -1.1810 C   0  0  0  0  0  0  0  0  0  0  0  0
   -7.0670   -0.6140   -1.0690 C   0  0  0  0  0  0  0  0  0  0  0  0
   -5.8870   -1.2460   -0.7250 C   0  0  0  0  0  0  0  0  0  0  0  0
   -5.6050   -2.6990   -0.7300 C   0  0  2  0  0  0  0  0  0  0  0  0
   -5.1770   -3.1690    0.4910 F   0  0  0  0  0  0  0  0  0  0  0  0
   -4.3570   -3.0960   -1.9470 Cl  0  0  0  0  0  0  0  0  0  0  0  0
   -0.9590    1.1820    1.8120 C   0  0  0  0  0  0  0  0  0  0  0  0
    0.2350    1.9220    1.2600 C   0  0  0  0  0  0  0  0  0  0  0  0
    4.1590    0.3540   -0.5480 C   0  0  0  0  0  0  0  0  0  0  0  0
    5.2570   -0.4870   -0.7080 C   0  0  0  0  0  0  0  0  0  0  0  0
    5.7600   -0.8160   -2.0480 C   0  0  0  0  0  0  0  0  0  0  0  0
    5.2270   -0.3520   -3.2320 C   0  0  0  0  0  0  0  0  0  0  0  0
    5.9720   -0.8840   -4.2180 N   0  0  0  0  0  0  0  0  0  0  0  0
    6.8830   -1.6120   -3.6900 O   0  0  0  0  0  0  0  0  0  0  0  0
    6.8140   -1.6160   -2.3890 C   0  0  0  0  0  0  0  0  0  0  0  0
    5.8530   -0.9970    0.3810 N   0  0  0  0  0  0  0  0  0  0  0  0
  1  2  1  0
  2  3  2  0
  2 31  1  0
  3  4  1  0
  4  5  1  0
  4 24  2  0
  5  6  1  0
  6  7  1  0
  6 23  1  0
  7  8  1  0
  8  9  1  0
  9 10  1  6
  9 22  1  0
 10 11  1  0
 11 12  2  0
 11 13  1  0
 13 14  1  0
 13 18  2  0
 14 15  1  0
 15 16  1  0
 15 17  2  0
 17 18  1  0
 18 19  1  0
 19 20  1  1
 19 21  1  0
 22 23  1  0
 24 25  1  0
 25 26  1  0
 25 31  2  0
 26 27  1  0
 26 30  2  0
 27 28  2  0
 28 29  1  0
 29 30  1  0
M  CHG  1   9   1
M  END
