
     RDKit          3D

 19 19  0  0  0  0  0  0  0  0999 V2000
   -6.6560    0.4040   -1.5780 C   0  0  0  0  0  0  0  0  0  0  0  0
   -5.7960   -0.4670   -0.6890 C   0  0  0  0  0  0  0  0  0  0  0  0
   -4.3080   -0.1360   -0.8860 C   0  0  0  0  0  0  0  0  0  0  0  0
   -3.5490   -1.0400    0.0260 C   0  0  0  0  0  0  0  0  0  0  0  0
   -2.0630   -0.8210   -0.0730 C   0  0  0  0  0  0  0  0  0  0  0  0
   -1.6700    0.5830    0.2890 C   0  0  0  0  0  0  0  0  0  0  0  0
   -0.2240    0.7310    0.1720 N   0  0  0  0  0  0  0  0  0  0  0  0
    0.6930   -0.0220    0.9310 C   0  0  0  0  0  0  0  0  0  0  0  0
    0.2580   -0.8690    1.7580 O   0  0  0  0  0  0  0  0  0  0  0  0
    2.1310    0.1260    0.8090 C   0  0  0  0  0  0  0  0  0  0  0  0
    2.7280    1.0100   -0.0550 C   0  0  0  0  0  0  0  0  0  0  0  0
    4.1240    1.1180   -0.1370 C   0  0  0  0  0  0  0  0  0  0  0  0
    4.9510    0.3430    0.6450 C   0  0  0  0  0  0  0  0  0  0  0  0
    6.6890    0.5000    0.5200 S   0  0  1  0  0  0  0  0  0  0  0  0
    7.2540   -0.5900   -0.6700 N   0  0  0  0  0  0  0  0  0  0  0  0
    6.9880    1.9170    0.1190 O   0  0  0  0  0  0  0  0  0  0  0  0
    7.2700    0.2350    1.8750 O   0  0  0  0  0  0  0  0  0  0  0  0
    4.3680   -0.5460    1.5150 C   0  0  0  0  0  0  0  0  0  0  0  0
    3.0010   -0.6460    1.5890 C   0  0  0  0  0  0  0  0  0  0  0  0
  1  2  1  0
  2  3  1  0
  3  4  1  0
  4  5  1  0
  5  6  1  0
  6  7  1  0
  7  8  1  0
  8  9  2  0
  8 10  1  0
 10 11  2  0
 10 19  1  0
 11 12  1  0
 12 13  2  0
 13 14  1  0
 13 18  1  0
 14 15  1  6
 14 16  2  0
 14 17  2  0
 18 19  2  0
M  END
