
     RDKit          3D

 22 24  0  0  0  0  0  0  0  0999 V2000
   -3.2520    2.2790   -0.1550 N   0  0  0  0  0  0  0  0  0  0  0  0
   -3.0130    0.8990   -0.4080 C   0  0  0  0  0  0  0  0  0  0  0  0
   -1.8420    0.5670   -0.8490 N   0  0  0  0  0  0  0  0  0  0  0  0
   -0.8130    1.5100   -1.0820 C   0  0  0  0  0  0  0  0  0  0  0  0
    0.2730    1.4880   -0.3530 C   0  0  0  0  0  0  0  0  0  0  0  0
    0.4230    0.4820    0.7090 C   0  0  0  0  0  0  0  0  0  0  0  0
    1.5170   -0.3240    0.5090 O   0  0  0  0  0  0  0  0  0  0  0  0
    2.8540   -0.0430    0.4720 C   0  0  0  0  0  0  0  0  0  0  0  0
    3.4200    1.1950    0.6670 C   0  0  0  0  0  0  0  0  0  0  0  0
    4.7970    1.3920    0.6090 C   0  0  0  0  0  0  0  0  0  0  0  0
    5.6480    0.3230    0.3490 C   0  0  0  0  0  0  0  0  0  0  0  0
    5.1090   -0.9290    0.1510 C   0  0  0  0  0  0  0  0  0  0  0  0
    3.7440   -1.0910    0.2140 C   0  0  0  0  0  0  0  0  0  0  0  0
    6.0740   -1.8240   -0.0840 C   0  0  0  0  0  0  0  0  0  0  0  0
    7.3600   -1.1100   -0.0390 C   0  0  0  0  0  0  0  0  0  0  0  0
    6.9640    0.2830    0.2500 C   0  0  0  0  0  0  0  0  0  0  0  0
   -4.0460   -0.0150   -0.1700 N   0  0  0  0  0  0  0  0  0  0  0  0
   -5.2350   -0.0260   -0.9700 C   0  0  0  0  0  0  0  0  0  0  0  0
   -6.4020   -0.6800   -0.3120 C   0  0  0  0  0  0  0  0  0  0  0  0
   -6.1310   -1.8490    0.3380 O   0  0  0  0  0  0  0  0  0  0  0  0
   -4.8100   -2.1840    0.4430 C   0  0  0  0  0  0  0  0  0  0  0  0
   -3.9590   -1.0020    0.9080 C   0  0  0  0  0  0  0  0  0  0  0  0
  1  2  1  0
  2  3  2  3
  2 17  1  0
  3  4  1  0
  4  5  2  3
  5  6  1  0
  6  7  1  0
  7  8  1  0
  8  9  1  0
  8 13  2  0
  9 10  2  0
 10 11  1  0
 11 12  1  0
 11 16  2  0
 12 13  1  0
 12 14  2  0
 14 15  1  0
 15 16  1  0
 17 18  1  0
 17 22  1  0
 18 19  1  0
 19 20  1  0
 20 21  1  0
 21 22  1  0
M  CHG  1   3   1
M  END
