
     RDKit          3D

 22 24  0  0  0  0  0  0  0  0999 V2000
   -5.8160   -0.3020   -0.2700 C   0  0  0  0  0  0  0  0  0  0  0  0
   -4.9290   -1.3190   -0.6420 O   0  0  0  0  0  0  0  0  0  0  0  0
   -3.5560   -1.2560   -0.4530 C   0  0  0  0  0  0  0  0  0  0  0  0
   -2.7850   -2.3170   -0.8590 C   0  0  0  0  0  0  0  0  0  0  0  0
   -1.4260   -2.2500   -0.6670 C   0  0  0  0  0  0  0  0  0  0  0  0
   -0.7720   -1.1590   -0.0790 C   0  0  0  0  0  0  0  0  0  0  0  0
   -1.5410   -0.0930    0.3250 C   0  0  0  0  0  0  0  0  0  0  0  0
   -2.9270   -0.1810    0.1230 C   0  0  0  0  0  0  0  0  0  0  0  0
   -1.0020    1.1470    0.9080 C   0  0  0  0  0  0  0  0  0  0  0  0
   -1.3360    1.6840    2.1020 N   0  0  0  0  0  0  0  0  0  0  0  0
   -0.6470    2.7990    2.2620 N   0  0  0  0  0  0  0  0  0  0  0  0
    0.1390    3.0260    1.2110 C   0  0  0  0  0  0  0  0  0  0  0  0
   -0.0680    1.9750    0.3150 C   0  0  0  0  0  0  0  0  0  0  0  0
    0.5070    1.7760   -0.9400 N   0  0  0  0  0  0  0  0  0  0  0  0
    1.9370    1.5940   -0.8010 C   0  0  0  0  0  0  0  0  0  0  0  0
    2.2970    0.4670   -1.6990 C   0  0  0  0  0  0  0  0  0  0  0  0
    2.9270   -0.6360   -1.3960 C   0  0  0  0  0  0  0  0  0  0  0  0
    3.4380   -1.0460   -0.0950 C   0  0  0  0  0  0  0  0  0  0  0  0
    4.9300   -1.3460   -0.0560 C   0  0  0  0  0  0  0  0  0  0  0  0
    2.7870   -1.2110    1.0120 C   0  0  0  0  0  0  0  0  0  0  0  0
    1.3390   -1.0280    1.2510 C   0  0  0  0  0  0  0  0  0  0  0  0
    0.6130   -1.1970    0.0770 O   0  0  0  0  0  0  0  0  0  0  0  0
  1  2  1  0
  2  3  1  0
  3  4  2  0
  3  8  1  0
  4  5  1  0
  5  6  2  0
  6  7  1  0
  6 22  1  0
  7  8  2  0
  7  9  1  0
  9 10  2  0
  9 13  1  0
 10 11  1  0
 11 12  1  0
 12 13  2  0
 13 14  1  0
 14 15  1  0
 15 16  1  0
 16 17  2  0
 17 18  1  0
 18 19  1  0
 18 20  2  0
 20 21  1  0
 21 22  1  0
M  CHG  1  14   1
M  END
