
     RDKit          3D

 22 24  0  0  0  0  0  0  0  0999 V2000
    0.6750   -2.1150    1.7540 N   0  0  0  0  0  0  0  0  0  0  0  0
    0.5930   -1.4630    0.4680 C   0  0  0  0  0  0  0  0  0  0  0  0
    1.6030   -1.5580   -0.2940 N   0  0  0  0  0  0  0  0  0  0  0  0
    2.7730   -2.2600    0.0650 C   0  0  0  0  0  0  0  0  0  0  0  0
    3.9570   -1.7590    0.0970 C   0  0  0  0  0  0  0  0  0  0  0  0
    4.3770   -0.4120   -0.2120 C   0  0  0  0  0  0  0  0  0  0  0  0
    5.7270   -0.0430   -0.1210 C   0  0  0  0  0  0  0  0  0  0  0  0
    6.1660    1.2280   -0.4050 C   0  0  0  0  0  0  0  0  0  0  0  0
    5.3210    2.1890   -0.7890 N   0  0  0  0  0  0  0  0  0  0  0  0
    4.0250    1.8770   -0.8880 C   0  0  0  0  0  0  0  0  0  0  0  0
    3.5310    0.5940   -0.6070 C   0  0  0  0  0  0  0  0  0  0  0  0
   -0.6240   -0.7460    0.1210 C   0  0  0  0  0  0  0  0  0  0  0  0
   -0.7050   -0.1250   -1.1030 C   0  0  0  0  0  0  0  0  0  0  0  0
   -1.8560    0.5750   -1.4770 C   0  0  0  0  0  0  0  0  0  0  0  0
   -2.9300    0.6430   -0.5990 C   0  0  0  0  0  0  0  0  0  0  0  0
   -2.8560    0.0230    0.6300 C   0  0  0  0  0  0  0  0  0  0  0  0
   -1.7060   -0.6590    0.9660 C   0  0  0  0  0  0  0  0  0  0  0  0
   -3.8360    0.0040    1.6000 O   0  0  0  0  0  0  0  0  0  0  0  0
   -5.2440    0.1410    1.5390 C   0  0  0  0  0  0  0  0  0  0  0  0
   -5.7330    0.3860    0.1330 C   0  0  0  0  0  0  0  0  0  0  0  0
   -5.2130    1.6520   -0.4630 C   0  0  0  0  0  0  0  0  0  0  0  0
   -3.9980    1.3860   -1.1400 O   0  0  0  0  0  0  0  0  0  0  0  0
  1  2  1  0
  2  3  2  3
  2 12  1  0
  3  4  1  0
  4  5  2  3
  5  6  1  0
  6  7  2  0
  6 11  1  0
  7  8  1  0
  8  9  2  0
  9 10  1  0
 10 11  2  0
 12 13  2  0
 12 17  1  0
 13 14  1  0
 14 15  2  0
 15 16  1  0
 15 22  1  0
 16 17  2  0
 16 18  1  0
 18 19  1  0
 19 20  1  0
 20 21  1  0
 21 22  1  0
M  CHG  1   9   1
M  END
