
     RDKit          3D

 22 24  0  0  0  0  0  0  0  0999 V2000
    5.8130    1.8460    1.3010 C   0  0  0  0  0  0  0  0  0  0  0  0
    4.8300    1.2850    0.6370 C   0  0  0  0  0  0  0  0  0  0  0  0
    3.7260    2.0870    0.1650 N   0  0  0  0  0  0  0  0  0  0  0  0
    2.7390    1.5860   -0.4900 C   0  0  0  0  0  0  0  0  0  0  0  0
    2.6870    0.1650   -0.7900 C   0  0  0  0  0  0  0  0  0  0  0  0
    1.5360   -0.3750   -1.5370 C   0  0  0  0  0  0  0  0  0  0  0  0
    0.3310   -0.0980   -0.8010 N   0  0  0  0  0  0  0  0  0  0  0  0
   -0.8370   -0.6140   -1.4310 C   0  0  1  0  0  0  0  0  0  0  0  0
   -0.8450   -2.1170   -1.5430 C   0  0  0  0  0  0  0  0  0  0  0  0
   -0.8960   -2.7520   -0.1770 C   0  0  0  0  0  0  0  0  0  0  0  0
   -2.0280   -2.2790    0.4900 O   0  0  0  0  0  0  0  0  0  0  0  0
   -2.6390   -1.0400    0.2380 C   0  0  0  0  0  0  0  0  0  0  0  0
   -3.7910   -0.6740    0.9260 C   0  0  0  0  0  0  0  0  0  0  0  0
   -4.3990    0.5380    0.6880 C   0  0  0  0  0  0  0  0  0  0  0  0
   -5.5430    0.8690    1.3900 O   0  0  0  0  0  0  0  0  0  0  0  0
   -6.2390    2.0720    1.2250 C   0  0  0  0  0  0  0  0  0  0  0  0
   -3.8280    1.3690   -0.2490 C   0  0  0  0  0  0  0  0  0  0  0  0
   -2.6920    1.0000   -0.9220 C   0  0  0  0  0  0  0  0  0  0  0  0
   -2.0570   -0.2160   -0.7030 C   0  0  0  0  0  0  0  0  0  0  0  0
    3.6580   -0.6600   -0.3970 C   0  0  0  0  0  0  0  0  0  0  0  0
    4.7940   -0.1370    0.3450 C   0  0  0  0  0  0  0  0  0  0  0  0
    5.7130   -0.9410    0.7090 N   0  0  0  0  0  0  0  0  0  0  0  0
  1  2  2  0
  2  3  1  0
  2 21  1  0
  3  4  2  0
  4  5  1  0
  5  6  1  0
  5 20  2  0
  6  7  1  0
  8  7  1  1
  8  9  1  0
  8 19  1  0
  9 10  1  0
 10 11  1  0
 11 12  1  0
 12 13  2  0
 12 19  1  0
 13 14  1  0
 14 15  1  0
 14 17  2  0
 15 16  1  0
 17 18  1  0
 18 19  2  0
 20 21  1  0
 21 22  2  0
M  CHG  1  22   1
M  END
