
     RDKit          3D

 28 31  0  0  0  0  0  0  0  0999 V2000
   -4.5280    2.3710   -1.1340 C   0  0  0  0  0  0  0  0  0  0  0  0
   -4.5620    1.1590   -0.3890 O   0  0  0  0  0  0  0  0  0  0  0  0
   -5.7420    0.4440   -0.2760 C   0  0  0  0  0  0  0  0  0  0  0  0
   -6.9300    0.7580   -0.6500 N   0  0  0  0  0  0  0  0  0  0  0  0
   -7.8600   -0.2620   -0.3450 C   0  0  0  0  0  0  0  0  0  0  0  0
   -9.3310   -0.2800   -0.6160 C   0  0  0  0  0  0  0  0  0  0  0  0
   -7.2230   -1.2560    0.2450 C   0  0  0  0  0  0  0  0  0  0  0  0
   -5.8350   -0.8760    0.3290 C   0  0  0  0  0  0  0  0  0  0  0  0
   -4.8650   -1.5970    0.8530 C   0  0  0  0  0  0  0  0  0  0  0  0
   -3.5820   -1.0670    0.8460 O   0  0  0  0  0  0  0  0  0  0  0  0
   -2.4340   -1.7830    0.4660 C   0  0  0  0  0  0  0  0  0  0  0  0
   -1.2710   -0.8520    0.5990 C   0  0  0  0  0  0  0  0  0  0  0  0
   -1.2710    0.4280    0.9810 N   0  0  0  0  0  0  0  0  0  0  0  0
   -0.0400    0.9070    0.9690 N   0  0  0  0  0  0  0  0  0  0  0  0
    0.7620   -0.0950    0.5690 C   0  0  0  0  0  0  0  0  0  0  0  0
    2.2100   -0.0230    0.4080 C   0  0  0  0  0  0  0  0  0  0  0  0
    2.9590   -1.1050   -0.0060 C   0  0  0  0  0  0  0  0  0  0  0  0
    4.3260   -1.0500   -0.1610 C   0  0  0  0  0  0  0  0  0  0  0  0
    5.0100    0.1190    0.0980 C   0  0  0  0  0  0  0  0  0  0  0  0
    6.4590    0.1840   -0.0640 C   0  0  0  0  0  0  0  0  0  0  0  0
    7.0820   -0.5790   -1.0310 C   0  0  0  0  0  0  0  0  0  0  0  0
    8.4720   -0.4850   -1.1500 C   0  0  0  0  0  0  0  0  0  0  0  0
    9.1600    0.3500   -0.3170 C   0  0  0  0  0  0  0  0  0  0  0  0
    8.5540    1.1250    0.6600 C   0  0  0  0  0  0  0  0  0  0  0  0
    7.1750    1.0160    0.7600 C   0  0  0  0  0  0  0  0  0  0  0  0
    4.2720    1.2060    0.5130 C   0  0  0  0  0  0  0  0  0  0  0  0
    2.9130    1.1350    0.6620 C   0  0  0  0  0  0  0  0  0  0  0  0
    0.0030   -1.1740    0.3420 N   0  0  0  0  0  0  0  0  0  0  0  0
  1  2  1  0
  2  3  1  0
  3  4  2  0
  3  8  1  0
  4  5  1  0
  5  6  1  0
  5  7  2  0
  7  8  1  0
  8  9  2  3
  9 10  1  0
 10 11  1  0
 11 12  1  0
 12 13  2  0
 12 28  1  0
 13 14  1  0
 14 15  1  0
 15 16  1  0
 15 28  2  0
 16 17  2  0
 16 27  1  0
 17 18  1  0
 18 19  2  0
 19 20  1  0
 19 26  1  0
 20 21  2  0
 20 25  1  0
 21 22  1  0
 22 23  2  0
 23 24  1  0
 24 25  2  0
 26 27  2  0
M  END
