
     RDKit          3D

  7  7  0  0  0  0  0  0  0  0999 V2000
    2.8450    0.0930   -0.2240 C   0  0  0  0  0  0  0  0  0  0  0  0
    1.5100    0.4960   -0.2730 O   0  0  0  0  0  0  0  0  0  0  0  0
    0.6320   -0.5280    0.0620 C   0  0  2  0  0  0  0  0  0  0  0  0
   -0.5800   -0.5440   -0.8590 C   0  0  0  0  0  0  0  0  0  0  0  0
   -1.0430    0.6250   -0.0930 N   0  0  0  0  0  0  0  0  0  0  0  0
   -2.4610    0.7790   -0.0360 C   0  0  0  0  0  0  0  0  0  0  0  0
   -0.4150   -0.0030    1.0530 C   0  0  0  0  0  0  0  0  0  0  0  0
  1  2  1  0
  3  2  1  6
  3  4  1  0
  3  7  1  0
  4  5  1  0
  5  6  1  0
  5  7  1  0
M  END
