
     RDKit          3D

 24 25  0  0  0  0  0  0  0  0999 V2000
   -5.6830    2.9480    0.6050 C   0  0  0  0  0  0  0  0  0  0  0  0
   -5.5750    1.5880   -0.0900 C   0  0  0  0  0  0  0  0  0  0  0  0
   -4.5020    1.5610   -1.0730 C   0  0  0  0  0  0  0  0  0  0  0  0
   -3.4880    0.7310   -1.0030 C   0  0  0  0  0  0  0  0  0  0  0  0
   -3.3090   -0.2500    0.0470 C   0  0  0  0  0  0  0  0  0  0  0  0
   -2.2780   -1.0720    0.0910 C   0  0  0  0  0  0  0  0  0  0  0  0
   -1.2090   -1.1070   -0.8790 C   0  0  0  0  0  0  0  0  0  0  0  0
   -0.1880   -1.9600   -0.7860 C   0  0  0  0  0  0  0  0  0  0  0  0
    0.9100   -1.9880   -1.7930 C   0  0  0  0  0  0  0  0  0  0  0  0
    2.1770   -1.7500   -1.3210 O   0  0  0  0  0  0  0  0  0  0  0  0
    2.6690   -0.6430   -0.7220 C   0  0  0  0  0  0  0  0  0  0  0  0
    2.0270    0.5410   -0.4420 C   0  0  0  0  0  0  0  0  0  0  0  0
    2.6400    1.6060    0.1760 C   0  0  0  0  0  0  0  0  0  0  0  0
    3.9510    1.5320    0.5480 C   0  0  0  0  0  0  0  0  0  0  0  0
    4.6370    2.6550    1.2120 C   0  0  0  0  0  0  0  0  0  0  0  0
    3.8350    3.7500    1.4080 O   0  0  0  0  0  0  0  0  0  0  0  0
    4.6470    0.3700    0.2930 C   0  0  0  0  0  0  0  0  0  0  0  0
    4.0190   -0.6720   -0.3200 C   0  0  0  0  0  0  0  0  0  0  0  0
    4.7830   -1.9130   -0.5860 C   0  0  0  0  0  0  0  0  0  0  0  0
   -0.1760   -2.8780    0.3430 C   0  0  0  0  0  0  0  0  0  0  0  0
   -1.0700   -2.9540    1.2860 C   0  0  0  0  0  0  0  0  0  0  0  0
   -0.9930   -3.8660    2.3470 O   0  0  0  0  0  0  0  0  0  0  0  0
   -2.1960   -2.0370    1.2140 C   0  0  0  0  0  0  0  0  0  0  0  0
   -3.0960   -2.0540    2.0880 O   0  0  0  0  0  0  0  0  0  0  0  0
  1  2  1  0
  2  3  1  0
  3  4  2  3
  4  5  1  0
  5  6  2  3
  6  7  1  0
  6 23  1  0
  7  8  2  0
  8  9  1  0
  8 20  1  0
  9 10  1  0
 10 11  1  0
 11 12  2  0
 11 18  1  0
 12 13  1  0
 13 14  2  0
 14 15  1  0
 14 17  1  0
 15 16  1  0
 17 18  2  0
 18 19  1  0
 20 21  2  0
 21 22  1  0
 21 23  1  0
 23 24  2  0
M  END
