
     RDKit          3D

 11 10  0  0  0  0  0  0  0  0999 V2000
    4.3510   -0.7000   -0.4460 C   0  0  0  0  0  0  0  0  0  0  0  0
    3.5480    0.5370   -0.7690 C   0  0  0  0  0  0  0  0  0  0  0  0
    2.1480    0.2770   -0.2620 C   0  0  0  0  0  0  0  0  0  0  0  0
    1.6510    1.0780    0.6450 C   0  0  0  0  0  0  0  0  0  0  0  0
    0.2820    0.8660    1.1800 C   0  0  0  0  0  0  0  0  0  0  0  0
   -0.3090   -0.3450    0.5890 C   0  0  0  0  0  0  0  0  0  0  0  0
    0.2690   -1.7110    0.8960 C   0  0  0  0  0  0  0  0  0  0  0  0
   -1.3730   -0.3330   -0.1680 C   0  0  0  0  0  0  0  0  0  0  0  0
   -2.1250    0.8610   -0.5400 C   0  0  0  0  0  0  0  0  0  0  0  0
   -3.5640    0.8230   -0.0400 C   0  0  0  0  0  0  0  0  0  0  0  0
   -4.2700   -0.3280   -0.5970 N   0  0  0  0  0  0  0  0  0  0  0  0
  1  2  1  0
  2  3  1  0
  3  4  2  3
  4  5  1  0
  5  6  1  0
  6  7  1  0
  6  8  2  3
  8  9  1  0
  9 10  1  0
 10 11  1  0
M  CHG  1  11   1
M  END
