
     RDKit          3D

 11 10  0  0  0  0  0  0  0  0999 V2000
    3.7910    1.2570    0.7800 C   0  0  0  0  0  0  0  0  0  0  0  0
    3.1660    1.0340   -0.5820 C   0  0  0  0  0  0  0  0  0  0  0  0
    2.1400   -0.0900   -0.5190 C   0  0  1  0  0  0  0  0  0  0  0  0
    2.9140   -1.3460   -0.0590 C   0  0  0  0  0  0  0  0  0  0  0  0
    1.1170    0.1580    0.5010 C   0  0  0  0  0  0  0  0  0  0  0  0
   -0.1650    0.1800    0.2830 C   0  0  0  0  0  0  0  0  0  0  0  0
   -0.7910   -0.0400   -1.0280 C   0  0  0  0  0  0  0  0  0  0  0  0
   -1.7110   -1.2020   -1.0350 C   0  0  0  0  0  0  0  0  0  0  0  0
   -2.8760   -1.1700   -0.1500 C   0  0  0  0  0  0  0  0  0  0  0  0
   -3.9580   -0.1860   -0.3450 C   0  0  0  0  0  0  0  0  0  0  0  0
   -3.5900    1.1710   -0.2060 N   0  0  0  0  0  0  0  0  0  0  0  0
  1  2  1  0
  2  3  1  0
  3  4  1  1
  3  5  1  0
  5  6  2  3
  6  7  1  0
  7  8  1  0
  8  9  1  0
  9 10  1  0
 10 11  1  0
M  CHG  1  11   1
M  END
