
     RDKit          3D

 11 10  0  0  0  0  0  0  0  0999 V2000
    4.8630    0.7020   -0.3850 C   0  0  0  0  0  0  0  0  0  0  0  0
    3.6640   -0.0600    0.1850 C   0  0  0  0  0  0  0  0  0  0  0  0
    2.4540    0.8120   -0.0610 C   0  0  0  0  0  0  0  0  0  0  0  0
    1.2320    0.1680    0.4540 C   0  0  0  0  0  0  0  0  0  0  0  0
    0.2450   -0.1090   -0.3600 C   0  0  0  0  0  0  0  0  0  0  0  0
   -0.9840   -0.7550    0.1510 C   0  0  2  0  0  0  0  0  0  0  0  0
   -1.1380   -2.0780   -0.5370 C   0  0  0  0  0  0  0  0  0  0  0  0
   -2.3080   -2.8010   -0.1160 N   0  0  0  0  0  0  0  0  0  0  0  0
   -2.2120    0.1060   -0.0890 C   0  0  0  0  0  0  0  0  0  0  0  0
   -2.0730    1.4480    0.6070 C   0  0  0  0  0  0  0  0  0  0  0  0
   -3.2950    2.3030    0.3660 C   0  0  0  0  0  0  0  0  0  0  0  0
  1  2  1  0
  2  3  1  0
  3  4  1  0
  4  5  2  3
  5  6  1  0
  6  7  1  6
  6  9  1  0
  7  8  1  0
  9 10  1  0
 10 11  1  0
M  CHG  1   8   1
M  END
