
     RDKit          3D

 11 10  0  0  0  0  0  0  0  0999 V2000
    3.9090    0.1610   -1.2510 C   0  0  0  0  0  0  0  0  0  0  0  0
    3.9090   -0.4180    0.1000 C   0  0  0  0  0  0  0  0  0  0  0  0
    2.8670   -0.3500    0.9100 C   0  0  0  0  0  0  0  0  0  0  0  0
    1.5860    0.3300    0.5160 C   0  0  0  0  0  0  0  0  0  0  0  0
    0.4900   -0.6960    0.5760 C   0  0  0  0  0  0  0  0  0  0  0  0
   -0.8680   -0.1950    0.2130 C   0  0  1  0  0  0  0  0  0  0  0  0
   -1.8320   -1.3370    0.3250 C   0  0  0  0  0  0  0  0  0  0  0  0
   -1.3850   -2.3710   -0.6020 N   0  0  0  0  0  0  0  0  0  0  0  0
   -1.2440    1.0200    0.9650 C   0  0  0  0  0  0  0  0  0  0  0  0
   -2.5700    1.6090    0.6900 C   0  0  0  0  0  0  0  0  0  0  0  0
   -2.8530    2.0590   -0.6910 C   0  0  0  0  0  0  0  0  0  0  0  0
  1  2  1  0
  2  3  2  3
  3  4  1  0
  4  5  1  0
  6  5  1  1
  6  7  1  0
  6  9  1  0
  7  8  1  0
  9 10  1  0
 10 11  1  0
M  CHG  1   8   1
M  END
