
     RDKit          3D

 16 17  0  0  0  0  0  0  0  0999 V2000
    4.3770   -0.4170    1.0650 C   0  0  0  0  0  0  0  0  0  0  0  0
    4.2700    0.6690    0.2360 O   0  0  0  0  0  0  0  0  0  0  0  0
    3.8070    0.3960   -1.0280 C   0  0  0  0  0  0  0  0  0  0  0  0
    2.4280   -0.2180   -1.0280 C   0  0  0  0  0  0  0  0  0  0  0  0
    1.4860    0.6480   -0.4230 O   0  0  0  0  0  0  0  0  0  0  0  0
    0.1750    0.2700   -0.3260 C   0  0  0  0  0  0  0  0  0  0  0  0
   -0.2350   -0.9440   -0.8130 C   0  0  0  0  0  0  0  0  0  0  0  0
   -1.5790   -1.3390   -0.7170 C   0  0  0  0  0  0  0  0  0  0  0  0
   -2.4910   -0.4930   -0.1280 C   0  0  0  0  0  0  0  0  0  0  0  0
   -3.8090   -0.8460   -0.0180 C   0  0  0  0  0  0  0  0  0  0  0  0
   -4.1880   -1.9510   -0.4590 O   0  0  0  0  0  0  0  0  0  0  0  0
   -4.6990   -0.0170    0.5590 N   0  0  0  0  0  0  0  0  0  0  0  0
   -4.3200    1.1780    1.0420 C   0  0  0  0  0  0  0  0  0  0  0  0
   -2.9970    1.5470    0.9390 C   0  0  0  0  0  0  0  0  0  0  0  0
   -2.0700    0.7230    0.3570 C   0  0  0  0  0  0  0  0  0  0  0  0
   -0.7360    1.1100    0.2600 C   0  0  0  0  0  0  0  0  0  0  0  0
  1  2  1  0
  2  3  1  0
  3  4  1  0
  4  5  1  0
  5  6  1  0
  6  7  2  0
  6 16  1  0
  7  8  1  0
  8  9  2  0
  9 10  1  0
  9 15  1  0
 10 11  2  0
 10 12  1  0
 12 13  1  0
 13 14  2  0
 14 15  1  0
 15 16  2  0
M  END
