
     RDKit          3D

 16 17  0  0  0  0  0  0  0  0999 V2000
   -3.3590    2.1960   -1.0740 C   0  0  0  0  0  0  0  0  0  0  0  0
   -3.3420    0.8990   -0.4880 O   0  0  0  0  0  0  0  0  0  0  0  0
   -2.1790    0.1680   -0.3470 C   0  0  0  0  0  0  0  0  0  0  0  0
   -0.9540    0.6560   -0.7710 C   0  0  0  0  0  0  0  0  0  0  0  0
    0.2170   -0.0710   -0.6340 C   0  0  0  0  0  0  0  0  0  0  0  0
    1.3770    0.4630   -1.0670 O   0  0  0  0  0  0  0  0  0  0  0  0
    2.5280    0.7780   -0.4100 C   0  0  0  0  0  0  0  0  0  0  0  0
    3.6750    0.0500   -0.2340 C   0  0  0  0  0  0  0  0  0  0  0  0
    4.5820    0.8130    0.5220 C   0  0  0  0  0  0  0  0  0  0  0  0
    3.9820    1.9450    0.7750 O   0  0  0  0  0  0  0  0  0  0  0  0
    2.7650    1.9710    0.2450 C   0  0  0  0  0  0  0  0  0  0  0  0
    0.1230   -1.3070   -0.0570 C   0  0  0  0  0  0  0  0  0  0  0  0
    1.3100   -2.1620    0.1260 C   0  0  0  0  0  0  0  0  0  0  0  0
   -1.1040   -1.8220    0.3780 C   0  0  0  0  0  0  0  0  0  0  0  0
   -2.2460   -1.0760    0.2280 C   0  0  0  0  0  0  0  0  0  0  0  0
   -3.5250   -1.5580    0.6570 N   0  0  0  0  0  0  0  0  0  0  0  0
  1  2  1  0
  2  3  1  0
  3  4  2  0
  3 15  1  0
  4  5  1  0
  5  6  1  0
  5 12  2  0
  6  7  1  0
  7  8  1  0
  7 11  2  0
  8  9  2  0
  9 10  1  0
 10 11  1  0
 12 13  1  0
 12 14  1  0
 14 15  2  0
 15 16  1  0
M  END
