
     RDKit          3D

 22 24  0  0  0  0  0  0  0  0999 V2000
   -2.1440    1.1150   -0.0110 O   0  0  0  0  0  0  0  0  0  0  0  0
   -2.1240   -0.1410   -0.0480 C   0  0  0  0  0  0  0  0  0  0  0  0
   -3.4100   -0.8590    0.1330 C   0  0  0  0  0  0  0  0  0  0  0  0
   -4.5180    0.0150    0.3290 N   0  0  0  0  0  0  0  0  0  0  0  0
   -4.9470    0.4600    1.5380 C   0  0  0  0  0  0  0  0  0  0  0  0
   -4.4210    0.1550    2.6350 O   0  0  0  0  0  0  0  0  0  0  0  0
   -6.0050    1.2550    1.2990 N   0  0  0  0  0  0  0  0  0  0  0  0
   -6.2200    1.3000   -0.0070 N   0  0  0  0  0  0  0  0  0  0  0  0
   -5.3150    0.5410   -0.6340 C   0  0  0  0  0  0  0  0  0  0  0  0
   -5.2230    0.3550   -1.8740 O   0  0  0  0  0  0  0  0  0  0  0  0
   -0.9240   -0.8390   -0.2540 N   0  0  0  0  0  0  0  0  0  0  0  0
    0.3390   -0.1810   -0.4320 C   0  0  0  0  0  0  0  0  0  0  0  0
    0.3400    1.0760   -0.3980 O   0  0  0  0  0  0  0  0  0  0  0  0
    1.6060   -0.9430   -0.6500 C   0  0  1  0  0  0  0  0  0  0  0  0
    2.4910   -0.3740   -1.7780 C   0  0  0  0  0  0  0  0  0  0  0  0
    2.8620   -0.2450   -0.3120 C   0  0  1  0  0  0  0  0  0  0  0  0
    2.7470    1.0710    0.1650 O   0  0  0  0  0  0  0  0  0  0  0  0
    4.0980   -0.9450    0.1190 C   0  0  1  0  0  0  0  0  0  0  0  0
    5.2920   -0.2190   -0.3600 N   0  0  0  0  0  0  0  0  0  0  0  0
    5.3090    0.9610    0.2510 O   0  0  0  0  0  0  0  0  0  0  0  0
    5.5840    0.7370    1.6220 C   0  0  0  0  0  0  0  0  0  0  0  0
    4.3570   -0.6110    1.9140 S   0  0  0  0  0  0  0  0  0  0  0  0
  1  2  2  0
  2  3  1  0
  2 11  1  0
  3  4  1  0
  4  5  1  0
  4  9  1  0
  5  6  2  0
  5  7  1  0
  7  8  1  0
  8  9  1  0
  9 10  2  0
 11 12  1  0
 12 13  2  0
 14 12  1  1
 14 15  1  0
 14 16  1  0
 15 16  1  0
 16 17  1  1
 16 18  1  0
 18 19  1  6
 18 22  1  0
 19 20  1  0
 20 21  1  0
 21 22  1  0
M  END
