
     RDKit          3D

 16 17  0  0  0  0  0  0  0  0999 V2000
   -3.7750   -1.9370    0.5550 C   0  0  0  0  0  0  0  0  0  0  0  0
   -2.4310   -1.5860    0.3960 O   0  0  0  0  0  0  0  0  0  0  0  0
   -2.0180   -0.3180   -0.0120 C   0  0  0  0  0  0  0  0  0  0  0  0
   -3.0130    0.6060   -0.2620 C   0  0  0  0  0  0  0  0  0  0  0  0
   -2.6220    1.8630   -0.6660 C   0  0  0  0  0  0  0  0  0  0  0  0
   -1.2720    2.1780   -0.8140 C   0  0  0  0  0  0  0  0  0  0  0  0
   -0.2830    1.2460   -0.5620 C   0  0  0  0  0  0  0  0  0  0  0  0
   -0.6810   -0.0110   -0.1570 C   0  0  0  0  0  0  0  0  0  0  0  0
    0.2920   -0.9790    0.1060 O   0  0  0  0  0  0  0  0  0  0  0  0
    1.6480   -0.7010   -0.0300 C   0  0  0  0  0  0  0  0  0  0  0  0
    2.3710   -1.2490   -0.9820 C   0  0  0  0  0  0  0  0  0  0  0  0
    3.8050   -0.9760   -1.1540 C   0  0  0  0  0  0  0  0  0  0  0  0
    4.2640   -0.0840   -0.1940 O   0  0  0  0  0  0  0  0  0  0  0  0
    3.5170    0.4790    0.7850 C   0  0  0  0  0  0  0  0  0  0  0  0
    2.2240    0.2260    0.9310 C   0  0  0  0  0  0  0  0  0  0  0  0
    1.4750    0.8330    1.9660 N   0  0  0  0  0  0  0  0  0  0  0  0
  1  2  1  0
  2  3  1  0
  3  4  2  0
  3  8  1  0
  4  5  1  0
  5  6  2  0
  6  7  1  0
  7  8  2  0
  8  9  1  0
  9 10  1  0
 10 11  2  0
 10 15  1  0
 11 12  1  0
 12 13  1  0
 13 14  1  0
 14 15  2  0
 15 16  1  0
M  END
