
     RDKit          3D

 26 28  0  0  0  0  0  0  0  0999 V2000
   -4.4040   -1.0380    0.0620 N   0  0  0  0  0  0  0  0  0  0  0  0
   -3.1370   -0.2840   -0.0270 C   0  0  1  0  0  0  0  0  0  0  0  0
   -2.3450   -0.4600    1.2300 C   0  0  0  0  0  0  0  0  0  0  0  0
   -1.0840    0.2420    1.2210 N   0  0  0  0  0  0  0  0  0  0  0  0
    0.0580   -0.3500    0.8350 C   0  0  0  0  0  0  0  0  0  0  0  0
    0.0690   -1.5770    0.4690 O   0  0  0  0  0  0  0  0  0  0  0  0
    1.2270    0.3030    0.8180 N   0  0  0  0  0  0  0  0  0  0  0  0
    2.4470   -0.3560    0.3940 C   0  0  0  0  0  0  0  0  0  0  0  0
    2.6870   -0.2010   -1.0840 C   0  0  0  0  0  0  0  0  0  0  0  0
    1.8980    0.5360   -1.9000 C   0  0  0  0  0  0  0  0  0  0  0  0
    2.2230    0.5890   -3.1680 C   0  0  0  0  0  0  0  0  0  0  0  0
    3.6430   -0.3730   -3.3470 S   0  0  0  0  0  0  0  0  0  0  0  0
    3.7470   -0.8220   -1.6510 C   0  0  0  0  0  0  0  0  0  0  0  0
    4.7820   -1.6850   -1.0480 C   0  0  0  0  0  0  0  0  0  0  0  0
    5.7000   -2.1720   -1.7670 O   0  0  0  0  0  0  0  0  0  0  0  0
    4.7600   -1.9660    0.3000 O   0  0  0  0  0  0  0  0  0  0  0  0
    1.2120    1.5690    1.2000 C   0  0  0  0  0  0  0  0  0  0  0  0
    2.3150    2.1820    1.1830 O   0  0  0  0  0  0  0  0  0  0  0  0
    0.0210    2.2510    1.6220 C   0  0  0  0  0  0  0  0  0  0  0  0
    0.0370    3.5790    2.0190 C   0  0  0  0  0  0  0  0  0  0  0  0
   -1.7130    3.8940    2.4330 S   0  0  0  0  0  0  0  0  0  0  0  0
   -2.2800    2.2580    2.0440 C   0  0  0  0  0  0  0  0  0  0  0  0
   -1.1210    1.5720    1.6260 C   0  0  0  0  0  0  0  0  0  0  0  0
   -2.4730   -0.6830   -1.2670 C   0  0  0  0  0  0  0  0  0  0  0  0
   -1.4390   -0.1170   -1.7120 O   0  0  0  0  0  0  0  0  0  0  0  0
   -2.9720   -1.7370   -2.0330 O   0  0  0  0  0  0  0  0  0  0  0  0
  2  1  1  1
  2  3  1  0
  2 24  1  0
  3  4  1  0
  4  5  1  0
  4 23  1  0
  5  6  2  0
  5  7  1  0
  7  8  1  0
  7 17  1  0
  8  9  1  0
  9 10  1  0
  9 13  2  0
 10 11  2  0
 11 12  1  0
 12 13  1  0
 13 14  1  0
 14 15  2  0
 14 16  1  0
 17 18  2  0
 17 19  1  0
 19 20  2  0
 19 23  1  0
 20 21  1  0
 21 22  1  0
 22 23  2  0
 24 25  2  0
 24 26  1  0
M  CHG  1   1   1
M  END
