
     RDKit          3D

 20 21  0  0  0  0  0  0  0  0999 V2000
   -0.9410   -2.6000   -0.3040 C   0  0  0  0  0  0  0  0  0  0  0  0
   -0.3880   -1.3220    0.2090 C   0  0  0  0  0  0  0  0  0  0  0  0
   -1.1040   -0.2790    0.7490 C   0  0  0  0  0  0  0  0  0  0  0  0
   -2.5790   -0.2520    0.9200 C   0  0  0  0  0  0  0  0  0  0  0  0
   -3.3030   -0.0080   -0.3690 C   0  0  1  0  0  0  0  0  0  0  0  0
   -4.7810    0.0030   -0.0680 C   0  0  0  0  0  0  0  0  0  0  0  0
   -2.8630    1.3280   -0.9620 C   0  0  2  0  0  0  0  0  0  0  0  0
   -3.1460    2.3620   -0.0870 F   0  0  0  0  0  0  0  0  0  0  0  0
   -3.5990    1.4740   -2.1310 F   0  0  0  0  0  0  0  0  0  0  0  0
   -1.5240    1.3050   -1.2730 F   0  0  0  0  0  0  0  0  0  0  0  0
   -0.2120    0.6710    1.0790 N   0  0  0  0  0  0  0  0  0  0  0  0
    1.0270    0.2900    0.7780 C   0  0  0  0  0  0  0  0  0  0  0  0
    0.9570   -0.9800    0.2190 C   0  0  0  0  0  0  0  0  0  0  0  0
    2.1500   -1.6950   -0.2200 C   0  0  0  0  0  0  0  0  0  0  0  0
    2.0420   -2.8440   -0.7220 O   0  0  0  0  0  0  0  0  0  0  0  0
    3.3680   -1.0560   -0.0600 O   0  0  0  0  0  0  0  0  0  0  0  0
    3.3560    0.3570   -0.0350 C   0  0  1  0  0  0  0  0  0  0  0  0
    4.7160    0.8810    0.4390 C   0  0  0  0  0  0  0  0  0  0  0  0
    3.1520    0.8370   -1.4510 C   0  0  0  0  0  0  0  0  0  0  0  0
    2.3410    0.9300    0.9230 C   0  0  0  0  0  0  0  0  0  0  0  0
  1  2  1  0
  2  3  2  0
  2 13  1  0
  3  4  1  0
  3 11  1  0
  4  5  1  0
  5  6  1  1
  5  7  1  0
  7  8  1  1
  7  9  1  0
  7 10  1  0
 11 12  1  0
 12 13  2  0
 12 20  1  0
 13 14  1  0
 14 15  2  0
 14 16  1  0
 16 17  1  0
 17 18  1  1
 17 19  1  0
 17 20  1  0
M  END
