
     RDKit          3D

 23 25  0  0  0  0  0  0  0  0999 V2000
   -5.5710    2.3200    0.8510 C   0  0  0  0  0  0  0  0  0  0  0  0
   -4.9820    1.9550   -0.7610 S   0  0  1  0  0  0  0  0  0  0  0  0
   -6.1720    1.5570   -1.6170 O   0  0  0  0  0  0  0  0  0  0  0  0
   -4.4170    3.2000   -1.4150 O   0  0  0  0  0  0  0  0  0  0  0  0
   -3.7630    0.7650   -0.7860 N   0  0  0  0  0  0  0  0  0  0  0  0
   -3.8980   -0.4390   -0.3420 C   0  0  0  0  0  0  0  0  0  0  0  0
   -5.1560   -0.9140    0.2450 C   0  0  0  0  0  0  0  0  0  0  0  0
   -5.8340   -2.2980   -0.6450 Cl  0  0  0  0  0  0  0  0  0  0  0  0
   -2.7750   -1.2950   -0.4470 N   0  0  0  0  0  0  0  0  0  0  0  0
   -1.4460   -0.9120   -0.2200 C   0  0  0  0  0  0  0  0  0  0  0  0
   -1.0880    0.3300    0.2320 C   0  0  0  0  0  0  0  0  0  0  0  0
    0.2560    0.6090    0.4170 C   0  0  0  0  0  0  0  0  0  0  0  0
    1.2370   -0.3180    0.1640 C   0  0  0  0  0  0  0  0  0  0  0  0
    0.8880   -1.5810   -0.2940 C   0  0  0  0  0  0  0  0  0  0  0  0
   -0.4370   -1.8310   -0.4690 C   0  0  0  0  0  0  0  0  0  0  0  0
    1.8650   -2.5810   -0.5730 N   0  0  0  0  0  0  0  0  0  0  0  0
    3.2550   -2.3040   -0.3850 C   0  0  0  0  0  0  0  0  0  0  0  0
    3.5240   -0.9480    0.0990 C   0  0  0  0  0  0  0  0  0  0  0  0
    4.8980   -0.5880    0.3150 N   0  0  0  0  0  0  0  0  0  0  0  0
    5.2810    0.7680    0.6340 C   0  0  2  0  0  0  0  0  0  0  0  0
    4.9960    1.8860   -0.2710 C   0  0  0  0  0  0  0  0  0  0  0  0
    6.3860    1.3170   -0.2710 C   0  0  0  0  0  0  0  0  0  0  0  0
    2.6220   -0.0570    0.3460 N   0  0  0  0  0  0  0  0  0  0  0  0
  2  1  1  1
  2  3  2  0
  2  4  2  0
  2  5  1  0
  5  6  2  3
  6  7  1  0
  6  9  1  0
  7  8  1  0
  9 10  1  0
 10 11  2  0
 10 15  1  0
 11 12  1  0
 12 13  2  0
 13 14  1  0
 13 23  1  0
 14 15  2  0
 14 16  1  0
 16 17  1  0
 17 18  1  0
 18 19  1  0
 18 23  2  0
 20 19  1  6
 20 21  1  0
 20 22  1  0
 21 22  1  0
M  END
