
     RDKit          3D

 23 25  0  0  0  0  0  0  0  0999 V2000
   -5.8430   -0.4330   -0.8090 C   0  0  0  0  0  0  0  0  0  0  0  0
   -4.4740    0.1100   -0.4430 C   0  0  2  0  0  0  0  0  0  0  0  0
   -4.1120   -0.2330    0.9810 C   0  0  0  0  0  0  0  0  0  0  0  0
   -2.8150    0.2610    1.3760 N   0  0  0  0  0  0  0  0  0  0  0  0
   -1.5790   -0.1890    0.8440 C   0  0  0  0  0  0  0  0  0  0  0  0
   -1.4740   -1.2910    0.0250 C   0  0  0  0  0  0  0  0  0  0  0  0
   -0.2640   -1.7050   -0.4910 C   0  0  0  0  0  0  0  0  0  0  0  0
    0.9070   -1.0080   -0.1930 C   0  0  0  0  0  0  0  0  0  0  0  0
    2.1880   -1.1400   -0.5160 N   0  0  0  0  0  0  0  0  0  0  0  0
    2.9420   -0.1780    0.0480 C   0  0  0  0  0  0  0  0  0  0  0  0
    4.3780    0.0130   -0.0680 C   0  0  0  0  0  0  0  0  0  0  0  0
    5.0860   -0.8390   -0.8120 N   0  0  0  0  0  0  0  0  0  0  0  0
    6.4170   -0.7070   -0.9530 N   0  0  0  0  0  0  0  0  0  0  0  0
    7.0560    0.2920   -0.3410 C   0  0  0  0  0  0  0  0  0  0  0  0
    8.3010    0.4460   -0.4500 O   0  0  0  0  0  0  0  0  0  0  0  0
    6.3760    1.2090    0.4460 C   0  0  0  0  0  0  0  0  0  0  0  0
    5.0160    1.0490    0.5710 C   0  0  0  0  0  0  0  0  0  0  0  0
    4.1310    2.1900    1.5570 Cl  0  0  0  0  0  0  0  0  0  0  0  0
    2.0680    0.5870    0.7590 N   0  0  0  0  0  0  0  0  0  0  0  0
    0.8130    0.0800    0.6150 C   0  0  0  0  0  0  0  0  0  0  0  0
   -0.4020    0.4840    1.1230 C   0  0  0  0  0  0  0  0  0  0  0  0
   -4.6100    1.9060   -0.5350 S   0  0  0  0  0  0  0  0  0  0  0  0
   -5.8860    2.3560   -1.1910 O   0  0  0  0  0  0  0  0  0  0  0  0
  2  1  1  1
  2  3  1  0
  2 22  1  0
  3  4  1  0
  4  5  1  0
  5  6  2  0
  5 21  1  0
  6  7  1  0
  7  8  2  0
  8  9  1  0
  8 20  1  0
  9 10  1  0
 10 11  1  0
 10 19  2  0
 11 12  2  0
 11 17  1  0
 12 13  1  0
 13 14  1  0
 14 15  2  0
 14 16  1  0
 16 17  2  0
 17 18  1  0
 19 20  1  0
 20 21  2  0
 22 23  2  0
M  END
