
     RDKit          3D

 23 25  0  0  0  0  0  0  0  0999 V2000
    2.2570    1.9690    1.3300 O   0  0  0  0  0  0  0  0  0  0  0  0
    2.5740    0.9590    0.6540 C   0  0  0  0  0  0  0  0  0  0  0  0
    1.5310    0.1040    0.1740 N   0  0  0  0  0  0  0  0  0  0  0  0
    0.1460    0.4020    0.4650 C   0  0  2  0  0  0  0  0  0  0  0  0
   -0.5080   -0.7530    1.1810 C   0  0  0  0  0  0  0  0  0  0  0  0
   -1.9780   -0.6250    1.3140 C   0  0  0  0  0  0  0  0  0  0  0  0
   -2.6450    0.0840    0.2980 N   0  0  0  0  0  0  0  0  0  0  0  0
   -4.0470   -0.1960    0.0570 C   0  0  0  0  0  0  0  0  0  0  0  0
   -4.4100   -1.3700   -0.3950 C   0  0  0  0  0  0  0  0  0  0  0  0
   -5.7410   -1.8870   -0.7130 C   0  0  0  0  0  0  0  0  0  0  0  0
   -7.0400   -0.6850   -0.4210 S   0  0  0  0  0  0  0  0  0  0  0  0
   -6.2620    0.7960    0.1800 C   0  0  0  0  0  0  0  0  0  0  0  0
   -4.9670    0.8870    0.3450 C   0  0  0  0  0  0  0  0  0  0  0  0
   -4.3830    2.4440    0.9540 Cl  0  0  0  0  0  0  0  0  0  0  0  0
   -2.0120    1.0740   -0.5160 C   0  0  0  0  0  0  0  0  0  0  0  0
   -0.5840    0.6680   -0.8320 C   0  0  0  0  0  0  0  0  0  0  0  0
    3.9700    0.7070    0.3920 C   0  0  0  0  0  0  0  0  0  0  0  0
    4.9880    1.4720    0.8160 N   0  0  0  0  0  0  0  0  0  0  0  0
    6.1400    0.9900    0.4220 N   0  0  0  0  0  0  0  0  0  0  0  0
    5.8790   -0.1210   -0.2790 C   0  0  0  0  0  0  0  0  0  0  0  0
    6.9120   -0.9840   -0.9100 C   0  0  0  0  0  0  0  0  0  0  0  0
    7.1290   -0.5110   -2.2050 O   0  0  0  0  0  0  0  0  0  0  0  0
    4.5500   -0.2950   -0.2980 N   0  0  0  0  0  0  0  0  0  0  0  0
  1  2  2  0
  2  3  1  0
  2 17  1  0
  4  3  1  6
  4  5  1  0
  4 16  1  0
  5  6  1  0
  6  7  1  0
  7  8  1  0
  7 15  1  0
  8  9  2  0
  8 13  1  0
  9 10  1  0
 10 11  1  0
 11 12  1  0
 12 13  2  0
 13 14  1  0
 15 16  1  0
 17 18  2  0
 17 23  1  0
 18 19  1  0
 19 20  1  0
 20 21  1  0
 20 23  2  0
 21 22  1  0
M  END
