
     RDKit          3D

 34 37  0  0  0  0  0  0  0  0999 V2000
   -4.7760    4.0360    0.5080 C   0  0  0  0  0  0  0  0  0  0  0  0
   -5.2590    2.9470    1.1960 O   0  0  0  0  0  0  0  0  0  0  0  0
   -6.1350    2.1620    0.4890 C   0  0  0  0  0  0  0  0  0  0  0  0
   -5.4420    1.6460   -0.7180 C   0  0  0  0  0  0  0  0  0  0  0  0
   -4.7650    0.5980   -0.9550 N   0  0  0  0  0  0  0  0  0  0  0  0
   -4.2280    0.3190   -2.1010 C   0  0  0  0  0  0  0  0  0  0  0  0
   -3.4360   -0.9260   -2.3440 C   0  0  0  0  0  0  0  0  0  0  0  0
   -2.9260   -1.1710   -3.4670 O   0  0  0  0  0  0  0  0  0  0  0  0
   -3.2590   -1.8270   -1.3210 N   0  0  0  0  0  0  0  0  0  0  0  0
   -2.3900   -2.0340   -0.4520 C   0  0  0  0  0  0  0  0  0  0  0  0
   -1.2120   -1.2650   -0.3060 N   0  0  0  0  0  0  0  0  0  0  0  0
   -0.6770   -0.5420   -1.4090 C   0  0  0  0  0  0  0  0  0  0  0  0
    0.6220    0.1370   -1.0350 C   0  0  0  0  0  0  0  0  0  0  0  0
    1.3830   -0.0350    0.0980 C   0  0  0  0  0  0  0  0  0  0  0  0
    2.4850    0.7910    0.0190 C   0  0  0  0  0  0  0  0  0  0  0  0
    3.5810    1.0520    0.8380 C   0  0  0  0  0  0  0  0  0  0  0  0
    4.5520    1.9600    0.4770 C   0  0  0  0  0  0  0  0  0  0  0  0
    5.7100    2.2270    1.3570 C   0  0  0  0  0  0  0  0  0  0  0  0
    6.9730    1.5630    0.8620 C   0  0  1  0  0  0  0  0  0  0  0  0
    8.0710    1.9220    1.8580 C   0  0  0  0  0  0  0  0  0  0  0  0
    6.8470    0.0550    0.8570 C   0  0  0  0  0  0  0  0  0  0  0  0
    4.4240    2.6190   -0.7240 C   0  0  0  0  0  0  0  0  0  0  0  0
    5.6520    3.7950   -1.2230 Cl  0  0  0  0  0  0  0  0  0  0  0  0
    3.3410    2.3630   -1.5360 C   0  0  0  0  0  0  0  0  0  0  0  0
    2.3520    1.4470   -1.1840 C   0  0  0  0  0  0  0  0  0  0  0  0
    1.2540    1.0320   -1.7580 O   0  0  0  0  0  0  0  0  0  0  0  0
   -2.5360   -3.1090    0.4940 N   0  0  0  0  0  0  0  0  0  0  0  0
   -3.3790   -3.0380    1.6640 C   0  0  0  0  0  0  0  0  0  0  0  0
   -4.3010   -4.2350    1.6270 C   0  0  0  0  0  0  0  0  0  0  0  0
   -3.6700   -5.4220    1.3430 O   0  0  0  0  0  0  0  0  0  0  0  0
   -2.2970   -5.3690    1.3040 C   0  0  0  0  0  0  0  0  0  0  0  0
   -1.8060   -4.3370    0.2770 C   0  0  0  0  0  0  0  0  0  0  0  0
   -4.3960    1.2060   -3.1320 C   0  0  0  0  0  0  0  0  0  0  0  0
   -5.3910    2.4690   -2.3060 S   0  0  0  0  0  0  0  0  0  0  0  0
  1  2  1  0
  2  3  1  0
  3  4  1  0
  4  5  2  0
  4 34  1  0
  5  6  1  0
  6  7  1  0
  6 33  2  0
  7  8  2  0
  7  9  1  0
  9 10  2  3
 10 11  1  0
 10 27  1  0
 11 12  1  0
 12 13  1  0
 13 14  2  0
 13 26  1  0
 14 15  1  0
 15 16  2  0
 15 25  1  0
 16 17  1  0
 17 18  1  0
 17 22  2  0
 18 19  1  0
 19 20  1  1
 19 21  1  0
 22 23  1  0
 22 24  1  0
 24 25  2  0
 25 26  1  0
 27 28  1  0
 27 32  1  0
 28 29  1  0
 29 30  1  0
 30 31  1  0
 31 32  1  0
 33 34  1  0
M  END
