
     RDKit          3D

 34 37  0  0  0  0  0  0  0  0999 V2000
   -6.4700    1.0670    3.6520 C   0  0  0  0  0  0  0  0  0  0  0  0
   -6.3420    0.3720    2.5330 C   0  0  0  0  0  0  0  0  0  0  0  0
   -7.5700    0.0870    1.7080 C   0  0  0  0  0  0  0  0  0  0  0  0
   -7.3880   -1.0310    0.8640 O   0  0  0  0  0  0  0  0  0  0  0  0
   -6.1670   -1.4860    0.4470 C   0  0  0  0  0  0  0  0  0  0  0  0
   -6.0850   -2.3200   -0.4890 O   0  0  0  0  0  0  0  0  0  0  0  0
   -4.9560   -1.0090    1.0840 C   0  0  0  0  0  0  0  0  0  0  0  0
   -5.0580   -0.1240    2.0750 C   0  0  0  0  0  0  0  0  0  0  0  0
   -3.8360    0.3990    2.7680 C   0  0  0  0  0  0  0  0  0  0  0  0
   -2.3340   -0.3230    2.0670 S   0  0  0  0  0  0  0  0  0  0  0  0
   -2.1010    0.2330    0.3810 C   0  0  0  0  0  0  0  0  0  0  0  0
   -1.0020   -0.2430   -0.2850 C   0  0  0  0  0  0  0  0  0  0  0  0
   -0.7150    0.1250   -1.5970 C   0  0  0  0  0  0  0  0  0  0  0  0
    0.4790   -0.4180   -2.2660 C   0  0  0  0  0  0  0  0  0  0  0  0
    0.8050   -0.0610   -3.5480 C   0  0  0  0  0  0  0  0  0  0  0  0
    1.9600   -0.6290   -4.0910 C   0  0  0  0  0  0  0  0  0  0  0  0
    2.7170   -1.5070   -3.3470 C   0  0  0  0  0  0  0  0  0  0  0  0
    3.7610   -2.0370   -3.8030 O   0  0  0  0  0  0  0  0  0  0  0  0
    2.3590   -1.8310   -2.0900 N   0  0  0  0  0  0  0  0  0  0  0  0
    3.1540   -2.7500   -1.3220 C   0  0  0  0  0  0  0  0  0  0  0  0
    4.2210   -2.0570   -0.5230 C   0  0  0  0  0  0  0  0  0  0  0  0
    4.9820   -2.7500    0.1810 O   0  0  0  0  0  0  0  0  0  0  0  0
    4.3800   -0.6560   -0.5470 N   0  0  0  0  0  0  0  0  0  0  0  0
    5.3380    0.1080    0.1510 C   0  0  0  0  0  0  0  0  0  0  0  0
    6.4250   -0.3900    0.8210 C   0  0  0  0  0  0  0  0  0  0  0  0
    7.3100    0.4530    1.5020 C   0  0  0  0  0  0  0  0  0  0  0  0
    7.1410    1.8150    1.5370 C   0  0  0  0  0  0  0  0  0  0  0  0
    8.2500    2.8640    2.3910 Cl  0  0  0  0  0  0  0  0  0  0  0  0
    6.0530    2.3320    0.8670 C   0  0  0  0  0  0  0  0  0  0  0  0
    5.1860    1.4940    0.1990 C   0  0  0  0  0  0  0  0  0  0  0  0
    1.2780   -1.2880   -1.6060 N   0  0  0  0  0  0  0  0  0  0  0  0
   -1.5920    0.9910   -2.1890 C   0  0  0  0  0  0  0  0  0  0  0  0
   -2.7080    1.4610   -1.4850 C   0  0  0  0  0  0  0  0  0  0  0  0
   -2.9380    1.0750   -0.2230 N   0  0  0  0  0  0  0  0  0  0  0  0
  1  2  2  0
  2  3  1  0
  2  8  1  0
  3  4  1  0
  4  5  1  0
  5  6  2  0
  5  7  1  0
  7  8  2  0
  8  9  1  0
  9 10  1  0
 10 11  1  0
 11 12  2  0
 11 34  1  0
 12 13  1  0
 13 14  1  0
 13 32  2  0
 14 15  1  0
 14 31  2  0
 15 16  2  0
 16 17  1  0
 17 18  2  0
 17 19  1  0
 19 20  1  0
 19 31  1  0
 20 21  1  0
 21 22  2  0
 21 23  1  0
 23 24  1  0
 24 25  2  0
 24 30  1  0
 25 26  1  0
 26 27  2  0
 27 28  1  0
 27 29  1  0
 29 30  2  0
 32 33  1  0
 33 34  2  0
M  END
