
     RDKit          3D

 35 37  0  0  0  0  0  0  0  0999 V2000
   -4.6480    0.2070   -1.9650 C   0  0  0  0  0  0  0  0  0  0  0  0
   -3.3070    0.2430   -2.6220 C   0  0  2  0  0  0  0  0  0  0  0  0
   -3.5160   -0.2270   -4.0720 C   0  0  0  0  0  0  0  0  0  0  0  0
   -2.2830   -0.6900   -2.0290 C   0  0  0  0  0  0  0  0  0  0  0  0
   -1.9710   -0.5060   -0.6800 N   0  0  0  0  0  0  0  0  0  0  0  0
   -0.9510    0.3920   -0.3010 C   0  0  0  0  0  0  0  0  0  0  0  0
    0.4540   -0.0140   -0.6250 C   0  0  1  0  0  0  0  0  0  0  0  0
    0.7020   -0.1850   -1.9690 O   0  0  0  0  0  0  0  0  0  0  0  0
    1.4580    0.9630   -0.0380 C   0  0  2  0  0  0  0  0  0  0  0  0
    1.1550    2.3360   -0.4240 C   0  0  0  0  0  0  0  0  0  0  0  0
    2.1820    3.2640    0.1760 C   0  0  0  0  0  0  0  0  0  0  0  0
    2.0050    3.8150    1.4390 C   0  0  0  0  0  0  0  0  0  0  0  0
    2.9100    4.6610    2.0120 C   0  0  0  0  0  0  0  0  0  0  0  0
    4.0430    4.9900    1.3290 C   0  0  0  0  0  0  0  0  0  0  0  0
    4.2450    4.4570    0.0730 C   0  0  0  0  0  0  0  0  0  0  0  0
    3.3230    3.6000   -0.5030 C   0  0  0  0  0  0  0  0  0  0  0  0
    2.7460    0.4320   -0.2390 N   0  0  0  0  0  0  0  0  0  0  0  0
    3.5420   -0.0400    0.8120 C   0  0  0  0  0  0  0  0  0  0  0  0
    3.0680    0.0280    1.9510 O   0  0  0  0  0  0  0  0  0  0  0  0
    4.8050   -0.5750    0.6890 O   0  0  0  0  0  0  0  0  0  0  0  0
    5.6110   -1.0440    1.7040 C   0  0  1  0  0  0  0  0  0  0  0  0
    5.9520   -2.5020    1.6700 C   0  0  0  0  0  0  0  0  0  0  0  0
    7.1340   -2.5080    2.6270 C   0  0  0  0  0  0  0  0  0  0  0  0
    7.7100   -1.2690    2.6080 O   0  0  0  0  0  0  0  0  0  0  0  0
    6.9560   -0.4180    1.8390 C   0  0  0  0  0  0  0  0  0  0  0  0
   -2.4410   -1.6880    0.4160 S   0  0  1  0  0  0  0  0  0  0  0  0
   -1.8590   -3.0250   -0.0510 O   0  0  0  0  0  0  0  0  0  0  0  0
   -1.8930   -1.4330    1.8160 O   0  0  0  0  0  0  0  0  0  0  0  0
   -4.1640   -1.9310    0.5020 C   0  0  0  0  0  0  0  0  0  0  0  0
   -4.7960   -2.9040   -0.2820 C   0  0  0  0  0  0  0  0  0  0  0  0
   -6.1550   -3.0860   -0.1970 C   0  0  0  0  0  0  0  0  0  0  0  0
   -6.9570   -2.3430    0.6410 C   0  0  0  0  0  0  0  0  0  0  0  0
   -8.3630   -2.5670    0.6940 N   0  0  0  0  0  0  0  0  0  0  0  0
   -6.3390   -1.3860    1.4130 C   0  0  0  0  0  0  0  0  0  0  0  0
   -4.9880   -1.1930    1.3390 C   0  0  0  0  0  0  0  0  0  0  0  0
  2  1  1  1
  2  3  1  0
  2  4  1  0
  4  5  1  0
  5  6  1  0
 26  5  1  6
  6  7  1  0
  7  8  1  6
  7  9  1  0
  9 10  1  6
  9 17  1  0
 10 11  1  0
 11 12  2  0
 11 16  1  0
 12 13  1  0
 13 14  2  0
 14 15  1  0
 15 16  2  0
 17 18  1  0
 18 19  2  0
 18 20  1  0
 21 20  1  6
 21 22  1  0
 21 25  1  0
 22 23  1  0
 23 24  1  0
 24 25  1  0
 26 27  2  0
 26 28  2  0
 26 29  1  0
 29 30  2  0
 29 35  1  0
 30 31  1  0
 31 32  2  0
 32 33  1  0
 32 34  1  0
 34 35  2  0
M  END
