
     RDKit          3D

 34 37  0  0  0  0  0  0  0  0999 V2000
   -2.3390   -0.5620    1.4210 O   0  0  0  0  0  0  0  0  0  0  0  0
   -3.0480    0.3640    0.8530 C   0  0  0  0  0  0  0  0  0  0  0  0
   -2.3760    1.4770    0.5400 O   0  0  0  0  0  0  0  0  0  0  0  0
   -1.0210    1.6710    0.7850 C   0  0  0  0  0  0  0  0  0  0  0  0
   -0.3000    0.6000    0.0360 C   0  0  0  0  0  0  0  0  0  0  0  0
   -0.3550   -0.3350   -0.6700 N   0  0  0  0  0  0  0  0  0  0  0  0
    0.6490   -1.0270   -1.1120 N   0  0  0  0  0  0  0  0  0  0  0  0
    1.7710   -0.8140   -0.8650 C   0  0  0  0  0  0  0  0  0  0  0  0
    3.0900   -1.3280   -1.1490 N   0  0  0  0  0  0  0  0  0  0  0  0
    3.8990   -1.6540   -0.2090 C   0  0  0  0  0  0  0  0  0  0  0  0
    5.1750   -2.1510   -0.5380 N   0  0  0  0  0  0  0  0  0  0  0  0
    5.3460   -3.4570   -0.9090 C   0  0  0  0  0  0  0  0  0  0  0  0
    6.6610   -3.6330   -1.1590 C   0  0  0  0  0  0  0  0  0  0  0  0
    7.3060   -2.4620   -0.9500 C   0  0  0  0  0  0  0  0  0  0  0  0
    6.3420   -1.5170   -0.5510 C   0  0  0  0  0  0  0  0  0  0  0  0
    6.6300   -0.1330   -0.2310 C   0  0  0  0  0  0  0  0  0  0  0  0
    7.9420    0.3260   -0.3130 C   0  0  0  0  0  0  0  0  0  0  0  0
    8.2020    1.6390   -0.0060 C   0  0  0  0  0  0  0  0  0  0  0  0
    7.2410    2.5430    0.3810 C   0  0  0  0  0  0  0  0  0  0  0  0
    7.6730    4.2190    0.7570 Cl  0  0  0  0  0  0  0  0  0  0  0  0
    5.9500    2.1010    0.4640 C   0  0  0  0  0  0  0  0  0  0  0  0
    5.6730    0.7610    0.1540 C   0  0  0  0  0  0  0  0  0  0  0  0
    1.5880    0.6990    0.2570 S   0  0  0  0  0  0  0  0  0  0  0  0
   -4.4930    0.0410    0.6410 C   0  0  0  0  0  0  0  0  0  0  0  0
   -4.8650   -1.1340    1.0560 C   0  0  0  0  0  0  0  0  0  0  0  0
   -6.0550   -1.8550    1.0730 C   0  0  0  0  0  0  0  0  0  0  0  0
   -6.0150   -3.1040    1.6340 C   0  0  0  0  0  0  0  0  0  0  0  0
   -4.8550   -3.6230    2.1580 O   0  0  0  0  0  0  0  0  0  0  0  0
   -5.3790    1.0400    0.0620 C   0  0  0  0  0  0  0  0  0  0  0  0
   -4.9360    2.2030   -0.3710 C   0  0  0  0  0  0  0  0  0  0  0  0
   -5.8000    3.2360   -0.9620 C   0  0  0  0  0  0  0  0  0  0  0  0
   -7.0110    2.7180   -1.3690 O   0  0  0  0  0  0  0  0  0  0  0  0
   -7.5830    2.0630   -0.2540 C   0  0  0  0  0  0  0  0  0  0  0  0
   -6.8340    0.7620   -0.0040 C   0  0  0  0  0  0  0  0  0  0  0  0
  1  2  2  0
  2  3  1  0
  2 24  1  0
  3  4  1  0
  4  5  1  0
  5  6  2  0
  5 23  1  0
  6  7  1  0
  7  8  2  0
  8  9  1  0
  8 23  1  0
  9 10  2  3
 10 11  1  0
 11 12  1  0
 11 15  1  0
 12 13  2  0
 13 14  1  0
 14 15  2  0
 15 16  1  0
 16 17  2  0
 16 22  1  0
 17 18  1  0
 18 19  2  0
 19 20  1  0
 19 21  1  0
 21 22  2  0
 24 25  2  3
 24 29  1  0
 25 26  1  0
 26 27  2  3
 27 28  1  0
 29 30  2  0
 29 34  1  0
 30 31  1  0
 31 32  1  0
 32 33  1  0
 33 34  1  0
M  END
