
     RDKit          3D

 34 37  0  0  0  0  0  0  0  0999 V2000
   -4.9040    2.7320   -2.6830 C   0  0  0  0  0  0  0  0  0  0  0  0
   -5.8510    1.9340   -2.2130 C   0  0  0  0  0  0  0  0  0  0  0  0
   -6.2550    1.9800   -0.7970 C   0  0  0  0  0  0  0  0  0  0  0  0
   -6.0450    0.6560   -0.1230 C   0  0  0  0  0  0  0  0  0  0  0  0
   -6.9980   -0.3070   -0.0740 C   0  0  0  0  0  0  0  0  0  0  0  0
   -6.8010   -1.5230    0.5450 C   0  0  0  0  0  0  0  0  0  0  0  0
   -5.5730   -1.7460    1.1310 C   0  0  0  0  0  0  0  0  0  0  0  0
   -5.3640   -2.9610    1.7570 C   0  0  0  0  0  0  0  0  0  0  0  0
   -6.6060   -4.1930    1.8130 Cl  0  0  0  0  0  0  0  0  0  0  0  0
   -4.1410   -3.1770    2.3410 C   0  0  0  0  0  0  0  0  0  0  0  0
   -3.1560   -2.2140    2.3040 C   0  0  0  0  0  0  0  0  0  0  0  0
   -3.3430   -0.9730    1.6750 C   0  0  0  0  0  0  0  0  0  0  0  0
   -2.2530   -0.0210    1.6730 C   0  0  0  0  0  0  0  0  0  0  0  0
   -2.1830    1.0810    1.1270 O   0  0  0  0  0  0  0  0  0  0  0  0
   -1.0850   -0.3780    2.3910 O   0  0  0  0  0  0  0  0  0  0  0  0
    0.0120    0.4710    2.4430 C   0  0  0  0  0  0  0  0  0  0  0  0
    0.5730    0.7430    1.0730 C   0  0  0  0  0  0  0  0  0  0  0  0
    0.2430    1.8090    0.3370 N   0  0  0  0  0  0  0  0  0  0  0  0
    0.9140    1.7320   -0.7900 N   0  0  0  0  0  0  0  0  0  0  0  0
    1.6930    0.6020   -0.7960 C   0  0  0  0  0  0  0  0  0  0  0  0
    2.7780    0.1010   -2.1260 S   0  0  0  0  0  0  0  0  0  0  0  0
    3.6560   -1.3980   -1.6360 C   0  0  1  0  0  0  0  0  0  0  0  0
    4.5040   -1.8400   -2.8370 C   0  0  0  0  0  0  0  0  0  0  0  0
    4.5360   -1.1490   -0.4670 C   0  0  0  0  0  0  0  0  0  0  0  0
    4.3660   -1.8460    0.5650 O   0  0  0  0  0  0  0  0  0  0  0  0
    5.5550   -0.1770   -0.4390 N   0  0  0  0  0  0  0  0  0  0  0  0
    5.8510    0.6820   -1.5670 C   0  0  0  0  0  0  0  0  0  0  0  0
    6.9620    1.6120   -1.1120 C   0  0  0  0  0  0  0  0  0  0  0  0
    6.6110    2.3260    0.0310 O   0  0  0  0  0  0  0  0  0  0  0  0
    6.3150    1.4980    1.0980 C   0  0  0  0  0  0  0  0  0  0  0  0
    6.3940    0.0370    0.7370 C   0  0  0  0  0  0  0  0  0  0  0  0
    1.4450    0.0230    0.3840 N   0  0  0  0  0  0  0  0  0  0  0  0
   -4.5710   -0.7670    1.0940 C   0  0  0  0  0  0  0  0  0  0  0  0
   -4.8060    0.4400    0.4650 C   0  0  0  0  0  0  0  0  0  0  0  0
  1  2  2  0
  2  3  1  0
  3  4  1  0
  4  5  2  0
  4 34  1  0
  5  6  1  0
  6  7  2  0
  7  8  1  0
  7 33  1  0
  8  9  1  0
  8 10  2  0
 10 11  1  0
 11 12  2  0
 12 13  1  0
 12 33  1  0
 13 14  2  0
 13 15  1  0
 15 16  1  0
 16 17  1  0
 17 18  2  0
 17 32  1  0
 18 19  1  0
 19 20  2  0
 20 21  1  0
 20 32  1  0
 21 22  1  0
 22 23  1  6
 22 24  1  0
 24 25  2  0
 24 26  1  0
 26 27  1  0
 26 31  1  0
 27 28  1  0
 28 29  1  0
 29 30  1  0
 30 31  1  0
 33 34  2  0
M  END
