
     RDKit          3D

 34 37  0  0  0  0  0  0  0  0999 V2000
   -2.1290    0.8580    1.3670 C   0  0  0  0  0  0  0  0  0  0  0  0
   -1.0690    0.1130    0.6590 C   0  0  1  0  0  0  0  0  0  0  0  0
   -0.4530   -0.9710    1.5470 C   0  0  0  0  0  0  0  0  0  0  0  0
   -1.5900   -0.5620   -0.5790 C   0  0  0  0  0  0  0  0  0  0  0  0
   -2.6650   -1.5380   -0.4020 C   0  0  0  0  0  0  0  0  0  0  0  0
   -2.3460   -2.8190   -0.1610 O   0  0  0  0  0  0  0  0  0  0  0  0
   -3.1900   -3.7760    0.0200 C   0  0  0  0  0  0  0  0  0  0  0  0
   -4.5390   -3.5140   -0.0300 C   0  0  0  0  0  0  0  0  0  0  0  0
   -4.9660   -2.2410   -0.2710 C   0  0  0  0  0  0  0  0  0  0  0  0
   -6.1790   -1.9480   -0.3260 O   0  0  0  0  0  0  0  0  0  0  0  0
   -3.9840   -1.2500   -0.4580 C   0  0  0  0  0  0  0  0  0  0  0  0
   -4.4870    0.0710   -0.7500 C   0  0  0  0  0  0  0  0  0  0  0  0
   -5.1880    0.7630    0.2090 C   0  0  0  0  0  0  0  0  0  0  0  0
   -5.7130    2.0120    0.0420 C   0  0  0  0  0  0  0  0  0  0  0  0
   -5.5420    2.6500   -1.1680 C   0  0  0  0  0  0  0  0  0  0  0  0
   -4.8450    1.9940   -2.1630 C   0  0  0  0  0  0  0  0  0  0  0  0
   -4.6470    2.8330   -3.6860 Cl  0  0  0  0  0  0  0  0  0  0  0  0
   -4.3220    0.7180   -1.9600 C   0  0  0  0  0  0  0  0  0  0  0  0
    0.0990    0.9690    0.2210 C   0  0  0  0  0  0  0  0  0  0  0  0
    0.9600    1.7780    1.4960 S   0  0  1  0  0  0  0  0  0  0  0  0
    0.1490    2.6110    2.4080 O   0  0  0  0  0  0  0  0  0  0  0  0
    1.6480    0.7200    2.3490 O   0  0  0  0  0  0  0  0  0  0  0  0
    2.3130    2.7340    0.7840 C   0  0  0  0  0  0  0  0  0  0  0  0
    3.2370    1.8070    0.0580 C   0  0  0  0  0  0  0  0  0  0  0  0
    4.3270    1.1570    0.5810 C   0  0  0  0  0  0  0  0  0  0  0  0
    4.9100    0.4020   -0.4080 C   0  0  0  0  0  0  0  0  0  0  0  0
    6.0960   -0.4340   -0.2420 C   0  0  0  0  0  0  0  0  0  0  0  0
    6.5960   -1.1400   -1.2760 N   0  0  0  0  0  0  0  0  0  0  0  0
    7.6810   -1.9180   -1.1670 C   0  0  0  0  0  0  0  0  0  0  0  0
    8.3260   -2.0120    0.0470 C   0  0  0  0  0  0  0  0  0  0  0  0
    7.8280   -1.2980    1.1120 C   0  0  0  0  0  0  0  0  0  0  0  0
    6.7400   -0.5410    0.9290 N   0  0  0  0  0  0  0  0  0  0  0  0
    4.1770    0.5970   -1.5130 N   0  0  0  0  0  0  0  0  0  0  0  0
    3.1710    1.4410   -1.2380 N   0  0  0  0  0  0  0  0  0  0  0  0
  2  1  1  1
  2  3  1  0
  2  4  1  0
  2 19  1  0
  4  5  1  0
  5  6  1  0
  5 11  2  0
  6  7  1  0
  7  8  2  0
  8  9  1  0
  9 10  2  0
  9 11  1  0
 11 12  1  0
 12 13  2  0
 12 18  1  0
 13 14  1  0
 14 15  2  0
 15 16  1  0
 16 17  1  0
 16 18  2  0
 20 19  1  6
 20 21  2  0
 20 22  2  0
 20 23  1  0
 23 24  1  0
 24 25  1  0
 24 34  2  0
 25 26  2  0
 26 27  1  0
 26 33  1  0
 27 28  2  0
 27 32  1  0
 28 29  1  0
 29 30  2  0
 30 31  1  0
 31 32  2  0
 33 34  1  0
M  END
