
     RDKit          3D

 34 37  0  0  0  0  0  0  0  0999 V2000
    9.6350   -0.7040   -0.9700 C   0  0  0  0  0  0  0  0  0  0  0  0
    8.1410   -0.5150   -0.9910 C   0  0  0  0  0  0  0  0  0  0  0  0
    7.5530    0.3880   -0.1980 N   0  0  0  0  0  0  0  0  0  0  0  0
    6.2280    0.6060   -0.1660 C   0  0  0  0  0  0  0  0  0  0  0  0
    5.6580    1.6150    0.7430 C   0  0  0  0  0  0  0  0  0  0  0  0
    4.2420    1.7190    0.7440 N   0  0  0  0  0  0  0  0  0  0  0  0
    3.4540    0.7300    1.4330 C   0  0  0  0  0  0  0  0  0  0  0  0
    4.0910   -0.1910    1.9940 O   0  0  0  0  0  0  0  0  0  0  0  0
    2.0170    0.8560    1.4340 C   0  0  0  0  0  0  0  0  0  0  0  0
    1.2500    0.0000    2.0670 C   0  0  0  0  0  0  0  0  0  0  0  0
   -0.2080    0.1950    2.0250 C   0  0  0  0  0  0  0  0  0  0  0  0
   -0.8760    1.1790    1.2940 C   0  0  0  0  0  0  0  0  0  0  0  0
   -2.2180    0.9860    1.5580 C   0  0  0  0  0  0  0  0  0  0  0  0
   -3.3080    1.7620    1.0370 C   0  0  0  0  0  0  0  0  0  0  0  0
   -4.1630    2.3950    0.6220 N   0  0  0  0  0  0  0  0  0  0  0  0
   -2.3220   -0.0740    2.4130 C   0  0  0  0  0  0  0  0  0  0  0  0
   -3.7730   -0.8200    3.1240 S   0  0  0  0  0  0  0  0  0  0  0  0
   -4.3580   -2.1640    2.0700 C   0  0  0  0  0  0  0  0  0  0  0  0
   -4.7560   -1.5870    0.7560 C   0  0  0  0  0  0  0  0  0  0  0  0
   -3.8970   -1.5330   -0.3120 C   0  0  0  0  0  0  0  0  0  0  0  0
   -4.3180   -0.9870   -1.5060 C   0  0  0  0  0  0  0  0  0  0  0  0
   -5.6100   -0.4900   -1.6320 C   0  0  0  0  0  0  0  0  0  0  0  0
   -6.0680    0.0610   -2.8240 C   0  0  0  0  0  0  0  0  0  0  0  0
   -7.3600    0.5540   -2.9680 C   0  0  0  0  0  0  0  0  0  0  0  0
   -8.1680    0.4680   -1.8580 C   0  0  0  0  0  0  0  0  0  0  0  0
   -9.8250    1.0780   -1.9970 Cl  0  0  0  0  0  0  0  0  0  0  0  0
   -7.7440   -0.0700   -0.6670 C   0  0  0  0  0  0  0  0  0  0  0  0
   -6.4370   -0.5660   -0.5340 C   0  0  0  0  0  0  0  0  0  0  0  0
   -6.0130   -1.1020    0.6270 N   0  0  0  0  0  0  0  0  0  0  0  0
   -1.0860   -0.5080    2.6590 O   0  0  0  0  0  0  0  0  0  0  0  0
    5.4410   -0.1570   -1.0080 C   0  0  0  0  0  0  0  0  0  0  0  0
    6.0700   -1.0940   -1.8300 C   0  0  0  0  0  0  0  0  0  0  0  0
    5.4170   -1.8190   -2.6190 O   0  0  0  0  0  0  0  0  0  0  0  0
    7.3880   -1.2310   -1.7830 O   0  0  0  0  0  0  0  0  0  0  0  0
  1  2  1  0
  2  3  2  0
  2 34  1  0
  3  4  1  0
  4  5  1  0
  4 31  2  0
  5  6  1  0
  6  7  1  0
  7  8  2  0
  7  9  1  0
  9 10  2  3
 10 11  1  0
 11 12  2  0
 11 30  1  0
 12 13  1  0
 13 14  1  0
 13 16  2  0
 14 15  3  0
 16 17  1  0
 16 30  1  0
 17 18  1  0
 18 19  1  0
 19 20  2  0
 19 29  1  0
 20 21  1  0
 21 22  2  0
 22 23  1  0
 22 28  1  0
 23 24  2  0
 24 25  1  0
 25 26  1  0
 25 27  2  0
 27 28  1  0
 28 29  2  0
 31 32  1  0
 32 33  2  0
 32 34  1  0
M  END
