
     RDKit          3D

 35 37  0  0  0  0  0  0  0  0999 V2000
    1.0000   -2.3630    1.1590 C   0  0  0  0  0  0  0  0  0  0  0  0
    2.2940   -1.5910    1.0510 C   0  0  1  0  0  0  0  0  0  0  0  0
    3.3020   -2.2800    0.1870 C   0  0  0  0  0  0  0  0  0  0  0  0
    2.1460   -0.1680    0.7320 C   0  0  0  0  0  0  0  0  0  0  0  0
    1.5450    0.2890   -0.4170 N   0  0  0  0  0  0  0  0  0  0  0  0
    0.1640    0.4780   -0.5370 C   0  0  0  0  0  0  0  0  0  0  0  0
   -0.3010    1.6860    0.2600 C   0  0  1  0  0  0  0  0  0  0  0  0
    0.3670    2.8040   -0.2420 O   0  0  0  0  0  0  0  0  0  0  0  0
   -1.7700    1.9460    0.0970 C   0  0  2  0  0  0  0  0  0  0  0  0
   -2.1180    3.2540    0.7380 C   0  0  0  0  0  0  0  0  0  0  0  0
   -1.8640    3.3670    2.1720 C   0  0  0  0  0  0  0  0  0  0  0  0
   -0.6830    3.8830    2.6450 C   0  0  0  0  0  0  0  0  0  0  0  0
   -0.4090    3.9930    4.0120 C   0  0  0  0  0  0  0  0  0  0  0  0
   -1.3260    3.5830    4.9440 C   0  0  0  0  0  0  0  0  0  0  0  0
   -2.5250    3.0600    4.4810 C   0  0  0  0  0  0  0  0  0  0  0  0
   -2.7710    2.9620    3.1370 C   0  0  0  0  0  0  0  0  0  0  0  0
   -2.5870    0.8470    0.5450 N   0  0  0  0  0  0  0  0  0  0  0  0
   -3.4080    0.1080   -0.3040 C   0  0  0  0  0  0  0  0  0  0  0  0
   -3.4180    0.4350   -1.5170 O   0  0  0  0  0  0  0  0  0  0  0  0
   -4.2130   -0.9560    0.0780 O   0  0  0  0  0  0  0  0  0  0  0  0
   -4.9950   -1.6160   -0.9010 C   0  0  1  0  0  0  0  0  0  0  0  0
   -4.5210   -3.0760   -0.8960 C   0  0  0  0  0  0  0  0  0  0  0  0
   -5.5970   -3.8050   -0.1390 C   0  0  0  0  0  0  0  0  0  0  0  0
   -6.4810   -2.8580    0.3340 O   0  0  0  0  0  0  0  0  0  0  0  0
   -6.4260   -1.7600   -0.5000 C   0  0  0  0  0  0  0  0  0  0  0  0
    2.5870    1.0350   -1.4890 S   0  0  1  0  0  0  0  0  0  0  0  0
    1.9050    1.7030   -2.6570 O   0  0  0  0  0  0  0  0  0  0  0  0
    3.2370    2.2080   -0.7350 O   0  0  0  0  0  0  0  0  0  0  0  0
    3.8860    0.0840   -2.1420 C   0  0  0  0  0  0  0  0  0  0  0  0
    3.7200   -0.7620   -3.2310 C   0  0  0  0  0  0  0  0  0  0  0  0
    4.7530   -1.4970   -3.7550 C   0  0  0  0  0  0  0  0  0  0  0  0
    6.0060   -1.4240   -3.2160 C   0  0  0  0  0  0  0  0  0  0  0  0
    7.1040   -2.1880   -3.7530 N   0  0  0  0  0  0  0  0  0  0  0  0
    6.2080   -0.5930   -2.1310 C   0  0  0  0  0  0  0  0  0  0  0  0
    5.1600    0.1390   -1.6160 C   0  0  0  0  0  0  0  0  0  0  0  0
  2  1  1  6
  2  3  1  0
  2  4  1  0
  4  5  1  0
  5  6  1  0
 26  5  1  1
  6  7  1  0
  7  8  1  6
  7  9  1  0
  9 10  1  1
  9 17  1  0
 10 11  1  0
 11 12  2  0
 11 16  1  0
 12 13  1  0
 13 14  2  0
 14 15  1  0
 15 16  2  0
 17 18  1  0
 18 19  2  0
 18 20  1  0
 21 20  1  1
 21 22  1  0
 21 25  1  0
 22 23  1  0
 23 24  1  0
 24 25  1  0
 26 27  2  0
 26 28  2  0
 26 29  1  0
 29 30  2  0
 29 35  1  0
 30 31  1  0
 31 32  2  0
 32 33  1  0
 32 34  1  0
 34 35  2  0
M  END
