
     RDKit          3D

 34 37  0  0  0  0  0  0  0  0999 V2000
    3.8850    2.1880    1.3890 C   0  0  0  0  0  0  0  0  0  0  0  0
    4.7360    0.9900    1.0820 C   0  0  0  0  0  0  0  0  0  0  0  0
    5.8090    0.5120    1.7700 C   0  0  0  0  0  0  0  0  0  0  0  0
    6.2670   -0.6110    1.1060 C   0  0  0  0  0  0  0  0  0  0  0  0
    5.4390   -0.7720    0.0230 C   0  0  0  0  0  0  0  0  0  0  0  0
    5.4870   -1.8190   -1.0160 C   0  0  2  0  0  0  0  0  0  0  0  0
    5.6250   -1.2080   -2.3620 C   0  0  0  0  0  0  0  0  0  0  0  0
    5.6750    0.0050   -2.4370 O   0  0  0  0  0  0  0  0  0  0  0  0
    3.9660   -2.8400   -0.9670 S   0  0  0  0  0  0  0  0  0  0  0  0
    2.6190   -1.7510   -1.4520 C   0  0  0  0  0  0  0  0  0  0  0  0
    2.2560   -1.6170   -2.7420 N   0  0  0  0  0  0  0  0  0  0  0  0
    1.2560   -0.8090   -3.1350 C   0  0  0  0  0  0  0  0  0  0  0  0
    0.9250   -0.6930   -4.3460 O   0  0  0  0  0  0  0  0  0  0  0  0
    0.5500   -0.0710   -2.2090 C   0  0  0  0  0  0  0  0  0  0  0  0
    0.9130   -0.1990   -0.8850 C   0  0  0  0  0  0  0  0  0  0  0  0
    0.2140    0.5480    0.0980 N   0  0  0  0  0  0  0  0  0  0  0  0
   -0.9180    0.1380    0.6180 C   0  0  0  0  0  0  0  0  0  0  0  0
   -1.5670    0.9820    1.6310 C   0  0  0  0  0  0  0  0  0  0  0  0
   -2.7630    1.5270    1.3060 O   0  0  0  0  0  0  0  0  0  0  0  0
   -4.0160    1.1850    1.0050 C   0  0  0  0  0  0  0  0  0  0  0  0
   -4.5450   -0.0690    0.9500 C   0  0  0  0  0  0  0  0  0  0  0  0
   -5.8550   -0.2930    0.6290 C   0  0  0  0  0  0  0  0  0  0  0  0
   -6.6880    0.7730    0.3490 C   0  0  0  0  0  0  0  0  0  0  0  0
   -8.3710    0.4670   -0.0620 Cl  0  0  0  0  0  0  0  0  0  0  0  0
   -6.1960    2.0520    0.3940 C   0  0  0  0  0  0  0  0  0  0  0  0
   -4.8920    2.2550    0.7140 C   0  0  0  0  0  0  0  0  0  0  0  0
   -4.4020    3.6570    0.7510 C   0  0  0  0  0  0  0  0  0  0  0  0
   -1.4450   -1.0850    0.1750 N   0  0  0  0  0  0  0  0  0  0  0  0
   -2.0920   -1.3500   -0.9990 C   0  0  0  0  0  0  0  0  0  0  0  0
   -2.4470   -2.6630   -1.0610 C   0  0  0  0  0  0  0  0  0  0  0  0
   -2.0040   -3.2210    0.1110 C   0  0  0  0  0  0  0  0  0  0  0  0
   -1.3980   -2.2570    0.8550 C   0  0  0  0  0  0  0  0  0  0  0  0
    1.9350   -1.0340   -0.5450 N   0  0  0  0  0  0  0  0  0  0  0  0
    4.5580    0.1970    0.0590 O   0  0  0  0  0  0  0  0  0  0  0  0
  1  2  1  0
  2  3  2  0
  2 34  1  0
  3  4  1  0
  4  5  2  0
  5  6  1  0
  5 34  1  0
  6  7  1  0
  6  9  1  6
  7  8  2  0
  9 10  1  0
 10 11  2  0
 10 33  1  0
 11 12  1  0
 12 13  2  0
 12 14  1  0
 14 15  2  0
 15 16  1  0
 15 33  1  0
 16 17  2  3
 17 18  1  0
 17 28  1  0
 18 19  1  0
 19 20  1  0
 20 21  2  0
 20 26  1  0
 21 22  1  0
 22 23  2  0
 23 24  1  0
 23 25  1  0
 25 26  2  0
 26 27  1  0
 28 29  1  0
 28 32  1  0
 29 30  2  0
 30 31  1  0
 31 32  2  0
M  END
