
     RDKit          3D

 34 36  0  0  0  0  0  0  0  0999 V2000
    2.5750    1.8260    1.2120 C   0  0  0  0  0  0  0  0  0  0  0  0
    1.9130    1.2780    0.1560 O   0  0  0  0  0  0  0  0  0  0  0  0
    0.6160    1.1260   -0.2090 C   0  0  0  0  0  0  0  0  0  0  0  0
   -0.0960    2.0360   -0.9580 C   0  0  0  0  0  0  0  0  0  0  0  0
    0.4570    3.3280   -1.3490 C   0  0  0  0  0  0  0  0  0  0  0  0
    0.1820    4.4980   -0.5020 C   0  0  1  0  0  0  0  0  0  0  0  0
    0.5980    4.5010    0.9150 C   0  0  0  0  0  0  0  0  0  0  0  0
    0.8930    5.6980   -1.1700 C   0  0  0  0  0  0  0  0  0  0  0  0
   -1.2930    4.9070   -0.5300 C   0  0  0  0  0  0  0  0  0  0  0  0
   -1.3980    1.8080   -1.2980 N   0  0  0  0  0  0  0  0  0  0  0  0
   -1.9800    0.6980   -0.8970 C   0  0  0  0  0  0  0  0  0  0  0  0
   -3.1940    0.5160   -1.2310 O   0  0  0  0  0  0  0  0  0  0  0  0
   -1.3550   -0.3010   -0.1280 C   0  0  0  0  0  0  0  0  0  0  0  0
   -2.1240   -1.4750    0.2360 C   0  0  0  0  0  0  0  0  0  0  0  0
   -3.3570   -1.5810   -0.1550 N   0  0  0  0  0  0  0  0  0  0  0  0
   -4.1390   -2.7240    0.1850 C   0  0  0  0  0  0  0  0  0  0  0  0
   -3.6500   -3.9090    0.5430 C   0  0  0  0  0  0  0  0  0  0  0  0
   -4.7340   -4.8730    0.8270 C   0  0  0  0  0  0  0  0  0  0  0  0
   -5.9480   -4.0580    0.5760 C   0  0  0  0  0  0  0  0  0  0  0  0
   -7.5810   -4.6470    0.7440 Cl  0  0  0  0  0  0  0  0  0  0  0  0
   -5.5850   -2.8310    0.2100 C   0  0  0  0  0  0  0  0  0  0  0  0
   -6.5430   -1.7200   -0.1260 C   0  0  0  0  0  0  0  0  0  0  0  0
   -0.0450   -0.0530    0.2010 C   0  0  0  0  0  0  0  0  0  0  0  0
    0.6860   -1.0550    0.9450 C   0  0  0  0  0  0  0  0  0  0  0  0
    0.2310   -2.1270    1.4030 O   0  0  0  0  0  0  0  0  0  0  0  0
    2.0980   -0.9000    1.2390 N   0  0  0  0  0  0  0  0  0  0  0  0
    2.9040   -1.7110    0.6750 C   0  0  0  0  0  0  0  0  0  0  0  0
    2.7490   -2.7320   -0.1740 N   0  0  0  0  0  0  0  0  0  0  0  0
    3.7630   -3.4180   -0.6040 C   0  0  0  0  0  0  0  0  0  0  0  0
    5.0290   -3.1000   -0.1870 C   0  0  0  0  0  0  0  0  0  0  0  0
    6.3160   -3.6760   -0.4910 C   0  0  0  0  0  0  0  0  0  0  0  0
    7.5440   -3.1070    0.1240 C   0  0  0  0  0  0  0  0  0  0  0  0
    6.4220   -4.6450   -1.2610 O   0  0  0  0  0  0  0  0  0  0  0  0
    4.7280   -1.7100    0.9040 S   0  0  0  0  0  0  0  0  0  0  0  0
  1  2  1  0
  2  3  1  0
  3  4  2  0
  3 23  1  0
  4  5  1  0
  4 10  1  0
  5  6  1  0
  6  7  1  1
  6  8  1  0
  6  9  1  0
 10 11  1  0
 11 12  2  0
 11 13  1  0
 13 14  1  0
 13 23  2  0
 14 15  2  3
 15 16  1  0
 16 17  2  0
 16 21  1  0
 17 18  1  0
 18 19  1  0
 19 20  1  0
 19 21  2  0
 21 22  1  0
 23 24  1  0
 24 25  2  0
 24 26  1  0
 26 27  2  3
 27 28  1  0
 27 34  1  0
 28 29  1  0
 29 30  2  0
 30 31  1  0
 30 34  1  0
 31 32  1  0
 31 33  2  0
M  END
