
     RDKit          3D

 38 42  0  0  0  0  0  0  0  0999 V2000
   -5.2830    3.8000   -0.9790 C   0  0  0  0  0  0  0  0  0  0  0  0
   -6.0680    3.0480   -0.2360 C   0  0  0  0  0  0  0  0  0  0  0  0
   -6.2130    1.5920   -0.5170 C   0  0  0  0  0  0  0  0  0  0  0  0
   -7.0000    0.9170    0.2550 C   0  0  0  0  0  0  0  0  0  0  0  0
   -7.7630    1.4820    1.3940 C   0  0  0  0  0  0  0  0  0  0  0  0
   -9.5290    1.2500    1.1350 Cl  0  0  0  0  0  0  0  0  0  0  0  0
   -5.4300    1.1160   -1.6290 C   0  0  0  0  0  0  0  0  0  0  0  0
   -5.3080   -0.2270   -2.1470 C   0  0  0  0  0  0  0  0  0  0  0  0
   -4.7890   -1.2720   -1.3300 N   0  0  0  0  0  0  0  0  0  0  0  0
   -5.5160   -2.2280   -0.7800 C   0  0  0  0  0  0  0  0  0  0  0  0
   -6.7640   -2.2760   -1.0650 O   0  0  0  0  0  0  0  0  0  0  0  0
   -4.9700   -3.1250    0.0410 N   0  0  0  0  0  0  0  0  0  0  0  0
   -3.6400   -3.0440    0.3070 C   0  0  0  0  0  0  0  0  0  0  0  0
   -3.0740   -3.9420    1.1240 N   0  0  0  0  0  0  0  0  0  0  0  0
   -1.7800   -3.9280    1.4220 C   0  0  0  0  0  0  0  0  0  0  0  0
   -0.9750   -2.9380    0.8620 C   0  0  0  0  0  0  0  0  0  0  0  0
   -1.4630   -1.9670    0.0090 C   0  0  0  0  0  0  0  0  0  0  0  0
   -0.6490   -0.9090   -0.5640 C   0  0  0  0  0  0  0  0  0  0  0  0
    0.7680   -0.9070   -0.2750 N   0  0  2  0  0  0  0  0  0  0  0  0
    1.5190   -1.9710   -0.8650 C   0  0  0  0  0  0  0  0  0  0  0  0
    2.6610   -2.5050   -0.0730 C   0  0  0  0  0  0  0  0  0  0  0  0
    3.5400   -1.5130    0.5960 C   0  0  0  0  0  0  0  0  0  0  0  0
    3.3640   -0.0860    0.1730 C   0  0  2  0  0  0  0  0  0  0  0  0
    4.6530    0.6770    0.3760 C   0  0  0  0  0  0  0  0  0  0  0  0
    5.3600    1.3520   -0.5450 N   0  0  0  0  0  0  0  0  0  0  0  0
    6.4510    1.8940    0.0420 C   0  0  0  0  0  0  0  0  0  0  0  0
    6.3790    1.5210    1.3550 C   0  0  0  0  0  0  0  0  0  0  0  0
    5.3050    0.8050    1.5100 O   0  0  0  0  0  0  0  0  0  0  0  0
    7.3090    1.8370    2.4410 C   0  0  0  0  0  0  0  0  0  0  0  0
    8.5230    2.3290    2.0370 O   0  0  0  0  0  0  0  0  0  0  0  0
    8.9360    1.8800    0.8000 C   0  0  0  0  0  0  0  0  0  0  0  0
    8.6260    2.8750   -0.1290 O   0  0  0  0  0  0  0  0  0  0  0  0
    7.4100    2.6940   -0.7380 C   0  0  0  0  0  0  0  0  0  0  0  0
    2.2580    0.5280    0.9930 C   0  0  0  0  0  0  0  0  0  0  0  0
    1.1320   -0.5290    1.0520 C   0  0  0  0  0  0  0  0  0  0  0  0
   -2.8400   -2.0530   -0.2550 C   0  0  0  0  0  0  0  0  0  0  0  0
   -3.4280   -1.1580   -1.0840 C   0  0  0  0  0  0  0  0  0  0  0  0
   -2.7890   -0.2510   -1.6260 O   0  0  0  0  0  0  0  0  0  0  0  0
  1  2  2  0
  2  3  1  0
  3  4  2  3
  3  7  1  0
  4  5  1  0
  5  6  1  0
  7  8  1  0
  8  9  1  0
  9 10  1  0
  9 37  1  0
 10 11  2  0
 10 12  1  0
 12 13  1  0
 13 14  2  0
 13 36  1  0
 14 15  1  0
 15 16  2  0
 16 17  1  0
 17 18  1  0
 17 36  2  0
 19 18  1  1
 19 20  1  0
 19 35  1  0
 20 21  1  0
 21 22  1  0
 22 23  1  0
 23 24  1  1
 23 34  1  0
 24 25  2  0
 24 28  1  0
 25 26  1  0
 26 27  2  0
 26 33  1  0
 27 28  1  0
 27 29  1  0
 29 30  1  0
 30 31  1  0
 31 32  1  0
 32 33  1  0
 34 35  1  0
 36 37  1  0
 37 38  2  0
M  CHG  2  19   1  25   1
M  END
