
     RDKit          3D

 37 42  0  0  0  0  0  0  0  0999 V2000
    9.2760    2.2180    0.3500 C   0  0  0  0  0  0  0  0  0  0  0  0
    8.6770    1.8790   -0.9150 N   0  0  0  0  0  0  0  0  0  0  0  0
    7.8230    0.7110   -0.7200 C   0  0  0  0  0  0  0  0  0  0  0  0
    6.6730    1.0440    0.2250 C   0  0  0  0  0  0  0  0  0  0  0  0
    5.8500   -0.1790    0.3780 C   0  0  0  0  0  0  0  0  0  0  0  0
    6.1630   -1.0670    1.3960 C   0  0  0  0  0  0  0  0  0  0  0  0
    5.4080   -2.1910    1.5390 C   0  0  0  0  0  0  0  0  0  0  0  0
    4.3530   -2.4610    0.7020 C   0  0  0  0  0  0  0  0  0  0  0  0
    4.0280   -1.5960   -0.3110 C   0  0  0  0  0  0  0  0  0  0  0  0
    2.9880   -1.8920   -1.1180 O   0  0  0  0  0  0  0  0  0  0  0  0
    1.6480   -1.7540   -1.0110 C   0  0  0  0  0  0  0  0  0  0  0  0
    0.8270   -2.8890   -1.1020 C   0  0  0  0  0  0  0  0  0  0  0  0
   -0.5320   -2.7930   -1.0070 C   0  0  0  0  0  0  0  0  0  0  0  0
   -1.1390   -1.5930   -0.8210 C   0  0  0  0  0  0  0  0  0  0  0  0
   -0.3390   -0.4460   -0.7260 C   0  0  0  0  0  0  0  0  0  0  0  0
    1.0540   -0.5390   -0.8210 C   0  0  0  0  0  0  0  0  0  0  0  0
    1.7810    0.6570   -0.7040 O   0  0  0  0  0  0  0  0  0  0  0  0
    1.9730    1.3050    0.5160 C   0  0  0  0  0  0  0  0  0  0  0  0
    2.5860    0.6140    1.5150 O   0  0  0  0  0  0  0  0  0  0  0  0
   -0.8970    0.8260   -0.5320 O   0  0  0  0  0  0  0  0  0  0  0  0
   -2.2980    0.9660   -0.4310 C   0  0  0  0  0  0  0  0  0  0  0  0
   -3.1410    1.9410   -0.2450 N   0  0  0  0  0  0  0  0  0  0  0  0
   -4.4780    1.4370   -0.2110 N   0  0  0  0  0  0  0  0  0  0  0  0
   -5.4830    2.4880    0.0970 C   0  0  0  0  0  0  0  0  0  0  0  0
   -6.3980    1.9660    1.1910 C   0  0  0  0  0  0  0  0  0  0  0  0
   -7.4550    1.1380    0.7440 N   0  0  1  0  0  0  0  0  0  0  0  0
   -7.7780    1.3950   -0.6730 C   0  0  0  0  0  0  0  0  0  0  0  0
   -7.3910   -0.2510    0.9710 C   0  0  0  0  0  0  0  0  0  0  0  0
   -6.1010   -0.8540    1.3970 C   0  0  0  0  0  0  0  0  0  0  0  0
   -5.0990   -0.8830    0.3790 N   0  0  0  0  0  0  0  0  0  0  0  0
   -4.6720   -2.2520    0.2240 C   0  0  0  0  0  0  0  0  0  0  0  0
   -5.2330   -3.1370    0.8640 O   0  0  0  0  0  0  0  0  0  0  0  0
   -3.5410   -2.6310   -0.7180 C   0  0  0  0  0  0  0  0  0  0  0  0
   -2.5790   -1.4710   -0.7300 C   0  0  0  0  0  0  0  0  0  0  0  0
   -3.0200   -0.2580   -0.5560 C   0  0  0  0  0  0  0  0  0  0  0  0
   -4.4640    0.0620   -0.4650 C   0  0  2  0  0  0  0  0  0  0  0  0
    4.8020   -0.4440   -0.4560 C   0  0  0  0  0  0  0  0  0  0  0  0
  1  2  1  0
  2  3  1  0
  3  4  1  0
  4  5  1  0
  5  6  2  0
  5 37  1  0
  6  7  1  0
  7  8  2  0
  8  9  1  0
  9 10  1  0
  9 37  2  0
 10 11  1  0
 11 12  2  0
 11 16  1  0
 12 13  1  0
 13 14  2  0
 14 15  1  0
 14 34  1  0
 15 16  2  0
 15 20  1  0
 16 17  1  0
 17 18  1  0
 18 19  1  0
 20 21  1  0
 21 22  2  0
 21 35  1  0
 22 23  1  0
 23 24  1  0
 36 23  1  1
 24 25  1  0
 25 26  1  0
 26 27  1  6
 26 28  1  0
 28 29  1  0
 29 30  1  0
 30 31  1  0
 30 36  1  0
 31 32  2  0
 31 33  1  0
 33 34  1  0
 34 35  2  0
 35 36  1  0
M  CHG  2   2   1  26   1
M  END
