
     RDKit          3D

 38 42  0  0  0  0  0  0  0  0999 V2000
    9.8670    2.0270   -0.8070 C   0  0  0  0  0  0  0  0  0  0  0  0
   10.3140    0.6860   -1.1770 N   0  0  0  0  0  0  0  0  0  0  0  0
    9.7310   -0.3110   -0.3000 C   0  0  0  0  0  0  0  0  0  0  0  0
    8.3130   -0.5670   -0.6130 C   0  0  0  0  0  0  0  0  0  0  0  0
    7.6570    0.0590   -1.6550 C   0  0  0  0  0  0  0  0  0  0  0  0
    6.3300   -0.2390   -1.8770 C   0  0  0  0  0  0  0  0  0  0  0  0
    5.6240   -1.1380   -1.1030 C   0  0  0  0  0  0  0  0  0  0  0  0
    4.2960   -1.4130   -1.3530 O   0  0  0  0  0  0  0  0  0  0  0  0
    3.2480   -0.7110   -0.7980 C   0  0  0  0  0  0  0  0  0  0  0  0
    1.9610   -1.0820   -1.1150 C   0  0  0  0  0  0  0  0  0  0  0  0
    0.8930   -0.3890   -0.5670 C   0  0  0  0  0  0  0  0  0  0  0  0
    1.0850    0.6550    0.2820 C   0  0  0  0  0  0  0  0  0  0  0  0
    0.0050    1.3460    0.8280 O   0  0  0  0  0  0  0  0  0  0  0  0
   -1.3110    0.9920    0.5260 C   0  0  0  0  0  0  0  0  0  0  0  0
   -1.9200    0.1720    1.3960 N   0  0  0  0  0  0  0  0  0  0  0  0
   -3.1550   -0.1890    1.1570 N   0  0  0  0  0  0  0  0  0  0  0  0
   -3.8180    0.2310    0.0830 C   0  0  0  0  0  0  0  0  0  0  0  0
   -5.1580   -0.2720   -0.1190 N   0  0  0  0  0  0  0  0  0  0  0  0
   -6.0990    0.2600    0.5370 C   0  0  0  0  0  0  0  0  0  0  0  0
   -5.6900    1.3550    1.4460 C   0  0  0  0  0  0  0  0  0  0  0  0
   -4.6250    1.9180    1.1200 O   0  0  0  0  0  0  0  0  0  0  0  0
   -6.3360    1.8120    2.5850 O   0  0  0  0  0  0  0  0  0  0  0  0
   -7.7130    1.9200    2.8250 C   0  0  0  0  0  0  0  0  0  0  0  0
   -8.3580    0.5790    2.6020 C   0  0  0  0  0  0  0  0  0  0  0  0
   -8.7050    0.3560    1.1230 C   0  0  0  0  0  0  0  0  0  0  0  0
   -7.5100   -0.1650    0.4040 C   0  0  0  0  0  0  0  0  0  0  0  0
   -7.7410   -1.1330   -0.4420 C   0  0  0  0  0  0  0  0  0  0  0  0
   -6.7190   -1.8040   -1.2450 C   0  0  0  0  0  0  0  0  0  0  0  0
   -5.3530   -1.3610   -1.0170 C   0  0  2  0  0  0  0  0  0  0  0  0
   -4.3950   -2.5140   -0.6900 C   0  0  0  0  0  0  0  0  0  0  0  0
   -3.2330    1.0460   -0.7930 N   0  0  0  0  0  0  0  0  0  0  0  0
   -1.9480    1.4570   -0.5990 C   0  0  0  0  0  0  0  0  0  0  0  0
   -1.3530    2.2230   -1.3950 O   0  0  0  0  0  0  0  0  0  0  0  0
    2.3610    1.0360    0.6070 C   0  0  0  0  0  0  0  0  0  0  0  0
    2.6180    2.3800    1.7000 Cl  0  0  0  0  0  0  0  0  0  0  0  0
    3.4420    0.3450    0.0610 C   0  0  0  0  0  0  0  0  0  0  0  0
    6.2740   -1.7670   -0.0600 C   0  0  0  0  0  0  0  0  0  0  0  0
    7.6040   -1.4730    0.1680 C   0  0  0  0  0  0  0  0  0  0  0  0
  1  2  1  0
  2  3  1  0
  3  4  1  0
  4  5  2  0
  4 38  1  0
  5  6  1  0
  6  7  2  0
  7  8  1  0
  7 37  1  0
  8  9  1  0
  9 10  2  0
  9 36  1  0
 10 11  1  0
 11 12  2  0
 12 13  1  0
 12 34  1  0
 13 14  1  0
 14 15  2  0
 14 32  1  0
 15 16  1  0
 16 17  2  0
 17 18  1  0
 17 31  1  0
 18 19  2  0
 18 29  1  0
 19 20  1  0
 19 26  1  0
 20 21  2  0
 20 22  1  0
 22 23  1  0
 23 24  1  0
 24 25  1  0
 25 26  1  0
 26 27  2  0
 27 28  1  0
 28 29  1  0
 29 30  1  1
 31 32  1  0
 32 33  2  0
 34 35  1  0
 34 36  2  0
 37 38  2  0
M  CHG  2   2   1  18   1
M  END
