
     RDKit          3D

 11 11  0  0  0  0  0  0  0  0999 V2000
    0.3900   -0.9020   -1.7050 N   0  0  0  0  0  0  0  0  0  0  0  0
   -0.0010   -0.1200   -0.5630 C   0  0  1  0  0  0  0  0  0  0  0  0
    0.8650   -0.4660    0.5920 C   0  0  0  0  0  0  0  0  0  0  0  0
    2.3050   -0.1720    0.2410 C   0  0  0  0  0  0  0  0  0  0  0  0
    3.1320   -0.4990    1.3230 O   0  0  0  0  0  0  0  0  0  0  0  0
   -0.0390    1.3560   -0.7770 C   0  0  0  0  0  0  0  0  0  0  0  0
   -0.7910    1.7510    0.3560 O   0  0  0  0  0  0  0  0  0  0  0  0
   -1.9390    0.9570    0.2060 C   0  0  2  0  0  0  0  0  0  0  0  0
   -2.6390    0.8410    1.3920 O   0  0  0  0  0  0  0  0  0  0  0  0
   -1.4720   -0.3940   -0.3040 C   0  0  2  0  0  0  0  0  0  0  0  0
   -1.6820   -1.4080    0.5910 O   0  0  0  0  0  0  0  0  0  0  0  0
  2  1  1  6
  2  3  1  0
  2  6  1  0
  2 10  1  0
  3  4  1  0
  4  5  1  0
  6  7  1  0
  7  8  1  0
  8  9  1  1
  8 10  1  0
 10 11  1  1
M  CHG  1   1   1
M  END
