
     RDKit          3D

 11 11  0  0  0  0  0  0  0  0999 V2000
   -0.8700    2.0130   -0.5570 N   0  0  0  0  0  0  0  0  0  0  0  0
   -0.8030    0.8250    0.2830 C   0  0  2  0  0  0  0  0  0  0  0  0
    0.5070    0.9220    1.0590 C   0  0  0  0  0  0  0  0  0  0  0  0
    1.3800    0.0200    0.2190 C   0  0  1  0  0  0  0  0  0  0  0  0
    2.6300   -0.4110    0.9300 C   0  0  0  0  0  0  0  0  0  0  0  0
    3.2460   -1.3820    0.1260 O   0  0  0  0  0  0  0  0  0  0  0  0
    0.5110   -1.0770    0.0310 O   0  0  0  0  0  0  0  0  0  0  0  0
   -0.5970   -0.4110   -0.5270 C   0  0  1  0  0  0  0  0  0  0  0  0
   -1.7880   -1.3410   -0.4990 C   0  0  1  0  0  0  0  0  0  0  0  0
   -2.1050   -1.7260    0.7850 O   0  0  0  0  0  0  0  0  0  0  0  0
   -2.8670   -0.7180   -1.1270 O   0  0  0  0  0  0  0  0  0  0  0  0
  2  1  1  6
  2  3  1  0
  2  8  1  0
  3  4  1  0
  4  5  1  1
  4  7  1  0
  5  6  1  0
  8  7  1  1
  8  9  1  0
  9 10  1  1
  9 11  1  0
M  CHG  1   1   1
M  END
