
     RDKit          3D

 11 11  0  0  0  0  0  0  0  0999 V2000
    2.7870    0.7390   -0.3740 N   0  0  0  0  0  0  0  0  0  0  0  0
    2.0930   -0.5310   -0.3110 C   0  0  0  0  0  0  0  0  0  0  0  0
    1.0210   -0.4640    0.7560 C   0  0  2  0  0  0  0  0  0  0  0  0
    0.3370   -1.6740    0.8390 O   0  0  0  0  0  0  0  0  0  0  0  0
   -0.7070   -1.6270   -0.0600 C   0  0  0  0  0  0  0  0  0  0  0  0
   -1.0620   -0.1900   -0.2860 C   0  0  1  0  0  0  0  0  0  0  0  0
   -1.0400    0.1120   -1.6400 O   0  0  0  0  0  0  0  0  0  0  0  0
   -2.4390    0.0950    0.2710 C   0  0  0  0  0  0  0  0  0  0  0  0
   -2.7050    1.4590    0.0680 O   0  0  0  0  0  0  0  0  0  0  0  0
   -0.0090    0.5790    0.4810 C   0  0  2  0  0  0  0  0  0  0  0  0
    0.4410    1.6720   -0.2170 O   0  0  0  0  0  0  0  0  0  0  0  0
  1  2  1  0
  3  2  1  6
  3  4  1  0
  3 10  1  0
  4  5  1  0
  5  6  1  0
  6  7  1  6
  6  8  1  0
  6 10  1  0
  8  9  1  0
 10 11  1  6
M  CHG  1   1   1
M  END
