
     RDKit          3D

 11 11  0  0  0  0  0  0  0  0999 V2000
   -0.8590   -1.9070    0.3950 N   0  0  0  0  0  0  0  0  0  0  0  0
   -1.0800   -0.5010    0.3800 C   0  0  2  0  0  0  0  0  0  0  0  0
   -1.9840   -0.0290   -0.7250 C   0  0  0  0  0  0  0  0  0  0  0  0
   -1.5490    1.2160   -1.1270 O   0  0  0  0  0  0  0  0  0  0  0  0
   -0.5670    1.6410   -0.2680 C   0  0  0  0  0  0  0  0  0  0  0  0
    0.1360    0.3260    0.1070 C   0  0  2  0  0  0  0  0  0  0  0  0
    0.8830   -0.1160   -1.1090 C   0  0  0  0  0  0  0  0  0  0  0  0
    1.9950    0.7440   -1.2420 O   0  0  0  0  0  0  0  0  0  0  0  0
    1.0140    0.5110    1.3140 C   0  0  2  0  0  0  0  0  0  0  0  0
    2.1060    1.2980    0.9120 O   0  0  0  0  0  0  0  0  0  0  0  0
    1.4730   -0.7270    1.7120 O   0  0  0  0  0  0  0  0  0  0  0  0
  2  1  1  6
  2  3  1  0
  2  6  1  0
  3  4  1  0
  4  5  1  0
  5  6  1  0
  6  7  1  6
  6  9  1  0
  7  8  1  0
  9 10  1  6
  9 11  1  0
M  CHG  1   1   1
M  END
