
     RDKit          3D

 11 11  0  0  0  0  0  0  0  0999 V2000
   -0.7870   -1.4220    0.6930 N   0  0  0  0  0  0  0  0  0  0  0  0
   -0.6550   -0.1440    0.0370 C   0  0  2  0  0  0  0  0  0  0  0  0
   -1.8560    0.7000    0.3700 C   0  0  0  0  0  0  0  0  0  0  0  0
   -2.9850    0.0450   -0.0790 O   0  0  0  0  0  0  0  0  0  0  0  0
   -0.5550   -0.2700   -1.4590 C   0  0  0  0  0  0  0  0  0  0  0  0
    0.1950    0.7850   -1.9200 O   0  0  0  0  0  0  0  0  0  0  0  0
    0.8160    1.4130   -0.8790 C   0  0  0  0  0  0  0  0  0  0  0  0
    0.6460    0.5550    0.3580 C   0  0  2  0  0  0  0  0  0  0  0  0
    1.7850   -0.4220    0.3790 C   0  0  1  0  0  0  0  0  0  0  0  0
    2.9490    0.3120    0.6820 O   0  0  0  0  0  0  0  0  0  0  0  0
    1.6800   -1.4070    1.3310 O   0  0  0  0  0  0  0  0  0  0  0  0
  2  1  1  1
  2  3  1  0
  2  5  1  0
  2  8  1  0
  3  4  1  0
  5  6  1  0
  6  7  1  0
  8  7  1  6
  8  9  1  0
  9 10  1  1
  9 11  1  0
M  CHG  1   1   1
M  END
