
     RDKit          3D

 25 26  0  0  0  0  0  0  0  0999 V2000
   -0.9430    2.6450   -0.0840 C   0  0  0  0  0  0  0  0  0  0  0  0
   -2.3490    2.4880   -0.5020 C   0  0  0  0  0  0  0  0  0  0  0  0
   -2.9200    1.5140   -1.1340 C   0  0  0  0  0  0  0  0  0  0  0  0
   -4.3820    1.7110   -1.3850 C   0  0  0  0  0  0  0  0  0  0  0  0
   -4.9100    2.7870   -0.9660 N   0  0  0  0  0  0  0  0  0  0  0  0
   -5.1540    0.7820   -2.0430 O   0  0  0  0  0  0  0  0  0  0  0  0
   -2.2990    0.3090   -1.5980 C   0  0  0  0  0  0  0  0  0  0  0  0
   -3.0890   -0.5340   -2.2150 O   0  0  0  0  0  0  0  0  0  0  0  0
   -0.9910   -0.1400   -1.5140 N   0  0  0  0  0  0  0  0  0  0  0  0
   -0.5400   -1.4080   -2.0510 C   0  0  1  0  0  0  0  0  0  0  0  0
    0.6150   -1.2780   -2.9940 C   0  0  0  0  0  0  0  0  0  0  0  0
    1.3340   -2.4960   -2.8510 O   0  0  0  0  0  0  0  0  0  0  0  0
    0.8370   -3.2430   -1.7960 C   0  0  0  0  0  0  0  0  0  0  0  0
    0.9730   -4.4690   -1.5590 O   0  0  0  0  0  0  0  0  0  0  0  0
    0.0710   -2.2620   -0.9500 C   0  0  1  0  0  0  0  0  0  0  0  0
    1.0850   -1.5070   -0.2230 N   0  0  0  0  0  0  0  0  0  0  0  0
    1.1050   -1.4050    1.1720 C   0  0  0  0  0  0  0  0  0  0  0  0
    0.1510   -2.0340    1.7600 O   0  0  0  0  0  0  0  0  0  0  0  0
    2.0600   -0.6860    1.9930 C   0  0  0  0  0  0  0  0  0  0  0  0
    1.9170   -0.7010    3.3110 C   0  0  0  0  0  0  0  0  0  0  0  0
    2.8190   -0.0120    4.2530 C   0  0  0  0  0  0  0  0  0  0  0  0
    3.8620    0.6770    3.6470 O   0  0  0  0  0  0  0  0  0  0  0  0
    4.0470    0.7210    2.3060 C   0  0  0  0  0  0  0  0  0  0  0  0
    3.1940    0.0750    1.4990 C   0  0  0  0  0  0  0  0  0  0  0  0
    3.4110    0.1390    0.1290 O   0  0  0  0  0  0  0  0  0  0  0  0
  1  2  1  0
  2  3  2  3
  3  4  1  0
  3  7  1  0
  4  5  2  0
  4  6  1  0
  7  8  2  0
  7  9  1  0
 10  9  1  1
 10 11  1  0
 10 15  1  0
 11 12  1  0
 12 13  1  0
 13 14  2  0
 13 15  1  0
 15 16  1  1
 16 17  1  0
 17 18  2  0
 17 19  1  0
 19 20  2  0
 19 24  1  0
 20 21  1  0
 21 22  1  0
 22 23  1  0
 23 24  2  0
 24 25  1  0
M  END
