
     RDKit          3D

 25 26  0  0  0  0  0  0  0  0999 V2000
    6.6600    2.4280   -4.2070 C   0  0  0  0  0  0  0  0  0  0  0  0
    5.5420    2.4300   -3.3060 O   0  0  0  0  0  0  0  0  0  0  0  0
    5.5300    3.2970   -2.2150 C   0  0  0  0  0  0  0  0  0  0  0  0
    6.5500    4.0440   -2.1030 O   0  0  0  0  0  0  0  0  0  0  0  0
    4.4410    3.3550   -1.2680 C   0  0  0  0  0  0  0  0  0  0  0  0
    3.3630    2.6060   -1.3330 C   0  0  0  0  0  0  0  0  0  0  0  0
    3.2250    1.6910   -2.3460 O   0  0  0  0  0  0  0  0  0  0  0  0
    2.2990    2.7460   -0.3270 C   0  0  0  0  0  0  0  0  0  0  0  0
    1.2470    1.9860   -0.4090 C   0  0  0  0  0  0  0  0  0  0  0  0
    0.1340    2.0470    0.5430 C   0  0  1  0  0  0  0  0  0  0  0  0
   -0.1230    0.7280    1.1320 N   0  0  0  0  0  0  0  0  0  0  0  0
   -1.2100   -0.0620    0.7000 C   0  0  0  0  0  0  0  0  0  0  0  0
   -1.9420    0.3810   -0.1980 O   0  0  0  0  0  0  0  0  0  0  0  0
   -1.5000   -1.3370    1.2480 N   0  0  0  0  0  0  0  0  0  0  0  0
   -2.5930   -2.1670    0.8060 C   0  0  1  0  0  0  0  0  0  0  0  0
   -2.1800   -3.5860    0.5640 C   0  0  0  0  0  0  0  0  0  0  0  0
   -3.3630   -4.4270    0.1440 C   0  0  0  0  0  0  0  0  0  0  0  0
   -4.5500   -3.9910    0.7190 O   0  0  0  0  0  0  0  0  0  0  0  0
   -4.3560   -3.4990    2.0060 C   0  0  2  0  0  0  0  0  0  0  0  0
   -5.7040   -3.2270    2.6350 C   0  0  0  0  0  0  0  0  0  0  0  0
   -3.6020   -2.1970    1.9620 C   0  0  0  0  0  0  0  0  0  0  0  0
    0.3110    3.0360    1.5470 N   0  0  0  0  0  0  0  0  0  0  0  0
    1.4610    3.8460    1.6240 C   0  0  0  0  0  0  0  0  0  0  0  0
    1.5590    4.6980    2.5600 O   0  0  0  0  0  0  0  0  0  0  0  0
    2.4650    3.7090    0.6860 O   0  0  0  0  0  0  0  0  0  0  0  0
  1  2  1  0
  2  3  1  0
  3  4  2  0
  3  5  1  0
  5  6  2  3
  6  7  1  0
  6  8  1  0
  8  9  2  0
  8 25  1  0
  9 10  1  0
 10 11  1  1
 10 22  1  0
 11 12  1  0
 12 13  2  0
 12 14  1  0
 15 14  1  1
 15 16  1  0
 15 21  1  0
 16 17  1  0
 17 18  1  0
 18 19  1  0
 19 20  1  6
 19 21  1  0
 22 23  1  0
 23 24  2  0
 23 25  1  0
M  END
