
     RDKit          3D

 25 26  0  0  0  0  0  0  0  0999 V2000
    7.5990   -0.4310   -0.3190 C   0  0  0  0  0  0  0  0  0  0  0  0
    6.5250   -1.3150   -0.9350 C   0  0  0  0  0  0  0  0  0  0  0  0
    5.3120   -0.5790   -0.8530 O   0  0  0  0  0  0  0  0  0  0  0  0
    4.1100   -1.0350   -1.3030 C   0  0  0  0  0  0  0  0  0  0  0  0
    4.0260   -2.1700   -1.8300 O   0  0  0  0  0  0  0  0  0  0  0  0
    2.8750   -0.2210   -1.1900 C   0  0  1  0  0  0  0  0  0  0  0  0
    1.9360   -0.9640   -0.2400 C   0  0  0  0  0  0  0  0  0  0  0  0
    2.0280   -0.0590    0.9710 C   0  0  0  0  0  0  0  0  0  0  0  0
    2.1210    1.2800    0.3100 C   0  0  2  0  0  0  0  0  0  0  0  0
    1.0170    1.6950   -0.5650 C   0  0  0  0  0  0  0  0  0  0  0  0
   -0.2290    2.0910   -0.0490 N   0  0  0  0  0  0  0  0  0  0  0  0
   -1.1910    1.3420    0.6420 C   0  0  0  0  0  0  0  0  0  0  0  0
   -1.0100    0.1230    0.8470 O   0  0  0  0  0  0  0  0  0  0  0  0
   -2.3970    1.9440    1.1280 N   0  0  0  0  0  0  0  0  0  0  0  0
   -3.3830    1.1630    1.8140 C   0  0  0  0  0  0  0  0  0  0  0  0
   -3.9930    0.1190    0.9780 C   0  0  0  0  0  0  0  0  0  0  0  0
   -3.7070   -0.0280   -0.2910 C   0  0  0  0  0  0  0  0  0  0  0  0
   -4.3120   -1.0730   -1.1340 C   0  0  2  0  0  0  0  0  0  0  0  0
   -4.9880   -0.4280   -2.2510 N   0  0  0  0  0  0  0  0  0  0  0  0
   -5.2130   -1.8720   -0.4420 O   0  0  0  0  0  0  0  0  0  0  0  0
   -5.5170   -1.7230    0.8850 C   0  0  0  0  0  0  0  0  0  0  0  0
   -6.4340   -2.5740    1.5000 O   0  0  0  0  0  0  0  0  0  0  0  0
   -4.9670   -0.7930    1.6090 C   0  0  0  0  0  0  0  0  0  0  0  0
   -5.2810   -0.6540    2.9450 O   0  0  0  0  0  0  0  0  0  0  0  0
    3.2120    0.9850   -0.5800 O   0  0  0  0  0  0  0  0  0  0  0  0
  1  2  1  0
  2  3  1  0
  3  4  1  0
  4  5  2  0
  6  4  1  1
  6  7  1  0
  6 25  1  0
  7  8  1  0
  8  9  1  0
  9 10  1  6
  9 25  1  0
 10 11  1  0
 11 12  1  0
 12 13  2  0
 12 14  1  0
 14 15  1  0
 15 16  1  0
 16 17  2  0
 16 23  1  0
 17 18  1  0
 18 19  1  6
 18 20  1  0
 20 21  1  0
 21 22  1  0
 21 23  2  0
 23 24  1  0
M  END
