
     RDKit          3D

 25 26  0  0  0  0  0  0  0  0999 V2000
    0.1670    4.8310   -0.5930 C   0  0  0  0  0  0  0  0  0  0  0  0
   -0.2730    3.6340   -0.9610 C   0  0  0  0  0  0  0  0  0  0  0  0
    0.5480    2.4000   -0.8610 C   0  0  0  0  0  0  0  0  0  0  0  0
    0.0300    1.4160    0.1430 C   0  0  0  0  0  0  0  0  0  0  0  0
   -0.9890    1.7710    0.9070 C   0  0  0  0  0  0  0  0  0  0  0  0
   -1.5260    3.0860    0.7160 O   0  0  0  0  0  0  0  0  0  0  0  0
   -1.6750    1.0310    1.9430 C   0  0  0  0  0  0  0  0  0  0  0  0
   -1.5530    1.5260    3.1550 O   0  0  0  0  0  0  0  0  0  0  0  0
   -2.4330   -0.1000    1.8780 O   0  0  0  0  0  0  0  0  0  0  0  0
   -3.6430   -0.3680    1.2520 C   0  0  0  0  0  0  0  0  0  0  0  0
   -3.7410   -1.6550    0.5060 C   0  0  0  0  0  0  0  0  0  0  0  0
   -4.0310   -1.4410   -0.8620 O   0  0  0  0  0  0  0  0  0  0  0  0
   -2.9080   -1.7920   -1.6080 C   0  0  0  0  0  0  0  0  0  0  0  0
   -1.7760   -0.7990   -1.2900 C   0  0  0  0  0  0  0  0  0  0  0  0
   -0.9810   -1.4030   -0.3290 O   0  0  0  0  0  0  0  0  0  0  0  0
    0.3330   -1.0680    0.0150 C   0  0  0  0  0  0  0  0  0  0  0  0
    0.7750    0.1370    0.2160 C   0  0  0  0  0  0  0  0  0  0  0  0
    2.2460    0.0130    0.4970 C   0  0  0  0  0  0  0  0  0  0  0  0
    3.1460    0.8650    0.3420 O   0  0  0  0  0  0  0  0  0  0  0  0
    2.4380   -1.3670    1.0120 C   0  0  2  0  0  0  0  0  0  0  0  0
    3.7450   -1.8330    0.6110 N   0  0  0  0  0  0  0  0  0  0  0  0
    4.7010   -2.3760    1.5090 C   0  0  0  0  0  0  0  0  0  0  0  0
    5.9620   -2.8110    1.0350 N   0  0  0  0  0  0  0  0  0  0  0  0
    4.4030   -2.4600    2.7260 O   0  0  0  0  0  0  0  0  0  0  0  0
    1.3850   -2.0140    0.2010 N   0  0  0  0  0  0  0  0  0  0  0  0
  1  2  2  0
  2  3  1  0
  3  4  1  0
  4  5  2  0
  4 17  1  0
  5  6  1  0
  5  7  1  0
  7  8  2  0
  7  9  1  0
  9 10  1  0
 10 11  1  0
 11 12  1  0
 12 13  1  0
 13 14  1  0
 14 15  1  0
 15 16  1  0
 16 17  2  0
 16 25  1  0
 17 18  1  0
 18 19  2  0
 18 20  1  0
 20 21  1  6
 20 25  1  0
 21 22  1  0
 22 23  1  0
 22 24  2  0
M  END
