
     RDKit          3D

 25 26  0  0  0  0  0  0  0  0999 V2000
    4.8240    1.7480   -0.7390 C   0  0  0  0  0  0  0  0  0  0  0  0
    4.7640    1.1480    0.6710 C   0  0  0  0  0  0  0  0  0  0  0  0
    3.9640   -0.1520    0.5200 C   0  0  2  0  0  0  0  0  0  0  0  0
    4.6270   -1.0100   -0.3800 O   0  0  0  0  0  0  0  0  0  0  0  0
    2.6440    0.2270   -0.0380 C   0  0  0  0  0  0  0  0  0  0  0  0
    2.2520   -0.2040   -1.1650 O   0  0  0  0  0  0  0  0  0  0  0  0
    1.8190    1.1010    0.7420 N   0  0  0  0  0  0  0  0  0  0  0  0
    0.5630    1.5140    0.3220 C   0  0  0  0  0  0  0  0  0  0  0  0
   -0.5740    0.5940    0.1950 C   0  0  0  0  0  0  0  0  0  0  0  0
   -0.6740   -0.6470    0.5640 C   0  0  0  0  0  0  0  0  0  0  0  0
    0.4890   -1.3460    1.2430 C   0  0  0  0  0  0  0  0  0  0  0  0
   -1.8900   -1.5020    0.3750 C   0  0  2  0  0  0  0  0  0  0  0  0
   -2.9830   -0.8000   -0.2650 C   0  0  0  0  0  0  0  0  0  0  0  0
   -2.8940    0.4520   -0.6380 C   0  0  0  0  0  0  0  0  0  0  0  0
   -4.0540    1.1180   -1.2920 C   0  0  0  0  0  0  0  0  0  0  0  0
   -5.0850    0.4380   -1.4600 O   0  0  0  0  0  0  0  0  0  0  0  0
   -4.0010    2.4220   -1.6950 O   0  0  0  0  0  0  0  0  0  0  0  0
   -5.0940    3.0900   -2.3240 C   0  0  0  0  0  0  0  0  0  0  0  0
   -1.7350    1.1380   -0.4220 O   0  0  0  0  0  0  0  0  0  0  0  0
   -2.3330   -1.9750    1.6850 N   0  0  0  0  0  0  0  0  0  0  0  0
   -2.1250   -3.3670    1.7790 C   0  0  0  0  0  0  0  0  0  0  0  0
   -2.3610   -4.0870    2.8150 O   0  0  0  0  0  0  0  0  0  0  0  0
   -1.6150   -3.8300    0.5410 N   0  0  0  0  0  0  0  0  0  0  0  0
   -1.4930   -2.7430   -0.3520 C   0  0  0  0  0  0  0  0  0  0  0  0
   -1.1230   -2.7540   -1.5490 O   0  0  0  0  0  0  0  0  0  0  0  0
  1  2  1  0
  2  3  1  0
  3  4  1  6
  3  5  1  0
  5  6  2  0
  5  7  1  0
  7  8  1  0
  8  9  1  0
  9 10  2  0
  9 19  1  0
 10 11  1  0
 10 12  1  0
 12 13  1  0
 12 20  1  1
 12 24  1  0
 13 14  2  0
 14 15  1  0
 14 19  1  0
 15 16  2  0
 15 17  1  0
 17 18  1  0
 20 21  1  0
 21 22  2  0
 21 23  1  0
 23 24  1  0
 24 25  2  0
M  END
