
     RDKit          3D

 14 14  0  0  0  0  0  0  0  0999 V2000
   -3.9450    0.2180    0.3320 C   0  0  0  0  0  0  0  0  0  0  0  0
   -2.7680   -0.4900   -0.1700 N   0  0  0  0  0  0  0  0  0  0  0  0
   -1.9010    0.4230   -0.8540 C   0  0  0  0  0  0  0  0  0  0  0  0
   -0.4400    0.2430   -0.4940 C   0  0  1  0  0  0  0  0  0  0  0  0
   -0.0810   -1.0660   -0.8440 O   0  0  0  0  0  0  0  0  0  0  0  0
    0.3480    1.2110   -1.3480 C   0  0  0  0  0  0  0  0  0  0  0  0
    1.1350    2.0530   -0.4730 N   0  0  0  0  0  0  0  0  0  0  0  0
    2.3740    1.3850   -0.1280 C   0  0  0  0  0  0  0  0  0  0  0  0
    2.3150    0.6780    1.1770 C   0  0  2  0  0  0  0  0  0  0  0  0
    3.2270   -0.5450    1.1650 C   0  0  0  0  0  0  0  0  0  0  0  0
    2.7710   -1.5200    0.2830 O   0  0  0  0  0  0  0  0  0  0  0  0
    1.0260    0.2870    1.5730 O   0  0  0  0  0  0  0  0  0  0  0  0
   -0.2140    0.4340    0.9400 C   0  0  0  0  0  0  0  0  0  0  0  0
   -1.1840    0.7540    1.6930 O   0  0  0  0  0  0  0  0  0  0  0  0
  1  2  1  0
  2  3  1  0
  3  4  1  0
  4  5  1  6
  4  6  1  0
  4 13  1  0
  6  7  1  0
  7  8  1  0
  8  9  1  0
  9 10  1  6
  9 12  1  0
 10 11  1  0
 12 13  1  0
 13 14  2  0
M  CHG  1   2   1
M  END
