
     RDKit          3D

 11 11  0  0  0  0  0  0  0  0999 V2000
   -0.9020    2.4580   -0.4940 C   0  0  0  0  0  0  0  0  0  0  0  0
   -0.5380    1.6350    0.6830 C   0  0  0  0  0  0  0  0  0  0  0  0
   -0.1660    0.2190    0.4320 C   0  0  2  0  0  0  0  0  0  0  0  0
    0.9720    0.0500   -0.4350 N   0  0  0  0  0  0  0  0  0  0  0  0
    2.2210   -0.0480    0.3210 C   0  0  1  0  0  0  0  0  0  0  0  0
    3.2390   -1.0440   -0.0220 C   0  0  0  0  0  0  0  0  0  0  0  0
    3.4960    0.3810   -0.3070 C   0  0  0  0  0  0  0  0  0  0  0  0
   -1.3400   -0.6450    0.0690 C   0  0  2  0  0  0  0  0  0  0  0  0
   -2.3410   -0.6120    1.2220 C   0  0  0  0  0  0  0  0  0  0  0  0
   -0.8900   -2.1100    0.0010 C   0  0  0  0  0  0  0  0  0  0  0  0
   -1.9680   -0.3350   -1.2480 C   0  0  0  0  0  0  0  0  0  0  0  0
  1  2  1  0
  3  2  1  6
  3  4  1  0
  3  8  1  0
  5  4  1  6
  5  6  1  0
  5  7  1  0
  6  7  1  0
  8  9  1  1
  8 10  1  0
  8 11  1  0
M  CHG  1   4   1
M  END
