
     RDKit          3D

 13 14  0  0  0  0  0  0  0  0999 V2000
   -3.8540   -0.1960   -0.8000 N   0  0  0  0  0  0  0  0  0  0  0  0
   -2.9050    0.7930    0.2500 S   0  0  1  0  0  0  0  0  0  0  0  0
   -3.0780    2.2120   -0.2030 O   0  0  0  0  0  0  0  0  0  0  0  0
   -3.4460    0.7280    1.6640 O   0  0  0  0  0  0  0  0  0  0  0  0
   -1.2210    0.3540    0.1990 C   0  0  0  0  0  0  0  0  0  0  0  0
   -0.2000    1.2010   -0.1780 C   0  0  0  0  0  0  0  0  0  0  0  0
    0.9810    0.5180   -0.0970 C   0  0  0  0  0  0  0  0  0  0  0  0
    2.3050    0.8200   -0.3380 C   0  0  0  0  0  0  0  0  0  0  0  0
    3.3280   -0.0890   -0.1700 C   0  0  0  0  0  0  0  0  0  0  0  0
    2.9890   -1.3550    0.2610 C   0  0  0  0  0  0  0  0  0  0  0  0
    1.6700   -1.6680    0.5050 C   0  0  0  0  0  0  0  0  0  0  0  0
    0.6460   -0.7480    0.3340 C   0  0  0  0  0  0  0  0  0  0  0  0
   -0.6560   -0.7950    0.4930 O   0  0  0  0  0  0  0  0  0  0  0  0
  2  1  1  6
  2  3  2  0
  2  4  2  0
  2  5  1  0
  5  6  2  0
  5 13  1  0
  6  7  1  0
  7  8  2  0
  7 12  1  0
  8  9  1  0
  9 10  2  0
 10 11  1  0
 11 12  2  0
 12 13  1  0
M  END
