
     RDKit          3D

 14 14  0  0  0  0  0  0  0  0999 V2000
    4.2520    1.7360    0.2680 N   0  0  0  0  0  0  0  0  0  0  0  0
    3.3810    1.0210   -0.5150 O   0  0  0  0  0  0  0  0  0  0  0  0
    2.1490    0.5370   -0.0140 C   0  0  0  0  0  0  0  0  0  0  0  0
    1.9470    0.8260    1.1880 O   0  0  0  0  0  0  0  0  0  0  0  0
    1.2710   -0.2190   -0.9100 C   0  0  0  0  0  0  0  0  0  0  0  0
    0.0390   -0.6780   -0.1830 C   0  0  2  0  0  0  0  0  0  0  0  0
    0.3490   -1.5640    0.9640 C   0  0  0  0  0  0  0  0  0  0  0  0
    1.0230   -2.7080    0.5730 O   0  0  0  0  0  0  0  0  0  0  0  0
   -0.8960   -1.4490   -1.1260 C   0  0  0  0  0  0  0  0  0  0  0  0
   -2.2900   -1.3070   -0.5260 C   0  0  0  0  0  0  0  0  0  0  0  0
   -2.7780   -0.0630   -0.9830 O   0  0  0  0  0  0  0  0  0  0  0  0
   -1.8050    0.9170   -0.8350 C   0  0  1  0  0  0  0  0  0  0  0  0
   -2.4490    2.1290   -0.3850 N   0  0  0  0  0  0  0  0  0  0  0  0
   -0.7900    0.5380    0.2340 C   0  0  0  0  0  0  0  0  0  0  0  0
  1  2  1  0
  2  3  1  0
  3  4  2  0
  3  5  1  0
  6  5  1  6
  6  7  1  0
  6  9  1  0
  6 14  1  0
  7  8  1  0
  9 10  1  0
 10 11  1  0
 11 12  1  0
 12 13  1  1
 12 14  1  0
M  CHG  1  13   1
M  END
