
     RDKit          3D

 14 14  0  0  0  0  0  0  0  0999 V2000
    4.0640    0.9460    0.3380 C   0  0  0  0  0  0  0  0  0  0  0  0
    2.9710    0.3320   -0.2450 O   0  0  0  0  0  0  0  0  0  0  0  0
    3.1050   -1.0370   -0.1010 C   0  0  0  0  0  0  0  0  0  0  0  0
    1.9950   -1.8510   -0.6830 C   0  0  0  0  0  0  0  0  0  0  0  0
    0.7540   -1.6410   -0.1940 O   0  0  0  0  0  0  0  0  0  0  0  0
    0.1690   -0.4260   -0.3340 C   0  0  2  0  0  0  0  0  0  0  0  0
    0.0110    0.1080    0.9590 O   0  0  0  0  0  0  0  0  0  0  0  0
   -0.7940    1.2390    0.9590 C   0  0  0  0  0  0  0  0  0  0  0  0
   -2.2630    0.8630    0.7260 C   0  0  2  0  0  0  0  0  0  0  0  0
   -2.9890    0.7990    1.9660 N   0  0  0  0  0  0  0  0  0  0  0  0
   -2.2290   -0.5140    0.0760 C   0  0  1  0  0  0  0  0  0  0  0  0
   -3.4740   -0.9550   -0.2850 O   0  0  0  0  0  0  0  0  0  0  0  0
   -1.2060   -0.5510   -1.0090 C   0  0  1  0  0  0  0  0  0  0  0  0
   -1.3280    0.4660   -1.9910 N   0  0  0  0  0  0  0  0  0  0  0  0
  1  2  1  0
  2  3  1  0
  3  4  1  0
  4  5  1  0
  6  5  1  1
  6  7  1  0
  6 13  1  0
  7  8  1  0
  8  9  1  0
  9 10  1  1
  9 11  1  0
 11 12  1  6
 11 13  1  0
 13 14  1  6
M  CHG  2  10   1  14   1
M  END
