
     RDKit          3D

 26 29  0  0  0  0  0  0  0  0999 V2000
    2.3560   -2.2420    0.4900 C   0  0  0  0  0  0  0  0  0  0  0  0
    3.4800   -2.3710   -0.0080 N   0  0  0  0  0  0  0  0  0  0  0  0
    4.1240   -1.6120   -0.9260 N   0  0  0  0  0  0  0  0  0  0  0  0
    5.1250   -0.6620   -0.5190 C   0  0  0  0  0  0  0  0  0  0  0  0
    5.7870    0.1180   -1.4630 C   0  0  0  0  0  0  0  0  0  0  0  0
    6.7420    1.0260   -1.0900 C   0  0  0  0  0  0  0  0  0  0  0  0
    7.0260    1.1420    0.2500 C   0  0  0  0  0  0  0  0  0  0  0  0
    6.3890    0.3850    1.2110 C   0  0  0  0  0  0  0  0  0  0  0  0
    5.4270   -0.5280    0.8190 C   0  0  0  0  0  0  0  0  0  0  0  0
    1.3440   -1.2240    0.2520 C   0  0  0  0  0  0  0  0  0  0  0  0
    1.5290   -0.1940   -0.6290 C   0  0  0  0  0  0  0  0  0  0  0  0
    0.4880    0.7290   -0.7790 C   0  0  0  0  0  0  0  0  0  0  0  0
   -0.6620    0.6330   -0.0970 N   0  0  0  0  0  0  0  0  0  0  0  0
   -0.8330   -0.3960    0.7760 C   0  0  0  0  0  0  0  0  0  0  0  0
   -2.0610   -0.4880    1.4960 N   0  0  0  0  0  0  0  0  0  0  0  0
   -3.0900    0.4330    1.3410 N   0  0  0  0  0  0  0  0  0  0  0  0
   -4.1670    0.1650    0.4360 C   0  0  0  0  0  0  0  0  0  0  0  0
   -4.2230   -0.9970   -0.3030 C   0  0  0  0  0  0  0  0  0  0  0  0
   -5.2800   -1.2210   -1.1680 C   0  0  0  0  0  0  0  0  0  0  0  0
   -6.3140   -0.3050   -1.3300 C   0  0  0  0  0  0  0  0  0  0  0  0
   -6.2470    0.8510   -0.5870 C   0  0  0  0  0  0  0  0  0  0  0  0
   -7.1110    1.9250   -0.5370 C   0  0  0  0  0  0  0  0  0  0  0  0
   -6.5690    2.7780    0.3510 N   0  0  0  0  0  0  0  0  0  0  0  0
   -5.4300    2.2760    0.8350 N   0  0  0  0  0  0  0  0  0  0  0  0
   -5.1910    1.0700    0.2740 C   0  0  0  0  0  0  0  0  0  0  0  0
    0.1530   -1.2640    0.9130 N   0  0  0  0  0  0  0  0  0  0  0  0
  1  2  2  3
  1 10  1  0
  2  3  1  0
  3  4  1  0
  4  5  2  0
  4  9  1  0
  5  6  1  0
  6  7  2  0
  7  8  1  0
  8  9  2  0
 10 11  2  0
 10 26  1  0
 11 12  1  0
 12 13  2  0
 13 14  1  0
 14 15  1  0
 14 26  2  0
 15 16  1  0
 16 17  1  0
 17 18  2  0
 17 25  1  0
 18 19  1  0
 19 20  2  0
 20 21  1  0
 21 22  1  0
 21 25  2  0
 22 23  2  0
 23 24  1  0
 24 25  1  0
M  END
