
     RDKit          3D

 25 28  0  0  0  0  0  0  0  0999 V2000
   -6.4210    0.7450    0.4830 N   0  0  0  0  0  0  0  0  0  0  0  0
   -6.3050   -0.6220    0.9000 C   0  0  0  0  0  0  0  0  0  0  0  0
   -5.3610   -1.3890    0.0070 C   0  0  0  0  0  0  0  0  0  0  0  0
   -4.0030   -0.7540    0.0600 C   0  0  0  0  0  0  0  0  0  0  0  0
   -2.9090   -1.1650   -0.6060 N   0  0  0  0  0  0  0  0  0  0  0  0
   -1.8640   -0.3840   -0.3410 C   0  0  0  0  0  0  0  0  0  0  0  0
   -0.4960   -0.4840   -0.8570 C   0  0  0  0  0  0  0  0  0  0  0  0
   -0.1480   -1.4840   -1.7360 C   0  0  0  0  0  0  0  0  0  0  0  0
    1.1290   -1.5910   -2.2280 C   0  0  0  0  0  0  0  0  0  0  0  0
    2.0980   -0.6990   -1.8540 C   0  0  0  0  0  0  0  0  0  0  0  0
    1.7770    0.3260   -0.9650 C   0  0  0  0  0  0  0  0  0  0  0  0
    2.7350    1.3200   -0.5090 C   0  0  0  0  0  0  0  0  0  0  0  0
    2.6280    2.6380   -0.9740 C   0  0  0  0  0  0  0  0  0  0  0  0
    3.5260    3.6010   -0.5740 C   0  0  0  0  0  0  0  0  0  0  0  0
    4.5270    3.2180    0.2950 C   0  0  0  0  0  0  0  0  0  0  0  0
    4.6340    1.9240    0.7530 C   0  0  0  0  0  0  0  0  0  0  0  0
    3.7310    0.9510    0.3520 C   0  0  0  0  0  0  0  0  0  0  0  0
    3.8350   -0.4190    0.8400 C   0  0  0  0  0  0  0  0  0  0  0  0
    4.8020   -0.8790    1.6930 N   0  0  0  0  0  0  0  0  0  0  0  0
    4.6220   -2.1810    1.9590 C   0  0  0  0  0  0  0  0  0  0  0  0
    3.5220   -2.5430    1.2590 N   0  0  0  0  0  0  0  0  0  0  0  0
    3.0680   -1.4930    0.6040 N   0  0  0  0  0  0  0  0  0  0  0  0
    0.4780    0.4130   -0.4810 C   0  0  0  0  0  0  0  0  0  0  0  0
   -2.3190    0.5470    0.5200 N   0  0  0  0  0  0  0  0  0  0  0  0
   -3.6070    0.3230    0.7610 N   0  0  0  0  0  0  0  0  0  0  0  0
  1  2  1  0
  2  3  1  0
  3  4  1  0
  4  5  2  0
  4 25  1  0
  5  6  1  0
  6  7  1  0
  6 24  2  0
  7  8  2  0
  7 23  1  0
  8  9  1  0
  9 10  2  0
 10 11  1  0
 11 12  1  0
 11 23  2  0
 12 13  2  0
 12 17  1  0
 13 14  1  0
 14 15  2  0
 15 16  1  0
 16 17  2  0
 17 18  1  0
 18 19  1  0
 18 22  2  0
 19 20  2  0
 20 21  1  0
 21 22  1  0
 24 25  1  0
M  END
