
     RDKit          3D

 13 14  0  0  0  0  0  0  0  0999 V2000
    3.8110    0.5710    0.9300 N   0  0  0  0  0  0  0  0  0  0  0  0
    3.0440   -0.1250   -0.4250 S   0  0  1  0  0  0  0  0  0  0  0  0
    3.5170    0.5990   -1.6730 O   0  0  0  0  0  0  0  0  0  0  0  0
    3.4170   -1.5690   -0.6000 O   0  0  0  0  0  0  0  0  0  0  0  0
    1.2810   -0.0110   -0.3160 C   0  0  0  0  0  0  0  0  0  0  0  0
    0.5510    1.1150   -0.2300 N   0  0  0  0  0  0  0  0  0  0  0  0
   -0.7680    0.8080   -0.1640 C   0  0  0  0  0  0  0  0  0  0  0  0
   -1.9230    1.5490   -0.0670 C   0  0  0  0  0  0  0  0  0  0  0  0
   -3.1620    0.9040   -0.0180 C   0  0  0  0  0  0  0  0  0  0  0  0
   -3.2320   -0.4740   -0.0650 C   0  0  0  0  0  0  0  0  0  0  0  0
   -2.0720   -1.2010   -0.1610 C   0  0  0  0  0  0  0  0  0  0  0  0
   -0.8580   -0.5630   -0.2090 C   0  0  0  0  0  0  0  0  0  0  0  0
    0.4210   -1.0410   -0.3030 N   0  0  0  0  0  0  0  0  0  0  0  0
  2  1  1  1
  2  3  2  0
  2  4  2  0
  2  5  1  0
  5  6  2  0
  5 13  1  0
  6  7  1  0
  7  8  2  0
  7 12  1  0
  8  9  1  0
  9 10  2  0
 10 11  1  0
 11 12  2  0
 12 13  1  0
M  END
