
     RDKit          3D

 26 29  0  0  0  0  0  0  0  0999 V2000
   -4.1050    0.3670   -2.0330 C   0  0  0  0  0  0  0  0  0  0  0  0
   -2.7980    0.3430   -1.3100 C   0  0  0  0  0  0  0  0  0  0  0  0
   -1.6380    0.8880   -1.8160 C   0  0  0  0  0  0  0  0  0  0  0  0
   -0.4390    0.8600   -1.1320 C   0  0  0  0  0  0  0  0  0  0  0  0
   -0.4010    0.2620    0.1080 C   0  0  0  0  0  0  0  0  0  0  0  0
    0.7780    0.1640    0.9070 N   0  0  0  0  0  0  0  0  0  0  0  0
    0.8610    0.6450    2.1720 C   0  0  0  0  0  0  0  0  0  0  0  0
    2.0780    0.3840    2.6770 N   0  0  0  0  0  0  0  0  0  0  0  0
    2.7970   -0.2610    1.7600 C   0  0  0  0  0  0  0  0  0  0  0  0
    1.9690   -0.3930    0.6530 C   0  0  0  0  0  0  0  0  0  0  0  0
    2.3430   -1.0560   -0.6490 C   0  0  0  0  0  0  0  0  0  0  0  0
    3.7510   -1.3560   -0.5920 N   0  0  0  0  0  0  0  0  0  0  0  0
    4.7650   -0.3920   -0.4750 C   0  0  0  0  0  0  0  0  0  0  0  0
    4.5150    0.9670   -0.4360 C   0  0  0  0  0  0  0  0  0  0  0  0
    5.5190    1.8810   -0.3010 N   0  0  0  0  0  0  0  0  0  0  0  0
    6.7900    1.4460   -0.2030 C   0  0  0  0  0  0  0  0  0  0  0  0
    7.0860    0.0900   -0.2380 C   0  0  0  0  0  0  0  0  0  0  0  0
    6.0590   -0.7740   -0.3730 N   0  0  0  0  0  0  0  0  0  0  0  0
   -1.5830   -0.2910    0.6190 C   0  0  0  0  0  0  0  0  0  0  0  0
   -2.7800   -0.2680   -0.0530 C   0  0  0  0  0  0  0  0  0  0  0  0
   -4.0010   -0.8590    0.4750 C   0  0  0  0  0  0  0  0  0  0  0  0
   -4.3890   -2.1740    0.4230 C   0  0  0  0  0  0  0  0  0  0  0  0
   -5.5760   -2.2280    1.0520 N   0  0  0  0  0  0  0  0  0  0  0  0
   -5.9300   -1.0450    1.4780 N   0  0  0  0  0  0  0  0  0  0  0  0
   -4.9760   -0.1630    1.1390 C   0  0  0  0  0  0  0  0  0  0  0  0
   -4.9940    1.2570    1.4170 N   0  0  0  0  0  0  0  0  0  0  0  0
  1  2  1  0
  2  3  2  0
  2 20  1  0
  3  4  1  0
  4  5  2  0
  5  6  1  0
  5 19  1  0
  6  7  1  0
  6 10  1  0
  7  8  2  0
  8  9  1  0
  9 10  2  0
 10 11  1  0
 11 12  1  0
 12 13  1  0
 13 14  2  0
 13 18  1  0
 14 15  1  0
 15 16  2  0
 16 17  1  0
 17 18  2  0
 19 20  2  0
 20 21  1  0
 21 22  1  0
 21 25  2  0
 22 23  2  0
 23 24  1  0
 24 25  1  0
 25 26  1  0
M  END
