
     RDKit          3D

 26 25  0  0  0  0  0  0  0  0999 V2000
    2.0790   -2.3960   -2.4330 C   0  0  0  0  0  0  0  0  0  0  0  0
    2.1080   -2.4910   -1.0560 O   0  0  0  0  0  0  0  0  0  0  0  0
    0.8420   -2.6860   -0.5450 C   0  0  0  0  0  0  0  0  0  0  0  0
   -0.1320   -1.6290   -0.8310 C   0  0  0  0  0  0  0  0  0  0  0  0
    0.1970   -0.3030   -0.3410 N   0  0  2  0  0  0  0  0  0  0  0  0
    0.6770   -0.2200    0.9650 C   0  0  0  0  0  0  0  0  0  0  0  0
    2.1190    0.0070    1.1930 C   0  0  0  0  0  0  0  0  0  0  0  0
    2.5270    0.0750    2.4120 O   0  0  0  0  0  0  0  0  0  0  0  0
    3.1400    0.1640    0.2400 N   0  0  0  0  0  0  0  0  0  0  0  0
    4.5460    0.3860    0.6400 C   0  0  0  0  0  0  0  0  0  0  0  0
    5.0860   -0.7350    1.4560 C   0  0  0  0  0  0  0  0  0  0  0  0
    5.0440   -1.9380    0.7450 O   0  0  0  0  0  0  0  0  0  0  0  0
   -0.8560    0.6680   -0.7060 C   0  0  1  0  0  0  0  0  0  0  0  0
   -0.0650    1.9700   -1.0840 C   0  0  0  0  0  0  0  0  0  0  0  0
    0.8360    1.8070   -2.1530 N   0  0  0  0  0  0  0  0  0  0  0  0
   -1.5850    0.3060   -1.9160 C   0  0  0  0  0  0  0  0  0  0  0  0
   -2.6480    1.1570   -2.4740 C   0  0  0  0  0  0  0  0  0  0  0  0
   -3.7660    1.4330   -1.7700 O   0  0  0  0  0  0  0  0  0  0  0  0
   -1.6730    1.1310    0.4180 C   0  0  0  0  0  0  0  0  0  0  0  0
   -2.4620    0.2970    1.3020 C   0  0  2  0  0  0  0  0  0  0  0  0
   -3.5900   -0.5330    0.7690 C   0  0  0  0  0  0  0  0  0  0  0  0
   -4.1940   -1.2590    1.8540 O   0  0  0  0  0  0  0  0  0  0  0  0
   -3.0790    1.1870    2.2680 O   0  0  0  0  0  0  0  0  0  0  0  0
   -2.8760    1.0160    3.6250 C   0  0  0  0  0  0  0  0  0  0  0  0
   -3.4590    1.8610    4.6060 N   0  0  0  0  0  0  0  0  0  0  0  0
   -2.1340    0.0580    4.0340 O   0  0  0  0  0  0  0  0  0  0  0  0
  1  2  1  0
  2  3  1  0
  3  4  1  0
  5  4  1  1
  5  6  1  0
  5 13  1  0
  6  7  1  0
  7  8  2  0
  7  9  1  0
  9 10  1  0
 10 11  1  0
 11 12  1  0
 13 14  1  6
 13 16  1  0
 13 19  1  0
 14 15  1  0
 16 17  1  0
 17 18  1  0
 20 19  1  6
 20 21  1  0
 20 23  1  0
 21 22  1  0
 23 24  1  0
 24 25  1  0
 24 26  2  0
M  CHG  2   5   1  15   1
M  END
