
     RDKit          3D

 27 27  0  0  0  0  0  0  0  0999 V2000
    0.7970   -2.4570    0.3240 C   0  0  0  0  0  0  0  0  0  0  0  0
    0.5460   -1.0090    0.6280 C   0  0  1  0  0  0  0  0  0  0  0  0
    0.8770   -0.6670    1.9230 O   0  0  0  0  0  0  0  0  0  0  0  0
    1.3090   -0.2040   -0.3510 C   0  0  0  0  0  0  0  0  0  0  0  0
    2.8150   -0.4670   -0.3560 C   0  0  1  0  0  0  0  0  0  0  0  0
    3.4530    0.4360   -1.4070 C   0  0  0  0  0  0  0  0  0  0  0  0
    3.2530    1.7700   -1.1510 O   0  0  0  0  0  0  0  0  0  0  0  0
    3.8760    2.4900   -2.1690 C   0  0  0  0  0  0  0  0  0  0  0  0
    5.2620    2.2190   -2.2140 O   0  0  0  0  0  0  0  0  0  0  0  0
    3.4600   -0.3300    0.9840 C   0  0  0  0  0  0  0  0  0  0  0  0
    4.9170   -0.5760    1.0120 C   0  0  0  0  0  0  0  0  0  0  0  0
    5.6150   -0.3590    2.2270 N   0  0  0  0  0  0  0  0  0  0  0  0
    5.5430   -0.9610    0.0200 O   0  0  0  0  0  0  0  0  0  0  0  0
   -0.9530   -0.6830    0.5060 C   0  0  1  0  0  0  0  0  0  0  0  0
   -1.4900   -0.9420   -0.8460 C   0  0  0  0  0  0  0  0  0  0  0  0
   -2.8130   -0.7310   -0.9830 O   0  0  0  0  0  0  0  0  0  0  0  0
   -3.4080    0.4470   -0.7740 C   0  0  0  0  0  0  0  0  0  0  0  0
   -4.9190    0.3860   -1.0840 C   0  0  1  0  0  0  0  0  0  0  0  0
   -5.5840   -0.5770   -0.2580 N   0  0  0  0  0  0  0  0  0  0  0  0
   -5.5170    1.6850   -0.8370 N   0  0  0  0  0  0  0  0  0  0  0  0
   -6.8380    1.6330   -1.1010 O   0  0  0  0  0  0  0  0  0  0  0  0
   -1.7550   -1.2910    1.5850 C   0  0  0  0  0  0  0  0  0  0  0  0
   -1.4710   -0.4260    2.7570 C   0  0  0  0  0  0  0  0  0  0  0  0
   -1.3680   -0.8070    3.9510 O   0  0  0  0  0  0  0  0  0  0  0  0
   -1.3500    0.8820    2.2120 N   0  0  0  0  0  0  0  0  0  0  0  0
   -1.0170    0.7690    0.8150 C   0  0  0  0  0  0  0  0  0  0  0  0
   -0.8440    1.7870    0.1190 O   0  0  0  0  0  0  0  0  0  0  0  0
  2  1  1  6
  2  3  1  0
  2  4  1  0
  2 14  1  0
  5  4  1  1
  5  6  1  0
  5 10  1  0
  6  7  1  0
  7  8  1  0
  8  9  1  0
 10 11  1  0
 11 12  1  0
 11 13  2  0
 14 15  1  6
 14 22  1  0
 14 26  1  0
 15 16  1  0
 16 17  1  0
 17 18  1  0
 18 19  1  1
 18 20  1  0
 20 21  1  0
 22 23  1  0
 23 24  2  0
 23 25  1  0
 25 26  1  0
 26 27  2  0
M  CHG  1  19   1
M  END
