
     RDKit          3D

 27 27  0  0  0  0  0  0  0  0999 V2000
    1.9890    2.4110   -0.8170 N   0  0  0  0  0  0  0  0  0  0  0  0
    3.1760    1.6540   -0.8020 C   0  0  0  0  0  0  0  0  0  0  0  0
    3.6060    0.9740    0.4300 C   0  0  1  0  0  0  0  0  0  0  0  0
    4.9480    0.2820    0.2040 C   0  0  0  0  0  0  0  0  0  0  0  0
    5.4140   -0.3730    1.2980 O   0  0  0  0  0  0  0  0  0  0  0  0
    3.6090    1.7450    1.6920 C   0  0  0  0  0  0  0  0  0  0  0  0
    2.1860    1.8330    1.9880 C   0  0  0  0  0  0  0  0  0  0  0  0
    1.5920    0.7360    1.4190 C   0  0  0  0  0  0  0  0  0  0  0  0
    0.1760    0.5150    1.5260 C   0  0  0  0  0  0  0  0  0  0  0  0
   -0.6180   -0.4060    1.1290 C   0  0  0  0  0  0  0  0  0  0  0  0
   -2.0040   -0.0820    1.5250 O   0  0  0  0  0  0  0  0  0  0  0  0
   -2.9590   -0.0460    0.5240 C   0  0  0  0  0  0  0  0  0  0  0  0
   -4.3350    0.3000    1.1450 C   0  0  0  0  0  0  0  0  0  0  0  0
   -5.2560    0.2910    0.1490 O   0  0  0  0  0  0  0  0  0  0  0  0
   -5.1990    1.1500   -0.8800 C   0  0  0  0  0  0  0  0  0  0  0  0
   -5.4580    2.5450   -0.5400 C   0  0  0  0  0  0  0  0  0  0  0  0
   -5.9520    2.9660    0.7140 N   0  0  0  0  0  0  0  0  0  0  0  0
   -5.2520    3.4370   -1.3700 O   0  0  0  0  0  0  0  0  0  0  0  0
   -0.5440   -1.6140    0.4590 C   0  0  0  0  0  0  0  0  0  0  0  0
   -1.4290   -2.3310    0.0720 O   0  0  0  0  0  0  0  0  0  0  0  0
    0.9970   -2.2330    0.1170 N   0  0  0  0  0  0  0  0  0  0  0  0
    0.6110   -3.2880   -0.6390 C   0  0  0  0  0  0  0  0  0  0  0  0
   -0.3820   -3.7760   -1.1380 O   0  0  0  0  0  0  0  0  0  0  0  0
    1.8910   -4.0690   -0.9210 N   0  0  0  0  0  0  0  0  0  0  0  0
    1.7780   -5.2200   -1.7090 C   0  0  0  0  0  0  0  0  0  0  0  0
    0.8540   -6.1520   -1.1890 O   0  0  0  0  0  0  0  0  0  0  0  0
    2.6250    0.0310    0.8050 O   0  0  0  0  0  0  0  0  0  0  0  0
  1  2  1  0
  3  2  1  6
  3  4  1  0
  3  6  1  0
  3 27  1  0
  4  5  1  0
  6  7  1  0
  7  8  2  0
  8  9  1  0
  8 27  1  0
  9 10  2  3
 10 11  1  0
 10 19  1  0
 11 12  1  0
 12 13  1  0
 13 14  1  0
 14 15  1  0
 15 16  1  0
 16 17  1  0
 16 18  2  0
 19 20  2  0
 19 21  1  0
 21 22  1  0
 22 23  2  0
 22 24  1  0
 24 25  1  0
 25 26  1  0
M  CHG  2   1   1  17   1
M  END
