
     RDKit          3D

 26 25  0  0  0  0  0  0  0  0999 V2000
   -1.8240    1.6830   -1.4640 C   0  0  0  0  0  0  0  0  0  0  0  0
   -1.8510    0.4350   -0.5530 C   0  0  2  0  0  0  0  0  0  0  0  0
   -3.1340   -0.0490   -0.6240 O   0  0  0  0  0  0  0  0  0  0  0  0
   -3.6460   -0.4590   -1.7990 C   0  0  0  0  0  0  0  0  0  0  0  0
   -5.1170   -0.9070   -1.6040 C   0  0  0  0  0  0  0  0  0  0  0  0
   -5.1490   -1.9800   -0.6670 O   0  0  0  0  0  0  0  0  0  0  0  0
   -6.3630   -2.5540   -0.3260 C   0  0  0  0  0  0  0  0  0  0  0  0
   -7.4070   -2.0990   -0.8650 O   0  0  0  0  0  0  0  0  0  0  0  0
   -1.6270    0.9190    0.8250 C   0  0  1  0  0  0  0  0  0  0  0  0
   -2.6460    1.9710    1.1120 N   0  0  0  0  0  0  0  0  0  0  0  0
   -1.7690   -0.0560    1.9360 C   0  0  0  0  0  0  0  0  0  0  0  0
   -1.5090    0.6170    3.2160 N   0  0  0  0  0  0  0  0  0  0  0  0
   -0.9210   -0.5280   -1.1740 C   0  0  2  0  0  0  0  0  0  0  0  0
   -0.9690   -1.8510   -0.5410 N   0  0  0  0  0  0  0  0  0  0  0  0
    0.4670   -0.1080   -1.4120 C   0  0  0  0  0  0  0  0  0  0  0  0
    0.8430    0.1540   -2.6620 C   0  0  0  0  0  0  0  0  0  0  0  0
   -0.1050    0.0170   -3.6990 N   0  0  0  0  0  0  0  0  0  0  0  0
    1.5070    0.0840   -0.4180 C   0  0  0  0  0  0  0  0  0  0  0  0
    1.2850   -0.1580    0.7770 O   0  0  0  0  0  0  0  0  0  0  0  0
    2.7670    0.5360   -0.7470 O   0  0  0  0  0  0  0  0  0  0  0  0
    3.8060    0.7340    0.1770 C   0  0  0  0  0  0  0  0  0  0  0  0
    4.1990   -0.5410    0.8690 C   0  0  0  0  0  0  0  0  0  0  0  0
    5.2170   -0.3520    1.7760 O   0  0  0  0  0  0  0  0  0  0  0  0
    6.3960    0.1310    1.2690 C   0  0  0  0  0  0  0  0  0  0  0  0
    7.3570    0.2370    2.4640 C   0  0  0  0  0  0  0  0  0  0  0  0
    8.5970    0.7240    2.0530 O   0  0  0  0  0  0  0  0  0  0  0  0
  2  1  1  6
  2  3  1  0
  2  9  1  0
  2 13  1  0
  3  4  1  0
  4  5  1  0
  5  6  1  0
  6  7  1  0
  7  8  2  0
  9 10  1  1
  9 11  1  0
 11 12  1  0
 13 14  1  1
 13 15  1  0
 15 16  2  3
 15 18  1  0
 16 17  1  0
 18 19  2  0
 18 20  1  0
 20 21  1  0
 21 22  1  0
 22 23  1  0
 23 24  1  0
 24 25  1  0
 25 26  1  0
M  CHG  3  10   1  12   1  14   1
M  END
