
     RDKit          3D

 27 26  0  0  0  0  0  0  0  0999 V2000
    1.4950   -1.5940   -1.7170 C   0  0  0  0  0  0  0  0  0  0  0  0
    1.3850   -1.1700   -0.2670 C   0  0  2  0  0  0  0  0  0  0  0  0
    2.7440   -0.6720    0.2090 C   0  0  0  0  0  0  0  0  0  0  0  0
    3.0820    0.3650   -0.6440 O   0  0  0  0  0  0  0  0  0  0  0  0
    4.3180    0.9080   -0.3630 C   0  0  0  0  0  0  0  0  0  0  0  0
    4.3180    1.4640    1.0410 C   0  0  0  0  0  0  0  0  0  0  0  0
    3.3270    2.4470    1.1420 O   0  0  0  0  0  0  0  0  0  0  0  0
    3.3570    3.5810    0.3890 C   0  0  0  0  0  0  0  0  0  0  0  0
    2.3040    4.5630    0.5280 N   0  0  0  0  0  0  0  0  0  0  0  0
    4.2650    3.8320   -0.4410 O   0  0  0  0  0  0  0  0  0  0  0  0
    0.8980   -2.2560    0.5310 N   0  0  0  0  0  0  0  0  0  0  0  0
    1.7330   -3.4130    0.5130 C   0  0  0  0  0  0  0  0  0  0  0  0
    0.9840   -4.6530    0.0270 C   0  0  0  0  0  0  0  0  0  0  0  0
    0.4960   -4.4900   -1.2570 O   0  0  0  0  0  0  0  0  0  0  0  0
    0.4650   -0.0050   -0.2210 C   0  0  0  0  0  0  0  0  0  0  0  0
    0.8070    1.0240   -0.8980 O   0  0  0  0  0  0  0  0  0  0  0  0
   -0.7160   -0.0330    0.5240 N   0  0  0  0  0  0  0  0  0  0  0  0
   -1.5870    1.1770    0.5170 C   0  0  2  0  0  0  0  0  0  0  0  0
   -1.7090    1.6570    1.9090 C   0  0  0  0  0  0  0  0  0  0  0  0
   -2.4470    2.8080    2.1060 O   0  0  0  0  0  0  0  0  0  0  0  0
   -2.8110    0.7400   -0.2100 C   0  0  2  0  0  0  0  0  0  0  0  0
   -2.3150    0.3230   -1.6000 C   0  0  0  0  0  0  0  0  0  0  0  0
   -3.3310   -0.1310   -2.4760 N   0  0  0  0  0  0  0  0  0  0  0  0
   -3.9260    1.7230   -0.3380 C   0  0  0  0  0  0  0  0  0  0  0  0
   -4.4620    2.1390    0.8600 O   0  0  0  0  0  0  0  0  0  0  0  0
   -3.4160   -0.5220    0.3920 C   0  0  0  0  0  0  0  0  0  0  0  0
   -3.7610   -0.2760    1.7190 O   0  0  0  0  0  0  0  0  0  0  0  0
  2  1  1  6
  2  3  1  0
  2 11  1  0
  2 15  1  0
  3  4  1  0
  4  5  1  0
  5  6  1  0
  6  7  1  0
  7  8  1  0
  8  9  1  0
  8 10  2  0
 11 12  1  0
 12 13  1  0
 13 14  1  0
 15 16  2  0
 15 17  1  0
 17 18  1  0
 18 19  1  1
 18 21  1  0
 19 20  1  0
 21 22  1  6
 21 24  1  0
 21 26  1  0
 22 23  1  0
 24 25  1  0
 26 27  1  0
M  CHG  2  11   1  23   1
M  END
