
     RDKit          3D

  9  9  0  0  0  0  0  0  0  0999 V2000
    2.3110   -0.9120    0.1140 N   0  0  0  0  0  0  0  0  0  0  0  0
    1.4550    0.1770   -0.1810 C   0  0  0  0  0  0  0  0  0  0  0  0
    2.0300    1.2090   -0.6290 O   0  0  0  0  0  0  0  0  0  0  0  0
   -0.0070    0.1280    0.0140 C   0  0  0  0  0  0  0  0  0  0  0  0
   -0.7690    1.1510   -0.2670 C   0  0  0  0  0  0  0  0  0  0  0  0
   -0.3950    2.3580   -0.7530 O   0  0  0  0  0  0  0  0  0  0  0  0
   -2.4400    0.6650    0.1110 S   0  0  0  0  0  0  0  0  0  0  0  0
   -1.9830   -1.1200    0.2800 C   0  0  0  0  0  0  0  0  0  0  0  0
   -0.6320   -0.9710    0.4940 O   0  0  0  0  0  0  0  0  0  0  0  0
  1  2  1  0
  2  3  2  0
  2  4  1  0
  4  5  2  0
  4  9  1  0
  5  6  1  0
  5  7  1  0
  7  8  1  0
  8  9  1  0
M  END
