
     RDKit          3D

  9  9  0  0  0  0  0  0  0  0999 V2000
    2.0300   -0.0490   -0.3850 C   0  0  0  0  0  0  0  0  0  0  0  0
    0.5900   -0.1270   -0.1320 C   0  0  0  0  0  0  0  0  0  0  0  0
   -0.2490    0.8710    0.0140 C   0  0  0  0  0  0  0  0  0  0  0  0
    0.1610    2.1950   -0.0600 O   0  0  0  0  0  0  0  0  0  0  0  0
   -1.6250    0.4800    0.2550 C   0  0  0  0  0  0  0  0  0  0  0  0
   -1.7190   -0.8260    0.8140 N   0  0  0  0  0  0  0  0  0  0  0  0
   -0.3480   -1.5940    0.0390 S   0  0  1  0  0  0  0  0  0  0  0  0
   -0.6950   -2.0730   -1.3250 O   0  0  0  0  0  0  0  0  0  0  0  0
    0.2870   -2.5970    0.9050 O   0  0  0  0  0  0  0  0  0  0  0  0
  1  2  1  0
  2  3  2  0
  2  7  1  0
  3  4  1  0
  3  5  1  0
  5  6  1  0
  7  6  1  1
  7  8  2  0
  7  9  2  0
M  END
