
     RDKit          3D

  8  8  0  0  0  0  0  0  0  0999 V2000
    3.2040   -0.6460   -0.4790 O   0  0  0  0  0  0  0  0  0  0  0  0
    2.0610   -0.1260   -0.2720 C   0  0  0  0  0  0  0  0  0  0  0  0
    0.9440   -0.8100    0.0230 N   0  0  0  0  0  0  0  0  0  0  0  0
   -0.0760    0.0510    0.1760 C   0  0  0  0  0  0  0  0  0  0  0  0
   -1.4910   -0.2800    0.5070 C   0  0  0  0  0  0  0  0  0  0  0  0
   -2.2370   -0.4890   -0.6450 O   0  0  0  0  0  0  0  0  0  0  0  0
    0.4510    1.3040   -0.0370 C   0  0  0  0  0  0  0  0  0  0  0  0
    1.7190    1.1340   -0.2970 O   0  0  0  0  0  0  0  0  0  0  0  0
  1  2  2  0
  2  3  1  0
  2  8  1  0
  3  4  1  0
  4  5  1  0
  4  7  2  0
  5  6  1  0
  7  8  1  0
M  END
