
     RDKit          3D

  9  9  0  0  0  0  0  0  0  0999 V2000
    2.7540    0.0540    0.6250 N   0  0  0  0  0  0  0  0  0  0  0  0
    1.6010    0.3250   -0.6420 S   0  0  2  0  0  0  0  0  0  0  0  0
    2.1240   -0.2660   -1.9100 O   0  0  0  0  0  0  0  0  0  0  0  0
    1.4140    1.7930   -0.8440 O   0  0  0  0  0  0  0  0  0  0  0  0
    0.0730   -0.4600   -0.2630 C   0  0  2  0  0  0  0  0  0  0  0  0
   -0.8720   -0.1120   -1.3190 N   0  0  0  0  0  0  0  0  0  0  0  0
   -2.0400    0.0370   -0.8260 C   0  0  0  0  0  0  0  0  0  0  0  0
   -1.9330   -0.2120    0.6270 C   0  0  0  0  0  0  0  0  0  0  0  0
   -0.5660    0.1490    0.9240 N   0  0  0  0  0  0  0  0  0  0  0  0
  2  1  1  1
  2  3  2  0
  2  4  2  0
  2  5  1  0
  5  6  1  0
  5  9  1  1
  6  7  2  0
  7  8  1  0
  8  9  1  0
M  END
