
     RDKit          3D

  9  9  0  0  0  0  0  0  0  0999 V2000
   -1.9810    1.4720    1.2480 O   0  0  0  0  0  0  0  0  0  0  0  0
   -1.2100    0.8510    0.4470 C   0  0  0  0  0  0  0  0  0  0  0  0
   -1.6890   -0.4760   -0.0370 C   0  0  0  0  0  0  0  0  0  0  0  0
   -0.6810   -1.7220    0.8100 S   0  0  0  0  0  0  0  0  0  0  0  0
    0.9480   -1.6210    0.1380 N   0  0  0  0  0  0  0  0  0  0  0  0
    1.6560   -0.4690   -0.2640 C   0  0  0  0  0  0  0  0  0  0  0  0
    2.8700   -0.6630   -0.5840 O   0  0  0  0  0  0  0  0  0  0  0  0
    1.2040    0.8760   -0.3620 N   0  0  0  0  0  0  0  0  0  0  0  0
    0.0110    1.4600    0.0900 N   0  0  0  0  0  0  0  0  0  0  0  0
  1  2  2  0
  2  3  1  0
  2  9  1  0
  3  4  1  0
  4  5  1  0
  5  6  1  0
  6  7  2  0
  6  8  1  0
  8  9  1  0
M  END
