
     RDKit          3D

  9  9  0  0  0  0  0  0  0  0999 V2000
   -2.3340   -0.8030    0.5570 N   0  0  0  0  0  0  0  0  0  0  0  0
   -1.6620    0.5130   -0.3190 S   0  0  2  0  0  0  0  0  0  0  0  0
   -2.1160    1.8340    0.2200 O   0  0  0  0  0  0  0  0  0  0  0  0
   -2.1440    0.4000   -1.7540 O   0  0  0  0  0  0  0  0  0  0  0  0
    0.0870    0.3940   -0.2730 C   0  0  0  0  0  0  0  0  0  0  0  0
    0.9720    1.2360   -0.8410 N   0  0  0  0  0  0  0  0  0  0  0  0
    2.1900    0.7700   -0.5580 C   0  0  0  0  0  0  0  0  0  0  0  0
    2.0410   -0.3710    0.1940 C   0  0  0  0  0  0  0  0  0  0  0  0
    0.7480   -0.5900    0.3620 N   0  0  0  0  0  0  0  0  0  0  0  0
  2  1  1  1
  2  3  2  0
  2  4  2  0
  2  5  1  0
  5  6  2  0
  5  9  1  0
  6  7  1  0
  7  8  2  0
  8  9  1  0
M  END
