
     RDKit          3D

 13 13  0  0  0  0  0  0  0  0999 V2000
    1.7700   -0.2690    2.2300 C   0  0  0  0  0  0  0  0  0  0  0  0
    2.0520    0.9100    1.4050 C   0  0  0  0  0  0  0  0  0  0  0  0
    3.1650    1.7740    1.7570 C   0  0  0  0  0  0  0  0  0  0  0  0
    3.4150    2.7840    1.0600 O   0  0  0  0  0  0  0  0  0  0  0  0
    1.3110    1.1860    0.3590 C   0  0  0  0  0  0  0  0  0  0  0  0
    0.1900    0.3560   -0.0330 C   0  0  0  0  0  0  0  0  0  0  0  0
   -0.5120    0.7110   -1.1120 C   0  0  0  0  0  0  0  0  0  0  0  0
   -1.6450   -0.1030   -1.5320 C   0  0  0  0  0  0  0  0  0  0  0  0
   -2.3720    0.2940   -2.6770 N   0  0  0  0  0  0  0  0  0  0  0  0
   -1.9590   -1.1710   -0.8460 C   0  0  0  0  0  0  0  0  0  0  0  0
   -3.0390   -1.9390   -1.2550 O   0  0  0  0  0  0  0  0  0  0  0  0
   -1.2210   -1.6200    0.3620 C   0  0  0  0  0  0  0  0  0  0  0  0
   -0.1510   -0.7750    0.6840 O   0  0  0  0  0  0  0  0  0  0  0  0
  1  2  1  0
  2  3  1  0
  2  5  2  3
  3  4  2  0
  5  6  1  0
  6  7  2  0
  6 13  1  0
  7  8  1  0
  8  9  1  0
  8 10  2  0
 10 11  1  0
 10 12  1  0
 12 13  1  0
M  END
