
     RDKit          3D

 13 13  0  0  0  0  0  0  0  0999 V2000
    3.1570    0.3410   -1.5050 C   0  0  0  0  0  0  0  0  0  0  0  0
    2.4680   -0.2400   -0.2990 C   0  0  1  0  0  0  0  0  0  0  0  0
    3.2660    0.1470    0.9280 C   0  0  0  0  0  0  0  0  0  0  0  0
    1.1600    0.2210   -0.1280 O   0  0  0  0  0  0  0  0  0  0  0  0
    0.0350   -0.5420   -0.0550 C   0  0  0  0  0  0  0  0  0  0  0  0
    0.1520   -1.7860   -0.1480 O   0  0  0  0  0  0  0  0  0  0  0  0
   -1.3260   -0.0090    0.1270 C   0  0  0  0  0  0  0  0  0  0  0  0
   -1.5160    1.2870    0.2310 C   0  0  0  0  0  0  0  0  0  0  0  0
   -2.8300    1.9100    0.4140 C   0  0  0  0  0  0  0  0  0  0  0  0
   -3.8690    0.9990    0.4680 O   0  0  0  0  0  0  0  0  0  0  0  0
   -3.6870   -0.3480    0.3610 C   0  0  0  0  0  0  0  0  0  0  0  0
   -2.4770   -0.8880    0.1950 C   0  0  0  0  0  0  0  0  0  0  0  0
   -2.2730   -2.2850    0.0830 N   0  0  0  0  0  0  0  0  0  0  0  0
  2  1  1  6
  2  3  1  0
  2  4  1  0
  4  5  1  0
  5  6  2  0
  5  7  1  0
  7  8  2  0
  7 12  1  0
  8  9  1  0
  9 10  1  0
 10 11  1  0
 11 12  2  0
 12 13  1  0
M  END
