
     RDKit          3D

 13 13  0  0  0  0  0  0  0  0999 V2000
    3.9820    0.6550   -1.0260 C   0  0  0  0  0  0  0  0  0  0  0  0
    3.6200   -0.6480   -0.7370 O   0  0  0  0  0  0  0  0  0  0  0  0
    2.7900   -0.7760    0.3550 C   0  0  0  0  0  0  0  0  0  0  0  0
    1.4730   -0.0540    0.2370 C   0  0  0  0  0  0  0  0  0  0  0  0
    0.7140   -0.3200    1.5170 C   0  0  0  0  0  0  0  0  0  0  0  0
   -0.5350    0.2800    1.5700 O   0  0  0  0  0  0  0  0  0  0  0  0
   -1.5840    0.0770    0.7130 C   0  0  0  0  0  0  0  0  0  0  0  0
   -2.1400   -1.1020    0.5460 C   0  0  0  0  0  0  0  0  0  0  0  0
   -3.2670   -1.3120   -0.3770 C   0  0  0  0  0  0  0  0  0  0  0  0
   -3.7180   -0.1500   -1.0810 N   0  0  0  0  0  0  0  0  0  0  0  0
   -3.1100    1.0930   -0.8850 C   0  0  0  0  0  0  0  0  0  0  0  0
   -2.0940    1.2150   -0.0350 C   0  0  0  0  0  0  0  0  0  0  0  0
   -1.5360    2.4710    0.1130 O   0  0  0  0  0  0  0  0  0  0  0  0
  1  2  1  0
  2  3  1  0
  3  4  1  0
  4  5  1  0
  5  6  1  0
  6  7  1  0
  7  8  2  0
  7 12  1  0
  8  9  1  0
  9 10  1  0
 10 11  1  0
 11 12  2  0
 12 13  1  0
M  END
