
     RDKit          3D

 13 13  0  0  0  0  0  0  0  0999 V2000
    3.7150    0.0690   -0.1810 C   0  0  0  0  0  0  0  0  0  0  0  0
    3.1590    0.1640    1.2460 C   0  0  0  0  0  0  0  0  0  0  0  0
    1.7620    0.6510    1.0810 C   0  0  0  0  0  0  0  0  0  0  0  0
    1.4890    1.7950    1.5010 O   0  0  0  0  0  0  0  0  0  0  0  0
    0.7230   -0.1420    0.4620 C   0  0  0  0  0  0  0  0  0  0  0  0
   -0.4940    0.3370    0.3530 C   0  0  0  0  0  0  0  0  0  0  0  0
   -0.9780    1.5880    0.7760 O   0  0  0  0  0  0  0  0  0  0  0  0
   -2.3260    1.6810    0.4620 C   0  0  0  0  0  0  0  0  0  0  0  0
   -3.1050    2.6320    0.6720 O   0  0  0  0  0  0  0  0  0  0  0  0
   -2.6610    0.4150   -0.1830 C   0  0  0  0  0  0  0  0  0  0  0  0
   -3.9710    0.1330   -0.6530 N   0  0  0  0  0  0  0  0  0  0  0  0
   -1.6090   -0.3660   -0.2490 C   0  0  0  0  0  0  0  0  0  0  0  0
   -1.5440   -1.7430   -0.8440 C   0  0  0  0  0  0  0  0  0  0  0  0
  1  2  1  0
  2  3  1  0
  3  4  2  0
  3  5  1  0
  5  6  2  3
  6  7  1  0
  6 12  1  0
  7  8  1  0
  8  9  2  0
  8 10  1  0
 10 11  1  0
 10 12  2  0
 12 13  1  0
M  END
