
     RDKit          3D

 13 13  0  0  0  0  0  0  0  0999 V2000
   -1.2660    0.6150   -1.1240 O   0  0  0  0  0  0  0  0  0  0  0  0
   -0.8170    0.3930    0.0240 C   0  0  0  0  0  0  0  0  0  0  0  0
   -1.7130    0.3380    1.1100 N   0  0  0  0  0  0  0  0  0  0  0  0
   -3.1330    0.5200    1.0020 C   0  0  0  0  0  0  0  0  0  0  0  0
   -3.7820   -0.5010    0.0950 C   0  0  0  0  0  0  0  0  0  0  0  0
   -5.1490   -0.2290    0.0670 O   0  0  0  0  0  0  0  0  0  0  0  0
    0.5520    0.2140    0.1590 O   0  0  0  0  0  0  0  0  0  0  0  0
    1.4230    0.2800   -0.9820 C   0  0  0  0  0  0  0  0  0  0  0  0
    2.8300    0.0540   -0.5650 C   0  0  0  0  0  0  0  0  0  0  0  0
    3.6450   -0.9080   -0.9690 C   0  0  0  0  0  0  0  0  0  0  0  0
    4.9400   -0.7540   -0.3050 C   0  0  0  0  0  0  0  0  0  0  0  0
    4.8000    0.3630    0.3900 C   0  0  0  0  0  0  0  0  0  0  0  0
    3.5920    0.8590    0.3800 C   0  0  0  0  0  0  0  0  0  0  0  0
  1  2  2  0
  2  3  1  0
  2  7  1  0
  3  4  1  0
  4  5  1  0
  5  6  1  0
  7  8  1  0
  8  9  1  0
  9 10  2  0
  9 13  1  0
 10 11  1  0
 11 12  2  0
 12 13  2  0
M  END
