
     RDKit          3D

  9  8  0  0  0  0  0  0  0  0999 V2000
   -3.4910   -0.0010   -0.2260 C   0  0  0  0  0  0  0  0  0  0  0  0
   -2.1290    0.5330    0.0800 C   0  0  0  0  0  0  0  0  0  0  0  0
   -0.8390   -0.6850   -0.2490 S   0  0  0  0  0  0  0  0  0  0  0  0
    0.7590   -0.0140    0.1260 C   0  0  0  0  0  0  0  0  0  0  0  0
    0.8690    1.5120    0.6830 S   0  0  0  0  0  0  0  0  0  0  0  0
    1.9730   -0.7320   -0.0300 N   0  0  0  0  0  0  0  0  0  0  0  0
    3.2400   -0.2070    0.2640 C   0  0  0  0  0  0  0  0  0  0  0  0
    3.3330    0.9590    0.6910 O   0  0  0  0  0  0  0  0  0  0  0  0
    4.4290   -0.9280    0.1050 O   0  0  0  0  0  0  0  0  0  0  0  0
  1  2  1  0
  2  3  1  0
  3  4  1  0
  4  5  2  0
  4  6  1  0
  6  7  1  0
  7  8  2  0
  7  9  1  0
M  END
