
     RDKit          3D

 22 24  0  0  0  0  0  0  0  0999 V2000
   -5.6900    0.9850   -0.3440 C   0  0  0  0  0  0  0  0  0  0  0  0
   -4.9540   -0.2000   -0.5640 O   0  0  0  0  0  0  0  0  0  0  0  0
   -3.5780   -0.2420   -0.3270 C   0  0  0  0  0  0  0  0  0  0  0  0
   -2.9470    0.8850    0.1250 C   0  0  0  0  0  0  0  0  0  0  0  0
   -1.5830    0.8490    0.3630 C   0  0  0  0  0  0  0  0  0  0  0  0
   -0.9160    1.9130    0.8030 N   0  0  0  0  0  0  0  0  0  0  0  0
    0.4070    1.8600    1.0270 C   0  0  0  0  0  0  0  0  0  0  0  0
    0.9970    2.8890    1.4430 O   0  0  0  0  0  0  0  0  0  0  0  0
    1.1330    0.7110    0.8150 C   0  0  0  0  0  0  0  0  0  0  0  0
    2.4880    0.6280    1.0370 C   0  0  0  0  0  0  0  0  0  0  0  0
    3.2270   -0.5160    0.8280 C   0  0  0  0  0  0  0  0  0  0  0  0
    4.9840   -0.5240    1.1460 S   0  0  0  0  0  0  0  0  0  0  0  0
    5.8560   -0.0370   -0.3870 C   0  0  0  0  0  0  0  0  0  0  0  0
    7.2880   -0.0220   -0.2010 C   0  0  0  0  0  0  0  0  0  0  0  0
    8.4320   -0.0300   -0.0530 N   0  0  0  0  0  0  0  0  0  0  0  0
    2.5400   -1.6190    0.3730 C   0  0  0  0  0  0  0  0  0  0  0  0
    1.1600   -1.5950    0.1300 C   0  0  0  0  0  0  0  0  0  0  0  0
    0.4800   -0.4210    0.3570 C   0  0  0  0  0  0  0  0  0  0  0  0
   -0.8990   -0.3420    0.1300 C   0  0  0  0  0  0  0  0  0  0  0  0
   -1.5510   -1.4660   -0.3250 C   0  0  0  0  0  0  0  0  0  0  0  0
   -2.9280   -1.4250   -0.5630 C   0  0  0  0  0  0  0  0  0  0  0  0
   -3.6020   -2.5670   -1.0280 O   0  0  0  0  0  0  0  0  0  0  0  0
  1  2  1  0
  2  3  1  0
  3  4  2  0
  3 21  1  0
  4  5  1  0
  5  6  1  0
  5 19  2  0
  6  7  1  0
  7  8  2  0
  7  9  1  0
  9 10  2  0
  9 18  1  0
 10 11  1  0
 11 12  1  0
 11 16  2  0
 12 13  1  0
 13 14  1  0
 14 15  3  0
 16 17  1  0
 17 18  2  0
 18 19  1  0
 19 20  1  0
 20 21  2  0
 21 22  1  0
M  END
