
     RDKit          3D

  9  9  0  0  0  0  0  0  0  0999 V2000
    3.2400   -0.8860    1.0750 O   0  0  0  0  0  0  0  0  0  0  0  0
    2.1050   -0.5520    0.6610 C   0  0  0  0  0  0  0  0  0  0  0  0
    1.5680    0.6940    0.3360 N   0  0  0  0  0  0  0  0  0  0  0  0
    0.2600    0.7230   -0.0990 C   0  0  0  0  0  0  0  0  0  0  0  0
   -0.3770    1.7840   -0.4340 O   0  0  0  0  0  0  0  0  0  0  0  0
   -0.4140   -0.5610   -0.1710 C   0  0  0  0  0  0  0  0  0  0  0  0
   -1.6450   -0.8550   -0.5430 C   0  0  0  0  0  0  0  0  0  0  0  0
   -2.8190    0.3760   -1.0750 S   0  0  0  0  0  0  0  0  0  0  0  0
    0.8080   -1.7480    0.3730 S   0  0  0  0  0  0  0  0  0  0  0  0
  1  2  2  0
  2  3  1  0
  2  9  1  0
  3  4  1  0
  4  5  2  0
  4  6  1  0
  6  7  2  3
  6  9  1  0
  7  8  1  0
M  END
