
     RDKit          3D

  9  8  0  0  0  0  0  0  0  0999 V2000
   -2.6680    1.2350    0.2340 C   0  0  0  0  0  0  0  0  0  0  0  0
   -2.1640    0.2720   -0.7320 N   0  0  0  0  0  0  0  0  0  0  0  0
   -0.9310   -0.3940   -0.5350 C   0  0  0  0  0  0  0  0  0  0  0  0
   -0.3730   -1.4740   -1.6100 S   0  0  0  0  0  0  0  0  0  0  0  0
    0.0350   -0.0600    0.9180 S   0  0  0  0  0  0  0  0  0  0  0  0
    1.5710   -0.9900    0.9560 C   0  0  0  0  0  0  0  0  0  0  0  0
    2.4550   -0.4990   -0.1240 C   0  0  0  0  0  0  0  0  0  0  0  0
    2.3960   -1.0530   -1.2410 O   0  0  0  0  0  0  0  0  0  0  0  0
    3.3270    0.5480    0.0890 O   0  0  0  0  0  0  0  0  0  0  0  0
  1  2  1  0
  2  3  1  0
  3  4  2  0
  3  5  1  0
  5  6  1  0
  6  7  1  0
  7  8  2  0
  7  9  1  0
M  END
