
     RDKit          3D

  9  8  0  0  0  0  0  0  0  0999 V2000
    2.7340   -0.6190    0.5970 C   0  0  0  0  0  0  0  0  0  0  0  0
    1.8270   -0.3330   -0.4220 O   0  0  0  0  0  0  0  0  0  0  0  0
    0.7230    0.4980   -0.3030 C   0  0  0  0  0  0  0  0  0  0  0  0
    0.5440    1.0250    0.8160 O   0  0  0  0  0  0  0  0  0  0  0  0
   -0.2080    0.7570   -1.4300 C   0  0  0  0  0  0  0  0  0  0  0  0
   -1.3070   -0.6640   -1.5800 S   0  0  0  0  0  0  0  0  0  0  0  0
   -2.3690   -0.7560   -0.1670 C   0  0  0  0  0  0  0  0  0  0  0  0
   -2.3720    0.1610    0.9060 N   0  0  0  0  0  0  0  0  0  0  0  0
   -3.4320   -2.0320   -0.1400 S   0  0  0  0  0  0  0  0  0  0  0  0
  1  2  1  0
  2  3  1  0
  3  4  2  0
  3  5  1  0
  5  6  1  0
  6  7  1  0
  7  8  1  0
  7  9  2  0
M  END
