
     RDKit          3D

 13 13  0  0  0  0  0  0  0  0999 V2000
    0.9560   -1.7240    0.2660 N   0  0  0  0  0  0  0  0  0  0  0  0
    0.7120   -0.2970    0.3690 C   0  0  1  0  0  0  0  0  0  0  0  0
    2.0270    0.4040    0.1090 C   0  0  1  0  0  0  0  0  0  0  0  0
    1.9030    1.7870    0.1840 O   0  0  0  0  0  0  0  0  0  0  0  0
    2.8950    0.0230    1.1330 O   0  0  0  0  0  0  0  0  0  0  0  0
    3.9470   -0.5520    0.6430 O   0  0  0  0  0  0  0  0  0  0  0  0
   -0.3360    0.0950   -0.6690 C   0  0  1  0  0  0  0  0  0  0  0  0
   -1.5320   -0.7600   -0.5930 C   0  0  0  0  0  0  0  0  0  0  0  0
   -2.6820   -0.2680    0.1980 C   0  0  0  0  0  0  0  0  0  0  0  0
   -2.7250    1.1630    0.3800 N   0  0  0  0  0  0  0  0  0  0  0  0
   -1.6990    2.0380   -0.0180 C   0  0  0  0  0  0  0  0  0  0  0  0
   -1.7960    3.2720    0.1130 O   0  0  0  0  0  0  0  0  0  0  0  0
   -0.5690    1.4800   -0.5650 O   0  0  0  0  0  0  0  0  0  0  0  0
  2  1  1  6
  2  3  1  0
  2  7  1  0
  3  4  1  1
  3  5  1  0
  5  6  1  0
  7  8  1  1
  7 13  1  0
  8  9  1  0
  9 10  1  0
 10 11  1  0
 11 12  2  0
 11 13  1  0
M  CHG  1   1   1
M  END
