
     RDKit          3D

 13 13  0  0  0  0  0  0  0  0999 V2000
   -0.2310    1.3410   -1.3040 N   0  0  0  0  0  0  0  0  0  0  0  0
   -0.7410    0.5160   -0.2100 C   0  0  1  0  0  0  0  0  0  0  0  0
   -0.8370    1.3880    0.9470 N   0  0  0  0  0  0  0  0  0  0  0  0
   -1.6550    2.4220    0.7530 O   0  0  0  0  0  0  0  0  0  0  0  0
   -2.0650   -0.0280   -0.6470 C   0  0  0  0  0  0  0  0  0  0  0  0
   -2.2330   -1.4930   -0.3100 C   0  0  0  0  0  0  0  0  0  0  0  0
   -1.6420   -1.6800    0.9490 O   0  0  0  0  0  0  0  0  0  0  0  0
   -0.2710   -1.7650    0.7350 C   0  0  0  0  0  0  0  0  0  0  0  0
    0.2930   -0.5480    0.0490 C   0  0  2  0  0  0  0  0  0  0  0  0
    1.3010   -0.0340    0.8530 O   0  0  0  0  0  0  0  0  0  0  0  0
    2.5350   -0.1040    0.2030 C   0  0  0  0  0  0  0  0  0  0  0  0
    3.5550    0.4030    0.9870 O   0  0  0  0  0  0  0  0  0  0  0  0
    4.6800    0.3170    0.3400 O   0  0  0  0  0  0  0  0  0  0  0  0
  2  1  1  6
  2  3  1  0
  2  5  1  0
  2  9  1  0
  3  4  1  0
  5  6  1  0
  6  7  1  0
  7  8  1  0
  8  9  1  0
  9 10  1  1
 10 11  1  0
 11 12  1  0
 12 13  1  0
M  CHG  1   1   1
M  END
