
     RDKit          3D

 18 20  0  0  0  0  0  0  0  0999 V2000
    5.6180    1.4670   -0.1550 N   0  0  0  0  0  0  0  0  0  0  0  0
    5.3190    0.0900   -0.0910 C   0  0  0  0  0  0  0  0  0  0  0  0
    6.2430   -0.7490   -0.0160 O   0  0  0  0  0  0  0  0  0  0  0  0
    3.9200   -0.3710   -0.1130 C   0  0  0  0  0  0  0  0  0  0  0  0
    2.8260    1.0500   -0.2250 S   0  0  0  0  0  0  0  0  0  0  0  0
    1.1130    0.5450   -0.2540 C   0  0  0  0  0  0  0  0  0  0  0  0
    0.6750   -0.7610   -0.1990 C   0  0  0  0  0  0  0  0  0  0  0  0
   -0.7020   -0.7920   -0.2430 C   0  0  0  0  0  0  0  0  0  0  0  0
   -1.8380   -1.5100   -0.2420 N   0  0  0  0  0  0  0  0  0  0  0  0
   -2.9080   -0.6690   -0.3220 C   0  0  0  0  0  0  0  0  0  0  0  0
   -4.2490   -0.9600   -0.3510 C   0  0  0  0  0  0  0  0  0  0  0  0
   -4.5830   -2.1960   -0.2960 O   0  0  0  0  0  0  0  0  0  0  0  0
   -5.2720   -0.0780   -0.4320 C   0  0  0  0  0  0  0  0  0  0  0  0
   -5.1720    1.2980   -0.5020 C   0  0  0  0  0  0  0  0  0  0  0  0
   -3.5540    1.8500   -0.4780 S   0  0  0  0  0  0  0  0  0  0  0  0
   -2.3910    0.6130   -0.3740 C   0  0  0  0  0  0  0  0  0  0  0  0
   -1.0620    0.5230   -0.3250 N   0  0  0  0  0  0  0  0  0  0  0  0
    0.0080    1.2920   -0.3310 N   0  0  0  0  0  0  0  0  0  0  0  0
  1  2  1  0
  2  3  2  0
  2  4  1  0
  4  5  1  0
  5  6  1  0
  6  7  1  0
  6 18  2  0
  7  8  2  0
  8  9  1  0
  8 17  1  0
  9 10  1  0
 10 11  1  0
 10 16  2  0
 11 12  2  0
 11 13  1  0
 13 14  2  0
 14 15  1  0
 15 16  1  0
 16 17  1  0
 17 18  1  0
M  END
