
     RDKit          3D

 18 20  0  0  0  0  0  0  0  0999 V2000
   -5.9590    0.7250   -0.6760 N   0  0  0  0  0  0  0  0  0  0  0  0
   -5.4220    1.1240    0.6350 C   0  0  0  0  0  0  0  0  0  0  0  0
   -4.4480    0.1260    0.9930 N   0  0  0  0  0  0  0  0  0  0  0  0
   -3.3570   -0.0800    0.1740 C   0  0  0  0  0  0  0  0  0  0  0  0
   -2.7870    0.2850   -0.8860 N   0  0  0  0  0  0  0  0  0  0  0  0
   -1.7050   -0.1650   -1.3710 N   0  0  0  0  0  0  0  0  0  0  0  0
   -1.0390   -1.0820   -0.8120 C   0  0  0  0  0  0  0  0  0  0  0  0
    0.5300   -1.9540   -1.2190 S   0  0  0  0  0  0  0  0  0  0  0  0
    1.8710   -1.0390   -0.4750 C   0  0  0  0  0  0  0  0  0  0  0  0
    1.6630    0.1100    0.2580 C   0  0  0  0  0  0  0  0  0  0  0  0
    2.7050    0.8110    0.8290 C   0  0  0  0  0  0  0  0  0  0  0  0
    3.9980    0.3270    0.6490 C   0  0  0  0  0  0  0  0  0  0  0  0
    4.2040   -0.8200   -0.0830 C   0  0  0  0  0  0  0  0  0  0  0  0
    3.1440   -1.5160   -0.6530 C   0  0  0  0  0  0  0  0  0  0  0  0
    5.5620   -1.0690   -0.1020 O   0  0  0  0  0  0  0  0  0  0  0  0
    6.2540    0.0770    0.3580 C   0  0  0  0  0  0  0  0  0  0  0  0
    5.2460    0.7670    1.0710 O   0  0  0  0  0  0  0  0  0  0  0  0
   -2.0680   -1.4140    0.6650 S   0  0  0  0  0  0  0  0  0  0  0  0
  1  2  1  0
  2  3  1  0
  3  4  1  0
  4  5  2  0
  4 18  1  0
  5  6  1  0
  6  7  2  0
  7  8  1  0
  7 18  1  0
  8  9  1  0
  9 10  2  0
  9 14  1  0
 10 11  1  0
 11 12  2  0
 12 13  1  0
 12 17  1  0
 13 14  2  0
 13 15  1  0
 15 16  1  0
 16 17  1  0
M  END
