
     RDKit          3D

 18 19  0  0  0  0  0  0  0  0999 V2000
   -4.7170   -2.0050   -1.6080 O   0  0  0  0  0  0  0  0  0  0  0  0
   -4.1790   -0.9840   -0.8070 C   0  0  0  0  0  0  0  0  0  0  0  0
   -5.0080   -0.1230   -0.1540 C   0  0  0  0  0  0  0  0  0  0  0  0
   -4.4680    0.8730    0.6280 C   0  0  0  0  0  0  0  0  0  0  0  0
   -3.1230    0.9890    0.7420 C   0  0  0  0  0  0  0  0  0  0  0  0
   -2.2330    0.1300    0.0910 C   0  0  0  0  0  0  0  0  0  0  0  0
   -0.8510    0.2800    0.2530 N   0  0  0  0  0  0  0  0  0  0  0  0
    0.2180   -0.2680   -0.4590 C   0  0  0  0  0  0  0  0  0  0  0  0
    0.0600   -1.2500   -1.7400 S   0  0  0  0  0  0  0  0  0  0  0  0
    1.5760    0.0640   -0.0510 N   0  0  0  0  0  0  0  0  0  0  0  0
    1.7830    1.2740    0.3480 C   0  0  0  0  0  0  0  0  0  0  0  0
    3.1320    1.5900    0.7500 N   0  0  0  0  0  0  0  0  0  0  0  0
    4.1950    0.6910    0.5820 C   0  0  0  0  0  0  0  0  0  0  0  0
    4.1660   -0.4970    0.1160 N   0  0  0  0  0  0  0  0  0  0  0  0
    5.3830   -1.2020    0.0510 C   0  0  0  0  0  0  0  0  0  0  0  0
    6.4730   -0.3560   -0.1190 O   0  0  0  0  0  0  0  0  0  0  0  0
    5.9500    0.9290    0.9500 S   0  0  0  0  0  0  0  0  0  0  0  0
   -2.7950   -0.8470   -0.6770 C   0  0  0  0  0  0  0  0  0  0  0  0
  1  2  1  0
  2  3  2  0
  2 18  1  0
  3  4  1  0
  4  5  2  0
  5  6  1  0
  6  7  1  0
  6 18  2  0
  7  8  1  0
  8  9  2  0
  8 10  1  0
 10 11  2  3
 11 12  1  0
 12 13  1  0
 13 14  2  0
 13 17  1  0
 14 15  1  0
 15 16  1  0
 16 17  1  0
M  END
