
     RDKit          3D

 18 20  0  0  0  0  0  0  0  0999 V2000
    1.6130   -1.7890    0.0090 O   0  0  0  0  0  0  0  0  0  0  0  0
    1.1060   -0.6210    0.1240 C   0  0  0  0  0  0  0  0  0  0  0  0
    1.9990    0.4350    0.3040 N   0  0  0  0  0  0  0  0  0  0  0  0
    3.4420    0.1480    0.3500 C   0  0  0  0  0  0  0  0  0  0  0  0
    4.1990   -0.6850    0.2900 N   0  0  0  0  0  0  0  0  0  0  0  0
    5.5120   -0.6330    0.3700 C   0  0  0  0  0  0  0  0  0  0  0  0
    6.0810    0.5550    0.5480 C   0  0  0  0  0  0  0  0  0  0  0  0
    4.5700    1.6400    0.5960 S   0  0  0  0  0  0  0  0  0  0  0  0
   -0.3080   -0.4020    0.0720 C   0  0  0  0  0  0  0  0  0  0  0  0
   -1.1540    0.6240    0.1500 C   0  0  0  0  0  0  0  0  0  0  0  0
   -2.4780    0.4520    0.0550 C   0  0  0  0  0  0  0  0  0  0  0  0
   -3.4820    1.3930    0.1140 N   0  0  0  0  0  0  0  0  0  0  0  0
   -4.7340    1.0890    0.0060 N   0  0  0  0  0  0  0  0  0  0  0  0
   -5.2580   -0.1330   -0.1730 C   0  0  0  0  0  0  0  0  0  0  0  0
   -6.4570   -0.4140   -0.2750 O   0  0  0  0  0  0  0  0  0  0  0  0
   -4.2960   -1.1510   -0.2450 C   0  0  0  0  0  0  0  0  0  0  0  0
   -2.9610   -0.8380   -0.1310 C   0  0  0  0  0  0  0  0  0  0  0  0
   -1.5130   -1.8030   -0.1680 S   0  0  0  0  0  0  0  0  0  0  0  0
  1  2  2  0
  2  3  1  0
  2  9  1  0
  3  4  1  0
  4  5  2  0
  4  8  1  0
  5  6  1  0
  6  7  2  0
  7  8  1  0
  9 10  2  0
  9 18  1  0
 10 11  1  0
 11 12  2  0
 11 17  1  0
 12 13  1  0
 13 14  1  0
 14 15  2  0
 14 16  1  0
 16 17  2  0
 17 18  1  0
M  END
