
     RDKit          3D

 18 19  0  0  0  0  0  0  0  0999 V2000
   -3.4240   -1.6100   -0.3210 O   0  0  0  0  0  0  0  0  0  0  0  0
   -3.3050   -0.5850   -1.0330 C   0  0  0  0  0  0  0  0  0  0  0  0
   -2.4560   -0.5890   -2.2170 C   0  0  0  0  0  0  0  0  0  0  0  0
   -0.9750    0.3960   -2.1330 S   0  0  0  0  0  0  0  0  0  0  0  0
    0.2130   -0.1980   -0.9450 C   0  0  0  0  0  0  0  0  0  0  0  0
    0.1830   -1.2290   -0.0980 N   0  0  0  0  0  0  0  0  0  0  0  0
    1.3350   -1.2590    0.5660 N   0  0  0  0  0  0  0  0  0  0  0  0
    2.1280   -0.2340    0.1440 C   0  0  0  0  0  0  0  0  0  0  0  0
    3.4810    0.0700    0.6230 C   0  0  0  0  0  0  0  0  0  0  0  0
    4.1370   -0.6250    1.5590 C   0  0  0  0  0  0  0  0  0  0  0  0
    5.4340    0.0600    1.6880 C   0  0  0  0  0  0  0  0  0  0  0  0
    5.3750    1.1320    0.9280 C   0  0  0  0  0  0  0  0  0  0  0  0
    4.3050    1.1710    0.1470 C   0  0  0  0  0  0  0  0  0  0  0  0
    1.4110    0.3970   -0.7780 N   0  0  0  0  0  0  0  0  0  0  0  0
   -4.0260    0.5810   -0.6450 N   0  0  0  0  0  0  0  0  0  0  0  0
   -4.8640    0.5800    0.5050 C   0  0  0  0  0  0  0  0  0  0  0  0
   -5.5510    1.7020    0.8880 O   0  0  0  0  0  0  0  0  0  0  0  0
   -5.0460   -0.7630    1.4320 S   0  0  0  0  0  0  0  0  0  0  0  0
  1  2  2  0
  2  3  1  0
  2 15  1  0
  3  4  1  0
  4  5  1  0
  5  6  2  0
  5 14  1  0
  6  7  1  0
  7  8  1  0
  8  9  1  0
  8 14  2  0
  9 10  2  0
  9 13  1  0
 10 11  1  0
 11 12  2  0
 12 13  2  0
 15 16  1  0
 16 17  1  0
 16 18  2  0
M  END
