
     RDKit          3D

 22 23  0  0  0  0  0  0  0  0999 V2000
    0.2060   -0.2840   -0.5700 O   0  0  0  0  0  0  0  0  0  0  0  0
    0.6220    0.5150   -1.4320 C   0  0  0  0  0  0  0  0  0  0  0  0
    2.0290    0.9560   -1.3100 C   0  0  0  0  0  0  0  0  0  0  0  0
    2.7550    0.5010   -0.3280 C   0  0  0  0  0  0  0  0  0  0  0  0
    4.1760    0.8800   -0.1160 C   0  0  0  0  0  0  0  0  0  0  0  0
    4.4490    0.9230    1.2390 O   0  0  0  0  0  0  0  0  0  0  0  0
    4.3280   -0.3120    1.8580 C   0  0  2  0  0  0  0  0  0  0  0  0
    5.6590   -1.0430    1.6800 C   0  0  0  0  0  0  0  0  0  0  0  0
    6.7090   -0.3310    2.2550 O   0  0  0  0  0  0  0  0  0  0  0  0
    3.2340   -1.1600    1.3090 C   0  0  0  0  0  0  0  0  0  0  0  0
    2.2370   -0.4030    0.6230 O   0  0  0  0  0  0  0  0  0  0  0  0
   -0.1870    0.9510   -2.4310 O   0  0  0  0  0  0  0  0  0  0  0  0
   -1.5030    0.6400   -2.6450 C   0  0  0  0  0  0  0  0  0  0  0  0
   -2.4450    1.2300   -1.6660 C   0  0  2  0  0  0  0  0  0  0  0  0
   -2.2200    0.8330   -0.2800 C   0  0  0  0  0  0  0  0  0  0  0  0
   -2.9480   -0.2640    0.0220 C   0  0  0  0  0  0  0  0  0  0  0  0
   -2.9720   -0.9500    1.3360 C   0  0  0  0  0  0  0  0  0  0  0  0
   -4.3690   -0.9670    1.9350 C   0  0  0  0  0  0  0  0  0  0  0  0
   -4.2850   -1.6290    3.1600 O   0  0  0  0  0  0  0  0  0  0  0  0
   -3.7370   -0.6660   -1.1720 C   0  0  0  0  0  0  0  0  0  0  0  0
   -3.8750    0.6810   -1.8860 C   0  0  2  0  0  0  0  0  0  0  0  0
   -4.1680    0.5480   -3.2150 O   0  0  0  0  0  0  0  0  0  0  0  0
  1  2  2  0
  2  3  1  0
  2 12  1  0
  3  4  2  3
  4  5  1  0
  4 11  1  0
  5  6  1  0
  6  7  1  0
  7  8  1  6
  7 10  1  0
  8  9  1  0
 10 11  1  0
 12 13  1  0
 14 13  1  6
 14 15  1  0
 14 21  1  0
 15 16  2  0
 16 17  1  0
 16 20  1  0
 17 18  1  0
 18 19  1  0
 20 21  1  0
 21 22  1  6
M  END
