
     RDKit          3D

 21 22  0  0  0  0  0  0  0  0999 V2000
    3.1340    0.8000   -1.5810 C   0  0  0  0  0  0  0  0  0  0  0  0
    3.1930    0.3540   -0.1250 C   0  0  1  0  0  0  0  0  0  0  0  0
    4.3920    0.6570    0.4750 O   0  0  0  0  0  0  0  0  0  0  0  0
    5.4900    0.0840   -0.1150 C   0  0  0  0  0  0  0  0  0  0  0  0
    6.6180    0.4990    0.6230 O   0  0  0  0  0  0  0  0  0  0  0  0
    2.1150    1.1590    0.6090 C   0  0  0  0  0  0  0  0  0  0  0  0
    1.2930    0.2510    1.4970 C   0  0  0  0  0  0  0  0  0  0  0  0
    0.5160   -0.6910    0.5740 C   0  0  1  0  0  0  0  0  0  0  0  0
   -0.3940    0.0480   -0.1670 O   0  0  0  0  0  0  0  0  0  0  0  0
   -1.7100   -0.2580    0.1740 C   0  0  0  0  0  0  0  0  0  0  0  0
   -2.6380    0.5850   -0.6730 C   0  0  1  0  0  0  0  0  0  0  0  0
   -2.4310    0.3160   -2.0250 O   0  0  0  0  0  0  0  0  0  0  0  0
   -4.0540    0.3740   -0.3320 C   0  0  0  0  0  0  0  0  0  0  0  0
   -4.8330    1.3550    0.0940 C   0  0  0  0  0  0  0  0  0  0  0  0
   -6.2650    1.1760    0.4460 C   0  0  0  0  0  0  0  0  0  0  0  0
   -6.7070   -0.1430    0.2810 O   0  0  0  0  0  0  0  0  0  0  0  0
   -5.9150   -1.1860   -0.1620 C   0  0  0  0  0  0  0  0  0  0  0  0
   -4.6470   -0.9600   -0.4590 C   0  0  0  0  0  0  0  0  0  0  0  0
    1.4700   -1.4680   -0.2790 C   0  0  0  0  0  0  0  0  0  0  0  0
    2.9040   -1.1100   -0.0870 C   0  0  2  0  0  0  0  0  0  0  0  0
    3.3690   -1.7290    1.0710 O   0  0  0  0  0  0  0  0  0  0  0  0
  2  1  1  6
  2  3  1  0
  2  6  1  0
  2 20  1  0
  3  4  1  0
  4  5  1  0
  6  7  1  0
  7  8  1  0
  8  9  1  6
  8 19  1  0
  9 10  1  0
 10 11  1  0
 11 12  1  6
 11 13  1  0
 13 14  2  0
 13 18  1  0
 14 15  1  0
 15 16  1  0
 16 17  1  0
 17 18  2  0
 19 20  1  0
 20 21  1  1
M  END
