
     RDKit          3D

 20 21  0  0  0  0  0  0  0  0999 V2000
   -1.7260   -2.3580   -0.0370 C   0  0  0  0  0  0  0  0  0  0  0  0
   -2.0390   -0.8970   -0.2870 C   0  0  0  0  0  0  0  0  0  0  0  0
   -1.1770    0.0090    0.5420 C   0  0  2  0  0  0  0  0  0  0  0  0
   -1.3720   -0.2490    1.8890 O   0  0  0  0  0  0  0  0  0  0  0  0
   -2.6570   -0.0110    2.3150 C   0  0  0  0  0  0  0  0  0  0  0  0
   -1.4790    1.3710    0.3270 O   0  0  0  0  0  0  0  0  0  0  0  0
   -1.3480    2.0540   -0.8650 N   0  0  0  0  0  0  0  0  0  0  0  0
   -2.1830    2.9720   -1.1020 O   0  0  0  0  0  0  0  0  0  0  0  0
   -0.3720    1.8130   -1.8240 N   0  0  0  0  0  0  0  0  0  0  0  0
   -0.5510    2.4740   -2.9960 O   0  0  0  0  0  0  0  0  0  0  0  0
   -0.8370    3.7580   -2.7670 O   0  0  0  0  0  0  0  0  0  0  0  0
    0.2240    4.4170   -1.6090 Cl  0  0  0  0  0  0  0  0  0  0  0  0
    0.7270    0.9940   -1.7020 O   0  0  0  0  0  0  0  0  0  0  0  0
    1.0940    0.0610   -0.6980 C   0  0  0  0  0  0  0  0  0  0  0  0
    2.4470   -0.3700   -0.8290 C   0  0  0  0  0  0  0  0  0  0  0  0
    3.2190   -1.0760    0.1760 C   0  0  2  0  0  0  0  0  0  0  0  0
    3.5250   -0.4680    1.4980 C   0  0  0  0  0  0  0  0  0  0  0  0
    4.4790   -0.3910    0.6030 C   0  0  0  0  0  0  0  0  0  0  0  0
    0.2500   -0.3230    0.2260 C   0  0  0  0  0  0  0  0  0  0  0  0
    0.8890   -1.5370    1.2740 Cl  0  0  0  0  0  0  0  0  0  0  0  0
  1  2  1  0
  3  2  1  6
  3  4  1  0
  3  6  1  0
  3 19  1  0
  4  5  1  0
  6  7  1  0
  7  8  2  0
  7  9  1  0
  9 10  1  0
  9 13  1  0
 10 11  1  0
 11 12  1  0
 13 14  1  0
 14 15  1  0
 14 19  2  0
 16 15  1  6
 16 17  1  0
 16 18  1  0
 17 18  2  0
 19 20  1  0
M  CHG  1   7   1
M  END
