
     RDKit          3D

 19 20  0  0  0  0  0  0  0  0999 V2000
    3.8320   -1.1080   -0.8090 C   0  0  0  0  0  0  0  0  0  0  0  0
    3.8080   -0.2570    0.4350 C   0  0  0  0  0  0  0  0  0  0  0  0
    2.3830    0.1190    0.7750 C   0  0  0  0  0  0  0  0  0  0  0  0
    1.7380    0.9000   -0.3490 C   0  0  2  0  0  0  0  0  0  0  0  0
    2.4350    2.0550   -0.5920 O   0  0  0  0  0  0  0  0  0  0  0  0
    2.9960    2.1730   -2.1910 Cl  0  0  0  0  0  0  0  0  0  0  0  0
    0.3260    1.1640    0.0710 C   0  0  0  0  0  0  0  0  0  0  0  0
   -0.1570    2.3810    0.2060 C   0  0  0  0  0  0  0  0  0  0  0  0
   -1.4810    2.3300    0.6020 O   0  0  0  0  0  0  0  0  0  0  0  0
   -1.8910    1.0170    0.7340 C   0  0  0  0  0  0  0  0  0  0  0  0
   -3.1210    0.8660    1.1030 N   0  0  0  0  0  0  0  0  0  0  0  0
   -3.7520    2.0580    1.2820 O   0  0  0  0  0  0  0  0  0  0  0  0
   -3.8630   -0.2620    1.3320 O   0  0  0  0  0  0  0  0  0  0  0  0
   -3.8830   -1.5570    0.8460 N   0  0  0  0  0  0  0  0  0  0  0  0
   -5.5290   -2.0850    0.6840 Cl  0  0  0  0  0  0  0  0  0  0  0  0
   -3.1690   -1.6520   -0.4210 C   0  0  0  0  0  0  0  0  0  0  0  0
   -1.6850   -1.7910   -0.1860 C   0  0  0  0  0  0  0  0  0  0  0  0
   -0.9840   -0.6880   -0.6660 O   0  0  0  0  0  0  0  0  0  0  0  0
   -0.7270    0.1830    0.3920 C   0  0  1  0  0  0  0  0  0  0  0  0
  1  2  1  0
  2  3  1  0
  4  3  1  1
  4  5  1  0
  4  7  1  0
  5  6  1  0
  7  8  2  0
  7 19  1  0
  8  9  1  0
  9 10  1  0
 10 11  2  0
 10 19  1  0
 11 12  1  0
 11 13  1  0
 13 14  1  0
 14 15  1  0
 14 16  1  0
 16 17  1  0
 17 18  1  0
 19 18  1  6
M  CHG  1  11   1
M  END
