
     RDKit          3D

 25 27  0  0  0  0  0  0  0  0999 V2000
    1.4520    0.1640   -0.5960 O   0  0  0  0  0  0  0  0  0  0  0  0
    1.7870   -0.9250   -0.0850 C   0  0  0  0  0  0  0  0  0  0  0  0
    0.7770   -1.9430    0.0700 N   0  0  0  0  0  0  0  0  0  0  0  0
   -0.5720   -1.7020   -0.3470 C   0  0  0  0  0  0  0  0  0  0  0  0
   -1.1820   -0.6570    0.4920 C   0  0  0  0  0  0  0  0  0  0  0  0
   -0.5220   -0.0950    1.5530 C   0  0  0  0  0  0  0  0  0  0  0  0
   -1.1550    0.8680    2.3240 C   0  0  0  0  0  0  0  0  0  0  0  0
   -0.3280    1.6110    3.6990 Cl  0  0  0  0  0  0  0  0  0  0  0  0
   -2.4400    1.2210    1.9830 C   0  0  0  0  0  0  0  0  0  0  0  0
   -3.0640    0.6530    0.9370 N   0  0  0  0  0  0  0  0  0  0  0  0
   -2.4930   -0.2780    0.1650 C   0  0  0  0  0  0  0  0  0  0  0  0
   -3.1180   -0.8770   -0.9190 O   0  0  0  0  0  0  0  0  0  0  0  0
   -4.4140   -0.5350   -1.2780 C   0  0  0  0  0  0  0  0  0  0  0  0
   -5.3330   -0.2980   -0.3960 N   0  0  0  0  0  0  0  0  0  0  0  0
   -6.5820    0.0330   -1.0100 C   0  0  0  0  0  0  0  0  0  0  0  0
   -6.2900   -0.0360   -2.4480 C   0  0  0  0  0  0  0  0  0  0  0  0
   -5.0070   -0.3720   -2.5860 C   0  0  0  0  0  0  0  0  0  0  0  0
    3.1120   -1.1350    0.3200 N   0  0  0  0  0  0  0  0  0  0  0  0
    4.1760   -0.2160    0.2080 C   0  0  0  0  0  0  0  0  0  0  0  0
    4.1440    0.9530   -0.4960 C   0  0  0  0  0  0  0  0  0  0  0  0
    5.2750    1.7580   -0.4940 C   0  0  0  0  0  0  0  0  0  0  0  0
    6.4200    1.4180    0.1910 C   0  0  0  0  0  0  0  0  0  0  0  0
    7.8570    2.4090    0.2120 Cl  0  0  0  0  0  0  0  0  0  0  0  0
    6.4670    0.2300    0.9120 C   0  0  0  0  0  0  0  0  0  0  0  0
    5.3490   -0.5550    0.9040 C   0  0  0  0  0  0  0  0  0  0  0  0
  1  2  2  0
  2  3  1  0
  2 18  1  0
  3  4  1  0
  4  5  1  0
  5  6  2  0
  5 11  1  0
  6  7  1  0
  7  8  1  0
  7  9  2  0
  9 10  1  0
 10 11  2  0
 11 12  1  0
 12 13  1  0
 13 14  2  0
 13 17  1  0
 14 15  1  0
 15 16  1  0
 16 17  2  0
 18 19  1  0
 19 20  2  0
 19 25  1  0
 20 21  1  0
 21 22  2  0
 22 23  1  0
 22 24  1  0
 24 25  2  0
M  END
