
     RDKit          3D

 27 29  0  0  0  0  0  0  0  0999 V2000
   -3.0080   -0.2460   -0.9670 N   0  0  0  0  0  0  0  0  0  0  0  0
   -2.2490   -0.7880    0.0970 C   0  0  2  0  0  0  0  0  0  0  0  0
   -2.3110    0.1630    1.2890 C   0  0  0  0  0  0  0  0  0  0  0  0
   -3.6870    0.3780    1.7680 C   0  0  0  0  0  0  0  0  0  0  0  0
   -4.4350    1.4430    1.2740 C   0  0  0  0  0  0  0  0  0  0  0  0
   -5.7100    1.7200    1.6660 C   0  0  0  0  0  0  0  0  0  0  0  0
   -6.2830    0.8800    2.6180 C   0  0  0  0  0  0  0  0  0  0  0  0
   -5.5690   -0.1670    3.1140 C   0  0  0  0  0  0  0  0  0  0  0  0
   -4.2800   -0.4200    2.6950 C   0  0  0  0  0  0  0  0  0  0  0  0
   -0.8810   -1.2210   -0.1690 C   0  0  0  0  0  0  0  0  0  0  0  0
   -0.2750   -1.8140    0.8230 O   0  0  0  0  0  0  0  0  0  0  0  0
   -0.1000   -1.0990   -1.3370 N   0  0  0  0  0  0  0  0  0  0  0  0
   -0.3420   -0.5380   -2.6380 C   0  0  0  0  0  0  0  0  0  0  0  0
    0.3540   -1.5310   -3.5710 C   0  0  0  0  0  0  0  0  0  0  0  0
    1.3110   -2.2940   -2.7130 C   0  0  0  0  0  0  0  0  0  0  0  0
    1.2710   -1.5750   -1.4020 C   0  0  1  0  0  0  0  0  0  0  0  0
    2.1850   -0.4180   -1.3060 C   0  0  0  0  0  0  0  0  0  0  0  0
    1.6990    0.7170   -0.9910 O   0  0  0  0  0  0  0  0  0  0  0  0
    3.5790   -0.5550   -1.5560 N   0  0  0  0  0  0  0  0  0  0  0  0
    4.5170    0.5360   -1.4720 C   0  0  0  0  0  0  0  0  0  0  0  0
    4.8080    0.7850   -0.0380 C   0  0  0  0  0  0  0  0  0  0  0  0
    4.1940    1.7530    0.7170 C   0  0  0  0  0  0  0  0  0  0  0  0
    4.4940    1.9560    2.0650 C   0  0  0  0  0  0  0  0  0  0  0  0
    3.6900    3.2050    3.0090 Cl  0  0  0  0  0  0  0  0  0  0  0  0
    5.4440    1.1550    2.6640 C   0  0  0  0  0  0  0  0  0  0  0  0
    6.0500    0.1890    1.8920 C   0  0  0  0  0  0  0  0  0  0  0  0
    5.7410    0.0160    0.5940 N   0  0  0  0  0  0  0  0  0  0  0  0
  2  1  1  6
  2  3  1  0
  2 10  1  0
  3  4  1  0
  4  5  2  0
  4  9  1  0
  5  6  1  0
  6  7  2  0
  7  8  1  0
  8  9  2  0
 10 11  2  0
 10 12  1  0
 12 13  1  0
 12 16  1  0
 13 14  1  0
 14 15  1  0
 15 16  1  0
 16 17  1  6
 17 18  2  0
 17 19  1  0
 19 20  1  0
 20 21  1  0
 21 22  2  0
 21 27  1  0
 22 23  1  0
 23 24  1  0
 23 25  2  0
 25 26  1  0
 26 27  2  0
M  CHG  1   1   1
M  END
