
     RDKit          3D

 25 27  0  0  0  0  0  0  0  0999 V2000
   -4.6220   -1.6460    1.0980 C   0  0  0  0  0  0  0  0  0  0  0  0
   -4.7870   -0.1670    1.2260 C   0  0  0  0  0  0  0  0  0  0  0  0
   -4.3260    0.6280    0.0700 C   0  0  2  0  0  0  0  0  0  0  0  0
   -5.1120    0.2050   -1.1630 C   0  0  0  0  0  0  0  0  0  0  0  0
   -2.9440    0.6680   -0.2050 N   0  0  0  0  0  0  0  0  0  0  0  0
   -2.5670    1.2330   -1.3880 C   0  0  0  0  0  0  0  0  0  0  0  0
   -3.3980    1.7020   -2.2080 O   0  0  0  0  0  0  0  0  0  0  0  0
   -1.2720    1.3190   -1.7430 N   0  0  0  0  0  0  0  0  0  0  0  0
   -0.2790    0.8690   -0.9850 C   0  0  0  0  0  0  0  0  0  0  0  0
    1.0230    0.9390   -1.3090 N   0  0  0  0  0  0  0  0  0  0  0  0
    2.0180    0.4710   -0.5160 C   0  0  0  0  0  0  0  0  0  0  0  0
    3.3380    0.6270   -0.9300 N   0  0  0  0  0  0  0  0  0  0  0  0
    4.4840    0.0910   -0.2830 C   0  0  0  0  0  0  0  0  0  0  0  0
    4.5660   -1.1660    0.2540 C   0  0  0  0  0  0  0  0  0  0  0  0
    5.7150   -1.6260    0.9140 C   0  0  0  0  0  0  0  0  0  0  0  0
    6.7930   -0.7820    1.0210 C   0  0  0  0  0  0  0  0  0  0  0  0
    8.2320   -1.3720    1.8530 Cl  0  0  0  0  0  0  0  0  0  0  0  0
    6.7450    0.4890    0.4910 C   0  0  0  0  0  0  0  0  0  0  0  0
    8.1610    1.5050    0.6680 Cl  0  0  0  0  0  0  0  0  0  0  0  0
    5.6090    0.9210   -0.1520 C   0  0  0  0  0  0  0  0  0  0  0  0
    1.6980   -0.1040    0.6840 C   0  0  0  0  0  0  0  0  0  0  0  0
    0.3680   -0.1970    1.0570 C   0  0  0  0  0  0  0  0  0  0  0  0
   -0.6060    0.2900    0.2210 C   0  0  0  0  0  0  0  0  0  0  0  0
   -1.9500    0.2150    0.5610 C   0  0  0  0  0  0  0  0  0  0  0  0
   -2.2320   -0.3070    1.6430 O   0  0  0  0  0  0  0  0  0  0  0  0
  1  2  1  0
  2  3  1  0
  3  4  1  6
  3  5  1  0
  5  6  1  0
  5 24  1  0
  6  7  2  0
  6  8  1  0
  8  9  1  0
  9 10  2  0
  9 23  1  0
 10 11  1  0
 11 12  1  0
 11 21  2  0
 12 13  1  0
 13 14  2  0
 13 20  1  0
 14 15  1  0
 15 16  2  0
 16 17  1  0
 16 18  1  0
 18 19  1  0
 18 20  2  0
 21 22  1  0
 22 23  2  0
 23 24  1  0
 24 25  2  0
M  END
