
     RDKit          3D

 29 31  0  0  0  0  0  0  0  0999 V2000
   -3.4940    2.2550    0.1670 C   0  0  0  0  0  0  0  0  0  0  0  0
   -4.5920    1.3120   -0.1010 C   0  0  1  0  0  0  0  0  0  0  0  0
   -5.5500    2.0360   -1.0770 C   0  0  0  0  0  0  0  0  0  0  0  0
   -4.3220   -0.0070   -0.7030 C   0  0  0  0  0  0  0  0  0  0  0  0
   -3.4140   -0.9280    0.0240 C   0  0  1  0  0  0  0  0  0  0  0  0
   -4.0080   -1.1350    1.4130 C   0  0  0  0  0  0  0  0  0  0  0  0
   -3.7540   -0.1170    2.2940 O   0  0  0  0  0  0  0  0  0  0  0  0
   -3.5900   -2.3530   -0.5860 C   0  0  0  0  0  0  0  0  0  0  0  0
   -2.8930   -3.3320    0.2900 C   0  0  0  0  0  0  0  0  0  0  0  0
   -1.7080   -2.9340    1.0410 C   0  0  0  0  0  0  0  0  0  0  0  0
   -1.2600   -1.4810    0.9540 C   0  0  0  0  0  0  0  0  0  0  0  0
   -2.0120   -0.7710   -0.0450 N   0  0  0  0  0  0  0  0  0  0  0  0
   -1.3710    0.0570   -0.9800 C   0  0  0  0  0  0  0  0  0  0  0  0
   -2.0770    0.5370   -1.9740 O   0  0  0  0  0  0  0  0  0  0  0  0
   -0.0050    0.5020   -1.0540 C   0  0  0  0  0  0  0  0  0  0  0  0
    0.5330    0.9390   -2.2470 C   0  0  0  0  0  0  0  0  0  0  0  0
    1.7920    1.4640   -2.3940 C   0  0  0  0  0  0  0  0  0  0  0  0
    2.6030    1.5760   -1.2830 C   0  0  0  0  0  0  0  0  0  0  0  0
    3.9020    2.1530   -1.3770 N   0  0  0  0  0  0  0  0  0  0  0  0
    5.0710    1.6620   -0.7770 C   0  0  0  0  0  0  0  0  0  0  0  0
    6.4690    2.5370   -0.9990 S   0  0  0  0  0  0  0  0  0  0  0  0
    5.1270    0.4800   -0.0030 N   0  0  0  0  0  0  0  0  0  0  0  0
    6.3840    0.0860    0.5740 C   0  0  0  0  0  0  0  0  0  0  0  0
    6.9170   -1.1000    0.4860 C   0  0  0  0  0  0  0  0  0  0  0  0
    8.2030   -1.0660    1.2180 C   0  0  0  0  0  0  0  0  0  0  0  0
    8.0310   -0.0350    2.1190 O   0  0  0  0  0  0  0  0  0  0  0  0
    7.3220    0.9100    1.3680 C   0  0  0  0  0  0  0  0  0  0  0  0
    2.1030    1.1560   -0.0780 C   0  0  0  0  0  0  0  0  0  0  0  0
    0.8020    0.6210    0.0360 C   0  0  0  0  0  0  0  0  0  0  0  0
  2  1  1  6
  2  3  1  0
  2  4  1  0
  5  4  1  6
  5  6  1  0
  5  8  1  0
  5 12  1  0
  6  7  1  0
  8  9  1  0
  9 10  1  0
 10 11  1  0
 11 12  1  0
 12 13  1  0
 13 14  2  0
 13 15  1  0
 15 16  2  0
 15 29  1  0
 16 17  1  0
 17 18  2  0
 18 19  1  0
 18 28  1  0
 19 20  1  0
 20 21  2  0
 20 22  1  0
 22 23  1  0
 23 24  2  0
 23 27  1  0
 24 25  1  0
 25 26  1  0
 26 27  1  0
 28 29  2  0
M  END
