
     RDKit          3D

 30 32  0  0  0  0  0  0  0  0999 V2000
    8.2100    0.8090    2.9920 C   0  0  0  0  0  0  0  0  0  0  0  0
    6.8800    0.6370    2.5780 O   0  0  0  0  0  0  0  0  0  0  0  0
    6.4970    0.7740    1.2570 C   0  0  0  0  0  0  0  0  0  0  0  0
    7.4650    1.0850    0.2920 C   0  0  0  0  0  0  0  0  0  0  0  0
    7.0800    1.2200   -1.0130 C   0  0  0  0  0  0  0  0  0  0  0  0
    5.7500    1.0600   -1.4300 C   0  0  0  0  0  0  0  0  0  0  0  0
    4.8310    0.7510   -0.4260 C   0  0  0  0  0  0  0  0  0  0  0  0
    5.1800    0.6090    0.8850 C   0  0  0  0  0  0  0  0  0  0  0  0
    4.2590    0.3020    1.8970 O   0  0  0  0  0  0  0  0  0  0  0  0
    2.9110    0.1420    1.5680 C   0  0  0  0  0  0  0  0  0  0  0  0
    2.3220   -1.0260    1.4660 C   0  0  0  0  0  0  0  0  0  0  0  0
    0.8970   -1.1130    1.1180 C   0  0  0  0  0  0  0  0  0  0  0  0
    0.5520    0.0280    0.1830 C   0  0  1  0  0  0  0  0  0  0  0  0
   -0.9010   -0.0770   -0.1310 C   0  0  0  0  0  0  0  0  0  0  0  0
   -1.6760    0.7510    0.3710 O   0  0  0  0  0  0  0  0  0  0  0  0
   -1.4370   -1.0670   -0.9720 N   0  0  0  0  0  0  0  0  0  0  0  0
   -2.8680   -1.1290   -1.2470 C   0  0  0  0  0  0  0  0  0  0  0  0
   -3.4070    0.0900   -1.8650 C   0  0  1  0  0  0  0  0  0  0  0  0
   -2.7160    0.4160   -3.1250 C   0  0  0  0  0  0  0  0  0  0  0  0
   -2.1410    0.6760   -4.1310 N   0  0  0  0  0  0  0  0  0  0  0  0
   -4.8550   -0.0630   -2.2580 C   0  0  0  0  0  0  0  0  0  0  0  0
   -5.7960   -0.3810   -1.1740 C   0  0  0  0  0  0  0  0  0  0  0  0
   -6.7160    0.5310   -0.8650 C   0  0  0  0  0  0  0  0  0  0  0  0
   -7.7200    0.3860    0.1750 C   0  0  0  0  0  0  0  0  0  0  0  0
   -7.7340   -0.9210    0.7620 N   0  0  0  0  0  0  0  0  0  0  0  0
   -6.7570   -1.8780    0.4220 C   0  0  0  0  0  0  0  0  0  0  0  0
   -5.8270   -1.6570   -0.4870 C   0  0  0  0  0  0  0  0  0  0  0  0
    0.7650    1.2080    0.9830 O   0  0  0  0  0  0  0  0  0  0  0  0
    2.1270    1.3700    1.3220 C   0  0  0  0  0  0  0  0  0  0  0  0
    2.6480    2.4890    1.4150 O   0  0  0  0  0  0  0  0  0  0  0  0
  1  2  1  0
  2  3  1  0
  3  4  2  0
  3  8  1  0
  4  5  1  0
  5  6  2  0
  6  7  1  0
  7  8  2  0
  8  9  1  0
  9 10  1  0
 10 11  2  0
 10 29  1  0
 11 12  1  0
 12 13  1  0
 13 14  1  1
 13 28  1  0
 14 15  2  0
 14 16  1  0
 16 17  1  0
 18 17  1  6
 18 19  1  0
 18 21  1  0
 19 20  3  0
 21 22  1  0
 22 23  2  0
 22 27  1  0
 23 24  1  0
 24 25  1  0
 25 26  1  0
 26 27  2  0
 28 29  1  0
 29 30  2  0
M  END
