
     RDKit          3D

 30 32  0  0  0  0  0  0  0  0999 V2000
    8.6790   -1.2980    0.7110 C   0  0  0  0  0  0  0  0  0  0  0  0
    8.1840   -0.1650   -0.0130 O   0  0  0  0  0  0  0  0  0  0  0  0
    7.1190   -0.3630   -0.9020 C   0  0  0  0  0  0  0  0  0  0  0  0
    6.6530   -1.5160   -1.0170 O   0  0  0  0  0  0  0  0  0  0  0  0
    6.5920    0.7890   -1.6600 C   0  0  0  0  0  0  0  0  0  0  0  0
    5.4700    1.4720   -0.9450 C   0  0  0  0  0  0  0  0  0  0  0  0
    4.3030    0.6040   -0.7120 C   0  0  0  0  0  0  0  0  0  0  0  0
    4.2520   -0.5740   -1.1170 O   0  0  0  0  0  0  0  0  0  0  0  0
    3.2040    1.1770    0.0140 N   0  0  0  0  0  0  0  0  0  0  0  0
    2.0940    0.3810    0.2460 N   0  0  0  0  0  0  0  0  0  0  0  0
    0.9340    0.8510    0.4700 C   0  0  0  0  0  0  0  0  0  0  0  0
    0.6790    2.3000    0.5000 C   0  0  0  0  0  0  0  0  0  0  0  0
   -0.7760    2.6540    0.3630 C   0  0  0  0  0  0  0  0  0  0  0  0
   -1.5260    1.6370   -0.4420 C   0  0  2  0  0  0  0  0  0  0  0  0
   -2.9190    1.9900   -0.8040 C   0  0  0  0  0  0  0  0  0  0  0  0
   -3.6530    0.6900   -1.1900 C   0  0  0  0  0  0  0  0  0  0  0  0
   -3.8150   -0.0680    0.0720 C   0  0  1  0  0  0  0  0  0  0  0  0
   -4.8490   -1.1380    0.0510 C   0  0  0  0  0  0  0  0  0  0  0  0
   -6.1890   -0.5640   -0.2440 C   0  0  0  0  0  0  0  0  0  0  0  0
   -6.3870    0.6730   -0.4370 O   0  0  0  0  0  0  0  0  0  0  0  0
   -7.3340   -1.3970   -0.3250 N   0  0  0  0  0  0  0  0  0  0  0  0
   -8.6230   -0.8410   -0.6100 C   0  0  0  0  0  0  0  0  0  0  0  0
   -8.7480    0.3980   -0.7910 O   0  0  0  0  0  0  0  0  0  0  0  0
   -2.4830   -0.4960    0.5210 C   0  0  0  0  0  0  0  0  0  0  0  0
   -2.2610   -1.6950    1.1850 C   0  0  0  0  0  0  0  0  0  0  0  0
   -1.0210   -2.1010    1.6240 C   0  0  0  0  0  0  0  0  0  0  0  0
   -0.8390   -3.4160    2.3400 C   0  0  0  0  0  0  0  0  0  0  0  0
    0.0430   -1.2700    1.3880 C   0  0  0  0  0  0  0  0  0  0  0  0
   -0.1730   -0.0530    0.7160 C   0  0  0  0  0  0  0  0  0  0  0  0
   -1.4240    0.3360    0.2820 C   0  0  0  0  0  0  0  0  0  0  0  0
  1  2  1  0
  2  3  1  0
  3  4  2  0
  3  5  1  0
  5  6  1  0
  6  7  1  0
  7  8  2  0
  7  9  1  0
  9 10  1  0
 10 11  2  3
 11 12  1  0
 11 29  1  0
 12 13  1  0
 14 13  1  1
 14 15  1  0
 14 30  1  0
 15 16  1  0
 16 17  1  0
 17 18  1  6
 17 24  1  0
 18 19  1  0
 19 20  2  0
 19 21  1  0
 21 22  1  0
 22 23  2  0
 24 25  1  0
 24 30  2  0
 25 26  2  0
 26 27  1  0
 26 28  1  0
 28 29  2  0
 29 30  1  0
M  END
