
     RDKit          3D

 23 26  0  0  0  0  0  0  0  0999 V2000
   -4.6280    3.4200    1.0220 Cl  0  0  0  0  0  0  0  0  0  0  0  0
   -3.8650    1.9650    0.3930 C   0  0  0  0  0  0  0  0  0  0  0  0
   -4.3280    1.2570   -0.5890 C   0  0  0  0  0  0  0  0  0  0  0  0
   -5.8470    1.9450   -1.2350 Cl  0  0  0  0  0  0  0  0  0  0  0  0
   -3.8180    0.0480   -1.1690 C   0  0  0  0  0  0  0  0  0  0  0  0
   -4.3920   -0.5300   -2.3050 C   0  0  0  0  0  0  0  0  0  0  0  0
   -3.7280   -1.6750   -2.6620 C   0  0  0  0  0  0  0  0  0  0  0  0
   -2.7310   -1.7960   -1.7260 C   0  0  0  0  0  0  0  0  0  0  0  0
   -2.8010   -0.7570   -0.8400 N   0  0  0  0  0  0  0  0  0  0  0  0
   -1.9170   -0.6460    0.2560 C   0  0  0  0  0  0  0  0  0  0  0  0
   -0.7420    0.1810    0.0310 N   0  0  0  0  0  0  0  0  0  0  0  0
    0.0840   -0.2770   -1.0290 C   0  0  0  0  0  0  0  0  0  0  0  0
    1.2740    0.6910   -1.1080 C   0  0  0  0  0  0  0  0  0  0  0  0
    2.0900    0.3680    0.1050 C   0  0  0  0  0  0  0  0  0  0  0  0
    1.3680    0.2080    1.2780 C   0  0  0  0  0  0  0  0  0  0  0  0
    2.2530   -0.0780    2.2540 N   0  0  0  0  0  0  0  0  0  0  0  0
    3.4940   -0.1080    1.7660 C   0  0  0  0  0  0  0  0  0  0  0  0
    4.7420   -0.3480    2.3180 C   0  0  0  0  0  0  0  0  0  0  0  0
    5.8260   -0.2920    1.4780 C   0  0  0  0  0  0  0  0  0  0  0  0
    5.6710   -0.0110    0.1500 C   0  0  0  0  0  0  0  0  0  0  0  0
    4.4790    0.2190   -0.3840 N   0  0  0  0  0  0  0  0  0  0  0  0
    3.3960    0.1700    0.4200 C   0  0  0  0  0  0  0  0  0  0  0  0
   -0.0880    0.3540    1.3010 C   0  0  0  0  0  0  0  0  0  0  0  0
  1  2  1  0
  2  3  2  3
  3  4  1  0
  3  5  1  0
  5  6  2  0
  5  9  1  0
  6  7  1  0
  7  8  2  0
  8  9  1  0
  9 10  1  0
 10 11  1  0
 11 12  1  0
 11 23  1  0
 12 13  1  0
 13 14  1  0
 14 15  2  0
 14 22  1  0
 15 16  1  0
 15 23  1  0
 16 17  1  0
 17 18  2  0
 17 22  1  0
 18 19  1  0
 19 20  2  0
 20 21  1  0
 21 22  2  0
M  END
