
     RDKit          3D

 25 27  0  0  0  0  0  0  0  0999 V2000
   -5.2360   -1.3140    1.1580 C   0  0  0  0  0  0  0  0  0  0  0  0
   -4.2470   -0.6190    0.6350 C   0  0  0  0  0  0  0  0  0  0  0  0
   -2.8810   -0.9690    0.9370 N   0  0  0  0  0  0  0  0  0  0  0  0
   -1.8340   -0.4760    0.1300 C   0  0  2  0  0  0  0  0  0  0  0  0
   -0.4990   -0.4760    0.7330 C   0  0  0  0  0  0  0  0  0  0  0  0
   -0.1830   -1.2240    1.7100 O   0  0  0  0  0  0  0  0  0  0  0  0
    0.5040    0.3960    0.2120 N   0  0  0  0  0  0  0  0  0  0  0  0
    1.8740    0.1450    0.5820 C   0  0  0  0  0  0  0  0  0  0  0  0
    2.5090   -0.7920   -0.4060 C   0  0  1  0  0  0  0  0  0  0  0  0
    2.5190   -0.2790   -1.7630 N   0  0  0  0  0  0  0  0  0  0  0  0
    3.9090   -1.0250    0.0580 C   0  0  0  0  0  0  0  0  0  0  0  0
    4.2840   -2.2540    0.3450 C   0  0  0  0  0  0  0  0  0  0  0  0
    5.9040   -2.5780    0.8890 Cl  0  0  0  0  0  0  0  0  0  0  0  0
    4.8130    0.0200    0.1900 O   0  0  0  0  0  0  0  0  0  0  0  0
    5.2210    0.5270    1.4370 C   0  0  0  0  0  0  0  0  0  0  0  0
    0.1300    1.4630   -0.6350 C   0  0  0  0  0  0  0  0  0  0  0  0
    0.9870    2.2540   -1.1040 O   0  0  0  0  0  0  0  0  0  0  0  0
   -1.2440    1.6280   -0.9500 N   0  0  0  0  0  0  0  0  0  0  0  0
   -1.9100    2.6150   -1.6160 C   0  0  0  0  0  0  0  0  0  0  0  0
   -1.3660    3.5770   -2.2030 O   0  0  0  0  0  0  0  0  0  0  0  0
   -3.2450    2.3490   -1.5160 N   0  0  0  0  0  0  0  0  0  0  0  0
   -3.3280    1.2160   -0.7950 C   0  0  0  0  0  0  0  0  0  0  0  0
   -2.1210    0.7960   -0.4720 N   0  0  0  0  0  0  0  0  0  0  0  0
   -4.4980    0.5040   -0.2500 C   0  0  0  0  0  0  0  0  0  0  0  0
   -5.7090    0.9020   -0.5760 C   0  0  0  0  0  0  0  0  0  0  0  0
  1  2  2  0
  2  3  1  0
  2 24  1  0
  4  3  1  1
  4  5  1  0
  4 23  1  0
  5  6  2  0
  5  7  1  0
  7  8  1  0
  7 16  1  0
  8  9  1  0
  9 10  1  6
  9 11  1  0
 11 12  2  3
 11 14  1  0
 12 13  1  0
 14 15  1  0
 16 17  2  0
 16 18  1  0
 18 19  1  0
 18 23  1  0
 19 20  2  0
 19 21  1  0
 21 22  2  0
 22 23  1  0
 22 24  1  0
 24 25  2  0
M  CHG  1  10   1
M  END
