
     RDKit          3D

 24 27  0  0  0  0  0  0  0  0999 V2000
    4.8050   -0.8790   -0.5880 C   0  0  0  0  0  0  0  0  0  0  0  0
    3.3860   -0.5470   -0.2540 C   0  0  0  0  0  0  0  0  0  0  0  0
    2.9030    0.7190   -0.3140 C   0  0  0  0  0  0  0  0  0  0  0  0
    1.6360    1.0170   -0.0170 N   0  0  0  0  0  0  0  0  0  0  0  0
    0.9940    2.1850   -0.0160 N   0  0  0  0  0  0  0  0  0  0  0  0
   -0.2690    2.0120    0.3500 C   0  0  0  0  0  0  0  0  0  0  0  0
   -1.3170    3.0330    0.4830 C   0  0  0  0  0  0  0  0  0  0  0  0
   -0.7460    4.3900    0.1290 C   0  0  0  0  0  0  0  0  0  0  0  0
    0.6080    4.7710    1.2410 Cl  0  0  0  0  0  0  0  0  0  0  0  0
   -0.4600    0.6390    0.6030 C   0  0  0  0  0  0  0  0  0  0  0  0
   -1.6860    0.0800    1.0080 N   0  0  0  0  0  0  0  0  0  0  0  0
   -2.7150   -0.2560    0.0920 C   0  0  0  0  0  0  0  0  0  0  0  0
   -3.8790   -0.7930    0.5270 C   0  0  0  0  0  0  0  0  0  0  0  0
   -4.8580   -1.1090   -0.3810 C   0  0  0  0  0  0  0  0  0  0  0  0
   -4.6660   -0.8890   -1.6780 N   0  0  0  0  0  0  0  0  0  0  0  0
   -3.5370   -0.3590   -2.1750 C   0  0  0  0  0  0  0  0  0  0  0  0
   -2.5340   -0.0360   -1.2490 C   0  0  0  0  0  0  0  0  0  0  0  0
    0.7430    0.0550    0.3670 C   0  0  0  0  0  0  0  0  0  0  0  0
    1.2310   -1.2660    0.4360 C   0  0  0  0  0  0  0  0  0  0  0  0
    2.5460   -1.5630    0.1250 C   0  0  0  0  0  0  0  0  0  0  0  0
    2.7360   -3.0250    0.3040 C   0  0  0  0  0  0  0  0  0  0  0  0
    1.4310   -3.5020    0.7460 C   0  0  0  0  0  0  0  0  0  0  0  0
    0.5470   -2.4890    0.8250 C   0  0  0  0  0  0  0  0  0  0  0  0
   -1.0900   -2.7570    1.3490 Cl  0  0  0  0  0  0  0  0  0  0  0  0
  1  2  1  0
  2  3  2  0
  2 20  1  0
  3  4  1  0
  4  5  1  0
  4 18  1  0
  5  6  2  0
  6  7  1  0
  6 10  1  0
  7  8  1  0
  8  9  1  0
 10 11  1  0
 10 18  2  0
 11 12  1  0
 12 13  2  0
 12 17  1  0
 13 14  1  0
 14 15  2  0
 15 16  1  0
 16 17  2  0
 18 19  1  0
 19 20  2  0
 19 23  1  0
 20 21  1  0
 21 22  1  0
 22 23  2  0
 23 24  1  0
M  END
