
     RDKit          3D

 23 24  0  0  0  0  0  0  0  0999 V2000
    7.5130   -0.5310   -0.7690 N   0  0  0  0  0  0  0  0  0  0  0  0
    6.1700   -1.1120   -0.6310 C   0  0  2  0  0  0  0  0  0  0  0  0
    5.2160   -0.0160   -0.8540 C   0  0  0  0  0  0  0  0  0  0  0  0
    4.3490    0.3220    0.0670 C   0  0  0  0  0  0  0  0  0  0  0  0
    3.4300    1.3800   -0.1520 O   0  0  0  0  0  0  0  0  0  0  0  0
    2.1340    0.9630   -0.5530 C   0  0  0  0  0  0  0  0  0  0  0  0
    1.2290    2.1490   -0.7620 C   0  0  0  0  0  0  0  0  0  0  0  0
   -0.0330    1.6930   -1.1570 O   0  0  0  0  0  0  0  0  0  0  0  0
   -0.8370    0.9050   -0.3950 C   0  0  0  0  0  0  0  0  0  0  0  0
   -0.4840    0.5370    0.7370 O   0  0  0  0  0  0  0  0  0  0  0  0
   -2.0980    0.4560   -0.8130 O   0  0  0  0  0  0  0  0  0  0  0  0
   -2.8710   -0.3620    0.0430 C   0  0  0  0  0  0  0  0  0  0  0  0
   -4.1670   -0.6580   -0.7270 C   0  0  2  0  0  0  0  0  0  0  0  0
   -3.8920   -1.3120   -1.9130 O   0  0  0  0  0  0  0  0  0  0  0  0
   -4.8260    0.6580   -1.0140 C   0  0  0  0  0  0  0  0  0  0  0  0
   -6.1370    0.6310   -0.3000 C   0  0  0  0  0  0  0  0  0  0  0  0
   -6.0700   -0.5030    0.6820 C   0  0  0  0  0  0  0  0  0  0  0  0
   -5.1090   -1.4840    0.0890 C   0  0  0  0  0  0  0  0  0  0  0  0
    4.2740   -0.3530    1.3500 C   0  0  0  0  0  0  0  0  0  0  0  0
    3.3370    0.0220    2.3270 O   0  0  0  0  0  0  0  0  0  0  0  0
    5.1100   -1.3410    1.5920 C   0  0  0  0  0  0  0  0  0  0  0  0
    5.0810   -2.0320    2.8190 O   0  0  0  0  0  0  0  0  0  0  0  0
    6.0230   -1.6970    0.6210 O   0  0  0  0  0  0  0  0  0  0  0  0
  2  1  1  1
  2  3  1  0
  2 23  1  0
  3  4  2  0
  4  5  1  0
  4 19  1  0
  5  6  1  0
  6  7  1  0
  7  8  1  0
  8  9  1  0
  9 10  2  0
  9 11  1  0
 11 12  1  0
 12 13  1  0
 13 14  1  6
 13 15  1  0
 13 18  1  0
 15 16  1  0
 16 17  1  0
 17 18  1  0
 19 20  1  0
 19 21  2  0
 21 22  1  0
 21 23  1  0
M  CHG  1  22  -1
M  END
