
     RDKit          3D

 23 24  0  0  0  0  0  0  0  0999 V2000
   -4.6670    1.9690    1.6200 C   0  0  0  0  0  0  0  0  0  0  0  0
   -3.8250    0.8720    1.0460 C   0  0  0  0  0  0  0  0  0  0  0  0
   -2.6110    0.4700    1.3710 N   0  0  0  0  0  0  0  0  0  0  0  0
   -2.1950   -0.4990    0.6530 C   0  0  0  0  0  0  0  0  0  0  0  0
   -0.9220   -1.0560    0.2190 C   0  0  0  0  0  0  0  0  0  0  0  0
   -0.5970   -2.0820   -0.3240 O   0  0  0  0  0  0  0  0  0  0  0  0
    0.3050   -0.1730    0.4680 O   0  0  0  0  0  0  0  0  0  0  0  0
    1.4290   -0.7760   -0.1920 C   0  0  0  0  0  0  0  0  0  0  0  0
    2.7720   -0.2640    0.0720 C   0  0  0  0  0  0  0  0  0  0  0  0
    3.5710    0.2390   -0.8280 C   0  0  0  0  0  0  0  0  0  0  0  0
    4.9470    0.7170   -0.5410 C   0  0  2  0  0  0  0  0  0  0  0  0
    5.6630   -0.6080   -0.6430 N   0  0  0  0  0  0  0  0  0  0  0  0
    5.1930    1.1170    0.8970 C   0  0  0  0  0  0  0  0  0  0  0  0
    3.9220    1.0440    1.6740 C   0  0  0  0  0  0  0  0  0  0  0  0
    3.3210   -0.2930    1.3770 O   0  0  0  0  0  0  0  0  0  0  0  0
   -3.2680   -0.7940   -0.2560 C   0  0  0  0  0  0  0  0  0  0  0  0
   -3.0940   -2.0090   -1.0530 C   0  0  0  0  0  0  0  0  0  0  0  0
   -3.2720   -2.2210   -2.3800 O   0  0  0  0  0  0  0  0  0  0  0  0
   -4.2340    0.0440   -0.0260 C   0  0  0  0  0  0  0  0  0  0  0  0
   -5.4900    0.2780   -0.8010 C   0  0  0  0  0  0  0  0  0  0  0  0
   -6.5610   -0.1870   -0.5460 O   0  0  0  0  0  0  0  0  0  0  0  0
   -5.2770    1.1480   -1.8910 O   0  0  0  0  0  0  0  0  0  0  0  0
   -6.1480    1.5930   -2.7410 O   0  0  0  0  0  0  0  0  0  0  0  0
  1  2  1  0
  2  3  1  0
  2 19  2  0
  3  4  1  0
  4  5  1  0
  4 16  2  0
  5  6  2  0
  5  7  1  0
  7  8  1  0
  8  9  1  0
  9 10  2  0
  9 15  1  0
 10 11  1  0
 11 12  1  1
 11 13  1  0
 13 14  1  0
 14 15  1  0
 16 17  1  0
 16 19  1  0
 17 18  1  0
 19 20  1  0
 20 21  2  0
 20 22  1  0
 22 23  1  0
M  CHG  2  12   1  23  -1
M  END
