
     RDKit          3D

 24 25  0  0  0  0  0  0  0  0999 V2000
   -6.1220    0.3500    0.9020 C   0  0  0  0  0  0  0  0  0  0  0  0
   -4.9250    0.0830    0.1820 O   0  0  0  0  0  0  0  0  0  0  0  0
   -4.7850    0.5840   -1.1210 C   0  0  0  0  0  0  0  0  0  0  0  0
   -5.7360    1.2420   -1.5920 O   0  0  0  0  0  0  0  0  0  0  0  0
   -3.5590    0.3360   -1.8820 C   0  0  0  0  0  0  0  0  0  0  0  0
   -2.5570   -0.3400   -1.4110 C   0  0  0  0  0  0  0  0  0  0  0  0
   -1.2840   -0.6130   -2.1610 C   0  0  0  0  0  0  0  0  0  0  0  0
   -0.1940   -0.8520   -1.3250 O   0  0  0  0  0  0  0  0  0  0  0  0
   -0.2850   -0.2800   -0.1210 C   0  0  2  0  0  0  0  0  0  0  0  0
    0.8870   -0.3100    0.8060 C   0  0  1  0  0  0  0  0  0  0  0  0
    1.1040   -1.8220    0.9520 N   0  0  0  0  0  0  0  0  0  0  0  0
    2.1600    0.2440    0.4580 C   0  0  0  0  0  0  0  0  0  0  0  0
    2.6460    1.3900    1.1060 C   0  0  0  0  0  0  0  0  0  0  0  0
    1.6810    2.1670    1.9500 C   0  0  0  0  0  0  0  0  0  0  0  0
    3.8520    1.8240    1.0240 O   0  0  0  0  0  0  0  0  0  0  0  0
    4.7580    1.2240    0.3110 C   0  0  0  0  0  0  0  0  0  0  0  0
    5.9650    1.6550    0.2280 O   0  0  0  0  0  0  0  0  0  0  0  0
    4.4220    0.0800   -0.3850 C   0  0  0  0  0  0  0  0  0  0  0  0
    5.4470   -0.5570   -1.1270 N   0  0  0  0  0  0  0  0  0  0  0  0
    6.7310   -0.0680   -1.1100 O   0  0  0  0  0  0  0  0  0  0  0  0
    3.1280   -0.3970   -0.3070 C   0  0  0  0  0  0  0  0  0  0  0  0
    2.7790   -1.5420   -0.9960 O   0  0  0  0  0  0  0  0  0  0  0  0
   -1.4900   -0.7640    0.6940 C   0  0  0  0  0  0  0  0  0  0  0  0
   -2.5860   -0.8790   -0.1460 O   0  0  0  0  0  0  0  0  0  0  0  0
  1  2  1  0
  2  3  1  0
  3  4  2  0
  3  5  1  0
  5  6  2  3
  6  7  1  0
  6 24  1  0
  7  8  1  0
  8  9  1  0
  9 10  1  0
  9 23  1  1
 10 11  1  6
 10 12  1  0
 12 13  2  0
 12 21  1  0
 13 14  1  0
 13 15  1  0
 15 16  1  0
 16 17  2  0
 16 18  1  0
 18 19  1  0
 18 21  2  0
 19 20  1  0
 21 22  1  0
 23 24  1  0
M  CHG  2  11   1  20  -1
M  END
