
     RDKit          3D

 24 25  0  0  0  0  0  0  0  0999 V2000
    1.8570   -0.1720   -2.3060 O   0  0  0  0  0  0  0  0  0  0  0  0
    2.3440    0.1840   -1.2050 C   0  0  0  0  0  0  0  0  0  0  0  0
    3.4720    1.0620   -1.2250 N   0  0  0  0  0  0  0  0  0  0  0  0
    4.4000    1.3630   -0.1320 C   0  0  0  0  0  0  0  0  0  0  0  0
    4.9630    0.0690    0.3690 C   0  0  0  0  0  0  0  0  0  0  0  0
    4.0910   -1.1220    0.0400 C   0  0  0  0  0  0  0  0  0  0  0  0
    2.7910   -1.1110    0.7890 C   0  0  0  0  0  0  0  0  0  0  0  0
    1.6960   -0.3460    0.0480 C   0  0  1  0  0  0  0  0  0  0  0  0
    1.3570    0.7360    0.8030 O   0  0  0  0  0  0  0  0  0  0  0  0
    0.5710   -1.2540   -0.3580 C   0  0  0  0  0  0  0  0  0  0  0  0
   -0.1400   -1.8290    0.6290 O   0  0  0  0  0  0  0  0  0  0  0  0
   -0.8570   -1.1130    1.5100 C   0  0  0  0  0  0  0  0  0  0  0  0
   -2.0170   -0.3440    1.0290 C   0  0  0  0  0  0  0  0  0  0  0  0
   -2.1930    0.9790    1.1120 C   0  0  0  0  0  0  0  0  0  0  0  0
   -1.3040    1.9210    1.6790 O   0  0  0  0  0  0  0  0  0  0  0  0
   -3.4480    1.3760    0.5390 C   0  0  0  0  0  0  0  0  0  0  0  0
   -3.8380    2.5270    0.0600 C   0  0  0  0  0  0  0  0  0  0  0  0
   -2.9130    3.5860    0.0890 O   0  0  0  0  0  0  0  0  0  0  0  0
   -4.3110    0.1420    0.5840 C   0  0  0  0  0  0  0  0  0  0  0  0
   -3.2340   -0.9290    0.3990 C   0  0  1  0  0  0  0  0  0  0  0  0
   -3.0700   -1.1200   -1.0180 N   0  0  1  0  0  0  0  0  0  0  0  0
   -2.5450    0.0180   -1.5350 O   0  0  0  0  0  0  0  0  0  0  0  0
   -2.3340   -2.2080   -1.2610 O   0  0  0  0  0  0  0  0  0  0  0  0
   -4.3230   -1.3010   -1.5520 O   0  0  0  0  0  0  0  0  0  0  0  0
  1  2  2  0
  2  3  1  0
  2  8  1  0
  3  4  1  0
  4  5  1  0
  5  6  1  0
  6  7  1  0
  7  8  1  0
  8  9  1  1
  8 10  1  0
 10 11  1  0
 11 12  1  0
 12 13  1  0
 13 14  2  0
 13 20  1  0
 14 15  1  0
 14 16  1  0
 16 17  2  3
 16 19  1  0
 17 18  1  0
 20 19  1  6
 20 21  1  0
 21 22  1  6
 21 23  1  0
 21 24  1  0
M  CHG  2  21   1  22  -1
M  END
