
     RDKit          3D

 11 12  0  0  0  0  0  0  0  0999 V2000
    2.9510   -0.5250    0.1810 C   0  0  0  0  0  0  0  0  0  0  0  0
    1.5800    0.0370    0.0610 C   0  0  0  0  0  0  0  0  0  0  0  0
    0.4920   -0.7030    0.0900 C   0  0  0  0  0  0  0  0  0  0  0  0
    0.3730   -2.4370    0.2650 Cl  0  0  0  0  0  0  0  0  0  0  0  0
   -0.6350    0.2060   -0.0560 C   0  0  0  0  0  0  0  0  0  0  0  0
   -1.9540    0.3120   -0.1260 C   0  0  0  0  0  0  0  0  0  0  0  0
   -2.8920   -0.8470   -0.0470 C   0  0  0  0  0  0  0  0  0  0  0  0
   -2.2440    1.6760   -0.2810 N   0  0  0  0  0  0  0  0  0  0  0  0
   -1.2040    2.4020   -0.3110 N   0  0  0  0  0  0  0  0  0  0  0  0
   -0.0650    1.5420   -0.1700 C   0  0  0  0  0  0  0  0  0  0  0  0
    1.2540    1.4500   -0.1010 C   0  0  0  0  0  0  0  0  0  0  0  0
  1  2  1  0
  2  3  2  0
  2 11  1  0
  3  4  1  0
  3  5  1  0
  5  6  2  0
  5 10  1  0
  6  7  1  0
  6  8  1  0
  8  9  2  0
  9 10  1  0
 10 11  2  0
M  END
