
     RDKit          3D

 12 12  0  0  0  0  0  0  0  0999 V2000
   -2.5300   -0.2910    0.7080 C   0  0  0  0  0  0  0  0  0  0  0  0
   -1.5990    0.8370    0.2280 C   0  0  0  0  0  0  0  0  0  0  0  0
   -0.3590    0.2770   -0.2320 N   0  0  0  0  0  0  0  0  0  0  0  0
   -0.1980   -0.5360   -1.4550 C   0  0  0  0  0  0  0  0  0  0  0  0
    1.2140   -0.9190   -1.5040 C   0  0  0  0  0  0  0  0  0  0  0  0
    1.8890   -0.4190   -0.4870 C   0  0  0  0  0  0  0  0  0  0  0  0
    3.2930   -0.6150   -0.2560 C   0  0  0  0  0  0  0  0  0  0  0  0
    4.4560   -0.7770   -0.0870 N   0  0  0  0  0  0  0  0  0  0  0  0
    0.9280    0.3470    0.3440 C   0  0  0  0  0  0  0  0  0  0  0  0
    1.3010    0.9730    1.4490 C   0  0  0  0  0  0  0  0  0  0  0  0
    3.0050    0.8720    1.9120 Cl  0  0  0  0  0  0  0  0  0  0  0  0
    0.2250    1.8890    2.4880 Cl  0  0  0  0  0  0  0  0  0  0  0  0
  1  2  1  0
  2  3  1  0
  3  4  1  0
  3  9  1  0
  4  5  1  0
  5  6  2  0
  6  7  1  0
  6  9  1  0
  7  8  3  0
  9 10  2  3
 10 11  1  0
 10 12  1  0
M  END
