
     RDKit          3D

 27 30  0  0  0  0  0  0  0  0999 V2000
   -4.1710   -1.4810   -2.5460 C   0  0  0  0  0  0  0  0  0  0  0  0
   -4.6670   -0.7320   -1.1930 S   0  0  0  0  0  0  0  0  0  0  0  0
   -6.3340   -0.7510   -0.7450 O   0  0  0  0  0  0  0  0  0  0  0  0
   -4.9690    0.6900   -1.8000 C   0  0  0  0  0  0  0  0  0  0  0  0
   -5.2460    1.9150   -1.0150 C   0  0  0  0  0  0  0  0  0  0  0  0
   -4.7080    2.0970    0.1600 C   0  0  0  0  0  0  0  0  0  0  0  0
   -3.8500    1.0280    0.6600 C   0  0  0  0  0  0  0  0  0  0  0  0
   -3.5970   -0.1570    0.0040 C   0  0  0  0  0  0  0  0  0  0  0  0
   -2.5400   -0.8950    0.5070 C   0  0  0  0  0  0  0  0  0  0  0  0
   -1.7680   -0.5270    1.5840 C   0  0  0  0  0  0  0  0  0  0  0  0
   -0.7070   -1.3860    2.0420 C   0  0  0  0  0  0  0  0  0  0  0  0
    0.5310   -1.0440    2.3120 C   0  0  0  0  0  0  0  0  0  0  0  0
    1.5170   -2.0310    2.7810 C   0  0  0  0  0  0  0  0  0  0  0  0
    1.2150   -3.2400    2.9410 O   0  0  0  0  0  0  0  0  0  0  0  0
    0.9700    0.3510    2.0930 C   0  0  0  0  0  0  0  0  0  0  0  0
    2.1480    0.2840    1.1760 C   0  0  0  0  0  0  0  0  0  0  0  0
    3.4000    0.3210    1.7250 C   0  0  0  0  0  0  0  0  0  0  0  0
    4.5310    0.2560    0.9300 C   0  0  0  0  0  0  0  0  0  0  0  0
    4.3500    0.1520   -0.4370 C   0  0  0  0  0  0  0  0  0  0  0  0
    5.5380    0.0840   -1.3110 C   0  0  2  0  0  0  0  0  0  0  0  0
    6.8300   -0.3950   -0.8120 C   0  0  0  0  0  0  0  0  0  0  0  0
    6.6250    1.0820   -0.9610 C   0  0  0  0  0  0  0  0  0  0  0  0
    3.0840    0.1160   -0.9710 C   0  0  0  0  0  0  0  0  0  0  0  0
    1.9460    0.1820   -0.1640 C   0  0  0  0  0  0  0  0  0  0  0  0
   -2.0380    0.6140    2.2030 N   0  0  0  0  0  0  0  0  0  0  0  0
   -3.0400    1.3590    1.7550 C   0  0  0  0  0  0  0  0  0  0  0  0
   -3.2720    2.4420    2.3680 O   0  0  0  0  0  0  0  0  0  0  0  0
  1  2  1  0
  2  3  2  0
  2  4  1  0
  2  8  1  0
  4  5  1  0
  5  6  2  0
  6  7  1  0
  7  8  2  0
  7 26  1  0
  8  9  1  0
  9 10  2  0
 10 11  1  0
 10 25  1  0
 11 12  2  3
 12 13  1  0
 12 15  1  0
 13 14  2  0
 15 16  1  0
 16 17  2  0
 16 24  1  0
 17 18  1  0
 18 19  2  0
 20 19  1  1
 19 23  1  0
 20 21  1  0
 20 22  1  0
 21 22  1  0
 23 24  2  0
 25 26  1  0
 26 27  2  0
M  END
