
     RDKit          3D

 12 13  0  0  0  0  0  0  0  0999 V2000
    2.6540   -0.7420   -2.3730 Cl  0  0  0  0  0  0  0  0  0  0  0  0
    2.7920   -0.4260   -0.6320 C   0  0  0  0  0  0  0  0  0  0  0  0
    1.7250    0.5070   -0.1930 C   0  0  0  0  0  0  0  0  0  0  0  0
    1.7590    1.8100    0.1130 N   0  0  0  0  0  0  0  0  0  0  0  0
    0.5440    2.2380    0.4610 C   0  0  0  0  0  0  0  0  0  0  0  0
   -0.3210    1.1790    0.3810 N   0  0  0  0  0  0  0  0  0  0  0  0
    0.3880    0.1220   -0.0150 C   0  0  0  0  0  0  0  0  0  0  0  0
   -0.2600   -1.1940   -0.2000 C   0  0  0  0  0  0  0  0  0  0  0  0
   -1.7040   -1.2830    0.0690 C   0  0  0  0  0  0  0  0  0  0  0  0
   -2.3640   -0.0330    0.5020 C   0  0  0  0  0  0  0  0  0  0  0  0
   -4.0990   -0.1060    0.8340 Cl  0  0  0  0  0  0  0  0  0  0  0  0
   -1.7180    1.1000    0.6440 C   0  0  0  0  0  0  0  0  0  0  0  0
  1  2  1  0
  2  3  1  0
  3  4  1  0
  3  7  2  0
  4  5  2  0
  5  6  1  0
  6  7  1  0
  6 12  1  0
  7  8  1  0
  8  9  1  0
  9 10  1  0
 10 11  1  0
 10 12  2  0
M  END
