
     RDKit          3D

 12 13  0  0  0  0  0  0  0  0999 V2000
    0.2310    3.2630    0.4330 Cl  0  0  0  0  0  0  0  0  0  0  0  0
    0.8680    1.6780    0.1230 C   0  0  0  0  0  0  0  0  0  0  0  0
    2.1890    1.5910    0.1300 C   0  0  0  0  0  0  0  0  0  0  0  0
    2.9370    0.3900   -0.1000 N   0  0  0  0  0  0  0  0  0  0  0  0
    2.5520   -0.8550   -0.1370 C   0  0  0  0  0  0  0  0  0  0  0  0
    1.2020   -1.3780    0.0560 C   0  0  0  0  0  0  0  0  0  0  0  0
    1.0610   -3.1080    0.3050 Cl  0  0  0  0  0  0  0  0  0  0  0  0
    0.0280   -0.7340    0.0730 C   0  0  0  0  0  0  0  0  0  0  0  0
   -1.2940   -1.3630    0.2770 C   0  0  0  0  0  0  0  0  0  0  0  0
   -2.2500   -0.2080    0.1120 C   0  0  0  0  0  0  0  0  0  0  0  0
   -1.4730    0.8960   -0.5510 C   0  0  0  0  0  0  0  0  0  0  0  0
   -0.1310    0.6650   -0.1030 N   0  0  0  0  0  0  0  0  0  0  0  0
  1  2  1  0
  2  3  2  0
  2 12  1  0
  3  4  1  0
  4  5  2  0
  5  6  1  0
  6  7  1  0
  6  8  2  0
  8  9  1  0
  8 12  1  0
  9 10  1  0
 10 11  1  0
 11 12  1  0
M  END
