
     RDKit          3D

 45 51  0  0  0  0  0  0  0  0999 V2000
    7.2420   -0.7460   -1.8550 C   0  0  0  0  0  0  0  0  0  0  0  0
    6.9400    0.4100   -0.9980 C   0  0  0  0  0  0  0  0  0  0  0  0
    7.8890    1.2790   -0.4600 C   0  0  0  0  0  0  0  0  0  0  0  0
    7.5430    2.3730    0.3570 C   0  0  0  0  0  0  0  0  0  0  0  0
    6.1970    2.5540    0.6090 C   0  0  0  0  0  0  0  0  0  0  0  0
    5.3660    1.6910    0.0650 N   0  0  0  0  0  0  0  0  0  0  0  0
    5.6060    0.6480   -0.7060 C   0  0  0  0  0  0  0  0  0  0  0  0
    4.4900   -0.0840   -1.1290 N   0  0  0  0  0  0  0  0  0  0  0  0
    3.1740    0.3630   -0.6890 C   0  0  0  0  0  0  0  0  0  0  0  0
    3.0520    1.4240    0.0830 C   0  0  0  0  0  0  0  0  0  0  0  0
    1.7730    1.9390    0.5680 C   0  0  0  0  0  0  0  0  0  0  0  0
    0.6800    1.1550    0.0840 N   0  0  0  0  0  0  0  0  0  0  0  0
   -0.4950    1.0330    0.8510 C   0  0  0  0  0  0  0  0  0  0  0  0
   -0.5490    1.6270    1.9490 O   0  0  0  0  0  0  0  0  0  0  0  0
   -1.6790    0.2410    0.4350 C   0  0  0  0  0  0  0  0  0  0  0  0
   -1.5410   -1.2100    0.7470 C   0  0  2  0  0  0  0  0  0  0  0  0
   -2.7490   -1.9340    0.3140 C   0  0  0  0  0  0  0  0  0  0  0  0
   -3.0390   -3.0880    0.7720 O   0  0  0  0  0  0  0  0  0  0  0  0
   -3.6840   -1.4230   -0.6340 N   0  0  0  0  0  0  0  0  0  0  0  0
   -4.8410   -2.1070   -1.0740 C   0  0  0  0  0  0  0  0  0  0  0  0
   -5.3360   -3.3150   -0.8000 N   0  0  0  0  0  0  0  0  0  0  0  0
   -6.4690   -3.5360   -1.4880 N   0  0  0  0  0  0  0  0  0  0  0  0
   -6.7570   -2.4760   -2.2390 C   0  0  0  0  0  0  0  0  0  0  0  0
   -5.7450   -1.5700   -1.9910 C   0  0  0  0  0  0  0  0  0  0  0  0
   -5.7060   -0.2420   -2.6190 C   0  0  0  0  0  0  0  0  0  0  0  0
   -5.8500   -0.1150   -4.0010 C   0  0  0  0  0  0  0  0  0  0  0  0
   -5.8270    1.1290   -4.6070 C   0  0  0  0  0  0  0  0  0  0  0  0
   -5.6580    2.2680   -3.8480 C   0  0  0  0  0  0  0  0  0  0  0  0
   -5.5110    2.1840   -2.4700 C   0  0  0  0  0  0  0  0  0  0  0  0
   -5.3450    3.2810   -1.6960 F   0  0  0  0  0  0  0  0  0  0  0  0
   -5.5410    0.9270   -1.9080 C   0  0  0  0  0  0  0  0  0  0  0  0
   -1.2280   -1.5060    2.1010 N   0  0  1  0  0  0  0  0  0  0  0  0
   -2.3600   -1.5660    2.9870 C   0  0  0  0  0  0  0  0  0  0  0  0
   -2.3380   -2.7460    3.9280 C   0  0  0  0  0  0  0  0  0  0  0  0
   -1.1350   -2.8380    4.5670 O   0  0  0  0  0  0  0  0  0  0  0  0
   -0.0280   -2.7860    3.7690 C   0  0  0  0  0  0  0  0  0  0  0  0
   -0.4640   -2.7430    2.2920 C   0  0  0  0  0  0  0  0  0  0  0  0
    0.8030    0.4770   -1.1910 C   0  0  0  0  0  0  0  0  0  0  0  0
    2.0240   -0.4350   -1.1470 C   0  0  0  0  0  0  0  0  0  0  0  0
    4.2840    2.1490    0.4920 C   0  0  0  0  0  0  0  0  0  0  0  0
    5.0760    3.1510    1.1400 C   0  0  0  0  0  0  0  0  0  0  0  0
    4.8960    4.2870    1.9710 C   0  0  0  0  0  0  0  0  0  0  0  0
    3.8280    4.7970    2.4420 C   0  0  0  0  0  0  0  0  0  0  0  0
    2.5930    4.3690    2.2590 F   0  0  0  0  0  0  0  0  0  0  0  0
    3.9240    5.9340    3.2460 F   0  0  0  0  0  0  0  0  0  0  0  0
  1  2  1  0
  2  3  1  0
  2  7  2  0
  3  4  2  0
  4  5  1  0
  5  6  1  0
  5 41  2  0
  6  7  1  0
  6 40  2  0
  7  8  1  0
  8  9  1  0
  9 10  2  0
  9 39  1  0
 10 11  1  0
 10 40  1  0
 11 12  1  0
 12 13  1  0
 12 38  1  0
 13 14  2  0
 13 15  1  0
 16 15  1  1
 16 17  1  0
 16 32  1  0
 17 18  2  0
 17 19  1  0
 19 20  1  0
 20 21  1  0
 20 24  2  0
 21 22  1  0
 22 23  2  0
 23 24  1  0
 24 25  1  0
 25 26  2  0
 25 31  1  0
 26 27  1  0
 27 28  2  0
 28 29  1  0
 29 30  1  0
 29 31  2  0
 32 33  1  1
 32 37  1  0
 33 34  1  0
 34 35  1  0
 35 36  1  0
 36 37  1  0
 38 39  1  0
 40 41  1  0
 41 42  1  0
 42 43  2  3
 43 44  1  0
 43 45  1  0
M  CHG  2   6   1  32   1
M  END
