
     RDKit          3D

 45 51  0  0  0  0  0  0  0  0999 V2000
   -6.9800   -4.6540   -0.7980 C   0  0  0  0  0  0  0  0  0  0  0  0
   -6.1860   -4.7050    0.4020 N   0  0  0  0  0  0  0  0  0  0  0  0
   -5.7280   -3.4020    0.8420 C   0  0  0  0  0  0  0  0  0  0  0  0
   -4.7290   -2.8890   -0.1510 C   0  0  0  0  0  0  0  0  0  0  0  0
   -4.2200   -1.5710    0.2330 N   0  0  0  0  0  0  0  0  0  0  0  0
   -3.0870   -1.4040    1.0440 C   0  0  0  0  0  0  0  0  0  0  0  0
   -2.3350   -2.2680    1.5790 O   0  0  0  0  0  0  0  0  0  0  0  0
   -2.8830    0.0830    1.1930 C   0  0  1  0  0  0  0  0  0  0  0  0
   -1.6200    0.3670    0.5960 N   0  0  0  0  0  0  0  0  0  0  0  0
   -0.8870    1.4730    1.1220 C   0  0  1  0  0  0  0  0  0  0  0  0
   -1.2320    1.9250    2.4880 C   0  0  0  0  0  0  0  0  0  0  0  0
    0.5720    1.2400    0.9240 C   0  0  0  0  0  0  0  0  0  0  0  0
    1.5040    1.4250    1.8940 C   0  0  0  0  0  0  0  0  0  0  0  0
    2.8440    1.2010    1.6500 C   0  0  0  0  0  0  0  0  0  0  0  0
    3.2060    0.7880    0.4020 C   0  0  0  0  0  0  0  0  0  0  0  0
    2.2690    0.5970   -0.5900 C   0  0  0  0  0  0  0  0  0  0  0  0
    0.9630    0.8310   -0.2970 N   0  0  0  0  0  0  0  0  0  0  0  0
    2.6270    0.1480   -1.9600 C   0  0  0  0  0  0  0  0  0  0  0  0
    4.0400   -0.3840   -2.0510 C   0  0  0  0  0  0  0  0  0  0  0  0
    4.9460    0.6020   -1.3720 C   0  0  2  0  0  0  0  0  0  0  0  0
    6.3260    0.3230   -1.3920 N   0  0  0  0  0  0  0  0  0  0  0  0
    6.7410    0.1200   -0.1910 C   0  0  0  0  0  0  0  0  0  0  0  0
    8.1300   -0.2030    0.2200 C   0  0  0  0  0  0  0  0  0  0  0  0
    8.4240   -0.3980    1.5430 C   0  0  0  0  0  0  0  0  0  0  0  0
    9.7270   -0.7090    1.9540 C   0  0  0  0  0  0  0  0  0  0  0  0
   10.7260   -0.8190    1.0160 C   0  0  0  0  0  0  0  0  0  0  0  0
   10.4550   -0.6270   -0.3190 C   0  0  0  0  0  0  0  0  0  0  0  0
    9.1490   -0.3200   -0.6950 C   0  0  0  0  0  0  0  0  0  0  0  0
   11.6360   -0.7970   -1.0410 O   0  0  0  0  0  0  0  0  0  0  0  0
   12.7060   -0.5820   -0.1210 C   0  0  0  0  0  0  0  0  0  0  0  0
   12.0930   -1.1070    1.0680 O   0  0  0  0  0  0  0  0  0  0  0  0
    5.6630    0.2520    0.7240 N   0  0  0  0  0  0  0  0  0  0  0  0
    4.6150    0.5300    0.0760 C   0  0  0  0  0  0  0  0  0  0  0  0
   -4.0110    0.6660    0.4190 C   0  0  0  0  0  0  0  0  0  0  0  0
   -4.3730    1.9710    0.1920 C   0  0  0  0  0  0  0  0  0  0  0  0
   -5.4890    2.2880   -0.5890 C   0  0  0  0  0  0  0  0  0  0  0  0
   -5.8510    3.7000   -0.8340 C   0  0  0  0  0  0  0  0  0  0  0  0
   -6.2290    1.2830   -1.1340 C   0  0  0  0  0  0  0  0  0  0  0  0
   -7.4210    1.5270   -1.9490 C   0  0  0  0  0  0  0  0  0  0  0  0
   -8.6710    1.8400   -1.1810 C   0  0  2  0  0  0  0  0  0  0  0  0
   -9.6800    2.0390   -2.1290 F   0  0  0  0  0  0  0  0  0  0  0  0
   -8.6150    2.9620   -0.4100 F   0  0  0  0  0  0  0  0  0  0  0  0
   -9.0590    0.7410   -0.4010 F   0  0  0  0  0  0  0  0  0  0  0  0
   -5.8590    0.0140   -0.9000 N   0  0  0  0  0  0  0  0  0  0  0  0
   -4.7800   -0.3260   -0.1450 C   0  0  0  0  0  0  0  0  0  0  0  0
  1  2  1  0
  2  3  1  0
  3  4  1  0
  4  5  1  0
  5  6  1  0
  5 45  1  0
  6  7  2  0
  6  8  1  0
  8  9  1  6
  8 34  1  0
  9 10  1  0
 10 11  1  1
 10 12  1  0
 12 13  2  0
 12 17  1  0
 13 14  1  0
 14 15  2  0
 15 16  1  0
 15 33  1  0
 16 17  2  0
 16 18  1  0
 18 19  1  0
 20 19  1  6
 20 21  1  0
 20 33  1  0
 21 22  2  0
 22 23  1  0
 22 32  1  0
 23 24  2  0
 23 28  1  0
 24 25  1  0
 25 26  2  0
 26 27  1  0
 26 31  1  0
 27 28  2  0
 27 29  1  0
 29 30  1  0
 30 31  1  0
 32 33  2  0
 34 35  2  0
 34 45  1  0
 35 36  1  0
 36 37  1  0
 36 38  2  0
 38 39  1  0
 38 44  1  0
 39 40  1  0
 40 41  1  6
 40 42  1  0
 40 43  1  0
 44 45  2  0
M  CHG  1   9   1
M  END
