
     RDKit          3D

 45 47  0  0  0  0  0  0  0  0999 V2000
    8.9630    1.7770    0.7000 N   0  0  0  0  0  0  0  0  0  0  0  0
    8.3220    2.6800    1.5650 C   0  0  0  0  0  0  0  0  0  0  0  0
    8.9580    3.7350    1.8660 O   0  0  0  0  0  0  0  0  0  0  0  0
    6.9920    2.5000    2.1380 C   0  0  0  0  0  0  0  0  0  0  0  0
    6.2710    1.3950    1.7320 O   0  0  0  0  0  0  0  0  0  0  0  0
    5.8410    1.1030    0.4560 C   0  0  0  0  0  0  0  0  0  0  0  0
    6.1480    2.0360   -0.5560 C   0  0  0  0  0  0  0  0  0  0  0  0
    5.7600    1.8120   -1.8410 C   0  0  0  0  0  0  0  0  0  0  0  0
    5.0630    0.6830   -2.1740 C   0  0  0  0  0  0  0  0  0  0  0  0
    4.7600   -0.2360   -1.1690 C   0  0  0  0  0  0  0  0  0  0  0  0
    5.1440   -0.0280    0.1310 C   0  0  0  0  0  0  0  0  0  0  0  0
    4.8340   -0.9420    1.0970 O   0  0  0  0  0  0  0  0  0  0  0  0
    4.1240   -2.1030    0.8870 C   0  0  0  0  0  0  0  0  0  0  0  0
    4.6120   -3.1410    0.2900 C   0  0  0  0  0  0  0  0  0  0  0  0
    3.8880   -4.4130    0.0420 C   0  0  0  0  0  0  0  0  0  0  0  0
    2.7020   -4.5920    0.9230 C   0  0  0  0  0  0  0  0  0  0  0  0
    2.5350   -3.5390    1.9870 C   0  0  0  0  0  0  0  0  0  0  0  0
    2.6870   -2.1850    1.3730 C   0  0  2  0  0  0  0  0  0  0  0  0
    1.7750   -2.0410    0.2780 N   0  0  0  0  0  0  0  0  0  0  0  0
    1.0680   -0.8200   -0.0220 C   0  0  0  0  0  0  0  0  0  0  0  0
    1.2560    0.1530    0.6910 O   0  0  0  0  0  0  0  0  0  0  0  0
    0.1920   -0.8200   -1.1460 N   0  0  0  0  0  0  0  0  0  0  0  0
   -0.5220    0.3270   -1.5820 C   0  0  0  0  0  0  0  0  0  0  0  0
   -1.4910    0.9900   -0.7190 C   0  0  2  0  0  0  0  0  0  0  0  0
   -1.0400    1.5150    0.4770 O   0  0  0  0  0  0  0  0  0  0  0  0
   -2.8770    0.3950   -0.6390 C   0  0  1  0  0  0  0  0  0  0  0  0
   -3.1180   -0.4830    0.3640 O   0  0  0  0  0  0  0  0  0  0  0  0
   -3.7260   -1.7030    0.2910 C   0  0  0  0  0  0  0  0  0  0  0  0
   -3.9200   -2.4310    1.4900 C   0  0  0  0  0  0  0  0  0  0  0  0
   -4.5130   -3.6510    1.5640 C   0  0  0  0  0  0  0  0  0  0  0  0
   -4.9670   -4.2370    0.3770 C   0  0  0  0  0  0  0  0  0  0  0  0
   -5.7340   -5.8020    0.4140 Cl  0  0  0  0  0  0  0  0  0  0  0  0
   -4.7910   -3.5590   -0.7870 C   0  0  0  0  0  0  0  0  0  0  0  0
   -5.2940   -4.2220   -2.0060 C   0  0  0  0  0  0  0  0  0  0  0  0
   -6.4800   -4.4620   -2.2230 O   0  0  0  0  0  0  0  0  0  0  0  0
   -4.3230   -4.5780   -2.9390 O   0  0  0  0  0  0  0  0  0  0  0  0
   -4.1800   -2.3030   -0.8590 C   0  0  0  0  0  0  0  0  0  0  0  0
   -3.8530    1.5430   -0.6000 C   0  0  0  0  0  0  0  0  0  0  0  0
   -3.7450    2.4140   -1.5020 O   0  0  0  0  0  0  0  0  0  0  0  0
   -4.8610    1.6920    0.3670 N   0  0  0  0  0  0  0  0  0  0  0  0
   -5.7500    2.8490    0.2970 C   0  0  0  0  0  0  0  0  0  0  0  0
   -5.0470    4.1570    0.3720 C   0  0  0  0  0  0  0  0  0  0  0  0
   -6.0650    5.3000    0.2950 C   0  0  0  0  0  0  0  0  0  0  0  0
   -6.8530    5.2250   -0.9950 C   0  0  0  0  0  0  0  0  0  0  0  0
   -6.0510    5.3060   -2.1100 O   0  0  0  0  0  0  0  0  0  0  0  0
  1  2  1  0
  2  3  2  0
  2  4  1  0
  4  5  1  0
  5  6  1  0
  6  7  2  0
  6 11  1  0
  7  8  1  0
  8  9  2  0
  9 10  1  0
 10 11  2  0
 11 12  1  0
 12 13  1  0
 13 14  2  0
 13 18  1  0
 14 15  1  0
 15 16  1  0
 16 17  1  0
 17 18  1  0
 18 19  1  6
 19 20  1  0
 20 21  2  0
 20 22  1  0
 22 23  1  0
 23 24  1  0
 24 25  1  1
 24 26  1  0
 26 27  1  1
 26 38  1  0
 27 28  1  0
 28 29  2  0
 28 37  1  0
 29 30  1  0
 30 31  2  0
 31 32  1  0
 31 33  1  0
 33 34  1  0
 33 37  2  0
 34 35  2  0
 34 36  1  0
 38 39  2  0
 38 40  1  0
 40 41  1  0
 41 42  1  0
 42 43  1  0
 43 44  1  0
 44 45  1  0
M  END
