
     RDKit          3D

 45 51  0  0  0  0  0  0  0  0999 V2000
   -8.7650    3.2040   -1.3370 C   0  0  0  0  0  0  0  0  0  0  0  0
   -7.8890    2.8310   -0.1570 C   0  0  1  0  0  0  0  0  0  0  0  0
   -8.2230    1.4070    0.2500 C   0  0  0  0  0  0  0  0  0  0  0  0
   -6.8740    0.8640    0.5870 C   0  0  0  0  0  0  0  0  0  0  0  0
   -6.4690   -0.2650    1.2670 C   0  0  0  0  0  0  0  0  0  0  0  0
   -5.1030   -0.5530    1.4490 C   0  0  0  0  0  0  0  0  0  0  0  0
   -4.7180   -1.7980    2.1280 C   0  0  0  0  0  0  0  0  0  0  0  0
   -4.4780   -2.9890    1.2890 C   0  0  0  0  0  0  0  0  0  0  0  0
   -3.4740   -2.8920    0.3010 N   0  0  0  0  0  0  0  0  0  0  0  0
   -4.1500    0.2950    0.9480 C   0  0  0  0  0  0  0  0  0  0  0  0
   -2.7820    0.1030    1.0980 C   0  0  0  0  0  0  0  0  0  0  0  0
   -1.8150    0.9500    0.6180 C   0  0  0  0  0  0  0  0  0  0  0  0
   -0.4070    0.7270    0.7720 N   0  0  0  0  0  0  0  0  0  0  0  0
    0.4520    1.5900    1.2630 N   0  0  0  0  0  0  0  0  0  0  0  0
    1.7100    1.0400    1.2290 C   0  0  0  0  0  0  0  0  0  0  0  0
    2.7320    1.6460    1.6450 O   0  0  0  0  0  0  0  0  0  0  0  0
    1.6400   -0.1750    0.7110 N   0  0  0  0  0  0  0  0  0  0  0  0
    2.6610   -1.1600    0.3750 C   0  0  0  0  0  0  0  0  0  0  0  0
    2.9940   -1.2470   -1.0580 C   0  0  2  0  0  0  0  0  0  0  0  0
    3.9770   -2.3420   -1.2000 N   0  0  0  0  0  0  0  0  0  0  0  0
    5.2450   -2.3470   -0.5960 C   0  0  0  0  0  0  0  0  0  0  0  0
    6.0610   -3.4610   -0.8090 C   0  0  0  0  0  0  0  0  0  0  0  0
    7.2880   -3.5160   -0.2560 C   0  0  0  0  0  0  0  0  0  0  0  0
    7.7190   -2.4860    0.5040 N   0  0  0  0  0  0  0  0  0  0  0  0
    6.9300   -1.4130    0.7080 C   0  0  0  0  0  0  0  0  0  0  0  0
    7.4700   -0.3110    1.5540 C   0  0  1  0  0  0  0  0  0  0  0  0
    7.3680    1.0540    0.8790 C   0  0  0  0  0  0  0  0  0  0  0  0
    6.6110    0.7380    2.1120 C   0  0  0  0  0  0  0  0  0  0  0  0
    5.7150   -1.3640    0.1580 N   0  0  0  0  0  0  0  0  0  0  0  0
    3.5300   -0.0770   -1.7430 C   0  0  0  0  0  0  0  0  0  0  0  0
    4.1810    0.9610   -1.1590 C   0  0  0  0  0  0  0  0  0  0  0  0
    4.6950    2.0150   -1.9190 C   0  0  0  0  0  0  0  0  0  0  0  0
    5.3360    3.0260   -1.2520 F   0  0  0  0  0  0  0  0  0  0  0  0
    4.5570    2.0300   -3.2840 C   0  0  0  0  0  0  0  0  0  0  0  0
    3.9000    0.9800   -3.8860 C   0  0  0  0  0  0  0  0  0  0  0  0
    3.3980   -0.0500   -3.1350 C   0  0  0  0  0  0  0  0  0  0  0  0
    2.7650   -1.0500   -3.7800 F   0  0  0  0  0  0  0  0  0  0  0  0
    0.3070   -0.3480    0.4360 C   0  0  0  0  0  0  0  0  0  0  0  0
   -0.1440   -1.4040   -0.0700 O   0  0  0  0  0  0  0  0  0  0  0  0
   -2.2510    2.0870   -0.0720 C   0  0  0  0  0  0  0  0  0  0  0  0
   -1.2950    2.9290   -0.5520 F   0  0  0  0  0  0  0  0  0  0  0  0
   -3.5950    2.3030   -0.2340 C   0  0  0  0  0  0  0  0  0  0  0  0
   -4.5470    1.4370    0.2590 C   0  0  0  0  0  0  0  0  0  0  0  0
   -5.9070    1.7000    0.0910 C   0  0  0  0  0  0  0  0  0  0  0  0
   -6.5190    2.7590   -0.5490 O   0  0  0  0  0  0  0  0  0  0  0  0
  2  1  1  6
  2  3  1  0
  2 45  1  0
  3  4  1  0
  4  5  2  0
  4 44  1  0
  5  6  1  0
  6  7  1  0
  6 10  2  0
  7  8  1  0
  8  9  1  0
 10 11  1  0
 10 43  1  0
 11 12  2  0
 12 13  1  0
 12 40  1  0
 13 14  1  0
 13 38  1  0
 14 15  1  0
 15 16  2  0
 15 17  1  0
 17 18  1  0
 17 38  1  0
 19 18  1  1
 19 20  1  0
 19 30  1  0
 20 21  1  0
 21 22  2  0
 21 29  1  0
 22 23  1  0
 23 24  2  0
 24 25  1  0
 26 25  1  6
 25 29  2  0
 26 27  1  0
 26 28  1  0
 27 28  1  0
 30 31  2  0
 30 36  1  0
 31 32  1  0
 32 33  1  0
 32 34  2  0
 34 35  1  0
 35 36  2  0
 36 37  1  0
 38 39  2  0
 40 41  1  0
 40 42  2  0
 42 43  1  0
 43 44  2  0
 44 45  1  0
M  CHG  1   9   1
M  END
