
     RDKit          3D

 45 50  0  0  0  0  0  0  0  0999 V2000
   -6.6970    3.0390    3.7870 C   0  0  0  0  0  0  0  0  0  0  0  0
   -6.3450    1.5480    3.8000 C   0  0  0  0  0  0  0  0  0  0  0  0
   -5.5730    1.2990    2.5380 C   0  0  0  0  0  0  0  0  0  0  0  0
   -4.2260    1.1400    2.5730 C   0  0  0  0  0  0  0  0  0  0  0  0
   -3.5170    0.9090    1.4010 C   0  0  0  0  0  0  0  0  0  0  0  0
   -4.0880    0.8240    0.1600 C   0  0  0  0  0  0  0  0  0  0  0  0
   -5.5030    0.9990    0.1760 C   0  0  0  0  0  0  0  0  0  0  0  0
   -6.1960    1.2260    1.3340 C   0  0  0  0  0  0  0  0  0  0  0  0
   -7.5630    1.3920    1.3280 F   0  0  0  0  0  0  0  0  0  0  0  0
   -6.4780    0.9840   -0.9420 C   0  0  0  0  0  0  0  0  0  0  0  0
   -5.8370    0.5030   -2.1940 C   0  0  0  0  0  0  0  0  0  0  0  0
   -5.1310   -0.7340   -1.9900 N   0  0  2  0  0  0  0  0  0  0  0  0
   -5.6690   -1.5740   -0.9610 C   0  0  0  0  0  0  0  0  0  0  0  0
   -5.4040   -3.0170   -1.3650 C   0  0  0  0  0  0  0  0  0  0  0  0
   -3.7360   -0.5130   -1.9150 C   0  0  0  0  0  0  0  0  0  0  0  0
   -3.2560    0.5740   -0.9960 C   0  0  2  0  0  0  0  0  0  0  0  0
   -1.8250    0.4590   -0.7310 C   0  0  0  0  0  0  0  0  0  0  0  0
   -1.2360    0.5320    0.4200 C   0  0  0  0  0  0  0  0  0  0  0  0
    0.2370    0.4040    0.6260 C   0  0  0  0  0  0  0  0  0  0  0  0
    0.6560    0.4960    1.8060 O   0  0  0  0  0  0  0  0  0  0  0  0
    1.1180    0.1910   -0.4520 N   0  0  0  0  0  0  0  0  0  0  0  0
    2.5450    0.0560   -0.3330 C   0  0  0  0  0  0  0  0  0  0  0  0
    3.2020   -0.0280    0.8690 C   0  0  0  0  0  0  0  0  0  0  0  0
    4.5930   -0.1870    0.9810 C   0  0  0  0  0  0  0  0  0  0  0  0
    5.3330   -0.2630   -0.1450 C   0  0  0  0  0  0  0  0  0  0  0  0
    6.8070   -0.4340   -0.1260 C   0  0  0  0  0  0  0  0  0  0  0  0
    7.4400   -0.2670   -1.1930 O   0  0  0  0  0  0  0  0  0  0  0  0
    7.4900   -0.7740    1.0470 N   0  0  0  0  0  0  0  0  0  0  0  0
    8.8840   -0.9580    1.1790 C   0  0  0  0  0  0  0  0  0  0  0  0
    9.8030   -0.8300    0.1790 C   0  0  0  0  0  0  0  0  0  0  0  0
   11.1840   -1.0270    0.3810 C   0  0  0  0  0  0  0  0  0  0  0  0
   11.6720   -1.3620    1.6150 C   0  0  0  0  0  0  0  0  0  0  0  0
   13.0060   -1.5490    1.7950 F   0  0  0  0  0  0  0  0  0  0  0  0
   10.7610   -1.4950    2.6320 C   0  0  0  0  0  0  0  0  0  0  0  0
    9.4190   -1.3040    2.4350 C   0  0  0  0  0  0  0  0  0  0  0  0
    8.5180   -1.4380    3.4520 F   0  0  0  0  0  0  0  0  0  0  0  0
    4.7020   -0.1830   -1.3400 C   0  0  0  0  0  0  0  0  0  0  0  0
    3.3260   -0.0250   -1.4880 C   0  0  0  0  0  0  0  0  0  0  0  0
    2.7680    0.0560   -2.8210 C   0  0  0  0  0  0  0  0  0  0  0  0
    1.5510    0.2310   -3.3070 N   0  0  0  0  0  0  0  0  0  0  0  0
    1.5700    0.2260   -4.6200 N   0  0  0  0  0  0  0  0  0  0  0  0
    2.8110    0.0480   -5.0230 N   0  0  0  0  0  0  0  0  0  0  0  0
    3.5440   -0.0570   -3.9510 N   0  0  0  0  0  0  0  0  0  0  0  0
   -2.0800    0.7690    1.5910 C   0  0  0  0  0  0  0  0  0  0  0  0
   -1.5440    0.8460    2.7410 O   0  0  0  0  0  0  0  0  0  0  0  0
  1  2  1  0
  2  3  1  0
  3  4  2  0
  3  8  1  0
  4  5  1  0
  5  6  2  0
  5 44  1  0
  6  7  1  0
  6 16  1  0
  7  8  2  0
  7 10  1  0
  8  9  1  0
 10 11  1  0
 11 12  1  0
 12 13  1  1
 12 15  1  0
 13 14  1  0
 16 15  1  1
 16 17  1  0
 17 18  2  0
 18 19  1  0
 18 44  1  0
 19 20  2  0
 19 21  1  0
 21 22  1  0
 22 23  2  0
 22 38  1  0
 23 24  1  0
 24 25  2  0
 25 26  1  0
 25 37  1  0
 26 27  2  0
 26 28  1  0
 28 29  1  0
 29 30  2  0
 29 35  1  0
 30 31  1  0
 31 32  2  0
 32 33  1  0
 32 34  1  0
 34 35  2  0
 35 36  1  0
 37 38  2  0
 38 39  1  0
 39 40  1  0
 39 43  2  0
 40 41  2  0
 41 42  1  0
 42 43  1  0
 44 45  2  0
M  CHG  1  12   1
M  END
