
     RDKit          3D

 30 33  0  0  0  0  0  0  0  0999 V2000
   -0.2480    4.5990   -0.8280 C   0  0  0  0  0  0  0  0  0  0  0  0
   -1.3330    3.6550   -0.7130 N   0  0  0  0  0  0  0  0  0  0  0  0
   -0.9280    2.4270   -0.0350 C   0  0  2  0  0  0  0  0  0  0  0  0
    0.0190    2.7590    1.0800 C   0  0  0  0  0  0  0  0  0  0  0  0
   -0.2840    1.5450   -1.1020 C   0  0  0  0  0  0  0  0  0  0  0  0
    0.1790    0.2630   -0.5750 C   0  0  0  0  0  0  0  0  0  0  0  0
   -0.5460   -0.8320   -0.2320 C   0  0  0  0  0  0  0  0  0  0  0  0
   -2.0100   -1.0330   -0.2850 C   0  0  0  0  0  0  0  0  0  0  0  0
   -2.7290   -0.7280   -1.4090 C   0  0  0  0  0  0  0  0  0  0  0  0
   -4.1060   -0.9440   -1.3510 C   0  0  0  0  0  0  0  0  0  0  0  0
   -4.9240   -0.6270   -2.5430 C   0  0  0  0  0  0  0  0  0  0  0  0
   -4.7180   -1.4400   -0.2190 C   0  0  0  0  0  0  0  0  0  0  0  0
   -6.0670   -1.6500   -0.1650 F   0  0  0  0  0  0  0  0  0  0  0  0
   -3.9920   -1.7470    0.9100 C   0  0  0  0  0  0  0  0  0  0  0  0
   -4.6410   -2.2820    2.1360 C   0  0  0  0  0  0  0  0  0  0  0  0
   -2.6180   -1.5300    0.8480 C   0  0  0  0  0  0  0  0  0  0  0  0
    0.3240   -1.7560    0.2090 N   0  0  0  0  0  0  0  0  0  0  0  0
    1.5440   -1.2980    0.1600 N   0  0  0  0  0  0  0  0  0  0  0  0
    1.5150   -0.0680   -0.3120 C   0  0  0  0  0  0  0  0  0  0  0  0
    2.7800    0.3940   -0.3580 N   0  0  0  0  0  0  0  0  0  0  0  0
    3.5960   -0.5730    0.0940 C   0  0  0  0  0  0  0  0  0  0  0  0
    4.9640   -0.7120    0.2880 C   0  0  0  0  0  0  0  0  0  0  0  0
    5.5450   -1.8440    0.7790 C   0  0  0  0  0  0  0  0  0  0  0  0
    7.2620   -1.9970    1.0140 S   0  0  1  0  0  0  0  0  0  0  0  0
    8.0020   -0.9580    0.2460 O   0  0  0  0  0  0  0  0  0  0  0  0
    7.6320   -1.9030    2.4670 O   0  0  0  0  0  0  0  0  0  0  0  0
    4.7560   -2.9420    1.1170 C   0  0  0  0  0  0  0  0  0  0  0  0
    3.3990   -2.8260    0.9330 C   0  0  0  0  0  0  0  0  0  0  0  0
    2.6030   -3.8670    1.2480 F   0  0  0  0  0  0  0  0  0  0  0  0
    2.8320   -1.6750    0.4360 C   0  0  0  0  0  0  0  0  0  0  0  0
  1  2  1  0
  2  3  1  0
  3  4  1  1
  3  5  1  0
  5  6  1  0
  6  7  1  0
  6 19  2  0
  7  8  1  0
  7 17  2  0
  8  9  2  0
  8 16  1  0
  9 10  1  0
 10 11  1  0
 10 12  2  0
 12 13  1  0
 12 14  1  0
 14 15  1  0
 14 16  2  0
 17 18  1  0
 18 19  1  0
 18 30  1  0
 19 20  1  0
 20 21  1  0
 21 22  2  0
 21 30  1  0
 22 23  1  0
 24 23  1  1
 23 27  2  0
 24 25  2  0
 24 26  2  0
 27 28  1  0
 28 29  1  0
 28 30  2  0
M  CHG  1   2   1
M  END
