
     RDKit          3D

 31 32  0  0  0  0  0  0  0  0999 V2000
    5.6290   -3.0120   -0.6860 C   0  0  0  0  0  0  0  0  0  0  0  0
    5.2500   -1.6280   -1.0620 C   0  0  0  0  0  0  0  0  0  0  0  0
    4.2010   -1.0530   -0.5030 C   0  0  0  0  0  0  0  0  0  0  0  0
    3.3470   -1.6900    0.4940 C   0  0  0  0  0  0  0  0  0  0  0  0
    1.8690   -1.7860   -0.0080 C   0  0  0  0  0  0  0  0  0  0  0  0
    1.0630   -1.1530    0.8370 C   0  0  0  0  0  0  0  0  0  0  0  0
    1.6160   -0.4800    2.0610 C   0  0  0  0  0  0  0  0  0  0  0  0
    2.2530    0.8380    1.9470 C   0  0  0  0  0  0  0  0  0  0  0  0
    1.5110    2.0370    1.5020 C   0  0  0  0  0  0  0  0  0  0  0  0
    2.5370    3.2270    1.4600 C   0  0  0  0  0  0  0  0  0  0  0  0
    3.1190    3.4510    2.8170 C   0  0  0  0  0  0  0  0  0  0  0  0
   -0.4410   -1.1860    0.7450 C   0  0  0  0  0  0  0  0  0  0  0  0
   -0.9550   -0.1400   -0.0790 C   0  0  0  0  0  0  0  0  0  0  0  0
   -0.2430    0.3850   -0.9810 O   0  0  0  0  0  0  0  0  0  0  0  0
   -2.2950    0.4910   -0.0640 C   0  0  2  0  0  0  0  0  0  0  0  0
   -2.2230    1.7540    0.7640 C   0  0  0  0  0  0  0  0  0  0  0  0
   -1.9280    1.5670    2.2060 C   0  0  0  0  0  0  0  0  0  0  0  0
   -1.9220    2.9810    2.8210 C   0  0  0  0  0  0  0  0  0  0  0  0
   -3.3480   -0.4430    0.5390 C   0  0  0  0  0  0  0  0  0  0  0  0
   -4.6630    0.2860    0.6540 C   0  0  0  0  0  0  0  0  0  0  0  0
   -4.9430    1.2960   -0.4110 C   0  0  0  0  0  0  0  0  0  0  0  0
   -4.0410    1.1040   -1.5420 C   0  0  0  0  0  0  0  0  0  0  0  0
   -4.5580    1.4210   -2.9430 C   0  0  0  0  0  0  0  0  0  0  0  0
   -2.7710    0.7130   -1.4430 C   0  0  0  0  0  0  0  0  0  0  0  0
   -2.0000    0.4290   -2.6730 C   0  0  0  0  0  0  0  0  0  0  0  0
   -1.5150   -0.7410   -3.1010 C   0  0  0  0  0  0  0  0  0  0  0  0
   -1.5240   -2.0720   -2.6210 C   0  0  0  0  0  0  0  0  0  0  0  0
   -0.6050   -2.9600   -2.2220 C   0  0  0  0  0  0  0  0  0  0  0  0
    0.8360   -3.0000   -2.0880 C   0  0  0  0  0  0  0  0  0  0  0  0
    1.4830   -3.8850   -3.2440 C   0  0  0  0  0  0  0  0  0  0  0  0
    1.6820   -2.5280   -1.2230 C   0  0  0  0  0  0  0  0  0  0  0  0
  1  2  1  0
  2  3  2  3
  3  4  1  0
  4  5  1  0
  5  6  2  0
  5 31  1  0
  6  7  1  0
  6 12  1  0
  7  8  1  0
  8  9  1  0
  9 10  1  0
 10 11  1  0
 12 13  1  0
 13 14  2  0
 13 15  1  0
 15 16  1  1
 15 19  1  0
 15 24  1  0
 16 17  1  0
 17 18  1  0
 19 20  1  0
 20 21  1  0
 21 22  1  0
 22 23  1  0
 22 24  2  0
 24 25  1  0
 25 26  2  0
 26 27  1  0
 27 28  2  0
 28 29  1  0
 29 30  1  0
 29 31  2  0
M  END
