
     RDKit          3D

 31 33  0  0  0  0  0  0  0  0999 V2000
    7.0260   -0.3980    1.4480 C   0  0  0  0  0  0  0  0  0  0  0  0
    5.9760    0.0300    0.7680 C   0  0  0  0  0  0  0  0  0  0  0  0
    4.6360   -0.5310    0.9720 C   0  0  0  0  0  0  0  0  0  0  0  0
    3.5930   -0.1200    0.3100 C   0  0  0  0  0  0  0  0  0  0  0  0
    2.2280   -0.6750    0.5010 C   0  0  0  0  0  0  0  0  0  0  0  0
    1.2670   -0.1670   -0.2330 C   0  0  0  0  0  0  0  0  0  0  0  0
   -0.1150   -0.7110   -0.0620 C   0  0  0  0  0  0  0  0  0  0  0  0
   -0.2360   -2.0740   -0.5910 N   0  0  0  0  0  0  0  0  0  0  0  0
   -1.4470   -2.7990   -0.4730 C   0  0  0  0  0  0  0  0  0  0  0  0
   -1.5140   -3.9710   -0.8680 O   0  0  0  0  0  0  0  0  0  0  0  0
   -2.6520   -2.1310    0.1380 C   0  0  2  0  0  0  0  0  0  0  0  0
   -3.6090   -3.1740    0.6480 C   0  0  0  0  0  0  0  0  0  0  0  0
   -4.6480   -3.3930   -0.8540 S   0  0  0  0  0  0  0  0  0  0  0  0
   -4.0320   -1.9030   -1.7390 C   0  0  0  0  0  0  0  0  0  0  0  0
   -3.2820   -1.2550   -0.7430 N   0  0  0  0  0  0  0  0  0  0  0  0
   -3.7710   -0.0110   -0.2690 C   0  0  0  0  0  0  0  0  0  0  0  0
   -3.3900    0.3540    1.1040 C   0  0  0  0  0  0  0  0  0  0  0  0
   -4.0370   -0.1930    2.0570 O   0  0  0  0  0  0  0  0  0  0  0  0
   -2.3730    1.2570    1.4900 N   0  0  0  0  0  0  0  0  0  0  0  0
   -1.8230    2.2500    0.6240 C   0  0  0  0  0  0  0  0  0  0  0  0
   -0.3360    2.4810    0.8180 C   0  0  0  0  0  0  0  0  0  0  0  0
    0.2800    2.8720   -0.4890 C   0  0  0  0  0  0  0  0  0  0  0  0
    0.1840    4.0860   -1.0850 C   0  0  0  0  0  0  0  0  0  0  0  0
    0.9180    4.0490   -2.3200 C   0  0  0  0  0  0  0  0  0  0  0  0
    1.4550    2.8650   -2.4990 C   0  0  0  0  0  0  0  0  0  0  0  0
    1.0790    2.0190   -1.3230 C   0  0  0  0  0  0  0  0  0  0  0  0
    1.4480    0.8180   -1.1640 N   0  0  0  0  0  0  0  0  0  0  0  0
    2.0950   -1.7400    1.4970 C   0  0  1  0  0  0  0  0  0  0  0  0
    0.8380   -2.2270    1.6910 F   0  0  0  0  0  0  0  0  0  0  0  0
    2.9610   -2.7730    1.1440 F   0  0  0  0  0  0  0  0  0  0  0  0
    2.5600   -1.2370    2.7080 F   0  0  0  0  0  0  0  0  0  0  0  0
  1  2  2  0
  2  3  1  0
  3  4  2  3
  4  5  1  0
  5  6  2  3
  5 28  1  0
  6  7  1  0
  6 27  1  0
  7  8  1  0
  8  9  1  0
  9 10  2  0
  9 11  1  0
 11 12  1  6
 11 15  1  0
 12 13  1  0
 13 14  1  0
 14 15  1  0
 15 16  1  0
 16 17  1  0
 17 18  2  0
 17 19  1  0
 19 20  1  0
 20 21  1  0
 21 22  1  0
 22 23  2  0
 22 26  1  0
 23 24  1  0
 24 25  2  0
 25 26  1  0
 26 27  2  0
 28 29  1  1
 28 30  1  0
 28 31  1  0
M  END
