
     RDKit          3D

 31 32  0  0  0  0  0  0  0  0999 V2000
    7.1790    1.5690    0.1880 C   0  0  0  0  0  0  0  0  0  0  0  0
    6.7650    0.4180   -0.6960 C   0  0  1  0  0  0  0  0  0  0  0  0
    7.3580   -0.8530   -0.0860 C   0  0  0  0  0  0  0  0  0  0  0  0
    5.2410    0.2980   -0.6600 C   0  0  0  0  0  0  0  0  0  0  0  0
    4.8290   -0.8100   -1.5930 C   0  0  0  0  0  0  0  0  0  0  0  0
    3.3070   -0.9650   -1.5260 C   0  0  0  0  0  0  0  0  0  0  0  0
    2.5550    0.2920   -1.8430 C   0  0  0  0  0  0  0  0  0  0  0  0
    1.0800    0.2030   -1.8360 C   0  0  2  0  0  0  0  0  0  0  0  0
    0.5650    1.6280   -2.2120 C   0  0  0  0  0  0  0  0  0  0  0  0
    0.3340   -0.2880   -0.6820 C   0  0  0  0  0  0  0  0  0  0  0  0
   -0.0830   -1.4820   -0.9060 O   0  0  0  0  0  0  0  0  0  0  0  0
   -0.0240    0.2560    0.5980 C   0  0  1  0  0  0  0  0  0  0  0  0
   -1.5000    0.5120    0.8130 C   0  0  0  0  0  0  0  0  0  0  0  0
   -1.9510    0.8830    2.0680 C   0  0  0  0  0  0  0  0  0  0  0  0
   -3.3090    1.0370    2.2240 C   0  0  0  0  0  0  0  0  0  0  0  0
   -4.2850    0.8510    1.2130 C   0  0  0  0  0  0  0  0  0  0  0  0
   -5.6890    1.0570    1.5830 C   0  0  2  0  0  0  0  0  0  0  0  0
   -6.2800   -0.1350    2.3490 C   0  0  0  0  0  0  0  0  0  0  0  0
   -6.6580    1.9210    0.9200 C   0  0  0  0  0  0  0  0  0  0  0  0
   -3.7830    0.4910    0.0060 C   0  0  0  0  0  0  0  0  0  0  0  0
   -4.5530    0.2840   -1.1910 C   0  0  0  0  0  0  0  0  0  0  0  0
   -4.1900   -0.7140   -2.0700 C   0  0  0  0  0  0  0  0  0  0  0  0
   -5.0770   -0.7720   -3.2270 C   0  0  0  0  0  0  0  0  0  0  0  0
   -5.9900    0.3420   -2.9870 C   0  0  0  0  0  0  0  0  0  0  0  0
   -5.6520    0.9060   -1.8120 C   0  0  0  0  0  0  0  0  0  0  0  0
   -2.3920    0.3220   -0.1930 C   0  0  0  0  0  0  0  0  0  0  0  0
    0.6580   -0.1860    1.8370 C   0  0  2  0  0  0  0  0  0  0  0  0
    2.1480    0.2300    1.8410 C   0  0  0  0  0  0  0  0  0  0  0  0
    0.6110   -1.6450    2.1760 C   0  0  1  0  0  0  0  0  0  0  0  0
   -0.7460   -2.2450    2.2970 C   0  0  0  0  0  0  0  0  0  0  0  0
    1.6430   -2.5500    1.6170 C   0  0  0  0  0  0  0  0  0  0  0  0
  2  1  1  1
  2  3  1  0
  2  4  1  0
  4  5  1  0
  5  6  1  0
  6  7  1  0
  7  8  1  0
  8  9  1  1
  8 10  1  0
 10 11  2  0
 12 10  1  6
 12 13  1  0
 12 27  1  0
 13 14  2  0
 13 26  1  0
 14 15  1  0
 15 16  2  0
 16 17  1  0
 16 20  1  0
 17 18  1  6
 17 19  1  0
 20 21  1  0
 20 26  2  0
 21 22  2  0
 21 25  1  0
 22 23  1  0
 23 24  1  0
 24 25  2  0
 27 28  1  6
 27 29  1  0
 29 30  1  6
 29 31  1  0
M  END
