
     RDKit          3D

 21 23  0  0  0  0  0  0  0  0999 V2000
    3.5670   -1.3740    1.8070 C   0  0  0  0  0  0  0  0  0  0  0  0
    3.8210   -0.7420    0.5860 O   0  0  0  0  0  0  0  0  0  0  0  0
    2.7970   -0.0660   -0.0780 C   0  0  0  0  0  0  0  0  0  0  0  0
    3.1120    0.5370   -1.2800 C   0  0  0  0  0  0  0  0  0  0  0  0
    2.1120    1.2140   -1.9570 C   0  0  0  0  0  0  0  0  0  0  0  0
    2.3520    1.8450   -3.1700 O   0  0  0  0  0  0  0  0  0  0  0  0
    0.8330    1.2870   -1.4490 C   0  0  0  0  0  0  0  0  0  0  0  0
    0.5250    0.6810   -0.2480 C   0  0  0  0  0  0  0  0  0  0  0  0
   -0.8100    0.7780    0.2460 N   0  0  0  0  0  0  0  0  0  0  0  0
   -1.1920    1.8810    0.9180 C   0  0  0  0  0  0  0  0  0  0  0  0
   -0.3600    2.7960    1.0890 O   0  0  0  0  0  0  0  0  0  0  0  0
   -2.4920    1.9140    1.3690 C   0  0  0  0  0  0  0  0  0  0  0  0
   -2.9250    3.0380    2.0670 O   0  0  0  0  0  0  0  0  0  0  0  0
   -3.3450    0.9000    1.1550 N   0  0  0  0  0  0  0  0  0  0  0  0
   -2.9580   -0.1960    0.4860 C   0  0  0  0  0  0  0  0  0  0  0  0
   -3.7770   -1.2610    0.2360 C   0  0  0  0  0  0  0  0  0  0  0  0
   -3.3050   -2.3570   -0.4610 C   0  0  0  0  0  0  0  0  0  0  0  0
   -2.0220   -2.4340   -0.9290 C   0  0  0  0  0  0  0  0  0  0  0  0
   -1.1770   -1.3570   -0.6810 C   0  0  0  0  0  0  0  0  0  0  0  0
   -1.6440   -0.2550    0.0170 C   0  0  0  0  0  0  0  0  0  0  0  0
    1.5170    0.0090    0.4260 C   0  0  0  0  0  0  0  0  0  0  0  0
  1  2  1  0
  2  3  1  0
  3  4  2  0
  3 21  1  0
  4  5  1  0
  5  6  1  0
  5  7  2  0
  7  8  1  0
  8  9  1  0
  8 21  2  0
  9 10  1  0
  9 20  1  0
 10 11  2  0
 10 12  1  0
 12 13  1  0
 12 14  2  0
 14 15  1  0
 15 16  2  0
 15 20  1  0
 16 17  1  0
 17 18  2  0
 18 19  1  0
 19 20  2  0
M  END
