
     RDKit          3D

 21 23  0  0  0  0  0  0  0  0999 V2000
   -1.3970    4.1040    0.3430 C   0  0  0  0  0  0  0  0  0  0  0  0
   -0.6220    2.9380    0.2930 O   0  0  0  0  0  0  0  0  0  0  0  0
   -1.2030    1.7150    0.0430 C   0  0  0  0  0  0  0  0  0  0  0  0
   -2.5620    1.6530   -0.1580 C   0  0  0  0  0  0  0  0  0  0  0  0
   -3.1450    0.4250   -0.4090 C   0  0  0  0  0  0  0  0  0  0  0  0
   -2.4070   -0.7360   -0.4640 C   0  0  0  0  0  0  0  0  0  0  0  0
   -3.0140   -2.0610   -0.7310 C   0  0  0  0  0  0  0  0  0  0  0  0
   -4.3720   -1.9980   -0.9150 O   0  0  0  0  0  0  0  0  0  0  0  0
   -1.0480   -0.6600   -0.2610 C   0  0  0  0  0  0  0  0  0  0  0  0
   -0.2430   -1.7370   -0.2950 N   0  0  0  0  0  0  0  0  0  0  0  0
    1.0920   -1.6860   -0.0980 C   0  0  0  0  0  0  0  0  0  0  0  0
    1.8470   -2.8480   -0.1510 C   0  0  0  0  0  0  0  0  0  0  0  0
    3.2090   -2.7770    0.0520 C   0  0  0  0  0  0  0  0  0  0  0  0
    3.7660   -1.5430    0.3000 C   0  0  0  0  0  0  0  0  0  0  0  0
    3.0240   -0.3890    0.3530 C   0  0  0  0  0  0  0  0  0  0  0  0
    3.6670    0.8860    0.6190 C   0  0  0  0  0  0  0  0  0  0  0  0
    2.9720    1.9240    0.6630 O   0  0  0  0  0  0  0  0  0  0  0  0
    5.0580    0.9240    0.8210 O   0  0  0  0  0  0  0  0  0  0  0  0
    1.6590   -0.4550    0.1510 C   0  0  0  0  0  0  0  0  0  0  0  0
    0.9000    0.6560    0.1960 N   0  0  0  0  0  0  0  0  0  0  0  0
   -0.4260    0.5530   -0.0060 C   0  0  0  0  0  0  0  0  0  0  0  0
  1  2  1  0
  2  3  1  0
  3  4  2  0
  3 21  1  0
  4  5  1  0
  5  6  2  0
  6  7  1  0
  6  9  1  0
  7  8  1  0
  9 10  2  0
  9 21  1  0
 10 11  1  0
 11 12  2  0
 11 19  1  0
 12 13  1  0
 13 14  2  0
 14 15  1  0
 15 16  1  0
 15 19  2  0
 16 17  2  0
 16 18  1  0
 19 20  1  0
 20 21  2  0
M  END
