
     RDKit          3D

 21 23  0  0  0  0  0  0  0  0999 V2000
    5.2780    0.2960    1.1240 C   0  0  0  0  0  0  0  0  0  0  0  0
    3.9970    0.5800    1.5990 O   0  0  0  0  0  0  0  0  0  0  0  0
    2.8320    0.3160    0.9110 C   0  0  0  0  0  0  0  0  0  0  0  0
    1.6170    0.6390    1.4780 C   0  0  0  0  0  0  0  0  0  0  0  0
    0.4170    0.4050    0.8510 C   0  0  0  0  0  0  0  0  0  0  0  0
    0.4650   -0.1810   -0.4050 C   0  0  0  0  0  0  0  0  0  0  0  0
    1.6830   -0.5090   -0.9840 C   0  0  0  0  0  0  0  0  0  0  0  0
    2.8790   -0.2610   -0.3250 C   0  0  0  0  0  0  0  0  0  0  0  0
    1.6850   -1.0910   -2.2360 C   0  0  0  0  0  0  0  0  0  0  0  0
    2.7440   -1.4100   -2.8100 O   0  0  0  0  0  0  0  0  0  0  0  0
    0.5030   -1.3140   -2.8390 N   0  0  0  0  0  0  0  0  0  0  0  0
   -0.6520   -0.9910   -2.2640 C   0  0  0  0  0  0  0  0  0  0  0  0
   -1.7610   -1.2050   -2.8400 O   0  0  0  0  0  0  0  0  0  0  0  0
   -0.7090   -0.4190   -1.0400 N   0  0  0  0  0  0  0  0  0  0  0  0
   -1.9420   -0.0720   -0.4220 C   0  0  0  0  0  0  0  0  0  0  0  0
   -2.3630    1.2330   -0.2770 C   0  0  0  0  0  0  0  0  0  0  0  0
   -3.5640    1.5480    0.3270 C   0  0  0  0  0  0  0  0  0  0  0  0
   -4.3770    0.5450    0.8040 C   0  0  0  0  0  0  0  0  0  0  0  0
   -5.5950    0.8550    1.4170 O   0  0  0  0  0  0  0  0  0  0  0  0
   -3.9820   -0.7680    0.6730 C   0  0  0  0  0  0  0  0  0  0  0  0
   -2.7620   -1.0710    0.0590 C   0  0  0  0  0  0  0  0  0  0  0  0
  1  2  1  0
  2  3  1  0
  3  4  2  0
  3  8  1  0
  4  5  1  0
  5  6  2  0
  6  7  1  0
  6 14  1  0
  7  8  2  0
  7  9  1  0
  9 10  2  0
  9 11  1  0
 11 12  1  0
 12 13  2  0
 12 14  1  0
 14 15  1  0
 15 16  2  0
 15 21  1  0
 16 17  1  0
 17 18  2  0
 18 19  1  0
 18 20  1  0
 20 21  2  0
M  END
