
     RDKit          3D

 21 23  0  0  0  0  0  0  0  0999 V2000
   -1.4000   -0.6480   -2.5990 O   0  0  0  0  0  0  0  0  0  0  0  0
   -0.5260   -0.1230   -1.8620 C   0  0  0  0  0  0  0  0  0  0  0  0
    0.8500    0.0520   -2.3840 C   0  0  0  0  0  0  0  0  0  0  0  0
    1.7060    0.6690   -1.3940 N   0  0  0  0  0  0  0  0  0  0  0  0
    1.9180    1.9780   -1.2160 C   0  0  0  0  0  0  0  0  0  0  0  0
    1.3960    2.9020   -1.8960 O   0  0  0  0  0  0  0  0  0  0  0  0
    2.7760    2.1530   -0.1970 N   0  0  0  0  0  0  0  0  0  0  0  0
    3.1330    0.9660    0.3010 C   0  0  0  0  0  0  0  0  0  0  0  0
    3.9670    0.5620    1.3250 C   0  0  0  0  0  0  0  0  0  0  0  0
    4.1230   -0.7910    1.5920 C   0  0  0  0  0  0  0  0  0  0  0  0
    3.4560   -1.7370    0.8470 C   0  0  0  0  0  0  0  0  0  0  0  0
    2.6200   -1.3220   -0.1800 C   0  0  0  0  0  0  0  0  0  0  0  0
    2.4420    0.0270   -0.4730 C   0  0  0  0  0  0  0  0  0  0  0  0
   -0.9270    0.2580   -0.5940 O   0  0  0  0  0  0  0  0  0  0  0  0
   -2.2200    0.0900   -0.1140 C   0  0  0  0  0  0  0  0  0  0  0  0
   -3.1410    1.1030   -0.3080 C   0  0  0  0  0  0  0  0  0  0  0  0
   -4.4420    1.0210    0.1330 C   0  0  0  0  0  0  0  0  0  0  0  0
   -4.8490   -0.1170    0.7960 C   0  0  0  0  0  0  0  0  0  0  0  0
   -3.9480   -1.1370    0.9990 C   0  0  0  0  0  0  0  0  0  0  0  0
   -4.3460   -2.2970    1.6690 O   0  0  0  0  0  0  0  0  0  0  0  0
   -2.6280   -1.0500    0.5490 C   0  0  0  0  0  0  0  0  0  0  0  0
  1  2  2  0
  2  3  1  0
  2 14  1  0
  3  4  1  0
  4  5  1  0
  4 13  1  0
  5  6  2  0
  5  7  1  0
  7  8  1  0
  8  9  2  0
  8 13  1  0
  9 10  1  0
 10 11  2  0
 11 12  1  0
 12 13  2  0
 14 15  1  0
 15 16  2  0
 15 21  1  0
 16 17  1  0
 17 18  2  0
 18 19  1  0
 19 20  1  0
 19 21  2  0
M  END
