
     RDKit          3D

 21 23  0  0  0  0  0  0  0  0999 V2000
    4.1560   -2.5790    0.8880 C   0  0  0  0  0  0  0  0  0  0  0  0
    4.4630   -1.1900    0.7350 O   0  0  0  0  0  0  0  0  0  0  0  0
    3.4450   -0.3450    0.3030 C   0  0  0  0  0  0  0  0  0  0  0  0
    2.1670   -0.8030    0.0220 C   0  0  0  0  0  0  0  0  0  0  0  0
    1.1630    0.0410   -0.4070 C   0  0  0  0  0  0  0  0  0  0  0  0
   -0.1480   -0.4530   -0.6920 N   0  0  0  0  0  0  0  0  0  0  0  0
   -0.4750   -1.5610   -1.3400 N   0  0  0  0  0  0  0  0  0  0  0  0
   -1.8180   -1.6840   -1.4080 C   0  0  0  0  0  0  0  0  0  0  0  0
   -2.3440   -0.6000   -0.7710 C   0  0  0  0  0  0  0  0  0  0  0  0
   -1.2950    0.1660   -0.3260 C   0  0  0  0  0  0  0  0  0  0  0  0
   -1.6340    1.4070    0.3950 C   0  0  0  0  0  0  0  0  0  0  0  0
   -2.8290    1.3590    1.2630 C   0  0  0  0  0  0  0  0  0  0  0  0
   -3.6960    0.1700    1.0320 C   0  0  0  0  0  0  0  0  0  0  0  0
   -3.7070   -0.1170   -0.4760 C   0  0  2  0  0  0  0  0  0  0  0  0
   -4.7540   -1.1140   -0.8120 C   0  0  0  0  0  0  0  0  0  0  0  0
   -5.4790   -1.5120    0.0830 O   0  0  0  0  0  0  0  0  0  0  0  0
    1.4540    1.3800   -0.5550 C   0  0  0  0  0  0  0  0  0  0  0  0
    2.7300    1.8640   -0.2780 C   0  0  0  0  0  0  0  0  0  0  0  0
    2.9590    3.2310   -0.4490 O   0  0  0  0  0  0  0  0  0  0  0  0
    3.7220    0.9960    0.1510 C   0  0  0  0  0  0  0  0  0  0  0  0
    4.9950    1.4750    0.4270 O   0  0  0  0  0  0  0  0  0  0  0  0
  1  2  1  0
  2  3  1  0
  3  4  2  0
  3 20  1  0
  4  5  1  0
  5  6  1  0
  5 17  2  0
  6  7  1  0
  6 10  1  0
  7  8  2  0
  8  9  1  0
  9 10  2  0
  9 14  1  0
 10 11  1  0
 11 12  1  0
 12 13  1  0
 13 14  1  0
 14 15  1  1
 15 16  2  0
 17 18  1  0
 18 19  1  0
 18 20  2  0
 20 21  1  0
M  END
