
     RDKit          3D

 21 23  0  0  0  0  0  0  0  0999 V2000
    5.6920    2.0290    0.5030 C   0  0  0  0  0  0  0  0  0  0  0  0
    5.6760    0.6610    0.2390 O   0  0  0  0  0  0  0  0  0  0  0  0
    4.5090   -0.0830    0.1080 C   0  0  0  0  0  0  0  0  0  0  0  0
    4.5780   -1.4280   -0.1520 C   0  0  0  0  0  0  0  0  0  0  0  0
    3.4000   -2.1660   -0.2810 C   0  0  0  0  0  0  0  0  0  0  0  0
    2.1640   -1.5810   -0.1540 C   0  0  0  0  0  0  0  0  0  0  0  0
    0.8810   -1.9710   -0.2150 N   0  0  0  0  0  0  0  0  0  0  0  0
    0.0490   -0.9390   -0.0070 C   0  0  0  0  0  0  0  0  0  0  0  0
   -1.4020   -0.9180    0.0130 C   0  0  0  0  0  0  0  0  0  0  0  0
   -2.1120    0.2400    0.2440 C   0  0  0  0  0  0  0  0  0  0  0  0
   -3.4910    0.2550    0.2620 C   0  0  0  0  0  0  0  0  0  0  0  0
   -4.2570    1.5060    0.5120 C   0  0  1  0  0  0  0  0  0  0  0  0
   -4.8440    2.0890   -0.7410 C   0  0  0  0  0  0  0  0  0  0  0  0
   -5.2990    1.2520    1.4310 O   0  0  0  0  0  0  0  0  0  0  0  0
   -4.1080   -0.8820    0.0500 O   0  0  0  0  0  0  0  0  0  0  0  0
   -3.4780   -2.0130   -0.1750 C   0  0  0  0  0  0  0  0  0  0  0  0
   -4.1190   -3.0990   -0.3770 O   0  0  0  0  0  0  0  0  0  0  0  0
   -2.1010   -2.0900   -0.2050 C   0  0  0  0  0  0  0  0  0  0  0  0
    0.8140    0.1470    0.1940 N   0  0  0  0  0  0  0  0  0  0  0  0
    2.1010   -0.2260    0.1070 C   0  0  0  0  0  0  0  0  0  0  0  0
    3.2820    0.5020    0.2350 C   0  0  0  0  0  0  0  0  0  0  0  0
  1  2  1  0
  2  3  1  0
  3  4  2  0
  3 21  1  0
  4  5  1  0
  5  6  2  0
  6  7  1  0
  6 20  1  0
  7  8  1  0
  8  9  1  0
  8 19  2  0
  9 10  1  0
  9 18  2  0
 10 11  2  0
 11 12  1  0
 11 15  1  0
 12 13  1  6
 12 14  1  0
 15 16  1  0
 16 17  2  0
 16 18  1  0
 19 20  1  0
 20 21  2  0
M  END
