
     RDKit          3D

 27 29  0  0  0  0  0  0  0  0999 V2000
   -4.2090    4.0810    0.2540 C   0  0  0  0  0  0  0  0  0  0  0  0
   -4.6220    2.3720    0.6440 S   0  0  0  0  0  0  0  0  0  0  0  0
   -3.5000    1.2170   -0.1000 C   0  0  0  0  0  0  0  0  0  0  0  0
   -2.3880    1.7310   -0.9260 C   0  0  0  0  0  0  0  0  0  0  0  0
   -3.6760   -0.0620    0.0610 C   0  0  0  0  0  0  0  0  0  0  0  0
   -4.7760   -0.7130    0.8410 C   0  0  0  0  0  0  0  0  0  0  0  0
   -5.1110   -1.8500   -0.1480 C   0  0  0  0  0  0  0  0  0  0  0  0
   -3.7220   -2.2410   -0.5770 C   0  0  0  0  0  0  0  0  0  0  0  0
   -2.9010   -1.2000   -0.4490 C   0  0  0  0  0  0  0  0  0  0  0  0
   -1.5580   -1.5720   -0.8650 C   0  0  0  0  0  0  0  0  0  0  0  0
   -0.4020   -0.8050   -0.8840 O   0  0  0  0  0  0  0  0  0  0  0  0
    0.4530   -0.8960    0.2040 C   0  0  0  0  0  0  0  0  0  0  0  0
    0.0940   -1.6900    1.1420 O   0  0  0  0  0  0  0  0  0  0  0  0
    1.6990   -0.1900    0.3730 C   0  0  0  0  0  0  0  0  0  0  0  0
    1.8170    1.0200    0.9980 C   0  0  0  0  0  0  0  0  0  0  0  0
    0.5930    1.6350    1.5840 C   0  0  0  0  0  0  0  0  0  0  0  0
    3.0420    1.6780    1.1200 C   0  0  0  0  0  0  0  0  0  0  0  0
    3.1020    2.9910    1.8100 C   0  0  0  0  0  0  0  0  0  0  0  0
    4.1810    1.1090    0.6030 C   0  0  0  0  0  0  0  0  0  0  0  0
    5.5150    1.7560    0.6970 C   0  0  0  0  0  0  0  0  0  0  0  0
    4.0970   -0.1100   -0.0320 C   0  0  0  0  0  0  0  0  0  0  0  0
    5.3480   -0.7280   -0.5940 C   0  0  0  0  0  0  0  0  0  0  0  0
    2.8810   -0.7360   -0.1400 C   0  0  0  0  0  0  0  0  0  0  0  0
    2.7740   -2.0520   -0.8250 C   0  0  0  0  0  0  0  0  0  0  0  0
   -1.5860   -2.8480   -1.2480 C   0  0  0  0  0  0  0  0  0  0  0  0
   -0.4420   -3.6630   -1.7540 C   0  0  0  0  0  0  0  0  0  0  0  0
   -2.9670   -3.3930   -1.0950 C   0  0  0  0  0  0  0  0  0  0  0  0
  1  2  1  0
  2  3  1  0
  3  4  1  0
  3  5  2  3
  5  6  1  0
  5  9  1  0
  6  7  1  0
  7  8  1  0
  8  9  2  0
  8 27  1  0
  9 10  1  0
 10 11  1  0
 10 25  2  0
 11 12  1  0
 12 13  2  0
 12 14  1  0
 14 15  2  0
 14 23  1  0
 15 16  1  0
 15 17  1  0
 17 18  1  0
 17 19  2  0
 19 20  1  0
 19 21  1  0
 21 22  1  0
 21 23  2  0
 23 24  1  0
 25 26  1  0
 25 27  1  0
M  END
