
     RDKit          3D

 21 23  0  0  0  0  0  0  0  0999 V2000
   -3.3570    1.9470    3.0020 O   0  0  0  0  0  0  0  0  0  0  0  0
   -3.5050    1.4810    1.8570 C   0  0  0  0  0  0  0  0  0  0  0  0
   -4.8150    1.4840    1.1630 C   0  0  0  0  0  0  0  0  0  0  0  0
   -4.9000    0.2570    0.4690 O   0  0  0  0  0  0  0  0  0  0  0  0
   -3.8150   -0.3130   -0.2060 C   0  0  0  0  0  0  0  0  0  0  0  0
   -4.0260   -1.2150   -1.2430 C   0  0  0  0  0  0  0  0  0  0  0  0
   -2.9850   -1.7880   -1.9210 C   0  0  0  0  0  0  0  0  0  0  0  0
   -1.6640   -1.4640   -1.5700 C   0  0  0  0  0  0  0  0  0  0  0  0
   -1.4350   -0.5790   -0.5530 C   0  0  0  0  0  0  0  0  0  0  0  0
   -0.1400   -0.2150   -0.1500 N   0  0  0  0  0  0  0  0  0  0  0  0
    1.0460   -0.6950   -0.7490 C   0  0  0  0  0  0  0  0  0  0  0  0
    1.0500   -1.4840   -1.6860 O   0  0  0  0  0  0  0  0  0  0  0  0
    2.3590   -0.2290   -0.2330 C   0  0  0  0  0  0  0  0  0  0  0  0
    3.4040   -0.7600   -0.8670 C   0  0  0  0  0  0  0  0  0  0  0  0
    4.8240   -0.5300   -0.6230 C   0  0  0  0  0  0  0  0  0  0  0  0
    5.3520    0.0610    0.4450 C   0  0  0  0  0  0  0  0  0  0  0  0
    4.5420    0.6010    1.6030 C   0  0  0  0  0  0  0  0  0  0  0  0
    3.5080    1.3810    1.1430 O   0  0  0  0  0  0  0  0  0  0  0  0
    2.3250    0.7450    0.8800 C   0  0  0  0  0  0  0  0  0  0  0  0
   -2.5160   -0.0030    0.1290 C   0  0  0  0  0  0  0  0  0  0  0  0
   -2.3590    0.9230    1.1950 N   0  0  0  0  0  0  0  0  0  0  0  0
  1  2  2  0
  2  3  1  0
  2 21  1  0
  3  4  1  0
  4  5  1  0
  5  6  2  0
  5 20  1  0
  6  7  1  0
  7  8  2  0
  8  9  1  0
  9 10  1  0
  9 20  2  0
 10 11  1  0
 11 12  2  0
 11 13  1  0
 13 14  2  0
 13 19  1  0
 14 15  1  0
 15 16  2  0
 16 17  1  0
 17 18  1  0
 18 19  1  0
 20 21  1  0
M  END
