
     RDKit          3D

 34 37  0  0  0  0  0  0  0  0999 V2000
    9.3300    1.0580    1.7260 C   0  0  0  0  0  0  0  0  0  0  0  0
    7.8470    0.9410    1.7170 C   0  0  0  0  0  0  0  0  0  0  0  0
    7.1590    1.3150    0.5990 N   0  0  0  0  0  0  0  0  0  0  0  0
    5.8220    1.2150    0.5690 C   0  0  0  0  0  0  0  0  0  0  0  0
    5.0450    1.6120   -0.6470 C   0  0  0  0  0  0  0  0  0  0  0  0
    3.7350    1.0200   -0.6420 N   0  0  0  0  0  0  0  0  0  0  0  0
    3.5910   -0.3620   -0.9200 C   0  0  0  0  0  0  0  0  0  0  0  0
    4.5800   -1.0750   -1.1710 O   0  0  0  0  0  0  0  0  0  0  0  0
    2.2730   -0.9340   -0.9110 C   0  0  0  0  0  0  0  0  0  0  0  0
    2.0990   -2.2320   -1.1570 C   0  0  0  0  0  0  0  0  0  0  0  0
    0.7110   -2.7520   -1.1300 C   0  0  0  0  0  0  0  0  0  0  0  0
    0.3260   -4.0500   -1.3530 C   0  0  0  0  0  0  0  0  0  0  0  0
   -1.0690   -4.0980   -1.2370 C   0  0  0  0  0  0  0  0  0  0  0  0
   -1.9300   -5.2550   -1.4190 C   0  0  0  0  0  0  0  0  0  0  0  0
   -2.6130   -6.1610   -1.5810 N   0  0  0  0  0  0  0  0  0  0  0  0
   -1.4280   -2.7950   -0.9420 C   0  0  0  0  0  0  0  0  0  0  0  0
   -3.1150   -2.2490   -0.6770 S   0  0  0  0  0  0  0  0  0  0  0  0
   -3.0470   -0.4730   -0.3270 C   0  0  0  0  0  0  0  0  0  0  0  0
   -4.3420    0.1430   -0.0690 C   0  0  0  0  0  0  0  0  0  0  0  0
   -4.8960    0.1690    1.2100 C   0  0  0  0  0  0  0  0  0  0  0  0
   -6.1090    0.7750    1.4280 C   0  0  0  0  0  0  0  0  0  0  0  0
   -6.7860    1.3570    0.3970 C   0  0  0  0  0  0  0  0  0  0  0  0
   -8.0120    1.9920    0.5530 C   0  0  0  0  0  0  0  0  0  0  0  0
   -8.6470    2.5680   -0.5170 C   0  0  0  0  0  0  0  0  0  0  0  0
   -8.1090    2.5480   -1.8010 C   0  0  0  0  0  0  0  0  0  0  0  0
   -8.9470    3.2830   -3.1310 Cl  0  0  0  0  0  0  0  0  0  0  0  0
   -6.8820    1.9060   -1.9170 C   0  0  0  0  0  0  0  0  0  0  0  0
   -6.2210    1.3230   -0.8710 C   0  0  0  0  0  0  0  0  0  0  0  0
   -5.0380    0.7250   -1.0470 N   0  0  0  0  0  0  0  0  0  0  0  0
   -0.3520   -2.0440   -0.8900 O   0  0  0  0  0  0  0  0  0  0  0  0
    5.1280    0.7390    1.6580 C   0  0  0  0  0  0  0  0  0  0  0  0
    5.8700    0.3770    2.7580 C   0  0  0  0  0  0  0  0  0  0  0  0
    5.2570   -0.0620    3.7650 O   0  0  0  0  0  0  0  0  0  0  0  0
    7.1980    0.4890    2.7530 O   0  0  0  0  0  0  0  0  0  0  0  0
  1  2  1  0
  2  3  2  0
  2 34  1  0
  3  4  1  0
  4  5  1  0
  4 31  2  0
  5  6  1  0
  6  7  1  0
  7  8  2  0
  7  9  1  0
  9 10  2  3
 10 11  1  0
 11 12  2  0
 11 30  1  0
 12 13  1  0
 13 14  1  0
 13 16  2  0
 14 15  3  0
 16 17  1  0
 16 30  1  0
 17 18  1  0
 18 19  1  0
 19 20  2  0
 19 29  1  0
 20 21  1  0
 21 22  2  0
 22 23  1  0
 22 28  1  0
 23 24  2  0
 24 25  1  0
 25 26  1  0
 25 27  2  0
 27 28  1  0
 28 29  2  0
 31 32  1  0
 32 33  2  0
 32 34  1  0
M  END
