
     RDKit          3D

 34 37  0  0  0  0  0  0  0  0999 V2000
   -2.0200   -0.6370    1.0150 O   0  0  0  0  0  0  0  0  0  0  0  0
   -2.7320    0.3620    0.7400 C   0  0  0  0  0  0  0  0  0  0  0  0
   -2.1620    1.5690    1.1690 O   0  0  0  0  0  0  0  0  0  0  0  0
   -0.9410    1.5980    1.8200 C   0  0  0  0  0  0  0  0  0  0  0  0
    0.0890    1.0160    0.9120 C   0  0  0  0  0  0  0  0  0  0  0  0
    0.6170   -0.0350    0.6520 N   0  0  0  0  0  0  0  0  0  0  0  0
    1.5280   -0.1800   -0.2540 N   0  0  0  0  0  0  0  0  0  0  0  0
    1.9690    0.6830   -0.9460 C   0  0  0  0  0  0  0  0  0  0  0  0
    2.9090    0.9540   -1.9960 N   0  0  0  0  0  0  0  0  0  0  0  0
    4.1070    1.3590   -1.7360 C   0  0  0  0  0  0  0  0  0  0  0  0
    4.4810    1.5320   -0.3580 N   0  0  0  0  0  0  0  0  0  0  0  0
    4.1660    2.6360    0.3790 C   0  0  0  0  0  0  0  0  0  0  0  0
    4.6560    2.5130    1.6550 C   0  0  0  0  0  0  0  0  0  0  0  0
    5.2890    1.2900    1.6880 C   0  0  0  0  0  0  0  0  0  0  0  0
    5.1670    0.7030    0.4280 C   0  0  0  0  0  0  0  0  0  0  0  0
    5.7300   -0.6160    0.1030 C   0  0  0  0  0  0  0  0  0  0  0  0
    5.6280   -1.2140   -1.1260 C   0  0  0  0  0  0  0  0  0  0  0  0
    6.1900   -2.4780   -1.3690 C   0  0  0  0  0  0  0  0  0  0  0  0
    6.8580   -3.1580   -0.3870 C   0  0  0  0  0  0  0  0  0  0  0  0
    7.5680   -4.7300   -0.6560 Cl  0  0  0  0  0  0  0  0  0  0  0  0
    6.9690   -2.5780    0.8430 C   0  0  0  0  0  0  0  0  0  0  0  0
    6.4140   -1.3360    1.0690 C   0  0  0  0  0  0  0  0  0  0  0  0
    0.9370    2.1330   -0.2730 S   0  0  0  0  0  0  0  0  0  0  0  0
   -3.9980    0.2580    0.0570 C   0  0  0  0  0  0  0  0  0  0  0  0
   -4.7000    1.3300   -0.2040 C   0  0  0  0  0  0  0  0  0  0  0  0
   -4.3830    2.7060    0.1100 C   0  0  0  0  0  0  0  0  0  0  0  0
   -5.2210    3.6980   -0.2310 C   0  0  0  0  0  0  0  0  0  0  0  0
   -6.3820    3.3470   -0.8870 O   0  0  0  0  0  0  0  0  0  0  0  0
   -4.5430   -1.0310   -0.3460 C   0  0  0  0  0  0  0  0  0  0  0  0
   -3.8980   -2.1940   -0.1400 C   0  0  0  0  0  0  0  0  0  0  0  0
   -4.6300   -3.4170   -0.6320 C   0  0  0  0  0  0  0  0  0  0  0  0
   -5.9080   -3.4860   -0.1420 O   0  0  0  0  0  0  0  0  0  0  0  0
   -6.6040   -2.3120   -0.2180 C   0  0  0  0  0  0  0  0  0  0  0  0
   -5.8630   -1.2350   -1.0040 C   0  0  0  0  0  0  0  0  0  0  0  0
  1  2  2  0
  2  3  1  0
  2 24  1  0
  3  4  1  0
  4  5  1  0
  5  6  2  0
  5 23  1  0
  6  7  1  0
  7  8  2  0
  8  9  1  0
  8 23  1  0
  9 10  2  3
 10 11  1  0
 11 12  1  0
 11 15  1  0
 12 13  2  0
 13 14  1  0
 14 15  2  0
 15 16  1  0
 16 17  2  0
 16 22  1  0
 17 18  1  0
 18 19  2  0
 19 20  1  0
 19 21  1  0
 21 22  2  0
 24 25  2  3
 24 29  1  0
 25 26  1  0
 26 27  2  3
 27 28  1  0
 29 30  2  0
 29 34  1  0
 30 31  1  0
 31 32  1  0
 32 33  1  0
 33 34  1  0
M  END
