
     RDKit          3D

 34 37  0  0  0  0  0  0  0  0999 V2000
    6.9070   -1.6620    0.1270 C   0  0  0  0  0  0  0  0  0  0  0  0
    5.5710   -1.3920    0.7410 C   0  0  0  0  0  0  0  0  0  0  0  0
    5.4880    0.0840    1.1320 C   0  0  2  0  0  0  0  0  0  0  0  0
    4.1600    0.3540    1.7430 C   0  0  0  0  0  0  0  0  0  0  0  0
    4.0310    0.7600    2.9380 O   0  0  0  0  0  0  0  0  0  0  0  0
    3.0090    0.1430    0.9410 N   0  0  0  0  0  0  0  0  0  0  0  0
    1.6840    0.3830    1.4620 C   0  0  0  0  0  0  0  0  0  0  0  0
    0.6460    0.0900    0.3880 C   0  0  0  0  0  0  0  0  0  0  0  0
   -0.2540    0.5150   -0.1070 N   0  0  0  0  0  0  0  0  0  0  0  0
   -1.0240    0.0350   -1.0790 C   0  0  0  0  0  0  0  0  0  0  0  0
   -2.2280    0.7390   -1.6530 C   0  0  0  0  0  0  0  0  0  0  0  0
   -3.4180    0.0650   -1.0880 C   0  0  0  0  0  0  0  0  0  0  0  0
   -3.3370   -0.9190   -0.2820 O   0  0  0  0  0  0  0  0  0  0  0  0
   -4.6750    0.5300   -1.4590 O   0  0  0  0  0  0  0  0  0  0  0  0
   -5.7750   -0.1050   -0.9270 C   0  0  0  0  0  0  0  0  0  0  0  0
   -6.3380   -1.1590   -1.5830 C   0  0  0  0  0  0  0  0  0  0  0  0
   -5.7220   -1.7730   -3.1160 Cl  0  0  0  0  0  0  0  0  0  0  0  0
   -7.4530   -1.8190   -1.0640 C   0  0  0  0  0  0  0  0  0  0  0  0
   -7.9740   -1.3830    0.1250 C   0  0  0  0  0  0  0  0  0  0  0  0
   -7.3980   -0.2990    0.8050 C   0  0  0  0  0  0  0  0  0  0  0  0
   -6.3030    0.3280    0.2670 C   0  0  0  0  0  0  0  0  0  0  0  0
   -5.9140    1.4190    1.1860 C   0  0  0  0  0  0  0  0  0  0  0  0
   -6.7370    1.4370    2.2110 C   0  0  0  0  0  0  0  0  0  0  0  0
   -7.7420    0.3710    2.0760 C   0  0  0  0  0  0  0  0  0  0  0  0
   -0.6310   -1.1800   -1.5300 C   0  0  0  0  0  0  0  0  0  0  0  0
   -1.1530   -2.1040   -2.5790 C   0  0  0  0  0  0  0  0  0  0  0  0
    0.8590   -1.5620   -0.5010 S   0  0  0  0  0  0  0  0  0  0  0  0
    5.7340    0.9330   -0.0020 N   0  0  0  0  0  0  0  0  0  0  0  0
    5.5530    0.5310   -1.2750 C   0  0  0  0  0  0  0  0  0  0  0  0
    5.7790    1.3090   -2.3410 N   0  0  0  0  0  0  0  0  0  0  0  0
    6.2160    2.5850   -2.1650 C   0  0  0  0  0  0  0  0  0  0  0  0
    6.4140    3.0340   -0.8830 C   0  0  0  0  0  0  0  0  0  0  0  0
    6.1720    2.2060    0.1890 C   0  0  0  0  0  0  0  0  0  0  0  0
    6.3540    2.6220    1.3510 O   0  0  0  0  0  0  0  0  0  0  0  0
  1  2  1  0
  3  2  1  6
  3  4  1  0
  3 28  1  0
  4  5  2  0
  4  6  1  0
  6  7  1  0
  7  8  1  0
  8  9  2  0
  8 27  1  0
  9 10  1  0
 10 11  1  0
 10 25  2  0
 11 12  1  0
 12 13  2  0
 12 14  1  0
 14 15  1  0
 15 16  2  0
 15 21  1  0
 16 17  1  0
 16 18  1  0
 18 19  2  0
 19 20  1  0
 20 21  2  0
 20 24  1  0
 21 22  1  0
 22 23  2  0
 23 24  1  0
 25 26  1  0
 25 27  1  0
 28 29  1  0
 28 33  1  0
 29 30  2  0
 30 31  1  0
 31 32  2  0
 32 33  1  0
 33 34  2  0
M  END
