
     RDKit          3D

 34 37  0  0  0  0  0  0  0  0999 V2000
   -8.5180    1.7140   -2.3090 C   0  0  0  0  0  0  0  0  0  0  0  0
   -7.3190    1.5530   -1.7610 C   0  0  0  0  0  0  0  0  0  0  0  0
   -6.3930    0.4620   -2.1760 C   0  0  0  0  0  0  0  0  0  0  0  0
   -6.0740   -0.4310   -1.0210 C   0  0  0  0  0  0  0  0  0  0  0  0
   -6.8460   -1.5200   -0.7490 C   0  0  0  0  0  0  0  0  0  0  0  0
   -6.5980   -2.3730    0.2990 C   0  0  0  0  0  0  0  0  0  0  0  0
   -5.5140   -2.1070    1.1070 C   0  0  0  0  0  0  0  0  0  0  0  0
   -5.2910   -2.9760    2.1480 C   0  0  0  0  0  0  0  0  0  0  0  0
   -6.3290   -4.3630    2.4420 Cl  0  0  0  0  0  0  0  0  0  0  0  0
   -4.2120   -2.7170    2.9620 C   0  0  0  0  0  0  0  0  0  0  0  0
   -3.4040   -1.6290    2.7260 C   0  0  0  0  0  0  0  0  0  0  0  0
   -3.6270   -0.7360    1.6630 C   0  0  0  0  0  0  0  0  0  0  0  0
   -2.7100    0.3710    1.5030 C   0  0  0  0  0  0  0  0  0  0  0  0
   -1.7490    0.5250    2.3580 O   0  0  0  0  0  0  0  0  0  0  0  0
   -2.6910    1.3420    0.5360 O   0  0  0  0  0  0  0  0  0  0  0  0
   -1.7760    2.3820    0.4390 C   0  0  0  0  0  0  0  0  0  0  0  0
   -0.3800    1.9770    0.2860 C   0  0  0  0  0  0  0  0  0  0  0  0
    0.6620    2.8260    0.2820 N   0  0  0  0  0  0  0  0  0  0  0  0
    1.7550    2.1210    0.1220 N   0  0  0  0  0  0  0  0  0  0  0  0
    1.4370    0.8260    0.0210 C   0  0  0  0  0  0  0  0  0  0  0  0
    2.6230   -0.4950   -0.2070 S   0  0  0  0  0  0  0  0  0  0  0  0
    4.3050    0.1870   -0.2800 C   0  0  1  0  0  0  0  0  0  0  0  0
    4.6970    0.7890    1.0540 C   0  0  0  0  0  0  0  0  0  0  0  0
    5.2910   -0.8430   -0.6500 C   0  0  0  0  0  0  0  0  0  0  0  0
    4.9740   -2.0530   -0.7280 O   0  0  0  0  0  0  0  0  0  0  0  0
    6.6230   -0.4690   -0.9230 N   0  0  0  0  0  0  0  0  0  0  0  0
    7.6390   -1.4780   -1.2770 C   0  0  0  0  0  0  0  0  0  0  0  0
    8.9460   -0.7830   -1.4760 C   0  0  0  0  0  0  0  0  0  0  0  0
    9.3190    0.0730   -0.4720 O   0  0  0  0  0  0  0  0  0  0  0  0
    8.3300    0.8830    0.0280 C   0  0  0  0  0  0  0  0  0  0  0  0
    7.1150    0.8920   -0.8990 C   0  0  0  0  0  0  0  0  0  0  0  0
    0.1070    0.7440    0.1240 N   0  0  0  0  0  0  0  0  0  0  0  0
   -4.7000   -0.9930    0.8530 C   0  0  0  0  0  0  0  0  0  0  0  0
   -4.9780   -0.1580   -0.2060 C   0  0  0  0  0  0  0  0  0  0  0  0
  1  2  2  0
  2  3  1  0
  3  4  1  0
  4  5  2  0
  4 34  1  0
  5  6  1  0
  6  7  2  0
  7  8  1  0
  7 33  1  0
  8  9  1  0
  8 10  2  0
 10 11  1  0
 11 12  2  0
 12 13  1  0
 12 33  1  0
 13 14  2  0
 13 15  1  0
 15 16  1  0
 16 17  1  0
 17 18  2  0
 17 32  1  0
 18 19  1  0
 19 20  2  0
 20 21  1  0
 20 32  1  0
 21 22  1  0
 22 23  1  1
 22 24  1  0
 24 25  2  0
 24 26  1  0
 26 27  1  0
 26 31  1  0
 27 28  1  0
 28 29  1  0
 29 30  1  0
 30 31  1  0
 33 34  2  0
M  END
