
     RDKit          3D

 35 37  0  0  0  0  0  0  0  0999 V2000
    2.7650    1.2390   -2.6730 C   0  0  0  0  0  0  0  0  0  0  0  0
    3.2950   -0.0590   -2.0510 C   0  0  1  0  0  0  0  0  0  0  0  0
    4.5450    0.1790   -1.2860 C   0  0  0  0  0  0  0  0  0  0  0  0
    2.2120   -0.8300   -1.3990 C   0  0  0  0  0  0  0  0  0  0  0  0
    1.5060   -0.1900   -0.3270 N   0  0  0  0  0  0  0  0  0  0  0  0
    0.1800    0.0900   -0.7290 C   0  0  0  0  0  0  0  0  0  0  0  0
   -0.4060    1.3610   -0.1780 C   0  0  1  0  0  0  0  0  0  0  0  0
    0.3410    2.4730   -0.5630 O   0  0  0  0  0  0  0  0  0  0  0  0
   -1.8180    1.5830   -0.7220 C   0  0  2  0  0  0  0  0  0  0  0  0
   -2.4050    2.9020   -0.3130 C   0  0  0  0  0  0  0  0  0  0  0  0
   -2.5660    3.1510    1.1010 C   0  0  0  0  0  0  0  0  0  0  0  0
   -1.5650    3.7820    1.8030 C   0  0  0  0  0  0  0  0  0  0  0  0
   -1.6480    4.0490    3.1600 C   0  0  0  0  0  0  0  0  0  0  0  0
   -2.7640    3.6780    3.8600 C   0  0  0  0  0  0  0  0  0  0  0  0
   -3.7930    3.0340    3.1640 C   0  0  0  0  0  0  0  0  0  0  0  0
   -3.6810    2.7860    1.8240 C   0  0  0  0  0  0  0  0  0  0  0  0
   -2.6780    0.4760   -0.3980 N   0  0  0  0  0  0  0  0  0  0  0  0
   -3.2240   -0.3560   -1.4010 C   0  0  0  0  0  0  0  0  0  0  0  0
   -2.9500   -0.1210   -2.5910 O   0  0  0  0  0  0  0  0  0  0  0  0
   -4.0510   -1.4260   -1.1420 O   0  0  0  0  0  0  0  0  0  0  0  0
   -4.6150   -2.2770   -2.0820 C   0  0  1  0  0  0  0  0  0  0  0  0
   -4.1650   -3.6890   -1.8190 C   0  0  0  0  0  0  0  0  0  0  0  0
   -5.4820   -4.3810   -1.4960 C   0  0  0  0  0  0  0  0  0  0  0  0
   -6.3230   -3.3490   -1.0820 O   0  0  0  0  0  0  0  0  0  0  0  0
   -6.1010   -2.3890   -2.0410 C   0  0  0  0  0  0  0  0  0  0  0  0
    1.7010   -1.0700    1.0900 S   0  0  2  0  0  0  0  0  0  0  0  0
    1.2430   -2.5100    0.8760 O   0  0  0  0  0  0  0  0  0  0  0  0
    0.9730   -0.4830    2.2760 O   0  0  0  0  0  0  0  0  0  0  0  0
    3.3670   -1.1570    1.5620 C   0  0  0  0  0  0  0  0  0  0  0  0
    4.2080   -2.1910    1.2180 C   0  0  0  0  0  0  0  0  0  0  0  0
    5.5250   -2.2010    1.6390 C   0  0  0  0  0  0  0  0  0  0  0  0
    6.0490   -1.1880    2.4130 C   0  0  0  0  0  0  0  0  0  0  0  0
    7.3950   -1.1630    2.8640 N   0  0  0  0  0  0  0  0  0  0  0  0
    5.2280   -0.1520    2.7640 C   0  0  0  0  0  0  0  0  0  0  0  0
    3.9130   -0.1400    2.3450 C   0  0  0  0  0  0  0  0  0  0  0  0
  2  1  1  1
  2  3  1  0
  2  4  1  0
  4  5  1  0
  5  6  1  0
 26  5  1  6
  6  7  1  0
  7  8  1  6
  7  9  1  0
  9 10  1  1
  9 17  1  0
 10 11  1  0
 11 12  2  0
 11 16  1  0
 12 13  1  0
 13 14  2  0
 14 15  1  0
 15 16  2  0
 17 18  1  0
 18 19  2  0
 18 20  1  0
 21 20  1  1
 21 22  1  0
 21 25  1  0
 22 23  1  0
 23 24  1  0
 24 25  1  0
 26 27  2  0
 26 28  2  0
 26 29  1  0
 29 30  2  0
 29 35  1  0
 30 31  1  0
 31 32  2  0
 32 33  1  0
 32 34  1  0
 34 35  2  0
M  END
