
     RDKit          3D

 33 36  0  0  0  0  0  0  0  0999 V2000
    4.1160   -2.9320   -2.4030 C   0  0  0  0  0  0  0  0  0  0  0  0
    4.1510   -2.6320   -1.1160 C   0  0  0  0  0  0  0  0  0  0  0  0
    4.0180   -1.4850   -0.3510 C   0  0  0  0  0  0  0  0  0  0  0  0
    4.1990   -1.6670    1.0170 C   0  0  0  0  0  0  0  0  0  0  0  0
    4.1250   -0.6690    2.0280 C   0  0  0  0  0  0  0  0  0  0  0  0
    4.3120    0.6710    1.9290 C   0  0  0  0  0  0  0  0  0  0  0  0
    4.6420    1.4010    0.7120 C   0  0  0  0  0  0  0  0  0  0  0  0
    4.3910    1.0450   -0.5900 C   0  0  0  0  0  0  0  0  0  0  0  0
    3.6950   -0.2280   -0.9510 C   0  0  0  0  0  0  0  0  0  0  0  0
    2.6020   -0.1200   -1.6560 C   0  0  0  0  0  0  0  0  0  0  0  0
    1.6170   -1.0880   -1.9040 N   0  0  0  0  0  0  0  0  0  0  0  0
    0.2630   -0.6230   -1.5520 C   0  0  0  0  0  0  0  0  0  0  0  0
   -0.8180   -1.3690   -1.6090 N   0  0  0  0  0  0  0  0  0  0  0  0
   -2.0510   -0.8380   -1.3100 C   0  0  0  0  0  0  0  0  0  0  0  0
   -3.3950   -1.9910   -1.3740 S   0  0  0  0  0  0  0  0  0  0  0  0
   -3.5630   -2.7330    0.2380 C   0  0  1  0  0  0  0  0  0  0  0  0
   -2.3110   -3.5150    0.6760 C   0  0  0  0  0  0  0  0  0  0  0  0
   -2.7060   -3.7870    2.1300 C   0  0  0  0  0  0  0  0  0  0  0  0
   -3.6860   -2.7900    2.5030 N   0  0  0  0  0  0  0  0  0  0  0  0
   -3.6480   -1.7710    1.4030 C   0  0  0  0  0  0  0  0  0  0  0  0
   -2.1820    0.4360   -0.9670 N   0  0  0  0  0  0  0  0  0  0  0  0
   -1.0820    1.2250   -0.9070 C   0  0  0  0  0  0  0  0  0  0  0  0
   -1.1850    2.6670   -0.6070 C   0  0  0  0  0  0  0  0  0  0  0  0
   -2.3740    3.2890   -0.4360 C   0  0  0  0  0  0  0  0  0  0  0  0
   -2.4730    4.6320   -0.2180 C   0  0  0  0  0  0  0  0  0  0  0  0
   -3.7850    5.3210   -0.0560 C   0  0  1  0  0  0  0  0  0  0  0  0
   -4.0670    5.8450   -1.3200 F   0  0  0  0  0  0  0  0  0  0  0  0
   -4.7350    4.4410    0.3550 F   0  0  0  0  0  0  0  0  0  0  0  0
   -3.5940    6.4120    0.7720 F   0  0  0  0  0  0  0  0  0  0  0  0
   -1.2900    5.3830   -0.1710 C   0  0  0  0  0  0  0  0  0  0  0  0
   -0.0780    4.7520   -0.3470 C   0  0  0  0  0  0  0  0  0  0  0  0
   -0.0550    3.4260   -0.5570 N   0  0  0  0  0  0  0  0  0  0  0  0
    0.1100    0.6820   -1.1980 N   0  0  0  0  0  0  0  0  0  0  0  0
  1  2  2  0
  2  3  1  0
  3  4  2  0
  3  9  1  0
  4  5  1  0
  5  6  2  0
  6  7  1  0
  7  8  2  0
  8  9  1  0
  9 10  2  3
 10 11  1  0
 11 12  1  0
 12 13  2  0
 12 33  1  0
 13 14  1  0
 14 15  1  0
 14 21  2  0
 16 15  1  6
 16 17  1  0
 16 20  1  0
 17 18  1  0
 18 19  1  0
 19 20  1  0
 21 22  1  0
 22 23  1  0
 22 33  2  0
 23 24  2  0
 23 32  1  0
 24 25  1  0
 25 26  1  0
 25 30  2  0
 26 27  1  6
 26 28  1  0
 26 29  1  0
 30 31  1  0
 31 32  2  0
M  CHG  1  19   1
M  END
