
     RDKit          3D

 33 37  0  0  0  0  0  0  0  0999 V2000
    8.9110    0.3450   -3.0810 F   0  0  0  0  0  0  0  0  0  0  0  0
    7.7350    0.3100   -2.3450 C   0  0  0  0  0  0  0  0  0  0  0  0
    8.0390    0.2550   -0.8710 C   0  0  0  0  0  0  0  0  0  0  0  0
    7.0290    0.1100   -0.0490 C   0  0  0  0  0  0  0  0  0  0  0  0
    5.7280    0.0180   -0.5890 C   0  0  0  0  0  0  0  0  0  0  0  0
    4.6640   -0.1480    0.2520 C   0  0  0  0  0  0  0  0  0  0  0  0
    3.3570   -0.2440   -0.2250 C   0  0  0  0  0  0  0  0  0  0  0  0
    2.3110   -0.4090    0.6550 C   0  0  0  0  0  0  0  0  0  0  0  0
    0.9260   -0.5050    0.1650 C   0  0  0  0  0  0  0  0  0  0  0  0
    0.5060   -0.4390   -1.1060 N   0  0  0  0  0  0  0  0  0  0  0  0
   -0.8370   -0.5670   -1.1210 N   0  0  0  0  0  0  0  0  0  0  0  0
   -1.2780   -0.7120    0.1080 C   0  0  0  0  0  0  0  0  0  0  0  0
   -2.6760   -0.8910    0.5730 C   0  0  0  0  0  0  0  0  0  0  0  0
   -3.6330   -1.0010   -0.4590 N   0  0  0  0  0  0  0  0  0  0  0  0
   -4.6910   -0.0210   -0.4080 C   0  0  1  0  0  0  0  0  0  0  0  0
   -5.9340   -0.5890    0.2380 C   0  0  0  0  0  0  0  0  0  0  0  0
   -7.0380   -0.3320    0.4280 N   0  0  0  0  0  0  0  0  0  0  0  0
   -7.9630   -1.0350    1.0490 C   0  0  0  0  0  0  0  0  0  0  0  0
   -7.6050   -2.2170    1.5370 C   0  0  0  0  0  0  0  0  0  0  0  0
   -5.8270   -2.2800    1.0550 S   0  0  0  0  0  0  0  0  0  0  0  0
   -4.3680    1.2400    0.3010 C   0  0  0  0  0  0  0  0  0  0  0  0
   -5.1300    2.3220   -0.4760 C   0  0  0  0  0  0  0  0  0  0  0  0
   -5.1770    1.8210   -1.9000 C   0  0  0  0  0  0  0  0  0  0  0  0
   -5.0560    0.3310   -1.8410 C   0  0  0  0  0  0  0  0  0  0  0  0
   -0.1690   -0.6730    0.9080 N   0  0  0  0  0  0  0  0  0  0  0  0
    2.5820   -0.4770    2.0030 C   0  0  0  0  0  0  0  0  0  0  0  0
    3.8710   -0.3840    2.5030 C   0  0  0  0  0  0  0  0  0  0  0  0
    4.9240   -0.2170    1.6110 C   0  0  0  0  0  0  0  0  0  0  0  0
    6.1560   -0.1280    2.1030 N   0  0  0  0  0  0  0  0  0  0  0  0
    7.2460    0.0390    1.2930 C   0  0  0  0  0  0  0  0  0  0  0  0
    8.3830    0.1190    1.9330 C   0  0  0  0  0  0  0  0  0  0  0  0
    8.4220    0.0250    3.2930 F   0  0  0  0  0  0  0  0  0  0  0  0
    9.5590    0.3000    1.3360 F   0  0  0  0  0  0  0  0  0  0  0  0
  1  2  1  0
  2  3  1  0
  3  4  2  3
  4  5  1  0
  4 30  1  0
  5  6  2  0
  6  7  1  0
  6 28  1  0
  7  8  2  0
  8  9  1  0
  8 26  1  0
  9 10  2  0
  9 25  1  0
 10 11  1  0
 11 12  1  0
 12 13  1  0
 12 25  2  0
 13 14  1  0
 15 14  1  6
 15 16  1  0
 15 21  1  0
 15 24  1  0
 16 17  2  0
 16 20  1  0
 17 18  1  0
 18 19  2  0
 19 20  1  0
 21 22  1  0
 22 23  1  0
 23 24  1  0
 26 27  2  0
 27 28  1  0
 28 29  2  0
 29 30  1  0
 30 31  2  3
 31 32  1  0
 31 33  1  0
M  CHG  1  14   1
M  END
