
     RDKit          3D

 33 37  0  0  0  0  0  0  0  0999 V2000
    8.8410    2.2670    0.4830 C   0  0  0  0  0  0  0  0  0  0  0  0
    8.1990    1.0900    0.3770 C   0  0  0  0  0  0  0  0  0  0  0  0
    6.7590    1.0080    0.3090 C   0  0  0  0  0  0  0  0  0  0  0  0
    5.8590    1.9940    0.4710 N   0  0  0  0  0  0  0  0  0  0  0  0
    4.5990    1.5710    0.3610 C   0  0  0  0  0  0  0  0  0  0  0  0
    4.6140    0.2180    0.1220 C   0  0  0  0  0  0  0  0  0  0  0  0
    3.5420   -0.6590   -0.0540 C   0  0  0  0  0  0  0  0  0  0  0  0
    2.2200   -0.1040   -0.1990 C   0  0  0  0  0  0  0  0  0  0  0  0
    0.9420   -0.5440   -0.1710 N   0  0  1  0  0  0  0  0  0  0  0  0
    0.1680    0.3040   -1.1420 C   0  0  0  0  0  0  0  0  0  0  0  0
   -0.6700   -0.5490   -2.0180 C   0  0  0  0  0  0  0  0  0  0  0  0
   -1.7320   -1.1410   -1.2750 N   0  0  0  0  0  0  0  0  0  0  0  0
   -2.4490   -0.1960   -0.4480 C   0  0  0  0  0  0  0  0  0  0  0  0
   -3.8770   -0.1780   -0.3970 C   0  0  0  0  0  0  0  0  0  0  0  0
   -5.1270    0.4300   -1.5520 S   0  0  0  0  0  0  0  0  0  0  0  0
   -6.4700    0.5950   -0.3510 C   0  0  0  0  0  0  0  0  0  0  0  0
   -7.7880    1.0800   -0.5000 N   0  0  0  0  0  0  0  0  0  0  0  0
   -8.6130    1.1460    0.6810 C   0  0  1  0  0  0  0  0  0  0  0  0
   -9.9440    1.8060    0.6090 C   0  0  0  0  0  0  0  0  0  0  0  0
   -9.7920    0.3400    0.9690 C   0  0  0  0  0  0  0  0  0  0  0  0
   -5.8490    0.1820    0.7190 N   0  0  0  0  0  0  0  0  0  0  0  0
   -4.6690   -0.1890    0.7830 C   0  0  0  0  0  0  0  0  0  0  0  0
   -4.0220   -0.8980    1.9790 C   0  0  0  0  0  0  0  0  0  0  0  0
   -0.9970   -1.9560   -0.2240 C   0  0  0  0  0  0  0  0  0  0  0  0
    0.4820   -1.8630   -0.3060 C   0  0  0  0  0  0  0  0  0  0  0  0
    3.8850   -1.9690   -0.2580 C   0  0  0  0  0  0  0  0  0  0  0  0
    5.2410   -2.3090   -0.2790 C   0  0  0  0  0  0  0  0  0  0  0  0
    6.2250   -1.4110   -0.1130 N   0  0  0  0  0  0  0  0  0  0  0  0
    5.9480   -0.1140    0.0920 C   0  0  0  0  0  0  0  0  0  0  0  0
    9.0400   -0.1420    0.4190 C   0  0  1  0  0  0  0  0  0  0  0  0
    8.7740   -0.9550   -0.6360 F   0  0  0  0  0  0  0  0  0  0  0  0
   10.3870    0.2590    0.2930 F   0  0  0  0  0  0  0  0  0  0  0  0
    8.9580   -0.7350    1.6450 F   0  0  0  0  0  0  0  0  0  0  0  0
  1  2  2  0
  2  3  1  0
  2 30  1  0
  3  4  1  0
  3 29  2  0
  4  5  1  0
  5  6  2  0
  6  7  1  0
  6 29  1  0
  7  8  1  0
  7 26  2  0
  9  8  1  6
  9 10  1  0
  9 25  1  0
 10 11  1  0
 11 12  1  0
 12 13  1  0
 12 24  1  0
 13 14  1  0
 14 15  1  0
 14 22  2  0
 15 16  1  0
 16 17  1  0
 16 21  2  0
 18 17  1  6
 18 19  1  0
 18 20  1  0
 19 20  1  0
 21 22  1  0
 22 23  1  0
 24 25  1  0
 26 27  1  0
 27 28  2  0
 28 29  1  0
 30 31  1  6
 30 32  1  0
 30 33  1  0
M  CHG  1   9   1
M  END
