
     RDKit          3D

 32 36  0  0  0  0  0  0  0  0999 V2000
    7.7270   -0.5190   -0.7350 C   0  0  0  0  0  0  0  0  0  0  0  0
    6.3220   -0.1800   -0.3020 C   0  0  0  0  0  0  0  0  0  0  0  0
    6.0840    0.2740    0.9660 C   0  0  0  0  0  0  0  0  0  0  0  0
    4.8100    0.5830    1.3590 C   0  0  0  0  0  0  0  0  0  0  0  0
    4.5170    1.0380    2.6070 F   0  0  0  0  0  0  0  0  0  0  0  0
    3.7610    0.4290    0.4540 C   0  0  0  0  0  0  0  0  0  0  0  0
    3.9450   -0.0170   -0.8110 C   0  0  0  0  0  0  0  0  0  0  0  0
    5.2700   -0.3230   -1.1770 C   0  0  0  0  0  0  0  0  0  0  0  0
    2.8980   -0.1930   -1.7170 N   0  0  0  0  0  0  0  0  0  0  0  0
    1.6040    0.1940   -1.3550 C   0  0  0  0  0  0  0  0  0  0  0  0
    1.3970    0.6700    0.0100 C   0  0  0  0  0  0  0  0  0  0  0  0
    0.0270    1.0470    0.4920 C   0  0  0  0  0  0  0  0  0  0  0  0
   -0.8840   -0.0580    0.4080 N   0  0  0  0  0  0  0  0  0  0  0  0
   -0.7790   -1.2360    1.2420 C   0  0  0  0  0  0  0  0  0  0  0  0
   -1.8480   -2.2070    0.8980 C   0  0  0  0  0  0  0  0  0  0  0  0
   -3.1130   -2.0660    1.4230 C   0  0  0  0  0  0  0  0  0  0  0  0
   -4.1340   -2.9470    1.1280 C   0  0  0  0  0  0  0  0  0  0  0  0
   -3.8990   -4.0120    0.2810 C   0  0  0  0  0  0  0  0  0  0  0  0
   -4.9150   -4.8560    0.0130 F   0  0  0  0  0  0  0  0  0  0  0  0
   -2.6270   -4.1680   -0.2560 C   0  0  0  0  0  0  0  0  0  0  0  0
   -1.6140   -3.2700    0.0530 C   0  0  0  0  0  0  0  0  0  0  0  0
   -1.9280   -0.0130   -0.5160 N   0  0  0  0  0  0  0  0  0  0  0  0
   -2.7900    0.9030   -0.5390 C   0  0  0  0  0  0  0  0  0  0  0  0
   -3.8300    1.1660   -1.2770 N   0  0  0  0  0  0  0  0  0  0  0  0
   -4.5860    2.2090   -1.0960 C   0  0  0  0  0  0  0  0  0  0  0  0
   -5.7180    2.5390   -1.8610 N   0  0  0  0  0  0  0  0  0  0  0  0
   -6.4050    3.6450   -1.5640 C   0  0  0  0  0  0  0  0  0  0  0  0
   -6.0860    4.5070   -0.5430 C   0  0  0  0  0  0  0  0  0  0  0  0
   -5.0040    4.2040    0.2010 N   0  0  0  0  0  0  0  0  0  0  0  0
   -4.3370    3.1170   -0.1000 C   0  0  0  0  0  0  0  0  0  0  0  0
   -2.8420    2.3450    0.6290 S   0  0  0  0  0  0  0  0  0  0  0  0
    2.3840    0.7840    0.8550 C   0  0  0  0  0  0  0  0  0  0  0  0
  1  2  1  0
  2  3  2  0
  2  8  1  0
  3  4  1  0
  4  5  1  0
  4  6  2  0
  6  7  1  0
  6 32  1  0
  7  8  2  0
  7  9  1  0
  9 10  1  0
 10 11  1  0
 11 12  1  0
 11 32  2  0
 12 13  1  0
 13 14  1  0
 13 22  1  0
 14 15  1  0
 15 16  2  0
 15 21  1  0
 16 17  1  0
 17 18  2  0
 18 19  1  0
 18 20  1  0
 20 21  2  0
 22 23  2  3
 23 24  1  0
 23 31  1  0
 24 25  1  0
 25 26  2  0
 25 30  1  0
 26 27  1  0
 27 28  2  0
 28 29  1  0
 29 30  2  0
 30 31  1  0
M  CHG  1   9   1
M  END
