
     RDKit          3D

  9  8  0  0  0  0  0  0  0  0999 V2000
   -3.0670    0.0760    0.4130 C   0  0  0  0  0  0  0  0  0  0  0  0
   -2.3080    0.4080   -0.6670 O   0  0  0  0  0  0  0  0  0  0  0  0
   -1.0720    0.9230   -0.4680 C   0  0  0  0  0  0  0  0  0  0  0  0
   -0.1380    0.0270    0.2740 C   0  0  2  0  0  0  0  0  0  0  0  0
   -0.5940   -0.2530    1.5520 O   0  0  0  0  0  0  0  0  0  0  0  0
    1.1750    0.7730    0.4100 C   0  0  0  0  0  0  0  0  0  0  0  0
    2.0990    0.0210    1.0860 O   0  0  0  0  0  0  0  0  0  0  0  0
    2.4120   -1.1760    0.4910 C   0  0  0  0  0  0  0  0  0  0  0  0
    2.9370   -0.9400   -0.7920 O   0  0  0  0  0  0  0  0  0  0  0  0
  1  2  1  0
  2  3  1  0
  3  4  1  0
  4  5  1  1
  4  6  1  0
  6  7  1  0
  7  8  1  0
  8  9  1  0
M  END
