
     RDKit          3D

  9  8  0  0  0  0  0  0  0  0999 V2000
    2.7790   -0.4270   -0.6830 C   0  0  0  0  0  0  0  0  0  0  0  0
    1.4250   -0.6790   -0.6250 O   0  0  0  0  0  0  0  0  0  0  0  0
    0.7080    0.4580   -0.2750 C   0  0  0  0  0  0  0  0  0  0  0  0
   -0.7580    0.1730   -0.2150 C   0  0  2  0  0  0  0  0  0  0  0  0
   -1.5520    1.3970    0.1640 C   0  0  0  0  0  0  0  0  0  0  0  0
   -1.1620    1.8730    1.4210 O   0  0  0  0  0  0  0  0  0  0  0  0
   -1.0120   -0.9930    0.6730 C   0  0  2  0  0  0  0  0  0  0  0  0
   -0.3260   -2.0950    0.1360 O   0  0  0  0  0  0  0  0  0  0  0  0
   -2.3480   -1.3230    0.8070 O   0  0  0  0  0  0  0  0  0  0  0  0
  1  2  1  0
  2  3  1  0
  4  3  1  1
  4  5  1  0
  4  7  1  0
  5  6  1  0
  7  8  1  6
  7  9  1  0
M  END
