
     RDKit          3D

 27 28  0  0  0  0  0  0  0  0999 V2000
    6.9070   -1.5530    1.7510 C   0  0  0  0  0  0  0  0  0  0  0  0
    6.1100   -1.0560    0.5970 C   0  0  0  0  0  0  0  0  0  0  0  0
    6.8080   -0.8590   -0.6930 C   0  0  0  0  0  0  0  0  0  0  0  0
    4.8280   -0.7950    0.7000 C   0  0  0  0  0  0  0  0  0  0  0  0
    4.1100   -0.3250   -0.4200 N   0  0  0  0  0  0  0  0  0  0  0  0
    2.7010   -0.1930   -0.4230 N   0  0  0  0  0  0  0  0  0  0  0  0
    2.0970    1.0740   -0.2610 C   0  0  0  0  0  0  0  0  0  0  0  0
    2.8740    2.0550   -0.1170 O   0  0  0  0  0  0  0  0  0  0  0  0
    0.6460    1.3140   -0.2500 C   0  0  2  0  0  0  0  0  0  0  0  0
    0.4620    2.6730   -0.0790 O   0  0  0  0  0  0  0  0  0  0  0  0
   -0.8530    3.0960   -0.2600 C   0  0  1  0  0  0  0  0  0  0  0  0
   -1.3940    2.7170   -1.4650 O   0  0  0  0  0  0  0  0  0  0  0  0
   -1.6200    2.4700    0.8870 C   0  0  0  0  0  0  0  0  0  0  0  0
   -2.8210    2.9090    1.2090 C   0  0  0  0  0  0  0  0  0  0  0  0
   -3.5010    4.0150    0.5010 C   0  0  0  0  0  0  0  0  0  0  0  0
   -4.7080    3.5620   -0.0550 O   0  0  0  0  0  0  0  0  0  0  0  0
   -0.9400    1.4420    1.5150 O   0  0  0  0  0  0  0  0  0  0  0  0
   -0.1160    0.5600    0.7900 C   0  0  1  0  0  0  0  0  0  0  0  0
   -1.0200   -0.4940    0.2330 C   0  0  0  0  0  0  0  0  0  0  0  0
   -0.5570   -1.3690   -0.5390 O   0  0  0  0  0  0  0  0  0  0  0  0
   -2.4010   -0.5850    0.5210 N   0  0  0  0  0  0  0  0  0  0  0  0
   -3.2440   -1.6060   -0.0280 C   0  0  0  0  0  0  0  0  0  0  0  0
   -4.2610   -1.2260   -0.7780 C   0  0  0  0  0  0  0  0  0  0  0  0
   -5.1750   -2.2350   -1.3780 C   0  0  0  0  0  0  0  0  0  0  0  0
   -5.1820   -3.3310   -0.5060 O   0  0  0  0  0  0  0  0  0  0  0  0
   -3.8930   -3.8660   -0.5390 C   0  0  0  0  0  0  0  0  0  0  0  0
   -2.9380   -3.0230    0.2710 C   0  0  0  0  0  0  0  0  0  0  0  0
  1  2  1  0
  2  3  1  0
  2  4  2  3
  4  5  1  0
  5  6  1  0
  6  7  1  0
  7  8  2  0
  9  7  1  1
  9 10  1  0
  9 18  1  0
 10 11  1  0
 11 12  1  6
 11 13  1  0
 13 14  2  3
 13 17  1  0
 14 15  1  0
 15 16  1  0
 17 18  1  0
 18 19  1  6
 19 20  2  0
 19 21  1  0
 21 22  1  0
 22 23  2  0
 22 27  1  0
 23 24  1  0
 24 25  1  0
 25 26  1  0
 26 27  1  0
M  END
