
     RDKit          3D

 39 43  0  0  0  0  0  0  0  0999 V2000
    9.0920   -0.2360    1.9710 C   0  0  0  0  0  0  0  0  0  0  0  0
    8.1670   -0.1560    0.8140 C   0  0  0  0  0  0  0  0  0  0  0  0
    8.5720    0.0970   -0.4660 C   0  0  0  0  0  0  0  0  0  0  0  0
    7.4150    0.1870   -1.2270 C   0  0  0  0  0  0  0  0  0  0  0  0
    7.3190    0.4460   -2.5930 C   0  0  0  0  0  0  0  0  0  0  0  0
    6.0560    0.4970   -3.1210 C   0  0  0  0  0  0  0  0  0  0  0  0
    5.9000    0.7360   -4.4390 F   0  0  0  0  0  0  0  0  0  0  0  0
    4.9290    0.3030   -2.3090 C   0  0  0  0  0  0  0  0  0  0  0  0
    5.0810    0.0510   -0.9680 C   0  0  0  0  0  0  0  0  0  0  0  0
    3.9430   -0.1260   -0.1610 N   0  0  0  0  0  0  0  0  0  0  0  0
    2.5990    0.0410   -0.6610 C   0  0  0  0  0  0  0  0  0  0  0  0
    2.3770    0.3390   -1.8460 O   0  0  0  0  0  0  0  0  0  0  0  0
    1.5170   -0.1260    0.2510 N   0  0  0  0  0  0  0  0  0  0  0  0
    0.1530    0.1200   -0.1550 C   0  0  0  0  0  0  0  0  0  0  0  0
   -0.0530    1.1620   -0.9940 C   0  0  0  0  0  0  0  0  0  0  0  0
   -1.3820    1.6150   -1.1690 C   0  0  0  0  0  0  0  0  0  0  0  0
   -2.3890    1.0020   -0.5140 C   0  0  0  0  0  0  0  0  0  0  0  0
   -3.7490    1.4630   -0.4240 C   0  0  0  0  0  0  0  0  0  0  0  0
   -4.7410    0.7050   -0.3340 O   0  0  0  0  0  0  0  0  0  0  0  0
   -4.0610    2.8650   -0.3910 O   0  0  0  0  0  0  0  0  0  0  0  0
   -5.3950    3.1540   -0.1210 C   0  0  0  0  0  0  0  0  0  0  0  0
   -5.9030    4.5200   -0.3120 C   0  0  0  0  0  0  0  0  0  0  0  0
   -7.0730    4.6320   -1.1230 C   0  0  0  0  0  0  0  0  0  0  0  0
   -7.3630    5.9920   -1.1970 C   0  0  0  0  0  0  0  0  0  0  0  0
   -6.4140    6.6220   -0.4530 C   0  0  0  0  0  0  0  0  0  0  0  0
   -5.5660    5.7100    0.0580 O   0  0  0  0  0  0  0  0  0  0  0  0
   -2.1560   -0.1220    0.3610 C   0  0  0  0  0  0  0  0  0  0  0  0
   -3.3870   -0.6240    1.0570 C   0  0  0  0  0  0  0  0  0  0  0  0
   -3.6970   -1.9280    0.7220 N   0  0  0  0  0  0  0  0  0  0  0  0
   -5.0210   -2.4200    0.8470 C   0  0  0  0  0  0  0  0  0  0  0  0
   -4.9040   -3.8020    1.4990 C   0  0  0  0  0  0  0  0  0  0  0  0
   -4.3820   -4.6530    0.5640 O   0  0  0  0  0  0  0  0  0  0  0  0
   -3.5160   -4.1110   -0.3520 C   0  0  2  0  0  0  0  0  0  0  0  0
   -2.4050   -5.0970   -0.6370 C   0  0  0  0  0  0  0  0  0  0  0  0
   -2.8250   -2.8260    0.1130 C   0  0  0  0  0  0  0  0  0  0  0  0
   -0.8730   -0.5590    0.5360 C   0  0  0  0  0  0  0  0  0  0  0  0
    6.3480   -0.0070   -0.3850 C   0  0  0  0  0  0  0  0  0  0  0  0
    6.8110   -0.2280    0.8890 N   0  0  0  0  0  0  0  0  0  0  0  0
    6.0420   -0.4840    2.0880 C   0  0  0  0  0  0  0  0  0  0  0  0
  1  2  1  0
  2  3  2  0
  2 38  1  0
  3  4  1  0
  4  5  2  0
  4 37  1  0
  5  6  1  0
  6  7  1  0
  6  8  2  0
  8  9  1  0
  9 10  1  0
  9 37  2  0
 10 11  1  0
 11 12  2  0
 11 13  1  0
 13 14  1  0
 14 15  2  0
 14 36  1  0
 15 16  1  0
 16 17  2  0
 17 18  1  0
 17 27  1  0
 18 19  2  0
 18 20  1  0
 20 21  1  0
 21 22  1  0
 22 23  2  0
 22 26  1  0
 23 24  1  0
 24 25  2  0
 25 26  1  0
 27 28  1  0
 27 36  2  0
 28 29  1  0
 29 30  1  0
 29 35  1  0
 30 31  1  0
 31 32  1  0
 32 33  1  0
 33 34  1  1
 33 35  1  0
 37 38  1  0
 38 39  1  0
M  END
