
     RDKit          3D

 40 44  0  0  0  0  0  0  0  0999 V2000
   -7.5790   -1.4470   -2.0420 C   0  0  0  0  0  0  0  0  0  0  0  0
   -6.6570   -0.6820   -2.9390 C   0  0  0  0  0  0  0  0  0  0  0  0
   -5.2500   -1.1720   -2.7550 N   0  0  0  0  0  0  0  0  0  0  0  0
   -4.9090   -2.2590   -3.6410 C   0  0  0  0  0  0  0  0  0  0  0  0
   -4.4770   -0.5500   -1.7930 C   0  0  0  0  0  0  0  0  0  0  0  0
   -5.0860    0.4070   -1.1440 O   0  0  0  0  0  0  0  0  0  0  0  0
   -3.1220   -0.7500   -1.3620 C   0  0  0  0  0  0  0  0  0  0  0  0
   -2.6100    0.0260   -0.3670 C   0  0  0  0  0  0  0  0  0  0  0  0
   -1.2910   -0.1190    0.1070 N   0  0  0  0  0  0  0  0  0  0  0  0
   -0.2760    0.7220   -0.0780 C   0  0  0  0  0  0  0  0  0  0  0  0
   -0.4030    1.9790   -0.8170 C   0  0  0  0  0  0  0  0  0  0  0  0
   -1.4450    2.3830   -1.5870 C   0  0  0  0  0  0  0  0  0  0  0  0
   -1.4250    3.6520   -2.1930 C   0  0  0  0  0  0  0  0  0  0  0  0
   -0.3900    4.5310   -2.0510 C   0  0  0  0  0  0  0  0  0  0  0  0
   -0.3960    5.7950   -2.6670 O   0  0  0  0  0  0  0  0  0  0  0  0
    0.6640    4.1240   -1.2730 C   0  0  0  0  0  0  0  0  0  0  0  0
    1.8200    5.0160   -1.0680 C   0  0  0  0  0  0  0  0  0  0  0  0
    0.6650    2.8960   -0.6750 C   0  0  0  0  0  0  0  0  0  0  0  0
    0.9540    0.4530    0.4740 N   0  0  0  0  0  0  0  0  0  0  0  0
    1.1190   -0.6500    1.1920 C   0  0  0  0  0  0  0  0  0  0  0  0
    2.3650   -0.9370    1.7590 C   0  0  0  0  0  0  0  0  0  0  0  0
    2.5210   -2.0950    2.5070 C   0  0  0  0  0  0  0  0  0  0  0  0
    1.5040   -2.9800    2.7190 C   0  0  0  0  0  0  0  0  0  0  0  0
    1.6140   -4.1480    3.4580 O   0  0  0  0  0  0  0  0  0  0  0  0
    0.5570   -5.0410    3.6610 C   0  0  0  0  0  0  0  0  0  0  0  0
    0.2820   -2.6860    2.1540 C   0  0  0  0  0  0  0  0  0  0  0  0
    0.0860   -1.5280    1.3940 C   0  0  0  0  0  0  0  0  0  0  0  0
   -1.1280   -1.2720    0.8540 C   0  0  0  0  0  0  0  0  0  0  0  0
   -2.0800   -2.0540    1.0260 O   0  0  0  0  0  0  0  0  0  0  0  0
    3.7470   -2.3390    3.0420 O   0  0  0  0  0  0  0  0  0  0  0  0
    4.8620   -1.5340    2.9110 C   0  0  0  0  0  0  0  0  0  0  0  0
    4.6540   -0.3120    2.1080 C   0  0  0  0  0  0  0  0  0  0  0  0
    5.7840    0.6290    1.8990 C   0  0  0  0  0  0  0  0  0  0  0  0
    7.0450    0.4530    2.4050 C   0  0  0  0  0  0  0  0  0  0  0  0
    7.8390    1.5380    2.0030 C   0  0  0  0  0  0  0  0  0  0  0  0
    7.0520    2.3430    1.2690 N   0  0  0  0  0  0  0  0  0  0  0  0
    5.8090    1.8030    1.2010 C   0  0  0  0  0  0  0  0  0  0  0  0
    3.4840   -0.0410    1.5740 C   0  0  0  0  0  0  0  0  0  0  0  0
   -2.2020   -1.7270   -1.9480 C   0  0  0  0  0  0  0  0  0  0  0  0
   -2.0620   -1.5050   -3.3210 F   0  0  0  0  0  0  0  0  0  0  0  0
  1  2  1  0
  2  3  1  0
  3  4  1  0
  3  5  1  0
  5  6  2  0
  5  7  1  0
  7  8  2  3
  7 39  1  0
  8  9  1  0
  9 10  1  0
  9 28  1  0
 10 11  1  0
 10 19  2  0
 11 12  2  0
 11 18  1  0
 12 13  1  0
 13 14  2  0
 14 15  1  0
 14 16  1  0
 16 17  1  0
 16 18  2  0
 19 20  1  0
 20 21  2  0
 20 27  1  0
 21 22  1  0
 21 38  1  0
 22 23  2  0
 22 30  1  0
 23 24  1  0
 23 26  1  0
 24 25  1  0
 26 27  2  0
 27 28  1  0
 28 29  2  0
 30 31  1  0
 31 32  1  0
 32 33  1  0
 32 38  2  0
 33 34  1  0
 33 37  2  0
 34 35  2  0
 35 36  1  0
 36 37  1  0
 39 40  1  0
M  END
