
     RDKit          3D

 43 46  0  0  0  0  0  0  0  0999 V2000
   -4.8960   -5.1740    0.8780 C   0  0  0  0  0  0  0  0  0  0  0  0
   -5.0500   -3.7090    1.9300 S   0  0  0  0  0  0  0  0  0  0  0  0
   -6.0320   -2.4470    1.1060 C   0  0  0  0  0  0  0  0  0  0  0  0
   -5.2840   -1.9490   -0.1060 C   0  0  2  0  0  0  0  0  0  0  0  0
   -4.0770   -1.4000    0.1580 O   0  0  0  0  0  0  0  0  0  0  0  0
   -2.9880   -2.0230   -0.4200 C   0  0  0  0  0  0  0  0  0  0  0  0
   -1.7560   -1.2480    0.0060 C   0  0  0  0  0  0  0  0  0  0  0  0
   -0.5750   -1.8100   -0.5350 O   0  0  0  0  0  0  0  0  0  0  0  0
    0.6470   -1.2570   -0.2680 C   0  0  0  0  0  0  0  0  0  0  0  0
    1.7910   -1.7930   -0.7840 C   0  0  0  0  0  0  0  0  0  0  0  0
    3.0350   -1.2290   -0.5110 C   0  0  0  0  0  0  0  0  0  0  0  0
    3.1120   -0.1330    0.2760 C   0  0  0  0  0  0  0  0  0  0  0  0
    4.3060    0.4640    0.5810 O   0  0  0  0  0  0  0  0  0  0  0  0
    5.5250   -0.0030    0.0830 C   0  0  0  0  0  0  0  0  0  0  0  0
    5.6440    0.0670   -1.3860 C   0  0  0  0  0  0  0  0  0  0  0  0
    4.7160    0.5780   -2.0710 O   0  0  0  0  0  0  0  0  0  0  0  0
    6.7720   -0.4190   -2.0890 N   0  0  0  0  0  0  0  0  0  0  0  0
    7.8640   -1.0080   -1.3710 C   0  0  0  0  0  0  0  0  0  0  0  0
    8.6030   -1.9720   -2.2720 C   0  0  0  0  0  0  0  0  0  0  0  0
    7.7040   -2.6380   -3.1950 N   0  0  0  0  0  0  0  0  0  0  0  0
    8.3640   -3.7310   -3.8530 C   0  0  0  0  0  0  0  0  0  0  0  0
    7.0640   -1.7290   -4.0970 C   0  0  0  0  0  0  0  0  0  0  0  0
    6.8800   -0.3480   -3.5350 C   0  0  0  0  0  0  0  0  0  0  0  0
    1.9460    0.4410    0.8230 C   0  0  0  0  0  0  0  0  0  0  0  0
    2.0670    1.5780    1.6450 N   0  0  0  0  0  0  0  0  0  0  0  0
    1.0370    2.3140    2.2530 C   0  0  0  0  0  0  0  0  0  0  0  0
   -0.1560    1.9890    2.0930 O   0  0  0  0  0  0  0  0  0  0  0  0
    1.3470    3.4940    3.0970 C   0  0  0  0  0  0  0  0  0  0  0  0
    0.3920    4.2730    3.7100 C   0  0  0  0  0  0  0  0  0  0  0  0
    1.0860    5.2490    4.3890 C   0  0  0  0  0  0  0  0  0  0  0  0
    2.4120    4.9930    4.1400 C   0  0  0  0  0  0  0  0  0  0  0  0
    3.5840    5.7670    4.6490 C   0  0  0  0  0  0  0  0  0  0  0  0
    2.5390    3.9520    3.3750 O   0  0  0  0  0  0  0  0  0  0  0  0
    0.7200   -0.1210    0.5500 C   0  0  0  0  0  0  0  0  0  0  0  0
   -6.1240   -0.9460   -0.8910 C   0  0  1  0  0  0  0  0  0  0  0  0
   -7.3500   -1.5800   -1.1630 O   0  0  0  0  0  0  0  0  0  0  0  0
   -6.3630    0.3020   -0.0780 C   0  0  1  0  0  0  0  0  0  0  0  0
   -5.0920    0.9790    0.2900 C   0  0  0  0  0  0  0  0  0  0  0  0
   -5.2670    2.4510    0.6180 C   0  0  0  0  0  0  0  0  0  0  0  0
   -6.1320    3.1080   -0.2240 O   0  0  0  0  0  0  0  0  0  0  0  0
   -7.3990    2.5600   -0.2850 C   0  0  2  0  0  0  0  0  0  0  0  0
   -8.0600    2.3920    1.0620 C   0  0  0  0  0  0  0  0  0  0  0  0
   -7.2650    1.1970   -0.9400 C   0  0  0  0  0  0  0  0  0  0  0  0
  1  2  1  0
  2  3  1  0
  4  3  1  1
  4  5  1  0
  4 35  1  0
  5  6  1  0
  6  7  1  0
  7  8  1  0
  8  9  1  0
  9 10  2  0
  9 34  1  0
 10 11  1  0
 11 12  2  0
 12 13  1  0
 12 24  1  0
 13 14  1  0
 14 15  1  0
 15 16  2  0
 15 17  1  0
 17 18  1  0
 17 23  1  0
 18 19  1  0
 19 20  1  0
 20 21  1  0
 20 22  1  0
 22 23  1  0
 24 25  1  0
 24 34  2  0
 25 26  1  0
 26 27  2  0
 26 28  1  0
 28 29  2  0
 28 33  1  0
 29 30  1  0
 30 31  2  0
 31 32  1  0
 31 33  1  0
 35 36  1  1
 35 37  1  0
 37 38  1  6
 37 43  1  0
 38 39  1  0
 39 40  1  0
 40 41  1  0
 41 42  1  1
 41 43  1  0
M  END
