
     RDKit          3D

 44 47  0  0  0  0  0  0  0  0999 V2000
   -1.7350   -4.2650    2.4200 C   0  0  0  0  0  0  0  0  0  0  0  0
   -2.4730   -4.9000    1.2820 C   0  0  0  0  0  0  0  0  0  0  0  0
   -1.6980   -4.7890   -0.0120 C   0  0  2  0  0  0  0  0  0  0  0  0
   -0.3550   -5.4540    0.0530 C   0  0  0  0  0  0  0  0  0  0  0  0
    0.4870   -4.5610   -0.6420 O   0  0  0  0  0  0  0  0  0  0  0  0
   -0.0170   -3.2800   -0.6370 C   0  0  0  0  0  0  0  0  0  0  0  0
    0.5270   -2.0190   -0.9190 C   0  0  0  0  0  0  0  0  0  0  0  0
   -0.2070   -0.8710   -0.8380 C   0  0  0  0  0  0  0  0  0  0  0  0
    0.4110    0.4430   -1.1040 C   0  0  0  0  0  0  0  0  0  0  0  0
    1.7200    0.3160   -1.5440 O   0  0  0  0  0  0  0  0  0  0  0  0
    2.1460   -0.2690   -2.7230 C   0  0  0  0  0  0  0  0  0  0  0  0
    1.3200   -0.8130   -3.6790 C   0  0  0  0  0  0  0  0  0  0  0  0
    1.8220   -1.3770   -4.8260 C   0  0  0  0  0  0  0  0  0  0  0  0
    3.1920   -1.4130   -5.0500 C   0  0  0  0  0  0  0  0  0  0  0  0
    4.0260   -0.8720   -4.0990 C   0  0  0  0  0  0  0  0  0  0  0  0
    3.5190   -0.3050   -2.9470 C   0  0  0  0  0  0  0  0  0  0  0  0
    4.4090    0.2290   -2.0160 O   0  0  0  0  0  0  0  0  0  0  0  0
    5.7780    0.1810   -2.2630 C   0  0  0  0  0  0  0  0  0  0  0  0
    6.5970    0.7800   -1.2010 C   0  0  0  0  0  0  0  0  0  0  0  0
    7.8620    0.7980   -1.3180 O   0  0  0  0  0  0  0  0  0  0  0  0
    6.0730    1.3590   -0.0140 N   0  0  0  0  0  0  0  0  0  0  0  0
    6.9270    1.9250    0.9810 C   0  0  2  0  0  0  0  0  0  0  0  0
    6.7680    1.1180    2.2590 C   0  0  0  0  0  0  0  0  0  0  0  0
    7.7490    1.7510    3.2550 C   0  0  0  0  0  0  0  0  0  0  0  0
    7.4020    3.5110    2.9390 S   0  0  0  0  0  0  0  0  0  0  0  0
    6.4670    4.0830    3.9800 O   0  0  0  0  0  0  0  0  0  0  0  0
    6.5690    3.3550    1.3270 C   0  0  0  0  0  0  0  0  0  0  0  0
   -1.5740   -0.9360   -0.4520 C   0  0  0  0  0  0  0  0  0  0  0  0
   -2.2590    0.2980   -0.3810 N   0  0  0  0  0  0  0  0  0  0  0  0
   -3.6360    0.4810   -0.0660 C   0  0  0  0  0  0  0  0  0  0  0  0
   -4.2750   -0.5670    0.1620 O   0  0  0  0  0  0  0  0  0  0  0  0
   -4.2360    1.7680   -0.0170 N   0  0  0  0  0  0  0  0  0  0  0  0
   -3.4050    2.9130   -0.3640 C   0  0  0  0  0  0  0  0  0  0  0  0
   -2.6310    3.5290    0.7330 C   0  0  0  0  0  0  0  0  0  0  0  0
   -3.3800    4.0420    1.7780 O   0  0  0  0  0  0  0  0  0  0  0  0
   -5.5920    2.0000    0.2990 C   0  0  1  0  0  0  0  0  0  0  0  0
   -6.4610    1.5050   -0.8600 C   0  0  0  0  0  0  0  0  0  0  0  0
   -5.8700    1.0040   -1.8440 O   0  0  0  0  0  0  0  0  0  0  0  0
   -7.8270    1.6170   -0.8010 O   0  0  0  0  0  0  0  0  0  0  0  0
   -6.2300    1.5510    1.5390 C   0  0  1  0  0  0  0  0  0  0  0  0
   -6.3130    0.1080    1.8780 C   0  0  0  0  0  0  0  0  0  0  0  0
   -5.7150    2.2670    2.8040 C   0  0  0  0  0  0  0  0  0  0  0  0
   -2.0580   -2.1780   -0.1880 C   0  0  0  0  0  0  0  0  0  0  0  0
   -1.3290   -3.3610   -0.2650 C   0  0  0  0  0  0  0  0  0  0  0  0
  1  2  1  0
  3  2  1  1
  3  4  1  0
  3 44  1  0
  4  5  1  0
  5  6  1  0
  6  7  2  0
  6 44  1  0
  7  8  1  0
  8  9  1  0
  8 28  2  0
  9 10  1  0
 10 11  1  0
 11 12  2  0
 11 16  1  0
 12 13  1  0
 13 14  2  0
 14 15  1  0
 15 16  2  0
 16 17  1  0
 17 18  1  0
 18 19  1  0
 19 20  2  0
 19 21  1  0
 22 21  1  6
 22 23  1  0
 22 27  1  0
 23 24  1  0
 25 24  1  1
 25 26  2  0
 25 27  1  0
 28 29  1  0
 28 43  1  0
 29 30  1  0
 30 31  2  0
 30 32  1  0
 32 33  1  0
 36 32  1  6
 33 34  1  0
 34 35  1  0
 36 37  1  0
 36 40  1  0
 37 38  2  0
 37 39  1  0
 40 41  1  1
 40 42  1  0
 43 44  2  0
M  END
