
     RDKit          3D

 44 47  0  0  0  0  0  0  0  0999 V2000
   -2.7120   -6.9880   -1.8550 C   0  0  0  0  0  0  0  0  0  0  0  0
   -2.3550   -5.6770   -2.1810 O   0  0  0  0  0  0  0  0  0  0  0  0
   -3.1620   -4.8420   -1.3790 C   0  0  0  0  0  0  0  0  0  0  0  0
   -2.8660   -3.4040   -1.6360 C   0  0  0  0  0  0  0  0  0  0  0  0
   -3.6630   -2.5860   -0.8430 O   0  0  0  0  0  0  0  0  0  0  0  0
   -3.6050   -2.6790    0.5360 C   0  0  0  0  0  0  0  0  0  0  0  0
   -4.4280   -3.5010    1.2900 C   0  0  0  0  0  0  0  0  0  0  0  0
   -5.3670   -4.2800    0.6590 O   0  0  0  0  0  0  0  0  0  0  0  0
   -6.2490   -5.1490    1.3540 C   0  0  0  0  0  0  0  0  0  0  0  0
   -4.2860   -3.5170    2.6460 C   0  0  0  0  0  0  0  0  0  0  0  0
   -3.3440   -2.7340    3.2710 C   0  0  0  0  0  0  0  0  0  0  0  0
   -2.5190   -1.9120    2.5420 C   0  0  0  0  0  0  0  0  0  0  0  0
   -2.6600   -1.8940    1.1640 C   0  0  0  0  0  0  0  0  0  0  0  0
   -1.7850   -1.0430    0.4420 N   0  0  0  0  0  0  0  0  0  0  0  0
   -0.3700   -1.3980    0.4830 C   0  0  0  0  0  0  0  0  0  0  0  0
    0.3580   -0.4340   -0.4350 C   0  0  2  0  0  0  0  0  0  0  0  0
    1.7980   -0.6800   -0.3290 C   0  0  0  0  0  0  0  0  0  0  0  0
    2.2120   -1.6720    0.3720 O   0  0  0  0  0  0  0  0  0  0  0  0
    2.8190    0.0960   -0.9480 N   0  0  0  0  0  0  0  0  0  0  0  0
    4.2150   -0.1740   -0.8290 C   0  0  0  0  0  0  0  0  0  0  0  0
    4.7160   -0.0880    0.5690 C   0  0  2  0  0  0  0  0  0  0  0  0
    4.5320    1.2950    1.1900 C   0  0  0  0  0  0  0  0  0  0  0  0
    5.3530    2.2430    0.6270 O   0  0  0  0  0  0  0  0  0  0  0  0
    6.6770    1.9860    0.9670 C   0  0  0  0  0  0  0  0  0  0  0  0
    7.3290    1.2860   -0.2040 C   0  0  0  0  0  0  0  0  0  0  0  0
    7.1210   -0.1730   -0.2260 C   0  0  1  0  0  0  0  0  0  0  0  0
    6.7500   -0.6580   -1.4860 O   0  0  0  0  0  0  0  0  0  0  0  0
    8.2860   -0.8470    0.1050 O   0  0  0  0  0  0  0  0  0  0  0  0
    9.3260   -0.6670   -0.7850 C   0  0  0  0  0  0  0  0  0  0  0  0
    6.0820   -0.6520    0.7680 C   0  0  0  0  0  0  0  0  0  0  0  0
    0.0020    0.9810   -0.1340 C   0  0  0  0  0  0  0  0  0  0  0  0
   -1.4180    1.3160   -0.4600 C   0  0  2  0  0  0  0  0  0  0  0  0
   -1.8770    2.3650    0.4330 N   0  0  0  0  0  0  0  0  0  0  0  0
   -2.6190    3.4920   -0.0640 C   0  0  0  0  0  0  0  0  0  0  0  0
   -2.8520    3.5340   -1.2980 O   0  0  0  0  0  0  0  0  0  0  0  0
   -3.0720    4.5320    0.8810 C   0  0  0  0  0  0  0  0  0  0  0  0
   -3.8530    5.5430    0.2110 C   0  0  0  0  0  0  0  0  0  0  0  0
   -5.1540    5.7260   -0.0640 C   0  0  0  0  0  0  0  0  0  0  0  0
   -5.5620    6.8160   -0.7290 C   0  0  0  0  0  0  0  0  0  0  0  0
   -4.6860    7.7480   -1.1380 C   0  0  0  0  0  0  0  0  0  0  0  0
   -4.7350    9.0160   -1.8560 C   0  0  0  0  0  0  0  0  0  0  0  0
   -3.0990    6.9960   -0.5050 S   0  0  0  0  0  0  0  0  0  0  0  0
   -2.2590    0.0790   -0.2730 C   0  0  0  0  0  0  0  0  0  0  0  0
   -3.4120    0.0320   -0.7610 O   0  0  0  0  0  0  0  0  0  0  0  0
  1  2  1  0
  2  3  1  0
  3  4  1  0
  4  5  1  0
  5  6  1  0
  6  7  2  0
  6 13  1  0
  7  8  1  0
  7 10  1  0
  8  9  1  0
 10 11  2  0
 11 12  1  0
 12 13  2  0
 13 14  1  0
 14 15  1  0
 14 43  1  0
 15 16  1  0
 16 17  1  1
 16 31  1  0
 17 18  2  0
 17 19  1  0
 19 20  1  0
 21 20  1  6
 21 22  1  0
 21 30  1  0
 22 23  1  0
 23 24  1  0
 24 25  1  0
 25 26  1  0
 26 27  1  6
 26 28  1  0
 26 30  1  0
 28 29  1  0
 31 32  1  0
 32 33  1  1
 32 43  1  0
 33 34  1  0
 34 35  2  0
 34 36  1  0
 36 37  1  0
 37 38  2  0
 37 42  1  0
 38 39  1  0
 39 40  2  0
 40 41  1  0
 40 42  1  0
 43 44  2  0
M  END
