
     RDKit          3D

 44 47  0  0  0  0  0  0  0  0999 V2000
   -0.4490   -8.8830   -0.1530 C   0  0  0  0  0  0  0  0  0  0  0  0
    0.1590   -7.9130    0.6740 O   0  0  0  0  0  0  0  0  0  0  0  0
   -0.0920   -6.5790    0.4160 C   0  0  0  0  0  0  0  0  0  0  0  0
    0.5190   -5.6330    1.2440 C   0  0  0  0  0  0  0  0  0  0  0  0
    0.2580   -4.3060    0.9710 C   0  0  0  0  0  0  0  0  0  0  0  0
   -0.5600   -3.8890   -0.0570 C   0  0  0  0  0  0  0  0  0  0  0  0
   -0.7930   -2.5090   -0.3010 N   0  0  0  0  0  0  0  0  0  0  0  0
   -2.0940   -1.8960   -0.1840 C   0  0  0  0  0  0  0  0  0  0  0  0
   -2.0710   -0.4220   -0.4270 C   0  0  1  0  0  0  0  0  0  0  0  0
   -3.2750    0.1730    0.3330 C   0  0  0  0  0  0  0  0  0  0  0  0
   -3.4280    1.5350    0.0400 O   0  0  0  0  0  0  0  0  0  0  0  0
   -4.5100    2.0760    0.7180 C   0  0  1  0  0  0  0  0  0  0  0  0
   -4.0690    3.0900    1.7590 C   0  0  0  0  0  0  0  0  0  0  0  0
   -5.5080    2.6890   -0.1710 C   0  0  0  0  0  0  0  0  0  0  0  0
   -5.3290    2.7230   -1.4250 O   0  0  0  0  0  0  0  0  0  0  0  0
   -6.6850    3.2480    0.3900 N   0  0  0  0  0  0  0  0  0  0  0  0
   -7.6730    3.8530   -0.4850 C   0  0  2  0  0  0  0  0  0  0  0  0
   -8.0000    5.2060    0.0500 C   0  0  0  0  0  0  0  0  0  0  0  0
   -9.1510    5.7410   -0.8040 C   0  0  0  0  0  0  0  0  0  0  0  0
  -10.1910    4.2290   -0.8930 S   0  0  0  0  0  0  0  0  0  0  0  0
   -8.9450    3.0070   -0.3240 C   0  0  0  0  0  0  0  0  0  0  0  0
   -0.9920    0.2730   -0.0350 O   0  0  0  0  0  0  0  0  0  0  0  0
    0.2670   -0.2600   -0.1560 C   0  0  1  0  0  0  0  0  0  0  0  0
    1.1090    0.6970   -0.9730 C   0  0  0  0  0  0  0  0  0  0  0  0
    2.4950    0.3030   -1.1980 C   0  0  0  0  0  0  0  0  0  0  0  0
    3.1680    1.0730   -1.9780 O   0  0  0  0  0  0  0  0  0  0  0  0
    3.1810   -0.7590   -0.7040 O   0  0  0  0  0  0  0  0  0  0  0  0
    4.5150   -1.1260   -0.9270 C   0  0  0  0  0  0  0  0  0  0  0  0
    5.4150   -0.0160   -0.4370 C   0  0  0  0  0  0  0  0  0  0  0  0
    6.7850   -0.3380   -0.6340 O   0  0  0  0  0  0  0  0  0  0  0  0
    7.7950    0.5230   -0.2600 C   0  0  0  0  0  0  0  0  0  0  0  0
    9.0990    0.1340   -0.4870 C   0  0  0  0  0  0  0  0  0  0  0  0
   10.1690    0.9530   -0.1340 C   0  0  0  0  0  0  0  0  0  0  0  0
    9.9160    2.1650    0.4490 C   0  0  0  0  0  0  0  0  0  0  0  0
   11.0840    3.0300    0.8240 C   0  0  0  0  0  0  0  0  0  0  0  0
    8.6220    2.5790    0.6870 C   0  0  0  0  0  0  0  0  0  0  0  0
    7.5860    1.7510    0.3280 C   0  0  0  0  0  0  0  0  0  0  0  0
    0.7950   -0.3480    1.2520 C   0  0  0  0  0  0  0  0  0  0  0  0
    0.0230    0.1060    2.3580 N   0  0  0  0  0  0  0  0  0  0  0  0
    1.9200   -0.8150    1.5420 O   0  0  0  0  0  0  0  0  0  0  0  0
    0.2700   -1.6360   -0.6990 C   0  0  0  0  0  0  0  0  0  0  0  0
    1.1540   -2.0920   -1.4950 O   0  0  0  0  0  0  0  0  0  0  0  0
   -1.1520   -4.8290   -0.8610 C   0  0  0  0  0  0  0  0  0  0  0  0
   -0.9130   -6.1750   -0.6170 C   0  0  0  0  0  0  0  0  0  0  0  0
  1  2  1  0
  2  3  1  0
  3  4  2  0
  3 44  1  0
  4  5  1  0
  5  6  2  0
  6  7  1  0
  6 43  1  0
  7  8  1  0
  7 41  1  0
  8  9  1  0
  9 10  1  1
  9 22  1  0
 10 11  1  0
 11 12  1  0
 12 13  1  1
 12 14  1  0
 14 15  2  0
 14 16  1  0
 17 16  1  1
 17 18  1  0
 17 21  1  0
 18 19  1  0
 19 20  1  0
 20 21  1  0
 22 23  1  0
 23 24  1  6
 23 38  1  0
 23 41  1  0
 24 25  1  0
 25 26  2  0
 25 27  1  0
 27 28  1  0
 28 29  1  0
 29 30  1  0
 30 31  1  0
 31 32  2  0
 31 37  1  0
 32 33  1  0
 33 34  2  0
 34 35  1  0
 34 36  1  0
 36 37  2  0
 38 39  1  0
 38 40  2  0
 41 42  2  0
 43 44  2  0
M  END
