
     RDKit          3D

 14 14  0  0  0  0  0  0  0  0999 V2000
    0.8510    2.4550    0.6020 C   0  0  0  0  0  0  0  0  0  0  0  0
    0.1520    1.3150   -0.0950 C   0  0  2  0  0  0  0  0  0  0  0  0
   -0.9860    0.9890    0.5700 O   0  0  0  0  0  0  0  0  0  0  0  0
   -1.6000   -0.1770    0.1900 C   0  0  2  0  0  0  0  0  0  0  0  0
   -3.0720    0.1770   -0.0760 C   0  0  0  0  0  0  0  0  0  0  0  0
   -1.6110   -1.1030    1.3990 C   0  0  0  0  0  0  0  0  0  0  0  0
   -1.0770   -0.8330   -1.0230 C   0  0  2  0  0  0  0  0  0  0  0  0
   -1.4400   -2.2000   -0.9670 O   0  0  0  0  0  0  0  0  0  0  0  0
    0.3770   -0.7620   -1.2630 C   0  0  0  0  0  0  0  0  0  0  0  0
    1.0380    0.0820   -0.1640 C   0  0  1  0  0  0  0  0  0  0  0  0
    2.3820    0.4050   -0.5590 N   0  0  0  0  0  0  0  0  0  0  0  0
    3.4710   -0.2360    0.6140 S   0  0  2  0  0  0  0  0  0  0  0  0
    2.7970   -0.3400    1.9510 O   0  0  0  0  0  0  0  0  0  0  0  0
    4.7230    0.5760    0.7120 O   0  0  0  0  0  0  0  0  0  0  0  0
  2  1  1  1
  2  3  1  0
  2 10  1  0
  3  4  1  0
  4  5  1  6
  4  6  1  0
  4  7  1  0
  7  8  1  1
  7  9  1  0
  9 10  1  0
 10 11  1  6
 12 11  1  6
 12 13  2  0
 12 14  2  0
M  END
