
     RDKit          3D

 25 27  0  0  0  0  0  0  0  0999 V2000
   -6.5900   -1.1850    0.4630 C   0  0  0  0  0  0  0  0  0  0  0  0
   -5.1640   -1.4520    0.6630 C   0  0  0  0  0  0  0  0  0  0  0  0
   -4.1730   -0.4850    0.2460 C   0  0  0  0  0  0  0  0  0  0  0  0
   -2.8400   -0.8810    0.4950 C   0  0  0  0  0  0  0  0  0  0  0  0
   -1.7750   -0.0810    0.1580 C   0  0  0  0  0  0  0  0  0  0  0  0
   -0.4700   -0.4550    0.3950 C   0  0  0  0  0  0  0  0  0  0  0  0
    0.6090    0.3650    0.0500 C   0  0  0  0  0  0  0  0  0  0  0  0
    1.9650   -0.0720    0.2980 C   0  0  0  0  0  0  0  0  0  0  0  0
    2.0930   -1.1310    1.0210 O   0  0  0  0  0  0  0  0  0  0  0  0
    3.1530    0.5100   -0.1510 N   0  0  0  0  0  0  0  0  0  0  0  0
    4.4810    0.0760    0.0910 C   0  0  0  0  0  0  0  0  0  0  0  0
    5.5470    0.9280   -0.2580 C   0  0  0  0  0  0  0  0  0  0  0  0
    6.8630    0.5870   -0.0750 C   0  0  0  0  0  0  0  0  0  0  0  0
    7.1990   -0.6330    0.4710 C   0  0  0  0  0  0  0  0  0  0  0  0
    8.5290   -0.9780    0.6550 O   0  0  0  0  0  0  0  0  0  0  0  0
    6.1930   -1.4960    0.8260 C   0  0  0  0  0  0  0  0  0  0  0  0
    4.8590   -1.1200    0.6270 C   0  0  0  0  0  0  0  0  0  0  0  0
    0.2880    1.5480   -0.5310 C   0  0  0  0  0  0  0  0  0  0  0  0
    1.1480    2.3690   -0.8840 O   0  0  0  0  0  0  0  0  0  0  0  0
   -1.0070    1.9180   -0.7660 N   0  0  0  0  0  0  0  0  0  0  0  0
   -2.0230    1.1320   -0.4340 C   0  0  0  0  0  0  0  0  0  0  0  0
   -3.3180    1.5690   -0.7010 C   0  0  0  0  0  0  0  0  0  0  0  0
   -4.3610    0.7210   -0.3400 C   0  0  0  0  0  0  0  0  0  0  0  0
   -5.6860    1.1890   -0.6130 C   0  0  0  0  0  0  0  0  0  0  0  0
   -6.2160    2.5280    0.1480 S   0  0  0  0  0  0  0  0  0  0  0  0
  1  2  1  0
  2  3  1  0
  3  4  2  0
  3 23  1  0
  4  5  1  0
  5  6  1  0
  5 21  2  0
  6  7  2  0
  7  8  1  0
  7 18  1  0
  8  9  2  0
  8 10  1  0
 10 11  1  0
 11 12  2  0
 11 17  1  0
 12 13  1  0
 13 14  2  0
 14 15  1  0
 14 16  1  0
 16 17  2  0
 18 19  2  0
 18 20  1  0
 20 21  1  0
 21 22  1  0
 22 23  2  0
 23 24  1  0
 24 25  2  0
M  END
