
     RDKit          3D

 27 29  0  0  0  0  0  0  0  0999 V2000
   -5.2420   -2.4600   -1.2190 C   0  0  0  0  0  0  0  0  0  0  0  0
   -5.0010   -2.0910    0.2290 C   0  0  0  0  0  0  0  0  0  0  0  0
   -4.4610   -0.7190    0.3410 C   0  0  0  0  0  0  0  0  0  0  0  0
   -5.2830    0.3080    0.7590 C   0  0  0  0  0  0  0  0  0  0  0  0
   -4.7540    1.5760    0.8560 C   0  0  0  0  0  0  0  0  0  0  0  0
   -5.5520    2.7530    1.2960 C   0  0  0  0  0  0  0  0  0  0  0  0
   -3.4320    1.8060    0.5400 C   0  0  0  0  0  0  0  0  0  0  0  0
   -2.6170    0.7560    0.1200 C   0  0  0  0  0  0  0  0  0  0  0  0
   -1.2900    0.9630   -0.2020 C   0  0  0  0  0  0  0  0  0  0  0  0
   -0.4950   -0.0830   -0.6170 C   0  0  0  0  0  0  0  0  0  0  0  0
    0.8370    0.1320   -0.9380 O   0  0  0  0  0  0  0  0  0  0  0  0
    1.8120    0.0190    0.0630 C   0  0  0  0  0  0  0  0  0  0  0  0
    1.5310   -0.2730    1.2520 O   0  0  0  0  0  0  0  0  0  0  0  0
    3.2160    0.2610   -0.3470 C   0  0  0  0  0  0  0  0  0  0  0  0
    4.1100    0.0910    0.8700 C   0  0  0  0  0  0  0  0  0  0  0  0
    5.4660    0.3330    0.4400 N   0  0  0  0  0  0  0  0  0  0  0  0
    6.1980   -0.7130   -0.0070 C   0  0  0  0  0  0  0  0  0  0  0  0
    5.7310   -1.8910   -0.0590 O   0  0  0  0  0  0  0  0  0  0  0  0
    7.4820   -0.4970   -0.4160 C   0  0  0  0  0  0  0  0  0  0  0  0
    7.9990    0.7780   -0.3640 C   0  0  0  0  0  0  0  0  0  0  0  0
    7.2270    1.7970    0.0920 N   0  0  0  0  0  0  0  0  0  0  0  0
    5.9640    1.5670    0.4910 C   0  0  0  0  0  0  0  0  0  0  0  0
    5.2970    2.5650    0.9060 O   0  0  0  0  0  0  0  0  0  0  0  0
   -1.0570   -1.3400   -0.7020 C   0  0  0  0  0  0  0  0  0  0  0  0
   -0.2860   -2.4400   -1.1210 O   0  0  0  0  0  0  0  0  0  0  0  0
   -2.3710   -1.5850   -0.3920 C   0  0  0  0  0  0  0  0  0  0  0  0
   -3.1360   -0.5140    0.0200 C   0  0  0  0  0  0  0  0  0  0  0  0
  1  2  1  0
  2  3  1  0
  3  4  2  0
  3 27  1  0
  4  5  1  0
  5  6  1  0
  5  7  2  0
  7  8  1  0
  8  9  2  0
  8 27  1  0
  9 10  1  0
 10 11  1  0
 10 24  2  0
 11 12  1  0
 12 13  2  0
 12 14  1  0
 14 15  1  0
 15 16  1  0
 16 17  1  0
 16 22  1  0
 17 18  2  0
 17 19  1  0
 19 20  2  0
 20 21  1  0
 21 22  1  0
 22 23  2  0
 24 25  1  0
 24 26  1  0
 26 27  2  0
M  END
