
     RDKit          3D

 19 21  0  0  0  0  0  0  0  0999 V2000
   -3.9470    2.1760   -0.0180 C   0  0  0  0  0  0  0  0  0  0  0  0
   -3.0090    1.0040   -0.2210 C   0  0  2  0  0  0  0  0  0  0  0  0
   -3.8680   -0.1110   -0.8280 C   0  0  0  0  0  0  0  0  0  0  0  0
   -2.5220    0.5710    1.1390 C   0  0  0  0  0  0  0  0  0  0  0  0
   -1.5940   -0.5680    1.0940 C   0  0  0  0  0  0  0  0  0  0  0  0
   -1.8230   -1.8980    1.3990 N   0  0  0  0  0  0  0  0  0  0  0  0
   -0.6650   -2.6010    1.2110 C   0  0  0  0  0  0  0  0  0  0  0  0
    0.2350   -1.6800    0.7960 C   0  0  0  0  0  0  0  0  0  0  0  0
    1.4830   -2.1230    0.5350 C   0  0  0  0  0  0  0  0  0  0  0  0
    2.3640   -1.1610    0.1180 N   0  0  0  0  0  0  0  0  0  0  0  0
    1.9490    0.1380   -0.0060 C   0  0  0  0  0  0  0  0  0  0  0  0
    2.8740    1.2060   -0.4540 C   0  0  0  0  0  0  0  0  0  0  0  0
    4.2500    0.6890   -0.7370 C   0  0  0  0  0  0  0  0  0  0  0  0
    5.0620    1.8190   -1.1650 N   0  0  0  0  0  0  0  0  0  0  0  0
    0.6370    0.5280    0.2820 C   0  0  0  0  0  0  0  0  0  0  0  0
   -0.2790   -0.4260    0.7070 C   0  0  0  0  0  0  0  0  0  0  0  0
    1.4270   -3.5080    0.8040 N   0  0  0  0  0  0  0  0  0  0  0  0
    0.0830   -3.8650    1.2380 C   0  0  0  0  0  0  0  0  0  0  0  0
   -0.3700   -4.9590    1.5620 O   0  0  0  0  0  0  0  0  0  0  0  0
  2  1  1  1
  2  3  1  0
  2  4  1  0
  4  5  1  0
  5  6  1  0
  5 16  2  0
  6  7  1  0
  7  8  2  0
  7 18  1  0
  8  9  1  0
  8 16  1  0
  9 10  2  0
  9 17  1  0
 10 11  1  0
 11 12  1  0
 11 15  2  0
 12 13  1  0
 13 14  1  0
 15 16  1  0
 17 18  1  0
 18 19  2  0
M  CHG  1  14   1
M  END
