
     RDKit          3D

 27 29  0  0  0  0  0  0  0  0999 V2000
    0.4200   -2.8210   -0.0850 C   0  0  0  0  0  0  0  0  0  0  0  0
    0.3730   -1.2750   -0.1440 C   0  0  0  0  0  0  0  0  0  0  0  0
   -0.6910   -0.7590    0.3990 C   0  0  0  0  0  0  0  0  0  0  0  0
   -1.0030    0.6610    0.4900 C   0  0  0  0  0  0  0  0  0  0  0  0
   -2.2340    1.0370   -0.1740 N   0  0  0  0  0  0  0  0  0  0  0  0
   -3.4610    0.4290    0.3010 C   0  0  0  0  0  0  0  0  0  0  0  0
   -3.4420   -0.3790    1.2480 O   0  0  0  0  0  0  0  0  0  0  0  0
   -4.6970    0.7480   -0.3080 N   0  0  0  0  0  0  0  0  0  0  0  0
   -5.9840    0.2460    0.0330 C   0  0  0  0  0  0  0  0  0  0  0  0
   -6.2330   -0.6150    0.9900 C   0  0  0  0  0  0  0  0  0  0  0  0
   -7.6170   -1.0720    1.2590 C   0  0  0  0  0  0  0  0  0  0  0  0
   -8.5820   -0.5190    0.4310 O   0  0  0  0  0  0  0  0  0  0  0  0
   -8.3340    0.3800   -0.5720 C   0  0  0  0  0  0  0  0  0  0  0  0
   -7.0950    0.7730   -0.7940 C   0  0  0  0  0  0  0  0  0  0  0  0
    1.4860   -0.6220   -0.7770 C   0  0  0  0  0  0  0  0  0  0  0  0
    2.4280   -1.3480   -1.2430 O   0  0  0  0  0  0  0  0  0  0  0  0
    1.6350    0.7180   -0.9290 O   0  0  0  0  0  0  0  0  0  0  0  0
    2.7370    1.3470   -1.5550 C   0  0  0  0  0  0  0  0  0  0  0  0
    3.9900    1.0100   -0.8410 C   0  0  0  0  0  0  0  0  0  0  0  0
    5.2400    1.4790   -1.2360 C   0  0  0  0  0  0  0  0  0  0  0  0
    6.1490    0.9600   -0.3410 C   0  0  0  0  0  0  0  0  0  0  0  0
    7.5140    1.0460   -0.1860 C   0  0  0  0  0  0  0  0  0  0  0  0
    8.1690    0.3820    0.8570 C   0  0  0  0  0  0  0  0  0  0  0  0
    7.3980   -0.3570    1.7190 C   0  0  0  0  0  0  0  0  0  0  0  0
    6.0490   -0.4630    1.5950 C   0  0  0  0  0  0  0  0  0  0  0  0
    5.4300    0.2070    0.5510 C   0  0  0  0  0  0  0  0  0  0  0  0
    4.1860    0.2740    0.2100 O   0  0  0  0  0  0  0  0  0  0  0  0
  1  2  1  0
  2  3  2  3
  2 15  1  0
  3  4  1  0
  4  5  1  0
  5  6  1  0
  6  7  2  0
  6  8  1  0
  8  9  1  0
  9 10  2  0
  9 14  1  0
 10 11  1  0
 11 12  1  0
 12 13  1  0
 13 14  2  0
 15 16  2  0
 15 17  1  0
 17 18  1  0
 18 19  1  0
 19 20  2  0
 19 27  1  0
 20 21  1  0
 21 22  2  0
 21 26  1  0
 22 23  1  0
 23 24  2  0
 24 25  1  0
 25 26  2  0
 26 27  1  0
M  END
