
     RDKit          3D

 19 20  0  0  0  0  0  0  0  0999 V2000
    4.6630    1.4880    1.4470 C   0  0  0  0  0  0  0  0  0  0  0  0
    3.5030    1.0020    1.0690 C   0  0  0  0  0  0  0  0  0  0  0  0
    2.3610    1.4360    1.6820 N   0  0  0  0  0  0  0  0  0  0  0  0
    1.3620    0.7790    1.0940 C   0  0  0  0  0  0  0  0  0  0  0  0
    0.0250    0.6380    1.1010 N   0  0  0  0  0  0  0  0  0  0  0  0
   -0.3360   -0.2680    0.1610 C   0  0  0  0  0  0  0  0  0  0  0  0
   -1.7260   -0.6090   -0.0660 C   0  0  0  0  0  0  0  0  0  0  0  0
   -2.6920    0.4160   -0.0220 N   0  0  0  0  0  0  0  0  0  0  0  0
   -3.1820    1.0950   -1.1970 C   0  0  0  0  0  0  0  0  0  0  0  0
   -4.1810    2.1470   -0.7650 C   0  0  0  0  0  0  0  0  0  0  0  0
   -4.7040    2.8500   -1.8410 O   0  0  0  0  0  0  0  0  0  0  0  0
   -2.0790   -1.8360   -0.3120 C   0  0  0  0  0  0  0  0  0  0  0  0
   -3.4920   -2.2490   -0.5550 C   0  0  0  0  0  0  0  0  0  0  0  0
   -1.0210   -2.8890   -0.3480 C   0  0  0  0  0  0  0  0  0  0  0  0
    0.7700   -0.6850   -0.4240 N   0  0  0  0  0  0  0  0  0  0  0  0
    1.8170   -0.0630    0.1250 C   0  0  0  0  0  0  0  0  0  0  0  0
    3.2270    0.0820    0.1060 C   0  0  0  0  0  0  0  0  0  0  0  0
    3.9980   -0.5790   -0.7100 C   0  0  0  0  0  0  0  0  0  0  0  0
    5.4530   -0.5140   -0.8280 C   0  0  0  0  0  0  0  0  0  0  0  0
  1  2  2  0
  2  3  1  0
  2 17  1  0
  3  4  1  0
  4  5  1  0
  4 16  2  0
  5  6  1  0
  6  7  1  0
  6 15  2  0
  7  8  1  0
  7 12  2  3
  8  9  1  0
  9 10  1  0
 10 11  1  0
 12 13  1  0
 12 14  1  0
 15 16  1  0
 16 17  1  0
 17 18  2  3
 18 19  1  0
M  END
