
     RDKit          3D

 19 21  0  0  0  0  0  0  0  0999 V2000
    2.2340    1.2080    1.6370 C   0  0  0  0  0  0  0  0  0  0  0  0
    2.9670    0.2870    0.7230 C   0  0  0  0  0  0  0  0  0  0  0  0
    4.2760   -0.0320    0.9140 C   0  0  0  0  0  0  0  0  0  0  0  0
    4.9430   -0.9410    0.2100 N   0  0  0  0  0  0  0  0  0  0  0  0
    4.2780   -1.6120   -0.7840 C   0  0  0  0  0  0  0  0  0  0  0  0
    2.9490   -1.3190   -0.9970 C   0  0  0  0  0  0  0  0  0  0  0  0
    2.2170   -0.3660   -0.2830 C   0  0  0  0  0  0  0  0  0  0  0  0
    0.9350    0.1550   -0.6330 C   0  0  0  0  0  0  0  0  0  0  0  0
   -0.2670   -0.5300   -0.1590 N   0  0  0  0  0  0  0  0  0  0  0  0
   -1.4840    0.2390   -0.1270 C   0  0  0  0  0  0  0  0  0  0  0  0
   -1.5510    1.5890   -0.3450 C   0  0  0  0  0  0  0  0  0  0  0  0
   -2.7210    2.2890   -0.3120 C   0  0  0  0  0  0  0  0  0  0  0  0
   -3.8850    1.6620   -0.0600 C   0  0  0  0  0  0  0  0  0  0  0  0
   -3.8700    0.3320    0.1680 C   0  0  0  0  0  0  0  0  0  0  0  0
   -4.9110   -0.4960    0.4480 N   0  0  0  0  0  0  0  0  0  0  0  0
   -4.3560   -1.7240    0.5980 C   0  0  0  0  0  0  0  0  0  0  0  0
   -5.0230   -2.7470    0.8630 O   0  0  0  0  0  0  0  0  0  0  0  0
   -3.0370   -1.6890    0.4260 N   0  0  0  0  0  0  0  0  0  0  0  0
   -2.7160   -0.3690    0.1390 C   0  0  0  0  0  0  0  0  0  0  0  0
  1  2  1  0
  2  3  2  0
  2  7  1  0
  3  4  1  0
  4  5  2  0
  5  6  1  0
  6  7  2  0
  7  8  1  0
  8  9  1  0
  9 10  1  0
 10 11  2  0
 10 19  1  0
 11 12  1  0
 12 13  2  0
 13 14  1  0
 14 15  1  0
 14 19  2  0
 15 16  1  0
 16 17  2  0
 16 18  1  0
 18 19  1  0
M  CHG  1   4   1
M  END
