
     RDKit          3D

 20 22  0  0  0  0  0  0  0  0999 V2000
   -6.3360   -0.8510    0.3320 C   0  0  0  0  0  0  0  0  0  0  0  0
   -6.4620    0.5880   -0.1160 C   0  0  0  0  0  0  0  0  0  0  0  0
   -5.2490    1.5660    0.8200 S   0  0  0  0  0  0  0  0  0  0  0  0
   -3.6000    1.0610    0.3360 C   0  0  0  0  0  0  0  0  0  0  0  0
   -2.4510    1.5620    0.8160 N   0  0  0  0  0  0  0  0  0  0  0  0
   -1.4060    0.9290    0.2090 C   0  0  0  0  0  0  0  0  0  0  0  0
   -1.9100    0.0340   -0.6470 N   0  0  0  0  0  0  0  0  0  0  0  0
   -3.2360    0.1320   -0.5540 N   0  0  0  0  0  0  0  0  0  0  0  0
   -1.0760   -0.8390   -1.4850 C   0  0  0  0  0  0  0  0  0  0  0  0
    0.2660   -0.1500   -1.6110 C   0  0  0  0  0  0  0  0  0  0  0  0
    0.7910   -0.0030   -0.1850 C   0  0  1  0  0  0  0  0  0  0  0  0
    2.2490    0.2230   -0.2540 C   0  0  0  0  0  0  0  0  0  0  0  0
    3.0570   -0.6060    0.3760 C   0  0  0  0  0  0  0  0  0  0  0  0
    4.5010   -0.3890    0.3130 C   0  0  0  0  0  0  0  0  0  0  0  0
    5.1540    0.5880   -0.3310 N   0  0  0  0  0  0  0  0  0  0  0  0
    6.4840    0.4820   -0.1750 C   0  0  0  0  0  0  0  0  0  0  0  0
    6.6660   -0.6470    0.6250 C   0  0  0  0  0  0  0  0  0  0  0  0
    5.4450   -1.1900    0.9310 C   0  0  0  0  0  0  0  0  0  0  0  0
    5.0920   -2.5920    1.8900 Cl  0  0  0  0  0  0  0  0  0  0  0  0
    0.0540    1.1550    0.4270 C   0  0  0  0  0  0  0  0  0  0  0  0
  1  2  1  0
  2  3  1  0
  3  4  1  0
  4  5  1  0
  4  8  2  0
  5  6  2  0
  6  7  1  0
  6 20  1  0
  7  8  1  0
  7  9  1  0
  9 10  1  0
 10 11  1  0
 11 12  1  6
 11 20  1  0
 12 13  2  3
 13 14  1  0
 14 15  1  0
 14 18  2  0
 15 16  1  0
 16 17  2  0
 17 18  1  0
 18 19  1  0
M  END
