
     RDKit          3D

 27 29  0  0  0  0  0  0  0  0999 V2000
   -4.3870   -2.2930    1.9100 C   0  0  0  0  0  0  0  0  0  0  0  0
   -4.3350   -0.9100    2.2810 O   0  0  0  0  0  0  0  0  0  0  0  0
   -4.5770    0.0310    1.2970 C   0  0  0  0  0  0  0  0  0  0  0  0
   -5.7960    0.5580    0.9640 C   0  0  0  0  0  0  0  0  0  0  0  0
   -7.1200    0.2140    1.6060 C   0  0  0  0  0  0  0  0  0  0  0  0
   -5.6190    1.4000    0.0050 O   0  0  0  0  0  0  0  0  0  0  0  0
   -4.3510    1.5030   -0.3630 C   0  0  0  0  0  0  0  0  0  0  0  0
   -3.8220    2.3910   -1.4430 C   0  0  0  0  0  0  0  0  0  0  0  0
   -3.6480    0.6480    0.4340 C   0  0  0  0  0  0  0  0  0  0  0  0
   -2.2490    0.3300    0.5020 C   0  0  0  0  0  0  0  0  0  0  0  0
   -1.2960    0.8390   -0.2460 C   0  0  0  0  0  0  0  0  0  0  0  0
    0.1130    0.4020   -0.0500 C   0  0  0  0  0  0  0  0  0  0  0  0
    0.3410   -0.4490    0.8350 O   0  0  0  0  0  0  0  0  0  0  0  0
    1.1370    0.9320   -0.8350 N   0  0  0  0  0  0  0  0  0  0  0  0
    2.5070    0.6290   -0.7780 C   0  0  0  0  0  0  0  0  0  0  0  0
    3.0310   -0.2810    0.1130 C   0  0  0  0  0  0  0  0  0  0  0  0
    4.4190   -0.5270    0.1050 C   0  0  0  0  0  0  0  0  0  0  0  0
    4.9130   -1.4430    1.0080 C   0  0  0  0  0  0  0  0  0  0  0  0
    4.1110   -2.0060    1.7840 O   0  0  0  0  0  0  0  0  0  0  0  0
    6.2330   -1.7150    1.0400 N   0  0  0  0  0  0  0  0  0  0  0  0
    7.0620   -1.1050    0.2070 C   0  0  0  0  0  0  0  0  0  0  0  0
    6.6090   -0.1820   -0.7120 C   0  0  0  0  0  0  0  0  0  0  0  0
    5.2630    0.1220   -0.7750 C   0  0  0  0  0  0  0  0  0  0  0  0
    4.7290    1.0280   -1.6590 C   0  0  0  0  0  0  0  0  0  0  0  0
    5.5260    1.7010   -2.5550 O   0  0  0  0  0  0  0  0  0  0  0  0
    3.3510    1.2850   -1.6650 C   0  0  0  0  0  0  0  0  0  0  0  0
    2.8090    2.1970   -2.5540 O   0  0  0  0  0  0  0  0  0  0  0  0
  1  2  1  0
  2  3  1  0
  3  4  2  0
  3  9  1  0
  4  5  1  0
  4  6  1  0
  6  7  1  0
  7  8  1  0
  7  9  2  0
  9 10  1  0
 10 11  2  3
 11 12  1  0
 12 13  2  0
 12 14  1  0
 14 15  1  0
 15 16  2  0
 15 26  1  0
 16 17  1  0
 17 18  1  0
 17 23  2  0
 18 19  2  0
 18 20  1  0
 20 21  1  0
 21 22  2  0
 22 23  1  0
 23 24  1  0
 24 25  1  0
 24 26  2  0
 26 27  1  0
M  END
