
     RDKit          3D

 25 26  0  0  0  0  0  0  0  0999 V2000
   -3.3820    2.1500    3.2170 C   0  0  0  0  0  0  0  0  0  0  0  0
   -2.8070    2.1620    1.8500 C   0  0  0  0  0  0  0  0  0  0  0  0
   -2.4050    3.2430    1.3540 O   0  0  0  0  0  0  0  0  0  0  0  0
   -2.6790    1.0000    1.0470 N   0  0  0  0  0  0  0  0  0  0  0  0
   -2.1310    0.9940   -0.2620 C   0  0  1  0  0  0  0  0  0  0  0  0
   -0.9030    0.1250   -0.3150 C   0  0  1  0  0  0  0  0  0  0  0  0
   -0.3990   -0.2250    0.9940 N   0  0  0  0  0  0  0  0  0  0  0  0
    0.7800   -0.9060    0.8000 O   0  0  0  0  0  0  0  0  0  0  0  0
    1.9450   -0.1690    0.5820 C   0  0  0  0  0  0  0  0  0  0  0  0
    1.8450    1.0700    0.5760 O   0  0  0  0  0  0  0  0  0  0  0  0
    3.1720   -0.8510    0.3790 N   0  0  0  0  0  0  0  0  0  0  0  0
    4.3910   -0.2040    0.1480 C   0  0  0  0  0  0  0  0  0  0  0  0
    5.5480   -0.9960    0.1840 C   0  0  0  0  0  0  0  0  0  0  0  0
    6.8080   -0.4740   -0.0400 C   0  0  0  0  0  0  0  0  0  0  0  0
    6.9660    0.8680   -0.3100 C   0  0  0  0  0  0  0  0  0  0  0  0
    5.8560    1.6520   -0.3500 C   0  0  0  0  0  0  0  0  0  0  0  0
    4.5930    1.1130   -0.1220 C   0  0  0  0  0  0  0  0  0  0  0  0
   -1.1010   -1.0600   -1.0120 O   0  0  0  0  0  0  0  0  0  0  0  0
   -2.2490   -1.7280   -0.6720 C   0  0  2  0  0  0  0  0  0  0  0  0
   -2.2000   -3.0830   -1.3880 C   0  0  0  0  0  0  0  0  0  0  0  0
   -2.1360   -2.8210   -2.7530 O   0  0  0  0  0  0  0  0  0  0  0  0
   -3.4280   -0.9520   -1.1810 C   0  0  1  0  0  0  0  0  0  0  0  0
   -4.5480   -1.1390   -0.3760 O   0  0  0  0  0  0  0  0  0  0  0  0
   -3.0660    0.4970   -1.3360 C   0  0  2  0  0  0  0  0  0  0  0  0
   -2.3280    0.5930   -2.5430 O   0  0  0  0  0  0  0  0  0  0  0  0
  1  2  1  0
  2  3  2  0
  2  4  1  0
  5  4  1  1
  5  6  1  0
  5 24  1  0
  6  7  1  1
  6 18  1  0
  7  8  1  0
  8  9  1  0
  9 10  2  0
  9 11  1  0
 11 12  1  0
 12 13  2  0
 12 17  1  0
 13 14  1  0
 14 15  2  0
 15 16  1  0
 16 17  2  0
 18 19  1  0
 19 20  1  6
 19 22  1  0
 20 21  1  0
 22 23  1  1
 22 24  1  0
 24 25  1  6
M  CHG  1   7   1
M  END
