
     RDKit          3D

 20 22  0  0  0  0  0  0  0  0999 V2000
   -4.9420    0.1330    1.0110 C   0  0  0  0  0  0  0  0  0  0  0  0
   -4.3240   -0.2580   -0.2300 N   0  0  0  0  0  0  0  0  0  0  0  0
   -5.1110   -0.5420   -1.2940 N   0  0  0  0  0  0  0  0  0  0  0  0
   -4.3850   -0.7970   -2.3560 N   0  0  0  0  0  0  0  0  0  0  0  0
   -3.1100   -0.6860   -2.0080 C   0  0  0  0  0  0  0  0  0  0  0  0
   -3.0700   -0.3430   -0.6430 C   0  0  0  0  0  0  0  0  0  0  0  0
   -1.8190   -0.0450    0.0140 C   0  0  0  0  0  0  0  0  0  0  0  0
   -0.7750    0.4850   -0.7820 C   0  0  0  0  0  0  0  0  0  0  0  0
    0.4740    0.7550   -0.3200 C   0  0  0  0  0  0  0  0  0  0  0  0
    1.4850    1.2940   -1.1710 N   0  0  0  0  0  0  0  0  0  0  0  0
    2.8210    1.5550   -0.7340 C   0  0  0  0  0  0  0  0  0  0  0  0
    3.5220    0.3510   -0.2920 C   0  0  0  0  0  0  0  0  0  0  0  0
    4.7280    0.1340    0.2760 C   0  0  0  0  0  0  0  0  0  0  0  0
    5.1300   -1.1070    0.5840 C   0  0  0  0  0  0  0  0  0  0  0  0
    4.2750   -2.1630    0.3040 C   0  0  0  0  0  0  0  0  0  0  0  0
    2.8480   -1.3410   -0.4250 S   0  0  0  0  0  0  0  0  0  0  0  0
    0.7010    0.4830    1.0150 C   0  0  0  0  0  0  0  0  0  0  0  0
   -0.2660   -0.0300    1.8280 C   0  0  0  0  0  0  0  0  0  0  0  0
   -1.5360   -0.2970    1.3210 C   0  0  0  0  0  0  0  0  0  0  0  0
   -2.6920   -1.0980    2.4220 Cl  0  0  0  0  0  0  0  0  0  0  0  0
  1  2  1  0
  2  3  1  0
  2  6  1  0
  3  4  2  0
  4  5  1  0
  5  6  2  0
  6  7  1  0
  7  8  2  0
  7 19  1  0
  8  9  1  0
  9 10  1  0
  9 17  2  0
 10 11  1  0
 11 12  1  0
 12 13  2  0
 12 16  1  0
 13 14  1  0
 14 15  2  0
 15 16  1  0
 17 18  1  0
 18 19  2  0
 19 20  1  0
M  END
