
     RDKit          3D

 27 30  0  0  0  0  0  0  0  0999 V2000
    0.0300   -3.5840    0.4070 N   0  0  0  0  0  0  0  0  0  0  0  0
    0.7620   -2.3560    0.2860 C   0  0  0  0  0  0  0  0  0  0  0  0
    2.1360   -2.3600    0.2730 C   0  0  0  0  0  0  0  0  0  0  0  0
    2.9010   -1.2210    0.1590 C   0  0  0  0  0  0  0  0  0  0  0  0
    2.2460   -0.0230    0.0540 C   0  0  0  0  0  0  0  0  0  0  0  0
    2.9270    1.1470   -0.0620 O   0  0  0  0  0  0  0  0  0  0  0  0
    4.3010    1.2800   -0.0880 C   0  0  0  0  0  0  0  0  0  0  0  0
    4.8950    1.3710   -1.2580 C   0  0  0  0  0  0  0  0  0  0  0  0
    6.3950    1.5140   -1.2150 C   0  0  0  0  0  0  0  0  0  0  0  0
    6.8590    0.5990   -0.1060 C   0  0  0  0  0  0  0  0  0  0  0  0
    6.3390    0.8920    1.1200 O   0  0  0  0  0  0  0  0  0  0  0  0
    5.0450    1.3160    1.1600 C   0  0  0  0  0  0  0  0  0  0  0  0
    0.8670   -0.0100    0.0660 C   0  0  0  0  0  0  0  0  0  0  0  0
    0.1090   -1.1410    0.1790 C   0  0  0  0  0  0  0  0  0  0  0  0
   -1.3640   -1.1250    0.1920 C   0  0  0  0  0  0  0  0  0  0  0  0
   -1.9390   -2.2600    0.3030 O   0  0  0  0  0  0  0  0  0  0  0  0
   -2.0660    0.0750    0.0860 N   0  0  0  0  0  0  0  0  0  0  0  0
   -3.4770    0.1370    0.1020 C   0  0  0  0  0  0  0  0  0  0  0  0
   -4.3160   -0.8630    0.5010 C   0  0  0  0  0  0  0  0  0  0  0  0
   -5.7090   -0.7140    0.4630 C   0  0  0  0  0  0  0  0  0  0  0  0
   -6.5420   -1.7460    0.8730 O   0  0  0  0  0  0  0  0  0  0  0  0
   -6.2860    0.4510    0.0200 C   0  0  0  0  0  0  0  0  0  0  0  0
   -5.4700    1.4610   -0.3820 C   0  0  0  0  0  0  0  0  0  0  0  0
   -4.1150    1.3190   -0.3460 C   0  0  0  0  0  0  0  0  0  0  0  0
   -6.2800    2.5090   -0.7750 O   0  0  0  0  0  0  0  0  0  0  0  0
   -7.6460    2.1390   -0.6640 C   0  0  0  0  0  0  0  0  0  0  0  0
   -7.6240    0.8410   -0.1120 O   0  0  0  0  0  0  0  0  0  0  0  0
  1  2  1  0
  2  3  2  0
  2 14  1  0
  3  4  1  0
  4  5  2  0
  5  6  1  0
  5 13  1  0
  6  7  1  0
  7  8  2  0
  7 12  1  0
  8  9  1  0
  9 10  1  0
 10 11  1  0
 11 12  1  0
 13 14  2  0
 14 15  1  0
 15 16  2  0
 15 17  1  0
 17 18  1  0
 18 19  2  0
 18 24  1  0
 19 20  1  0
 20 21  1  0
 20 22  2  0
 22 23  1  0
 22 27  1  0
 23 24  2  0
 23 25  1  0
 25 26  1  0
 26 27  1  0
M  END
