
     RDKit          3D

 22 22  0  0  0  0  0  0  0  0999 V2000
    1.8050    4.9680    0.3730 C   0  0  0  0  0  0  0  0  0  0  0  0
    0.3680    4.7550    0.2840 C   0  0  0  0  0  0  0  0  0  0  0  0
   -0.1130    3.4720    0.2190 C   0  0  0  0  0  0  0  0  0  0  0  0
    0.8690    2.4660    0.2470 C   0  0  0  0  0  0  0  0  0  0  0  0
    0.6670    1.1330    0.1970 C   0  0  0  0  0  0  0  0  0  0  0  0
    1.9030    0.3560    0.2450 C   0  0  0  0  0  0  0  0  0  0  0  0
    2.9880    1.0570    0.3280 O   0  0  0  0  0  0  0  0  0  0  0  0
    2.1030   -1.0140    0.2180 N   0  0  0  0  0  0  0  0  0  0  0  0
    3.4300   -1.6270    0.2760 C   0  0  2  0  0  0  0  0  0  0  0  0
    4.1280   -1.2460    1.5460 C   0  0  0  0  0  0  0  0  0  0  0  0
    4.2930   -1.1690   -0.8780 C   0  0  0  0  0  0  0  0  0  0  0  0
    3.2670   -3.0930    0.1490 C   0  0  0  0  0  0  0  0  0  0  0  0
    2.1580   -3.5830    0.0220 O   0  0  0  0  0  0  0  0  0  0  0  0
   -0.6810    0.6690    0.1060 C   0  0  0  0  0  0  0  0  0  0  0  0
   -1.6170    1.5620    0.0780 O   0  0  0  0  0  0  0  0  0  0  0  0
   -1.2050   -0.6250    0.0380 N   0  0  0  0  0  0  0  0  0  0  0  0
   -2.6340   -0.9090   -0.0520 C   0  0  2  0  0  0  0  0  0  0  0  0
   -3.2910   -0.3350    1.1630 C   0  0  0  0  0  0  0  0  0  0  0  0
   -2.9100   -2.3840   -0.1410 C   0  0  0  0  0  0  0  0  0  0  0  0
   -4.3680   -2.4010   -0.5770 C   0  0  0  0  0  0  0  0  0  0  0  0
   -4.6010   -1.1210   -1.3160 C   0  0  0  0  0  0  0  0  0  0  0  0
   -3.2700   -0.3580   -1.2730 C   0  0  0  0  0  0  0  0  0  0  0  0
  1  2  1  0
  2  3  2  3
  3  4  1  0
  4  5  2  3
  5  6  1  0
  5 14  1  0
  6  7  2  0
  6  8  1  0
  8  9  1  0
  9 10  1  1
  9 11  1  0
  9 12  1  0
 12 13  2  0
 14 15  2  0
 14 16  1  0
 16 17  1  0
 17 18  1  1
 17 19  1  0
 17 22  1  0
 19 20  1  0
 20 21  1  0
 21 22  1  0
M  END
