
     RDKit          3D

 22 22  0  0  0  0  0  0  0  0999 V2000
   -4.6460   -0.0420    2.3520 C   0  0  0  0  0  0  0  0  0  0  0  0
   -4.1690   -0.4780    0.9530 C   0  0  1  0  0  0  0  0  0  0  0  0
   -4.0830   -1.9800    0.9110 C   0  0  0  0  0  0  0  0  0  0  0  0
   -5.2330   -0.0520   -0.0310 C   0  0  0  0  0  0  0  0  0  0  0  0
   -2.8360    0.1840    0.7440 C   0  0  0  0  0  0  0  0  0  0  0  0
   -2.1990   -0.0830   -0.4650 N   0  0  0  0  0  0  0  0  0  0  0  0
   -2.6590    0.3830   -1.6840 C   0  0  0  0  0  0  0  0  0  0  0  0
   -1.6340    1.0530   -2.5700 C   0  0  0  0  0  0  0  0  0  0  0  0
   -0.2830    0.4470   -2.5170 C   0  0  0  0  0  0  0  0  0  0  0  0
    0.1500   -0.0570   -1.1850 C   0  0  1  0  0  0  0  0  0  0  0  0
    0.7260    1.0130   -0.2880 C   0  0  0  0  0  0  0  0  0  0  0  0
    1.8990    1.6780   -0.8190 C   0  0  0  0  0  0  0  0  0  0  0  0
    1.7480    2.7040   -1.5280 O   0  0  0  0  0  0  0  0  0  0  0  0
    3.2430    1.2150   -0.5720 C   0  0  0  0  0  0  0  0  0  0  0  0
    3.6000    0.1680    0.1330 C   0  0  0  0  0  0  0  0  0  0  0  0
    2.6990   -0.6580    0.7510 O   0  0  0  0  0  0  0  0  0  0  0  0
    2.6870   -1.0340    2.0520 N   0  0  0  0  0  0  0  0  0  0  0  0
    5.0460   -0.1980    0.3080 C   0  0  1  0  0  0  0  0  0  0  0  0
    5.9440    0.7640   -0.4410 C   0  0  0  0  0  0  0  0  0  0  0  0
    5.3420   -0.1980    1.7840 C   0  0  0  0  0  0  0  0  0  0  0  0
    5.2060   -1.4640   -0.2460 O   0  0  0  0  0  0  0  0  0  0  0  0
   -0.9450   -0.7480   -0.4170 C   0  0  0  0  0  0  0  0  0  0  0  0
  2  1  1  1
  2  3  1  0
  2  4  1  0
  2  5  1  0
  5  6  1  0
  6  7  1  0
  6 22  1  0
  7  8  1  0
  8  9  1  0
  9 10  1  0
 10 11  1  1
 10 22  1  0
 11 12  1  0
 12 13  2  0
 12 14  1  0
 14 15  2  3
 15 16  1  0
 15 18  1  0
 16 17  1  0
 18 19  1  6
 18 20  1  0
 18 21  1  0
M  END
