
     RDKit          3D

 25 26  0  0  0  0  0  0  0  0999 V2000
   -2.8690    4.3200    0.5400 C   0  0  0  0  0  0  0  0  0  0  0  0
   -2.9790    2.9440   -0.0140 C   0  0  0  0  0  0  0  0  0  0  0  0
   -3.6140    2.8330   -1.1170 O   0  0  0  0  0  0  0  0  0  0  0  0
   -2.4220    1.8020    0.6220 N   0  0  0  0  0  0  0  0  0  0  0  0
   -2.5340    0.4880    0.0810 C   0  0  1  0  0  0  0  0  0  0  0  0
   -1.1840   -0.0930   -0.2910 C   0  0  1  0  0  0  0  0  0  0  0  0
   -0.2770    0.0450    0.8100 N   0  0  0  0  0  0  0  0  0  0  0  0
    0.8710   -0.6450    0.7210 O   0  0  0  0  0  0  0  0  0  0  0  0
    2.0930   -0.0490    0.3730 C   0  0  0  0  0  0  0  0  0  0  0  0
    2.0220    1.1550    0.1570 O   0  0  0  0  0  0  0  0  0  0  0  0
    3.2870   -0.7420    0.2750 N   0  0  0  0  0  0  0  0  0  0  0  0
    4.5480   -0.2280   -0.0590 C   0  0  0  0  0  0  0  0  0  0  0  0
    4.7780    1.1160   -0.1300 C   0  0  0  0  0  0  0  0  0  0  0  0
    6.0180    1.6760   -0.4720 C   0  0  0  0  0  0  0  0  0  0  0  0
    7.0440    0.8210   -0.7480 C   0  0  0  0  0  0  0  0  0  0  0  0
    6.8300   -0.5430   -0.6820 C   0  0  0  0  0  0  0  0  0  0  0  0
    5.6140   -1.0770   -0.3460 C   0  0  0  0  0  0  0  0  0  0  0  0
   -1.2900   -1.3560   -0.8070 O   0  0  0  0  0  0  0  0  0  0  0  0
   -2.0080   -2.2620   -0.0840 C   0  0  2  0  0  0  0  0  0  0  0  0
   -2.0330   -3.5690   -0.8480 C   0  0  0  0  0  0  0  0  0  0  0  0
   -2.6200   -3.4310   -2.0990 O   0  0  0  0  0  0  0  0  0  0  0  0
   -3.4370   -1.7570    0.1580 C   0  0  2  0  0  0  0  0  0  0  0  0
   -4.0450   -1.4420   -1.0640 O   0  0  0  0  0  0  0  0  0  0  0  0
   -3.2540   -0.4770    0.9720 C   0  0  2  0  0  0  0  0  0  0  0  0
   -4.4780    0.0040    1.4170 O   0  0  0  0  0  0  0  0  0  0  0  0
  1  2  1  0
  2  3  2  0
  2  4  1  0
  5  4  1  1
  5  6  1  0
  5 24  1  0
  6  7  1  1
  6 18  1  0
  7  8  1  0
  8  9  1  0
  9 10  2  0
  9 11  1  0
 11 12  1  0
 12 13  2  0
 12 17  1  0
 13 14  1  0
 14 15  2  0
 15 16  1  0
 16 17  2  0
 18 19  1  0
 19 20  1  6
 19 22  1  0
 20 21  1  0
 22 23  1  6
 22 24  1  0
 24 25  1  6
M  CHG  1   7   1
M  END
