
     RDKit          3D

 22 22  0  0  0  0  0  0  0  0999 V2000
    6.4880    1.4240    0.9420 C   0  0  0  0  0  0  0  0  0  0  0  0
    5.0020    1.7280    0.8320 C   0  0  0  0  0  0  0  0  0  0  0  0
    4.1940    0.6290    1.3710 C   0  0  0  0  0  0  0  0  0  0  0  0
    4.3850    0.2650    2.8170 C   0  0  0  0  0  0  0  0  0  0  0  0
    3.3370   -0.0170    0.6360 C   0  0  0  0  0  0  0  0  0  0  0  0
    3.0280    0.1970   -0.7560 C   0  0  0  0  0  0  0  0  0  0  0  0
    2.1070   -0.5750   -1.3520 C   0  0  0  0  0  0  0  0  0  0  0  0
    1.4390   -1.5950   -0.6190 N   0  0  0  0  0  0  0  0  0  0  0  0
    0.0220   -1.6400   -0.6510 C   0  0  0  0  0  0  0  0  0  0  0  0
   -0.6960   -0.3800   -0.4320 C   0  0  0  0  0  0  0  0  0  0  0  0
   -0.0830    0.6980   -0.2250 O   0  0  0  0  0  0  0  0  0  0  0  0
   -2.0830   -0.2850   -0.4380 O   0  0  0  0  0  0  0  0  0  0  0  0
   -2.7870    0.9150   -0.2290 C   0  0  1  0  0  0  0  0  0  0  0  0
   -3.8730    1.2080   -1.2420 C   0  0  0  0  0  0  0  0  0  0  0  0
   -4.6670    1.7980   -0.0680 C   0  0  1  0  0  0  0  0  0  0  0  0
   -6.0710    1.5710   -0.1320 N   0  0  0  0  0  0  0  0  0  0  0  0
   -6.9680    2.6650   -0.0020 C   0  0  0  0  0  0  0  0  0  0  0  0
   -6.5370    3.8430    0.1690 O   0  0  0  0  0  0  0  0  0  0  0  0
   -3.8860    0.8340    0.8120 C   0  0  0  0  0  0  0  0  0  0  0  0
   -0.6030   -2.7780   -0.8700 C   0  0  0  0  0  0  0  0  0  0  0  0
   -2.0800   -2.7950   -0.8970 C   0  0  0  0  0  0  0  0  0  0  0  0
    0.1810   -4.0140   -1.0830 C   0  0  0  0  0  0  0  0  0  0  0  0
  1  2  1  0
  2  3  1  0
  3  4  1  0
  3  5  2  3
  5  6  1  0
  6  7  2  3
  7  8  1  0
  8  9  1  0
  9 10  1  0
  9 20  2  3
 10 11  2  0
 10 12  1  0
 13 12  1  6
 13 14  1  0
 13 19  1  0
 14 15  1  0
 15 16  1  6
 15 19  1  0
 16 17  1  0
 17 18  2  0
 20 21  1  0
 20 22  1  0
M  END
