
     RDKit          3D

 22 22  0  0  0  0  0  0  0  0999 V2000
    6.6250   -0.0740   -3.7300 C   0  0  0  0  0  0  0  0  0  0  0  0
    6.0420   -0.8100   -2.6640 O   0  0  0  0  0  0  0  0  0  0  0  0
    5.0800   -0.2340   -1.8650 C   0  0  0  0  0  0  0  0  0  0  0  0
    4.7470    0.9500   -2.1170 O   0  0  0  0  0  0  0  0  0  0  0  0
    4.4410   -0.9580   -0.7410 C   0  0  0  0  0  0  0  0  0  0  0  0
    3.4780   -0.1050   -0.0900 N   0  0  0  0  0  0  0  0  0  0  0  0
    2.7090   -0.5340    1.0260 C   0  0  0  0  0  0  0  0  0  0  0  0
    2.8810   -1.6970    1.4520 O   0  0  0  0  0  0  0  0  0  0  0  0
    1.7640    0.3100    1.6610 N   0  0  0  0  0  0  0  0  0  0  0  0
    0.9540   -0.0710    2.7950 C   0  0  0  0  0  0  0  0  0  0  0  0
    0.0570   -1.2460    2.5110 C   0  0  0  0  0  0  0  0  0  0  0  0
   -0.8740   -0.9330    1.3690 C   0  0  0  0  0  0  0  0  0  0  0  0
   -1.7630    0.2530    1.6740 C   0  0  0  0  0  0  0  0  0  0  0  0
   -2.6900    0.5740    0.5990 C   0  0  0  0  0  0  0  0  0  0  0  0
   -2.5850    1.7750    0.0570 C   0  0  0  0  0  0  0  0  0  0  0  0
   -1.5450    2.6270    0.6130 C   0  0  0  0  0  0  0  0  0  0  0  0
   -3.4080    2.3330   -1.0430 C   0  0  0  0  0  0  0  0  0  0  0  0
   -4.0930    1.6960   -1.9720 C   0  0  0  0  0  0  0  0  0  0  0  0
   -4.2290    0.2560   -2.1700 C   0  0  0  0  0  0  0  0  0  0  0  0
   -4.2850   -0.5710   -0.9570 C   0  0  0  0  0  0  0  0  0  0  0  0
   -3.6470   -0.4530    0.2150 C   0  0  0  0  0  0  0  0  0  0  0  0
   -3.9570   -1.4700    1.1910 C   0  0  0  0  0  0  0  0  0  0  0  0
  1  2  1  0
  2  3  1  0
  3  4  2  0
  3  5  1  0
  5  6  1  0
  6  7  1  0
  7  8  2  0
  7  9  1  0
  9 10  1  0
 10 11  1  0
 11 12  1  0
 12 13  1  0
 13 14  1  0
 14 15  2  0
 14 21  1  0
 15 16  1  0
 15 17  1  0
 17 18  2  0
 18 19  1  0
 19 20  1  0
 20 21  2  0
 21 22  1  0
M  END
