
     RDKit          3D

 20 22  0  0  0  0  0  0  0  0999 V2000
   -4.5330    2.7650   -0.1070 C   0  0  0  0  0  0  0  0  0  0  0  0
   -3.2620    2.0310    0.0950 C   0  0  0  0  0  0  0  0  0  0  0  0
   -3.3130    0.7190    0.3780 C   0  0  0  0  0  0  0  0  0  0  0  0
   -4.5430   -0.0960    0.5140 C   0  0  0  0  0  0  0  0  0  0  0  0
   -4.0380   -1.4420    0.8240 C   0  0  0  0  0  0  0  0  0  0  0  0
   -2.7170   -1.4490    0.8690 C   0  0  0  0  0  0  0  0  0  0  0  0
   -2.2130   -0.1530    0.6040 N   0  0  0  0  0  0  0  0  0  0  0  0
   -0.8480    0.2600    0.5500 C   0  0  0  0  0  0  0  0  0  0  0  0
   -0.0660   -0.2950   -0.4920 N   0  0  0  0  0  0  0  0  0  0  0  0
    0.0860   -1.7010   -0.5410 C   0  0  0  0  0  0  0  0  0  0  0  0
    0.6930   -2.3100    0.6850 C   0  0  0  0  0  0  0  0  0  0  0  0
    2.1790   -2.4660    0.5210 C   0  0  0  0  0  0  0  0  0  0  0  0
    2.7760   -1.3710   -0.1820 N   0  0  0  0  0  0  0  0  0  0  0  0
    2.2760   -0.0930    0.2150 C   0  0  1  0  0  0  0  0  0  0  0  0
    3.3990    0.8830    0.1280 C   0  0  0  0  0  0  0  0  0  0  0  0
    4.3070    1.0150   -0.8990 C   0  0  0  0  0  0  0  0  0  0  0  0
    5.1470    2.0610   -0.5030 C   0  0  0  0  0  0  0  0  0  0  0  0
    4.7590    2.5040    0.6610 O   0  0  0  0  0  0  0  0  0  0  0  0
    3.7240    1.8300    1.0710 C   0  0  0  0  0  0  0  0  0  0  0  0
    1.1730    0.4330   -0.6760 C   0  0  0  0  0  0  0  0  0  0  0  0
  1  2  1  0
  2  3  2  3
  3  4  1  0
  3  7  1  0
  4  5  1  0
  5  6  2  0
  6  7  1  0
  7  8  1  0
  8  9  1  0
  9 10  1  0
  9 20  1  0
 10 11  1  0
 11 12  1  0
 12 13  1  0
 13 14  1  0
 14 15  1  6
 14 20  1  0
 15 16  1  0
 15 19  2  0
 16 17  2  0
 17 18  1  0
 18 19  1  0
M  CHG  1  13   1
M  END
