
     RDKit          3D

 20 22  0  0  0  0  0  0  0  0999 V2000
   -3.0630   -0.7000   -1.6410 C   0  0  0  0  0  0  0  0  0  0  0  0
   -3.6050    0.3340   -0.7870 N   0  0  1  0  0  0  0  0  0  0  0  0
   -4.6990   -0.2370   -0.0480 C   0  0  0  0  0  0  0  0  0  0  0  0
   -2.6210    0.9160    0.0400 C   0  0  0  0  0  0  0  0  0  0  0  0
   -2.9870    1.9190    0.9120 C   0  0  0  0  0  0  0  0  0  0  0  0
   -2.0550    2.5160    1.7390 C   0  0  0  0  0  0  0  0  0  0  0  0
   -0.7410    2.0450    1.6380 C   0  0  0  0  0  0  0  0  0  0  0  0
   -0.3630    1.0470    0.7750 C   0  0  0  0  0  0  0  0  0  0  0  0
    1.0120    0.5510    0.6670 C   0  0  0  0  0  0  0  0  0  0  0  0
    1.3030   -0.4610   -0.2340 C   0  0  0  0  0  0  0  0  0  0  0  0
    2.5890   -0.9590   -0.3680 C   0  0  0  0  0  0  0  0  0  0  0  0
    2.8580   -1.9730   -1.2760 C   0  0  0  0  0  0  0  0  0  0  0  0
    4.1350   -2.4650   -1.4080 C   0  0  0  0  0  0  0  0  0  0  0  0
    5.1280   -1.9270   -0.6200 C   0  0  0  0  0  0  0  0  0  0  0  0
    4.9000   -0.9220    0.2900 C   0  0  0  0  0  0  0  0  0  0  0  0
    3.6020   -0.4390    0.4080 C   0  0  0  0  0  0  0  0  0  0  0  0
    3.2980    0.5660    1.2970 C   0  0  0  0  0  0  0  0  0  0  0  0
    4.2390    1.0200    1.9890 O   0  0  0  0  0  0  0  0  0  0  0  0
    2.0330    1.0170    1.3920 N   0  0  0  0  0  0  0  0  0  0  0  0
   -1.3420    0.5070   -0.0100 N   0  0  0  0  0  0  0  0  0  0  0  0
  2  1  1  1
  2  3  1  0
  2  4  1  0
  4  5  2  0
  4 20  1  0
  5  6  1  0
  6  7  2  0
  7  8  1  0
  8  9  1  0
  8 20  2  0
  9 10  2  0
  9 19  1  0
 10 11  1  0
 11 12  2  0
 11 16  1  0
 12 13  1  0
 13 14  2  0
 14 15  1  0
 15 16  2  0
 16 17  1  0
 17 18  2  0
 17 19  1  0
M  CHG  1   2   1
M  END
