
     RDKit          3D

 20 22  0  0  0  0  0  0  0  0999 V2000
   -1.7210   -0.0230    3.0640 C   0  0  0  0  0  0  0  0  0  0  0  0
   -2.7610    0.2470    2.1140 N   0  0  0  0  0  0  0  0  0  0  0  0
   -2.3240    0.4820    0.7760 C   0  0  2  0  0  0  0  0  0  0  0  0
   -2.3110   -0.8490    0.0500 C   0  0  0  0  0  0  0  0  0  0  0  0
   -1.8780   -0.6970   -1.3920 C   0  0  2  0  0  0  0  0  0  0  0  0
   -2.6360    0.3710   -2.1220 C   0  0  0  0  0  0  0  0  0  0  0  0
   -2.1320   -2.0100   -2.0780 C   0  0  0  0  0  0  0  0  0  0  0  0
   -0.4050   -0.3460   -1.3630 C   0  0  0  0  0  0  0  0  0  0  0  0
   -0.1130    0.6920   -0.3410 C   0  0  0  0  0  0  0  0  0  0  0  0
   -0.9880    1.0760    0.6420 C   0  0  0  0  0  0  0  0  0  0  0  0
   -0.3670    2.0450    1.3820 C   0  0  0  0  0  0  0  0  0  0  0  0
    0.8430    2.2440    0.8670 N   0  0  0  0  0  0  0  0  0  0  0  0
    0.9840    1.4310   -0.1610 N   0  0  0  0  0  0  0  0  0  0  0  0
    2.1870    1.3450   -1.0010 C   0  0  0  0  0  0  0  0  0  0  0  0
    3.1300    0.3320   -0.4470 C   0  0  0  0  0  0  0  0  0  0  0  0
    2.7850   -0.2980    0.6360 C   0  0  0  0  0  0  0  0  0  0  0  0
    3.6540   -1.3140    1.2540 C   0  0  0  0  0  0  0  0  0  0  0  0
    4.8430   -1.4990    0.5500 O   0  0  0  0  0  0  0  0  0  0  0  0
    5.1910   -0.8310   -0.5820 C   0  0  0  0  0  0  0  0  0  0  0  0
    4.3960    0.0800   -1.1240 C   0  0  0  0  0  0  0  0  0  0  0  0
  1  2  1  0
  3  2  1  1
  3  4  1  0
  3 10  1  0
  4  5  1  0
  5  6  1  6
  5  7  1  0
  5  8  1  0
  8  9  1  0
  9 10  2  0
  9 13  1  0
 10 11  1  0
 11 12  2  0
 12 13  1  0
 13 14  1  0
 14 15  1  0
 15 16  2  0
 15 20  1  0
 16 17  1  0
 17 18  1  0
 18 19  1  0
 19 20  2  0
M  CHG  1   2   1
M  END
