
     RDKit          3D

 20 23  0  0  0  0  0  0  0  0999 V2000
   -0.2500   -1.5550    0.5530 C   0  0  0  0  0  0  0  0  0  0  0  0
   -1.5470   -2.0220    0.7660 C   0  0  0  0  0  0  0  0  0  0  0  0
   -2.5920   -1.1910    0.4500 C   0  0  0  0  0  0  0  0  0  0  0  0
   -2.3380    0.0640   -0.0620 C   0  0  0  0  0  0  0  0  0  0  0  0
   -1.0470    0.5050   -0.2640 C   0  0  0  0  0  0  0  0  0  0  0  0
    0.0180   -0.3100    0.0450 C   0  0  0  0  0  0  0  0  0  0  0  0
    1.3880    0.1310   -0.1590 C   0  0  0  0  0  0  0  0  0  0  0  0
    1.6620    1.3480   -0.6560 N   0  0  0  0  0  0  0  0  0  0  0  0
    2.9160    1.7860   -0.8560 C   0  0  0  0  0  0  0  0  0  0  0  0
    3.9890    0.9750   -0.5490 C   0  0  0  0  0  0  0  0  0  0  0  0
    3.7300   -0.2740   -0.0400 C   0  0  0  0  0  0  0  0  0  0  0  0
    2.4320   -0.6570    0.1390 N   0  0  0  0  0  0  0  0  0  0  0  0
    5.0230   -0.9480    0.2030 C   0  0  0  0  0  0  0  0  0  0  0  0
    5.9790    0.2050    0.3950 C   0  0  0  0  0  0  0  0  0  0  0  0
    5.4750    1.1850   -0.6570 C   0  0  0  0  0  0  0  0  0  0  0  0
   -3.3120    1.1130   -0.4670 C   0  0  0  0  0  0  0  0  0  0  0  0
   -4.5450    0.4380   -0.8220 N   0  0  0  0  0  0  0  0  0  0  0  0
   -5.3750    0.1280    0.2890 C   0  0  0  0  0  0  0  0  0  0  0  0
   -5.0860   -1.1470    0.9840 C   0  0  0  0  0  0  0  0  0  0  0  0
   -3.8530   -1.7280    0.6910 O   0  0  0  0  0  0  0  0  0  0  0  0
  1  2  2  0
  1  6  1  0
  2  3  1  0
  3  4  2  0
  3 20  1  0
  4  5  1  0
  4 16  1  0
  5  6  2  0
  6  7  1  0
  7  8  2  0
  7 12  1  0
  8  9  1  0
  9 10  2  0
 10 11  1  0
 10 15  1  0
 11 12  2  0
 11 13  1  0
 13 14  1  0
 14 15  1  0
 16 17  1  0
 17 18  1  0
 18 19  1  0
 19 20  1  0
M  CHG  1  17   1
M  END
