
     RDKit          3D

 20 23  0  0  0  0  0  0  0  0999 V2000
    5.6020    2.0580   -0.5780 C   0  0  0  0  0  0  0  0  0  0  0  0
    4.4490    2.7470   -0.9060 C   0  0  0  0  0  0  0  0  0  0  0  0
    3.2570    2.1340   -0.8800 N   0  0  0  0  0  0  0  0  0  0  0  0
    3.1000    0.8440   -0.5440 C   0  0  0  0  0  0  0  0  0  0  0  0
    4.2200    0.1140   -0.2080 C   0  0  0  0  0  0  0  0  0  0  0  0
    5.4700    0.7310   -0.2280 C   0  0  0  0  0  0  0  0  0  0  0  0
    3.7950   -1.1260    0.0820 N   0  0  0  0  0  0  0  0  0  0  0  0
    2.4710   -1.2570   -0.0410 C   0  0  0  0  0  0  0  0  0  0  0  0
    1.5820   -2.2990    0.1390 C   0  0  0  0  0  0  0  0  0  0  0  0
    0.2440   -2.0810   -0.0820 C   0  0  0  0  0  0  0  0  0  0  0  0
   -0.2330   -0.8530   -0.4770 C   0  0  0  0  0  0  0  0  0  0  0  0
   -1.6830   -0.6230   -0.7150 C   0  0  0  0  0  0  0  0  0  0  0  0
   -2.3220   -0.1860    0.5180 N   0  0  2  0  0  0  0  0  0  0  0  0
   -3.3400   -1.1190    0.9510 C   0  0  0  0  0  0  0  0  0  0  0  0
   -4.6010   -0.8690    0.1530 C   0  0  0  0  0  0  0  0  0  0  0  0
   -5.1870    0.2900    0.6200 O   0  0  0  0  0  0  0  0  0  0  0  0
   -4.2680    1.2110    1.0810 C   0  0  0  0  0  0  0  0  0  0  0  0
   -2.9320    1.1050    0.3370 C   0  0  0  0  0  0  0  0  0  0  0  0
    0.6610    0.1810   -0.6540 C   0  0  0  0  0  0  0  0  0  0  0  0
    2.0120    0.0030   -0.4430 C   0  0  0  0  0  0  0  0  0  0  0  0
  1  2  2  0
  1  6  1  0
  2  3  1  0
  3  4  2  0
  4  5  1  0
  4 20  1  0
  5  6  2  0
  5  7  1  0
  7  8  1  0
  8  9  2  0
  8 20  1  0
  9 10  1  0
 10 11  2  0
 11 12  1  0
 11 19  1  0
 13 12  1  6
 13 14  1  0
 13 18  1  0
 14 15  1  0
 15 16  1  0
 16 17  1  0
 17 18  1  0
 19 20  2  0
M  CHG  1  13   1
M  END
