
     RDKit          3D

 16 17  0  0  0  0  0  0  0  0999 V2000
    3.9610    0.5820    0.2020 N   0  0  0  0  0  0  0  0  0  0  0  0
    3.2290   -0.4980   -0.4270 C   0  0  2  0  0  0  0  0  0  0  0  0
    2.4900   -0.0020   -1.6570 C   0  0  0  0  0  0  0  0  0  0  0  0
    1.4010    0.8430   -1.0340 C   0  0  0  0  0  0  0  0  0  0  0  0
    1.0740    0.1240    0.2690 C   0  0  1  0  0  0  0  0  0  0  0  0
   -0.2870   -0.3100    0.1860 N   0  0  0  0  0  0  0  0  0  0  0  0
   -1.2730    0.2030    1.0610 C   0  0  0  0  0  0  0  0  0  0  0  0
   -0.9060    1.0490    1.9070 O   0  0  0  0  0  0  0  0  0  0  0  0
   -2.6590   -0.2700    0.9430 C   0  0  1  0  0  0  0  0  0  0  0  0
   -3.4960    0.8790    0.4210 C   0  0  0  0  0  0  0  0  0  0  0  0
   -4.7100    0.1150   -0.1270 C   0  0  0  0  0  0  0  0  0  0  0  0
   -4.0400   -1.0700   -0.7100 C   0  0  0  0  0  0  0  0  0  0  0  0
   -4.4820   -1.8220   -1.6050 O   0  0  0  0  0  0  0  0  0  0  0  0
   -2.8080   -1.2290   -0.0960 O   0  0  0  0  0  0  0  0  0  0  0  0
    2.0690   -0.9660    0.4310 C   0  0  2  0  0  0  0  0  0  0  0  0
    2.4700   -1.1660    1.7490 O   0  0  0  0  0  0  0  0  0  0  0  0
  2  1  1  1
  2  3  1  0
  2 15  1  0
  3  4  1  0
  4  5  1  0
  5  6  1  6
  5 15  1  0
  6  7  1  0
  7  8  2  0
  9  7  1  6
  9 10  1  0
  9 14  1  0
 10 11  1  0
 11 12  1  0
 12 13  2  0
 12 14  1  0
 15 16  1  1
M  CHG  1   1   1
M  END
