
     RDKit          3D

 15 16  0  0  0  0  0  0  0  0999 V2000
   -0.8990    1.5250    1.8650 N   0  0  0  0  0  0  0  0  0  0  0  0
   -0.3650    1.3840    0.5610 C   0  0  1  0  0  0  0  0  0  0  0  0
    1.1400    1.1590    0.5390 C   0  0  0  0  0  0  0  0  0  0  0  0
    1.3400    0.4960   -0.7790 C   0  0  1  0  0  0  0  0  0  0  0  0
    2.3600   -0.6180   -0.7290 C   0  0  0  0  0  0  0  0  0  0  0  0
    3.7140   -0.1030   -0.2900 C   0  0  0  0  0  0  0  0  0  0  0  0
    4.6000   -1.1780   -0.2660 O   0  0  0  0  0  0  0  0  0  0  0  0
    0.0810    0.1020   -1.3000 N   0  0  0  0  0  0  0  0  0  0  0  0
   -0.9300    0.2830   -0.2640 C   0  0  1  0  0  0  0  0  0  0  0  0
   -1.1300   -1.0170    0.4020 C   0  0  0  0  0  0  0  0  0  0  0  0
   -2.2780   -1.7320   -0.2890 C   0  0  0  0  0  0  0  0  0  0  0  0
   -3.5400   -0.9990    0.1880 C   0  0  0  0  0  0  0  0  0  0  0  0
   -3.3910    0.3340   -0.2640 O   0  0  0  0  0  0  0  0  0  0  0  0
   -2.2120    0.7500   -0.8270 C   0  0  0  0  0  0  0  0  0  0  0  0
   -2.2280    1.5200   -1.8100 O   0  0  0  0  0  0  0  0  0  0  0  0
  2  1  1  1
  2  3  1  0
  2  9  1  0
  3  4  1  0
  4  5  1  1
  4  8  1  0
  5  6  1  0
  6  7  1  0
  8  9  1  0
  9 10  1  1
  9 14  1  0
 10 11  1  0
 11 12  1  0
 12 13  1  0
 13 14  1  0
 14 15  2  0
M  CHG  2   1   1   8   1
M  END
