
     RDKit          3D

 16 17  0  0  0  0  0  0  0  0999 V2000
   -2.8660    0.1010    2.1500 N   0  0  0  0  0  0  0  0  0  0  0  0
   -2.5420   -0.3100    0.7940 C   0  0  1  0  0  0  0  0  0  0  0  0
   -3.7780   -0.3080   -0.0840 C   0  0  0  0  0  0  0  0  0  0  0  0
   -3.1660   -0.1310   -1.4330 C   0  0  0  0  0  0  0  0  0  0  0  0
   -3.7590   -0.3520   -2.5270 O   0  0  0  0  0  0  0  0  0  0  0  0
   -1.8040    0.3290   -1.2820 N   0  0  0  0  0  0  0  0  0  0  0  0
   -1.6750    0.6940    0.0820 C   0  0  2  0  0  0  0  0  0  0  0  0
   -0.3150    0.8310    0.6380 C   0  0  0  0  0  0  0  0  0  0  0  0
    0.5330   -0.3850    0.6420 C   0  0  1  0  0  0  0  0  0  0  0  0
    0.7830   -0.9530   -0.7340 C   0  0  0  0  0  0  0  0  0  0  0  0
    1.8650   -1.8650   -0.7080 O   0  0  0  0  0  0  0  0  0  0  0  0
    3.0490   -1.1310   -0.5260 C   0  0  0  0  0  0  0  0  0  0  0  0
    2.7540    0.1280    0.2400 C   0  0  2  0  0  0  0  0  0  0  0  0
    3.9860    0.6660    0.9430 C   0  0  0  0  0  0  0  0  0  0  0  0
    5.0110    0.8870    0.0140 O   0  0  0  0  0  0  0  0  0  0  0  0
    1.7700   -0.0730    1.2030 O   0  0  0  0  0  0  0  0  0  0  0  0
  2  1  1  1
  2  3  1  0
  2  7  1  0
  3  4  1  0
  4  5  2  0
  4  6  1  0
  6  7  1  0
  7  8  1  1
  9  8  1  6
  9 10  1  0
  9 16  1  0
 10 11  1  0
 11 12  1  0
 12 13  1  0
 13 14  1  1
 13 16  1  0
 14 15  1  0
M  CHG  1   1   1
M  END
