
     RDKit          3D

 15 16  0  0  0  0  0  0  0  0999 V2000
   -0.8110   -0.9770    1.1050 N   0  0  0  0  0  0  0  0  0  0  0  0
   -1.1950   -0.0850    0.0500 C   0  0  1  0  0  0  0  0  0  0  0  0
   -0.2540   -0.0300   -1.0910 C   0  0  0  0  0  0  0  0  0  0  0  0
    1.0200    0.3850   -0.8200 O   0  0  0  0  0  0  0  0  0  0  0  0
    1.7730   -0.4140   -0.0020 C   0  0  1  0  0  0  0  0  0  0  0  0
    3.0320   -0.8690   -0.7260 C   0  0  0  0  0  0  0  0  0  0  0  0
    4.0430    0.1380   -0.7780 N   0  0  0  0  0  0  0  0  0  0  0  0
    4.2720    0.7720    0.5070 C   0  0  0  0  0  0  0  0  0  0  0  0
    3.1130    1.2550    1.0610 O   0  0  0  0  0  0  0  0  0  0  0  0
    2.1350    0.3150    1.2840 C   0  0  0  0  0  0  0  0  0  0  0  0
   -2.6040   -0.4640   -0.3470 C   0  0  1  0  0  0  0  0  0  0  0  0
   -3.4950   -0.2990    0.8790 C   0  0  0  0  0  0  0  0  0  0  0  0
   -4.1420    1.0570    0.5690 C   0  0  0  0  0  0  0  0  0  0  0  0
   -4.4460    0.8760   -0.7900 O   0  0  0  0  0  0  0  0  0  0  0  0
   -3.2200    0.4760   -1.3260 C   0  0  0  0  0  0  0  0  0  0  0  0
  2  1  1  1
  2  3  1  0
  2 11  1  0
  3  4  1  0
  5  4  1  6
  5  6  1  0
  5 10  1  0
  6  7  1  0
  7  8  1  0
  8  9  1  0
  9 10  1  0
 11 12  1  1
 11 15  1  0
 12 13  1  0
 13 14  1  0
 14 15  1  0
M  CHG  1   7   1
M  END
