
     RDKit          3D

 22 25  0  0  0  0  0  0  0  0999 V2000
   -4.7830    2.2010   -1.0030 C   0  0  0  0  0  0  0  0  0  0  0  0
   -4.7680    1.0390   -0.4180 C   0  0  0  0  0  0  0  0  0  0  0  0
   -5.9730    0.3670    0.1840 C   0  0  0  0  0  0  0  0  0  0  0  0
   -5.6700   -1.0490   -0.3360 C   0  0  0  0  0  0  0  0  0  0  0  0
   -4.1930   -1.0910   -0.1920 C   0  0  0  0  0  0  0  0  0  0  0  0
   -3.6520    0.1400   -0.2360 C   0  0  0  0  0  0  0  0  0  0  0  0
   -2.2220    0.4050   -0.1310 C   0  0  0  0  0  0  0  0  0  0  0  0
   -1.7210    1.6750   -0.0040 C   0  0  0  0  0  0  0  0  0  0  0  0
   -0.3530    1.9430    0.0600 C   0  0  0  0  0  0  0  0  0  0  0  0
    0.4960    0.8670   -0.0100 C   0  0  0  0  0  0  0  0  0  0  0  0
    0.0160   -0.4180   -0.1380 C   0  0  0  0  0  0  0  0  0  0  0  0
   -1.3220   -0.6490   -0.1970 C   0  0  0  0  0  0  0  0  0  0  0  0
    1.1870   -1.2900   -0.1800 C   0  0  0  0  0  0  0  0  0  0  0  0
    1.6050   -2.5770   -0.2810 C   0  0  0  0  0  0  0  0  0  0  0  0
    2.9180   -2.5980   -0.2440 N   0  0  0  0  0  0  0  0  0  0  0  0
    3.4000   -1.3240   -0.1180 C   0  0  0  0  0  0  0  0  0  0  0  0
    4.8260   -1.0970   -0.0570 C   0  0  0  0  0  0  0  0  0  0  0  0
    5.3200    0.2690    0.0810 C   0  0  0  0  0  0  0  0  0  0  0  0
    6.8610    0.1950    0.1170 C   0  0  0  0  0  0  0  0  0  0  0  0
    2.3200   -0.5430   -0.0810 N   0  0  0  0  0  0  0  0  0  0  0  0
    1.9340    0.8140    0.0270 C   0  0  0  0  0  0  0  0  0  0  0  0
    2.7010    1.7730    0.1340 O   0  0  0  0  0  0  0  0  0  0  0  0
  1  2  2  0
  2  3  1  0
  2  6  1  0
  3  4  1  0
  4  5  1  0
  5  6  2  0
  6  7  1  0
  7  8  2  0
  7 12  1  0
  8  9  1  0
  9 10  2  0
 10 11  1  0
 10 21  1  0
 11 12  2  0
 11 13  1  0
 13 14  2  0
 13 20  1  0
 14 15  1  0
 15 16  2  0
 16 17  1  0
 16 20  1  0
 17 18  1  0
 18 19  1  0
 20 21  1  0
 21 22  2  0
M  END
