
     RDKit          3D

 22 25  0  0  0  0  0  0  0  0999 V2000
   -1.7980   -2.7580   -0.6610 C   0  0  0  0  0  0  0  0  0  0  0  0
   -1.3790   -2.5770    0.7330 N   0  0  0  0  0  0  0  0  0  0  0  0
   -2.6010   -2.7320    1.5250 C   0  0  0  0  0  0  0  0  0  0  0  0
   -3.3650   -1.4780    1.0790 C   0  0  0  0  0  0  0  0  0  0  0  0
   -2.3190   -0.5450    0.7130 N   0  0  0  0  0  0  0  0  0  0  0  0
   -2.5620    0.7440    0.1740 C   0  0  0  0  0  0  0  0  0  0  0  0
   -2.1190    1.8820    0.6410 C   0  0  0  0  0  0  0  0  0  0  0  0
   -2.5860    3.0210   -0.1970 C   0  0  0  0  0  0  0  0  0  0  0  0
   -3.3800    2.3440   -1.2330 C   0  0  0  0  0  0  0  0  0  0  0  0
   -3.3550    1.0380   -1.0030 C   0  0  0  0  0  0  0  0  0  0  0  0
   -1.0730   -1.1840    1.0020 C   0  0  2  0  0  0  0  0  0  0  0  0
    0.0660   -0.6760    0.2190 C   0  0  0  0  0  0  0  0  0  0  0  0
    0.0810   -0.4150   -1.1340 C   0  0  0  0  0  0  0  0  0  0  0  0
    1.3690    0.0470   -1.4270 C   0  0  0  0  0  0  0  0  0  0  0  0
    2.0500    0.0360   -0.2280 C   0  0  0  0  0  0  0  0  0  0  0  0
    3.4470    0.4500   -0.0870 C   0  0  0  0  0  0  0  0  0  0  0  0
    4.0950    0.4230    1.1330 C   0  0  0  0  0  0  0  0  0  0  0  0
    5.4140    0.8140    1.2670 C   0  0  0  0  0  0  0  0  0  0  0  0
    6.1400    1.2500    0.1790 C   0  0  0  0  0  0  0  0  0  0  0  0
    5.5010    1.2800   -1.0430 C   0  0  0  0  0  0  0  0  0  0  0  0
    4.1830    0.8870   -1.1670 C   0  0  0  0  0  0  0  0  0  0  0  0
    1.2370   -0.3960    0.6940 O   0  0  0  0  0  0  0  0  0  0  0  0
  1  2  1  0
  2  3  1  0
  2 11  1  0
  3  4  1  0
  4  5  1  0
  5  6  1  0
  5 11  1  0
  6  7  2  0
  6 10  1  0
  7  8  1  0
  8  9  1  0
  9 10  2  0
 11 12  1  6
 12 13  2  0
 12 22  1  0
 13 14  1  0
 14 15  2  0
 15 16  1  0
 15 22  1  0
 16 17  2  0
 16 21  1  0
 17 18  1  0
 18 19  2  0
 19 20  1  0
 20 21  2  0
M  END
