
     RDKit          3D

 22 25  0  0  0  0  0  0  0  0999 V2000
   -1.6900   -0.1800   -3.0070 O   0  0  0  0  0  0  0  0  0  0  0  0
   -1.6120    0.2230   -1.8170 C   0  0  0  0  0  0  0  0  0  0  0  0
   -1.9540    1.6210   -1.5240 C   0  0  0  0  0  0  0  0  0  0  0  0
   -2.5250    1.8710   -0.1760 C   0  0  0  0  0  0  0  0  0  0  0  0
   -2.1060    0.9020    0.8550 C   0  0  0  0  0  0  0  0  0  0  0  0
   -2.2530    1.0250    2.1770 C   0  0  0  0  0  0  0  0  0  0  0  0
   -1.6880   -0.1830    2.8060 C   0  0  0  0  0  0  0  0  0  0  0  0
   -1.2150   -0.9870    1.6760 C   0  0  0  0  0  0  0  0  0  0  0  0
   -1.4540   -0.3570    0.5190 C   0  0  0  0  0  0  0  0  0  0  0  0
   -1.1890   -0.7320   -0.8270 N   0  0  0  0  0  0  0  0  0  0  0  0
   -0.5920   -1.9510   -1.2120 C   0  0  0  0  0  0  0  0  0  0  0  0
    0.8570   -2.0040   -1.3780 C   0  0  0  0  0  0  0  0  0  0  0  0
    1.5390   -2.9900   -2.1080 C   0  0  0  0  0  0  0  0  0  0  0  0
    2.8670   -2.7240   -2.0420 C   0  0  0  0  0  0  0  0  0  0  0  0
    3.0240   -1.6050   -1.2940 C   0  0  0  0  0  0  0  0  0  0  0  0
    1.7760   -1.1720   -0.8910 N   0  0  0  0  0  0  0  0  0  0  0  0
    1.6860   -0.0150   -0.0900 C   0  0  0  0  0  0  0  0  0  0  0  0
    1.9770   -0.1070    1.2470 C   0  0  0  0  0  0  0  0  0  0  0  0
    1.9300    0.9880    2.0900 C   0  0  0  0  0  0  0  0  0  0  0  0
    1.5790    2.2210    1.5860 C   0  0  0  0  0  0  0  0  0  0  0  0
    1.2830    2.3340    0.2490 C   0  0  0  0  0  0  0  0  0  0  0  0
    1.3390    1.2180   -0.5770 C   0  0  0  0  0  0  0  0  0  0  0  0
  1  2  2  0
  2  3  1  0
  2 10  1  0
  3  4  1  0
  4  5  1  0
  5  6  2  0
  5  9  1  0
  6  7  1  0
  7  8  1  0
  8  9  2  0
  9 10  1  0
 10 11  1  0
 11 12  1  0
 12 13  2  0
 12 16  1  0
 13 14  1  0
 14 15  2  0
 15 16  1  0
 16 17  1  0
 17 18  2  0
 17 22  1  0
 18 19  1  0
 19 20  2  0
 20 21  1  0
 21 22  2  0
M  END
