
     RDKit          3D

 17 17  0  0  0  0  0  0  0  0999 V2000
    0.8520    1.1390    1.9350 C   0  0  0  0  0  0  0  0  0  0  0  0
    1.5110    0.2150    1.2800 C   0  0  0  0  0  0  0  0  0  0  0  0
    2.6470   -0.6980    2.3080 Cl  0  0  0  0  0  0  0  0  0  0  0  0
    1.3600   -0.1120   -0.1110 C   0  0  0  0  0  0  0  0  0  0  0  0
    2.0670   -1.0520   -0.7340 C   0  0  0  0  0  0  0  0  0  0  0  0
    3.0940   -1.9200   -0.2230 C   0  0  0  0  0  0  0  0  0  0  0  0
    2.5230   -3.6180   -0.3640 Cl  0  0  0  0  0  0  0  0  0  0  0  0
    0.4480    0.5450   -0.9160 O   0  0  0  0  0  0  0  0  0  0  0  0
   -0.4810    1.4560   -0.7200 C   0  0  0  0  0  0  0  0  0  0  0  0
   -0.3060    2.8180   -0.8530 N   0  0  0  0  0  0  0  0  0  0  0  0
   -1.4470    3.4500   -0.5850 C   0  0  0  0  0  0  0  0  0  0  0  0
   -2.3420    2.5090   -0.2840 N   0  0  0  0  0  0  0  0  0  0  0  0
   -1.8340    1.2840   -0.3440 C   0  0  0  0  0  0  0  0  0  0  0  0
   -2.4340   -0.0210   -0.1000 C   0  0  0  0  0  0  0  0  0  0  0  0
   -3.6420   -0.1370    0.2330 O   0  0  0  0  0  0  0  0  0  0  0  0
   -1.7050   -1.1910   -0.2230 O   0  0  0  0  0  0  0  0  0  0  0  0
   -2.3330   -2.4570    0.0260 C   0  0  0  0  0  0  0  0  0  0  0  0
  1  2  2  0
  2  3  1  0
  2  4  1  0
  4  5  2  3
  4  8  1  0
  5  6  1  0
  6  7  1  0
  8  9  1  0
  9 10  1  0
  9 13  2  0
 10 11  1  0
 11 12  2  0
 12 13  1  0
 13 14  1  0
 14 15  2  0
 14 16  1  0
 16 17  1  0
M  END
