
     RDKit          3D

 17 17  0  0  0  0  0  0  0  0999 V2000
   -1.8290   -2.2190   -1.2660 C   0  0  0  0  0  0  0  0  0  0  0  0
   -1.5220   -1.2240   -2.0560 C   0  0  0  0  0  0  0  0  0  0  0  0
   -2.2420   -1.1980   -3.6810 Cl  0  0  0  0  0  0  0  0  0  0  0  0
   -0.6390   -0.1380   -1.6930 C   0  0  0  0  0  0  0  0  0  0  0  0
   -0.3780    0.8180   -2.5390 C   0  0  0  0  0  0  0  0  0  0  0  0
    0.5140    1.9740   -2.2570 C   0  0  0  0  0  0  0  0  0  0  0  0
   -0.5210    3.4330   -2.4540 Cl  0  0  0  0  0  0  0  0  0  0  0  0
   -0.0470   -0.1290   -0.4110 N   0  0  0  0  0  0  0  0  0  0  0  0
    1.3760   -0.2040   -0.1740 C   0  0  0  0  0  0  0  0  0  0  0  0
    2.2860   -0.2970   -1.0380 O   0  0  0  0  0  0  0  0  0  0  0  0
    1.5560   -0.1510    1.2710 C   0  0  0  0  0  0  0  0  0  0  0  0
    0.3810   -0.0550    1.8660 C   0  0  0  0  0  0  0  0  0  0  0  0
    0.1430    0.0220    3.3050 C   0  0  0  0  0  0  0  0  0  0  0  0
    1.2510   -0.0060    4.1810 N   0  0  0  0  0  0  0  0  0  0  0  0
   -1.0220    0.1130    3.7710 O   0  0  0  0  0  0  0  0  0  0  0  0
   -0.6740   -0.0360    0.8550 C   0  0  0  0  0  0  0  0  0  0  0  0
   -1.9260    0.0490    1.0500 O   0  0  0  0  0  0  0  0  0  0  0  0
  1  2  2  0
  2  3  1  0
  2  4  1  0
  4  5  2  3
  4  8  1  0
  5  6  1  0
  6  7  1  0
  8  9  1  0
  8 16  1  0
  9 10  2  0
  9 11  1  0
 11 12  2  0
 12 13  1  0
 12 16  1  0
 13 14  1  0
 13 15  2  0
 16 17  2  0
M  END
