
     RDKit          3D

 16 16  0  0  0  0  0  0  0  0999 V2000
    2.0490    0.2770   -1.6460 O   0  0  0  0  0  0  0  0  0  0  0  0
    1.9440    0.1070   -0.4030 C   0  0  0  0  0  0  0  0  0  0  0  0
    0.5710    0.2010    0.1600 C   0  0  0  0  0  0  0  0  0  0  0  0
   -0.4550   -0.2360   -0.7640 N   0  0  0  0  0  0  0  0  0  0  0  0
   -1.8410   -0.0670   -0.4580 C   0  0  0  0  0  0  0  0  0  0  0  0
   -2.5540    0.6850   -1.2740 C   0  0  0  0  0  0  0  0  0  0  0  0
   -4.0190    0.9660   -1.0980 C   0  0  0  0  0  0  0  0  0  0  0  0
   -4.5970    0.3190    0.1040 C   0  0  0  0  0  0  0  0  0  0  0  0
   -3.9220   -0.9890    0.4430 C   0  0  0  0  0  0  0  0  0  0  0  0
   -2.4720   -0.7130    0.7000 C   0  0  0  0  0  0  0  0  0  0  0  0
    3.1020   -0.1610    0.4000 C   0  0  0  0  0  0  0  0  0  0  0  0
    2.8480   -0.3600    1.6710 O   0  0  0  0  0  0  0  0  0  0  0  0
    4.4380   -0.2240   -0.0230 N   0  0  0  0  0  0  0  0  0  0  0  0
    5.4150   -0.4950    0.8510 O   0  0  0  0  0  0  0  0  0  0  0  0
    6.6800   -0.1820    0.4210 C   0  0  0  0  0  0  0  0  0  0  0  0
    6.8690    1.5470    0.0650 Cl  0  0  0  0  0  0  0  0  0  0  0  0
  1  2  2  0
  2  3  1  0
  2 11  1  0
  3  4  1  0
  4  5  1  0
  5  6  2  0
  5 10  1  0
  6  7  1  0
  7  8  1  0
  8  9  1  0
  9 10  1  0
 11 12  2  0
 11 13  1  0
 13 14  1  0
 14 15  1  0
 15 16  1  0
M  END
