
     RDKit          3D

 17 17  0  0  0  0  0  0  0  0999 V2000
   -4.4020   -1.4570    0.3430 C   0  0  0  0  0  0  0  0  0  0  0  0
   -4.4250   -0.1210    0.6400 O   0  0  0  0  0  0  0  0  0  0  0  0
   -3.2020    0.4480    0.9190 C   0  0  0  0  0  0  0  0  0  0  0  0
   -2.2380    0.3550   -0.2140 C   0  0  1  0  0  0  0  0  0  0  0  0
   -2.7840    1.0890   -1.4180 C   0  0  0  0  0  0  0  0  0  0  0  0
   -0.9540    0.9840    0.1180 N   0  0  0  0  0  0  0  0  0  0  0  0
    0.2480    0.1890    0.0250 C   0  0  0  0  0  0  0  0  0  0  0  0
    0.1100   -0.9700   -0.3300 O   0  0  0  0  0  0  0  0  0  0  0  0
    1.5150    0.7250    0.3280 N   0  0  0  0  0  0  0  0  0  0  0  0
    2.7820    0.1460    0.3050 C   0  0  0  0  0  0  0  0  0  0  0  0
    3.1200   -1.0730   -0.0120 C   0  0  0  0  0  0  0  0  0  0  0  0
    1.9830   -2.3040   -0.5040 Cl  0  0  0  0  0  0  0  0  0  0  0  0
    4.5540   -1.5780    0.0060 C   0  0  0  0  0  0  0  0  0  0  0  0
    5.4690   -0.6130    0.3940 O   0  0  0  0  0  0  0  0  0  0  0  0
    5.1490    0.6730    0.7330 C   0  0  0  0  0  0  0  0  0  0  0  0
    3.8930    1.0570    0.7000 C   0  0  0  0  0  0  0  0  0  0  0  0
    3.5750    2.7310    1.1530 Cl  0  0  0  0  0  0  0  0  0  0  0  0
  1  2  1  0
  2  3  1  0
  3  4  1  0
  4  5  1  6
  4  6  1  0
  6  7  1  0
  7  8  2  0
  7  9  1  0
  9 10  1  0
 10 11  2  0
 10 16  1  0
 11 12  1  0
 11 13  1  0
 13 14  1  0
 14 15  1  0
 15 16  2  0
 16 17  1  0
M  END
