
     RDKit          3D

 17 17  0  0  0  0  0  0  0  0999 V2000
   -4.4070    0.8210   -0.2030 C   0  0  0  0  0  0  0  0  0  0  0  0
   -3.9440   -0.5860    0.1520 C   0  0  0  0  0  0  0  0  0  0  0  0
   -2.9780   -1.1290   -0.7260 N   0  0  0  0  0  0  0  0  0  0  0  0
   -1.6710   -0.5890   -0.7220 C   0  0  0  0  0  0  0  0  0  0  0  0
   -0.8730   -0.9020    0.5330 C   0  0  0  0  0  0  0  0  0  0  0  0
    0.3250   -0.3980    0.5160 O   0  0  0  0  0  0  0  0  0  0  0  0
    1.5270    0.0170    0.3720 C   0  0  0  0  0  0  0  0  0  0  0  0
    2.2520   -0.4490   -0.7400 C   0  0  0  0  0  0  0  0  0  0  0  0
    3.5710   -0.2610   -1.0890 C   0  0  0  0  0  0  0  0  0  0  0  0
    4.0440   -0.6880   -2.7220 Cl  0  0  0  0  0  0  0  0  0  0  0  0
    4.6100    0.2340   -0.3220 C   0  0  0  0  0  0  0  0  0  0  0  0
    6.2360    0.0570   -0.9300 Cl  0  0  0  0  0  0  0  0  0  0  0  0
    4.4680    0.8580    0.8900 C   0  0  0  0  0  0  0  0  0  0  0  0
    5.5880    1.2000    1.4050 O   0  0  0  0  0  0  0  0  0  0  0  0
    3.3780    1.1560    1.5990 N   0  0  0  0  0  0  0  0  0  0  0  0
    2.1030    0.9090    1.2890 C   0  0  0  0  0  0  0  0  0  0  0  0
    1.2200    1.5740    1.9090 O   0  0  0  0  0  0  0  0  0  0  0  0
  1  2  1  0
  2  3  1  0
  3  4  1  0
  4  5  1  0
  5  6  1  0
  6  7  1  0
  7  8  2  0
  7 16  1  0
  8  9  1  0
  9 10  1  0
  9 11  2  0
 11 12  1  0
 11 13  1  0
 13 14  2  0
 13 15  1  0
 15 16  1  0
 16 17  2  0
M  END
