
     RDKit          3D

 17 17  0  0  0  0  0  0  0  0999 V2000
   -4.1680    0.7040    0.8700 C   0  0  0  0  0  0  0  0  0  0  0  0
   -3.2030   -0.2090    1.2110 O   0  0  0  0  0  0  0  0  0  0  0  0
   -3.0720   -1.2750    0.3290 C   0  0  0  0  0  0  0  0  0  0  0  0
   -2.7120   -0.8170   -1.0620 C   0  0  0  0  0  0  0  0  0  0  0  0
   -1.4660   -0.1100   -1.0120 N   0  0  0  0  0  0  0  0  0  0  0  0
   -0.2800   -0.7350   -0.5860 C   0  0  0  0  0  0  0  0  0  0  0  0
   -0.2070   -1.9330   -0.2250 O   0  0  0  0  0  0  0  0  0  0  0  0
    0.9460    0.0970   -0.5700 C   0  0  0  0  0  0  0  0  0  0  0  0
    0.9030    1.3000   -0.9250 O   0  0  0  0  0  0  0  0  0  0  0  0
    2.1360   -0.5140   -0.1470 N   0  0  0  0  0  0  0  0  0  0  0  0
    3.3710    0.1900   -0.0930 C   0  0  0  0  0  0  0  0  0  0  0  0
    3.6370    1.4420   -0.3980 C   0  0  0  0  0  0  0  0  0  0  0  0
    5.0760    1.6970   -0.1720 C   0  0  0  0  0  0  0  0  0  0  0  0
    6.0480    3.0540   -0.6540 Cl  0  0  0  0  0  0  0  0  0  0  0  0
    5.4600    0.6250    0.4990 C   0  0  0  0  0  0  0  0  0  0  0  0
    4.6600   -0.3980    0.3420 C   0  0  0  0  0  0  0  0  0  0  0  0
    4.9530   -2.0870    0.5680 Cl  0  0  0  0  0  0  0  0  0  0  0  0
  1  2  1  0
  2  3  1  0
  3  4  1  0
  4  5  1  0
  5  6  1  0
  6  7  2  0
  6  8  1  0
  8  9  2  0
  8 10  1  0
 10 11  1  0
 11 12  2  0
 11 16  1  0
 12 13  1  0
 13 14  1  0
 13 15  2  0
 15 16  2  0
 16 17  1  0
M  END
