
     RDKit          3D

 28 31  0  0  0  0  0  0  0  0999 V2000
    6.2400    2.9790   -1.7670 C   0  0  0  0  0  0  0  0  0  0  0  0
    5.1700    2.2480   -1.0630 C   0  0  0  0  0  0  0  0  0  0  0  0
    5.4110    1.1910   -0.3270 C   0  0  0  0  0  0  0  0  0  0  0  0
    4.3160    0.4690    0.3740 C   0  0  0  0  0  0  0  0  0  0  0  0
    4.2770   -0.9690   -0.1290 C   0  0  1  0  0  0  0  0  0  0  0  0
    5.6230   -1.5850    0.1870 C   0  0  0  0  0  0  0  0  0  0  0  0
    3.1680   -1.7180    0.5750 C   0  0  1  0  0  0  0  0  0  0  0  0
    3.3950   -1.7260    2.0480 C   0  0  0  0  0  0  0  0  0  0  0  0
    1.8290   -1.2490    0.1800 C   0  0  0  0  0  0  0  0  0  0  0  0
    0.8810   -0.8620    0.9980 C   0  0  0  0  0  0  0  0  0  0  0  0
   -0.4370   -0.4030    0.4940 C   0  0  2  0  0  0  0  0  0  0  0  0
   -1.3720   -0.1710    1.6190 C   0  0  0  0  0  0  0  0  0  0  0  0
   -0.8700   -0.4050    2.7490 O   0  0  0  0  0  0  0  0  0  0  0  0
   -2.7370    0.2700    1.6340 C   0  0  2  0  0  0  0  0  0  0  0  0
   -3.7650   -0.7300    1.0030 C   0  0  0  0  0  0  0  0  0  0  0  0
   -4.9990    0.1590    0.8980 C   0  0  2  0  0  0  0  0  0  0  0  0
   -5.6720    0.2970    2.2440 C   0  0  0  0  0  0  0  0  0  0  0  0
   -5.9540    0.0460   -0.2350 C   0  0  0  0  0  0  0  0  0  0  0  0
   -6.2930    1.5880   -0.5330 C   0  0  0  0  0  0  0  0  0  0  0  0
   -4.9220    2.1750   -0.2910 C   0  0  0  0  0  0  0  0  0  0  0  0
   -4.3240    1.3620    0.4540 C   0  0  0  0  0  0  0  0  0  0  0  0
   -2.9860    1.4940    0.8120 C   0  0  0  0  0  0  0  0  0  0  0  0
   -2.6340    2.6320    0.1860 C   0  0  0  0  0  0  0  0  0  0  0  0
   -3.8770    3.2340   -0.4850 C   0  0  0  0  0  0  0  0  0  0  0  0
   -0.9490   -1.4050   -0.4960 C   0  0  0  0  0  0  0  0  0  0  0  0
    0.1530   -2.0820   -1.2820 C   0  0  1  0  0  0  0  0  0  0  0  0
   -0.3200   -2.3560   -2.6870 C   0  0  0  0  0  0  0  0  0  0  0  0
    1.4200   -1.2050   -1.2770 C   0  0  0  0  0  0  0  0  0  0  0  0
  1  2  1  0
  2  3  2  3
  3  4  1  0
  4  5  1  0
  5  6  1  1
  5  7  1  0
  7  8  1  1
  7  9  1  0
  9 10  2  0
  9 28  1  0
 10 11  1  0
 11 12  1  1
 11 25  1  0
 12 13  2  0
 14 12  1  6
 14 15  1  0
 14 22  1  0
 15 16  1  0
 16 17  1  1
 16 18  1  0
 16 21  1  0
 18 19  1  0
 19 20  1  0
 20 21  2  0
 20 24  1  0
 21 22  1  0
 22 23  2  0
 23 24  1  0
 25 26  1  0
 26 27  1  6
 26 28  1  0
M  END
