
     RDKit          3D

 28 31  0  0  0  0  0  0  0  0999 V2000
   -3.0560    3.6960    1.6020 C   0  0  0  0  0  0  0  0  0  0  0  0
   -2.8970    3.1330    0.2230 C   0  0  0  0  0  0  0  0  0  0  0  0
   -3.4420    1.7280    0.2370 C   0  0  0  0  0  0  0  0  0  0  0  0
   -2.6940    0.7170   -0.0910 C   0  0  0  0  0  0  0  0  0  0  0  0
   -3.2310   -0.6340   -0.0760 C   0  0  0  0  0  0  0  0  0  0  0  0
   -4.4830   -0.8310    0.2810 C   0  0  0  0  0  0  0  0  0  0  0  0
   -5.0200   -2.2400    0.2930 C   0  0  0  0  0  0  0  0  0  0  0  0
   -5.4160    0.2500    0.6770 C   0  0  0  0  0  0  0  0  0  0  0  0
   -4.8460    1.6090    0.6400 C   0  0  0  0  0  0  0  0  0  0  0  0
   -2.1380   -1.5470   -0.5770 C   0  0  1  0  0  0  0  0  0  0  0  0
   -2.6510   -2.6400   -1.4820 C   0  0  0  0  0  0  0  0  0  0  0  0
   -1.4230   -0.5210   -1.4570 C   0  0  0  0  0  0  0  0  0  0  0  0
   -1.2000    0.5790   -0.4860 C   0  0  2  0  0  0  0  0  0  0  0  0
   -0.4410    0.2600    0.7490 C   0  0  2  0  0  0  0  0  0  0  0  0
   -0.8190    1.4180    1.5940 O   0  0  0  0  0  0  0  0  0  0  0  0
    0.9910    0.2940    0.8740 C   0  0  0  0  0  0  0  0  0  0  0  0
    2.0540   -0.4180    0.2050 C   0  0  2  0  0  0  0  0  0  0  0  0
    2.2260   -0.1940   -1.2390 C   0  0  0  0  0  0  0  0  0  0  0  0
    2.4900    1.1640   -1.7590 C   0  0  1  0  0  0  0  0  0  0  0  0
    2.6780    1.2030   -3.2970 C   0  0  0  0  0  0  0  0  0  0  0  0
    1.4080    1.7070   -2.7370 C   0  0  0  0  0  0  0  0  0  0  0  0
    1.8770   -1.9550    0.3070 C   0  0  0  0  0  0  0  0  0  0  0  0
    3.0330   -2.6790    0.8960 C   0  0  0  0  0  0  0  0  0  0  0  0
    4.3480   -2.3400    0.2520 C   0  0  0  0  0  0  0  0  0  0  0  0
    4.5230   -0.8610    0.3850 C   0  0  2  0  0  0  0  0  0  0  0  0
    5.6760   -0.6510    1.3840 C   0  0  0  0  0  0  0  0  0  0  0  0
    3.3410   -0.1970    1.0050 C   0  0  1  0  0  0  0  0  0  0  0  0
    3.6950    1.1940    1.3320 C   0  0  0  0  0  0  0  0  0  0  0  0
  1  2  1  0
  2  3  1  0
  3  4  2  0
  3  9  1  0
  4  5  1  0
  4 13  1  0
  5  6  2  0
  5 10  1  0
  6  7  1  0
  6  8  1  0
  8  9  1  0
 10 11  1  6
 10 12  1  0
 13 12  1  6
 13 14  1  0
 14 15  1  1
 14 16  1  0
 17 16  1  1
 17 18  1  0
 17 22  1  0
 17 27  1  0
 19 18  1  6
 19 20  1  0
 19 21  1  0
 20 21  1  0
 22 23  1  0
 23 24  1  0
 24 25  1  0
 25 26  1  1
 25 27  1  0
 27 28  1  6
M  END
