
     RDKit          3D

  9  9  0  0  0  0  0  0  0  0999 V2000
   -0.8020    1.9900   -0.1720 C   0  0  0  0  0  0  0  0  0  0  0  0
    0.0700    0.8120   -0.5210 C   0  0  1  0  0  0  0  0  0  0  0  0
    1.5190    1.2790   -0.3750 C   0  0  0  0  0  0  0  0  0  0  0  0
    2.4860    0.1220    0.6260 S   0  0  0  0  0  0  0  0  0  0  0  0
    1.8490   -1.5740    0.5020 C   0  0  0  0  0  0  0  0  0  0  0  0
    0.4140   -1.5050    0.0390 C   0  0  0  0  0  0  0  0  0  0  0  0
   -0.1880   -0.2580    0.3880 N   0  0  0  0  0  0  0  0  0  0  0  0
   -1.5660   -0.4500    0.7200 C   0  0  0  0  0  0  0  0  0  0  0  0
   -2.2880   -0.9920   -0.3540 O   0  0  0  0  0  0  0  0  0  0  0  0
  2  1  1  1
  2  3  1  0
  2  7  1  0
  3  4  1  0
  4  5  1  0
  5  6  1  0
  6  7  1  0
  7  8  1  0
  8  9  1  0
M  END
