
     RDKit          3D

 28 31  0  0  0  0  0  0  0  0999 V2000
    4.0660   -3.2450   -0.6320 C   0  0  0  0  0  0  0  0  0  0  0  0
    2.8650   -2.2630   -0.7210 C   0  0  0  0  0  0  0  0  0  0  0  0
    3.1510   -1.2260    0.2920 C   0  0  1  0  0  0  0  0  0  0  0  0
    4.4840   -0.5170   -0.0060 C   0  0  0  0  0  0  0  0  0  0  0  0
    4.4750    0.1340   -1.3520 C   0  0  0  0  0  0  0  0  0  0  0  0
    3.1370    0.7260   -1.6290 C   0  0  0  0  0  0  0  0  0  0  0  0
    2.4210    0.9870   -0.3210 C   0  0  0  0  0  0  0  0  0  0  0  0
    2.0850   -0.1530    0.5290 C   0  0  2  0  0  0  0  0  0  0  0  0
    2.3370    0.2720    1.9660 C   0  0  0  0  0  0  0  0  0  0  0  0
    0.6730   -0.7400    0.4570 C   0  0  1  0  0  0  0  0  0  0  0  0
    0.5850   -1.7110    1.5330 C   0  0  0  0  0  0  0  0  0  0  0  0
   -0.3800    0.1550   -0.0380 C   0  0  2  0  0  0  0  0  0  0  0  0
   -0.0570    0.6560   -1.2580 O   0  0  0  0  0  0  0  0  0  0  0  0
   -1.1020    1.1120    0.7810 C   0  0  1  0  0  0  0  0  0  0  0  0
   -0.3480    2.0390    1.7000 C   0  0  0  0  0  0  0  0  0  0  0  0
   -1.3930    3.0550    2.2180 C   0  0  0  0  0  0  0  0  0  0  0  0
   -1.2520    4.2180    1.2470 C   0  0  2  0  0  0  0  0  0  0  0  0
   -2.4470    5.1040    1.1950 C   0  0  0  0  0  0  0  0  0  0  0  0
   -0.9970    3.5400   -0.0750 C   0  0  0  0  0  0  0  0  0  0  0  0
   -1.7750    2.2060   -0.1470 C   0  0  0  0  0  0  0  0  0  0  0  0
   -1.4850   -0.8980   -0.5390 C   0  0  2  0  0  0  0  0  0  0  0  0
   -2.6160   -0.2530   -1.2580 C   0  0  0  0  0  0  0  0  0  0  0  0
   -3.6790   -1.2990   -1.6660 C   0  0  1  0  0  0  0  0  0  0  0  0
   -3.0970   -2.5840   -2.1100 C   0  0  0  0  0  0  0  0  0  0  0  0
   -3.0870   -3.4350   -0.8580 C   0  0  0  0  0  0  0  0  0  0  0  0
   -3.3510   -2.4300    0.2740 C   0  0  2  0  0  0  0  0  0  0  0  0
   -4.3740   -1.5680   -0.3240 C   0  0  0  0  0  0  0  0  0  0  0  0
   -1.9890   -1.7790    0.5580 C   0  0  0  0  0  0  0  0  0  0  0  0
  1  2  1  0
  3  2  1  6
  3  4  1  0
  3  8  1  0
  4  5  1  0
  5  6  1  0
  6  7  1  0
  7  8  1  0
  8  9  1  1
  8 10  1  0
 10 11  1  1
 10 12  1  0
 12 13  1  6
 12 14  1  0
 12 21  1  0
 14 15  1  1
 14 20  1  0
 15 16  1  0
 16 17  1  0
 17 18  1  6
 17 19  1  0
 19 20  1  0
 21 22  1  1
 21 28  1  0
 23 22  1  1
 23 24  1  0
 23 27  1  0
 24 25  1  0
 26 25  1  6
 26 27  1  0
 26 28  1  0
M  END
