
     RDKit          3D

  8  8  0  0  0  0  0  0  0  0999 V2000
    2.4740    0.6430    0.3760 C   0  0  0  0  0  0  0  0  0  0  0  0
    2.1010   -0.3380    1.2780 O   0  0  0  0  0  0  0  0  0  0  0  0
    1.1730   -1.2280    0.7970 C   0  0  0  0  0  0  0  0  0  0  0  0
   -0.1280   -0.6140    0.4060 C   0  0  0  0  0  0  0  0  0  0  0  0
   -0.5470    0.5550    0.4640 N   0  0  0  0  0  0  0  0  0  0  0  0
   -1.8070    0.9100    0.0420 C   0  0  0  0  0  0  0  0  0  0  0  0
   -2.3760   -0.0980   -0.9410 C   0  0  0  0  0  0  0  0  0  0  0  0
   -1.4730   -1.5740   -0.3010 S   0  0  0  0  0  0  0  0  0  0  0  0
  1  2  1  0
  2  3  1  0
  3  4  1  0
  4  5  2  0
  4  8  1  0
  5  6  1  0
  6  7  1  0
  7  8  1  0
M  END
