
     RDKit          3D

 31 34  0  0  0  0  0  0  0  0999 V2000
   -3.6310   -2.5240    0.9600 C   0  0  0  0  0  0  0  0  0  0  0  0
   -3.9610   -1.2330    0.2980 C   0  0  0  0  0  0  0  0  0  0  0  0
   -3.0050   -0.2400    0.2110 C   0  0  0  0  0  0  0  0  0  0  0  0
   -3.3180    0.9540   -0.4030 C   0  0  0  0  0  0  0  0  0  0  0  0
   -2.3270    2.0350   -0.5110 C   0  0  0  0  0  0  0  0  0  0  0  0
   -1.1660    1.8420    0.2360 O   0  0  0  0  0  0  0  0  0  0  0  0
   -1.1110    1.7020    1.6140 C   0  0  0  0  0  0  0  0  0  0  0  0
   -2.1950    1.7520    2.2450 O   0  0  0  0  0  0  0  0  0  0  0  0
    0.1690    1.5000    2.3190 C   0  0  0  0  0  0  0  0  0  0  0  0
    1.2740    1.4690    1.4660 O   0  0  0  0  0  0  0  0  0  0  0  0
    1.6560    2.5070    0.6330 C   0  0  0  0  0  0  0  0  0  0  0  0
    0.9700    3.5470    0.6390 O   0  0  0  0  0  0  0  0  0  0  0  0
    2.8390    2.3740   -0.2290 C   0  0  0  0  0  0  0  0  0  0  0  0
    3.3010    3.3030   -1.0690 N   0  0  0  0  0  0  0  0  0  0  0  0
    4.3870    2.8260   -1.6780 N   0  0  0  0  0  0  0  0  0  0  0  0
    4.6470    1.5730   -1.2400 C   0  0  0  0  0  0  0  0  0  0  0  0
    5.6280    0.6850   -1.5560 C   0  0  0  0  0  0  0  0  0  0  0  0
    5.6620   -0.5730   -0.9380 C   0  0  0  0  0  0  0  0  0  0  0  0
    4.6700   -0.8220   -0.0290 C   0  0  0  0  0  0  0  0  0  0  0  0
    3.6710    0.0580    0.3050 C   0  0  0  0  0  0  0  0  0  0  0  0
    3.6580    1.2910   -0.3170 C   0  0  0  0  0  0  0  0  0  0  0  0
    4.9780   -2.4350    0.5830 S   0  0  1  0  0  0  0  0  0  0  0  0
    4.8310   -2.5330    2.0520 O   0  0  0  0  0  0  0  0  0  0  0  0
    4.2140   -3.4770   -0.1720 O   0  0  0  0  0  0  0  0  0  0  0  0
    6.7170   -2.5110    0.0900 C   0  0  0  0  0  0  0  0  0  0  0  0
    6.6160   -1.6560   -1.1510 C   0  0  0  0  0  0  0  0  0  0  0  0
   -4.5870    1.1320   -0.9210 C   0  0  0  0  0  0  0  0  0  0  0  0
   -5.5620    0.1550   -0.8470 C   0  0  0  0  0  0  0  0  0  0  0  0
   -6.9160    0.3310   -1.3940 C   0  0  0  0  0  0  0  0  0  0  0  0
   -5.2140   -1.0280   -0.2250 C   0  0  0  0  0  0  0  0  0  0  0  0
   -6.2230   -2.1030   -0.1220 C   0  0  0  0  0  0  0  0  0  0  0  0
  1  2  1  0
  2  3  2  0
  2 30  1  0
  3  4  1  0
  4  5  1  0
  4 27  2  0
  5  6  1  0
  6  7  1  0
  7  8  2  0
  7  9  1  0
  9 10  1  0
 10 11  1  0
 11 12  2  0
 11 13  1  0
 13 14  2  0
 13 21  1  0
 14 15  1  0
 15 16  1  0
 16 17  2  0
 16 21  1  0
 17 18  1  0
 18 19  2  0
 18 26  1  0
 19 20  1  0
 19 22  1  0
 20 21  2  0
 22 23  2  0
 22 24  2  0
 22 25  1  1
 25 26  1  0
 27 28  1  0
 28 29  1  0
 28 30  2  0
 30 31  1  0
M  END
