
     RDKit          3D

 31 34  0  0  0  0  0  0  0  0999 V2000
    1.2690    3.9990   -2.8750 C   0  0  0  0  0  0  0  0  0  0  0  0
    0.0570    3.4260   -2.4870 O   0  0  0  0  0  0  0  0  0  0  0  0
   -0.0240    2.3020   -1.6970 C   0  0  0  0  0  0  0  0  0  0  0  0
    1.1400    1.6660   -1.2370 C   0  0  0  0  0  0  0  0  0  0  0  0
    1.0890    0.5530   -0.4550 C   0  0  0  0  0  0  0  0  0  0  0  0
    2.2450   -0.1340    0.0180 N   0  0  0  0  0  0  0  0  0  0  0  0
    3.5600    0.0110   -0.4280 C   0  0  0  0  0  0  0  0  0  0  0  0
    3.7670    0.8460   -1.3630 O   0  0  0  0  0  0  0  0  0  0  0  0
    4.7310   -0.7110    0.0840 C   0  0  0  0  0  0  0  0  0  0  0  0
    5.9810   -0.2480   -0.2910 C   0  0  0  0  0  0  0  0  0  0  0  0
    7.1620   -0.8500    0.1540 C   0  0  0  0  0  0  0  0  0  0  0  0
    7.0850   -1.9040    0.9660 C   0  0  0  0  0  0  0  0  0  0  0  0
    5.8470   -2.3660    1.3390 N   0  0  0  0  0  0  0  0  0  0  0  0
    4.7010   -1.7880    0.9110 C   0  0  0  0  0  0  0  0  0  0  0  0
    3.5820   -2.2640    1.2910 O   0  0  0  0  0  0  0  0  0  0  0  0
    8.3540   -2.5170    1.4230 C   0  0  0  0  0  0  0  0  0  0  0  0
    9.5700   -1.7340    0.3280 S   0  0  0  0  0  0  0  0  0  0  0  0
    8.4960   -0.4000   -0.2130 C   0  0  0  0  0  0  0  0  0  0  0  0
    8.9020    0.6440   -0.7730 O   0  0  0  0  0  0  0  0  0  0  0  0
   -0.1820    0.0770   -0.1350 C   0  0  0  0  0  0  0  0  0  0  0  0
   -1.3420    0.6590   -0.5570 C   0  0  0  0  0  0  0  0  0  0  0  0
   -2.6020    0.1920   -0.2420 O   0  0  0  0  0  0  0  0  0  0  0  0
   -3.7440    0.8420   -0.7130 C   0  0  0  0  0  0  0  0  0  0  0  0
   -4.9800    0.1560   -0.2440 C   0  0  0  0  0  0  0  0  0  0  0  0
   -5.8070    0.8730    0.4930 C   0  0  0  0  0  0  0  0  0  0  0  0
   -7.1040    0.5990    1.1450 C   0  0  0  0  0  0  0  0  0  0  0  0
   -7.2300   -0.8640    1.5290 C   0  0  0  0  0  0  0  0  0  0  0  0
   -7.3510   -1.6660    0.2440 C   0  0  0  0  0  0  0  0  0  0  0  0
   -6.0040   -2.1980   -0.1960 C   0  0  0  0  0  0  0  0  0  0  0  0
   -5.1460   -1.1660   -0.6230 O   0  0  0  0  0  0  0  0  0  0  0  0
   -1.2350    1.7830   -1.3460 C   0  0  0  0  0  0  0  0  0  0  0  0
  1  2  1  0
  2  3  1  0
  3  4  2  0
  3 31  1  0
  4  5  1  0
  5  6  1  0
  5 20  2  0
  6  7  1  0
  7  8  2  0
  7  9  1  0
  9 10  2  0
  9 14  1  0
 10 11  1  0
 11 12  2  0
 11 18  1  0
 12 13  1  0
 12 16  1  0
 13 14  1  0
 14 15  2  0
 16 17  1  0
 17 18  1  0
 18 19  2  0
 20 21  1  0
 21 22  1  0
 21 31  2  0
 22 23  1  0
 23 24  1  0
 24 25  2  0
 24 30  1  0
 25 26  1  0
 26 27  1  0
 27 28  1  0
 28 29  1  0
 29 30  1  0
M  END
