
     RDKit          3D

 31 34  0  0  0  0  0  0  0  0999 V2000
   -4.5950   -0.7370   -3.2480 C   0  0  0  0  0  0  0  0  0  0  0  0
   -5.2210   -0.1590   -2.0570 C   0  0  0  0  0  0  0  0  0  0  0  0
   -6.9680    0.4110   -1.9520 S   0  0  0  0  0  0  0  0  0  0  0  0
   -6.8670    0.9290   -0.2500 C   0  0  0  0  0  0  0  0  0  0  0  0
   -5.5900    0.6530    0.1100 C   0  0  0  0  0  0  0  0  0  0  0  0
   -4.7510    0.1080   -0.7840 C   0  0  0  0  0  0  0  0  0  0  0  0
   -3.3380   -0.2360   -0.5040 N   0  0  0  0  0  0  0  0  0  0  0  0
   -2.3370    0.7320   -0.7380 C   0  0  0  0  0  0  0  0  0  0  0  0
   -2.6600    1.8870   -1.1860 O   0  0  0  0  0  0  0  0  0  0  0  0
   -0.9170    0.5120   -0.5020 C   0  0  0  0  0  0  0  0  0  0  0  0
   -0.4610   -0.6250   -0.0460 C   0  0  0  0  0  0  0  0  0  0  0  0
    0.9790   -0.7980    0.1750 C   0  0  0  0  0  0  0  0  0  0  0  0
    1.5010   -1.9760    0.6530 C   0  0  0  0  0  0  0  0  0  0  0  0
    2.8520   -2.1310    0.8580 C   0  0  0  0  0  0  0  0  0  0  0  0
    3.7780   -1.1030    0.5930 C   0  0  0  0  0  0  0  0  0  0  0  0
    5.1550   -1.3320    0.9000 C   0  0  0  0  0  0  0  0  0  0  0  0
    5.3750   -2.3930    1.6440 O   0  0  0  0  0  0  0  0  0  0  0  0
    6.3500   -0.6140    0.5440 C   0  0  0  0  0  0  0  0  0  0  0  0
    7.5280   -1.0240    1.0520 C   0  0  0  0  0  0  0  0  0  0  0  0
    8.8320   -0.3970    0.7850 C   0  0  0  0  0  0  0  0  0  0  0  0
    8.7860    0.6140   -0.1610 O   0  0  0  0  0  0  0  0  0  0  0  0
    7.6370    1.0680   -0.7070 C   0  0  0  0  0  0  0  0  0  0  0  0
    7.6440    2.1300   -1.6080 O   0  0  0  0  0  0  0  0  0  0  0  0
    6.4680    0.4930   -0.3810 C   0  0  0  0  0  0  0  0  0  0  0  0
    3.1980    0.0420    0.1230 C   0  0  0  0  0  0  0  0  0  0  0  0
    1.8510    0.1840   -0.0780 N   0  0  0  0  0  0  0  0  0  0  0  0
   -5.2770    1.0100    1.5350 C   0  0  0  0  0  0  0  0  0  0  0  0
   -4.1620    0.8320    2.0440 O   0  0  0  0  0  0  0  0  0  0  0  0
   -6.2790    1.5620    2.3100 O   0  0  0  0  0  0  0  0  0  0  0  0
   -7.6550    1.2160    2.0750 C   0  0  0  0  0  0  0  0  0  0  0  0
   -7.9130    1.5340    0.6200 C   0  0  0  0  0  0  0  0  0  0  0  0
  1  2  1  0
  2  3  1  0
  2  6  2  0
  3  4  1  0
  4  5  2  0
  4 31  1  0
  5  6  1  0
  5 27  1  0
  6  7  1  0
  7  8  1  0
  8  9  2  0
  8 10  1  0
 10 11  2  3
 11 12  1  0
 12 13  2  0
 12 26  1  0
 13 14  1  0
 14 15  2  0
 15 16  1  0
 15 25  1  0
 16 17  2  0
 16 18  1  0
 18 19  2  0
 18 24  1  0
 19 20  1  0
 20 21  1  0
 21 22  1  0
 22 23  1  0
 22 24  2  0
 25 26  2  0
 27 28  2  0
 27 29  1  0
 29 30  1  0
 30 31  1  0
M  END
