
     RDKit          3D

 26 29  0  0  0  0  0  0  0  0999 V2000
    8.2970    0.0670    0.0900 C   0  0  0  0  0  0  0  0  0  0  0  0
    6.9100   -0.2870   -0.4480 C   0  0  0  0  0  0  0  0  0  0  0  0
    5.9550    0.3170    0.3940 O   0  0  0  0  0  0  0  0  0  0  0  0
    4.5930    0.2090    0.2100 C   0  0  0  0  0  0  0  0  0  0  0  0
    4.1120   -0.5230   -0.8490 C   0  0  0  0  0  0  0  0  0  0  0  0
    2.7580   -0.6410   -1.0470 C   0  0  0  0  0  0  0  0  0  0  0  0
    1.8990   -0.0110   -0.1660 C   0  0  0  0  0  0  0  0  0  0  0  0
    0.5160   -0.1210   -0.3540 C   0  0  0  0  0  0  0  0  0  0  0  0
   -0.3680    0.4880    0.4980 C   0  0  0  0  0  0  0  0  0  0  0  0
   -1.8030    0.3580    0.3310 C   0  0  0  0  0  0  0  0  0  0  0  0
   -2.7180    1.3490    0.2490 N   0  0  0  0  0  0  0  0  0  0  0  0
   -3.9340    0.8780    0.1220 N   0  0  0  0  0  0  0  0  0  0  0  0
   -5.1960    1.5820    0.0010 C   0  0  2  0  0  0  0  0  0  0  0  0
   -6.3160    0.9190    0.7310 C   0  0  0  0  0  0  0  0  0  0  0  0
   -5.5970    1.8090   -1.4280 C   0  0  0  0  0  0  0  0  0  0  0  0
   -3.8320   -0.4730    0.1200 C   0  0  0  0  0  0  0  0  0  0  0  0
   -4.7270   -1.4670    0.0280 N   0  0  0  0  0  0  0  0  0  0  0  0
   -4.4080   -2.7620    0.0580 C   0  0  0  0  0  0  0  0  0  0  0  0
   -3.1150   -3.0820    0.1880 N   0  0  0  0  0  0  0  0  0  0  0  0
   -2.1320   -2.1760    0.2880 C   0  0  0  0  0  0  0  0  0  0  0  0
   -0.7700   -2.5410    0.4510 N   0  0  0  0  0  0  0  0  0  0  0  0
   -2.4870   -0.8290    0.2520 C   0  0  0  0  0  0  0  0  0  0  0  0
    0.1340    1.2260    1.5630 C   0  0  0  0  0  0  0  0  0  0  0  0
    1.4890    1.3530    1.7740 C   0  0  0  0  0  0  0  0  0  0  0  0
    2.3690    0.7280    0.9010 C   0  0  0  0  0  0  0  0  0  0  0  0
    3.7420    0.8380    1.0900 C   0  0  0  0  0  0  0  0  0  0  0  0
  1  2  1  0
  2  3  1  0
  3  4  1  0
  4  5  2  0
  4 26  1  0
  5  6  1  0
  6  7  2  0
  7  8  1  0
  7 25  1  0
  8  9  2  0
  9 10  1  0
  9 23  1  0
 10 11  2  0
 10 22  1  0
 11 12  1  0
 12 13  1  0
 12 16  1  0
 13 14  1  6
 13 15  1  0
 16 17  2  0
 16 22  1  0
 17 18  1  0
 18 19  2  0
 19 20  1  0
 20 21  1  0
 20 22  2  0
 23 24  2  0
 24 25  1  0
 25 26  2  0
M  END
