
     RDKit          3D

 31 34  0  0  0  0  0  0  0  0999 V2000
   -5.9790   -3.9660   -0.3050 C   0  0  0  0  0  0  0  0  0  0  0  0
   -5.1220   -3.0100    0.2900 O   0  0  0  0  0  0  0  0  0  0  0  0
   -3.8150   -2.8750   -0.1520 C   0  0  0  0  0  0  0  0  0  0  0  0
   -3.3560   -3.6760   -1.1740 C   0  0  0  0  0  0  0  0  0  0  0  0
   -2.0470   -3.4880   -1.5630 C   0  0  0  0  0  0  0  0  0  0  0  0
   -1.2450   -2.5400   -0.9510 C   0  0  0  0  0  0  0  0  0  0  0  0
    0.0710   -2.3480   -1.3380 C   0  0  0  0  0  0  0  0  0  0  0  0
    0.4840   -3.0830   -2.2720 O   0  0  0  0  0  0  0  0  0  0  0  0
    0.8360   -1.4530   -0.7620 O   0  0  0  0  0  0  0  0  0  0  0  0
    0.3460   -0.7150    0.2090 C   0  0  0  0  0  0  0  0  0  0  0  0
    1.0820    0.1880    0.8060 N   0  0  0  0  0  0  0  0  0  0  0  0
    2.4190    0.4300    0.4620 C   0  0  0  0  0  0  0  0  0  0  0  0
    2.7170    1.0200   -0.7440 C   0  0  0  0  0  0  0  0  0  0  0  0
    3.9940    1.2830   -1.1410 C   0  0  0  0  0  0  0  0  0  0  0  0
    5.1050    0.9570   -0.3140 C   0  0  0  0  0  0  0  0  0  0  0  0
    6.6860    1.3530   -0.9490 S   0  0  0  0  0  0  0  0  0  0  0  0
    8.1330    1.0210   -0.0380 C   0  0  0  0  0  0  0  0  0  0  0  0
    4.8050    0.3700    0.8860 C   0  0  0  0  0  0  0  0  0  0  0  0
    5.7790    0.0090    1.7700 O   0  0  0  0  0  0  0  0  0  0  0  0
    3.4620    0.1090    1.2700 C   0  0  0  0  0  0  0  0  0  0  0  0
   -0.9240   -0.8250    0.6580 N   0  0  0  0  0  0  0  0  0  0  0  0
   -1.3840    0.0160    1.7210 C   0  0  0  0  0  0  0  0  0  0  0  0
   -1.9530    1.2890    1.2120 C   0  0  0  0  0  0  0  0  0  0  0  0
   -3.2610    1.5650    0.8870 C   0  0  0  0  0  0  0  0  0  0  0  0
   -3.3280    2.8750    0.4560 C   0  0  0  0  0  0  0  0  0  0  0  0
   -2.0320    3.3460    0.5410 C   0  0  0  0  0  0  0  0  0  0  0  0
   -1.5870    4.7360    0.1770 C   0  0  0  0  0  0  0  0  0  0  0  0
   -2.6900    5.4730   -0.2580 O   0  0  0  0  0  0  0  0  0  0  0  0
   -1.2650    2.4050    0.9800 O   0  0  0  0  0  0  0  0  0  0  0  0
   -1.7200   -1.7370    0.0790 C   0  0  0  0  0  0  0  0  0  0  0  0
   -3.0230   -1.9200    0.4700 C   0  0  0  0  0  0  0  0  0  0  0  0
  1  2  1  0
  2  3  1  0
  3  4  2  0
  3 31  1  0
  4  5  1  0
  5  6  2  0
  6  7  1  0
  6 30  1  0
  7  8  2  0
  7  9  1  0
  9 10  1  0
 10 11  2  3
 10 21  1  0
 11 12  1  0
 12 13  2  0
 12 20  1  0
 13 14  1  0
 14 15  2  0
 15 16  1  0
 15 18  1  0
 16 17  1  0
 18 19  1  0
 18 20  2  0
 21 22  1  0
 21 30  1  0
 22 23  1  0
 23 24  2  0
 23 29  1  0
 24 25  1  0
 25 26  2  0
 26 27  1  0
 26 29  1  0
 27 28  1  0
 30 31  2  0
M  END
