
     RDKit          3D

 20 20  0  0  0  0  0  0  0  0999 V2000
   -4.9750   -1.2460    0.1370 C   0  0  0  0  0  0  0  0  0  0  0  0
   -3.6260   -0.9120   -0.1980 O   0  0  0  0  0  0  0  0  0  0  0  0
   -3.0880    0.3260    0.1890 C   0  0  0  0  0  0  0  0  0  0  0  0
   -3.8650    1.0810    0.8280 O   0  0  0  0  0  0  0  0  0  0  0  0
   -1.6900    0.7090   -0.1400 C   0  0  2  0  0  0  0  0  0  0  0  0
   -1.7190    1.9830   -0.9300 C   0  0  0  0  0  0  0  0  0  0  0  0
   -2.4430    1.7550   -2.0770 F   0  0  0  0  0  0  0  0  0  0  0  0
   -1.1040   -0.3610   -0.8580 O   0  0  0  0  0  0  0  0  0  0  0  0
    0.2670   -0.5320   -0.9650 C   0  0  0  0  0  0  0  0  0  0  0  0
    0.8350   -1.2870   -1.7570 O   0  0  0  0  0  0  0  0  0  0  0  0
    1.0680    0.2550   -0.0610 N   0  0  0  0  0  0  0  0  0  0  0  0
    2.5070    0.1430   -0.1010 C   0  0  0  0  0  0  0  0  0  0  0  0
    3.0350   -0.9230    0.8190 C   0  0  0  0  0  0  0  0  0  0  0  0
    4.8870   -0.9670    0.6790 P   0  0  0  0  0  0  0  0  0  0  0  0
    5.5400    0.6290    0.4550 O   0  0  0  0  0  0  0  0  0  0  0  0
    5.4060   -2.0410   -0.5680 O   0  0  0  0  0  0  0  0  0  0  0  0
    0.4600    1.1410    0.8710 C   0  0  0  0  0  0  0  0  0  0  0  0
    1.1440    2.0700    1.3690 O   0  0  0  0  0  0  0  0  0  0  0  0
   -0.9680    0.8920    1.1900 C   0  0  2  0  0  0  0  0  0  0  0  0
   -1.1550   -0.3470    1.9280 N   0  0  0  0  0  0  0  0  0  0  0  0
  1  2  1  0
  2  3  1  0
  3  4  2  0
  3  5  1  0
  5  6  1  6
  5  8  1  0
  5 19  1  0
  6  7  1  0
  8  9  1  0
  9 10  2  0
  9 11  1  0
 11 12  1  0
 11 17  1  0
 12 13  1  0
 13 14  1  0
 14 15  1  0
 14 16  1  0
 17 18  2  0
 17 19  1  0
 19 20  1  1
M  END
