
     RDKit          3D

 20 21  0  0  0  0  0  0  0  0999 V2000
   -2.1060    1.3930   -1.0670 O   0  0  0  0  0  0  0  0  0  0  0  0
   -2.2760    0.9760    0.0530 C   0  0  0  0  0  0  0  0  0  0  0  0
   -1.2030    0.8570    0.9980 N   0  0  0  0  0  0  0  0  0  0  0  0
    0.1720    1.1760    0.7560 C   0  0  0  0  0  0  0  0  0  0  0  0
    0.8080    0.2760   -0.2320 C   0  0  0  0  0  0  0  0  0  0  0  0
    2.2080    0.6630   -0.2720 O   0  0  0  0  0  0  0  0  0  0  0  0
    3.0340   -0.6850    0.5160 P   0  0  0  0  0  0  0  0  0  0  0  0
    2.4800   -0.8340    2.1710 O   0  0  0  0  0  0  0  0  0  0  0  0
    4.6820   -0.7010    0.4040 O   0  0  0  0  0  0  0  0  0  0  0  0
    5.3350    0.0560   -0.5280 C   0  0  1  0  0  0  0  0  0  0  0  0
    6.7850    0.1240   -0.1740 C   0  0  0  0  0  0  0  0  0  0  0  0
    7.3980   -0.2450   -1.4010 O   0  0  0  0  0  0  0  0  0  0  0  0
    6.5710   -1.2190   -1.7540 O   0  0  0  0  0  0  0  0  0  0  0  0
    5.3970   -0.6760   -1.7640 O   0  0  0  0  0  0  0  0  0  0  0  0
   -3.6070    0.5310    0.6130 C   0  0  2  0  0  0  0  0  0  0  0  0
   -3.6620   -0.9800    0.3090 C   0  0  0  0  0  0  0  0  0  0  0  0
   -5.1200   -1.2710    0.2900 C   0  0  2  0  0  0  0  0  0  0  0  0
   -5.4640   -2.1280   -0.7610 F   0  0  0  0  0  0  0  0  0  0  0  0
   -5.7810    0.0800    0.0780 C   0  0  0  0  0  0  0  0  0  0  0  0
   -4.7170    1.0190   -0.0780 N   0  0  0  0  0  0  0  0  0  0  0  0
  1  2  2  0
  2  3  1  0
 15  2  1  6
  3  4  1  0
  4  5  1  0
  5  6  1  0
  6  7  1  0
  7  8  1  0
  7  9  1  0
 10  9  1  1
 10 11  1  0
 10 14  1  0
 11 12  1  0
 12 13  1  0
 13 14  1  0
 15 16  1  0
 15 20  1  0
 16 17  1  0
 17 18  1  6
 17 19  1  0
 19 20  1  0
M  END
