
     RDKit          3D

 21 21  0  0  0  0  0  0  0  0999 V2000
   -4.2780    2.8370   -0.9420 C   0  0  0  0  0  0  0  0  0  0  0  0
   -4.8990    1.6520   -0.2520 C   0  0  0  0  0  0  0  0  0  0  0  0
   -3.9860    0.6740    0.1330 O   0  0  0  0  0  0  0  0  0  0  0  0
   -3.1490   -0.0310   -0.6900 C   0  0  0  0  0  0  0  0  0  0  0  0
   -3.1950    0.2170   -1.9270 O   0  0  0  0  0  0  0  0  0  0  0  0
   -2.2430   -1.0360   -0.0970 C   0  0  1  0  0  0  0  0  0  0  0  0
   -3.0170   -2.0780    0.6540 C   0  0  0  0  0  0  0  0  0  0  0  0
   -1.4520   -1.6740   -1.0470 O   0  0  0  0  0  0  0  0  0  0  0  0
   -0.3390   -2.1030   -0.2930 C   0  0  0  0  0  0  0  0  0  0  0  0
   -0.0990   -0.8970    0.5430 C   0  0  0  0  0  0  0  0  0  0  0  0
    1.0120   -0.4100    0.9840 N   0  0  0  0  0  0  0  0  0  0  0  0
    2.2230   -1.1300    0.6210 C   0  0  2  0  0  0  0  0  0  0  0  0
    2.0940   -2.4760    0.9060 F   0  0  0  0  0  0  0  0  0  0  0  0
    3.3380   -0.5660    1.3580 N   0  0  0  0  0  0  0  0  0  0  0  0
    4.4120    0.0680    0.6630 C   0  0  0  0  0  0  0  0  0  0  0  0
    4.4000    0.1410   -0.5930 O   0  0  0  0  0  0  0  0  0  0  0  0
    5.5050    0.6260    1.3190 O   0  0  0  0  0  0  0  0  0  0  0  0
    6.8100    1.4010    0.3940 P   0  0  0  0  0  0  0  0  0  0  0  0
    7.4490    0.1720   -0.6770 O   0  0  0  0  0  0  0  0  0  0  0  0
    6.0720    2.6220   -0.5940 O   0  0  0  0  0  0  0  0  0  0  0  0
   -1.3600   -0.3630    0.7750 O   0  0  0  0  0  0  0  0  0  0  0  0
  1  2  1  0
  2  3  1  0
  3  4  1  0
  4  5  2  0
  4  6  1  0
  6  7  1  1
  6  8  1  0
  6 21  1  0
  8  9  1  0
  9 10  1  0
 10 11  2  3
 10 21  1  0
 11 12  1  0
 12 13  1  1
 12 14  1  0
 14 15  1  0
 15 16  2  0
 15 17  1  0
 17 18  1  0
 18 19  1  0
 18 20  1  0
M  END
