
     RDKit          3D

 25 26  0  0  0  0  0  0  0  0999 V2000
    7.9690   -0.0870   -0.4540 C   0  0  0  0  0  0  0  0  0  0  0  0
    6.9750   -1.1860   -0.2530 C   0  0  0  0  0  0  0  0  0  0  0  0
    5.7510   -0.7380    0.4950 C   0  0  0  0  0  0  0  0  0  0  0  0
    5.0210    0.3730   -0.2320 C   0  0  0  0  0  0  0  0  0  0  0  0
    3.8280    0.8150    0.4890 C   0  0  0  0  0  0  0  0  0  0  0  0
    2.6050    0.7670    0.0120 C   0  0  0  0  0  0  0  0  0  0  0  0
    2.1800    0.1480   -1.6110 S   0  0  0  0  0  0  0  0  0  0  0  0
    0.4090    0.0010   -1.2760 C   0  0  0  0  0  0  0  0  0  0  0  0
   -0.4280   -0.6450   -1.9770 O   0  0  0  0  0  0  0  0  0  0  0  0
    0.2030    0.7450   -0.1030 N   0  0  0  0  0  0  0  0  0  0  0  0
   -1.1610    1.0650    0.3570 C   0  0  0  0  0  0  0  0  0  0  0  0
   -1.5680   -0.0760    1.2590 C   0  0  0  0  0  0  0  0  0  0  0  0
   -2.8560    0.0780    1.7850 O   0  0  0  0  0  0  0  0  0  0  0  0
   -3.9300    0.1670    0.9350 C   0  0  0  0  0  0  0  0  0  0  0  0
   -4.4160    1.4070    0.7520 C   0  0  0  0  0  0  0  0  0  0  0  0
   -5.4980    2.0040   -0.0190 C   0  0  0  0  0  0  0  0  0  0  0  0
   -5.9440    3.7820    0.5030 Br  0  0  0  0  0  0  0  0  0  0  0  0
   -6.2410    1.5570   -1.0190 C   0  0  0  0  0  0  0  0  0  0  0  0
   -6.3280    0.3030   -1.7940 C   0  0  0  0  0  0  0  0  0  0  0  0
   -5.8550   -0.9230   -1.6050 C   0  0  0  0  0  0  0  0  0  0  0  0
   -5.0470   -1.6040   -0.5720 C   0  0  0  0  0  0  0  0  0  0  0  0
   -4.2980   -1.1470    0.4170 C   0  0  0  0  0  0  0  0  0  0  0  0
   -3.6630   -2.2410    1.2120 C   0  0  0  0  0  0  0  0  0  0  0  0
    1.3410    1.1600    0.5940 C   0  0  0  0  0  0  0  0  0  0  0  0
    1.3460    1.8480    1.6860 O   0  0  0  0  0  0  0  0  0  0  0  0
  1  2  1  0
  2  3  1  0
  3  4  1  0
  4  5  1  0
  5  6  2  3
  6  7  1  0
  6 24  1  0
  7  8  1  0
  8  9  2  0
  8 10  1  0
 10 11  1  0
 10 24  1  0
 11 12  1  0
 12 13  1  0
 13 14  1  0
 14 15  2  0
 14 22  1  0
 15 16  1  0
 16 17  1  0
 16 18  2  0
 18 19  1  0
 19 20  2  0
 20 21  1  0
 21 22  2  0
 22 23  1  0
 24 25  2  0
M  END
