
     RDKit          3D

 25 27  0  0  0  0  0  0  0  0999 V2000
   -5.6020   -0.9400   -2.3050 C   0  0  0  0  0  0  0  0  0  0  0  0
   -4.7190   -0.5870   -1.4130 C   0  0  0  0  0  0  0  0  0  0  0  0
   -5.0690    0.2210   -0.2680 C   0  0  0  0  0  0  0  0  0  0  0  0
   -6.1340    0.9830   -0.0390 C   0  0  0  0  0  0  0  0  0  0  0  0
   -6.0070    1.6010    1.2920 C   0  0  0  0  0  0  0  0  0  0  0  0
   -4.8690    1.1980    1.8330 C   0  0  0  0  0  0  0  0  0  0  0  0
   -4.2010    0.3050    0.8920 C   0  0  0  0  0  0  0  0  0  0  0  0
   -3.0470   -0.3180    1.0330 C   0  0  0  0  0  0  0  0  0  0  0  0
   -2.4650   -1.1680    0.0820 N   0  0  0  0  0  0  0  0  0  0  0  0
   -1.4240   -2.1130    0.3520 C   0  0  0  0  0  0  0  0  0  0  0  0
   -0.1150   -1.4240    0.3020 C   0  0  0  0  0  0  0  0  0  0  0  0
   -0.0640   -0.1380    0.0640 C   0  0  0  0  0  0  0  0  0  0  0  0
    1.2400    0.5580    0.0110 C   0  0  0  0  0  0  0  0  0  0  0  0
    2.2900   -0.3610    0.2450 O   0  0  0  0  0  0  0  0  0  0  0  0
    3.6170    0.0460    0.2470 C   0  0  0  0  0  0  0  0  0  0  0  0
    4.0160    1.3460    0.0270 C   0  0  0  0  0  0  0  0  0  0  0  0
    5.3650    1.7060    0.0400 C   0  0  0  0  0  0  0  0  0  0  0  0
    6.3430    0.7640    0.2740 C   0  0  0  0  0  0  0  0  0  0  0  0
    7.7980    1.1030    0.2960 C   0  0  0  0  0  0  0  0  0  0  0  0
    5.9360   -0.5350    0.4930 C   0  0  0  0  0  0  0  0  0  0  0  0
    4.5970   -0.8980    0.4820 C   0  0  0  0  0  0  0  0  0  0  0  0
    4.0730   -2.7180    0.7910 Br  0  0  0  0  0  0  0  0  0  0  0  0
   -3.0550   -1.0810   -1.5610 S   0  0  2  0  0  0  0  0  0  0  0  0
   -2.3180   -0.0780   -2.3720 O   0  0  0  0  0  0  0  0  0  0  0  0
   -2.9250   -2.4180   -2.2310 O   0  0  0  0  0  0  0  0  0  0  0  0
  1  2  2  0
  2  3  1  0
  2 23  1  0
  3  4  2  0
  3  7  1  0
  4  5  1  0
  5  6  2  0
  6  7  1  0
  7  8  2  0
  8  9  1  0
  9 10  1  0
 23  9  1  1
 10 11  1  0
 11 12  2  3
 12 13  1  0
 13 14  1  0
 14 15  1  0
 15 16  2  0
 15 21  1  0
 16 17  1  0
 17 18  2  0
 18 19  1  0
 18 20  1  0
 20 21  2  0
 21 22  1  0
 23 24  2  0
 23 25  2  0
M  END
