
     RDKit          3D

 15 15  0  0  0  0  0  0  0  0999 V2000
    0.0800    1.7880   -1.4170 C   0  0  0  0  0  0  0  0  0  0  0  0
    0.0890    0.4590   -0.6590 C   0  0  1  0  0  0  0  0  0  0  0  0
   -1.2390    0.2100   -0.0780 C   0  0  2  0  0  0  0  0  0  0  0  0
   -1.7230    1.2400    0.9140 C   0  0  0  0  0  0  0  0  0  0  0  0
   -1.5860    2.5150    0.4250 O   0  0  0  0  0  0  0  0  0  0  0  0
   -1.4200   -1.0430    0.4900 O   0  0  0  0  0  0  0  0  0  0  0  0
   -2.4650   -1.7040   -0.1390 C   0  0  0  0  0  0  0  0  0  0  0  0
   -2.6800   -2.9680    0.3990 O   0  0  0  0  0  0  0  0  0  0  0  0
    0.4170   -0.6460   -1.6410 C   0  0  0  0  0  0  0  0  0  0  0  0
    2.2150   -0.9050   -1.7680 S   0  0  0  0  0  0  0  0  0  0  0  0
    2.9030   -1.1590   -0.0770 C   0  0  0  0  0  0  0  0  0  0  0  0
    1.7010   -0.7920    0.8150 C   0  0  1  0  0  0  0  0  0  0  0  0
    2.0560   -0.7830    2.1460 O   0  0  0  0  0  0  0  0  0  0  0  0
    1.2280    0.5560    0.3140 C   0  0  2  0  0  0  0  0  0  0  0  0
    0.9240    1.4130    1.3920 O   0  0  0  0  0  0  0  0  0  0  0  0
  2  1  1  6
  2  3  1  0
  2  9  1  0
  2 14  1  0
  3  4  1  1
  3  6  1  0
  4  5  1  0
  6  7  1  0
  7  8  1  0
  9 10  1  0
 10 11  1  0
 11 12  1  0
 12 13  1  1
 12 14  1  0
 14 15  1  1
M  END
