
     RDKit          3D

 15 15  0  0  0  0  0  0  0  0999 V2000
    3.6610   -0.9590   -0.3670 C   0  0  0  0  0  0  0  0  0  0  0  0
    3.0230    0.4080   -0.2290 C   0  0  2  0  0  0  0  0  0  0  0  0
    4.1000    1.3290    0.3340 C   0  0  0  0  0  0  0  0  0  0  0  0
    1.6580    0.4210    0.9440 S   0  0  0  0  0  0  0  0  0  0  0  0
    0.1380   -0.2760    0.2760 C   0  0  2  0  0  0  0  0  0  0  0  0
   -0.5130    0.6570   -0.5240 O   0  0  0  0  0  0  0  0  0  0  0  0
   -1.5630    0.0890   -1.2270 C   0  0  2  0  0  0  0  0  0  0  0  0
   -2.4910    1.1890   -1.6750 C   0  0  0  0  0  0  0  0  0  0  0  0
   -2.5450    2.2460   -0.7780 O   0  0  0  0  0  0  0  0  0  0  0  0
   -2.3480   -0.8920   -0.3940 C   0  0  2  0  0  0  0  0  0  0  0  0
   -3.6890   -0.8770   -0.7630 O   0  0  0  0  0  0  0  0  0  0  0  0
   -2.2250   -0.5660    1.0700 C   0  0  2  0  0  0  0  0  0  0  0  0
   -2.8030    0.6630    1.3580 O   0  0  0  0  0  0  0  0  0  0  0  0
   -0.7690   -0.6290    1.4450 C   0  0  1  0  0  0  0  0  0  0  0  0
   -0.4220   -1.9160    1.8540 O   0  0  0  0  0  0  0  0  0  0  0  0
  2  1  1  1
  2  3  1  0
  2  4  1  0
  5  4  1  1
  5  6  1  0
  5 14  1  0
  6  7  1  0
  7  8  1  1
  7 10  1  0
  8  9  1  0
 10 11  1  6
 10 12  1  0
 12 13  1  6
 12 14  1  0
 14 15  1  6
M  END
