
     RDKit          3D

 15 15  0  0  0  0  0  0  0  0999 V2000
   -2.0450   -1.4530   -0.1190 C   0  0  0  0  0  0  0  0  0  0  0  0
   -1.2060   -0.2700   -0.4700 C   0  0  1  0  0  0  0  0  0  0  0  0
   -0.9350   -0.3070   -1.8320 O   0  0  0  0  0  0  0  0  0  0  0  0
   -2.0440    0.9800   -0.2300 C   0  0  0  0  0  0  0  0  0  0  0  0
   -3.5380    0.9710   -1.2550 S   0  0  0  0  0  0  0  0  0  0  0  0
   -4.4050    2.4140   -0.9100 O   0  0  0  0  0  0  0  0  0  0  0  0
    0.0290   -0.1200    0.3680 C   0  0  1  0  0  0  0  0  0  0  0  0
   -0.4270   -0.0840    1.8260 C   0  0  0  0  0  0  0  0  0  0  0  0
    1.0080   -1.2350    0.2340 C   0  0  0  0  0  0  0  0  0  0  0  0
    2.3770   -0.6950    0.6660 C   0  0  2  0  0  0  0  0  0  0  0  0
    2.3110   -0.0380    1.8770 O   0  0  0  0  0  0  0  0  0  0  0  0
    2.8780    0.3190   -0.3620 C   0  0  1  0  0  0  0  0  0  0  0  0
    3.5950   -0.3540   -1.3360 O   0  0  0  0  0  0  0  0  0  0  0  0
    1.6040    0.9270   -0.9650 C   0  0  0  0  0  0  0  0  0  0  0  0
    0.6570    1.0640    0.0210 O   0  0  0  0  0  0  0  0  0  0  0  0
  2  1  1  1
  2  3  1  0
  2  4  1  0
  2  7  1  0
  4  5  1  0
  5  6  1  0
  7  8  1  1
  7  9  1  0
  7 15  1  0
  9 10  1  0
 10 11  1  1
 10 12  1  0
 12 13  1  6
 12 14  1  0
 14 15  1  0
M  END
