
     RDKit          3D

 15 15  0  0  0  0  0  0  0  0999 V2000
   -1.2790   -2.2070    0.5470 O   0  0  0  0  0  0  0  0  0  0  0  0
   -1.3560   -1.1460    1.4140 C   0  0  0  0  0  0  0  0  0  0  0  0
   -1.5170    0.1860    0.6930 C   0  0  0  0  0  0  0  0  0  0  0  0
   -2.5980    0.8510    0.9590 C   0  0  0  0  0  0  0  0  0  0  0  0
   -3.1110    2.1300    0.4910 C   0  0  1  0  0  0  0  0  0  0  0  0
   -3.3370    3.0140    1.5580 O   0  0  0  0  0  0  0  0  0  0  0  0
   -1.9640    2.8820   -0.6590 S   0  0  0  0  0  0  0  0  0  0  0  0
   -0.5940    1.8350   -0.8660 C   0  0  0  0  0  0  0  0  0  0  0  0
   -0.4870    0.6540   -0.2200 C   0  0  0  0  0  0  0  0  0  0  0  0
    0.6260   -0.0330   -0.4790 O   0  0  0  0  0  0  0  0  0  0  0  0
    1.2030   -1.2090   -0.4760 C   0  0  0  0  0  0  0  0  0  0  0  0
    2.6780   -1.0990   -0.9990 C   0  0  2  0  0  0  0  0  0  0  0  0
    3.2150   -2.3640   -0.9670 O   0  0  0  0  0  0  0  0  0  0  0  0
    3.4260   -0.1310   -0.1090 C   0  0  0  0  0  0  0  0  0  0  0  0
    2.8500    1.1350   -0.1730 O   0  0  0  0  0  0  0  0  0  0  0  0
  1  2  1  0
  2  3  1  0
  3  4  2  0
  3  9  1  0
  4  5  1  0
  5  6  1  1
  5  7  1  0
  7  8  1  0
  8  9  2  0
  9 10  1  0
 10 11  1  0
 11 12  1  0
 12 13  1  1
 12 14  1  0
 14 15  1  0
M  END
