
     RDKit          3D

 15 15  0  0  0  0  0  0  0  0999 V2000
   -0.3310   -0.0740   -1.8080 C   0  0  0  0  0  0  0  0  0  0  0  0
   -0.8550   -0.4510   -0.4340 C   0  0  2  0  0  0  0  0  0  0  0  0
   -2.0710   -1.3540   -0.6930 C   0  0  0  0  0  0  0  0  0  0  0  0
   -1.3660    0.7900    0.2150 C   0  0  2  0  0  0  0  0  0  0  0  0
   -0.6760    1.9360   -0.2030 O   0  0  0  0  0  0  0  0  0  0  0  0
   -1.3610    0.7790    1.7000 C   0  0  1  0  0  0  0  0  0  0  0  0
   -2.6200    1.1610    2.2220 O   0  0  0  0  0  0  0  0  0  0  0  0
   -1.0950   -0.6030    2.1990 C   0  0  0  0  0  0  0  0  0  0  0  0
   -0.0110   -1.2310    1.6900 O   0  0  0  0  0  0  0  0  0  0  0  0
    0.1290   -1.2370    0.3300 C   0  0  1  0  0  0  0  0  0  0  0  0
   -0.0030   -2.5870   -0.0800 O   0  0  0  0  0  0  0  0  0  0  0  0
    1.5740   -0.8760    0.0380 C   0  0  0  0  0  0  0  0  0  0  0  0
    1.8770    0.8670    0.4420 S   0  0  0  0  0  0  0  0  0  0  0  0
    3.5710    1.3500    0.1140 C   0  0  0  0  0  0  0  0  0  0  0  0
    3.7890    1.2890   -1.2710 O   0  0  0  0  0  0  0  0  0  0  0  0
  2  1  1  6
  2  3  1  0
  2  4  1  0
  2 10  1  0
  4  5  1  6
  4  6  1  0
  6  7  1  1
  6  8  1  0
  8  9  1  0
  9 10  1  0
 10 11  1  6
 10 12  1  0
 12 13  1  0
 13 14  1  0
 14 15  1  0
M  END
