
     RDKit          3D

 15 15  0  0  0  0  0  0  0  0999 V2000
    1.3900   -2.1410   -0.6170 O   0  0  0  0  0  0  0  0  0  0  0  0
    0.5700   -1.1970   -1.2050 C   0  0  0  0  0  0  0  0  0  0  0  0
    0.0300   -0.2020   -0.1660 C   0  0  2  0  0  0  0  0  0  0  0  0
    1.2750    0.4460    0.4260 C   0  0  0  0  0  0  0  0  0  0  0  0
    2.1260    1.1660   -0.5460 C   0  0  0  0  0  0  0  0  0  0  0  0
    3.5480    1.8410    0.4070 S   0  0  0  0  0  0  0  0  0  0  0  0
    4.4540    0.4710    0.9550 O   0  0  0  0  0  0  0  0  0  0  0  0
   -0.6490   -0.9170    0.9320 C   0  0  1  0  0  0  0  0  0  0  0  0
   -0.1310   -0.5630    2.2030 O   0  0  0  0  0  0  0  0  0  0  0  0
   -2.1240   -0.8050    1.0310 C   0  0  0  0  0  0  0  0  0  0  0  0
   -2.6730    0.5710    0.9050 C   0  0  0  0  0  0  0  0  0  0  0  0
   -3.0440    0.7900   -0.4150 O   0  0  0  0  0  0  0  0  0  0  0  0
   -2.1280    0.3160   -1.3100 C   0  0  0  0  0  0  0  0  0  0  0  0
   -0.7540    0.8110   -0.9180 C   0  0  2  0  0  0  0  0  0  0  0  0
   -0.0860    1.0020   -2.1580 O   0  0  0  0  0  0  0  0  0  0  0  0
  1  2  1  0
  3  2  1  6
  3  4  1  0
  3  8  1  0
  3 14  1  0
  4  5  1  0
  5  6  1  0
  6  7  1  0
  8  9  1  1
  8 10  1  0
 10 11  1  0
 11 12  1  0
 12 13  1  0
 13 14  1  0
 14 15  1  6
M  END
