
     RDKit          3D

 18 20  0  0  0  0  0  0  0  0999 V2000
    1.4250   -2.5980   -0.2140 C   0  0  0  0  0  0  0  0  0  0  0  0
    1.2300   -1.1760   -0.2130 C   0  0  0  0  0  0  0  0  0  0  0  0
    2.3080   -0.3880   -0.1470 C   0  0  0  0  0  0  0  0  0  0  0  0
    3.6890   -0.9000   -0.0740 C   0  0  0  0  0  0  0  0  0  0  0  0
    4.3010   -0.4420    1.1320 N   0  0  0  0  0  0  0  0  0  0  0  0
    2.1690    1.0850   -0.1450 C   0  0  0  0  0  0  0  0  0  0  0  0
    3.1990    1.8330   -0.0820 O   0  0  0  0  0  0  0  0  0  0  0  0
    0.9240    1.7220   -0.2100 N   0  0  0  0  0  0  0  0  0  0  0  0
    0.4130    3.0710    0.0520 C   0  0  0  0  0  0  0  0  0  0  0  0
   -1.0960    2.9320    0.0500 C   0  0  0  0  0  0  0  0  0  0  0  0
   -1.2560    1.4720    0.3450 C   0  0  1  0  0  0  0  0  0  0  0  0
   -2.5570    0.8740   -0.0080 C   0  0  0  0  0  0  0  0  0  0  0  0
   -2.4970   -0.6170   -0.0430 C   0  0  2  0  0  0  0  0  0  0  0  0
   -3.1560   -1.1280   -1.3200 C   0  0  0  0  0  0  0  0  0  0  0  0
   -3.2850   -1.2300    1.1120 C   0  0  0  0  0  0  0  0  0  0  0  0
   -1.1370   -1.1940   -0.0060 C   0  0  0  0  0  0  0  0  0  0  0  0
   -0.0510   -0.5160   -0.2790 C   0  0  0  0  0  0  0  0  0  0  0  0
   -0.2170    0.9090   -0.6400 C   0  0  2  0  0  0  0  0  0  0  0  0
  1  2  1  0
  2  3  2  0
  2 17  1  0
  3  4  1  0
  3  6  1  0
  4  5  1  0
  6  7  2  0
  6  8  1  0
  8  9  1  0
 18  8  1  1
  9 10  1  0
 11 10  1  6
 11 12  1  0
 11 18  1  0
 12 13  1  0
 13 14  1  6
 13 15  1  0
 13 16  1  0
 16 17  2  0
 17 18  1  0
M  CHG  1   5   1
M  END
