
     RDKit          3D

 11 11  0  0  0  0  0  0  0  0999 V2000
    2.8300   -0.9100   -0.1660 O   0  0  0  0  0  0  0  0  0  0  0  0
    2.6030    0.4560   -0.2730 C   0  0  0  0  0  0  0  0  0  0  0  0
    1.1510    0.7110    0.0680 C   0  0  2  0  0  0  0  0  0  0  0  0
    0.8590    0.2820    1.3820 O   0  0  0  0  0  0  0  0  0  0  0  0
   -0.5530    0.2610    1.3000 C   0  0  0  0  0  0  0  0  0  0  0  0
   -0.6960   -0.5520    0.0170 C   0  0  1  0  0  0  0  0  0  0  0  0
   -0.4100   -1.8820    0.2120 O   0  0  0  0  0  0  0  0  0  0  0  0
   -2.0850   -0.3190   -0.5200 C   0  0  1  0  0  0  0  0  0  0  0  0
   -2.9840   -0.8490    0.4270 O   0  0  0  0  0  0  0  0  0  0  0  0
   -2.3100    1.0310   -0.7240 O   0  0  0  0  0  0  0  0  0  0  0  0
    0.2910    0.0110   -0.7590 O   0  0  0  0  0  0  0  0  0  0  0  0
  1  2  1  0
  3  2  1  6
  3  4  1  0
  3 11  1  0
  4  5  1  0
  5  6  1  0
  6  7  1  1
  6  8  1  0
  6 11  1  0
  8  9  1  1
  8 10  1  0
M  END
