
     RDKit          3D

 11 11  0  0  0  0  0  0  0  0999 V2000
    2.7640   -0.7960   -0.4300 C   0  0  0  0  0  0  0  0  0  0  0  0
    2.0150    0.1480    0.2330 O   0  0  0  0  0  0  0  0  0  0  0  0
    0.6690   -0.0490   -0.0420 C   0  0  1  0  0  0  0  0  0  0  0  0
   -0.0020   -0.4380    1.2540 C   0  0  0  0  0  0  0  0  0  0  0  0
   -1.3180   -0.3390    1.2350 C   0  0  0  0  0  0  0  0  0  0  0  0
   -2.0810   -0.6560    2.3390 O   0  0  0  0  0  0  0  0  0  0  0  0
   -1.8980    0.1320   -0.0450 C   0  0  1  0  0  0  0  0  0  0  0  0
   -3.2720    0.1700   -0.0440 O   0  0  0  0  0  0  0  0  0  0  0  0
   -1.3040    1.3400   -0.3350 O   0  0  0  0  0  0  0  0  0  0  0  0
    0.0370    1.1920   -0.6350 C   0  0  2  0  0  0  0  0  0  0  0  0
    0.1650    1.1560   -2.0190 O   0  0  0  0  0  0  0  0  0  0  0  0
  1  2  1  0
  3  2  1  1
  3  4  1  0
  3 10  1  0
  4  5  2  0
  5  6  1  0
  5  7  1  0
  7  8  1  1
  7  9  1  0
  9 10  1  0
 10 11  1  6
M  END
