
     RDKit          3D

 12 12  0  0  0  0  0  0  0  0999 V2000
   -1.9130    0.4310   -1.0500 C   0  0  0  0  0  0  0  0  0  0  0  0
   -0.8180    0.1040   -0.0260 C   0  0  2  0  0  0  0  0  0  0  0  0
   -1.5020   -0.1610    1.2480 C   0  0  0  0  0  0  0  0  0  0  0  0
   -2.3190   -1.1050    1.4190 O   0  0  0  0  0  0  0  0  0  0  0  0
   -1.2530    0.6570    2.3340 O   0  0  0  0  0  0  0  0  0  0  0  0
    0.0370    1.1820    0.1190 O   0  0  0  0  0  0  0  0  0  0  0  0
    1.1770    0.6320    0.6750 C   0  0  2  0  0  0  0  0  0  0  0  0
    2.2090    1.5240    0.8190 O   0  0  0  0  0  0  0  0  0  0  0  0
    1.4650   -0.5520   -0.1840 C   0  0  2  0  0  0  0  0  0  0  0  0
    2.1010   -0.2990   -1.3570 O   0  0  0  0  0  0  0  0  0  0  0  0
    0.0560   -1.0060   -0.5070 C   0  0  2  0  0  0  0  0  0  0  0  0
   -0.1370   -1.1180   -1.9010 O   0  0  0  0  0  0  0  0  0  0  0  0
  2  1  1  6
  2  3  1  0
  2  6  1  0
  2 11  1  0
  3  4  2  0
  3  5  1  0
  6  7  1  0
  7  8  1  6
  7  9  1  0
  9 10  1  6
  9 11  1  0
 11 12  1  6
M  END
