
     RDKit          3D

 12 12  0  0  0  0  0  0  0  0999 V2000
    2.8360    1.0520   -0.1660 O   0  0  0  0  0  0  0  0  0  0  0  0
    2.2000    0.0200    0.5150 C   0  0  0  0  0  0  0  0  0  0  0  0
    1.2420   -0.6440   -0.4460 C   0  0  2  0  0  0  0  0  0  0  0  0
    1.9710   -1.1320   -1.5150 O   0  0  0  0  0  0  0  0  0  0  0  0
    0.2390    0.3590   -0.9600 C   0  0  0  0  0  0  0  0  0  0  0  0
   -0.8550    0.2940    0.0660 C   0  0  1  0  0  0  0  0  0  0  0  0
   -0.7960    1.4090    0.8680 O   0  0  0  0  0  0  0  0  0  0  0  0
   -2.2300    0.2840   -0.6000 C   0  0  0  0  0  0  0  0  0  0  0  0
   -2.4200    1.4210   -1.3660 O   0  0  0  0  0  0  0  0  0  0  0  0
   -0.5950   -0.9910    0.7770 C   0  0  1  0  0  0  0  0  0  0  0  0
   -1.6850   -1.8760    0.7110 O   0  0  0  0  0  0  0  0  0  0  0  0
    0.4840   -1.6100    0.1830 O   0  0  0  0  0  0  0  0  0  0  0  0
  1  2  1  0
  2  3  1  0
  3  4  1  6
  3  5  1  0
  3 12  1  0
  5  6  1  0
  6  7  1  1
  6  8  1  0
  6 10  1  0
  8  9  1  0
 10 11  1  6
 10 12  1  0
M  END
