
     RDKit          3D

 18 20  0  0  0  0  0  0  0  0999 V2000
   -3.6700    1.8130    0.9310 C   0  0  0  0  0  0  0  0  0  0  0  0
   -3.4330    1.1490   -0.3830 C   0  0  0  0  0  0  0  0  0  0  0  0
   -2.4920   -0.0260   -0.3060 C   0  0  1  0  0  0  0  0  0  0  0  0
   -1.1130    0.4210    0.2220 C   0  0  0  0  0  0  0  0  0  0  0  0
   -0.1700   -0.6120   -0.3400 C   0  0  2  0  0  0  0  0  0  0  0  0
   -0.6020   -1.8880    0.2820 C   0  0  0  0  0  0  0  0  0  0  0  0
    0.2450   -2.7430    0.7790 C   0  0  0  0  0  0  0  0  0  0  0  0
    1.6310   -2.4580    0.7380 N   0  0  0  0  0  0  0  0  0  0  0  0
    2.0780   -1.2430    0.1550 C   0  0  0  0  0  0  0  0  0  0  0  0
    1.2280   -0.3580   -0.3600 C   0  0  0  0  0  0  0  0  0  0  0  0
    1.9480    0.8080   -0.9150 C   0  0  1  0  0  0  0  0  0  0  0  0
    1.1920    1.9590   -1.3990 C   0  0  0  0  0  0  0  0  0  0  0  0
    2.8680    1.2970    0.1960 C   0  0  0  0  0  0  0  0  0  0  0  0
    4.0310    0.3390    0.1900 C   0  0  0  0  0  0  0  0  0  0  0  0
    3.5420   -1.0440    0.1680 C   0  0  0  0  0  0  0  0  0  0  0  0
   -2.0520   -2.1750    0.3780 C   0  0  0  0  0  0  0  0  0  0  0  0
   -2.4330   -3.3450    0.3430 O   0  0  0  0  0  0  0  0  0  0  0  0
   -2.9530   -1.0950    0.5090 N   0  0  0  0  0  0  0  0  0  0  0  0
  1  2  1  0
  3  2  1  1
  3  4  1  0
  3 18  1  0
  5  4  1  1
  5  6  1  0
  5 10  1  0
  6  7  2  0
  6 16  1  0
  7  8  1  0
  8  9  1  0
  9 10  2  0
  9 15  1  0
 10 11  1  0
 11 12  1  1
 11 13  1  0
 13 14  1  0
 14 15  1  0
 16 17  2  0
 16 18  1  0
M  CHG  1  18   1
M  END
