
     RDKit          3D

 15 15  0  0  0  0  0  0  0  0999 V2000
   -0.2850   -2.5580    0.8320 O   0  0  0  0  0  0  0  0  0  0  0  0
   -0.3560   -1.8110   -0.3600 C   0  0  0  0  0  0  0  0  0  0  0  0
    0.1690   -0.3810   -0.0850 C   0  0  2  0  0  0  0  0  0  0  0  0
    1.5760   -0.6700    0.3750 C   0  0  0  0  0  0  0  0  0  0  0  0
    2.4390    0.4420    0.7620 C   0  0  0  0  0  0  0  0  0  0  0  0
    2.8050    1.6570   -0.5110 S   0  0  0  0  0  0  0  0  0  0  0  0
    3.8250    2.8960    0.0890 O   0  0  0  0  0  0  0  0  0  0  0  0
   -0.5900    0.2670    1.0200 C   0  0  1  0  0  0  0  0  0  0  0  0
   -0.6400    1.6460    0.9370 O   0  0  0  0  0  0  0  0  0  0  0  0
   -2.0240   -0.2080    1.1760 C   0  0  0  0  0  0  0  0  0  0  0  0
   -2.8830    0.2640    0.0230 C   0  0  0  0  0  0  0  0  0  0  0  0
   -2.1580    1.0830   -0.8110 O   0  0  0  0  0  0  0  0  0  0  0  0
   -1.3950    0.4790   -1.7630 C   0  0  0  0  0  0  0  0  0  0  0  0
    0.0650    0.2910   -1.4140 C   0  0  2  0  0  0  0  0  0  0  0  0
    0.5480   -0.6480   -2.3630 O   0  0  0  0  0  0  0  0  0  0  0  0
  1  2  1  0
  3  2  1  6
  3  4  1  0
  3  8  1  0
  3 14  1  0
  4  5  1  0
  5  6  1  0
  6  7  1  0
  8  9  1  6
  8 10  1  0
 10 11  1  0
 11 12  1  0
 12 13  1  0
 13 14  1  0
 14 15  1  6
M  END
