
     RDKit          3D

 15 15  0  0  0  0  0  0  0  0999 V2000
    4.1620   -0.9280   -0.7640 C   0  0  0  0  0  0  0  0  0  0  0  0
    2.8120   -0.2520   -0.5480 C   0  0  2  0  0  0  0  0  0  0  0  0
    3.1240    1.0390    0.2020 C   0  0  0  0  0  0  0  0  0  0  0  0
    1.7750   -1.3650    0.4000 S   0  0  0  0  0  0  0  0  0  0  0  0
    0.0220   -1.0360    0.2720 C   0  0  2  0  0  0  0  0  0  0  0  0
   -0.3250   -0.1270   -0.7060 O   0  0  0  0  0  0  0  0  0  0  0  0
   -1.6890   -0.1810   -0.9600 C   0  0  2  0  0  0  0  0  0  0  0  0
   -2.0800    1.0630   -1.7450 C   0  0  0  0  0  0  0  0  0  0  0  0
   -3.4220    0.9870   -2.0810 O   0  0  0  0  0  0  0  0  0  0  0  0
   -2.5210   -0.3180    0.2870 C   0  0  2  0  0  0  0  0  0  0  0  0
   -3.7870    0.2310    0.1650 O   0  0  0  0  0  0  0  0  0  0  0  0
   -1.7350    0.2700    1.4270 C   0  0  2  0  0  0  0  0  0  0  0  0
   -1.3890    1.5770    1.0980 O   0  0  0  0  0  0  0  0  0  0  0  0
   -0.4700   -0.5270    1.6090 C   0  0  1  0  0  0  0  0  0  0  0  0
   -0.6920   -1.6360    2.4240 O   0  0  0  0  0  0  0  0  0  0  0  0
  2  1  1  1
  2  3  1  0
  2  4  1  0
  5  4  1  1
  5  6  1  0
  5 14  1  0
  6  7  1  0
  7  8  1  1
  7 10  1  0
  8  9  1  0
 10 11  1  6
 10 12  1  0
 12 13  1  6
 12 14  1  0
 14 15  1  1
M  END
