
     RDKit          3D

 15 15  0  0  0  0  0  0  0  0999 V2000
    3.1280   -0.0800   -0.1960 C   0  0  0  0  0  0  0  0  0  0  0  0
    1.8810   -0.6460   -0.1840 O   0  0  0  0  0  0  0  0  0  0  0  0
    0.8460    0.2680    0.0490 C   0  0  1  0  0  0  0  0  0  0  0  0
    1.0970    0.9100    1.4200 C   0  0  0  0  0  0  0  0  0  0  0  0
    0.9870    1.3500   -0.9660 C   0  0  0  0  0  0  0  0  0  0  0  0
   -0.4960    2.4270   -1.0470 S   0  0  0  0  0  0  0  0  0  0  0  0
   -1.8680    1.2410   -1.0850 C   0  0  2  0  0  0  0  0  0  0  0  0
   -3.0340    1.9770   -0.7710 O   0  0  0  0  0  0  0  0  0  0  0  0
   -1.6870    0.2350    0.0140 C   0  0  2  0  0  0  0  0  0  0  0  0
   -1.9640    0.8280    1.2430 O   0  0  0  0  0  0  0  0  0  0  0  0
   -0.4150   -0.4940    0.0340 C   0  0  2  0  0  0  0  0  0  0  0  0
   -0.4200   -1.3390    1.3220 C   0  0  0  0  0  0  0  0  0  0  0  0
   -1.5960   -2.0580    1.3230 O   0  0  0  0  0  0  0  0  0  0  0  0
   -0.3300   -1.5390   -1.0870 C   0  0  0  0  0  0  0  0  0  0  0  0
   -0.1470   -0.9560   -2.3190 O   0  0  0  0  0  0  0  0  0  0  0  0
  1  2  1  0
  2  3  1  0
  3  4  1  1
  3  5  1  0
  3 11  1  0
  5  6  1  0
  6  7  1  0
  7  8  1  1
  7  9  1  0
  9 10  1  1
  9 11  1  0
 11 12  1  1
 11 14  1  0
 12 13  1  0
 14 15  1  0
M  END
