
     RDKit          3D

 15 15  0  0  0  0  0  0  0  0999 V2000
   -3.8780   -1.0430    0.6740 C   0  0  0  0  0  0  0  0  0  0  0  0
   -3.0120   -0.0150   -0.0450 C   0  0  2  0  0  0  0  0  0  0  0  0
   -3.8720    1.0800   -0.2970 O   0  0  0  0  0  0  0  0  0  0  0  0
   -2.6650   -0.5470   -1.2470 O   0  0  0  0  0  0  0  0  0  0  0  0
   -1.3100   -0.8380   -1.3550 C   0  0  0  0  0  0  0  0  0  0  0  0
   -0.6310    0.5400   -1.3120 C   0  0  0  0  0  0  0  0  0  0  0  0
   -0.6750    0.9090    0.1750 C   0  0  2  0  0  0  0  0  0  0  0  0
    0.7800    0.0720    0.8990 S   0  0  0  0  0  0  0  0  0  0  0  0
    2.2470    0.8340    0.2100 C   0  0  0  0  0  0  0  0  0  0  0  0
    3.5270    0.2200    0.7390 C   0  0  2  0  0  0  0  0  0  0  0  0
    4.5740    0.9110    0.1190 O   0  0  0  0  0  0  0  0  0  0  0  0
    3.6590   -1.2260    0.3240 C   0  0  0  0  0  0  0  0  0  0  0  0
    4.8720   -1.7430    0.7230 O   0  0  0  0  0  0  0  0  0  0  0  0
   -1.9230    0.4620    0.8370 C   0  0  1  0  0  0  0  0  0  0  0  0
   -2.3940    1.4890    1.6540 O   0  0  0  0  0  0  0  0  0  0  0  0
  2  1  1  1
  2  3  1  0
  2  4  1  0
  2 14  1  0
  4  5  1  0
  5  6  1  0
  6  7  1  0
  7  8  1  1
  7 14  1  0
  8  9  1  0
  9 10  1  0
 10 11  1  6
 10 12  1  0
 12 13  1  0
 14 15  1  6
M  END
