
     RDKit          3D

 11 11  0  0  0  0  0  0  0  0999 V2000
    2.8590    1.4130   -0.1720 O   0  0  0  0  0  0  0  0  0  0  0  0
    2.6250    0.0400   -0.2630 C   0  0  0  0  0  0  0  0  0  0  0  0
    1.2300   -0.2070    0.2460 C   0  0  2  0  0  0  0  0  0  0  0  0
    0.8860   -1.5620    0.2010 O   0  0  0  0  0  0  0  0  0  0  0  0
   -0.4690   -1.4590    0.5990 C   0  0  0  0  0  0  0  0  0  0  0  0
   -0.9180   -0.3240   -0.3080 C   0  0  1  0  0  0  0  0  0  0  0  0
   -1.4260   -0.8780   -1.4760 O   0  0  0  0  0  0  0  0  0  0  0  0
   -1.9650    0.5350    0.3640 C   0  0  1  0  0  0  0  0  0  0  0  0
   -1.4420    1.0840    1.5320 O   0  0  0  0  0  0  0  0  0  0  0  0
   -2.3110    1.5500   -0.5230 O   0  0  0  0  0  0  0  0  0  0  0  0
    0.2570    0.3750   -0.5400 O   0  0  0  0  0  0  0  0  0  0  0  0
  1  2  1  0
  3  2  1  6
  3  4  1  0
  3 11  1  0
  4  5  1  0
  5  6  1  0
  6  7  1  6
  6  8  1  0
  6 11  1  0
  8  9  1  1
  8 10  1  0
M  END
