
     RDKit          3D

 18 20  0  0  0  0  0  0  0  0999 V2000
   -4.1790   -0.3260   -1.3840 C   0  0  0  0  0  0  0  0  0  0  0  0
   -2.6520   -0.3550   -1.3710 C   0  0  0  0  0  0  0  0  0  0  0  0
   -2.2300   -1.0610   -0.1260 C   0  0  1  0  0  0  0  0  0  0  0  0
   -0.7500   -1.1910    0.0670 C   0  0  0  0  0  0  0  0  0  0  0  0
   -0.1100   -0.0780    0.8510 C   0  0  2  0  0  0  0  0  0  0  0  0
   -1.0280    1.0890    0.7400 C   0  0  0  0  0  0  0  0  0  0  0  0
   -0.6720    2.2890    0.3330 C   0  0  0  0  0  0  0  0  0  0  0  0
    0.6810    2.5140   -0.0330 N   0  0  0  0  0  0  0  0  0  0  0  0
    1.6490    1.4740    0.0340 C   0  0  0  0  0  0  0  0  0  0  0  0
    1.2650    0.2500    0.4560 C   0  0  0  0  0  0  0  0  0  0  0  0
    2.3370   -0.7340    0.5110 C   0  0  1  0  0  0  0  0  0  0  0  0
    1.9880   -2.1540    0.7020 C   0  0  0  0  0  0  0  0  0  0  0  0
    3.1820   -0.6220   -0.7740 C   0  0  0  0  0  0  0  0  0  0  0  0
    3.9400    0.6680   -0.6200 C   0  0  0  0  0  0  0  0  0  0  0  0
    3.0180    1.7950   -0.3650 C   0  0  0  0  0  0  0  0  0  0  0  0
   -2.4160    0.8520    1.1200 C   0  0  0  0  0  0  0  0  0  0  0  0
   -3.1370    1.8190    1.5240 O   0  0  0  0  0  0  0  0  0  0  0  0
   -2.9190   -0.4750    1.0210 N   0  0  0  0  0  0  0  0  0  0  0  0
  1  2  1  0
  3  2  1  6
  3  4  1  0
  3 18  1  0
  5  4  1  6
  5  6  1  0
  5 10  1  0
  6  7  2  0
  6 16  1  0
  7  8  1  0
  8  9  1  0
  9 10  2  0
  9 15  1  0
 10 11  1  0
 11 12  1  6
 11 13  1  0
 13 14  1  0
 14 15  1  0
 16 17  2  0
 16 18  1  0
M  CHG  1  18   1
M  END
