
     RDKit          3D

 12 12  0  0  0  0  0  0  0  0999 V2000
    2.1890   -1.3930    1.1110 O   0  0  0  0  0  0  0  0  0  0  0  0
    2.3340   -0.0570    0.8020 C   0  0  0  0  0  0  0  0  0  0  0  0
    1.1960    0.4760   -0.0490 C   0  0  2  0  0  0  0  0  0  0  0  0
    1.4380    1.8170   -0.3000 O   0  0  0  0  0  0  0  0  0  0  0  0
   -0.1010    0.2650    0.6950 C   0  0  0  0  0  0  0  0  0  0  0  0
   -0.8730   -0.5570   -0.3090 C   0  0  1  0  0  0  0  0  0  0  0  0
   -0.5420   -1.9190   -0.1690 O   0  0  0  0  0  0  0  0  0  0  0  0
   -2.3440   -0.3700   -0.2060 C   0  0  0  0  0  0  0  0  0  0  0  0
   -2.6950    0.9650   -0.3400 O   0  0  0  0  0  0  0  0  0  0  0  0
   -0.2450   -0.0940   -1.5880 C   0  0  1  0  0  0  0  0  0  0  0  0
   -0.5090    1.2130   -1.9260 O   0  0  0  0  0  0  0  0  0  0  0  0
    1.1100   -0.1790   -1.2660 O   0  0  0  0  0  0  0  0  0  0  0  0
  1  2  1  0
  2  3  1  0
  3  4  1  6
  3  5  1  0
  3 12  1  0
  5  6  1  0
  6  7  1  1
  6  8  1  0
  6 10  1  0
  8  9  1  0
 10 11  1  1
 10 12  1  0
M  END
