
     RDKit          3D

 11 11  0  0  0  0  0  0  0  0999 V2000
    3.0390    0.2100   -0.4530 C   0  0  0  0  0  0  0  0  0  0  0  0
    1.9230   -0.5720   -0.6540 O   0  0  0  0  0  0  0  0  0  0  0  0
    0.7570   -0.0140   -0.1720 C   0  0  1  0  0  0  0  0  0  0  0  0
   -0.2530    0.2470   -1.2020 C   0  0  0  0  0  0  0  0  0  0  0  0
   -1.5140    0.3420   -0.8080 C   0  0  0  0  0  0  0  0  0  0  0  0
   -2.5180    0.5910   -1.7470 O   0  0  0  0  0  0  0  0  0  0  0  0
   -1.9470    0.2000    0.6020 C   0  0  1  0  0  0  0  0  0  0  0  0
   -2.9900   -0.7290    0.6570 O   0  0  0  0  0  0  0  0  0  0  0  0
   -0.9280   -0.0870    1.4710 O   0  0  0  0  0  0  0  0  0  0  0  0
    0.1130   -0.8150    0.9210 C   0  0  2  0  0  0  0  0  0  0  0  0
    1.0790   -0.9600    1.9400 O   0  0  0  0  0  0  0  0  0  0  0  0
  1  2  1  0
  3  2  1  6
  3  4  1  0
  3 10  1  0
  4  5  2  0
  5  6  1  0
  5  7  1  0
  7  8  1  6
  7  9  1  0
  9 10  1  0
 10 11  1  1
M  END
