
     RDKit          3D

 12 12  0  0  0  0  0  0  0  0999 V2000
    0.7020   -1.4940   -0.3610 C   0  0  0  0  0  0  0  0  0  0  0  0
    0.7640   -0.0270   -0.0410 C   0  0  2  0  0  0  0  0  0  0  0  0
    2.0980    0.5570   -0.3130 C   0  0  0  0  0  0  0  0  0  0  0  0
    2.6120    0.5210   -1.4560 O   0  0  0  0  0  0  0  0  0  0  0  0
    2.8230    1.1670    0.7010 O   0  0  0  0  0  0  0  0  0  0  0  0
    0.4500    0.1590    1.3060 O   0  0  0  0  0  0  0  0  0  0  0  0
   -0.9270    0.0130    1.4200 C   0  0  2  0  0  0  0  0  0  0  0  0
   -1.1780   -1.3010    1.7980 O   0  0  0  0  0  0  0  0  0  0  0  0
   -1.5320    0.3620    0.0960 C   0  0  2  0  0  0  0  0  0  0  0  0
   -2.2340   -0.6930   -0.4780 O   0  0  0  0  0  0  0  0  0  0  0  0
   -0.3310    0.7630   -0.7130 C   0  0  2  0  0  0  0  0  0  0  0  0
   -0.4470    0.4950   -2.0590 O   0  0  0  0  0  0  0  0  0  0  0  0
  2  1  1  6
  2  3  1  0
  2  6  1  0
  2 11  1  0
  3  4  2  0
  3  5  1  0
  6  7  1  0
  7  8  1  6
  7  9  1  0
  9 10  1  6
  9 11  1  0
 11 12  1  6
M  END
