
     RDKit          3D

 18 20  0  0  0  0  0  0  0  0999 V2000
    1.7480   -2.3310    0.4810 C   0  0  0  0  0  0  0  0  0  0  0  0
    1.4300   -0.9130    0.2450 C   0  0  0  0  0  0  0  0  0  0  0  0
    2.3540    0.0310    0.2350 C   0  0  0  0  0  0  0  0  0  0  0  0
    3.7610   -0.3220    0.4690 C   0  0  0  0  0  0  0  0  0  0  0  0
    4.5920    0.0370   -0.6780 N   0  0  0  0  0  0  0  0  0  0  0  0
    1.9840    1.4300   -0.0200 C   0  0  0  0  0  0  0  0  0  0  0  0
    2.9110    2.2900   -0.0170 O   0  0  0  0  0  0  0  0  0  0  0  0
    0.6490    1.8300   -0.2650 N   0  0  0  0  0  0  0  0  0  0  0  0
   -0.0570    3.0920   -0.3010 C   0  0  0  0  0  0  0  0  0  0  0  0
   -1.5450    2.7270   -0.1760 C   0  0  0  0  0  0  0  0  0  0  0  0
   -1.4680    1.3260    0.3250 C   0  0  1  0  0  0  0  0  0  0  0  0
   -2.6880    0.5010    0.1860 C   0  0  0  0  0  0  0  0  0  0  0  0
   -2.3950   -0.9830    0.1400 C   0  0  1  0  0  0  0  0  0  0  0  0
   -3.2190   -1.7430    1.1550 C   0  0  0  0  0  0  0  0  0  0  0  0
   -2.8800   -1.4660   -1.2340 C   0  0  0  0  0  0  0  0  0  0  0  0
   -0.9620   -1.3100    0.3350 C   0  0  0  0  0  0  0  0  0  0  0  0
    0.0460   -0.5120    0.0220 C   0  0  0  0  0  0  0  0  0  0  0  0
   -0.3190    0.8050   -0.5550 C   0  0  2  0  0  0  0  0  0  0  0  0
  1  2  1  0
  2  3  2  0
  2 17  1  0
  3  4  1  0
  3  6  1  0
  4  5  1  0
  6  7  2  0
  6  8  1  0
  8  9  1  0
 18  8  1  1
  9 10  1  0
 11 10  1  6
 11 12  1  0
 11 18  1  0
 12 13  1  0
 13 14  1  1
 13 15  1  0
 13 16  1  0
 16 17  2  0
 17 18  1  0
M  CHG  1   5   1
M  END
