
     RDKit          3D

 12 12  0  0  0  0  0  0  0  0999 V2000
    3.1190   -0.0010   -0.3430 O   0  0  0  0  0  0  0  0  0  0  0  0
    2.1140   -0.9100   -0.0190 C   0  0  0  0  0  0  0  0  0  0  0  0
    0.8300   -0.1800    0.0820 C   0  0  1  0  0  0  0  0  0  0  0  0
    0.9530    0.7910    1.0830 O   0  0  0  0  0  0  0  0  0  0  0  0
    0.4860    0.4950   -1.0840 O   0  0  0  0  0  0  0  0  0  0  0  0
   -0.6060    1.2840   -0.9750 C   0  0  2  0  0  0  0  0  0  0  0  0
   -0.1750    2.5640   -0.5520 O   0  0  0  0  0  0  0  0  0  0  0  0
   -1.7240    0.8220   -0.1360 C   0  0  0  0  0  0  0  0  0  0  0  0
   -1.4070   -0.1770    0.9160 C   0  0  0  0  0  0  0  0  0  0  0  0
   -0.3400   -1.1050    0.3670 C   0  0  1  0  0  0  0  0  0  0  0  0
   -0.8350   -1.5820   -0.8690 O   0  0  0  0  0  0  0  0  0  0  0  0
   -0.0200   -2.1310    1.2110 O   0  0  0  0  0  0  0  0  0  0  0  0
  1  2  1  0
  2  3  1  0
  3  4  1  1
  3  5  1  0
  3 10  1  0
  5  6  1  0
  6  7  1  1
  6  8  1  0
  8  9  1  0
  9 10  1  0
 10 11  1  6
 10 12  1  0
M  END
