
     RDKit          3D

 18 20  0  0  0  0  0  0  0  0999 V2000
    4.5800    1.6580   -1.2440 N   0  0  0  0  0  0  0  0  0  0  0  0
    3.5630    1.1410   -0.3780 C   0  0  0  0  0  0  0  0  0  0  0  0
    3.7830    1.0240    0.9220 C   0  0  0  0  0  0  0  0  0  0  0  0
    2.8110    0.5040    1.9190 C   0  0  0  0  0  0  0  0  0  0  0  0
    1.4950    0.3100    1.3430 N   0  0  0  0  0  0  0  0  0  0  0  0
    1.6980   -0.3070    0.0500 C   0  0  1  0  0  0  0  0  0  0  0  0
    0.4850   -1.0190   -0.4570 C   0  0  1  0  0  0  0  0  0  0  0  0
    0.1430   -2.1050    0.5610 C   0  0  0  0  0  0  0  0  0  0  0  0
   -0.9300   -2.9370   -0.0780 C   0  0  0  0  0  0  0  0  0  0  0  0
   -2.1630   -2.1350   -0.2480 C   0  0  0  0  0  0  0  0  0  0  0  0
   -1.9980   -0.6690   -0.3020 C   0  0  2  0  0  0  0  0  0  0  0  0
   -2.2880   -0.0900    1.0890 C   0  0  0  0  0  0  0  0  0  0  0  0
   -3.6400    0.6000    1.1140 C   0  0  0  0  0  0  0  0  0  0  0  0
   -3.6560    1.7130    0.0960 C   0  0  0  0  0  0  0  0  0  0  0  0
   -2.9840    1.2350   -1.1770 C   0  0  0  0  0  0  0  0  0  0  0  0
   -2.9790   -0.1510   -1.1660 O   0  0  0  0  0  0  0  0  0  0  0  0
   -0.6810   -0.1610   -0.7460 C   0  0  0  0  0  0  0  0  0  0  0  0
    2.2380    0.7220   -0.9040 C   0  0  0  0  0  0  0  0  0  0  0  0
  1  2  1  0
  2  3  2  0
  2 18  1  0
  3  4  1  0
  4  5  1  0
  5  6  1  0
  6  7  1  0
  6 18  1  6
  7  8  1  1
  7 17  1  0
  8  9  1  0
  9 10  1  0
 11 10  1  1
 11 12  1  0
 11 16  1  0
 11 17  1  0
 12 13  1  0
 13 14  1  0
 14 15  1  0
 15 16  1  0
M  CHG  1   1   1
M  END
