
     RDKit          3D

 29 33  0  0  0  0  0  0  0  0999 V2000
   -6.0310   -1.2600    2.0380 N   0  0  0  0  0  0  0  0  0  0  0  0
   -6.3530   -0.5410    0.8100 C   0  0  2  0  0  0  0  0  0  0  0  0
   -5.4960   -1.0450   -0.3230 C   0  0  0  0  0  0  0  0  0  0  0  0
   -4.9250    0.3030   -0.3340 C   0  0  0  0  0  0  0  0  0  0  0  0
   -5.7000    0.7650    0.6940 C   0  0  0  0  0  0  0  0  0  0  0  0
   -5.3440    2.0590    0.8860 N   0  0  0  0  0  0  0  0  0  0  0  0
   -4.3970    2.4050    0.0340 N   0  0  0  0  0  0  0  0  0  0  0  0
   -4.1080    1.3460   -0.7410 C   0  0  0  0  0  0  0  0  0  0  0  0
   -3.1590    1.3050   -1.7650 O   0  0  0  0  0  0  0  0  0  0  0  0
   -1.8390    1.0450   -1.4290 C   0  0  0  0  0  0  0  0  0  0  0  0
   -1.0070    2.0890   -1.1360 C   0  0  0  0  0  0  0  0  0  0  0  0
    0.3330    1.7930   -0.7960 C   0  0  0  0  0  0  0  0  0  0  0  0
    0.7960    0.5060   -0.7580 C   0  0  0  0  0  0  0  0  0  0  0  0
    2.1240    0.1390   -0.4260 N   0  0  0  0  0  0  0  0  0  0  0  0
    3.1440    1.0350   -0.0960 C   0  0  0  0  0  0  0  0  0  0  0  0
    2.9270    2.2720   -0.0760 O   0  0  0  0  0  0  0  0  0  0  0  0
    4.4840    0.5970    0.2350 C   0  0  0  0  0  0  0  0  0  0  0  0
    5.4250    1.5920    0.5450 C   0  0  0  0  0  0  0  0  0  0  0  0
    5.0680    2.9100    0.5280 F   0  0  0  0  0  0  0  0  0  0  0  0
    6.7090    1.2170    0.8650 C   0  0  0  0  0  0  0  0  0  0  0  0
    7.1160   -0.0940    0.8950 C   0  0  0  0  0  0  0  0  0  0  0  0
    6.1910   -1.0820    0.5900 C   0  0  0  0  0  0  0  0  0  0  0  0
    4.8920   -0.7140    0.2660 C   0  0  0  0  0  0  0  0  0  0  0  0
    4.2270   -1.8130    0.0230 N   0  0  0  0  0  0  0  0  0  0  0  0
    5.0910   -2.9340    0.1870 C   0  0  0  0  0  0  0  0  0  0  0  0
    6.3570   -2.3590    0.5590 N   0  0  0  0  0  0  0  0  0  0  0  0
   -0.1120   -0.5090   -1.0690 C   0  0  0  0  0  0  0  0  0  0  0  0
    0.3270   -1.8340   -1.0400 O   0  0  0  0  0  0  0  0  0  0  0  0
   -1.4150   -0.2590   -1.4020 C   0  0  0  0  0  0  0  0  0  0  0  0
  2  1  1  1
  2  3  1  0
  2  5  1  0
  3  4  1  0
  4  5  1  0
  4  8  2  0
  5  6  2  0
  6  7  1  0
  7  8  1  0
  8  9  1  0
  9 10  1  0
 10 11  2  0
 10 29  1  0
 11 12  1  0
 12 13  2  0
 13 14  1  0
 13 27  1  0
 14 15  1  0
 15 16  2  0
 15 17  1  0
 17 18  2  0
 17 23  1  0
 18 19  1  0
 18 20  1  0
 20 21  2  0
 21 22  1  0
 22 23  1  0
 22 26  2  0
 23 24  2  0
 24 25  1  0
 25 26  1  0
 27 28  1  0
 27 29  2  0
M  CHG  1   1   1
M  END
