
     RDKit          3D

 31 35  0  0  0  0  0  0  0  0999 V2000
    6.6180    2.0940   -0.1420 N   0  0  0  0  0  0  0  0  0  0  0  0
    5.2150    2.1630   -0.0310 C   0  0  0  0  0  0  0  0  0  0  0  0
    4.4750    0.9090    0.2900 C   0  0  0  0  0  0  0  0  0  0  0  0
    4.3470    0.4310    1.5360 C   0  0  0  0  0  0  0  0  0  0  0  0
    3.4130   -0.6210    1.7590 C   0  0  0  0  0  0  0  0  0  0  0  0
    3.1720   -1.2510    3.3660 Cl  0  0  0  0  0  0  0  0  0  0  0  0
    2.6570   -1.1650    0.7520 C   0  0  0  0  0  0  0  0  0  0  0  0
    2.8220   -0.6410   -0.5320 C   0  0  0  0  0  0  0  0  0  0  0  0
    2.0640   -1.1110   -1.6640 O   0  0  0  0  0  0  0  0  0  0  0  0
    0.9710   -1.9230   -1.3780 C   0  0  0  0  0  0  0  0  0  0  0  0
    0.8350   -3.1940   -1.7300 C   0  0  0  0  0  0  0  0  0  0  0  0
    1.9560   -4.1010   -2.6650 Cl  0  0  0  0  0  0  0  0  0  0  0  0
   -0.3740   -3.8320   -1.2730 C   0  0  0  0  0  0  0  0  0  0  0  0
   -1.3120   -3.1770   -0.5500 C   0  0  0  0  0  0  0  0  0  0  0  0
   -1.1760   -1.8480   -0.1870 C   0  0  0  0  0  0  0  0  0  0  0  0
   -0.0330   -1.2700   -0.6110 C   0  0  0  0  0  0  0  0  0  0  0  0
    0.0030   -0.0040   -0.1720 N   0  0  0  0  0  0  0  0  0  0  0  0
   -1.0960    0.1980    0.5180 N   0  0  0  0  0  0  0  0  0  0  0  0
   -1.8800   -0.9570    0.5300 N   0  0  0  0  0  0  0  0  0  0  0  0
   -3.0470   -0.8790    1.2200 C   0  0  0  0  0  0  0  0  0  0  0  0
   -4.2720   -0.3690    0.5870 C   0  0  0  0  0  0  0  0  0  0  0  0
   -5.4410   -1.0800    0.4130 N   0  0  0  0  0  0  0  0  0  0  0  0
   -6.3670   -0.3360   -0.1100 N   0  0  0  0  0  0  0  0  0  0  0  0
   -5.9260    0.9160   -0.3320 C   0  0  0  0  0  0  0  0  0  0  0  0
   -6.4940    2.0010   -0.8580 N   0  0  0  0  0  0  0  0  0  0  0  0
   -5.8420    3.1420   -1.0040 C   0  0  0  0  0  0  0  0  0  0  0  0
   -4.5120    3.1830   -0.5860 C   0  0  0  0  0  0  0  0  0  0  0  0
   -3.8640    2.0840   -0.0290 C   0  0  0  0  0  0  0  0  0  0  0  0
   -4.5740    0.9120    0.1090 C   0  0  0  0  0  0  0  0  0  0  0  0
    3.6890    0.3390   -0.7330 C   0  0  0  0  0  0  0  0  0  0  0  0
    3.9290    1.0100   -2.3300 Cl  0  0  0  0  0  0  0  0  0  0  0  0
  1  2  1  0
  2  3  1  0
  3  4  2  0
  3 30  1  0
  4  5  1  0
  5  6  1  0
  5  7  2  0
  7  8  1  0
  8  9  1  0
  8 30  2  0
  9 10  1  0
 10 11  2  0
 10 16  1  0
 11 12  1  0
 11 13  1  0
 13 14  2  0
 14 15  1  0
 15 16  2  0
 15 19  1  0
 16 17  1  0
 17 18  2  0
 18 19  1  0
 19 20  1  0
 20 21  1  0
 21 22  1  0
 21 29  2  0
 22 23  1  0
 23 24  2  0
 24 25  1  0
 24 29  1  0
 25 26  2  0
 26 27  1  0
 27 28  2  0
 28 29  1  0
 30 31  1  0
M  CHG  1   1   1
M  END
