
     RDKit          3D

 29 32  0  0  0  0  0  0  0  0999 V2000
   -7.7640   -2.5780   -0.0970 C   0  0  0  0  0  0  0  0  0  0  0  0
   -6.5800   -1.8250   -0.1010 O   0  0  0  0  0  0  0  0  0  0  0  0
   -6.5260   -0.4640    0.0880 C   0  0  0  0  0  0  0  0  0  0  0  0
   -7.7180    0.2150    0.2960 C   0  0  0  0  0  0  0  0  0  0  0  0
   -7.7050    1.5790    0.4890 C   0  0  0  0  0  0  0  0  0  0  0  0
   -8.8380    2.2890    0.6970 F   0  0  0  0  0  0  0  0  0  0  0  0
   -6.4940    2.2370    0.4690 C   0  0  0  0  0  0  0  0  0  0  0  0
   -5.2880    1.5340    0.2560 C   0  0  0  0  0  0  0  0  0  0  0  0
   -5.2900    0.1930    0.0650 C   0  0  0  0  0  0  0  0  0  0  0  0
   -4.1530   -0.5830   -0.1530 N   0  0  0  0  0  0  0  0  0  0  0  0
   -2.8230   -0.0870   -0.2070 C   0  0  0  0  0  0  0  0  0  0  0  0
   -2.5310    1.1090   -0.0650 O   0  0  0  0  0  0  0  0  0  0  0  0
   -1.7330   -0.9900   -0.4390 N   0  0  0  0  0  0  0  0  0  0  0  0
   -0.3510   -0.5170   -0.5010 C   0  0  0  0  0  0  0  0  0  0  0  0
    0.5400   -1.6930   -0.7530 C   0  0  0  0  0  0  0  0  0  0  0  0
    1.9010   -1.2450   -0.8180 N   0  0  0  0  0  0  0  0  0  0  0  0
    2.5800   -0.5900    0.2390 C   0  0  0  0  0  0  0  0  0  0  0  0
    1.9740   -0.3800    1.3040 O   0  0  0  0  0  0  0  0  0  0  0  0
    3.9830   -0.1550    0.1060 C   0  0  0  0  0  0  0  0  0  0  0  0
    4.7900   -0.2940   -0.9530 N   0  0  0  0  0  0  0  0  0  0  0  0
    6.0030    0.2300   -0.6970 C   0  0  0  0  0  0  0  0  0  0  0  0
    7.1880    0.3640   -1.3990 C   0  0  0  0  0  0  0  0  0  0  0  0
    8.2860    0.9760   -0.8180 C   0  0  0  0  0  0  0  0  0  0  0  0
    8.2060    1.4590    0.4720 C   0  0  0  0  0  0  0  0  0  0  0  0
    7.0440    1.3160    1.1330 N   0  0  0  0  0  0  0  0  0  0  0  0
    5.9630    0.7260    0.5930 C   0  0  0  0  0  0  0  0  0  0  0  0
    4.7050    0.4700    1.0510 N   0  0  0  0  0  0  0  0  0  0  0  0
    9.4750    1.8980    0.4650 C   0  0  0  0  0  0  0  0  0  0  0  0
    9.5440    1.3830   -0.8960 C   0  0  0  0  0  0  0  0  0  0  0  0
  1  2  1  0
  2  3  1  0
  3  4  2  0
  3  9  1  0
  4  5  1  0
  5  6  1  0
  5  7  2  0
  7  8  1  0
  8  9  2  0
  9 10  1  0
 10 11  1  0
 11 12  2  0
 11 13  1  0
 13 14  1  0
 14 15  1  0
 15 16  1  0
 16 17  1  0
 17 18  2  0
 17 19  1  0
 19 20  2  0
 19 27  1  0
 20 21  1  0
 21 22  2  0
 21 26  1  0
 22 23  1  0
 23 24  1  0
 23 29  2  0
 24 25  1  0
 24 28  2  0
 25 26  2  0
 26 27  1  0
 28 29  1  0
M  CHG  1  25   1
M  END
