
     RDKit          3D

 29 32  0  0  0  0  0  0  0  0999 V2000
   -0.6160    2.0740    1.7370 C   0  0  0  0  0  0  0  0  0  0  0  0
   -1.6880    1.1160    1.6200 O   0  0  0  0  0  0  0  0  0  0  0  0
   -2.7490    1.4120    0.8090 C   0  0  0  0  0  0  0  0  0  0  0  0
   -3.5270    2.4710    1.3440 C   0  0  0  0  0  0  0  0  0  0  0  0
   -3.2200    3.0560    2.5090 F   0  0  0  0  0  0  0  0  0  0  0  0
   -4.6430    2.9160    0.6750 C   0  0  0  0  0  0  0  0  0  0  0  0
   -4.9560    2.3120   -0.4880 C   0  0  0  0  0  0  0  0  0  0  0  0
   -4.2240    1.2780   -1.0320 C   0  0  0  0  0  0  0  0  0  0  0  0
   -4.6230    0.7520   -2.1420 O   0  0  0  0  0  0  0  0  0  0  0  0
   -4.0330   -0.2160   -2.7070 C   0  0  0  0  0  0  0  0  0  0  0  0
   -4.4210   -0.7140   -3.7760 O   0  0  0  0  0  0  0  0  0  0  0  0
   -2.8470   -0.7970   -2.1150 C   0  0  0  0  0  0  0  0  0  0  0  0
   -2.2280   -1.8430   -2.9240 C   0  0  0  0  0  0  0  0  0  0  0  0
   -1.0740   -2.5350   -2.5610 N   0  0  0  0  0  0  0  0  0  0  0  0
   -2.3960   -0.2710   -0.9520 C   0  0  0  0  0  0  0  0  0  0  0  0
   -1.3450   -0.9600   -0.1420 C   0  0  0  0  0  0  0  0  0  0  0  0
   -0.1370   -0.2370   -0.1080 N   0  0  0  0  0  0  0  0  0  0  0  0
    1.0790   -0.4160    0.5340 C   0  0  0  0  0  0  0  0  0  0  0  0
    1.4260   -1.2750    1.5290 C   0  0  0  0  0  0  0  0  0  0  0  0
    2.8030   -1.2080    1.7970 C   0  0  0  0  0  0  0  0  0  0  0  0
    3.5490   -1.9550    2.8030 C   0  0  0  0  0  0  0  0  0  0  0  0
    3.2510   -0.2700    0.9130 N   0  0  0  0  0  0  0  0  0  0  0  0
    4.6050    0.1350    0.7240 C   0  0  0  0  0  0  0  0  0  0  0  0
    5.2100    0.1090   -0.5590 C   0  0  0  0  0  0  0  0  0  0  0  0
    6.4950    0.5740   -0.4180 C   0  0  0  0  0  0  0  0  0  0  0  0
    6.6520    0.8670    0.8990 N   0  0  0  0  0  0  0  0  0  0  0  0
    5.5170    0.5910    1.5370 N   0  0  0  0  0  0  0  0  0  0  0  0
    2.2570    0.1680    0.2040 N   0  0  0  0  0  0  0  0  0  0  0  0
   -3.0630    0.8040   -0.3550 C   0  0  0  0  0  0  0  0  0  0  0  0
  1  2  1  0
  2  3  1  0
  3  4  2  0
  3 29  1  0
  4  5  1  0
  4  6  1  0
  6  7  2  0
  7  8  1  0
  8  9  1  0
  8 29  2  0
  9 10  1  0
 10 11  2  0
 10 12  1  0
 12 13  1  0
 12 15  2  0
 13 14  1  0
 15 16  1  0
 15 29  1  0
 16 17  1  0
 17 18  1  0
 18 19  1  0
 18 28  2  0
 19 20  2  0
 20 21  1  0
 20 22  1  0
 22 23  1  0
 22 28  1  0
 23 24  1  0
 23 27  2  0
 24 25  2  0
 25 26  1  0
 26 27  1  0
M  CHG  1  14   1
M  END
