
     RDKit          3D

 29 31  0  0  0  0  0  0  0  0999 V2000
    3.1120    1.0720    1.9210 C   0  0  0  0  0  0  0  0  0  0  0  0
    3.3310   -0.1470    1.1110 C   0  0  0  0  0  0  0  0  0  0  0  0
    3.1940   -0.0920   -0.2020 C   0  0  0  0  0  0  0  0  0  0  0  0
    3.4270   -1.3540   -0.9750 C   0  0  0  0  0  0  0  0  0  0  0  0
    3.1120   -2.5710   -0.1990 C   0  0  0  0  0  0  0  0  0  0  0  0
    4.0070   -3.3840    0.0170 O   0  0  0  0  0  0  0  0  0  0  0  0
    1.7690   -2.8460    0.3240 C   0  0  0  0  0  0  0  0  0  0  0  0
    0.6540   -2.4950   -0.6300 C   0  0  0  0  0  0  0  0  0  0  0  0
   -0.3070   -1.4950   -0.0240 C   0  0  0  0  0  0  0  0  0  0  0  0
   -1.2990   -1.1090   -1.0490 C   0  0  0  0  0  0  0  0  0  0  0  0
   -1.5530   -2.1190   -1.9720 F   0  0  0  0  0  0  0  0  0  0  0  0
   -1.9360    0.0110   -1.1860 C   0  0  0  0  0  0  0  0  0  0  0  0
   -2.9090    0.1010   -2.3540 C   0  0  0  0  0  0  0  0  0  0  0  0
   -1.8610    1.2290   -0.3500 C   0  0  0  0  0  0  0  0  0  0  0  0
   -2.9990    1.6440    0.2060 C   0  0  0  0  0  0  0  0  0  0  0  0
   -3.1060    2.8040    1.0460 N   0  0  0  0  0  0  0  0  0  0  0  0
   -1.9260    3.4960    1.2580 N   0  0  0  0  0  0  0  0  0  0  0  0
   -0.8300    3.1610    0.7660 N   0  0  0  0  0  0  0  0  0  0  0  0
   -0.6440    1.9940   -0.0990 C   0  0  0  0  0  0  0  0  0  0  0  0
    0.4690    1.7660   -0.5810 N   0  0  0  0  0  0  0  0  0  0  0  0
    1.3730    1.1440   -1.3080 C   0  0  0  0  0  0  0  0  0  0  0  0
    1.2930    0.4560   -2.3970 O   0  0  0  0  0  0  0  0  0  0  0  0
    2.8270    1.1840   -0.8660 C   0  0  0  0  0  0  0  0  0  0  0  0
   -4.3240    2.0540    0.8020 C   0  0  1  0  0  0  0  0  0  0  0  0
   -5.5270    2.7280   -0.3010 Cl  0  0  0  0  0  0  0  0  0  0  0  0
   -4.8210    1.1580    1.8770 C   0  0  1  0  0  0  0  0  0  0  0  0
   -3.9920    1.0510    2.9640 F   0  0  0  0  0  0  0  0  0  0  0  0
   -6.4460    1.7360    2.3570 Cl  0  0  0  0  0  0  0  0  0  0  0  0
   -5.0940   -0.6070    1.0800 Br  0  0  0  0  0  0  0  0  0  0  0  0
  1  2  1  0
  2  3  2  3
  3  4  1  0
  3 23  1  0
  4  5  1  0
  5  6  2  0
  5  7  1  0
  7  8  1  0
  8  9  1  0
  9 10  1  0
 10 11  1  0
 10 12  2  0
 12 13  1  0
 12 14  1  0
 14 15  2  0
 14 19  1  0
 15 16  1  0
 15 24  1  0
 16 17  1  0
 16 24  1  0
 17 18  2  0
 18 19  1  0
 19 20  2  0
 20 21  1  0
 21 22  2  0
 21 23  1  0
 24 25  1  6
 24 26  1  0
 26 27  1  1
 26 28  1  0
 26 29  1  0
M  END
