
     RDKit          3D

 31 34  0  0  0  0  0  0  0  0999 V2000
   -0.8210    0.0170   -2.1880 C   0  0  0  0  0  0  0  0  0  0  0  0
   -2.0850   -0.4990   -1.8230 O   0  0  0  0  0  0  0  0  0  0  0  0
   -2.7990    0.1450   -0.8240 C   0  0  0  0  0  0  0  0  0  0  0  0
   -2.3000    1.2740   -0.1860 C   0  0  0  0  0  0  0  0  0  0  0  0
   -2.9990    1.9180    0.8040 C   0  0  0  0  0  0  0  0  0  0  0  0
   -2.4170    3.1160    1.4560 C   0  0  0  0  0  0  0  0  0  0  0  0
   -1.4680    2.5470    2.8850 S   0  0  0  0  0  0  0  0  0  0  0  0
   -0.0130    1.6090    2.4610 C   0  0  0  0  0  0  0  0  0  0  0  0
    1.0780    2.4130    1.7850 C   0  0  2  0  0  0  0  0  0  0  0  0
    0.7230    3.0130    0.5990 O   0  0  0  0  0  0  0  0  0  0  0  0
    1.4760    2.5500   -0.4530 C   0  0  0  0  0  0  0  0  0  0  0  0
    1.4130    2.8960   -1.6800 O   0  0  0  0  0  0  0  0  0  0  0  0
    2.3870    1.5600    0.1080 C   0  0  0  0  0  0  0  0  0  0  0  0
    3.3670    0.7760   -0.5250 C   0  0  0  0  0  0  0  0  0  0  0  0
    4.1390   -0.1190    0.1610 C   0  0  0  0  0  0  0  0  0  0  0  0
    5.1560   -0.9400   -0.3860 N   0  0  0  0  0  0  0  0  0  0  0  0
    5.7020   -0.8480   -1.6800 C   0  0  0  0  0  0  0  0  0  0  0  0
    5.2930    0.0290   -2.4710 O   0  0  0  0  0  0  0  0  0  0  0  0
    6.7700   -1.7680   -2.1680 C   0  0  1  0  0  0  0  0  0  0  0  0
    7.8580   -2.1810   -1.1550 C   0  0  0  0  0  0  0  0  0  0  0  0
    6.8390   -3.1550   -1.6410 C   0  0  0  0  0  0  0  0  0  0  0  0
    3.8780   -0.1940    1.5380 C   0  0  0  0  0  0  0  0  0  0  0  0
    2.9270    0.5610    2.1690 C   0  0  0  0  0  0  0  0  0  0  0  0
    2.1510    1.4680    1.4520 C   0  0  0  0  0  0  0  0  0  0  0  0
   -4.2350    1.4470    1.1900 C   0  0  0  0  0  0  0  0  0  0  0  0
   -4.7840    0.3090    0.5760 C   0  0  0  0  0  0  0  0  0  0  0  0
   -6.0240   -0.0950    1.0220 O   0  0  0  0  0  0  0  0  0  0  0  0
   -6.6460   -1.2240    0.4620 C   0  0  2  0  0  0  0  0  0  0  0  0
   -5.8410   -2.4460    0.7900 C   0  0  0  0  0  0  0  0  0  0  0  0
   -6.9640   -1.0800   -1.0090 C   0  0  0  0  0  0  0  0  0  0  0  0
   -4.0460   -0.3010   -0.4090 C   0  0  0  0  0  0  0  0  0  0  0  0
  1  2  1  0
  2  3  1  0
  3  4  2  0
  3 31  1  0
  4  5  1  0
  5  6  1  0
  5 25  2  0
  6  7  1  0
  7  8  1  0
  9  8  1  6
  9 10  1  0
  9 24  1  0
 10 11  1  0
 11 12  2  0
 11 13  1  0
 13 14  2  0
 13 24  1  0
 14 15  1  0
 15 16  1  0
 15 22  2  0
 16 17  1  0
 17 18  2  0
 19 17  1  1
 19 20  1  0
 19 21  1  0
 20 21  1  0
 22 23  1  0
 23 24  2  0
 25 26  1  0
 26 27  1  0
 26 31  2  0
 27 28  1  0
 28 29  1  6
 28 30  1  0
M  END
