
     RDKit          3D

 30 31  0  0  0  0  0  0  0  0999 V2000
    2.7750   -1.7030   -2.2830 C   0  0  0  0  0  0  0  0  0  0  0  0
    3.3930   -1.3130   -0.9380 C   0  0  0  0  0  0  0  0  0  0  0  0
    3.2620    0.1560   -0.6910 C   0  0  1  0  0  0  0  0  0  0  0  0
    4.1490    0.9570   -2.0470 Cl  0  0  0  0  0  0  0  0  0  0  0  0
    1.8350    0.5960   -0.7750 C   0  0  0  0  0  0  0  0  0  0  0  0
    1.3690    1.4830   -1.6260 C   0  0  0  0  0  0  0  0  0  0  0  0
   -0.0300    1.6740   -1.4420 N   0  0  0  0  0  0  0  0  0  0  0  0
   -0.8880    2.2190   -2.3100 F   0  0  0  0  0  0  0  0  0  0  0  0
   -0.2950    1.1470   -0.1150 C   0  0  1  0  0  0  0  0  0  0  0  0
   -0.0650    2.2010    0.9060 C   0  0  0  0  0  0  0  0  0  0  0  0
    0.2940    3.3280    0.6070 O   0  0  0  0  0  0  0  0  0  0  0  0
   -0.3340    1.7980    2.7370 Br  0  0  0  0  0  0  0  0  0  0  0  0
   -1.6800    0.6180   -0.0140 C   0  0  0  0  0  0  0  0  0  0  0  0
   -2.4820    0.5640   -1.0070 N   0  0  0  0  0  0  0  0  0  0  0  0
   -3.8100    0.0910   -1.0340 C   0  0  0  0  0  0  0  0  0  0  0  0
   -4.7830    0.3030   -0.1580 C   0  0  0  0  0  0  0  0  0  0  0  0
   -6.0450   -0.3730   -0.5450 C   0  0  0  0  0  0  0  0  0  0  0  0
   -5.5190   -1.4580   -1.4980 C   0  0  0  0  0  0  0  0  0  0  0  0
   -4.3560   -0.7380   -2.1200 C   0  0  0  0  0  0  0  0  0  0  0  0
   -2.2180    0.1320    1.1680 O   0  0  0  0  0  0  0  0  0  0  0  0
   -2.6520   -1.2120    1.2460 C   0  0  0  0  0  0  0  0  0  0  0  0
   -3.1830   -1.6400    2.4890 N   0  0  0  0  0  0  0  0  0  0  0  0
   -2.5540   -1.9550    0.2360 O   0  0  0  0  0  0  0  0  0  0  0  0
    0.7410    0.1620    0.0120 N   0  0  0  0  0  0  0  0  0  0  0  0
    0.6480   -1.2800    0.9600 Cl  0  0  0  0  0  0  0  0  0  0  0  0
    3.9120    0.6100    0.5310 C   0  0  0  0  0  0  0  0  0  0  0  0
    3.8650    2.0730    0.8530 C   0  0  0  0  0  0  0  0  0  0  0  0
    4.5250   -0.1740    1.3680 C   0  0  0  0  0  0  0  0  0  0  0  0
    5.1850    0.3290    2.6200 C   0  0  0  0  0  0  0  0  0  0  0  0
    4.6070   -1.5080    1.1710 F   0  0  0  0  0  0  0  0  0  0  0  0
  1  2  1  0
  2  3  1  0
  3  4  1  6
  3  5  1  0
  3 26  1  0
  5  6  2  0
  5 24  1  0
  6  7  1  0
  7  8  1  0
  7  9  1  0
  9 10  1  1
  9 13  1  0
  9 24  1  0
 10 11  2  0
 10 12  1  0
 13 14  2  3
 13 20  1  0
 14 15  1  0
 15 16  2  0
 15 19  1  0
 16 17  1  0
 17 18  1  0
 18 19  1  0
 20 21  1  0
 21 22  1  0
 21 23  2  0
 24 25  1  0
 26 27  1  0
 26 28  2  3
 28 29  1  0
 28 30  1  0
M  END
