
     RDKit          3D

 31 33  0  0  0  0  0  0  0  0999 V2000
   -2.8040   -3.7580   -1.4060 C   0  0  0  0  0  0  0  0  0  0  0  0
   -1.9080   -3.3360   -0.4360 O   0  0  0  0  0  0  0  0  0  0  0  0
   -0.6340   -3.3130   -0.9860 C   0  0  2  0  0  0  0  0  0  0  0  0
    0.2030   -4.2150   -0.3660 O   0  0  0  0  0  0  0  0  0  0  0  0
    0.5750   -3.9180    0.9050 C   0  0  2  0  0  0  0  0  0  0  0  0
   -0.3000   -4.5610    1.9610 C   0  0  0  0  0  0  0  0  0  0  0  0
    0.1310   -4.2180    3.2410 O   0  0  0  0  0  0  0  0  0  0  0  0
    0.7320   -2.4310    1.1690 C   0  0  2  0  0  0  0  0  0  0  0  0
   -0.5500   -1.9810    1.5550 O   0  0  0  0  0  0  0  0  0  0  0  0
    1.1370   -1.8340   -0.1560 C   0  0  2  0  0  0  0  0  0  0  0  0
    1.6890   -0.5130   -0.0450 N   0  0  0  0  0  0  0  0  0  0  0  0
    2.9920   -0.1730   -0.4370 C   0  0  0  0  0  0  0  0  0  0  0  0
    3.6840   -1.1190   -0.9090 O   0  0  0  0  0  0  0  0  0  0  0  0
    3.5410    1.1660   -0.3210 C   0  0  0  0  0  0  0  0  0  0  0  0
    4.8530    1.4140   -0.7350 C   0  0  0  0  0  0  0  0  0  0  0  0
    5.3870    2.6720   -0.6320 C   0  0  0  0  0  0  0  0  0  0  0  0
    4.6540    3.7270   -0.1220 C   0  0  0  0  0  0  0  0  0  0  0  0
    5.2120    5.1020   -0.0010 C   0  0  0  0  0  0  0  0  0  0  0  0
    3.3720    3.4830    0.2820 C   0  0  0  0  0  0  0  0  0  0  0  0
    2.8100    2.2060    0.1850 C   0  0  0  0  0  0  0  0  0  0  0  0
   -0.0660   -1.9110   -1.0440 C   0  0  2  0  0  0  0  0  0  0  0  0
   -1.0740   -1.0360   -0.5740 O   0  0  0  0  0  0  0  0  0  0  0  0
   -1.5230    0.0040   -1.3640 C   0  0  0  0  0  0  0  0  0  0  0  0
   -0.9970    0.1270   -2.4990 O   0  0  0  0  0  0  0  0  0  0  0  0
   -2.5700    0.9290   -0.9020 C   0  0  0  0  0  0  0  0  0  0  0  0
   -2.9930    1.9540   -1.7150 C   0  0  0  0  0  0  0  0  0  0  0  0
   -3.9840    2.8370   -1.2900 C   0  0  0  0  0  0  0  0  0  0  0  0
   -4.5710    2.7130   -0.0460 C   0  0  0  0  0  0  0  0  0  0  0  0
   -5.6360    3.6440    0.4380 C   0  0  0  0  0  0  0  0  0  0  0  0
   -4.1360    1.6800    0.7570 C   0  0  0  0  0  0  0  0  0  0  0  0
   -3.1500    0.7990    0.3380 C   0  0  0  0  0  0  0  0  0  0  0  0
  1  2  1  0
  3  2  1  1
  3  4  1  0
  3 21  1  0
  4  5  1  0
  5  6  1  1
  5  8  1  0
  6  7  1  0
  8  9  1  6
  8 10  1  0
 10 11  1  1
 10 21  1  0
 11 12  1  0
 12 13  2  0
 12 14  1  0
 14 15  2  0
 14 20  1  0
 15 16  1  0
 16 17  2  0
 17 18  1  0
 17 19  1  0
 19 20  2  0
 21 22  1  1
 22 23  1  0
 23 24  2  0
 23 25  1  0
 25 26  2  0
 25 31  1  0
 26 27  1  0
 27 28  2  0
 28 29  1  0
 28 30  1  0
 30 31  2  0
M  END
