
     RDKit          3D

 12 12  0  0  0  0  0  0  0  0999 V2000
    3.0120    0.0520    0.0600 O   0  0  0  0  0  0  0  0  0  0  0  0
    2.0200    0.8790   -0.4590 C   0  0  0  0  0  0  0  0  0  0  0  0
    0.6470    0.5370    0.0900 C   0  0  1  0  0  0  0  0  0  0  0  0
    0.6900    0.6930    1.4830 O   0  0  0  0  0  0  0  0  0  0  0  0
   -0.2410    1.3970   -0.5030 O   0  0  0  0  0  0  0  0  0  0  0  0
   -1.5670    1.1590   -0.2570 C   0  0  2  0  0  0  0  0  0  0  0  0
   -2.0730    2.0140    0.7300 O   0  0  0  0  0  0  0  0  0  0  0  0
   -1.9000   -0.2390    0.1330 C   0  0  0  0  0  0  0  0  0  0  0  0
   -1.0200   -1.1640   -0.6930 C   0  0  0  0  0  0  0  0  0  0  0  0
    0.4030   -0.9150   -0.2020 C   0  0  2  0  0  0  0  0  0  0  0  0
    0.6330   -1.7280    0.9090 O   0  0  0  0  0  0  0  0  0  0  0  0
    1.2490   -1.3850   -1.2140 O   0  0  0  0  0  0  0  0  0  0  0  0
  1  2  1  0
  2  3  1  0
  3  4  1  1
  3  5  1  0
  3 10  1  0
  5  6  1  0
  6  7  1  1
  6  8  1  0
  8  9  1  0
  9 10  1  0
 10 11  1  1
 10 12  1  0
M  END
