
     RDKit          3D

 11 11  0  0  0  0  0  0  0  0999 V2000
    3.6490   -0.0810   -0.2070 O   0  0  0  0  0  0  0  0  0  0  0  0
    2.5330    0.4030    0.4500 C   0  0  0  0  0  0  0  0  0  0  0  0
    1.3010   -0.4520    0.1480 C   0  0  2  0  0  0  0  0  0  0  0  0
    1.0340   -0.4520   -1.2190 O   0  0  0  0  0  0  0  0  0  0  0  0
   -0.3420   -0.6760   -1.2460 C   0  0  0  0  0  0  0  0  0  0  0  0
   -0.8060    0.2450   -0.1240 C   0  0  1  0  0  0  0  0  0  0  0  0
   -0.8660    1.5310   -0.6160 O   0  0  0  0  0  0  0  0  0  0  0  0
   -2.1230   -0.2070    0.4470 C   0  0  2  0  0  0  0  0  0  0  0  0
   -3.0620   -0.1510   -0.5820 O   0  0  0  0  0  0  0  0  0  0  0  0
   -2.5060    0.7120    1.4150 O   0  0  0  0  0  0  0  0  0  0  0  0
    0.2290    0.1580    0.7770 O   0  0  0  0  0  0  0  0  0  0  0  0
  1  2  1  0
  3  2  1  6
  3  4  1  0
  3 11  1  0
  4  5  1  0
  5  6  1  0
  6  7  1  6
  6  8  1  0
  6 11  1  0
  8  9  1  6
  8 10  1  0
M  END
