
     RDKit          3D

 12 12  0  0  0  0  0  0  0  0999 V2000
   -1.3150   -1.5500    0.5190 C   0  0  0  0  0  0  0  0  0  0  0  0
   -0.6560   -0.3560   -0.1210 C   0  0  2  0  0  0  0  0  0  0  0  0
   -1.7170    0.4410   -0.7990 C   0  0  0  0  0  0  0  0  0  0  0  0
   -2.7090    0.9000   -0.1600 O   0  0  0  0  0  0  0  0  0  0  0  0
   -1.6710    0.7180   -2.1550 O   0  0  0  0  0  0  0  0  0  0  0  0
    0.2760   -0.7120   -1.0600 O   0  0  0  0  0  0  0  0  0  0  0  0
    1.5030   -0.2180   -0.6920 C   0  0  2  0  0  0  0  0  0  0  0  0
    2.0400   -1.0700    0.2780 O   0  0  0  0  0  0  0  0  0  0  0  0
    1.1610    1.0760    0.0190 C   0  0  2  0  0  0  0  0  0  0  0  0
    2.2230    1.5130    0.8070 O   0  0  0  0  0  0  0  0  0  0  0  0
    0.0060    0.5560    0.8810 C   0  0  2  0  0  0  0  0  0  0  0  0
    0.5940   -0.1390    1.9320 O   0  0  0  0  0  0  0  0  0  0  0  0
  2  1  1  1
  2  3  1  0
  2  6  1  0
  2 11  1  0
  3  4  2  0
  3  5  1  0
  6  7  1  0
  7  8  1  1
  7  9  1  0
  9 10  1  1
  9 11  1  0
 11 12  1  1
M  END
