
     RDKit          3D

 18 20  0  0  0  0  0  0  0  0999 V2000
   -3.6360    1.0240    1.8090 C   0  0  0  0  0  0  0  0  0  0  0  0
   -3.3080    1.4180    0.4090 C   0  0  0  0  0  0  0  0  0  0  0  0
   -2.4400    0.4320   -0.3180 C   0  0  1  0  0  0  0  0  0  0  0  0
   -1.0930    0.2450    0.4020 C   0  0  0  0  0  0  0  0  0  0  0  0
   -0.1620   -0.1940   -0.7090 C   0  0  2  0  0  0  0  0  0  0  0  0
   -0.6970   -1.5240   -1.0800 C   0  0  0  0  0  0  0  0  0  0  0  0
    0.0530   -2.5730   -1.2210 C   0  0  0  0  0  0  0  0  0  0  0  0
    1.4470   -2.4730   -1.0130 N   0  0  0  0  0  0  0  0  0  0  0  0
    1.9960   -1.2110   -0.6520 C   0  0  0  0  0  0  0  0  0  0  0  0
    1.2410   -0.1320   -0.5060 C   0  0  0  0  0  0  0  0  0  0  0  0
    2.0650    1.0560   -0.1310 C   0  0  1  0  0  0  0  0  0  0  0  0
    1.3690    2.3020    0.1730 C   0  0  0  0  0  0  0  0  0  0  0  0
    2.9170    0.6550    1.0590 C   0  0  0  0  0  0  0  0  0  0  0  0
    3.9880   -0.2440    0.5570 C   0  0  0  0  0  0  0  0  0  0  0  0
    3.4690   -1.1830   -0.4510 C   0  0  0  0  0  0  0  0  0  0  0  0
   -2.1840   -1.6440   -1.2680 C   0  0  0  0  0  0  0  0  0  0  0  0
   -2.6190   -2.4370   -2.1080 O   0  0  0  0  0  0  0  0  0  0  0  0
   -3.0640   -0.8580   -0.4910 N   0  0  0  0  0  0  0  0  0  0  0  0
  1  2  1  0
  3  2  1  1
  3  4  1  0
  3 18  1  0
  5  4  1  1
  5  6  1  0
  5 10  1  0
  6  7  2  0
  6 16  1  0
  7  8  1  0
  8  9  1  0
  9 10  2  0
  9 15  1  0
 10 11  1  0
 11 12  1  1
 11 13  1  0
 13 14  1  0
 14 15  1  0
 16 17  2  0
 16 18  1  0
M  CHG  1  18   1
M  END
