
     RDKit          3D

 12 12  0  0  0  0  0  0  0  0999 V2000
    2.4370   -2.2340   -0.0180 O   0  0  0  0  0  0  0  0  0  0  0  0
    1.4880   -1.4110   -0.1990 C   0  0  0  0  0  0  0  0  0  0  0  0
    0.1530   -1.7630   -0.0540 O   0  0  0  0  0  0  0  0  0  0  0  0
   -0.8270   -0.9000    0.4080 C   0  0  2  0  0  0  0  0  0  0  0  0
   -2.1070   -1.1990   -0.3810 C   0  0  0  0  0  0  0  0  0  0  0  0
   -3.1050   -0.3440    0.0670 O   0  0  0  0  0  0  0  0  0  0  0  0
   -0.5170    0.5440    0.3350 C   0  0  2  0  0  0  0  0  0  0  0  0
   -1.2450    1.1540   -0.7130 O   0  0  0  0  0  0  0  0  0  0  0  0
    0.9290    0.8950    0.2690 C   0  0  2  0  0  0  0  0  0  0  0  0
    1.0160    2.1930   -0.2870 O   0  0  0  0  0  0  0  0  0  0  0  0
    1.7590   -0.0020   -0.5800 C   0  0  1  0  0  0  0  0  0  0  0  0
    3.1010    0.2960   -0.3720 O   0  0  0  0  0  0  0  0  0  0  0  0
  1  2  2  0
  2  3  1  0
  2 11  1  0
  3  4  1  0
  4  5  1  6
  4  7  1  0
  5  6  1  0
  7  8  1  6
  7  9  1  0
  9 10  1  6
  9 11  1  0
 11 12  1  1
M  END
