
     RDKit          3D

 27 29  0  0  0  0  0  0  0  0999 V2000
    7.6340    0.2870    0.6460 C   0  0  0  0  0  0  0  0  0  0  0  0
    6.1770    0.4300    0.8840 C   0  0  0  0  0  0  0  0  0  0  0  0
    5.5870    1.3960    0.3410 O   0  0  0  0  0  0  0  0  0  0  0  0
    5.4670   -0.4970    1.7000 N   0  0  0  0  0  0  0  0  0  0  0  0
    4.0480   -0.3680    1.9400 C   0  0  0  0  0  0  0  0  0  0  0  0
    3.3420   -0.4380    0.6380 C   0  0  0  0  0  0  0  0  0  0  0  0
    4.0080   -0.5880   -0.4350 O   0  0  0  0  0  0  0  0  0  0  0  0
    1.9820   -0.3500    0.4920 O   0  0  0  0  0  0  0  0  0  0  0  0
    1.2690   -0.4110   -0.7250 C   0  0  2  0  0  0  0  0  0  0  0  0
    1.6270   -1.8090   -1.3100 C   0  0  0  0  0  0  0  0  0  0  0  0
    1.7240    0.5460   -1.7510 C   0  0  0  0  0  0  0  0  0  0  0  0
   -0.1920   -0.5040   -0.4920 C   0  0  0  0  0  0  0  0  0  0  0  0
   -1.1600    0.3180   -0.7910 C   0  0  0  0  0  0  0  0  0  0  0  0
   -1.1840    1.5990   -1.4300 N   0  0  0  0  0  0  0  0  0  0  0  0
   -2.4580    2.0670   -1.8670 C   0  0  0  0  0  0  0  0  0  0  0  0
   -2.5090    2.8420   -2.8640 O   0  0  0  0  0  0  0  0  0  0  0  0
   -3.7190    1.6990   -1.2210 C   0  0  0  0  0  0  0  0  0  0  0  0
   -3.4140    0.7920   -0.0070 C   0  0  1  0  0  0  0  0  0  0  0  0
   -4.7200    0.3370    0.5410 C   0  0  0  0  0  0  0  0  0  0  0  0
   -5.2640   -0.8240    0.6400 C   0  0  0  0  0  0  0  0  0  0  0  0
   -6.6100   -0.6410    1.2960 C   0  0  0  0  0  0  0  0  0  0  0  0
   -6.4730    0.5540    1.9500 O   0  0  0  0  0  0  0  0  0  0  0  0
   -5.6720    1.2600    1.1130 N   0  0  0  0  0  0  0  0  0  0  0  0
   -2.5140   -0.2860   -0.4750 C   0  0  2  0  0  0  0  0  0  0  0  0
   -2.1750   -1.2980    0.4650 N   0  0  0  0  0  0  0  0  0  0  0  0
   -0.7950   -1.5890    0.3260 C   0  0  0  0  0  0  0  0  0  0  0  0
   -0.1760   -2.5700    0.7940 O   0  0  0  0  0  0  0  0  0  0  0  0
  1  2  1  0
  2  3  2  0
  2  4  1  0
  4  5  1  0
  5  6  1  0
  6  7  2  0
  6  8  1  0
  8  9  1  0
  9 10  1  6
  9 11  1  0
  9 12  1  0
 12 13  2  0
 12 26  1  0
 13 14  1  0
 13 24  1  0
 14 15  1  0
 15 16  2  0
 15 17  1  0
 17 18  1  0
 18 19  1  6
 18 24  1  0
 19 20  2  0
 19 23  1  0
 20 21  1  0
 21 22  1  0
 22 23  1  0
 24 25  1  1
 25 26  1  0
 26 27  2  0
M  END
