
     RDKit          3D

 27 28  0  0  0  0  0  0  0  0999 V2000
    0.8230    3.8420    2.7670 C   0  0  0  0  0  0  0  0  0  0  0  0
   -0.5790    3.2730    2.9900 C   0  0  0  0  0  0  0  0  0  0  0  0
   -0.7940    2.3030    1.8740 C   0  0  0  0  0  0  0  0  0  0  0  0
   -1.0280    1.0510    2.1380 C   0  0  0  0  0  0  0  0  0  0  0  0
   -1.2420    0.0620    1.1110 C   0  0  0  0  0  0  0  0  0  0  0  0
   -1.4700   -1.2000    1.4900 C   0  0  0  0  0  0  0  0  0  0  0  0
   -1.4780   -1.4670    2.9300 N   0  0  0  0  0  0  0  0  0  0  0  0
   -1.7400   -2.3080    0.6900 N   0  0  0  0  0  0  0  0  0  0  0  0
   -1.1400   -2.7990   -0.5010 C   0  0  0  0  0  0  0  0  0  0  0  0
   -1.7930   -3.0920   -1.6280 C   0  0  0  0  0  0  0  0  0  0  0  0
   -0.8610   -3.5770   -2.6630 C   0  0  0  0  0  0  0  0  0  0  0  0
    0.4190   -3.5230   -1.9350 C   0  0  0  0  0  0  0  0  0  0  0  0
    0.2550   -3.0720   -0.6930 C   0  0  0  0  0  0  0  0  0  0  0  0
    1.3140   -2.8790    0.3000 C   0  0  0  0  0  0  0  0  0  0  0  0
    2.1590   -3.8610    0.3750 O   0  0  0  0  0  0  0  0  0  0  0  0
    1.5540   -1.8150    1.1700 N   0  0  0  0  0  0  0  0  0  0  0  0
    1.6440   -0.4670    0.9650 N   0  0  0  0  0  0  0  0  0  0  0  0
    1.7020    0.3230   -0.1970 C   0  0  0  0  0  0  0  0  0  0  0  0
    2.4960    1.3360   -0.1700 O   0  0  0  0  0  0  0  0  0  0  0  0
    0.9660    0.1470   -1.4540 C   0  0  2  0  0  0  0  0  0  0  0  0
    1.2710    1.1850   -2.4700 C   0  0  0  0  0  0  0  0  0  0  0  0
    2.4790    1.4450   -2.7360 O   0  0  0  0  0  0  0  0  0  0  0  0
    0.3190    1.9070   -3.1660 O   0  0  0  0  0  0  0  0  0  0  0  0
    0.6680    2.8870   -4.1350 C   0  0  0  0  0  0  0  0  0  0  0  0
   -0.4360   -0.0010   -1.2970 O   0  0  0  0  0  0  0  0  0  0  0  0
   -1.2050    0.4940   -0.2740 C   0  0  0  0  0  0  0  0  0  0  0  0
   -1.9920    1.4650   -0.5840 O   0  0  0  0  0  0  0  0  0  0  0  0
  1  2  1  0
  2  3  1  0
  3  4  2  3
  4  5  1  0
  5  6  2  0
  5 26  1  0
  6  7  1  0
  6  8  1  0
  8  9  1  0
  9 10  2  0
  9 13  1  0
 10 11  1  0
 11 12  1  0
 12 13  2  0
 13 14  1  0
 14 15  2  0
 14 16  1  0
 16 17  1  0
 17 18  1  0
 18 19  2  0
 18 20  1  0
 20 21  1  6
 20 25  1  0
 21 22  2  0
 21 23  1  0
 23 24  1  0
 25 26  1  0
 26 27  2  0
M  END
