
     RDKit          3D

 27 28  0  0  0  0  0  0  0  0999 V2000
    5.5570   -1.4260   -1.8780 C   0  0  0  0  0  0  0  0  0  0  0  0
    5.4460   -1.2380   -0.5800 C   0  0  0  0  0  0  0  0  0  0  0  0
    5.3110   -2.3390    0.3660 C   0  0  0  0  0  0  0  0  0  0  0  0
    5.2960   -3.5330   -0.0380 N   0  0  0  0  0  0  0  0  0  0  0  0
    5.4620    0.1810   -0.0800 C   0  0  1  0  0  0  0  0  0  0  0  0
    5.5870    1.0310   -1.1660 O   0  0  0  0  0  0  0  0  0  0  0  0
    4.1450    0.4360    0.6420 C   0  0  2  0  0  0  0  0  0  0  0  0
    3.0410    0.0350   -0.2800 C   0  0  0  0  0  0  0  0  0  0  0  0
    1.7920    0.6940    0.0470 N   0  0  0  0  0  0  0  0  0  0  0  0
    0.5820   -0.0410    0.0130 C   0  0  0  0  0  0  0  0  0  0  0  0
    0.5520   -1.2670   -0.2950 O   0  0  0  0  0  0  0  0  0  0  0  0
   -0.6890    0.6120    0.3410 C   0  0  0  0  0  0  0  0  0  0  0  0
   -0.6970    1.8230    0.6490 O   0  0  0  0  0  0  0  0  0  0  0  0
   -1.9140   -0.0910    0.3180 N   0  0  0  0  0  0  0  0  0  0  0  0
   -3.1460    0.5930    0.6480 C   0  0  1  0  0  0  0  0  0  0  0  0
   -4.0880    0.6000   -0.4810 C   0  0  0  0  0  0  0  0  0  0  0  0
   -5.3400    0.1390   -0.4200 C   0  0  0  0  0  0  0  0  0  0  0  0
   -6.0950    0.2310   -1.6140 N   0  0  0  0  0  0  0  0  0  0  0  0
   -5.8950   -0.4210    0.7930 C   0  0  0  0  0  0  0  0  0  0  0  0
   -7.1910   -0.8850    0.8140 O   0  0  0  0  0  0  0  0  0  0  0  0
   -7.9930   -1.2100   -0.2710 C   0  0  0  0  0  0  0  0  0  0  0  0
   -5.1020   -0.4580    1.8480 C   0  0  0  0  0  0  0  0  0  0  0  0
   -3.7470    0.0150    1.8650 C   0  0  0  0  0  0  0  0  0  0  0  0
   -3.0050   -0.0360    2.9050 O   0  0  0  0  0  0  0  0  0  0  0  0
    1.8060    2.0790    0.3990 C   0  0  0  0  0  0  0  0  0  0  0  0
    3.2630    2.5500    0.3510 C   0  0  0  0  0  0  0  0  0  0  0  0
    4.0710    1.7260    1.0980 O   0  0  0  0  0  0  0  0  0  0  0  0
  1  2  2  0
  2  3  1  0
  2  5  1  0
  3  4  2  0
  5  6  1  6
  5  7  1  0
  7  8  1  6
  7 27  1  0
  8  9  1  0
  9 10  1  0
  9 25  1  0
 10 11  2  0
 10 12  1  0
 12 13  2  0
 12 14  1  0
 15 14  1  6
 15 16  1  0
 15 23  1  0
 16 17  2  0
 17 18  1  0
 17 19  1  0
 19 20  1  0
 19 22  2  0
 20 21  1  0
 22 23  1  0
 23 24  2  0
 25 26  1  0
 26 27  1  0
M  END
