
     RDKit          3D

 27 29  0  0  0  0  0  0  0  0999 V2000
   -5.3410   -1.6810   -0.7460 C   0  0  0  0  0  0  0  0  0  0  0  0
   -5.8000   -0.5400   -0.2450 C   0  0  0  0  0  0  0  0  0  0  0  0
   -7.1680   -0.1780   -0.3760 N   0  0  0  0  0  0  0  0  0  0  0  0
   -7.5740    1.0780    0.1990 C   0  0  0  0  0  0  0  0  0  0  0  0
   -6.7140    1.8620    0.8200 C   0  0  0  0  0  0  0  0  0  0  0  0
   -7.1710    3.0590    1.3510 O   0  0  0  0  0  0  0  0  0  0  0  0
   -5.3080    1.5040    0.9620 C   0  0  0  0  0  0  0  0  0  0  0  0
   -4.8730    0.3460    0.4470 C   0  0  0  0  0  0  0  0  0  0  0  0
   -3.5530   -0.0220    0.5620 O   0  0  0  0  0  0  0  0  0  0  0  0
   -2.6000    0.3240   -0.4180 C   0  0  0  0  0  0  0  0  0  0  0  0
   -1.2870   -0.2110   -0.0110 C   0  0  0  0  0  0  0  0  0  0  0  0
   -1.1850   -0.8500    1.0570 O   0  0  0  0  0  0  0  0  0  0  0  0
   -0.1680    0.0190   -0.8540 N   0  0  0  0  0  0  0  0  0  0  0  0
    1.0910   -0.5400   -0.3850 C   0  0  0  0  0  0  0  0  0  0  0  0
    2.0440    0.3030   -0.1790 C   0  0  0  0  0  0  0  0  0  0  0  0
    3.3990    0.0800    0.2810 C   0  0  0  0  0  0  0  0  0  0  0  0
    3.9220   -1.0470    0.5830 N   0  0  0  0  0  0  0  0  0  0  0  0
    5.2710   -0.9070    0.9980 C   0  0  0  0  0  0  0  0  0  0  0  0
    5.9350   -1.8290    1.5320 O   0  0  0  0  0  0  0  0  0  0  0  0
    5.6450    0.4910    0.6600 C   0  0  1  0  0  0  0  0  0  0  0  0
    6.5200    0.5810   -0.5600 C   0  0  2  0  0  0  0  0  0  0  0  0
    7.8210   -0.1280   -0.4990 C   0  0  0  0  0  0  0  0  0  0  0  0
    7.7780    1.3980   -0.4880 C   0  0  0  0  0  0  0  0  0  0  0  0
    4.3760    1.0890    0.4730 O   0  0  0  0  0  0  0  0  0  0  0  0
    1.1060   -1.9610   -0.2110 C   0  0  0  0  0  0  0  0  0  0  0  0
   -0.0960   -2.7320   -0.5040 N   0  0  0  0  0  0  0  0  0  0  0  0
    2.0700   -2.6720    0.1820 O   0  0  0  0  0  0  0  0  0  0  0  0
  1  2  2  0
  2  3  1  0
  2  8  1  0
  3  4  1  0
  4  5  2  0
  5  6  1  0
  5  7  1  0
  7  8  2  0
  8  9  1  0
  9 10  1  0
 10 11  1  0
 11 12  2  0
 11 13  1  0
 13 14  1  0
 14 15  2  3
 14 25  1  0
 15 16  1  0
 16 17  2  0
 16 24  1  0
 17 18  1  0
 18 19  2  0
 18 20  1  0
 20 21  1  0
 20 24  1  6
 21 22  1  1
 21 23  1  0
 22 23  1  0
 25 26  1  0
 25 27  2  0
M  END
