
     RDKit          3D

 27 29  0  0  0  0  0  0  0  0999 V2000
   -5.0840   -2.8690   -0.3540 C   0  0  0  0  0  0  0  0  0  0  0  0
   -3.8470   -2.2150   -0.0040 C   0  0  0  0  0  0  0  0  0  0  0  0
   -3.5820   -0.9270    0.1730 C   0  0  0  0  0  0  0  0  0  0  0  0
   -2.2860   -0.5340    0.5320 O   0  0  0  0  0  0  0  0  0  0  0  0
   -1.8530    0.7740    0.6730 C   0  0  1  0  0  0  0  0  0  0  0  0
   -0.6300    1.0220   -0.1200 C   0  0  0  0  0  0  0  0  0  0  0  0
    0.6080    0.5340    0.3620 N   0  0  0  0  0  0  0  0  0  0  0  0
    1.7310    0.5870   -0.5210 C   0  0  0  0  0  0  0  0  0  0  0  0
    1.5750    0.9810   -1.7150 O   0  0  0  0  0  0  0  0  0  0  0  0
    3.0480    0.1660   -0.0150 C   0  0  1  0  0  0  0  0  0  0  0  0
    3.3050    0.7590    1.2940 C   0  0  0  0  0  0  0  0  0  0  0  0
    3.0840   -1.3060   -0.0850 N   0  0  0  0  0  0  0  0  0  0  0  0
    4.3810   -1.9140    0.1800 C   0  0  0  0  0  0  0  0  0  0  0  0
    4.4080   -2.8720    0.9610 O   0  0  0  0  0  0  0  0  0  0  0  0
    5.5200   -1.3480   -0.5100 C   0  0  2  0  0  0  0  0  0  0  0  0
    6.6390   -0.7920    0.3000 C   0  0  0  0  0  0  0  0  0  0  0  0
    6.3510    0.4990    0.8050 O   0  0  0  0  0  0  0  0  0  0  0  0
    5.1220   -0.3170   -1.4920 N   0  0  0  0  0  0  0  0  0  0  0  0
    4.0880    0.5580   -1.0560 C   0  0  0  0  0  0  0  0  0  0  0  0
    4.0510    1.7080   -1.5480 O   0  0  0  0  0  0  0  0  0  0  0  0
   -2.8170    1.8860    0.5560 C   0  0  0  0  0  0  0  0  0  0  0  0
   -4.1720    1.4590    0.2420 N   0  0  0  0  0  0  0  0  0  0  0  0
   -5.2860    2.3260    0.0760 C   0  0  0  0  0  0  0  0  0  0  0  0
   -5.2910    3.6080    0.2300 O   0  0  0  0  0  0  0  0  0  0  0  0
   -6.4390    1.4890   -0.3080 C   0  0  0  0  0  0  0  0  0  0  0  0
   -5.8630    0.1250   -0.2710 C   0  0  0  0  0  0  0  0  0  0  0  0
   -4.5940    0.1460    0.0200 C   0  0  0  0  0  0  0  0  0  0  0  0
  1  2  1  0
  2  3  2  3
  3  4  1  0
  3 27  1  0
  4  5  1  0
  5  6  1  6
  5 21  1  0
  6  7  1  0
  7  8  1  0
  8  9  2  0
  8 10  1  0
 10 11  1  1
 10 12  1  0
 10 19  1  0
 12 13  1  0
 13 14  2  0
 13 15  1  0
 15 16  1  1
 15 18  1  0
 16 17  1  0
 18 19  1  0
 19 20  2  0
 21 22  1  0
 22 23  1  0
 22 27  1  0
 23 24  2  0
 23 25  1  0
 25 26  1  0
 26 27  2  0
M  END
