
     RDKit          3D

 16 17  0  0  0  0  0  0  0  0999 V2000
    4.8400   -0.8350   -1.5910 O   0  0  0  0  0  0  0  0  0  0  0  0
    4.2630   -1.0350   -0.5000 C   0  0  0  0  0  0  0  0  0  0  0  0
    4.9720   -1.4800    0.6230 O   0  0  0  0  0  0  0  0  0  0  0  0
    2.7940   -0.7820   -0.4390 C   0  0  0  0  0  0  0  0  0  0  0  0
    2.6150    0.7150   -0.3390 C   0  0  0  0  0  0  0  0  0  0  0  0
    1.1570    1.0700   -0.2870 C   0  0  0  0  0  0  0  0  0  0  0  0
    0.4250    0.4740    0.8910 C   0  0  0  0  0  0  0  0  0  0  0  0
   -1.0020    0.9350    0.7910 C   0  0  2  0  0  0  0  0  0  0  0  0
   -2.0150    0.2840    2.1800 S   0  0  0  0  0  0  0  0  0  0  0  0
   -3.5880    0.5510    1.3080 C   0  0  0  0  0  0  0  0  0  0  0  0
   -3.1960    0.3320   -0.0990 C   0  0  2  0  0  0  0  0  0  0  0  0
   -3.5730   -1.0330   -0.4480 N   0  0  0  0  0  0  0  0  0  0  0  0
   -2.4600   -1.7800   -0.8800 C   0  0  0  0  0  0  0  0  0  0  0  0
   -2.4870   -2.9620   -1.3150 O   0  0  0  0  0  0  0  0  0  0  0  0
   -1.3310   -0.9150   -0.7170 N   0  0  0  0  0  0  0  0  0  0  0  0
   -1.7690    0.4190   -0.3640 C   0  0  2  0  0  0  0  0  0  0  0  0
  1  2  2  0
  2  3  1  0
  2  4  1  0
  4  5  1  0
  5  6  1  0
  6  7  1  0
  8  7  1  1
  8  9  1  0
  8 16  1  0
  9 10  1  0
 11 10  1  1
 11 12  1  0
 11 16  1  0
 12 13  1  0
 13 14  2  0
 13 15  1  0
 16 15  1  1
M  END
