
     RDKit          3D

 38 43  0  0  0  0  0  0  0  0999 V2000
    7.4160    3.1930    0.2760 C   0  0  0  0  0  0  0  0  0  0  0  0
    7.6800    1.8070   -0.4440 C   0  0  0  0  0  0  0  0  0  0  0  0
    8.0640    1.0030    0.5110 O   0  0  0  0  0  0  0  0  0  0  0  0
    8.0330   -0.3920    0.5110 C   0  0  0  0  0  0  0  0  0  0  0  0
    6.5730   -0.6250    0.1410 C   0  0  0  0  0  0  0  0  0  0  0  0
    6.1060   -0.1440   -1.0030 O   0  0  0  0  0  0  0  0  0  0  0  0
    4.8760   -0.4080   -1.1700 C   0  0  0  0  0  0  0  0  0  0  0  0
    4.0080   -0.1200   -2.2090 O   0  0  0  0  0  0  0  0  0  0  0  0
    3.2320    1.0460   -2.1390 C   0  0  0  0  0  0  0  0  0  0  0  0
    4.4470   -1.1380   -0.0150 C   0  0  0  0  0  0  0  0  0  0  0  0
    2.9920   -1.2170    0.2590 C   0  0  0  0  0  0  0  0  0  0  0  0
    1.9460   -1.8840   -0.0960 N   0  0  0  0  0  0  0  0  0  0  0  0
    0.8140   -1.2050    0.2790 C   0  0  0  0  0  0  0  0  0  0  0  0
   -0.5380   -1.3800    0.0200 C   0  0  0  0  0  0  0  0  0  0  0  0
   -1.4070   -0.3930    0.4010 C   0  0  0  0  0  0  0  0  0  0  0  0
   -1.0160    0.7070    1.0210 N   0  0  0  0  0  0  0  0  0  0  0  0
    0.2860    0.9170    1.3020 C   0  0  0  0  0  0  0  0  0  0  0  0
    1.1950   -0.0550    0.9130 C   0  0  0  0  0  0  0  0  0  0  0  0
    2.5090   -0.0610    0.9070 N   0  0  0  0  0  0  0  0  0  0  0  0
   -2.7870   -0.7430   -0.2190 C   0  0  2  0  0  0  0  0  0  0  0  0
   -3.6910    0.1410    0.3200 N   0  0  0  0  0  0  0  0  0  0  0  0
   -5.0390    0.1790    0.0280 C   0  0  0  0  0  0  0  0  0  0  0  0
   -5.5020    0.5790   -1.3370 C   0  0  1  0  0  0  0  0  0  0  0  0
   -6.9430    0.8800   -1.1680 O   0  0  0  0  0  0  0  0  0  0  0  0
   -6.9230    2.1670   -0.5690 C   0  0  0  0  0  0  0  0  0  0  0  0
   -7.8070    2.8480    0.2680 C   0  0  0  0  0  0  0  0  0  0  0  0
   -7.4870    4.1210    0.6830 C   0  0  0  0  0  0  0  0  0  0  0  0
   -6.3120    4.7040    0.2730 C   0  0  0  0  0  0  0  0  0  0  0  0
   -5.4220    4.0380   -0.5650 C   0  0  0  0  0  0  0  0  0  0  0  0
   -5.7550    2.7770   -0.9620 C   0  0  0  0  0  0  0  0  0  0  0  0
   -5.0880    1.8390   -1.7910 O   0  0  0  0  0  0  0  0  0  0  0  0
   -2.7390   -2.1970    0.0540 C   0  0  0  0  0  0  0  0  0  0  0  0
   -1.3140   -2.5110   -0.5190 C   0  0  2  0  0  0  0  0  0  0  0  0
   -0.8560   -3.7740    0.0120 N   0  0  1  0  0  0  0  0  0  0  0  0
   -1.4070   -4.0960    1.2830 C   0  0  0  0  0  0  0  0  0  0  0  0
   -1.1480   -4.8180   -0.9280 C   0  0  0  0  0  0  0  0  0  0  0  0
    5.5510   -1.2610    0.7610 C   0  0  0  0  0  0  0  0  0  0  0  0
    5.6390   -2.0760    2.3090 Cl  0  0  0  0  0  0  0  0  0  0  0  0
  1  2  1  0
  2  3  1  0
  3  4  1  0
  4  5  1  0
  5  6  1  0
  5 37  2  0
  6  7  1  0
  7  8  1  0
  7 10  2  0
  8  9  1  0
 10 11  1  0
 10 37  1  0
 11 12  2  0
 11 19  1  0
 12 13  1  0
 13 14  2  0
 13 18  1  0
 14 15  1  0
 14 33  1  0
 15 16  2  0
 15 20  1  0
 16 17  1  0
 17 18  2  0
 18 19  1  0
 20 21  1  1
 20 32  1  0
 21 22  1  0
 23 22  1  1
 23 24  1  0
 23 31  1  0
 24 25  1  0
 25 26  2  0
 25 30  1  0
 26 27  1  0
 27 28  2  0
 28 29  1  0
 29 30  2  0
 30 31  1  0
 33 32  1  1
 33 34  1  0
 34 35  1  1
 34 36  1  0
 37 38  1  0
M  CHG  2  21   1  34   1
M  END
