
     RDKit          3D

 38 42  0  0  0  0  0  0  0  0999 V2000
   -8.7920    1.8620    1.2500 C   0  0  0  0  0  0  0  0  0  0  0  0
   -8.4500    1.6910   -0.1330 N   0  0  2  0  0  0  0  0  0  0  0  0
   -9.0900    0.5650   -0.7480 C   0  0  0  0  0  0  0  0  0  0  0  0
   -8.5120   -0.7600   -0.3720 C   0  0  0  0  0  0  0  0  0  0  0  0
   -7.3020   -0.6900    0.5140 C   0  0  0  0  0  0  0  0  0  0  0  0
   -6.3720    0.4290    0.1920 C   0  0  1  0  0  0  0  0  0  0  0  0
   -5.2860   -0.0850   -0.6840 C   0  0  0  0  0  0  0  0  0  0  0  0
   -5.1590    0.3900   -1.8540 O   0  0  0  0  0  0  0  0  0  0  0  0
   -4.3900   -1.0890   -0.2480 N   0  0  0  0  0  0  0  0  0  0  0  0
   -4.3290   -1.7790    1.0220 C   0  0  0  0  0  0  0  0  0  0  0  0
   -2.8280   -1.9130    1.2380 C   0  0  0  0  0  0  0  0  0  0  0  0
   -2.2310   -1.8850   -0.0620 N   0  0  2  0  0  0  0  0  0  0  0  0
   -1.3090   -0.7670   -0.2120 C   0  0  0  0  0  0  0  0  0  0  0  0
    0.0600   -1.0990    0.3300 C   0  0  0  0  0  0  0  0  0  0  0  0
    0.9320   -0.0250    0.1820 O   0  0  0  0  0  0  0  0  0  0  0  0
    1.3050    0.5660   -1.0150 C   0  0  0  0  0  0  0  0  0  0  0  0
    0.8260    0.1060   -2.0820 O   0  0  0  0  0  0  0  0  0  0  0  0
    2.2260    1.6860   -0.9960 C   0  0  0  0  0  0  0  0  0  0  0  0
    3.6140    1.3560   -1.1020 N   0  0  0  0  0  0  0  0  0  0  0  0
    4.2290    1.2610   -2.2750 N   0  0  0  0  0  0  0  0  0  0  0  0
    5.5010    0.9440   -2.0910 C   0  0  0  0  0  0  0  0  0  0  0  0
    5.7280    0.8260   -0.7240 C   0  0  0  0  0  0  0  0  0  0  0  0
    6.7970    0.5310    0.0650 C   0  0  0  0  0  0  0  0  0  0  0  0
    6.7220    0.4860    1.4550 C   0  0  0  0  0  0  0  0  0  0  0  0
    7.8480    0.1780    2.2320 O   0  0  0  0  0  0  0  0  0  0  0  0
    9.0450   -0.0770    1.5700 C   0  0  0  0  0  0  0  0  0  0  0  0
    9.9370    0.9380    1.2830 C   0  0  0  0  0  0  0  0  0  0  0  0
   11.1310    0.6850    0.6230 C   0  0  0  0  0  0  0  0  0  0  0  0
   11.4650   -0.5910    0.2320 C   0  0  0  0  0  0  0  0  0  0  0  0
   12.6500   -0.8950   -0.4330 O   0  0  0  0  0  0  0  0  0  0  0  0
   10.5760   -1.6050    0.5170 C   0  0  0  0  0  0  0  0  0  0  0  0
   10.9820   -3.2480    0.0260 Cl  0  0  0  0  0  0  0  0  0  0  0  0
    9.3870   -1.3510    1.1750 C   0  0  0  0  0  0  0  0  0  0  0  0
    5.4930    0.7580    2.0170 C   0  0  0  0  0  0  0  0  0  0  0  0
    4.3850    1.0620    1.2190 C   0  0  0  0  0  0  0  0  0  0  0  0
    4.5190    1.0920   -0.1390 C   0  0  0  0  0  0  0  0  0  0  0  0
   -3.3010   -1.6460   -1.0250 C   0  0  0  0  0  0  0  0  0  0  0  0
   -7.0140    1.6620   -0.3540 C   0  0  0  0  0  0  0  0  0  0  0  0
  2  1  1  1
  2  3  1  0
  2 38  1  0
  3  4  1  0
  4  5  1  0
  5  6  1  0
  6  7  1  6
  6 38  1  0
  7  8  2  0
  7  9  1  0
  9 10  1  0
  9 37  1  0
 10 11  1  0
 11 12  1  0
 12 13  1  1
 12 37  1  0
 13 14  1  0
 14 15  1  0
 15 16  1  0
 16 17  2  0
 16 18  1  0
 18 19  1  0
 19 20  1  0
 19 36  1  0
 20 21  2  0
 21 22  1  0
 22 23  2  0
 22 36  1  0
 23 24  1  0
 24 25  1  0
 24 34  2  0
 25 26  1  0
 26 27  2  0
 26 33  1  0
 27 28  1  0
 28 29  2  0
 29 30  1  0
 29 31  1  0
 31 32  1  0
 31 33  2  0
 34 35  1  0
 35 36  2  0
M  CHG  2   2   1  12   1
M  END
