
     RDKit          3D

 38 42  0  0  0  0  0  0  0  0999 V2000
    7.2790    1.3220    1.8110 C   0  0  0  0  0  0  0  0  0  0  0  0
    7.4690    2.1830    0.8560 C   0  0  0  0  0  0  0  0  0  0  0  0
    6.8050    1.9450   -0.4880 C   0  0  0  0  0  0  0  0  0  0  0  0
    7.0680    2.8700   -1.3560 C   0  0  0  0  0  0  0  0  0  0  0  0
    6.6960    3.1120   -2.7400 C   0  0  0  0  0  0  0  0  0  0  0  0
    5.8090    4.6830   -2.8850 Cl  0  0  0  0  0  0  0  0  0  0  0  0
    6.0130    0.7280   -0.5400 C   0  0  0  0  0  0  0  0  0  0  0  0
    5.3310    0.3720   -1.8040 C   0  0  0  0  0  0  0  0  0  0  0  0
    4.5700   -0.8890   -1.6530 N   0  0  0  0  0  0  0  0  0  0  0  0
    5.2140   -2.0280   -1.9330 C   0  0  0  0  0  0  0  0  0  0  0  0
    6.4140   -2.0110   -2.3010 O   0  0  0  0  0  0  0  0  0  0  0  0
    4.5650   -3.2180   -1.8200 N   0  0  0  0  0  0  0  0  0  0  0  0
    3.2670   -3.2620   -1.4240 C   0  0  0  0  0  0  0  0  0  0  0  0
    2.6940   -4.4850   -1.3390 N   0  0  0  0  0  0  0  0  0  0  0  0
    1.4160   -4.5550   -0.9550 C   0  0  0  0  0  0  0  0  0  0  0  0
    0.6880   -3.4090   -0.6480 C   0  0  0  0  0  0  0  0  0  0  0  0
    1.2440   -2.1480   -0.7240 C   0  0  0  0  0  0  0  0  0  0  0  0
    0.5760   -0.8990   -0.4210 C   0  0  0  0  0  0  0  0  0  0  0  0
   -0.7870   -0.9090   -0.0130 N   0  0  2  0  0  0  0  0  0  0  0  0
   -1.1230   -1.6220    1.1740 C   0  0  0  0  0  0  0  0  0  0  0  0
   -1.7980   -0.7700    2.2280 C   0  0  0  0  0  0  0  0  0  0  0  0
   -2.4280    0.4640    1.7220 C   0  0  0  0  0  0  0  0  0  0  0  0
   -3.1510    0.4190    0.4370 C   0  0  2  0  0  0  0  0  0  0  0  0
   -4.6020    0.8070    0.6000 C   0  0  0  0  0  0  0  0  0  0  0  0
   -5.4850    0.0220    1.2470 N   0  0  0  0  0  0  0  0  0  0  0  0
   -6.7040    0.6050    1.2460 C   0  0  0  0  0  0  0  0  0  0  0  0
   -6.5160    1.7910    0.5630 C   0  0  0  0  0  0  0  0  0  0  0  0
   -5.2380    1.8560    0.2010 O   0  0  0  0  0  0  0  0  0  0  0  0
   -7.5510    2.8180    0.2790 C   0  0  0  0  0  0  0  0  0  0  0  0
   -8.2880    3.0690    1.4600 O   0  0  0  0  0  0  0  0  0  0  0  0
   -9.1380    1.9840    1.6660 C   0  0  0  0  0  0  0  0  0  0  0  0
   -8.5860    1.0650    2.5600 O   0  0  0  0  0  0  0  0  0  0  0  0
   -7.9360    0.0450    1.8600 C   0  0  0  0  0  0  0  0  0  0  0  0
   -3.1250   -0.8420   -0.3410 C   0  0  0  0  0  0  0  0  0  0  0  0
   -1.7810   -1.1270   -1.0200 C   0  0  0  0  0  0  0  0  0  0  0  0
    2.5790   -2.0880   -1.1270 C   0  0  0  0  0  0  0  0  0  0  0  0
    3.2930   -0.9170   -1.2620 C   0  0  0  0  0  0  0  0  0  0  0  0
    2.7610    0.1840   -1.0190 O   0  0  0  0  0  0  0  0  0  0  0  0
  1  2  2  0
  2  3  1  0
  3  4  2  3
  3  7  1  0
  4  5  1  0
  5  6  1  0
  7  8  1  0
  8  9  1  0
  9 10  1  0
  9 37  1  0
 10 11  2  0
 10 12  1  0
 12 13  1  0
 13 14  2  0
 13 36  1  0
 14 15  1  0
 15 16  2  0
 16 17  1  0
 17 18  1  0
 17 36  2  0
 19 18  1  6
 19 20  1  0
 19 35  1  0
 20 21  1  0
 21 22  1  0
 22 23  1  0
 23 24  1  1
 23 34  1  0
 24 25  2  0
 24 28  1  0
 25 26  1  0
 26 27  2  0
 26 33  1  0
 27 28  1  0
 27 29  1  0
 29 30  1  0
 30 31  1  0
 31 32  1  0
 32 33  1  0
 34 35  1  0
 36 37  1  0
 37 38  2  0
M  CHG  2  19   1  25   1
M  END
