
     RDKit          3D

 38 42  0  0  0  0  0  0  0  0999 V2000
    7.8570   -0.2650    3.0300 C   0  0  0  0  0  0  0  0  0  0  0  0
    7.3230   -1.5260    2.9260 O   0  0  0  0  0  0  0  0  0  0  0  0
    6.5790   -1.7350    1.7960 C   0  0  0  0  0  0  0  0  0  0  0  0
    7.3120   -1.5830    0.5290 C   0  0  0  0  0  0  0  0  0  0  0  0
    8.6630   -1.7700    0.4900 C   0  0  0  0  0  0  0  0  0  0  0  0
    9.3300   -1.6180   -0.7030 C   0  0  0  0  0  0  0  0  0  0  0  0
    8.6060   -1.2810   -1.8240 C   0  0  0  0  0  0  0  0  0  0  0  0
    9.3970   -1.0740   -3.3680 Cl  0  0  0  0  0  0  0  0  0  0  0  0
    7.2570   -1.1060   -1.7280 C   0  0  0  0  0  0  0  0  0  0  0  0
    6.5960   -1.2480   -0.5840 N   0  0  0  0  0  0  0  0  0  0  0  0
    5.1840   -1.0620   -0.5000 C   0  0  0  0  0  0  0  0  0  0  0  0
    4.4070   -2.1960   -0.3550 C   0  0  0  0  0  0  0  0  0  0  0  0
    3.0360   -1.9870   -0.2770 C   0  0  0  0  0  0  0  0  0  0  0  0
    2.5250   -0.7120   -0.3440 C   0  0  0  0  0  0  0  0  0  0  0  0
    1.0560   -0.5250   -0.2570 C   0  0  0  0  0  0  0  0  0  0  0  0
    0.3050   -1.4990   -0.1270 O   0  0  0  0  0  0  0  0  0  0  0  0
    0.5700    0.7910   -0.3290 N   0  0  0  0  0  0  0  0  0  0  0  0
   -0.7760    1.1480   -0.2710 C   0  0  0  0  0  0  0  0  0  0  0  0
   -1.1130    2.4770   -0.0020 C   0  0  0  0  0  0  0  0  0  0  0  0
   -2.4140    2.8680    0.0450 C   0  0  0  0  0  0  0  0  0  0  0  0
   -3.4300    1.9580   -0.1740 C   0  0  0  0  0  0  0  0  0  0  0  0
   -4.7350    2.3160   -0.1350 O   0  0  0  0  0  0  0  0  0  0  0  0
   -5.2070    3.5900    0.1200 C   0  0  1  0  0  0  0  0  0  0  0  0
   -6.1450    4.0780   -0.9840 C   0  0  0  0  0  0  0  0  0  0  0  0
   -6.8950    5.1720   -0.2550 C   0  0  0  0  0  0  0  0  0  0  0  0
   -6.9960    4.7480    1.1210 N   0  0  0  0  0  0  0  0  0  0  0  0
   -6.1850    3.5840    1.2930 C   0  0  0  0  0  0  0  0  0  0  0  0
   -3.1410    0.6260   -0.4460 C   0  0  0  0  0  0  0  0  0  0  0  0
   -4.2320   -0.2950   -0.6690 C   0  0  0  0  0  0  0  0  0  0  0  0
   -5.4240    0.1000   -0.6190 O   0  0  0  0  0  0  0  0  0  0  0  0
   -4.0600   -1.6410   -0.9470 O   0  0  0  0  0  0  0  0  0  0  0  0
   -5.0740   -2.5610   -1.1680 C   0  0  0  0  0  0  0  0  0  0  0  0
   -4.3910   -3.9090   -1.4330 C   0  0  1  0  0  0  0  0  0  0  0  0
   -3.5230   -4.3800   -0.2520 C   0  0  0  0  0  0  0  0  0  0  0  0
   -4.7740   -5.1030   -0.6720 C   0  0  0  0  0  0  0  0  0  0  0  0
   -1.8170    0.2570   -0.4880 C   0  0  0  0  0  0  0  0  0  0  0  0
    3.3370    0.3300   -0.4840 N   0  0  0  0  0  0  0  0  0  0  0  0
    4.6530    0.1540   -0.5610 N   0  0  0  0  0  0  0  0  0  0  0  0
  1  2  1  0
  2  3  1  0
  3  4  1  0
  4  5  2  0
  4 10  1  0
  5  6  1  0
  6  7  2  0
  7  8  1  0
  7  9  1  0
  9 10  2  0
 10 11  1  0
 11 12  2  0
 11 38  1  0
 12 13  1  0
 13 14  2  0
 14 15  1  0
 14 37  1  0
 15 16  2  0
 15 17  1  0
 17 18  1  0
 18 19  2  0
 18 36  1  0
 19 20  1  0
 20 21  2  0
 21 22  1  0
 21 28  1  0
 23 22  1  6
 23 24  1  0
 23 27  1  0
 24 25  1  0
 25 26  1  0
 26 27  1  0
 28 29  1  0
 28 36  2  0
 29 30  2  0
 29 31  1  0
 31 32  1  0
 33 32  1  1
 33 34  1  0
 33 35  1  0
 34 35  1  0
 37 38  2  0
M  CHG  2  10   1  26   1
M  END
