
     RDKit          3D

 31 34  0  0  0  0  0  0  0  0999 V2000
   -9.0870   -0.6890   -0.6820 C   0  0  0  0  0  0  0  0  0  0  0  0
   -7.7570   -0.0230   -0.8540 C   0  0  0  0  0  0  0  0  0  0  0  0
   -7.2710    0.2590   -2.1030 C   0  0  0  0  0  0  0  0  0  0  0  0
   -6.0370    0.8770   -2.2550 C   0  0  0  0  0  0  0  0  0  0  0  0
   -5.2630    1.2260   -1.1680 C   0  0  0  0  0  0  0  0  0  0  0  0
   -3.9500    1.8830   -1.3220 C   0  0  1  0  0  0  0  0  0  0  0  0
   -4.0480    3.3760   -1.0160 C   0  0  0  0  0  0  0  0  0  0  0  0
   -2.9540    1.3450   -0.5070 O   0  0  0  0  0  0  0  0  0  0  0  0
   -1.7550    0.8390   -1.0330 C   0  0  0  0  0  0  0  0  0  0  0  0
   -1.6430    0.9050   -2.2820 O   0  0  0  0  0  0  0  0  0  0  0  0
   -0.7430    0.2890   -0.1630 C   0  0  0  0  0  0  0  0  0  0  0  0
    0.4230   -0.2060   -0.6610 C   0  0  0  0  0  0  0  0  0  0  0  0
    1.4020   -0.7370    0.1920 C   0  0  0  0  0  0  0  0  0  0  0  0
    1.2240   -0.7790    1.5490 C   0  0  0  0  0  0  0  0  0  0  0  0
    2.1870   -1.3120    2.4980 C   0  0  0  0  0  0  0  0  0  0  0  0
    3.2920   -1.7940    2.1640 N   0  0  0  0  0  0  0  0  0  0  0  0
    3.9570   -1.9980    1.0130 N   0  0  0  0  0  0  0  0  0  0  0  0
    5.0430   -1.4180    0.7190 C   0  0  0  0  0  0  0  0  0  0  0  0
    5.6760   -0.4670    1.6110 C   0  0  0  0  0  0  0  0  0  0  0  0
    6.8970   -0.0500    1.5290 C   0  0  0  0  0  0  0  0  0  0  0  0
    7.8740   -0.4150    0.5750 N   0  0  0  0  0  0  0  0  0  0  0  0
    9.2850    0.0170    0.4260 C   0  0  0  0  0  0  0  0  0  0  0  0
    9.8410   -1.1460   -0.3620 C   0  0  0  0  0  0  0  0  0  0  0  0
    8.6810   -1.7210   -0.9600 N   0  0  0  0  0  0  0  0  0  0  0  0
    7.6000   -1.3350   -0.4630 C   0  0  0  0  0  0  0  0  0  0  0  0
    5.9080   -1.7380   -0.8380 S   0  0  0  0  0  0  0  0  0  0  0  0
    0.0150   -0.2640    2.0430 C   0  0  0  0  0  0  0  0  0  0  0  0
   -0.9330    0.2530    1.1920 C   0  0  0  0  0  0  0  0  0  0  0  0
   -5.7500    0.9440    0.0900 C   0  0  0  0  0  0  0  0  0  0  0  0
   -6.9940    0.3210    0.2410 C   0  0  0  0  0  0  0  0  0  0  0  0
   -7.6430   -0.0520    1.8260 Cl  0  0  0  0  0  0  0  0  0  0  0  0
  1  2  1  0
  2  3  2  0
  2 30  1  0
  3  4  1  0
  4  5  2  0
  5  6  1  0
  5 29  1  0
  6  7  1  1
  6  8  1  0
  8  9  1  0
  9 10  2  0
  9 11  1  0
 11 12  2  0
 11 28  1  0
 12 13  1  0
 13 14  2  0
 14 15  1  0
 14 27  1  0
 15 16  2  3
 16 17  1  0
 17 18  2  3
 18 19  1  0
 18 26  1  0
 19 20  2  0
 20 21  1  0
 21 22  1  0
 21 25  1  0
 22 23  1  0
 23 24  1  0
 24 25  2  0
 25 26  1  0
 27 28  2  0
 29 30  2  0
 30 31  1  0
M  END
