
     RDKit          3D

 29 32  0  0  0  0  0  0  0  0999 V2000
   -5.7830    2.5940   -0.0810 C   0  0  0  0  0  0  0  0  0  0  0  0
   -4.8280    1.4600   -0.0670 C   0  0  0  0  0  0  0  0  0  0  0  0
   -5.1200    0.3450   -0.7380 N   0  0  0  0  0  0  0  0  0  0  0  0
   -4.3080   -0.7200   -0.7750 C   0  0  0  0  0  0  0  0  0  0  0  0
   -3.0910   -0.6580   -0.0690 C   0  0  0  0  0  0  0  0  0  0  0  0
   -2.7140    0.4480    0.6450 C   0  0  0  0  0  0  0  0  0  0  0  0
   -1.4030    0.6070    1.2440 C   0  0  1  0  0  0  0  0  0  0  0  0
   -1.4830    0.8800    2.7210 C   0  0  0  0  0  0  0  0  0  0  0  0
   -0.2500   -0.0580    0.7340 N   0  0  0  0  0  0  0  0  0  0  0  0
    0.8820    0.7290    1.3330 C   0  0  0  0  0  0  0  0  0  0  0  0
    2.1990    0.1160    0.9360 C   0  0  0  0  0  0  0  0  0  0  0  0
    2.3300    0.4070   -0.4970 N   0  0  0  0  0  0  0  0  0  0  0  0
    3.5640    0.1990   -1.1280 C   0  0  0  0  0  0  0  0  0  0  0  0
    3.5990    0.4300   -2.3900 O   0  0  0  0  0  0  0  0  0  0  0  0
    4.7820   -0.2440   -0.5280 C   0  0  0  0  0  0  0  0  0  0  0  0
    5.2240   -1.5090   -0.3240 C   0  0  0  0  0  0  0  0  0  0  0  0
    4.4970   -2.7670   -0.6270 C   0  0  0  0  0  0  0  0  0  0  0  0
    6.4410   -1.4270    0.2280 N   0  0  0  0  0  0  0  0  0  0  0  0
    6.7690   -0.1860    0.3740 O   0  0  0  0  0  0  0  0  0  0  0  0
    5.8080    0.5950   -0.0610 C   0  0  0  0  0  0  0  0  0  0  0  0
    5.8830    2.0500   -0.0280 C   0  0  0  0  0  0  0  0  0  0  0  0
    1.1330    0.9270   -1.1080 C   0  0  0  0  0  0  0  0  0  0  0  0
   -0.1350    0.2450   -0.7110 C   0  0  0  0  0  0  0  0  0  0  0  0
   -3.6450    1.5100    0.6150 C   0  0  0  0  0  0  0  0  0  0  0  0
   -3.2180    2.9700    1.4690 Cl  0  0  0  0  0  0  0  0  0  0  0  0
   -2.3530   -1.9360   -0.0350 C   0  0  0  0  0  0  0  0  0  0  0  0
   -2.7660   -3.0470   -0.5950 C   0  0  0  0  0  0  0  0  0  0  0  0
   -4.0370   -3.1610   -1.3500 C   0  0  0  0  0  0  0  0  0  0  0  0
   -4.6490   -1.8790   -1.5110 N   0  0  0  0  0  0  0  0  0  0  0  0
  1  2  1  0
  2  3  2  0
  2 24  1  0
  3  4  1  0
  4  5  2  0
  4 29  1  0
  5  6  1  0
  5 26  1  0
  6  7  1  0
  6 24  2  0
  7  8  1  1
  7  9  1  0
  9 10  1  0
  9 23  1  0
 10 11  1  0
 11 12  1  0
 12 13  1  0
 12 22  1  0
 13 14  2  0
 13 15  1  0
 15 16  1  0
 15 20  2  0
 16 17  1  0
 16 18  2  0
 18 19  1  0
 19 20  1  0
 20 21  1  0
 22 23  1  0
 24 25  1  0
 26 27  2  0
 27 28  1  0
 28 29  1  0
M  END
