
     RDKit          3D

 31 34  0  0  0  0  0  0  0  0999 V2000
   -4.3380   -4.6150   -0.0110 C   0  0  0  0  0  0  0  0  0  0  0  0
   -3.3570   -3.5080    0.0860 C   0  0  0  0  0  0  0  0  0  0  0  0
   -3.5120   -2.2390   -0.2100 C   0  0  0  0  0  0  0  0  0  0  0  0
   -4.8670   -1.7710   -0.7330 C   0  0  0  0  0  0  0  0  0  0  0  0
   -2.4260   -1.3920   -0.0230 N   0  0  0  0  0  0  0  0  0  0  0  0
   -1.2480   -2.0110    0.4800 C   0  0  0  0  0  0  0  0  0  0  0  0
   -0.1460   -1.4110    0.7240 N   0  0  0  0  0  0  0  0  0  0  0  0
    0.0030   -0.0290    0.5090 N   0  0  0  0  0  0  0  0  0  0  0  0
    1.2290    0.6540    0.8030 C   0  0  0  0  0  0  0  0  0  0  0  0
    2.3800    0.0050    0.1830 N   0  0  0  0  0  0  0  0  0  0  0  0
    2.8740    0.3070   -1.1100 C   0  0  0  0  0  0  0  0  0  0  0  0
    2.2410    1.0880   -1.8570 O   0  0  0  0  0  0  0  0  0  0  0  0
    4.1600   -0.2970   -1.6140 C   0  0  0  0  0  0  0  0  0  0  0  0
    5.0920   -0.4710   -0.4330 C   0  0  0  0  0  0  0  0  0  0  0  0
    4.4670   -1.4360    0.5410 C   0  0  2  0  0  0  0  0  0  0  0  0
    5.3820   -1.4560    1.7710 C   0  0  0  0  0  0  0  0  0  0  0  0
    4.5250   -2.8200   -0.0500 C   0  0  0  0  0  0  0  0  0  0  0  0
    3.0980   -1.0260    0.9000 C   0  0  0  0  0  0  0  0  0  0  0  0
    2.4850   -1.5650    1.8650 O   0  0  0  0  0  0  0  0  0  0  0  0
   -1.1260    0.6620    0.0080 C   0  0  0  0  0  0  0  0  0  0  0  0
   -1.0700    2.1210   -0.1660 C   0  0  0  0  0  0  0  0  0  0  0  0
   -1.9810    2.9430    0.5110 C   0  0  0  0  0  0  0  0  0  0  0  0
   -2.0180    4.3040    0.3790 C   0  0  0  0  0  0  0  0  0  0  0  0
   -3.0060    5.1270    1.1210 C   0  0  0  0  0  0  0  0  0  0  0  0
   -1.0950    4.8710   -0.4730 C   0  0  0  0  0  0  0  0  0  0  0  0
   -0.1970    4.0750   -1.1410 C   0  0  0  0  0  0  0  0  0  0  0  0
    0.9730    4.8450   -2.2270 Cl  0  0  0  0  0  0  0  0  0  0  0  0
   -0.2110    2.7510   -0.9700 N   0  0  0  0  0  0  0  0  0  0  0  0
   -2.2790    0.0410   -0.2510 C   0  0  0  0  0  0  0  0  0  0  0  0
   -3.3790    0.8510   -0.8250 C   0  0  0  0  0  0  0  0  0  0  0  0
   -1.6920   -3.7280    0.6620 S   0  0  0  0  0  0  0  0  0  0  0  0
  1  2  1  0
  2  3  2  0
  2 31  1  0
  3  4  1  0
  3  5  1  0
  5  6  1  0
  5 29  1  0
  6  7  2  0
  6 31  1  0
  7  8  1  0
  8  9  1  0
  8 20  1  0
  9 10  1  0
 10 11  1  0
 10 18  1  0
 11 12  2  0
 11 13  1  0
 13 14  1  0
 14 15  1  0
 15 16  1  1
 15 17  1  0
 15 18  1  0
 18 19  2  0
 20 21  1  0
 20 29  2  0
 21 22  2  0
 21 28  1  0
 22 23  1  0
 23 24  1  0
 23 25  2  0
 25 26  1  0
 26 27  1  0
 26 28  2  0
 29 30  1  0
M  END
