
     RDKit          3D

 15 15  0  0  0  0  0  0  0  0999 V2000
    3.4970   -0.7100   -2.6660 C   0  0  0  0  0  0  0  0  0  0  0  0
    2.1210   -0.5690   -2.5580 N   0  0  0  0  0  0  0  0  0  0  0  0
    1.2670   -0.3070   -1.6670 C   0  0  0  0  0  0  0  0  0  0  0  0
    1.5680   -0.0470   -0.3090 C   0  0  0  0  0  0  0  0  0  0  0  0
    3.0530   -0.1150   -0.0410 C   0  0  0  0  0  0  0  0  0  0  0  0
    4.2020   -0.1520    0.1790 N   0  0  0  0  0  0  0  0  0  0  0  0
    0.8950    0.2280    0.7290 C   0  0  0  0  0  0  0  0  0  0  0  0
   -0.4500    0.4430    1.2170 C   0  0  0  0  0  0  0  0  0  0  0  0
   -0.6060    0.7330    2.5250 C   0  0  0  0  0  0  0  0  0  0  0  0
   -1.8760    0.9750    3.1700 C   0  0  0  0  0  0  0  0  0  0  0  0
   -2.9680    0.8840    2.3350 O   0  0  0  0  0  0  0  0  0  0  0  0
   -2.8390    0.5940    1.0180 C   0  0  0  0  0  0  0  0  0  0  0  0
   -1.6590    0.3690    0.4090 C   0  0  0  0  0  0  0  0  0  0  0  0
   -1.6450    0.0840   -0.9230 O   0  0  0  0  0  0  0  0  0  0  0  0
   -2.5700   -0.7840   -1.5520 C   0  0  0  0  0  0  0  0  0  0  0  0
  1  2  1  0
  2  3  2  3
  3  4  1  0
  4  5  1  0
  4  7  2  3
  5  6  3  0
  7  8  1  0
  8  9  2  0
  8 13  1  0
  9 10  1  0
 10 11  1  0
 11 12  1  0
 12 13  2  0
 13 14  1  0
 14 15  1  0
M  END
