
     RDKit          3D

 15 16  0  0  0  0  0  0  0  0999 V2000
    2.5030    1.8600    0.0430 C   0  0  0  0  0  0  0  0  0  0  0  0
    2.5760    1.2040   -1.0740 C   0  0  0  0  0  0  0  0  0  0  0  0
    2.1700   -0.1380   -1.3330 C   0  0  0  0  0  0  0  0  0  0  0  0
    2.3720   -0.6060   -2.6070 C   0  0  0  0  0  0  0  0  0  0  0  0
    1.5700   -1.1080   -0.4130 C   0  0  0  0  0  0  0  0  0  0  0  0
    0.3010   -0.8320    0.1350 N   0  0  0  0  0  0  0  0  0  0  0  0
   -0.1130   -0.2820    1.4260 C   0  0  0  0  0  0  0  0  0  0  0  0
    0.6580   -0.0120    2.3710 O   0  0  0  0  0  0  0  0  0  0  0  0
   -1.4940   -0.1430    1.3500 N   0  0  0  0  0  0  0  0  0  0  0  0
   -2.5730    0.7530    1.4760 C   0  0  0  0  0  0  0  0  0  0  0  0
   -2.7040    0.8840   -0.1120 C   0  0  0  0  0  0  0  0  0  0  0  0
   -3.7020    1.3950   -0.4730 O   0  0  0  0  0  0  0  0  0  0  0  0
   -1.5770    0.3550   -0.9030 C   0  0  0  0  0  0  0  0  0  0  0  0
   -1.0260   -1.0050   -0.5610 C   0  0  2  0  0  0  0  0  0  0  0  0
   -1.8440   -1.4450    0.6920 C   0  0  0  0  0  0  0  0  0  0  0  0
  1  2  2  0
  2  3  1  0
  3  4  2  0
  3  5  1  0
  5  6  1  0
  6  7  1  0
  6 14  1  0
  7  8  2  0
  7  9  1  0
  9 10  1  0
  9 15  1  0
 10 11  1  0
 11 12  2  0
 11 13  1  0
 14 13  1  1
 14 15  1  0
M  END
