
     RDKit          3D

 15 16  0  0  0  0  0  0  0  0999 V2000
   -4.5120   -0.3260    0.1350 C   0  0  0  0  0  0  0  0  0  0  0  0
   -3.2100   -0.0220   -0.5410 C   0  0  2  0  0  0  0  0  0  0  0  0
   -2.7090   -1.1600   -1.3890 C   0  0  0  0  0  0  0  0  0  0  0  0
   -1.2700   -0.9980   -1.3090 N   0  0  0  0  0  0  0  0  0  0  0  0
   -0.9440   -0.2480   -0.3000 C   0  0  0  0  0  0  0  0  0  0  0  0
    0.4230    0.1610    0.1290 C   0  0  0  0  0  0  0  0  0  0  0  0
    1.4090   -0.3710   -0.7120 O   0  0  0  0  0  0  0  0  0  0  0  0
    2.7550   -0.0660   -0.4240 C   0  0  0  0  0  0  0  0  0  0  0  0
    3.2120    0.7070    0.5400 C   0  0  0  0  0  0  0  0  0  0  0  0
    4.6930    0.7810    0.5180 C   0  0  0  0  0  0  0  0  0  0  0  0
    5.0340   -0.0880   -0.6320 C   0  0  0  0  0  0  0  0  0  0  0  0
    3.9190   -0.5580   -1.1510 C   0  0  0  0  0  0  0  0  0  0  0  0
   -2.1170    0.1650    0.3910 N   0  0  0  0  0  0  0  0  0  0  0  0
   -2.1810    0.6570    1.7240 C   0  0  0  0  0  0  0  0  0  0  0  0
   -1.1740    0.7820    2.4550 O   0  0  0  0  0  0  0  0  0  0  0  0
  2  1  1  1
  2  3  1  0
  2 13  1  0
  3  4  1  0
  4  5  2  0
  5  6  1  0
  5 13  1  0
  6  7  1  0
  7  8  1  0
  8  9  2  0
  8 12  1  0
  9 10  1  0
 10 11  1  0
 11 12  2  0
 13 14  1  0
 14 15  2  0
M  END
