
     RDKit          3D

 24 26  0  0  0  0  0  0  0  0999 V2000
    4.3690    2.5410   -1.9400 C   0  0  0  0  0  0  0  0  0  0  0  0
    4.1180    1.8420   -0.8530 C   0  0  0  0  0  0  0  0  0  0  0  0
    4.8560    1.7990    0.4320 C   0  0  0  0  0  0  0  0  0  0  0  0
    3.8330    1.3090    1.3110 O   0  0  0  0  0  0  0  0  0  0  0  0
    2.8780    0.6390    0.5630 C   0  0  0  0  0  0  0  0  0  0  0  0
    1.8440   -0.2740    1.1030 C   0  0  0  0  0  0  0  0  0  0  0  0
    1.0010   -0.8060    0.0170 N   0  0  0  0  0  0  0  0  0  0  0  0
   -0.0420   -1.6900    0.3000 C   0  0  0  0  0  0  0  0  0  0  0  0
   -1.2840   -1.3500    0.3670 C   0  0  0  0  0  0  0  0  0  0  0  0
   -1.8710   -0.0420    0.1760 C   0  0  0  0  0  0  0  0  0  0  0  0
   -3.1540    0.0180    0.3010 O   0  0  0  0  0  0  0  0  0  0  0  0
   -1.2500    1.1740   -0.1270 N   0  0  0  0  0  0  0  0  0  0  0  0
   -1.8740    2.4450   -0.3130 C   0  0  0  0  0  0  0  0  0  0  0  0
   -1.0190    3.5690   -0.3880 C   0  0  0  0  0  0  0  0  0  0  0  0
   -1.5480    4.8230   -0.5790 C   0  0  0  0  0  0  0  0  0  0  0  0
   -2.9040    5.0380   -0.7030 C   0  0  0  0  0  0  0  0  0  0  0  0
   -3.7530    3.9490   -0.6320 C   0  0  0  0  0  0  0  0  0  0  0  0
   -3.2030    2.6750   -0.4380 C   0  0  0  0  0  0  0  0  0  0  0  0
   -2.2620   -2.4860    0.6930 C   0  0  0  0  0  0  0  0  0  0  0  0
   -2.0510   -3.6370   -0.2630 C   0  0  0  0  0  0  0  0  0  0  0  0
   -0.5800   -3.9360   -0.4560 C   0  0  2  0  0  0  0  0  0  0  0  0
   -0.3820   -5.3570   -0.2200 N   0  0  0  0  0  0  0  0  0  0  0  0
    0.2540   -3.1540    0.5540 C   0  0  0  0  0  0  0  0  0  0  0  0
    3.0170    0.9250   -0.6760 N   0  0  0  0  0  0  0  0  0  0  0  0
  1  2  2  0
  2  3  1  0
  2 24  1  0
  3  4  1  0
  4  5  1  0
  5  6  1  0
  5 24  2  0
  6  7  1  0
  7  8  1  0
  8  9  2  0
  8 23  1  0
  9 10  1  0
  9 19  1  0
 10 11  2  0
 10 12  1  0
 12 13  1  0
 13 14  2  0
 13 18  1  0
 14 15  1  0
 15 16  2  0
 16 17  1  0
 17 18  2  0
 19 20  1  0
 20 21  1  0
 21 22  1  1
 21 23  1  0
M  CHG  1  22   1
M  END
