
     RDKit          3D

 23 25  0  0  0  0  0  0  0  0999 V2000
   -4.8180    0.0340   -1.0660 C   0  0  0  0  0  0  0  0  0  0  0  0
   -3.9460    1.0580   -0.3290 C   0  0  1  0  0  0  0  0  0  0  0  0
   -3.8950    0.6710    1.0900 C   0  0  0  0  0  0  0  0  0  0  0  0
   -3.4760   -0.7100    1.4180 C   0  0  0  0  0  0  0  0  0  0  0  0
   -2.1890   -1.1830    0.8360 C   0  0  0  0  0  0  0  0  0  0  0  0
   -1.0230   -0.3000    1.1090 C   0  0  0  0  0  0  0  0  0  0  0  0
   -0.6270    0.5550    0.0600 N   0  0  0  0  0  0  0  0  0  0  0  0
   -0.0060   -0.0400   -1.0600 C   0  0  0  0  0  0  0  0  0  0  0  0
    1.2450   -0.7400   -0.6140 C   0  0  0  0  0  0  0  0  0  0  0  0
    2.4310   -0.1080   -0.5840 N   0  0  0  0  0  0  0  0  0  0  0  0
    3.5830   -0.6980   -0.1900 C   0  0  0  0  0  0  0  0  0  0  0  0
    4.8460    0.0240   -0.1720 C   0  0  0  0  0  0  0  0  0  0  0  0
    5.9840   -0.6130    0.2340 C   0  0  0  0  0  0  0  0  0  0  0  0
    7.1730    0.0500    0.2560 N   0  0  0  0  0  0  0  0  0  0  0  0
    7.2530    1.3300   -0.1160 C   0  0  0  0  0  0  0  0  0  0  0  0
    6.1190    1.9780   -0.5240 C   0  0  0  0  0  0  0  0  0  0  0  0
    4.9310    1.3090   -0.5450 N   0  0  0  0  0  0  0  0  0  0  0  0
    3.4900   -1.9850    0.1820 N   0  0  0  0  0  0  0  0  0  0  0  0
    2.3140   -2.6270    0.1560 C   0  0  0  0  0  0  0  0  0  0  0  0
    2.3080   -3.8430    0.5230 O   0  0  0  0  0  0  0  0  0  0  0  0
    1.2010   -2.0200   -0.2360 N   0  0  0  0  0  0  0  0  0  0  0  0
   -1.5000    1.6550   -0.2210 C   0  0  0  0  0  0  0  0  0  0  0  0
   -2.6820    1.2990   -1.0400 C   0  0  0  0  0  0  0  0  0  0  0  0
  2  1  1  6
  2  3  1  0
  2 23  1  0
  3  4  1  0
  4  5  1  0
  5  6  1  0
  6  7  1  0
  7  8  1  0
  7 22  1  0
  8  9  1  0
  9 10  2  0
  9 21  1  0
 10 11  1  0
 11 12  1  0
 11 18  2  0
 12 13  2  0
 12 17  1  0
 13 14  1  0
 14 15  2  0
 15 16  1  0
 16 17  2  0
 18 19  1  0
 19 20  2  0
 19 21  1  0
 22 23  1  0
M  END
