
     RDKit          3D

 23 25  0  0  0  0  0  0  0  0999 V2000
   -6.1590    1.2880   -0.4310 C   0  0  0  0  0  0  0  0  0  0  0  0
   -5.4640    0.5000    0.2880 N   0  0  0  0  0  0  0  0  0  0  0  0
   -4.3460   -0.2310   -0.1750 C   0  0  0  0  0  0  0  0  0  0  0  0
   -4.5240   -1.4220   -0.6920 C   0  0  0  0  0  0  0  0  0  0  0  0
   -5.8960   -2.0020   -0.7910 C   0  0  0  0  0  0  0  0  0  0  0  0
   -3.0380    0.3290   -0.0700 N   0  0  0  0  0  0  0  0  0  0  0  0
   -2.9530    1.7950   -0.1110 C   0  0  0  0  0  0  0  0  0  0  0  0
   -1.6710    2.1400    0.6420 C   0  0  0  0  0  0  0  0  0  0  0  0
   -1.6250    1.2210    1.8580 C   0  0  0  0  0  0  0  0  0  0  0  0
   -1.1300   -0.1280    1.3890 C   0  0  2  0  0  0  0  0  0  0  0  0
    0.3460   -0.1310    1.2220 C   0  0  0  0  0  0  0  0  0  0  0  0
    1.1290   -1.1000    1.7790 N   0  0  0  0  0  0  0  0  0  0  0  0
    2.3920   -0.8470    1.4650 N   0  0  0  0  0  0  0  0  0  0  0  0
    2.4030    0.2760    0.7150 C   0  0  0  0  0  0  0  0  0  0  0  0
    3.6220    0.8660    0.1800 C   0  0  0  0  0  0  0  0  0  0  0  0
    4.6160    0.1010   -0.2790 C   0  0  0  0  0  0  0  0  0  0  0  0
    4.6930   -1.3720   -0.3420 C   0  0  0  0  0  0  0  0  0  0  0  0
    6.1390   -1.5910   -0.4860 N   0  0  0  0  0  0  0  0  0  0  0  0
    6.7050   -0.3670   -0.9450 C   0  0  0  0  0  0  0  0  0  0  0  0
    8.0860   -0.1700   -1.4930 C   0  0  0  0  0  0  0  0  0  0  0  0
    5.8490    0.5800   -0.8270 N   0  0  0  0  0  0  0  0  0  0  0  0
    1.1570    0.6610    0.6010 O   0  0  0  0  0  0  0  0  0  0  0  0
   -1.8260   -0.4430    0.0750 C   0  0  0  0  0  0  0  0  0  0  0  0
  1  2  2  0
  2  3  1  0
  3  4  2  3
  3  6  1  0
  4  5  1  0
  6  7  1  0
  6 23  1  0
  7  8  1  0
  8  9  1  0
  9 10  1  0
 10 11  1  6
 10 23  1  0
 11 12  2  0
 11 22  1  0
 12 13  1  0
 13 14  2  0
 14 15  1  0
 14 22  1  0
 15 16  2  3
 16 17  1  0
 16 21  1  0
 17 18  1  0
 18 19  1  0
 19 20  1  0
 19 21  2  0
M  END
