
     RDKit          3D

 22 24  0  0  0  0  0  0  0  0999 V2000
    7.2890    1.3740   -1.2220 C   0  0  0  0  0  0  0  0  0  0  0  0
    6.0360    0.7600   -0.6990 C   0  0  0  0  0  0  0  0  0  0  0  0
    4.8190    0.7240   -1.2640 N   0  0  0  0  0  0  0  0  0  0  0  0
    3.9530    0.0730   -0.4700 N   0  0  0  0  0  0  0  0  0  0  0  0
    2.6440   -0.2040   -0.6230 C   0  0  0  0  0  0  0  0  0  0  0  0
    2.1060    0.1910   -1.6550 O   0  0  0  0  0  0  0  0  0  0  0  0
    1.9330   -0.8920    0.3240 C   0  0  0  0  0  0  0  0  0  0  0  0
    0.5680   -1.2210    0.2340 N   0  0  0  0  0  0  0  0  0  0  0  0
   -0.0100   -1.9250    1.3740 C   0  0  0  0  0  0  0  0  0  0  0  0
   -0.9990   -0.9500    1.9940 C   0  0  0  0  0  0  0  0  0  0  0  0
   -1.1160    0.3190    1.1820 C   0  0  0  0  0  0  0  0  0  0  0  0
   -1.3410    0.0870   -0.2670 C   0  0  2  0  0  0  0  0  0  0  0  0
   -2.6870   -0.3720   -0.6280 C   0  0  0  0  0  0  0  0  0  0  0  0
   -3.8680    0.4480   -0.3290 C   0  0  1  0  0  0  0  0  0  0  0  0
   -3.7520    1.8130   -1.0260 C   0  0  0  0  0  0  0  0  0  0  0  0
   -5.0350   -0.2340   -1.0970 C   0  0  0  0  0  0  0  0  0  0  0  0
   -4.3160    0.6310    1.0570 C   0  0  0  0  0  0  0  0  0  0  0  0
   -0.3530   -0.9680   -0.8170 C   0  0  0  0  0  0  0  0  0  0  0  0
    2.6810   -1.2590    1.4130 N   0  0  0  0  0  0  0  0  0  0  0  0
    3.9480   -0.9870    1.5540 N   0  0  0  0  0  0  0  0  0  0  0  0
    4.6270   -0.3120    0.6160 C   0  0  0  0  0  0  0  0  0  0  0  0
    5.9010    0.1100    0.4720 N   0  0  0  0  0  0  0  0  0  0  0  0
  1  2  1  0
  2  3  2  0
  2 22  1  0
  3  4  1  0
  4  5  1  0
  4 21  1  0
  5  6  2  0
  5  7  1  0
  7  8  1  0
  7 19  2  0
  8  9  1  0
  8 18  1  0
  9 10  1  0
 10 11  1  0
 11 12  1  0
 12 13  1  1
 12 18  1  0
 13 14  1  0
 14 15  1  6
 14 16  1  0
 14 17  1  0
 19 20  1  0
 20 21  2  0
 21 22  1  0
M  END
