
     RDKit          3D

 30 32  0  0  0  0  0  0  0  0999 V2000
   -3.5260    4.2400   -1.6960 C   0  0  0  0  0  0  0  0  0  0  0  0
   -2.1940    3.6020   -1.4720 C   0  0  0  0  0  0  0  0  0  0  0  0
   -2.4100    2.5320   -0.3310 C   0  0  0  0  0  0  0  0  0  0  0  0
   -1.1270    1.8920   -0.0880 C   0  0  0  0  0  0  0  0  0  0  0  0
   -0.8900    0.8250    0.9240 C   0  0  2  0  0  0  0  0  0  0  0  0
   -1.2490    1.3360    2.3190 C   0  0  0  0  0  0  0  0  0  0  0  0
   -2.5320    1.7860    2.7540 C   0  0  0  0  0  0  0  0  0  0  0  0
    0.6180    0.6830    1.1210 C   0  0  1  0  0  0  0  0  0  0  0  0
    1.2730    1.9260    1.6480 C   0  0  0  0  0  0  0  0  0  0  0  0
    0.7450   -0.2630    2.1770 O   0  0  0  0  0  0  0  0  0  0  0  0
    1.3650    0.1330   -0.0120 C   0  0  0  0  0  0  0  0  0  0  0  0
    2.8370    0.0150    0.1580 C   0  0  1  0  0  0  0  0  0  0  0  0
    3.2850   -0.8590    1.3080 C   0  0  0  0  0  0  0  0  0  0  0  0
    4.8030   -1.0560    1.1430 C   0  0  0  0  0  0  0  0  0  0  0  0
    4.9120   -2.2660    0.2030 C   0  0  0  0  0  0  0  0  0  0  0  0
    4.2830   -1.7770   -1.0750 C   0  0  0  0  0  0  0  0  0  0  0  0
    4.5120   -2.2260   -2.2980 C   0  0  0  0  0  0  0  0  0  0  0  0
    3.6860   -1.4670   -3.2450 C   0  0  0  0  0  0  0  0  0  0  0  0
    2.9610   -0.5240   -2.3560 C   0  0  0  0  0  0  0  0  0  0  0  0
    3.3170   -0.7150   -1.0960 C   0  0  0  0  0  0  0  0  0  0  0  0
   -1.5430   -0.5040    0.6430 C   0  0  1  0  0  0  0  0  0  0  0  0
   -1.0420   -1.3180    1.7030 O   0  0  0  0  0  0  0  0  0  0  0  0
   -3.0370   -0.5280    1.0050 C   0  0  0  0  0  0  0  0  0  0  0  0
   -3.5950   -1.8670    0.6730 C   0  0  0  0  0  0  0  0  0  0  0  0
   -3.5040   -2.2860   -0.5820 C   0  0  0  0  0  0  0  0  0  0  0  0
   -2.8040   -1.2260   -1.4130 C   0  0  0  0  0  0  0  0  0  0  0  0
   -1.4470   -1.1320   -0.6440 C   0  0  2  0  0  0  0  0  0  0  0  0
   -1.0850   -2.5810   -0.5650 C   0  0  0  0  0  0  0  0  0  0  0  0
   -0.9080   -3.4780   -1.7170 C   0  0  0  0  0  0  0  0  0  0  0  0
   -0.9260   -3.0570    0.5390 O   0  0  0  0  0  0  0  0  0  0  0  0
  1  2  1  0
  2  3  1  0
  3  4  1  0
  5  4  1  6
  5  6  1  0
  5  8  1  0
  5 21  1  0
  6  7  1  0
  8  9  1  1
  8 10  1  0
  8 11  1  0
 12 11  1  6
 12 13  1  0
 12 20  1  0
 13 14  1  0
 14 15  1  0
 15 16  1  0
 16 17  2  0
 16 20  1  0
 17 18  1  0
 18 19  1  0
 19 20  2  0
 21 22  1  1
 21 23  1  0
 21 27  1  0
 23 24  1  0
 24 25  2  0
 25 26  1  0
 26 27  1  0
 27 28  1  1
 28 29  1  0
 28 30  2  0
M  END
