
     RDKit          3D

 30 32  0  0  0  0  0  0  0  0999 V2000
    5.3080   -1.7430   -3.0250 C   0  0  0  0  0  0  0  0  0  0  0  0
    4.5830   -0.9950   -1.9590 C   0  0  0  0  0  0  0  0  0  0  0  0
    3.7370    0.0450   -2.2800 C   0  0  0  0  0  0  0  0  0  0  0  0
    3.0700    0.7300   -1.2830 C   0  0  0  0  0  0  0  0  0  0  0  0
    3.2450    0.3790    0.0310 C   0  0  0  0  0  0  0  0  0  0  0  0
    2.5420    1.1450    1.1270 C   0  0  2  0  0  0  0  0  0  0  0  0
    2.0960    0.1350    2.0120 O   0  0  0  0  0  0  0  0  0  0  0  0
    1.4100    1.9730    0.6370 C   0  0  2  0  0  0  0  0  0  0  0  0
    0.8310    2.7900    1.8030 C   0  0  0  0  0  0  0  0  0  0  0  0
    1.9060    3.6930    2.3340 C   0  0  0  0  0  0  0  0  0  0  0  0
    2.3580    4.5280    1.2850 O   0  0  0  0  0  0  0  0  0  0  0  0
    0.3030    1.1180    0.0830 C   0  0  1  0  0  0  0  0  0  0  0  0
   -0.4070    0.1950    0.9810 C   0  0  0  0  0  0  0  0  0  0  0  0
   -1.9300    0.3680    0.9520 C   0  0  0  0  0  0  0  0  0  0  0  0
   -2.5600    0.4810   -0.3470 C   0  0  2  0  0  0  0  0  0  0  0  0
   -3.4520   -0.6130   -0.8200 C   0  0  1  0  0  0  0  0  0  0  0  0
   -3.9170   -0.1760   -2.2180 C   0  0  0  0  0  0  0  0  0  0  0  0
   -2.7580   -1.9400   -1.0110 C   0  0  0  0  0  0  0  0  0  0  0  0
   -2.9600   -2.7420    0.2480 C   0  0  0  0  0  0  0  0  0  0  0  0
   -4.2080   -2.1880    0.8530 C   0  0  0  0  0  0  0  0  0  0  0  0
   -4.5950   -0.9650    0.0610 C   0  0  2  0  0  0  0  0  0  0  0  0
   -5.8140   -1.3780   -0.7770 C   0  0  0  0  0  0  0  0  0  0  0  0
   -5.0840    0.1730    0.9240 C   0  0  0  0  0  0  0  0  0  0  0  0
   -1.5390    0.7770   -1.4170 C   0  0  0  0  0  0  0  0  0  0  0  0
   -0.6590    1.9010   -0.8260 C   0  0  1  0  0  0  0  0  0  0  0  0
   -1.4920    2.7350   -0.1230 O   0  0  0  0  0  0  0  0  0  0  0  0
    4.1010   -0.6660    0.3360 C   0  0  0  0  0  0  0  0  0  0  0  0
    4.3890   -1.0720    1.7270 C   0  0  0  0  0  0  0  0  0  0  0  0
    4.7860   -1.3740   -0.6570 C   0  0  0  0  0  0  0  0  0  0  0  0
    5.6880   -2.4850   -0.2810 C   0  0  0  0  0  0  0  0  0  0  0  0
  1  2  1  0
  2  3  2  0
  2 29  1  0
  3  4  1  0
  4  5  2  0
  5  6  1  0
  5 27  1  0
  6  7  1  1
  6  8  1  0
  8  9  1  1
  8 12  1  0
  9 10  1  0
 10 11  1  0
 12 13  1  1
 12 25  1  0
 13 14  1  0
 15 14  1  1
 15 16  1  0
 15 24  1  0
 16 17  1  6
 16 18  1  0
 16 21  1  0
 18 19  1  0
 19 20  1  0
 20 21  1  0
 21 22  1  6
 21 23  1  0
 24 25  1  0
 25 26  1  1
 27 28  1  0
 27 29  2  0
 29 30  1  0
M  END
