
     RDKit          3D

 30 32  0  0  0  0  0  0  0  0999 V2000
   -0.8450   -2.7470    2.7880 C   0  0  0  0  0  0  0  0  0  0  0  0
   -0.2870   -3.9250    2.0880 C   0  0  0  0  0  0  0  0  0  0  0  0
    0.6700   -3.7220    0.9460 C   0  0  0  0  0  0  0  0  0  0  0  0
    0.1220   -3.0060   -0.2170 C   0  0  0  0  0  0  0  0  0  0  0  0
   -0.2940   -1.6350   -0.1240 C   0  0  2  0  0  0  0  0  0  0  0  0
   -0.9640   -1.1080   -1.4410 C   0  0  1  0  0  0  0  0  0  0  0  0
   -2.0220   -1.9620   -1.9580 C   0  0  1  0  0  0  0  0  0  0  0  0
   -3.2380   -2.2910   -1.2140 C   0  0  0  0  0  0  0  0  0  0  0  0
   -2.3980   -1.7420   -3.4260 C   0  0  0  0  0  0  0  0  0  0  0  0
   -1.1730    0.3380   -1.1230 C   0  0  2  0  0  0  0  0  0  0  0  0
   -2.4970    0.7640   -0.7060 C   0  0  0  0  0  0  0  0  0  0  0  0
   -3.3230    1.5780   -1.6920 C   0  0  0  0  0  0  0  0  0  0  0  0
   -2.6420    2.8630   -2.0370 C   0  0  0  0  0  0  0  0  0  0  0  0
   -1.2380    2.5160   -2.4540 C   0  0  0  0  0  0  0  0  0  0  0  0
   -0.9210    1.0760   -2.4270 C   0  0  0  0  0  0  0  0  0  0  0  0
   -0.0330    0.6600   -0.1380 C   0  0  1  0  0  0  0  0  0  0  0  0
    0.7520    1.6250   -0.8590 O   0  0  0  0  0  0  0  0  0  0  0  0
   -0.3110    1.3520    1.1160 C   0  0  2  0  0  0  0  0  0  0  0  0
   -1.2320    0.8830    2.1420 C   0  0  0  0  0  0  0  0  0  0  0  0
   -0.1500    2.8500    1.1110 C   0  0  0  0  0  0  0  0  0  0  0  0
   -0.4260    3.5600    2.4100 C   0  0  0  0  0  0  0  0  0  0  0  0
    0.3650    3.1140    3.4520 O   0  0  0  0  0  0  0  0  0  0  0  0
    0.8210   -0.5560   -0.1540 C   0  0  2  0  0  0  0  0  0  0  0  0
    1.2990   -0.6340   -1.4960 O   0  0  0  0  0  0  0  0  0  0  0  0
    1.9630   -0.7960    0.6800 C   0  0  0  0  0  0  0  0  0  0  0  0
    3.1670    0.0020    0.8320 C   0  0  1  0  0  0  0  0  0  0  0  0
    3.9830    0.2330   -0.4520 C   0  0  0  0  0  0  0  0  0  0  0  0
    5.0110    1.2680   -0.0830 C   0  0  0  0  0  0  0  0  0  0  0  0
    4.9140    1.3670    1.4440 C   0  0  0  0  0  0  0  0  0  0  0  0
    3.3800    1.2020    1.6020 C   0  0  0  0  0  0  0  0  0  0  0  0
  1  2  1  0
  2  3  1  0
  3  4  1  0
  5  4  1  6
  5  6  1  0
  5 23  1  0
  6  7  1  1
  6 10  1  0
  7  8  1  1
  7  9  1  0
 10 11  1  1
 10 15  1  0
 10 16  1  0
 11 12  1  0
 12 13  1  0
 13 14  1  0
 14 15  1  0
 16 17  1  6
 16 18  1  0
 16 23  1  0
 18 19  1  6
 18 20  1  0
 20 21  1  0
 21 22  1  0
 23 24  1  6
 23 25  1  0
 26 25  1  6
 26 27  1  0
 26 30  1  0
 27 28  1  0
 28 29  1  0
 29 30  1  0
M  END
