
     RDKit          3D

 30 31  0  0  0  0  0  0  0  0999 V2000
   -2.7990    5.1580    0.4970 C   0  0  0  0  0  0  0  0  0  0  0  0
   -1.6720    4.0240    1.2490 S   0  0  0  0  0  0  0  0  0  0  0  0
   -0.3010    3.4550    0.3500 C   0  0  0  0  0  0  0  0  0  0  0  0
    0.3950    4.1150   -0.5670 C   0  0  0  0  0  0  0  0  0  0  0  0
    0.2930    5.3950   -1.0900 C   0  0  0  0  0  0  0  0  0  0  0  0
   -0.6000    6.4110   -0.7600 N   0  0  0  0  0  0  0  0  0  0  0  0
    1.1350    5.7370   -2.0260 O   0  0  0  0  0  0  0  0  0  0  0  0
    0.2430    2.1110    0.7200 C   0  0  0  0  0  0  0  0  0  0  0  0
   -0.1460    1.2180    1.5350 C   0  0  0  0  0  0  0  0  0  0  0  0
   -1.3260    1.2620    2.4050 C   0  0  0  0  0  0  0  0  0  0  0  0
   -2.2530    0.1730    2.1030 N   0  0  0  0  0  0  0  0  0  0  0  0
   -2.8350    0.0400    0.8220 C   0  0  0  0  0  0  0  0  0  0  0  0
   -2.5770    0.8610   -0.1230 O   0  0  0  0  0  0  0  0  0  0  0  0
   -3.7580   -1.0710    0.5720 C   0  0  2  0  0  0  0  0  0  0  0  0
   -3.1350   -2.4270    0.7750 C   0  0  0  0  0  0  0  0  0  0  0  0
   -4.1820   -3.4780    0.5010 C   0  0  0  0  0  0  0  0  0  0  0  0
   -5.3880   -2.9480    0.1060 O   0  0  0  0  0  0  0  0  0  0  0  0
   -5.3210   -2.1080   -0.9790 C   0  0  0  0  0  0  0  0  0  0  0  0
   -4.2920   -1.0210   -0.8450 C   0  0  0  0  0  0  0  0  0  0  0  0
    0.6680   -0.0450    1.6520 C   0  0  0  0  0  0  0  0  0  0  0  0
    0.2920   -0.9330    2.4540 O   0  0  0  0  0  0  0  0  0  0  0  0
    1.8300   -0.2730    0.9030 N   0  0  0  0  0  0  0  0  0  0  0  0
    2.5240   -1.5570    1.1240 C   0  0  0  0  0  0  0  0  0  0  0  0
    3.7330   -1.6470    0.2720 C   0  0  0  0  0  0  0  0  0  0  0  0
    4.3800   -0.5700   -0.2830 C   0  0  0  0  0  0  0  0  0  0  0  0
    5.4500   -1.1070   -0.9990 C   0  0  0  0  0  0  0  0  0  0  0  0
    5.4040   -2.4700   -0.8470 C   0  0  0  0  0  0  0  0  0  0  0  0
    6.3910   -3.3940   -1.4700 C   0  0  0  0  0  0  0  0  0  0  0  0
    6.0970   -4.7760   -1.1400 N   0  0  0  0  0  0  0  0  0  0  0  0
    4.3800   -2.7370   -0.0940 O   0  0  0  0  0  0  0  0  0  0  0  0
  1  2  1  0
  2  3  1  0
  3  4  2  3
  3  8  1  0
  4  5  1  0
  5  6  1  0
  5  7  2  0
  8  9  2  3
  9 10  1  0
  9 20  1  0
 10 11  1  0
 11 12  1  0
 12 13  2  0
 14 12  1  6
 14 15  1  0
 14 19  1  0
 15 16  1  0
 16 17  1  0
 17 18  1  0
 18 19  1  0
 20 21  2  0
 20 22  1  0
 22 23  1  0
 23 24  1  0
 24 25  2  0
 24 30  1  0
 25 26  1  0
 26 27  2  0
 27 28  1  0
 27 30  1  0
 28 29  1  0
M  CHG  1  29   1
M  END
