
     RDKit          3D

 30 31  0  0  0  0  0  0  0  0999 V2000
   -5.8380   -0.6330   -2.3300 C   0  0  0  0  0  0  0  0  0  0  0  0
   -5.4160    0.3060   -1.2490 C   0  0  0  0  0  0  0  0  0  0  0  0
   -4.6110   -0.4640   -0.2670 N   0  0  0  0  0  0  0  0  0  0  0  0
   -5.3560   -1.3880    0.5100 C   0  0  0  0  0  0  0  0  0  0  0  0
   -4.6920   -2.2170    1.5450 C   0  0  0  0  0  0  0  0  0  0  0  0
   -5.7130   -3.1150    2.2260 C   0  0  0  0  0  0  0  0  0  0  0  0
   -5.3270   -3.8730    3.1210 O   0  0  0  0  0  0  0  0  0  0  0  0
   -7.0120   -3.0450    1.8210 O   0  0  0  0  0  0  0  0  0  0  0  0
   -3.2180   -0.2310   -0.2330 C   0  0  0  0  0  0  0  0  0  0  0  0
   -2.3790   -1.0860    0.8930 S   0  0  0  0  0  0  0  0  0  0  0  0
   -2.5640    0.6780   -1.0990 N   0  0  0  0  0  0  0  0  0  0  0  0
   -1.2010    1.0210   -1.1830 C   0  0  0  0  0  0  0  0  0  0  0  0
   -0.1980    0.4910   -0.4130 C   0  0  0  0  0  0  0  0  0  0  0  0
    1.1530    0.8730   -0.5460 C   0  0  0  0  0  0  0  0  0  0  0  0
    2.1440    0.2600    0.3100 C   0  0  0  0  0  0  0  0  0  0  0  0
    1.7400   -0.6180    1.1630 O   0  0  0  0  0  0  0  0  0  0  0  0
    3.5290    0.4990    0.3390 N   0  0  0  0  0  0  0  0  0  0  0  0
    4.3720   -0.1950    1.2500 C   0  0  0  0  0  0  0  0  0  0  0  0
    5.3690   -0.9640    0.9170 C   0  0  0  0  0  0  0  0  0  0  0  0
    6.0370   -1.5320    2.1350 C   0  0  1  0  0  0  0  0  0  0  0  0
    7.3680   -0.7950    2.2690 C   0  0  0  0  0  0  0  0  0  0  0  0
    8.1770   -1.1590    1.1950 O   0  0  0  0  0  0  0  0  0  0  0  0
    5.1430   -1.2050    3.2130 N   0  0  0  0  0  0  0  0  0  0  0  0
    4.2610   -0.1650    2.7120 C   0  0  0  0  0  0  0  0  0  0  0  0
    1.4380    1.8110   -1.4890 C   0  0  0  0  0  0  0  0  0  0  0  0
    2.7190    2.2450   -1.6910 O   0  0  0  0  0  0  0  0  0  0  0  0
    3.1100    3.2060   -2.6380 C   0  0  0  0  0  0  0  0  0  0  0  0
    0.4180    2.3620   -2.2840 C   0  0  0  0  0  0  0  0  0  0  0  0
   -0.8870    1.9940   -2.1570 C   0  0  0  0  0  0  0  0  0  0  0  0
   -1.9630    2.5970   -3.0180 C   0  0  0  0  0  0  0  0  0  0  0  0
  1  2  1  0
  2  3  1  0
  3  4  1  0
  3  9  1  0
  4  5  1  0
  5  6  1  0
  6  7  2  0
  6  8  1  0
  9 10  2  0
  9 11  1  0
 11 12  1  0
 12 13  2  0
 12 29  1  0
 13 14  1  0
 14 15  1  0
 14 25  2  0
 15 16  2  0
 15 17  1  0
 17 18  1  0
 18 19  2  0
 18 24  1  0
 19 20  1  0
 20 21  1  1
 20 23  1  0
 21 22  1  0
 23 24  1  0
 25 26  1  0
 25 28  1  0
 26 27  1  0
 28 29  2  0
 29 30  1  0
M  CHG  1  23   1
M  END
