
     RDKit          3D

 29 32  0  0  0  0  0  0  0  0999 V2000
   -4.4570   -2.6570    0.4630 C   0  0  0  0  0  0  0  0  0  0  0  0
   -4.9570   -1.2570    0.2600 C   0  0  0  0  0  0  0  0  0  0  0  0
   -6.2560   -0.9400    0.0590 N   0  0  0  0  0  0  0  0  0  0  0  0
   -6.3910    0.3810   -0.0900 C   0  0  0  0  0  0  0  0  0  0  0  0
   -7.4480    1.2300   -0.3120 C   0  0  0  0  0  0  0  0  0  0  0  0
   -7.2350    2.5640   -0.4160 N   0  0  0  0  0  0  0  0  0  0  0  0
   -5.9970    3.0760   -0.3050 C   0  0  0  0  0  0  0  0  0  0  0  0
   -4.9810    2.2260   -0.0880 N   0  0  0  0  0  0  0  0  0  0  0  0
   -5.1220    0.8850    0.0270 C   0  0  0  0  0  0  0  0  0  0  0  0
   -4.2400   -0.1260    0.2420 N   0  0  0  0  0  0  0  0  0  0  0  0
   -2.8420    0.0520    0.4060 C   0  0  0  0  0  0  0  0  0  0  0  0
   -2.3670    1.2380    0.3470 O   0  0  0  0  0  0  0  0  0  0  0  0
   -1.8790   -1.0400    0.6420 C   0  0  0  0  0  0  0  0  0  0  0  0
   -0.4650   -0.4500    0.7530 C   0  0  0  0  0  0  0  0  0  0  0  0
   -0.0920    0.2350   -0.4370 N   0  0  0  0  0  0  0  0  0  0  0  0
    1.2450   -0.1630   -0.8680 C   0  0  1  0  0  0  0  0  0  0  0  0
    1.5940    0.6100   -2.1140 C   0  0  0  0  0  0  0  0  0  0  0  0
    2.2490    0.2000    0.1800 C   0  0  0  0  0  0  0  0  0  0  0  0
    1.8070    0.4790    1.3130 O   0  0  0  0  0  0  0  0  0  0  0  0
    3.6430    0.2420   -0.0570 N   0  0  0  0  0  0  0  0  0  0  0  0
    4.6420    0.5740    0.8830 C   0  0  0  0  0  0  0  0  0  0  0  0
    5.9790    0.3610    0.5320 C   0  0  0  0  0  0  0  0  0  0  0  0
    7.0280    0.6550    1.3580 C   0  0  0  0  0  0  0  0  0  0  0  0
    6.7700    1.1840    2.5930 C   0  0  0  0  0  0  0  0  0  0  0  0
    5.4910    1.4160    2.9980 C   0  0  0  0  0  0  0  0  0  0  0  0
    4.4300    1.1060    2.1310 C   0  0  0  0  0  0  0  0  0  0  0  0
    1.1870   -1.6130   -1.1900 C   0  0  2  0  0  0  0  0  0  0  0  0
    2.3280   -2.4110   -1.6730 C   0  0  0  0  0  0  0  0  0  0  0  0
    1.1870   -2.0420   -2.6460 C   0  0  0  0  0  0  0  0  0  0  0  0
  1  2  1  0
  2  3  2  0
  2 10  1  0
  3  4  1  0
  4  5  2  0
  4  9  1  0
  5  6  1  0
  6  7  2  0
  7  8  1  0
  8  9  2  0
  9 10  1  0
 10 11  1  0
 11 12  2  0
 11 13  1  0
 13 14  1  0
 14 15  1  0
 15 16  1  0
 16 17  1  6
 16 18  1  0
 16 27  1  0
 18 19  2  0
 18 20  1  0
 20 21  1  0
 21 22  2  0
 21 26  1  0
 22 23  1  0
 23 24  2  0
 24 25  1  0
 25 26  2  0
 27 28  1  1
 27 29  1  0
 28 29  1  0
M  CHG  1  15   1
M  END
