
     RDKit          3D

 29 32  0  0  0  0  0  0  0  0999 V2000
   -6.5240   -0.3120   -1.7230 C   0  0  0  0  0  0  0  0  0  0  0  0
   -5.6290   -0.0570   -0.5280 C   0  0  1  0  0  0  0  0  0  0  0  0
   -6.4660    0.1760    0.7320 C   0  0  0  0  0  0  0  0  0  0  0  0
   -5.5620   -0.0010    1.9070 C   0  0  0  0  0  0  0  0  0  0  0  0
   -4.1050    0.3430    1.5530 C   0  0  0  0  0  0  0  0  0  0  0  0
   -3.5830   -0.7260    0.6510 C   0  0  2  0  0  0  0  0  0  0  0  0
   -2.3750   -0.4490   -0.0460 N   0  0  0  0  0  0  0  0  0  0  0  0
   -2.0140    0.8870   -0.2990 C   0  0  0  0  0  0  0  0  0  0  0  0
   -0.9540    1.4880    0.5790 C   0  0  0  0  0  0  0  0  0  0  0  0
    0.3690    0.8050    0.5440 C   0  0  0  0  0  0  0  0  0  0  0  0
    0.9860    0.7730   -0.8410 C   0  0  0  0  0  0  0  0  0  0  0  0
    2.3010    0.0860   -0.7360 C   0  0  0  0  0  0  0  0  0  0  0  0
    2.5590   -1.2150   -0.9930 N   0  0  0  0  0  0  0  0  0  0  0  0
    3.8580   -1.4140   -0.7370 N   0  0  0  0  0  0  0  0  0  0  0  0
    4.4300   -0.2810   -0.3270 C   0  0  0  0  0  0  0  0  0  0  0  0
    3.4560    0.7080   -0.3150 C   0  0  0  0  0  0  0  0  0  0  0  0
    3.7490    2.0010    0.0570 C   0  0  0  0  0  0  0  0  0  0  0  0
    2.8590    2.9120    0.0670 O   0  0  0  0  0  0  0  0  0  0  0  0
    5.0210    2.3040    0.4200 N   0  0  0  0  0  0  0  0  0  0  0  0
    5.9730    1.3590    0.4140 C   0  0  0  0  0  0  0  0  0  0  0  0
    7.2470    1.6570    0.7730 N   0  0  0  0  0  0  0  0  0  0  0  0
    8.2210    0.7320    0.7750 C   0  0  0  0  0  0  0  0  0  0  0  0
    7.9960   -0.5460    0.4210 N   0  0  0  0  0  0  0  0  0  0  0  0
    9.0700   -1.5120    0.4360 C   0  0  0  0  0  0  0  0  0  0  0  0
    6.7360   -0.8800    0.0560 C   0  0  0  0  0  0  0  0  0  0  0  0
    6.5120   -2.0570   -0.2740 O   0  0  0  0  0  0  0  0  0  0  0  0
    5.7130    0.0580    0.0460 C   0  0  0  0  0  0  0  0  0  0  0  0
   -4.7130   -1.1980   -0.2390 C   0  0  2  0  0  0  0  0  0  0  0  0
   -4.2440   -1.9100   -1.4840 C   0  0  0  0  0  0  0  0  0  0  0  0
  2  1  1  6
  2  3  1  0
  2 28  1  0
  3  4  1  0
  4  5  1  0
  5  6  1  0
  6  7  1  6
  6 28  1  0
  7  8  1  0
  8  9  1  0
  9 10  1  0
 10 11  1  0
 11 12  1  0
 12 13  2  0
 12 16  1  0
 13 14  1  0
 14 15  1  0
 15 16  2  0
 15 27  1  0
 16 17  1  0
 17 18  2  0
 17 19  1  0
 19 20  1  0
 20 21  1  0
 20 27  2  0
 21 22  2  0
 22 23  1  0
 23 24  1  0
 23 25  1  0
 25 26  2  0
 25 27  1  0
 28 29  1  6
M  CHG  1   7   1
M  END
