
     RDKit          3D

 30 33  0  0  0  0  0  0  0  0999 V2000
   -9.2640    1.2670    1.4180 C   0  0  0  0  0  0  0  0  0  0  0  0
   -8.2660    0.8130    0.6310 C   0  0  0  0  0  0  0  0  0  0  0  0
   -6.9610    0.9940    0.8450 C   0  0  0  0  0  0  0  0  0  0  0  0
   -5.6330    1.1790    1.0620 O   0  0  0  0  0  0  0  0  0  0  0  0
   -4.6070    0.7000    0.2420 C   0  0  0  0  0  0  0  0  0  0  0  0
   -4.9350    0.0270   -0.9010 C   0  0  0  0  0  0  0  0  0  0  0  0
   -3.8920   -0.4510   -1.7130 C   0  0  0  0  0  0  0  0  0  0  0  0
   -2.5540   -0.2510   -1.3680 C   0  0  0  0  0  0  0  0  0  0  0  0
   -1.5760   -0.7500   -2.2550 N   0  0  0  0  0  0  0  0  0  0  0  0
   -0.3700   -1.3950   -1.8770 C   0  0  0  0  0  0  0  0  0  0  0  0
   -0.1240   -1.5550   -0.6570 O   0  0  0  0  0  0  0  0  0  0  0  0
    0.5460   -1.8630   -2.7920 O   0  0  0  0  0  0  0  0  0  0  0  0
    1.7240   -2.5480   -2.5430 C   0  0  0  0  0  0  0  0  0  0  0  0
    2.7320   -1.9330   -1.6900 C   0  0  0  0  0  0  0  0  0  0  0  0
    3.7290   -2.6690   -1.2760 O   0  0  0  0  0  0  0  0  0  0  0  0
    2.7710   -0.6010   -1.2410 N   0  0  0  0  0  0  0  0  0  0  0  0
    3.8380   -0.1630   -0.3900 C   0  0  0  0  0  0  0  0  0  0  0  0
    5.0930   -1.2140    0.2800 S   0  0  1  0  0  0  0  0  0  0  0  0
    5.9980    0.0310    1.1310 C   0  0  0  0  0  0  0  0  0  0  0  0
    7.0930   -0.1500    1.8640 C   0  0  0  0  0  0  0  0  0  0  0  0
    7.7030   -1.4800    2.0590 C   0  0  0  0  0  0  0  0  0  0  0  0
    6.7270   -2.9120    1.2380 Br  0  0  0  0  0  0  0  0  0  0  0  0
    5.2790    1.1740    0.8450 C   0  0  0  0  0  0  0  0  0  0  0  0
    4.1940    1.0620    0.0800 C   0  0  0  0  0  0  0  0  0  0  0  0
    3.6290    2.4400   -0.0570 C   0  0  0  0  0  0  0  0  0  0  0  0
    4.3730    3.2820    0.6050 C   0  0  0  0  0  0  0  0  0  0  0  0
    5.4370    2.4820    1.1900 C   0  0  0  0  0  0  0  0  0  0  0  0
   -2.2810    0.4290   -0.2130 C   0  0  0  0  0  0  0  0  0  0  0  0
   -3.2930    0.9110    0.6020 C   0  0  0  0  0  0  0  0  0  0  0  0
   -3.0680    1.6030    1.7730 O   0  0  0  0  0  0  0  0  0  0  0  0
  1  2  2  0
  2  3  1  0
  3  4  1  0
  4  5  1  0
  5  6  2  0
  5 29  1  0
  6  7  1  0
  7  8  2  0
  8  9  1  0
  8 28  1  0
  9 10  1  0
 10 11  2  0
 10 12  1  0
 12 13  1  0
 13 14  1  0
 14 15  2  0
 14 16  1  0
 16 17  1  0
 17 18  1  0
 17 24  2  0
 18 19  1  0
 19 20  2  0
 19 23  1  0
 20 21  1  0
 21 22  1  0
 23 24  1  0
 23 27  2  0
 24 25  1  0
 25 26  2  0
 26 27  1  0
 28 29  2  0
 29 30  1  0
 22 18  1  0
M  END
