
     RDKit          3D

 28 31  0  0  0  0  0  0  0  0999 V2000
   -0.7460    2.9640   -0.2740 C   0  0  0  0  0  0  0  0  0  0  0  0
   -0.2330    1.9980   -1.1690 O   0  0  0  0  0  0  0  0  0  0  0  0
    0.6890    1.0630   -0.6900 C   0  0  0  0  0  0  0  0  0  0  0  0
    1.1040    1.0830    0.6240 C   0  0  0  0  0  0  0  0  0  0  0  0
    2.0230    0.1910    1.1340 C   0  0  0  0  0  0  0  0  0  0  0  0
    2.5690   -0.7750    0.3190 C   0  0  0  0  0  0  0  0  0  0  0  0
    3.5410   -1.7230    0.7960 N   0  0  0  0  0  0  0  0  0  0  0  0
    4.1120   -1.5730    2.1020 C   0  0  2  0  0  0  0  0  0  0  0  0
    4.9450   -0.3120    2.1120 C   0  0  0  0  0  0  0  0  0  0  0  0
    6.2900   -0.8090    1.6120 C   0  0  0  0  0  0  0  0  0  0  0  0
    6.2750   -2.2360    1.6480 N   0  0  0  0  0  0  0  0  0  0  0  0
    5.1210   -2.6510    2.3800 C   0  0  0  0  0  0  0  0  0  0  0  0
    2.1640   -0.8080   -0.9860 C   0  0  0  0  0  0  0  0  0  0  0  0
    1.2140    0.1080   -1.5230 C   0  0  0  0  0  0  0  0  0  0  0  0
    0.7940   -0.1220   -2.8680 C   0  0  0  0  0  0  0  0  0  0  0  0
   -0.2480   -0.1710   -3.5650 C   0  0  0  0  0  0  0  0  0  0  0  0
   -1.6660   -0.0290   -3.3400 C   0  0  0  0  0  0  0  0  0  0  0  0
   -2.4330   -0.0240   -4.3990 O   0  0  0  0  0  0  0  0  0  0  0  0
   -2.3430    0.0910   -2.1410 N   0  0  0  0  0  0  0  0  0  0  0  0
   -3.7680    0.2500   -2.0430 C   0  0  0  0  0  0  0  0  0  0  0  0
   -4.6750    0.3710   -3.0410 C   0  0  0  0  0  0  0  0  0  0  0  0
   -5.9000    0.5170   -2.5000 N   0  0  0  0  0  0  0  0  0  0  0  0
   -5.7710    0.4890   -1.1740 N   0  0  0  0  0  0  0  0  0  0  0  0
   -6.8940    0.6340   -0.2560 C   0  0  0  0  0  0  0  0  0  0  0  0
   -4.5020    0.3290   -0.8230 C   0  0  0  0  0  0  0  0  0  0  0  0
   -3.8050    0.2340    0.4610 C   0  0  2  0  0  0  0  0  0  0  0  0
   -4.5570    0.1160    1.7650 C   0  0  0  0  0  0  0  0  0  0  0  0
   -3.8810    1.4050    1.4060 C   0  0  0  0  0  0  0  0  0  0  0  0
  1  2  1  0
  2  3  1  0
  3  4  2  0
  3 14  1  0
  4  5  1  0
  5  6  2  0
  6  7  1  0
  6 13  1  0
  8  7  1  6
  8  9  1  0
  8 12  1  0
  9 10  1  0
 10 11  1  0
 11 12  1  0
 13 14  2  0
 14 15  1  0
 15 16  2  3
 16 17  1  0
 17 18  2  0
 17 19  1  0
 19 20  1  0
 20 21  1  0
 20 25  2  0
 21 22  2  0
 22 23  1  0
 23 24  1  0
 23 25  1  0
 26 25  1  6
 26 27  1  0
 26 28  1  0
 27 28  1  0
M  CHG  1  11   1
M  END
