
     RDKit          3D

 30 32  0  0  0  0  0  0  0  0999 V2000
   -6.7210    2.9220    1.0350 C   0  0  0  0  0  0  0  0  0  0  0  0
   -6.0060    1.8570    1.5780 O   0  0  0  0  0  0  0  0  0  0  0  0
   -5.1250    1.0750    0.8670 C   0  0  0  0  0  0  0  0  0  0  0  0
   -4.8300    1.2100   -0.4680 C   0  0  0  0  0  0  0  0  0  0  0  0
   -3.9200    0.3580   -1.0790 C   0  0  0  0  0  0  0  0  0  0  0  0
   -3.2750   -0.6460   -0.4080 C   0  0  0  0  0  0  0  0  0  0  0  0
   -2.3200   -1.5810   -0.9870 C   0  0  0  0  0  0  0  0  0  0  0  0
   -2.4140   -2.9440   -0.6420 C   0  0  0  0  0  0  0  0  0  0  0  0
   -1.5330   -3.8590   -1.1470 C   0  0  0  0  0  0  0  0  0  0  0  0
   -0.5470   -3.4430   -1.9990 C   0  0  0  0  0  0  0  0  0  0  0  0
   -0.4580   -2.1050   -2.3340 C   0  0  0  0  0  0  0  0  0  0  0  0
   -1.3370   -1.1490   -1.8400 C   0  0  0  0  0  0  0  0  0  0  0  0
   -1.2120    0.5660   -2.2760 S   0  0  0  0  0  0  0  0  0  0  0  0
   -0.2160    1.4730   -1.1120 C   0  0  0  0  0  0  0  0  0  0  0  0
    1.2110    1.1140   -1.0860 C   0  0  0  0  0  0  0  0  0  0  0  0
    1.6920    0.2380   -1.8250 O   0  0  0  0  0  0  0  0  0  0  0  0
    2.0400    1.8070   -0.1810 N   0  0  0  0  0  0  0  0  0  0  0  0
    3.4050    1.5890   -0.0330 N   0  0  0  0  0  0  0  0  0  0  0  0
    3.8770    0.3610    0.5370 C   0  0  0  0  0  0  0  0  0  0  0  0
    3.0060   -0.4700    0.8700 O   0  0  0  0  0  0  0  0  0  0  0  0
    5.2840    0.0670    0.7320 C   0  0  0  0  0  0  0  0  0  0  0  0
    6.2720    0.8790    0.4160 C   0  0  0  0  0  0  0  0  0  0  0  0
    7.7180    0.5620    0.6240 C   0  0  1  0  0  0  0  0  0  0  0  0
    8.4580    2.0060    1.6620 Br  0  0  0  0  0  0  0  0  0  0  0  0
    7.8900   -0.6880    1.2050 O   0  0  0  0  0  0  0  0  0  0  0  0
    6.8820   -1.5740    1.5520 C   0  0  0  0  0  0  0  0  0  0  0  0
    5.6370   -1.2300    1.3340 C   0  0  0  0  0  0  0  0  0  0  0  0
   -3.5930   -0.7640    0.9540 C   0  0  0  0  0  0  0  0  0  0  0  0
   -4.4840    0.0590    1.5830 C   0  0  0  0  0  0  0  0  0  0  0  0
   -4.7880   -0.0710    2.9360 O   0  0  0  0  0  0  0  0  0  0  0  0
  1  2  1  0
  2  3  1  0
  3  4  2  0
  3 29  1  0
  4  5  1  0
  5  6  2  0
  6  7  1  0
  6 28  1  0
  7  8  2  0
  7 12  1  0
  8  9  1  0
  9 10  2  0
 10 11  1  0
 11 12  2  0
 12 13  1  0
 13 14  1  0
 14 15  1  0
 15 16  2  0
 15 17  1  0
 17 18  1  0
 18 19  1  0
 19 20  2  0
 19 21  1  0
 21 22  2  0
 21 27  1  0
 22 23  1  0
 23 24  1  1
 23 25  1  0
 25 26  1  0
 26 27  2  0
 28 29  2  0
 29 30  1  0
M  END
