
     RDKit          3D

 30 32  0  0  0  0  0  0  0  0999 V2000
   -0.6630   -3.1190   -2.5820 C   0  0  0  0  0  0  0  0  0  0  0  0
    0.0650   -2.1930   -1.7960 O   0  0  0  0  0  0  0  0  0  0  0  0
    1.3630   -2.3690   -1.4080 C   0  0  0  0  0  0  0  0  0  0  0  0
    1.9350   -3.4200   -1.7750 O   0  0  0  0  0  0  0  0  0  0  0  0
    2.1260   -1.4120   -0.6080 C   0  0  0  0  0  0  0  0  0  0  0  0
    3.5200   -1.5390   -0.5890 C   0  0  0  0  0  0  0  0  0  0  0  0
    4.3300   -0.5830   -0.0260 C   0  0  0  0  0  0  0  0  0  0  0  0
    5.6650   -0.7500   -0.0330 N   0  0  0  0  0  0  0  0  0  0  0  0
    6.4600    0.1760    0.5120 C   0  0  0  0  0  0  0  0  0  0  0  0
    7.8690   -0.0280    0.4880 N   0  0  0  0  0  0  0  0  0  0  0  0
    5.9880    1.3320    1.1030 C   0  0  0  0  0  0  0  0  0  0  0  0
    6.9100    2.2650    1.6650 C   0  0  0  0  0  0  0  0  0  0  0  0
    7.6480    3.0200    2.1380 N   0  0  0  0  0  0  0  0  0  0  0  0
    4.6280    1.5360    1.1290 C   0  0  0  0  0  0  0  0  0  0  0  0
    4.1260    2.5640    1.6500 O   0  0  0  0  0  0  0  0  0  0  0  0
    3.8190    0.5570    0.5550 C   0  0  0  0  0  0  0  0  0  0  0  0
    2.4670    0.6890    0.5460 C   0  0  0  0  0  0  0  0  0  0  0  0
    1.5860   -0.2850   -0.0280 C   0  0  0  0  0  0  0  0  0  0  0  0
    0.3250   -0.0280    0.0440 O   0  0  0  0  0  0  0  0  0  0  0  0
   -0.9150    0.2250    0.1150 C   0  0  0  0  0  0  0  0  0  0  0  0
   -1.3390    1.5680   -0.0640 C   0  0  0  0  0  0  0  0  0  0  0  0
   -2.6220    1.9580   -0.0060 C   0  0  0  0  0  0  0  0  0  0  0  0
   -3.6260    1.0220    0.2420 C   0  0  0  0  0  0  0  0  0  0  0  0
   -4.9330    1.4570    0.2930 O   0  0  0  0  0  0  0  0  0  0  0  0
   -6.0750    0.7100    0.5250 C   0  0  1  0  0  0  0  0  0  0  0  0
   -6.8770    1.2820    1.7040 C   0  0  0  0  0  0  0  0  0  0  0  0
   -6.9760    0.8110   -0.7140 C   0  0  0  0  0  0  0  0  0  0  0  0
   -3.2720   -0.2850    0.4240 C   0  0  0  0  0  0  0  0  0  0  0  0
   -1.9350   -0.6680    0.3610 C   0  0  0  0  0  0  0  0  0  0  0  0
   -1.6260   -2.5120    0.8140 Br  0  0  0  0  0  0  0  0  0  0  0  0
  1  2  1  0
  2  3  1  0
  3  4  2  0
  3  5  1  0
  5  6  2  0
  5 18  1  0
  6  7  1  0
  7  8  1  0
  7 16  2  0
  8  9  1  0
  9 10  1  0
  9 11  2  0
 11 12  1  0
 11 14  1  0
 12 13  3  0
 14 15  2  0
 14 16  1  0
 16 17  1  0
 17 18  2  0
 18 19  1  0
 19 20  1  0
 20 21  2  0
 20 29  1  0
 21 22  1  0
 22 23  2  0
 23 24  1  0
 23 28  1  0
 24 25  1  0
 25 26  1  1
 25 27  1  0
 28 29  2  0
 29 30  1  0
M  END
