
     RDKit          3D

 14 14  0  0  0  0  0  0  0  0999 V2000
    3.6030    1.1200    0.0190 C   0  0  0  0  0  0  0  0  0  0  0  0
    3.4090   -0.3370    0.3450 C   0  0  0  0  0  0  0  0  0  0  0  0
    2.2540   -0.8780   -0.2340 O   0  0  0  0  0  0  0  0  0  0  0  0
    0.9620   -0.3770    0.0530 C   0  0  0  0  0  0  0  0  0  0  0  0
    0.9660    0.5740    0.8560 O   0  0  0  0  0  0  0  0  0  0  0  0
   -0.2030   -0.9550   -0.5570 C   0  0  0  0  0  0  0  0  0  0  0  0
   -1.4580   -0.6110   -0.4000 C   0  0  0  0  0  0  0  0  0  0  0  0
   -1.9250    0.4650    0.4590 C   0  0  0  0  0  0  0  0  0  0  0  0
   -3.2290    0.7760    0.5840 C   0  0  0  0  0  0  0  0  0  0  0  0
   -3.7360    2.0890    1.6380 Cl  0  0  0  0  0  0  0  0  0  0  0  0
   -4.2240    0.0210   -0.1580 C   0  0  0  0  0  0  0  0  0  0  0  0
   -3.8830   -0.9410   -0.9340 N   0  0  0  0  0  0  0  0  0  0  0  0
   -2.5320   -1.3300   -1.1190 C   0  0  0  0  0  0  0  0  0  0  0  0
   -2.2340   -2.2960   -1.9030 O   0  0  0  0  0  0  0  0  0  0  0  0
  1  2  1  0
  2  3  1  0
  3  4  1  0
  4  5  2  0
  4  6  1  0
  6  7  2  3
  7  8  1  0
  7 13  1  0
  8  9  2  0
  9 10  1  0
  9 11  1  0
 11 12  2  0
 12 13  1  0
 13 14  2  0
M  END
