
     RDKit          3D

 22 22  0  0  0  0  0  0  0  0999 V2000
   -0.3070    3.7320    0.0870 C   0  0  0  0  0  0  0  0  0  0  0  0
   -0.5300    2.3940    0.6520 C   0  0  0  0  0  0  0  0  0  0  0  0
   -0.9580    2.2690    1.8140 O   0  0  0  0  0  0  0  0  0  0  0  0
   -0.2650    1.2690   -0.1050 O   0  0  0  0  0  0  0  0  0  0  0  0
   -0.4510   -0.0530    0.3580 C   0  0  2  0  0  0  0  0  0  0  0  0
    0.8620   -0.8240    0.3570 C   0  0  1  0  0  0  0  0  0  0  0  0
    2.0150    0.0400    0.8060 C   0  0  0  0  0  0  0  0  0  0  0  0
    3.1760   -0.7220    0.6620 O   0  0  0  0  0  0  0  0  0  0  0  0
    4.5270    0.1550    1.1390 S   0  0  2  0  0  0  0  0  0  0  0  0
    4.7930    1.4970    0.0650 N   0  0  0  0  0  0  0  0  0  0  0  0
    5.6910   -0.7880    1.1390 O   0  0  0  0  0  0  0  0  0  0  0  0
    4.3100    0.6190    2.5500 O   0  0  0  0  0  0  0  0  0  0  0  0
    0.7330   -1.9740    1.0930 O   0  0  0  0  0  0  0  0  0  0  0  0
   -0.5470   -2.5000    1.1020 C   0  0  2  0  0  0  0  0  0  0  0  0
   -0.4360   -3.8770    1.2920 O   0  0  0  0  0  0  0  0  0  0  0  0
   -1.2820   -2.2790   -0.1970 C   0  0  2  0  0  0  0  0  0  0  0  0
   -0.6670   -3.0890   -1.1740 O   0  0  0  0  0  0  0  0  0  0  0  0
   -1.3400   -0.8430   -0.6010 C   0  0  1  0  0  0  0  0  0  0  0  0
   -2.6150   -0.3170   -0.7260 O   0  0  0  0  0  0  0  0  0  0  0  0
   -3.1300    0.2130   -1.9000 C   0  0  0  0  0  0  0  0  0  0  0  0
   -4.5130    0.7540   -1.9310 C   0  0  0  0  0  0  0  0  0  0  0  0
   -2.3740    0.2030   -2.8870 O   0  0  0  0  0  0  0  0  0  0  0  0
  1  2  1  0
  2  3  2  0
  2  4  1  0
  5  4  1  6
  5  6  1  0
  5 18  1  0
  6  7  1  1
  6 13  1  0
  7  8  1  0
  8  9  1  0
  9 10  1  6
  9 11  2  0
  9 12  2  0
 13 14  1  0
 14 15  1  6
 14 16  1  0
 16 17  1  6
 16 18  1  0
 18 19  1  1
 19 20  1  0
 20 21  1  0
 20 22  2  0
M  END
