
     RDKit          3D

 22 21  0  0  0  0  0  0  0  0999 V2000
    5.2860    1.1310   -2.0440 C   0  0  0  0  0  0  0  0  0  0  0  0
    5.4160    0.0140   -1.1900 O   0  0  0  0  0  0  0  0  0  0  0  0
    4.5970   -0.1360   -0.0660 C   0  0  0  0  0  0  0  0  0  0  0  0
    3.7270    0.7420    0.1880 O   0  0  0  0  0  0  0  0  0  0  0  0
    4.6910   -1.2050    0.7890 O   0  0  0  0  0  0  0  0  0  0  0  0
    3.8510   -1.3120    1.9000 C   0  0  0  0  0  0  0  0  0  0  0  0
    2.4120   -1.3590    1.5270 C   0  0  0  0  0  0  0  0  0  0  0  0
    1.5630   -1.4550    2.4440 O   0  0  0  0  0  0  0  0  0  0  0  0
    1.9710   -1.3020    0.2230 O   0  0  0  0  0  0  0  0  0  0  0  0
    0.6270   -1.3390   -0.1930 C   0  0  0  0  0  0  0  0  0  0  0  0
   -0.1280   -0.1600    0.3760 C   0  0  1  0  0  0  0  0  0  0  0  0
    0.4650    1.0240   -0.0710 O   0  0  0  0  0  0  0  0  0  0  0  0
   -1.5920   -0.2450   -0.0580 C   0  0  1  0  0  0  0  0  0  0  0  0
   -2.1190   -1.5180    0.4510 N   0  0  0  0  0  0  0  0  0  0  0  0
   -2.3760    0.9020    0.5360 C   0  0  1  0  0  0  0  0  0  0  0  0
   -1.8300    2.2120    0.0830 C   0  0  0  0  0  0  0  0  0  0  0  0
   -3.8020    0.7170    0.1520 C   0  0  0  0  0  0  0  0  0  0  0  0
   -4.4590    1.5400   -0.5160 O   0  0  0  0  0  0  0  0  0  0  0  0
   -4.4300   -0.4450    0.5670 O   0  0  0  0  0  0  0  0  0  0  0  0
   -6.0560   -0.8190    0.2170 S   0  0  0  0  0  0  0  0  0  0  0  0
   -7.0360   -0.1510    1.1660 O   0  0  0  0  0  0  0  0  0  0  0  0
   -6.4580   -0.6220   -1.4020 O   0  0  0  0  0  0  0  0  0  0  0  0
  1  2  1  0
  2  3  1  0
  3  4  2  0
  3  5  1  0
  5  6  1  0
  6  7  1  0
  7  8  2  0
  7  9  1  0
  9 10  1  0
 10 11  1  0
 11 12  1  6
 11 13  1  0
 13 14  1  1
 13 15  1  0
 15 16  1  6
 15 17  1  0
 17 18  2  0
 17 19  1  0
 19 20  1  0
 20 21  2  0
 20 22  1  6
M  END
