
     RDKit          3D

 14 14  0  0  0  0  0  0  0  0999 V2000
    2.2090   -1.4060   -1.2120 C   0  0  0  0  0  0  0  0  0  0  0  0
    2.4240   -0.2070   -0.7680 C   0  0  0  0  0  0  0  0  0  0  0  0
    1.4570    0.7740   -0.2590 C   0  0  0  0  0  0  0  0  0  0  0  0
    1.9650    1.9040    0.1530 C   0  0  0  0  0  0  0  0  0  0  0  0
    1.0430    3.2120    0.7850 Cl  0  0  0  0  0  0  0  0  0  0  0  0
    0.0660    0.5180   -0.1250 N   0  0  0  0  0  0  0  0  0  0  0  0
   -0.6320    1.1310    1.0020 C   0  0  0  0  0  0  0  0  0  0  0  0
   -1.5430    0.1110    1.6290 C   0  0  0  0  0  0  0  0  0  0  0  0
   -2.6910   -0.3080    0.8560 C   0  0  0  0  0  0  0  0  0  0  0  0
   -3.7790    0.2000    1.2200 O   0  0  0  0  0  0  0  0  0  0  0  0
   -2.6720   -1.1990   -0.2180 O   0  0  0  0  0  0  0  0  0  0  0  0
   -1.4890   -1.4860   -0.9420 C   0  0  0  0  0  0  0  0  0  0  0  0
   -0.5710   -0.3710   -1.0380 C   0  0  0  0  0  0  0  0  0  0  0  0
   -0.1950   -0.0490   -2.2450 O   0  0  0  0  0  0  0  0  0  0  0  0
  1  2  2  0
  2  3  1  0
  3  4  2  3
  3  6  1  0
  4  5  1  0
  6  7  1  0
  6 13  1  0
  7  8  1  0
  8  9  1  0
  9 10  2  0
  9 11  1  0
 11 12  1  0
 12 13  1  0
 13 14  2  0
M  END
