
     RDKit          3D

 28 28  0  0  0  0  0  0  0  0999 V2000
    8.9240    3.1070    1.9100 C   0  0  0  0  0  0  0  0  0  0  0  0
    7.5460    2.9780    1.6130 O   0  0  0  0  0  0  0  0  0  0  0  0
    6.9990    1.7890    1.1470 C   0  0  0  0  0  0  0  0  0  0  0  0
    7.7930    0.8260    1.0010 O   0  0  0  0  0  0  0  0  0  0  0  0
    5.6410    1.6000    0.8360 N   0  0  0  0  0  0  0  0  0  0  0  0
    5.0990    0.3710    0.3570 C   0  0  0  0  0  0  0  0  0  0  0  0
    5.8750   -0.5940    0.2070 O   0  0  0  0  0  0  0  0  0  0  0  0
    3.3530    0.3300    0.0170 S   0  0  0  0  0  0  0  0  0  0  0  0
    2.8190   -1.2880   -0.5840 C   0  0  2  0  0  0  0  0  0  0  0  0
    3.4550   -1.5040   -1.9100 C   0  0  0  0  0  0  0  0  0  0  0  0
    4.2150   -0.6530   -2.4420 O   0  0  0  0  0  0  0  0  0  0  0  0
    3.2440   -2.6700   -2.6480 O   0  0  0  0  0  0  0  0  0  0  0  0
    3.8600   -2.8510   -3.9080 C   0  0  0  0  0  0  0  0  0  0  0  0
    1.3280   -1.2070   -0.7520 C   0  0  0  0  0  0  0  0  0  0  0  0
    0.8410   -1.3210   -1.9050 O   0  0  0  0  0  0  0  0  0  0  0  0
    0.4400   -1.0030    0.3690 C   0  0  0  0  0  0  0  0  0  0  0  0
    0.9090   -0.8880    1.5290 O   0  0  0  0  0  0  0  0  0  0  0  0
   -0.9180   -0.9300    0.1910 O   0  0  0  0  0  0  0  0  0  0  0  0
   -1.8440   -0.7310    1.2430 C   0  0  0  0  0  0  0  0  0  0  0  0
   -3.2480   -0.7100    0.6220 C   0  0  2  0  0  0  0  0  0  0  0  0
   -3.2600    0.3270   -0.2720 O   0  0  0  0  0  0  0  0  0  0  0  0
   -4.2630   -0.5790    1.7010 C   0  0  0  0  0  0  0  0  0  0  0  0
   -5.5680   -0.5270    1.3340 O   0  0  0  0  0  0  0  0  0  0  0  0
   -5.9910    0.5030    0.5500 C   0  0  1  0  0  0  0  0  0  0  0  0
   -6.5490   -0.1310   -0.7350 C   0  0  0  0  0  0  0  0  0  0  0  0
   -7.6330    0.9020   -1.0690 C   0  0  0  0  0  0  0  0  0  0  0  0
   -8.2490    1.0120    0.1740 O   0  0  0  0  0  0  0  0  0  0  0  0
   -7.2380    1.1810    1.0860 C   0  0  0  0  0  0  0  0  0  0  0  0
  1  2  1  0
  2  3  1  0
  3  4  2  0
  3  5  1  0
  5  6  1  0
  6  7  2  0
  6  8  1  0
  9  8  1  6
  9 10  1  0
  9 14  1  0
 10 11  2  0
 10 12  1  0
 12 13  1  0
 14 15  2  0
 14 16  1  0
 16 17  2  0
 16 18  1  0
 18 19  1  0
 19 20  1  0
 20 21  1  6
 20 22  1  0
 22 23  1  0
 24 23  1  1
 24 25  1  0
 24 28  1  0
 25 26  1  0
 26 27  1  0
 27 28  1  0
M  END
