
     RDKit          3D

 28 28  0  0  0  0  0  0  0  0999 V2000
   -6.5550    3.2360   -0.2440 C   0  0  0  0  0  0  0  0  0  0  0  0
   -5.8500    2.0480   -0.3810 O   0  0  0  0  0  0  0  0  0  0  0  0
   -6.4500    1.0470    0.4090 C   0  0  0  0  0  0  0  0  0  0  0  0
   -5.6710   -0.2550    0.2550 C   0  0  1  0  0  0  0  0  0  0  0  0
   -4.3520   -0.0550    0.6720 O   0  0  0  0  0  0  0  0  0  0  0  0
   -3.2520   -0.1490   -0.1660 C   0  0  0  0  0  0  0  0  0  0  0  0
   -3.4430   -0.4290   -1.3730 O   0  0  0  0  0  0  0  0  0  0  0  0
   -1.8610    0.0660    0.2970 C   0  0  0  0  0  0  0  0  0  0  0  0
   -0.9640   -0.0920   -0.7610 O   0  0  0  0  0  0  0  0  0  0  0  0
    0.4060    0.0560   -0.5970 C   0  0  0  0  0  0  0  0  0  0  0  0
    0.8580    0.3420    0.5390 O   0  0  0  0  0  0  0  0  0  0  0  0
    1.3110   -0.1110   -1.6990 N   0  0  0  0  0  0  0  0  0  0  0  0
    2.7170    0.0350   -1.5560 C   0  0  0  0  0  0  0  0  0  0  0  0
    3.1690    0.3210   -0.4200 O   0  0  0  0  0  0  0  0  0  0  0  0
    3.6500   -0.1370   -2.6920 C   0  0  0  0  0  0  0  0  0  0  0  0
    4.9950    0.0490   -2.3040 O   0  0  0  0  0  0  0  0  0  0  0  0
    5.5700   -0.7760   -1.3320 C   0  0  0  0  0  0  0  0  0  0  0  0
    4.8400   -1.6580   -0.8470 O   0  0  0  0  0  0  0  0  0  0  0  0
    6.9560   -0.6370   -0.8840 C   0  0  2  0  0  0  0  0  0  0  0  0
    7.3090   -1.8930    0.3810 S   0  0  0  0  0  0  0  0  0  0  0  0
    8.1340   -0.8180    1.6230 C   0  0  0  0  0  0  0  0  0  0  0  0
    8.4010    0.4040    0.7790 C   0  0  0  0  0  0  0  0  0  0  0  0
    7.1970    0.6340   -0.0960 C   0  0  2  0  0  0  0  0  0  0  0  0
    6.0930    1.0550    0.6040 O   0  0  0  0  0  0  0  0  0  0  0  0
   -6.3340   -1.3210    1.0410 C   0  0  0  0  0  0  0  0  0  0  0  0
   -5.6730   -1.8920    1.9420 O   0  0  0  0  0  0  0  0  0  0  0  0
   -7.6300   -1.7210    0.8420 O   0  0  0  0  0  0  0  0  0  0  0  0
   -8.2620   -2.7440    1.5980 C   0  0  0  0  0  0  0  0  0  0  0  0
  1  2  1  0
  2  3  1  0
  4  3  1  1
  4  5  1  0
  4 25  1  0
  5  6  1  0
  6  7  2  0
  6  8  1  0
  8  9  1  0
  9 10  1  0
 10 11  2  0
 10 12  1  0
 12 13  1  0
 13 14  2  0
 13 15  1  0
 15 16  1  0
 16 17  1  0
 17 18  2  0
 19 17  1  1
 19 20  1  0
 19 23  1  0
 20 21  1  0
 21 22  1  0
 22 23  1  0
 23 24  1  1
 25 26  2  0
 25 27  1  0
 27 28  1  0
M  END
