
     RDKit          3D

 28 28  0  0  0  0  0  0  0  0999 V2000
    1.6030    3.5840    1.8710 C   0  0  0  0  0  0  0  0  0  0  0  0
    1.1830    2.2520    1.2420 C   0  0  1  0  0  0  0  0  0  0  0  0
   -0.2160    2.4670    0.6950 C   0  0  0  0  0  0  0  0  0  0  0  0
   -0.7580    1.2650    0.0540 C   0  0  0  0  0  0  0  0  0  0  0  0
   -0.4170    1.0580   -1.1600 O   0  0  0  0  0  0  0  0  0  0  0  0
   -1.6000    0.3500    0.6630 O   0  0  0  0  0  0  0  0  0  0  0  0
   -2.0450   -0.7520   -0.0550 C   0  0  1  0  0  0  0  0  0  0  0  0
   -1.5120   -1.9980    0.6620 C   0  0  0  0  0  0  0  0  0  0  0  0
   -3.5480   -0.8230   -0.1680 C   0  0  2  0  0  0  0  0  0  0  0  0
   -4.0030   -2.0200   -0.9480 C   0  0  0  0  0  0  0  0  0  0  0  0
   -4.2650    0.6450   -0.8500 S   0  0  0  0  0  0  0  0  0  0  0  0
   -3.7440    0.9110   -2.2350 O   0  0  0  0  0  0  0  0  0  0  0  0
   -6.0510    0.4370   -0.9310 C   0  0  0  0  0  0  0  0  0  0  0  0
   -6.6180    0.2020    0.4220 C   0  0  0  0  0  0  0  0  0  0  0  0
   -7.0110    1.1320    1.1790 O   0  0  0  0  0  0  0  0  0  0  0  0
   -6.7300   -1.0970    0.9010 O   0  0  0  0  0  0  0  0  0  0  0  0
    2.0870    1.8730    0.2320 O   0  0  0  0  0  0  0  0  0  0  0  0
    2.8010    0.7080    0.3570 C   0  0  0  0  0  0  0  0  0  0  0  0
    2.6320   -0.0170    1.3960 O   0  0  0  0  0  0  0  0  0  0  0  0
    3.7320    0.2340   -0.5970 N   0  0  0  0  0  0  0  0  0  0  0  0
    4.4430   -0.9930   -0.4030 C   0  0  0  0  0  0  0  0  0  0  0  0
    4.2110   -1.6370    0.6480 O   0  0  0  0  0  0  0  0  0  0  0  0
    5.4140   -1.5070   -1.3750 C   0  0  1  0  0  0  0  0  0  0  0  0
    6.6440   -0.6050   -1.3130 C   0  0  0  0  0  0  0  0  0  0  0  0
    7.2930   -1.1380   -0.1510 O   0  0  0  0  0  0  0  0  0  0  0  0
    6.9950   -2.4910   -0.0380 C   0  0  0  0  0  0  0  0  0  0  0  0
    7.6030   -3.2730    0.7300 O   0  0  0  0  0  0  0  0  0  0  0  0
    5.9490   -2.7260   -0.9150 O   0  0  0  0  0  0  0  0  0  0  0  0
  2  1  1  6
  2  3  1  0
  2 17  1  0
  3  4  1  0
  4  5  2  0
  4  6  1  0
  6  7  1  0
  7  8  1  1
  7  9  1  0
  9 10  1  6
  9 11  1  0
 11 12  2  0
 11 13  1  6
 13 14  1  0
 14 15  2  0
 14 16  1  0
 17 18  1  0
 18 19  2  0
 18 20  1  0
 20 21  1  0
 21 22  2  0
 23 21  1  1
 23 24  1  0
 23 28  1  0
 24 25  1  0
 25 26  1  0
 26 27  2  0
 26 28  1  0
M  END
