
     RDKit          3D

 28 29  0  0  0  0  0  0  0  0999 V2000
   -4.6360    2.8120    2.8290 C   0  0  0  0  0  0  0  0  0  0  0  0
   -4.4300    1.6170    2.1030 O   0  0  0  0  0  0  0  0  0  0  0  0
   -3.4270    1.6190    1.0900 C   0  0  0  0  0  0  0  0  0  0  0  0
   -2.7960    2.7480    0.9410 O   0  0  0  0  0  0  0  0  0  0  0  0
   -3.1130    0.4170    0.3350 C   0  0  2  0  0  0  0  0  0  0  0  0
   -3.2760   -0.7360    1.3520 C   0  0  0  0  0  0  0  0  0  0  0  0
   -1.8130    0.4800   -0.1030 O   0  0  0  0  0  0  0  0  0  0  0  0
   -1.0180   -0.4650   -0.6220 C   0  0  0  0  0  0  0  0  0  0  0  0
   -1.4300   -1.6590   -0.8210 O   0  0  0  0  0  0  0  0  0  0  0  0
    0.3680   -0.1080   -0.9130 N   0  0  0  0  0  0  0  0  0  0  0  0
    1.2270   -1.1490   -1.3090 C   0  0  1  0  0  0  0  0  0  0  0  0
    2.3090   -0.8710   -2.2820 C   0  0  0  0  0  0  0  0  0  0  0  0
    3.4300   -1.8090   -1.8100 C   0  0  0  0  0  0  0  0  0  0  0  0
    3.3730   -1.4280   -0.2920 C   0  0  1  0  0  0  0  0  0  0  0  0
    4.2170   -2.2180    0.4620 O   0  0  0  0  0  0  0  0  0  0  0  0
    3.8870   -0.0610   -0.4310 O   0  0  0  0  0  0  0  0  0  0  0  0
    4.9980    0.2310    0.2330 C   0  0  0  0  0  0  0  0  0  0  0  0
    5.4390   -0.6750    1.1030 O   0  0  0  0  0  0  0  0  0  0  0  0
    5.9190    1.4310    0.2570 C   0  0  0  0  0  0  0  0  0  0  0  0
    7.0820    0.7770   -0.2630 O   0  0  0  0  0  0  0  0  0  0  0  0
    8.2990    0.8810    0.8930 S   0  0  0  0  0  0  0  0  0  0  0  0
    9.3530   -0.2160    0.7020 O   0  0  0  0  0  0  0  0  0  0  0  0
    1.9670   -1.5460    0.0250 C   0  0  0  0  0  0  0  0  0  0  0  0
   -4.1790    0.3240   -0.7520 C   0  0  1  0  0  0  0  0  0  0  0  0
   -4.3460   -1.0160   -1.4030 C   0  0  0  0  0  0  0  0  0  0  0  0
   -5.7410   -1.0170   -1.6890 O   0  0  0  0  0  0  0  0  0  0  0  0
   -6.3620   -0.2010   -0.8130 C   0  0  0  0  0  0  0  0  0  0  0  0
   -5.3810    0.4400   -0.0530 O   0  0  0  0  0  0  0  0  0  0  0  0
  1  2  1  0
  2  3  1  0
  3  4  2  0
  3  5  1  0
  5  6  1  1
  5  7  1  0
  5 24  1  0
  7  8  1  0
  8  9  2  0
  8 10  1  0
 11 10  1  1
 11 12  1  0
 11 23  1  0
 12 13  1  0
 13 14  1  0
 14 15  1  1
 14 16  1  0
 14 23  1  0
 16 17  1  0
 17 18  2  0
 17 19  1  0
 19 20  1  0
 20 21  1  0
 21 22  2  0
 24 25  1  1
 24 28  1  0
 25 26  1  0
 26 27  1  0
 27 28  1  0
M  END
