
     RDKit          3D

 28 28  0  0  0  0  0  0  0  0999 V2000
    2.4670    4.5930    0.1830 C   0  0  0  0  0  0  0  0  0  0  0  0
    1.8730    3.4800   -0.6300 C   0  0  0  0  0  0  0  0  0  0  0  0
    1.5600    2.2880    0.2100 C   0  0  0  0  0  0  0  0  0  0  0  0
    1.8220    2.3660    1.4370 O   0  0  0  0  0  0  0  0  0  0  0  0
    1.0040    1.1360   -0.3270 O   0  0  0  0  0  0  0  0  0  0  0  0
    0.7160    0.0250    0.4790 C   0  0  2  0  0  0  0  0  0  0  0  0
    1.4740   -1.2130    0.0920 C   0  0  1  0  0  0  0  0  0  0  0  0
    2.8690   -1.0760    0.2290 O   0  0  0  0  0  0  0  0  0  0  0  0
    3.7630   -1.1740   -0.8240 C   0  0  0  0  0  0  0  0  0  0  0  0
    3.3380   -1.3950   -1.9730 O   0  0  0  0  0  0  0  0  0  0  0  0
    5.2370   -1.0230   -0.6410 C   0  0  0  0  0  0  0  0  0  0  0  0
    5.9810   -1.1710   -1.9290 C   0  0  0  0  0  0  0  0  0  0  0  0
    0.9370   -2.3370    0.9080 C   0  0  0  0  0  0  0  0  0  0  0  0
    1.5270   -3.4610    0.7900 O   0  0  0  0  0  0  0  0  0  0  0  0
   -0.1420   -2.2100    1.7620 O   0  0  0  0  0  0  0  0  0  0  0  0
   -1.0230   -1.1040    1.7370 C   0  0  2  0  0  0  0  0  0  0  0  0
   -2.4670   -1.5440    1.8370 C   0  0  0  0  0  0  0  0  0  0  0  0
   -2.8050   -2.3800    0.7750 O   0  0  0  0  0  0  0  0  0  0  0  0
   -4.4300   -2.8100    0.9850 S   0  0  1  0  0  0  0  0  0  0  0  0
   -4.6410   -3.1200    2.6710 N   0  0  0  0  0  0  0  0  0  0  0  0
   -5.2320   -1.5790    0.6010 O   0  0  0  0  0  0  0  0  0  0  0  0
   -4.8140   -3.9700    0.1430 O   0  0  0  0  0  0  0  0  0  0  0  0
   -0.7530   -0.3580    0.4460 C   0  0  1  0  0  0  0  0  0  0  0  0
   -1.5940    0.7480    0.2790 O   0  0  0  0  0  0  0  0  0  0  0  0
   -2.4950    0.7940   -0.7830 C   0  0  0  0  0  0  0  0  0  0  0  0
   -2.5040   -0.1950   -1.5610 O   0  0  0  0  0  0  0  0  0  0  0  0
   -3.4060    1.9420   -1.0020 C   0  0  0  0  0  0  0  0  0  0  0  0
   -4.2440    1.6710   -2.2320 C   0  0  0  0  0  0  0  0  0  0  0  0
  1  2  1  0
  2  3  1  0
  3  4  2  0
  3  5  1  0
  6  5  1  6
  6  7  1  0
  6 23  1  0
  7  8  1  1
  7 13  1  0
  8  9  1  0
  9 10  2  0
  9 11  1  0
 11 12  1  0
 13 14  2  0
 13 15  1  0
 15 16  1  0
 16 17  1  6
 16 23  1  0
 17 18  1  0
 18 19  1  0
 19 20  1  1
 19 21  2  0
 19 22  2  0
 23 24  1  1
 24 25  1  0
 25 26  2  0
 25 27  1  0
 27 28  1  0
M  END
