
     RDKit          3D

 20 22  0  0  0  0  0  0  0  0999 V2000
    5.4220    0.0730    0.1810 C   0  0  0  0  0  0  0  0  0  0  0  0
    4.5460   -0.4410   -0.6600 C   0  0  0  0  0  0  0  0  0  0  0  0
    4.7450   -0.1980   -2.4360 S   0  0  0  0  0  0  0  0  0  0  0  0
    3.3840   -1.2230   -0.1790 C   0  0  0  0  0  0  0  0  0  0  0  0
    2.1530   -0.5860   -0.5950 N   0  0  0  0  0  0  0  0  0  0  0  0
    1.9080    0.6580    0.0610 C   0  0  0  0  0  0  0  0  0  0  0  0
    0.9490    0.5500    1.2410 C   0  0  0  0  0  0  0  0  0  0  0  0
   -0.3520    0.1650    0.6260 C   0  0  0  0  0  0  0  0  0  0  0  0
   -0.2700   -0.8540   -0.3100 C   0  0  0  0  0  0  0  0  0  0  0  0
   -1.3950   -1.2200   -0.8760 O   0  0  0  0  0  0  0  0  0  0  0  0
   -2.5460   -0.6470   -0.5710 C   0  0  0  0  0  0  0  0  0  0  0  0
   -3.7000   -1.0730   -1.1990 C   0  0  0  0  0  0  0  0  0  0  0  0
   -4.9300   -0.5190   -0.9270 C   0  0  0  0  0  0  0  0  0  0  0  0
   -5.0470    0.4970   -0.0010 C   0  0  0  0  0  0  0  0  0  0  0  0
   -3.9060    0.9300    0.6310 C   0  0  0  0  0  0  0  0  0  0  0  0
   -3.9500    1.9650    1.5870 N   0  0  0  0  0  0  0  0  0  0  0  0
   -2.6690    0.3690    0.3520 C   0  0  0  0  0  0  0  0  0  0  0  0
   -1.5210    0.7950    0.9800 C   0  0  0  0  0  0  0  0  0  0  0  0
   -1.5730    1.7170    1.8320 O   0  0  0  0  0  0  0  0  0  0  0  0
    1.0420   -1.4900   -0.6380 C   0  0  0  0  0  0  0  0  0  0  0  0
  1  2  2  0
  2  3  1  0
  2  4  1  0
  4  5  1  0
  5  6  1  0
  5 20  1  0
  6  7  1  0
  7  8  1  0
  8  9  2  0
  8 18  1  0
  9 10  1  0
  9 20  1  0
 10 11  1  0
 11 12  2  0
 11 17  1  0
 12 13  1  0
 13 14  2  0
 14 15  1  0
 15 16  1  0
 15 17  2  0
 17 18  1  0
 18 19  2  0
M  END
