
     RDKit          3D

 20 22  0  0  0  0  0  0  0  0999 V2000
   -2.0330   -4.0760    0.1180 N   0  0  0  0  0  0  0  0  0  0  0  0
   -1.9510   -2.6710    0.0050 C   0  0  0  0  0  0  0  0  0  0  0  0
   -0.7070   -2.1080    0.0470 C   0  0  0  0  0  0  0  0  0  0  0  0
   -0.5360   -0.7200   -0.0580 C   0  0  0  0  0  0  0  0  0  0  0  0
    0.8080   -0.1480    0.0260 C   0  0  0  0  0  0  0  0  0  0  0  0
    1.1220    0.8200    0.9520 C   0  0  0  0  0  0  0  0  0  0  0  0
    2.4110    1.3630    1.0090 C   0  0  0  0  0  0  0  0  0  0  0  0
    3.3960    0.9550    0.1560 C   0  0  0  0  0  0  0  0  0  0  0  0
    5.0110    1.6530    0.2480 S   0  0  1  0  0  0  0  0  0  0  0  0
    5.7800    1.2710   -0.9720 O   0  0  0  0  0  0  0  0  0  0  0  0
    4.9510    3.1470    0.4010 O   0  0  0  0  0  0  0  0  0  0  0  0
    3.0890   -0.0190   -0.7780 C   0  0  0  0  0  0  0  0  0  0  0  0
    1.8180   -0.5550   -0.8360 C   0  0  0  0  0  0  0  0  0  0  0  0
   -1.6760    0.0360   -0.2050 C   0  0  0  0  0  0  0  0  0  0  0  0
   -1.6030    1.3990   -0.3270 C   0  0  0  0  0  0  0  0  0  0  0  0
   -2.7510    2.1780   -0.4850 C   0  0  0  0  0  0  0  0  0  0  0  0
   -3.9990    1.6020   -0.5240 C   0  0  0  0  0  0  0  0  0  0  0  0
   -4.0890    0.2310   -0.4040 C   0  0  0  0  0  0  0  0  0  0  0  0
   -2.9380   -0.5310   -0.2480 C   0  0  0  0  0  0  0  0  0  0  0  0
   -3.0070   -1.8700   -0.1390 N   0  0  0  0  0  0  0  0  0  0  0  0
  1  2  1  0
  2  3  2  0
  2 20  1  0
  3  4  1  0
  4  5  1  0
  4 14  2  0
  5  6  2  0
  5 13  1  0
  6  7  1  0
  7  8  2  0
  9  8  1  6
  8 12  1  0
  9 10  2  0
  9 11  2  0
 12 13  2  0
 14 15  1  0
 14 19  1  0
 15 16  2  0
 16 17  1  0
 17 18  2  0
 18 19  1  0
 19 20  2  0
M  END
