
     RDKit          3D

 20 22  0  0  0  0  0  0  0  0999 V2000
    1.2140   -1.8950    0.5050 O   0  0  0  0  0  0  0  0  0  0  0  0
    0.5420   -1.0470   -0.1250 C   0  0  0  0  0  0  0  0  0  0  0  0
    1.2010   -0.2880   -1.0970 N   0  0  0  0  0  0  0  0  0  0  0  0
    2.5230   -0.2380   -1.5600 C   0  0  0  0  0  0  0  0  0  0  0  0
    3.6130    0.1660   -0.6250 C   0  0  0  0  0  0  0  0  0  0  0  0
    4.1740    1.3400   -0.8620 C   0  0  0  0  0  0  0  0  0  0  0  0
    5.2490    2.0430   -0.1670 C   0  0  0  0  0  0  0  0  0  0  0  0
    5.9710    1.0670    1.1400 S   0  0  0  0  0  0  0  0  0  0  0  0
    5.0800   -0.4460    1.2630 C   0  0  0  0  0  0  0  0  0  0  0  0
    4.0790   -0.7050    0.4300 C   0  0  0  0  0  0  0  0  0  0  0  0
   -0.8950   -0.8950    0.1890 C   0  0  0  0  0  0  0  0  0  0  0  0
   -1.7270    0.0310   -0.3580 C   0  0  0  0  0  0  0  0  0  0  0  0
   -3.0740    0.1060   -0.0120 C   0  0  0  0  0  0  0  0  0  0  0  0
   -3.5920   -0.7720    0.9080 C   0  0  0  0  0  0  0  0  0  0  0  0
   -2.7580   -1.6820    1.4410 N   0  0  0  0  0  0  0  0  0  0  0  0
   -1.4550   -1.7680    1.1150 C   0  0  0  0  0  0  0  0  0  0  0  0
   -0.7040   -2.6460    1.6450 O   0  0  0  0  0  0  0  0  0  0  0  0
   -5.0540   -0.4820    1.1100 C   0  0  0  0  0  0  0  0  0  0  0  0
   -5.0560    1.0170    0.7830 C   0  0  0  0  0  0  0  0  0  0  0  0
   -4.1620    1.0020   -0.4660 C   0  0  0  0  0  0  0  0  0  0  0  0
  1  2  2  0
  2  3  1  0
  2 11  1  0
  3  4  1  0
  4  5  1  0
  5  6  2  0
  5 10  1  0
  6  7  1  0
  7  8  1  0
  8  9  1  0
  9 10  2  0
 11 12  2  0
 11 16  1  0
 12 13  1  0
 13 14  2  0
 13 20  1  0
 14 15  1  0
 14 18  1  0
 15 16  1  0
 16 17  2  0
 18 19  1  0
 19 20  1  0
M  END
