
     RDKit          3D

 14 14  0  0  0  0  0  0  0  0999 V2000
   -0.5900    3.8060   -0.3050 C   0  0  0  0  0  0  0  0  0  0  0  0
   -0.3470    2.5650    0.0330 C   0  0  0  0  0  0  0  0  0  0  0  0
   -0.3780    1.4870   -0.9140 N   0  0  0  0  0  0  0  0  0  0  0  0
   -0.9340    0.2470   -0.4930 C   0  0  0  0  0  0  0  0  0  0  0  0
   -0.2400   -0.6650    0.1890 C   0  0  0  0  0  0  0  0  0  0  0  0
    1.1360   -0.6090    0.6270 C   0  0  0  0  0  0  0  0  0  0  0  0
    1.6330   -1.5570    1.2600 O   0  0  0  0  0  0  0  0  0  0  0  0
    1.9260    0.4870    0.3550 O   0  0  0  0  0  0  0  0  0  0  0  0
    3.2800    0.5860    0.7640 C   0  0  0  0  0  0  0  0  0  0  0  0
    4.1140   -0.5370    0.1650 C   0  0  0  0  0  0  0  0  0  0  0  0
   -1.1510   -1.8120    0.4450 C   0  0  0  0  0  0  0  0  0  0  0  0
   -2.4430   -1.1500    0.4660 N   0  0  0  0  0  0  0  0  0  0  0  0
   -3.4530   -2.1670    0.2840 C   0  0  0  0  0  0  0  0  0  0  0  0
   -2.3060   -0.2880   -0.6930 C   0  0  0  0  0  0  0  0  0  0  0  0
  1  2  2  0
  2  3  1  0
  3  4  1  0
  4  5  2  0
  4 14  1  0
  5  6  1  0
  5 11  1  0
  6  7  2  0
  6  8  1  0
  8  9  1  0
  9 10  1  0
 11 12  1  0
 12 13  1  0
 12 14  1  0
M  END
