
     RDKit          3D

 20 22  0  0  0  0  0  0  0  0999 V2000
    3.4520   -2.2710    0.6490 C   0  0  0  0  0  0  0  0  0  0  0  0
    4.0200   -0.9500    0.1500 C   0  0  0  0  0  0  0  0  0  0  0  0
    5.2950   -0.7620    0.0410 N   0  0  0  0  0  0  0  0  0  0  0  0
    5.7640    0.4150   -0.4070 C   0  0  0  0  0  0  0  0  0  0  0  0
    6.9560    0.8000   -0.5860 O   0  0  0  0  0  0  0  0  0  0  0  0
    4.2810    1.3470   -0.7050 S   0  0  0  0  0  0  0  0  0  0  0  0
    3.1350    0.0450   -0.1890 C   0  0  0  0  0  0  0  0  0  0  0  0
    1.7090    0.1580   -0.1850 C   0  0  0  0  0  0  0  0  0  0  0  0
    1.1090    1.3480   -0.6020 C   0  0  0  0  0  0  0  0  0  0  0  0
   -0.2460    1.4790   -0.6070 C   0  0  0  0  0  0  0  0  0  0  0  0
   -1.0660    0.4450   -0.2030 C   0  0  0  0  0  0  0  0  0  0  0  0
   -2.5200    0.5960   -0.2090 C   0  0  0  0  0  0  0  0  0  0  0  0
   -3.1220    1.7970    0.0290 C   0  0  0  0  0  0  0  0  0  0  0  0
   -4.4930    1.9640    0.0270 C   0  0  0  0  0  0  0  0  0  0  0  0
   -5.3080    0.8820   -0.2230 C   0  0  0  0  0  0  0  0  0  0  0  0
   -4.7180   -0.3360   -0.4650 C   0  0  0  0  0  0  0  0  0  0  0  0
   -5.5230   -1.4370   -0.7200 O   0  0  0  0  0  0  0  0  0  0  0  0
   -3.3520   -0.4930   -0.4620 C   0  0  0  0  0  0  0  0  0  0  0  0
   -0.4550   -0.7220    0.2050 C   0  0  0  0  0  0  0  0  0  0  0  0
    0.8740   -0.8150    0.1980 N   0  0  0  0  0  0  0  0  0  0  0  0
  1  2  1  0
  2  3  1  0
  2  7  2  0
  3  4  1  0
  4  5  2  0
  4  6  1  0
  6  7  1  0
  7  8  1  0
  8  9  2  0
  8 20  1  0
  9 10  1  0
 10 11  2  0
 11 12  1  0
 11 19  1  0
 12 13  2  0
 12 18  1  0
 13 14  1  0
 14 15  2  0
 15 16  1  0
 16 17  1  0
 16 18  2  0
 19 20  2  0
M  END
