
     RDKit          3D

 20 22  0  0  0  0  0  0  0  0999 V2000
    5.6170    1.8010   -2.4080 O   0  0  0  0  0  0  0  0  0  0  0  0
    4.4190    0.9120   -2.7600 S   0  0  0  0  0  0  0  0  0  0  0  0
    3.5810    0.4380   -1.2760 C   0  0  0  0  0  0  0  0  0  0  0  0
    4.3230    0.0130   -0.1890 C   0  0  0  0  0  0  0  0  0  0  0  0
    3.6800   -0.3580    0.9710 C   0  0  0  0  0  0  0  0  0  0  0  0
    2.3020   -0.3280    1.1090 C   0  0  0  0  0  0  0  0  0  0  0  0
    1.6840   -0.6920    2.2440 N   0  0  0  0  0  0  0  0  0  0  0  0
    0.3580   -0.6760    2.4130 C   0  0  0  0  0  0  0  0  0  0  0  0
   -0.1780   -1.0340    3.5180 O   0  0  0  0  0  0  0  0  0  0  0  0
   -0.4280   -0.2530    1.3390 C   0  0  0  0  0  0  0  0  0  0  0  0
   -1.8190   -0.2050    1.5310 N   0  0  0  0  0  0  0  0  0  0  0  0
   -2.8150    0.0020    0.5400 C   0  0  0  0  0  0  0  0  0  0  0  0
   -2.7010   -0.5190   -0.7270 C   0  0  0  0  0  0  0  0  0  0  0  0
   -3.6670   -0.2910   -1.7150 C   0  0  0  0  0  0  0  0  0  0  0  0
   -4.7730    0.4780   -1.4230 C   0  0  0  0  0  0  0  0  0  0  0  0
   -4.8730    0.9900   -0.1510 C   0  0  0  0  0  0  0  0  0  0  0  0
   -3.9420    0.7810    0.8290 C   0  0  0  0  0  0  0  0  0  0  0  0
    0.1990    0.1240    0.1680 C   0  0  0  0  0  0  0  0  0  0  0  0
    1.5850    0.0990    0.0130 C   0  0  0  0  0  0  0  0  0  0  0  0
    2.2080    0.4750   -1.1580 C   0  0  0  0  0  0  0  0  0  0  0  0
  1  2  2  0
  2  3  1  0
  3  4  2  0
  3 20  1  0
  4  5  1  0
  5  6  2  0
  6  7  1  0
  6 19  1  0
  7  8  1  0
  8  9  2  0
  8 10  1  0
 10 11  1  0
 10 18  2  0
 11 12  1  0
 12 13  2  0
 12 17  1  0
 13 14  1  0
 14 15  2  0
 15 16  1  0
 16 17  2  0
 18 19  1  0
 19 20  2  0
M  END
