
     RDKit          3D

 19 19  0  0  0  0  0  0  0  0999 V2000
   -1.9670    3.7920    0.1850 C   0  0  0  0  0  0  0  0  0  0  0  0
   -2.0550    2.3530   -0.1420 C   0  0  0  0  0  0  0  0  0  0  0  0
   -3.1080    1.8900   -0.6540 O   0  0  0  0  0  0  0  0  0  0  0  0
   -1.0440    1.4420    0.0750 O   0  0  0  0  0  0  0  0  0  0  0  0
   -1.1370    0.1000   -0.2340 C   0  0  1  0  0  0  0  0  0  0  0  0
   -0.1490   -0.2980   -1.2840 C   0  0  1  0  0  0  0  0  0  0  0  0
    1.2720   -0.0900   -0.9000 C   0  0  0  0  0  0  0  0  0  0  0  0
    1.5560    1.1900   -0.4530 O   0  0  0  0  0  0  0  0  0  0  0  0
    3.2080    1.2120   -0.0720 S   0  0  2  0  0  0  0  0  0  0  0  0
    3.5120    0.4770    1.4460 N   0  0  0  0  0  0  0  0  0  0  0  0
    3.7770    2.5780   -0.1780 O   0  0  0  0  0  0  0  0  0  0  0  0
    3.8830    0.3590   -1.1290 O   0  0  0  0  0  0  0  0  0  0  0  0
   -0.3080   -1.6060   -1.7120 O   0  0  0  0  0  0  0  0  0  0  0  0
   -0.1760   -2.5340   -0.7030 C   0  0  2  0  0  0  0  0  0  0  0  0
   -0.5400   -3.7820   -1.2520 O   0  0  0  0  0  0  0  0  0  0  0  0
   -1.1650   -2.2430    0.3870 C   0  0  2  0  0  0  0  0  0  0  0  0
   -2.4490   -2.3040   -0.1970 O   0  0  0  0  0  0  0  0  0  0  0  0
   -1.0250   -0.8360    0.9380 C   0  0  1  0  0  0  0  0  0  0  0  0
    0.1690   -0.7190    1.6150 O   0  0  0  0  0  0  0  0  0  0  0  0
  1  2  1  0
  2  3  2  0
  2  4  1  0
  5  4  1  1
  5  6  1  0
  5 18  1  0
  6  7  1  1
  6 13  1  0
  7  8  1  0
  8  9  1  0
  9 10  1  1
  9 11  2  0
  9 12  2  0
 13 14  1  0
 14 15  1  6
 14 16  1  0
 16 17  1  6
 16 18  1  0
 18 19  1  6
M  END
