
     RDKit          3D

 22 22  0  0  0  0  0  0  0  0999 V2000
   -4.9790    0.3330    0.6430 C   0  0  0  0  0  0  0  0  0  0  0  0
   -3.6420    0.8480    0.2280 C   0  0  0  0  0  0  0  0  0  0  0  0
   -3.4270    2.0720    0.4290 O   0  0  0  0  0  0  0  0  0  0  0  0
   -2.6840    0.0300   -0.3470 O   0  0  0  0  0  0  0  0  0  0  0  0
   -1.4540    0.5670   -0.7130 C   0  0  2  0  0  0  0  0  0  0  0  0
   -1.2650    0.4310   -2.2120 C   0  0  2  0  0  0  0  0  0  0  0  0
   -1.9780   -0.6500   -2.7230 O   0  0  0  0  0  0  0  0  0  0  0  0
    0.2020    0.1430   -2.4530 C   0  0  1  0  0  0  0  0  0  0  0  0
    0.4680    0.3540   -3.8040 O   0  0  0  0  0  0  0  0  0  0  0  0
    0.9320    1.0820   -1.7250 O   0  0  0  0  0  0  0  0  0  0  0  0
    0.9460    0.7490   -0.3700 C   0  0  2  0  0  0  0  0  0  0  0  0
    2.2230   -0.0440   -0.1290 C   0  0  0  0  0  0  0  0  0  0  0  0
    3.2830    0.7810   -0.4710 O   0  0  0  0  0  0  0  0  0  0  0  0
    4.7670    0.0640   -0.2660 S   0  0  1  0  0  0  0  0  0  0  0  0
    4.9600   -0.6480    1.2870 N   0  0  0  0  0  0  0  0  0  0  0  0
    5.0500   -1.0010   -1.2920 O   0  0  0  0  0  0  0  0  0  0  0  0
    5.8180    1.1350   -0.4060 O   0  0  0  0  0  0  0  0  0  0  0  0
   -0.2870   -0.0680    0.0040 C   0  0  1  0  0  0  0  0  0  0  0  0
   -0.4970    0.1220    1.3910 O   0  0  0  0  0  0  0  0  0  0  0  0
   -0.5500   -0.8900    2.3130 C   0  0  0  0  0  0  0  0  0  0  0  0
   -0.7770   -0.5610    3.7390 C   0  0  0  0  0  0  0  0  0  0  0  0
   -0.4070   -2.0780    1.9330 O   0  0  0  0  0  0  0  0  0  0  0  0
  1  2  1  0
  2  3  2  0
  2  4  1  0
  5  4  1  1
  5  6  1  0
  5 18  1  0
  6  7  1  1
  6  8  1  0
  8  9  1  6
  8 10  1  0
 10 11  1  0
 11 12  1  6
 11 18  1  0
 12 13  1  0
 13 14  1  0
 14 15  1  1
 14 16  2  0
 14 17  2  0
 18 19  1  1
 19 20  1  0
 20 21  1  0
 20 22  2  0
M  END
