
     RDKit          3D

 23 24  0  0  0  0  0  0  0  0999 V2000
   -1.6460   -2.9240   -0.9800 C   0  0  0  0  0  0  0  0  0  0  0  0
   -1.8560   -2.7330    0.4620 C   0  0  0  0  0  0  0  0  0  0  0  0
   -1.0370   -1.6960    1.1100 C   0  0  0  0  0  0  0  0  0  0  0  0
   -1.0840   -0.3300    0.5820 C   0  0  0  0  0  0  0  0  0  0  0  0
   -0.2680    0.1610   -0.4300 C   0  0  0  0  0  0  0  0  0  0  0  0
    0.9230   -0.6020   -0.7780 C   0  0  0  0  0  0  0  0  0  0  0  0
    2.0770   -0.1330   -0.2460 C   0  0  0  0  0  0  0  0  0  0  0  0
    2.0530    1.0580    0.6120 C   0  0  0  0  0  0  0  0  0  0  0  0
    2.9230    2.1690    0.0520 C   0  0  0  0  0  0  0  0  0  0  0  0
    2.8360    3.2500    0.9150 O   0  0  0  0  0  0  0  0  0  0  0  0
    3.3350   -0.8550   -0.5470 C   0  0  0  0  0  0  0  0  0  0  0  0
    3.0670   -2.3160   -0.2740 C   0  0  0  0  0  0  0  0  0  0  0  0
    1.9090   -2.7740   -1.1170 C   0  0  0  0  0  0  0  0  0  0  0  0
    1.0710   -1.7080   -1.5560 O   0  0  0  0  0  0  0  0  0  0  0  0
   -0.4880    1.4140   -0.9980 C   0  0  0  0  0  0  0  0  0  0  0  0
   -1.5120    2.1830   -0.5590 C   0  0  0  0  0  0  0  0  0  0  0  0
   -1.7820    3.4330   -1.0910 O   0  0  0  0  0  0  0  0  0  0  0  0
   -1.0280    4.0220   -2.1050 C   0  0  0  0  0  0  0  0  0  0  0  0
   -2.3470    1.7100    0.4700 C   0  0  0  0  0  0  0  0  0  0  0  0
   -3.3450    2.5720    0.8350 O   0  0  0  0  0  0  0  0  0  0  0  0
   -2.1420    0.4570    1.0490 C   0  0  0  0  0  0  0  0  0  0  0  0
   -2.8980    0.1030    2.2140 C   0  0  0  0  0  0  0  0  0  0  0  0
   -3.4680   -1.1040    2.4150 O   0  0  0  0  0  0  0  0  0  0  0  0
  1  2  1  0
  2  3  1  0
  3  4  1  0
  4  5  2  0
  4 21  1  0
  5  6  1  0
  5 15  1  0
  6  7  2  0
  6 14  1  0
  7  8  1  0
  7 11  1  0
  8  9  1  0
  9 10  1  0
 11 12  1  0
 12 13  1  0
 13 14  1  0
 15 16  2  0
 16 17  1  0
 16 19  1  0
 17 18  1  0
 19 20  1  0
 19 21  2  0
 21 22  1  0
 22 23  1  0
M  END
