
     RDKit          3D

 21 21  0  0  0  0  0  0  0  0999 V2000
   -3.7090    0.4710   -3.7220 C   0  0  0  0  0  0  0  0  0  0  0  0
   -2.7570    0.6530   -2.6870 O   0  0  0  0  0  0  0  0  0  0  0  0
   -2.4820   -0.2880   -1.7360 C   0  0  0  0  0  0  0  0  0  0  0  0
   -3.0840   -1.3930   -1.7390 O   0  0  0  0  0  0  0  0  0  0  0  0
   -1.4800   -0.0300   -0.6900 C   0  0  2  0  0  0  0  0  0  0  0  0
   -1.3430   -1.1210    0.1730 O   0  0  0  0  0  0  0  0  0  0  0  0
   -1.8270    1.1250   -0.0330 O   0  0  0  0  0  0  0  0  0  0  0  0
   -0.8510    2.0790   -0.1700 C   0  0  1  0  0  0  0  0  0  0  0  0
   -1.3670    3.2050   -0.8020 O   0  0  0  0  0  0  0  0  0  0  0  0
   -0.3090    2.4300    1.2010 C   0  0  0  0  0  0  0  0  0  0  0  0
    0.3750    0.8970    1.9080 S   0  0  0  0  0  0  0  0  0  0  0  0
    1.7890    0.4060    0.9430 C   0  0  0  0  0  0  0  0  0  0  0  0
    2.1770    1.0370   -0.0090 O   0  0  0  0  0  0  0  0  0  0  0  0
    2.5530   -0.8330    1.2940 C   0  0  1  0  0  0  0  0  0  0  0  0
    3.9710   -0.4510    1.6330 C   0  0  0  0  0  0  0  0  0  0  0  0
    1.9500   -1.4390    2.4220 O   0  0  0  0  0  0  0  0  0  0  0  0
    1.4260   -2.6910    2.0960 C   0  0  0  0  0  0  0  0  0  0  0  0
    0.7930   -3.4000    2.9250 O   0  0  0  0  0  0  0  0  0  0  0  0
    1.7490   -2.9490    0.7360 N   0  0  0  0  0  0  0  0  0  0  0  0
    2.4760   -1.8430    0.2280 C   0  0  0  0  0  0  0  0  0  0  0  0
    2.9600   -1.7540   -0.9220 O   0  0  0  0  0  0  0  0  0  0  0  0
  1  2  1  0
  2  3  1  0
  3  4  2  0
  3  5  1  0
  5  6  1  1
  5  7  1  0
  7  8  1  0
  8  9  1  1
  8 10  1  0
 10 11  1  0
 11 12  1  0
 12 13  2  0
 12 14  1  0
 14 15  1  1
 14 16  1  0
 14 20  1  0
 16 17  1  0
 17 18  2  0
 17 19  1  0
 19 20  1  0
 20 21  2  0
M  END
