
     RDKit          3D

 22 22  0  0  0  0  0  0  0  0999 V2000
   -5.9320    0.8130   -2.0340 N   0  0  0  0  0  0  0  0  0  0  0  0
   -5.0310    0.0350   -1.2680 C   0  0  0  0  0  0  0  0  0  0  0  0
   -5.3170   -1.1340   -0.9590 O   0  0  0  0  0  0  0  0  0  0  0  0
   -3.7720    0.6750   -0.8730 C   0  0  0  0  0  0  0  0  0  0  0  0
   -3.4740    1.8380   -1.1680 O   0  0  0  0  0  0  0  0  0  0  0  0
   -2.8810   -0.0750   -0.1300 O   0  0  0  0  0  0  0  0  0  0  0  0
   -1.6430    0.3930    0.3210 C   0  0  0  0  0  0  0  0  0  0  0  0
   -0.9550   -0.7100    1.0910 C   0  0  2  0  0  0  0  0  0  0  0  0
    0.3760   -0.1570    1.6040 C   0  0  0  0  0  0  0  0  0  0  0  0
    1.1270    0.2040    0.4740 O   0  0  0  0  0  0  0  0  0  0  0  0
    2.3960    0.7520    0.5520 C   0  0  0  0  0  0  0  0  0  0  0  0
    2.8950    0.9320    1.6710 O   0  0  0  0  0  0  0  0  0  0  0  0
    3.1170    1.1040   -0.6980 C   0  0  2  0  0  0  0  0  0  0  0  0
    3.3980   -0.3410   -1.7570 S   0  0  0  0  0  0  0  0  0  0  0  0
    4.4800   -1.4490   -1.0120 O   0  0  0  0  0  0  0  0  0  0  0  0
    4.4450    1.7630   -0.3240 C   0  0  1  0  0  0  0  0  0  0  0  0
    5.2300    0.9100    0.4240 O   0  0  0  0  0  0  0  0  0  0  0  0
    5.1430    2.1090   -1.4730 O   0  0  0  0  0  0  0  0  0  0  0  0
   -0.7620   -1.9410    0.2750 C   0  0  0  0  0  0  0  0  0  0  0  0
   -1.7790   -2.7810    0.7150 O   0  0  0  0  0  0  0  0  0  0  0  0
   -2.1150   -2.3920    1.9920 C   0  0  0  0  0  0  0  0  0  0  0  0
   -1.7330   -1.0780    2.1600 O   0  0  0  0  0  0  0  0  0  0  0  0
  1  2  1  0
  2  3  2  0
  2  4  1  0
  4  5  2  0
  4  6  1  0
  6  7  1  0
  8  7  1  6
  8  9  1  0
  8 19  1  0
  8 22  1  0
  9 10  1  0
 10 11  1  0
 11 12  2  0
 11 13  1  0
 13 14  1  1
 13 16  1  0
 14 15  1  0
 16 17  1  1
 16 18  1  0
 19 20  1  0
 20 21  1  0
 21 22  1  0
M  END
