
     RDKit          3D

 21 21  0  0  0  0  0  0  0  0999 V2000
    6.8940   -0.3140   -0.9080 N   0  0  0  0  0  0  0  0  0  0  0  0
    5.7350   -0.7920   -0.2750 C   0  0  0  0  0  0  0  0  0  0  0  0
    5.8140   -2.2660    0.7120 S   0  0  0  0  0  0  0  0  0  0  0  0
    4.6000   -0.1670   -0.4020 C   0  0  0  0  0  0  0  0  0  0  0  0
    4.5720    0.9800   -1.1790 O   0  0  0  0  0  0  0  0  0  0  0  0
    3.3710   -0.6620    0.2610 C   0  0  0  0  0  0  0  0  0  0  0  0
    3.3760   -1.6900    0.9630 O   0  0  0  0  0  0  0  0  0  0  0  0
    2.1990    0.0290    0.0990 O   0  0  0  0  0  0  0  0  0  0  0  0
    0.9630   -0.3440    0.6800 C   0  0  0  0  0  0  0  0  0  0  0  0
   -0.0620    0.6800    0.2510 C   0  0  0  0  0  0  0  0  0  0  0  0
   -1.3460    0.3790    0.7970 O   0  0  0  0  0  0  0  0  0  0  0  0
   -2.3680    1.2590    0.4660 C   0  0  0  0  0  0  0  0  0  0  0  0
   -2.1450    2.2670   -0.2820 O   0  0  0  0  0  0  0  0  0  0  0  0
   -3.7640    1.0990    0.9440 C   0  0  2  0  0  0  0  0  0  0  0  0
   -3.8300   -0.0600    1.7540 O   0  0  0  0  0  0  0  0  0  0  0  0
   -4.2330   -1.2890    1.2570 C   0  0  0  0  0  0  0  0  0  0  0  0
   -4.1090   -2.2860    2.0100 O   0  0  0  0  0  0  0  0  0  0  0  0
   -4.7420   -1.3440   -0.0280 O   0  0  0  0  0  0  0  0  0  0  0  0
   -4.6700   -0.2850   -0.9370 C   0  0  0  0  0  0  0  0  0  0  0  0
   -4.6970    1.0410   -0.2310 C   0  0  2  0  0  0  0  0  0  0  0  0
   -4.3480    2.0770   -1.1000 O   0  0  0  0  0  0  0  0  0  0  0  0
  1  2  1  0
  2  3  1  0
  2  4  2  3
  4  5  1  0
  4  6  1  0
  6  7  2  0
  6  8  1  0
  8  9  1  0
  9 10  1  0
 10 11  1  0
 11 12  1  0
 12 13  2  0
 14 12  1  6
 14 15  1  0
 14 20  1  0
 15 16  1  0
 16 17  2  0
 16 18  1  0
 18 19  1  0
 19 20  1  0
 20 21  1  6
M  END
