
     RDKit          3D

 21 21  0  0  0  0  0  0  0  0999 V2000
    4.4740   -1.5900   -0.7160 C   0  0  0  0  0  0  0  0  0  0  0  0
    2.7510   -1.2960   -0.3210 S   0  0  0  0  0  0  0  0  0  0  0  0
    2.3550    0.4850   -0.2420 C   0  0  1  0  0  0  0  0  0  0  0  0
    3.0700    1.0220    0.8830 N   0  0  0  0  0  0  0  0  0  0  0  0
    2.8150    1.0490   -1.4260 O   0  0  0  0  0  0  0  0  0  0  0  0
    0.8430    0.6220   -0.0960 C   0  0  1  0  0  0  0  0  0  0  0  0
    0.2930    0.0680   -1.2380 O   0  0  0  0  0  0  0  0  0  0  0  0
    0.4390   -0.2170    1.1140 C   0  0  0  0  0  0  0  0  0  0  0  0
    0.1930   -1.5400    0.7700 O   0  0  0  0  0  0  0  0  0  0  0  0
   -1.1590   -1.8610    0.9590 C   0  0  0  0  0  0  0  0  0  0  0  0
   -1.8360   -1.6190   -0.2350 O   0  0  0  0  0  0  0  0  0  0  0  0
   -3.1670   -1.9830   -0.0970 C   0  0  0  0  0  0  0  0  0  0  0  0
   -4.0720   -1.0590   -0.6200 O   0  0  0  0  0  0  0  0  0  0  0  0
   -4.2720    0.2340   -0.1660 C   0  0  0  0  0  0  0  0  0  0  0  0
   -5.4400    0.6690    0.0320 O   0  0  0  0  0  0  0  0  0  0  0  0
   -3.1110    1.1550    0.1040 C   0  0  0  0  0  0  0  0  0  0  0  0
   -2.1700    0.9080   -0.8820 O   0  0  0  0  0  0  0  0  0  0  0  0
   -1.3970    1.7340   -1.6260 C   0  0  0  0  0  0  0  0  0  0  0  0
   -1.4530    1.8860   -2.8900 O   0  0  0  0  0  0  0  0  0  0  0  0
   -0.4410    2.5030   -0.9800 O   0  0  0  0  0  0  0  0  0  0  0  0
    0.4090    2.0500    0.0550 C   0  0  0  0  0  0  0  0  0  0  0  0
  1  2  1  0
  2  3  1  0
  3  4  1  1
  3  5  1  0
  3  6  1  0
  6  7  1  6
  6  8  1  0
  6 21  1  0
  8  9  1  0
  9 10  1  0
 10 11  1  0
 11 12  1  0
 12 13  1  0
 13 14  1  0
 14 15  2  0
 14 16  1  0
 16 17  1  0
 17 18  1  0
 18 19  2  0
 18 20  1  0
 20 21  1  0
M  END
