
     RDKit          3D

 21 21  0  0  0  0  0  0  0  0999 V2000
   -2.1510    3.1880   -1.3810 C   0  0  0  0  0  0  0  0  0  0  0  0
   -1.9770    2.3510   -0.2700 O   0  0  0  0  0  0  0  0  0  0  0  0
   -1.9350    1.0300   -0.6540 C   0  0  1  0  0  0  0  0  0  0  0  0
   -0.7330    0.4570   -0.2720 O   0  0  0  0  0  0  0  0  0  0  0  0
   -0.0660    0.0020   -1.3950 C   0  0  0  0  0  0  0  0  0  0  0  0
    1.2410   -0.6280   -1.0470 C   0  0  0  0  0  0  0  0  0  0  0  0
    1.9480   -1.0830   -1.9760 O   0  0  0  0  0  0  0  0  0  0  0  0
    1.6970   -0.7270    0.2460 O   0  0  0  0  0  0  0  0  0  0  0  0
    2.9160   -1.3030    0.6320 C   0  0  1  0  0  0  0  0  0  0  0  0
    2.9370   -2.6940    0.1830 N   0  0  0  0  0  0  0  0  0  0  0  0
    4.0520   -0.5370    0.0500 C   0  0  0  0  0  0  0  0  0  0  0  0
    5.2970   -1.0470    0.4240 O   0  0  0  0  0  0  0  0  0  0  0  0
    2.9360   -1.3240    2.1610 C   0  0  0  0  0  0  0  0  0  0  0  0
    2.7990    0.3490    2.7710 S   0  0  0  0  0  0  0  0  0  0  0  0
    4.1780    1.2810    2.4120 O   0  0  0  0  0  0  0  0  0  0  0  0
   -3.0530    0.2130   -0.0580 C   0  0  2  0  0  0  0  0  0  0  0  0
   -2.9960   -1.1100   -0.4540 O   0  0  0  0  0  0  0  0  0  0  0  0
   -4.4220    0.7590   -0.4320 C   0  0  0  0  0  0  0  0  0  0  0  0
   -5.2090    0.1510    0.5450 O   0  0  0  0  0  0  0  0  0  0  0  0
   -4.4170   -0.0520    1.6470 C   0  0  0  0  0  0  0  0  0  0  0  0
   -3.1140    0.3170    1.3340 O   0  0  0  0  0  0  0  0  0  0  0  0
  1  2  1  0
  3  2  1  1
  3  4  1  0
  3 16  1  0
  4  5  1  0
  5  6  1  0
  6  7  2  0
  6  8  1  0
  8  9  1  0
  9 10  1  6
  9 11  1  0
  9 13  1  0
 11 12  1  0
 13 14  1  0
 14 15  1  0
 16 17  1  1
 16 18  1  0
 16 21  1  0
 18 19  1  0
 19 20  1  0
 20 21  1  0
M  END
