
     RDKit          3D

 40 41  0  0  0  0  0  0  0  0999 V2000
   10.0980    3.5460    1.6760 C   0  0  0  0  0  0  0  0  0  0  0  0
    9.8790    2.4650    0.6380 C   0  0  1  0  0  0  0  0  0  0  0  0
   11.0420    2.4350   -0.3560 C   0  0  0  0  0  0  0  0  0  0  0  0
    9.7690    1.1840    1.2730 N   0  0  0  0  0  0  0  0  0  0  0  0
    8.5710    0.4000    1.1070 C   0  0  0  0  0  0  0  0  0  0  0  0
    7.6600    0.8760    0.4000 O   0  0  0  0  0  0  0  0  0  0  0  0
    8.4130   -0.9160    1.7440 C   0  0  0  0  0  0  0  0  0  0  0  0
    7.2530   -1.5740    1.4140 O   0  0  0  0  0  0  0  0  0  0  0  0
    7.1230   -1.9470    0.0930 C   0  0  0  0  0  0  0  0  0  0  0  0
    5.7810   -2.6410   -0.0450 C   0  0  0  0  0  0  0  0  0  0  0  0
    5.5170   -3.0750   -1.3060 O   0  0  0  0  0  0  0  0  0  0  0  0
    5.4840   -2.1640   -2.3140 C   0  0  0  0  0  0  0  0  0  0  0  0
    4.4790   -1.0680   -2.2050 C   0  0  0  0  0  0  0  0  0  0  0  0
    3.1570   -1.6600   -2.1500 N   0  0  0  0  0  0  0  0  0  0  0  0
    2.0020   -0.8480   -2.0590 C   0  0  0  0  0  0  0  0  0  0  0  0
    2.1830    0.4090   -2.0370 O   0  0  0  0  0  0  0  0  0  0  0  0
    0.6210   -1.4160   -1.9920 C   0  0  2  0  0  0  0  0  0  0  0  0
    0.3120   -2.3830   -3.0810 C   0  0  0  0  0  0  0  0  0  0  0  0
   -0.3720   -0.3660   -1.9650 N   0  0  0  0  0  0  0  0  0  0  0  0
   -1.1240    0.0040   -0.8210 C   0  0  0  0  0  0  0  0  0  0  0  0
   -0.8950   -0.6300    0.2320 O   0  0  0  0  0  0  0  0  0  0  0  0
   -2.1540    1.0910   -0.8190 C   0  0  1  0  0  0  0  0  0  0  0  0
   -2.1890    1.5210   -2.1730 O   0  0  0  0  0  0  0  0  0  0  0  0
   -3.5340    0.6090   -0.4890 C   0  0  2  0  0  0  0  0  0  0  0  0
   -4.4230    1.7580   -0.7700 N   0  0  0  0  0  0  0  0  0  0  0  0
   -3.5930    0.3630    1.0230 C   0  0  0  0  0  0  0  0  0  0  0  0
   -4.9500   -0.1190    1.4240 C   0  0  0  0  0  0  0  0  0  0  0  0
   -5.9100    0.7830    1.7460 C   0  0  0  0  0  0  0  0  0  0  0  0
   -7.1650    0.3220    2.1230 C   0  0  0  0  0  0  0  0  0  0  0  0
   -7.4200   -1.0400    2.1650 C   0  0  0  0  0  0  0  0  0  0  0  0
   -8.6450   -1.5450    2.5290 O   0  0  0  0  0  0  0  0  0  0  0  0
   -9.7340   -0.7260    2.8730 C   0  0  0  0  0  0  0  0  0  0  0  0
  -10.0880    0.1250    1.6970 C   0  0  0  0  0  0  0  0  0  0  0  0
   -9.6390   -0.2090    0.4370 C   0  0  0  0  0  0  0  0  0  0  0  0
   -9.9590    0.5710   -0.6600 C   0  0  0  0  0  0  0  0  0  0  0  0
  -10.7280    1.6970   -0.5360 C   0  0  0  0  0  0  0  0  0  0  0  0
  -11.1740    2.0240    0.7290 C   0  0  0  0  0  0  0  0  0  0  0  0
  -10.8660    1.2560    1.8490 C   0  0  0  0  0  0  0  0  0  0  0  0
   -6.4160   -1.9390    1.8300 C   0  0  0  0  0  0  0  0  0  0  0  0
   -5.1760   -1.4830    1.4570 C   0  0  0  0  0  0  0  0  0  0  0  0
  2  1  1  1
  2  3  1  0
  2  4  1  0
  4  5  1  0
  5  6  2  0
  5  7  1  0
  7  8  1  0
  8  9  1  0
  9 10  1  0
 10 11  1  0
 11 12  1  0
 12 13  1  0
 13 14  1  0
 14 15  1  0
 15 16  2  0
 15 17  1  0
 17 18  1  6
 17 19  1  0
 19 20  1  0
 20 21  2  0
 20 22  1  0
 22 23  1  6
 22 24  1  0
 24 25  1  1
 24 26  1  0
 26 27  1  0
 27 28  2  0
 27 40  1  0
 28 29  1  0
 29 30  2  0
 30 31  1  0
 30 39  1  0
 31 32  1  0
 32 33  1  0
 33 34  2  0
 33 38  1  0
 34 35  1  0
 35 36  2  0
 36 37  1  0
 37 38  2  0
 39 40  2  0
M  CHG  1  25   1
M  END
