
     RDKit          3D

 40 43  0  0  0  0  0  0  0  0999 V2000
    2.7920    1.6330   -3.3020 C   0  0  0  0  0  0  0  0  0  0  0  0
    3.0080    1.8260   -1.9310 O   0  0  0  0  0  0  0  0  0  0  0  0
    4.2580    1.6210   -1.3870 C   0  0  0  0  0  0  0  0  0  0  0  0
    5.2920    1.2340   -2.2050 C   0  0  0  0  0  0  0  0  0  0  0  0
    6.5520    1.0220   -1.7610 C   0  0  0  0  0  0  0  0  0  0  0  0
    6.8900    1.1870   -0.3980 C   0  0  0  0  0  0  0  0  0  0  0  0
    8.0980    1.0070    0.1550 C   0  0  0  0  0  0  0  0  0  0  0  0
    9.3670    0.5730   -0.6180 C   0  0  0  0  0  0  0  0  0  0  0  0
    8.2590    1.2100    1.5050 C   0  0  0  0  0  0  0  0  0  0  0  0
    6.5500    1.6930    1.9990 S   0  0  0  0  0  0  0  0  0  0  0  0
    5.8520    1.5670    0.3850 C   0  0  0  0  0  0  0  0  0  0  0  0
    4.5300    1.7920   -0.0600 C   0  0  0  0  0  0  0  0  0  0  0  0
    3.5280    2.1110    0.9670 C   0  0  0  0  0  0  0  0  0  0  0  0
    2.9450    1.0290    1.7590 C   0  0  0  0  0  0  0  0  0  0  0  0
    2.2180   -0.0250    1.0880 C   0  0  0  0  0  0  0  0  0  0  0  0
    2.0000   -0.0700   -0.1230 O   0  0  0  0  0  0  0  0  0  0  0  0
    1.6750   -1.1520    1.8520 N   0  0  0  0  0  0  0  0  0  0  0  0
    0.9470   -2.2130    1.2040 C   0  0  0  0  0  0  0  0  0  0  0  0
   -0.4390   -1.7830    0.8660 C   0  0  0  0  0  0  0  0  0  0  0  0
   -1.3070   -2.7250    0.3290 C   0  0  0  0  0  0  0  0  0  0  0  0
   -2.6030   -2.4710   -0.0230 C   0  0  0  0  0  0  0  0  0  0  0  0
   -3.5280   -3.3600   -0.5860 N   0  0  0  0  0  0  0  0  0  0  0  0
   -3.1470   -4.5900   -1.1560 C   0  0  0  0  0  0  0  0  0  0  0  0
   -1.9730   -5.0120   -1.2280 O   0  0  0  0  0  0  0  0  0  0  0  0
   -4.1780   -5.5240   -1.7460 C   0  0  2  0  0  0  0  0  0  0  0  0
   -5.4140   -4.9500   -1.5710 O   0  0  0  0  0  0  0  0  0  0  0  0
   -4.0210   -6.8480   -1.0540 C   0  0  0  0  0  0  0  0  0  0  0  0
   -4.1980   -6.7240    0.3110 O   0  0  0  0  0  0  0  0  0  0  0  0
   -3.0270   -1.1450    0.1990 C   0  0  0  0  0  0  0  0  0  0  0  0
   -2.2010   -0.1890    0.7260 C   0  0  0  0  0  0  0  0  0  0  0  0
   -2.6180    1.0820    0.9350 O   0  0  0  0  0  0  0  0  0  0  0  0
   -3.8380    1.7000    0.7200 C   0  0  1  0  0  0  0  0  0  0  0  0
   -4.4050    2.3250    1.9810 C   0  0  0  0  0  0  0  0  0  0  0  0
   -4.1770    3.8110    2.0540 C   0  0  0  0  0  0  0  0  0  0  0  0
   -4.8780    4.5260    0.9180 C   0  0  0  0  0  0  0  0  0  0  0  0
   -4.9390    3.6570   -0.3230 C   0  0  2  0  0  0  0  0  0  0  0  0
   -6.5140    2.8010   -0.3720 S   0  0  0  0  0  0  0  0  0  0  0  0
   -7.4320    3.3180    0.7120 O   0  0  0  0  0  0  0  0  0  0  0  0
   -3.7600    2.7520   -0.3800 C   0  0  0  0  0  0  0  0  0  0  0  0
   -0.8800   -0.5060    1.0690 C   0  0  0  0  0  0  0  0  0  0  0  0
  1  2  1  0
  2  3  1  0
  3  4  2  0
  3 12  1  0
  4  5  1  0
  5  6  2  0
  6  7  1  0
  6 11  1  0
  7  8  1  0
  7  9  2  0
  9 10  1  0
 10 11  1  0
 11 12  2  0
 12 13  1  0
 13 14  1  0
 14 15  1  0
 15 16  2  0
 15 17  1  0
 17 18  1  0
 18 19  1  0
 19 20  2  0
 19 40  1  0
 20 21  1  0
 21 22  1  0
 21 29  2  0
 22 23  1  0
 23 24  2  0
 23 25  1  0
 25 26  1  1
 25 27  1  0
 27 28  1  0
 29 30  1  0
 30 31  1  0
 30 40  2  0
 32 31  1  1
 32 33  1  0
 32 39  1  0
 33 34  1  0
 34 35  1  0
 35 36  1  0
 36 37  1  1
 36 39  1  0
 37 38  2  0
M  END
