
     RDKit          3D

 40 43  0  0  0  0  0  0  0  0999 V2000
   -2.3580    4.0130   -0.6010 C   0  0  0  0  0  0  0  0  0  0  0  0
   -1.7360    2.6660   -0.6550 C   0  0  0  0  0  0  0  0  0  0  0  0
   -0.4760    2.4190   -0.1400 C   0  0  0  0  0  0  0  0  0  0  0  0
    0.1740    3.5160    0.5650 C   0  0  0  0  0  0  0  0  0  0  0  0
    0.0370    3.6540    1.8220 O   0  0  0  0  0  0  0  0  0  0  0  0
    0.9440    4.4170   -0.1380 O   0  0  0  0  0  0  0  0  0  0  0  0
    1.6090    5.5060    0.4580 C   0  0  0  0  0  0  0  0  0  0  0  0
    0.6230    6.4450    1.1090 C   0  0  0  0  0  0  0  0  0  0  0  0
    1.3660    7.5010    1.6870 O   0  0  0  0  0  0  0  0  0  0  0  0
    0.1570    1.1960   -0.1750 C   0  0  0  0  0  0  0  0  0  0  0  0
    1.5090    0.9640    0.3110 C   0  0  0  0  0  0  0  0  0  0  0  0
    1.7030    0.1070    1.1880 O   0  0  0  0  0  0  0  0  0  0  0  0
    2.5790    1.7050   -0.2140 N   0  0  0  0  0  0  0  0  0  0  0  0
    3.9310    1.5790    0.2060 C   0  0  0  0  0  0  0  0  0  0  0  0
    4.3900    0.1890    0.0810 C   0  0  0  0  0  0  0  0  0  0  0  0
    4.5240   -0.7970    1.0160 C   0  0  0  0  0  0  0  0  0  0  0  0
    4.9880   -2.0020    0.6290 C   0  0  0  0  0  0  0  0  0  0  0  0
    5.3060   -2.1930   -0.6800 C   0  0  0  0  0  0  0  0  0  0  0  0
    4.9490   -0.6250   -1.4370 S   0  0  0  0  0  0  0  0  0  0  0  0
    5.8300   -3.4520   -1.2500 C   0  0  2  0  0  0  0  0  0  0  0  0
    5.5500   -3.4810   -2.7400 C   0  0  0  0  0  0  0  0  0  0  0  0
    5.1880   -4.6140   -0.5410 C   0  0  0  0  0  0  0  0  0  0  0  0
    5.5700   -4.5120    0.9220 C   0  0  0  0  0  0  0  0  0  0  0  0
    5.2050   -3.2090    1.4980 C   0  0  0  0  0  0  0  0  0  0  0  0
    5.0800   -3.1360    2.7380 O   0  0  0  0  0  0  0  0  0  0  0  0
   -0.5620    0.1690   -0.7770 C   0  0  0  0  0  0  0  0  0  0  0  0
   -1.8270    0.4290   -1.2920 C   0  0  0  0  0  0  0  0  0  0  0  0
   -2.4250   -0.5570   -1.8330 O   0  0  0  0  0  0  0  0  0  0  0  0
   -2.4120    1.6290   -1.2420 N   0  0  0  0  0  0  0  0  0  0  0  0
   -3.7320    1.8610   -1.7760 C   0  0  0  0  0  0  0  0  0  0  0  0
   -4.7690    1.6700   -0.7100 C   0  0  1  0  0  0  0  0  0  0  0  0
   -6.0210    1.9470   -1.2890 O   0  0  0  0  0  0  0  0  0  0  0  0
   -4.7720    0.2500   -0.2710 C   0  0  0  0  0  0  0  0  0  0  0  0
   -4.2500   -0.3230    0.8460 C   0  0  0  0  0  0  0  0  0  0  0  0
   -4.4100   -1.6420    1.0290 C   0  0  0  0  0  0  0  0  0  0  0  0
   -5.0860   -2.3560    0.0940 C   0  0  0  0  0  0  0  0  0  0  0  0
   -5.4120   -3.7970    0.0240 C   0  0  2  0  0  0  0  0  0  0  0  0
   -6.4310   -4.0960    1.1020 C   0  0  0  0  0  0  0  0  0  0  0  0
   -4.1340   -4.5680    0.2420 C   0  0  0  0  0  0  0  0  0  0  0  0
   -5.5190   -1.1140   -1.0990 S   0  0  0  0  0  0  0  0  0  0  0  0
  1  2  1  0
  2  3  2  0
  2 29  1  0
  3  4  1  0
  3 10  1  0
  4  5  2  0
  4  6  1  0
  6  7  1  0
  7  8  1  0
  8  9  1  0
 10 11  1  0
 10 26  2  0
 11 12  2  0
 11 13  1  0
 13 14  1  0
 14 15  1  0
 15 16  2  0
 15 19  1  0
 16 17  1  0
 17 18  2  0
 17 24  1  0
 18 19  1  0
 18 20  1  0
 20 21  1  6
 20 22  1  0
 22 23  1  0
 23 24  1  0
 24 25  2  0
 26 27  1  0
 27 28  2  0
 27 29  1  0
 29 30  1  0
 30 31  1  0
 31 32  1  6
 31 33  1  0
 33 34  2  0
 33 40  1  0
 34 35  1  0
 35 36  2  0
 36 37  1  0
 36 40  1  0
 37 38  1  1
 37 39  1  0
M  END
