
     RDKit          3D

 39 42  0  0  0  0  0  0  0  0999 V2000
    3.0750    0.3690    2.3820 O   0  0  0  0  0  0  0  0  0  0  0  0
    2.6950    0.0500    1.2370 C   0  0  0  0  0  0  0  0  0  0  0  0
    1.2110    0.0320    0.9310 C   0  0  0  0  0  0  0  0  0  0  0  0
    0.6800    1.6570    0.3320 S   0  0  0  0  0  0  0  0  0  0  0  0
    0.9620    2.7420    1.3700 O   0  0  0  0  0  0  0  0  0  0  0  0
   -1.0550    1.5360    0.0050 C   0  0  0  0  0  0  0  0  0  0  0  0
   -1.4450    1.1460   -1.2590 C   0  0  0  0  0  0  0  0  0  0  0  0
   -2.7840    1.0360   -1.5630 C   0  0  0  0  0  0  0  0  0  0  0  0
   -3.7740    1.3120   -0.6150 C   0  0  0  0  0  0  0  0  0  0  0  0
   -5.1240    1.2150   -0.8790 O   0  0  0  0  0  0  0  0  0  0  0  0
   -5.5630    0.4890   -1.9760 C   0  0  0  0  0  0  0  0  0  0  0  0
   -6.1000    1.2130   -3.0670 C   0  0  0  0  0  0  0  0  0  0  0  0
   -6.5380    0.5370   -4.1720 C   0  0  0  0  0  0  0  0  0  0  0  0
   -6.4460   -0.8450   -4.1970 C   0  0  0  0  0  0  0  0  0  0  0  0
   -5.9350   -1.5590   -3.1550 C   0  0  0  0  0  0  0  0  0  0  0  0
   -5.4810   -0.8740   -2.0070 C   0  0  0  0  0  0  0  0  0  0  0  0
   -5.0080   -1.8530   -0.6450 S   0  0  2  0  0  0  0  0  0  0  0  0
   -3.7090   -1.4290   -0.0330 O   0  0  0  0  0  0  0  0  0  0  0  0
   -4.8140   -3.2940   -1.1510 O   0  0  0  0  0  0  0  0  0  0  0  0
   -6.2590   -1.8890    0.5230 N   0  0  0  0  0  0  0  0  0  0  0  0
   -6.5600   -0.6100    1.0340 C   0  0  0  0  0  0  0  0  0  0  0  0
   -7.6870   -0.6940    2.1010 C   0  0  2  0  0  0  0  0  0  0  0  0
   -8.7800   -1.2370    1.4220 O   0  0  0  0  0  0  0  0  0  0  0  0
   -7.9850    0.7430    2.4720 C   0  0  0  0  0  0  0  0  0  0  0  0
   -9.1000    0.8540    3.2930 O   0  0  0  0  0  0  0  0  0  0  0  0
   -3.3760    1.7010    0.6470 C   0  0  0  0  0  0  0  0  0  0  0  0
   -2.0210    1.8080    0.9410 C   0  0  0  0  0  0  0  0  0  0  0  0
    3.6370   -0.2850    0.2540 N   0  0  0  0  0  0  0  0  0  0  0  0
    5.0490   -0.3040    0.4100 C   0  0  0  0  0  0  0  0  0  0  0  0
    5.8310   -0.8720   -0.6050 C   0  0  0  0  0  0  0  0  0  0  0  0
    7.1950   -0.9090   -0.5180 C   0  0  0  0  0  0  0  0  0  0  0  0
    7.8860   -0.3930    0.5650 C   0  0  0  0  0  0  0  0  0  0  0  0
    9.3400   -0.4430    0.6380 C   0  0  0  0  0  0  0  0  0  0  0  0
   10.1260   -0.9670   -0.2880 C   0  0  0  0  0  0  0  0  0  0  0  0
   11.5530   -0.8390    0.1280 C   0  0  0  0  0  0  0  0  0  0  0  0
   11.4780    0.3630    1.0620 C   0  0  0  0  0  0  0  0  0  0  0  0
   10.1440    0.0910    1.7670 C   0  0  0  0  0  0  0  0  0  0  0  0
    7.1180    0.1640    1.5570 C   0  0  0  0  0  0  0  0  0  0  0  0
    5.7320    0.2050    1.4750 C   0  0  0  0  0  0  0  0  0  0  0  0
  1  2  2  0
  2  3  1  0
  2 28  1  0
  4  3  1  1
  4  5  2  0
  4  6  1  0
  6  7  2  0
  6 27  1  0
  7  8  1  0
  8  9  2  0
  9 10  1  0
  9 26  1  0
 10 11  1  0
 11 12  2  0
 11 16  1  0
 12 13  1  0
 13 14  2  0
 14 15  1  0
 15 16  2  0
 16 17  1  0
 17 18  2  0
 17 19  2  0
 17 20  1  1
 20 21  1  0
 21 22  1  0
 22 23  1  6
 22 24  1  0
 24 25  1  0
 26 27  2  0
 28 29  1  0
 29 30  2  0
 29 39  1  0
 30 31  1  0
 31 32  2  0
 32 33  1  0
 32 38  1  0
 33 34  2  0
 33 37  1  0
 34 35  1  0
 35 36  1  0
 36 37  1  0
 38 39  2  0
M  END
