
     RDKit          3D

 40 43  0  0  0  0  0  0  0  0999 V2000
   -8.1170    2.7330   -0.6930 C   0  0  0  0  0  0  0  0  0  0  0  0
   -7.8060    1.5260    0.1450 C   0  0  2  0  0  0  0  0  0  0  0  0
   -8.1860    1.7350    1.5980 C   0  0  0  0  0  0  0  0  0  0  0  0
   -6.4330    0.9720   -0.0040 C   0  0  0  0  0  0  0  0  0  0  0  0
   -5.3180    1.9500    0.3740 C   0  0  2  0  0  0  0  0  0  0  0  0
   -5.4760    3.4000   -0.7580 S   0  0  0  0  0  0  0  0  0  0  0  0
   -3.8260    3.2740   -1.4150 C   0  0  0  0  0  0  0  0  0  0  0  0
   -3.2470    2.2280   -0.9150 C   0  0  0  0  0  0  0  0  0  0  0  0
   -1.9240    1.5610   -1.0210 C   0  0  0  0  0  0  0  0  0  0  0  0
   -1.4760    1.1920    0.1540 C   0  0  0  0  0  0  0  0  0  0  0  0
   -0.2570    0.5320    0.4740 C   0  0  0  0  0  0  0  0  0  0  0  0
    0.0680    0.2240    1.6800 O   0  0  0  0  0  0  0  0  0  0  0  0
    0.7220    0.1430   -0.4920 N   0  0  0  0  0  0  0  0  0  0  0  0
    1.9410   -0.5250   -0.0960 C   0  0  0  0  0  0  0  0  0  0  0  0
    2.7400   -0.7980   -1.3500 C   0  0  0  0  0  0  0  0  0  0  0  0
    3.9500   -1.4470   -1.1260 O   0  0  0  0  0  0  0  0  0  0  0  0
    4.9570   -0.8790   -0.3280 C   0  0  0  0  0  0  0  0  0  0  0  0
    4.7780    0.2350    0.1990 O   0  0  0  0  0  0  0  0  0  0  0  0
    6.1840   -1.5970   -0.1340 C   0  0  0  0  0  0  0  0  0  0  0  0
    6.3440   -2.8140   -0.8040 C   0  0  0  0  0  0  0  0  0  0  0  0
    7.4840   -3.5430   -0.7030 C   0  0  0  0  0  0  0  0  0  0  0  0
    8.4990   -3.0490    0.0880 C   0  0  0  0  0  0  0  0  0  0  0  0
    8.3550   -1.8560    0.7510 C   0  0  0  0  0  0  0  0  0  0  0  0
    7.1870   -1.1010    0.6550 C   0  0  0  0  0  0  0  0  0  0  0  0
    7.1240    0.1260    1.4210 C   0  0  0  0  0  0  0  0  0  0  0  0
    6.1990    0.4350    2.2110 O   0  0  0  0  0  0  0  0  0  0  0  0
    8.1950    1.1330    1.3130 C   0  0  0  0  0  0  0  0  0  0  0  0
    9.1180    1.1480    0.2980 C   0  0  0  0  0  0  0  0  0  0  0  0
    9.9450    2.2450    0.5630 C   0  0  0  0  0  0  0  0  0  0  0  0
    9.5240    2.8210    1.6570 O   0  0  0  0  0  0  0  0  0  0  0  0
    8.4830    2.1940    2.1390 C   0  0  0  0  0  0  0  0  0  0  0  0
   -2.7290    1.6340    1.3620 S   0  0  0  0  0  0  0  0  0  0  0  0
   -4.0410    1.4390    0.0070 C   0  0  1  0  0  0  0  0  0  0  0  0
   -3.9480   -0.0190   -0.2190 N   0  0  0  0  0  0  0  0  0  0  0  0
   -4.0970   -0.9080    0.8470 C   0  0  0  0  0  0  0  0  0  0  0  0
   -4.2990   -0.3060    2.0050 O   0  0  0  0  0  0  0  0  0  0  0  0
   -4.0700   -2.3330    0.9150 C   0  0  0  0  0  0  0  0  0  0  0  0
   -3.9240   -3.3480    0.1920 C   0  0  0  0  0  0  0  0  0  0  0  0
   -3.6880   -3.6140   -1.2020 C   0  0  0  0  0  0  0  0  0  0  0  0
   -3.5810   -2.5400   -2.0250 O   0  0  0  0  0  0  0  0  0  0  0  0
  2  1  1  6
  2  3  1  0
  2  4  1  0
  5  4  1  6
  5  6  1  0
  5 33  1  0
  6  7  1  0
  7  8  2  0
  8  9  1  0
  8 33  1  0
  9 10  2  0
 10 11  1  0
 10 32  1  0
 11 12  2  0
 11 13  1  0
 13 14  1  0
 14 15  1  0
 15 16  1  0
 16 17  1  0
 17 18  2  0
 17 19  1  0
 19 20  2  0
 19 24  1  0
 20 21  1  0
 21 22  2  0
 22 23  1  0
 23 24  2  0
 24 25  1  0
 25 26  2  0
 25 27  1  0
 27 28  1  0
 27 31  2  0
 28 29  2  0
 29 30  1  0
 30 31  1  0
 32 33  1  0
 33 34  1  6
 34 35  1  0
 35 36  2  0
 35 37  1  0
 37 38  2  3
 38 39  1  0
 39 40  1  0
M  END
