
     RDKit          3D

 40 43  0  0  0  0  0  0  0  0999 V2000
   -1.0070   -0.9930    2.5030 C   0  0  0  0  0  0  0  0  0  0  0  0
   -1.5130    0.0070    3.5290 C   0  0  0  0  0  0  0  0  0  0  0  0
   -2.9100    0.1810    3.4460 O   0  0  0  0  0  0  0  0  0  0  0  0
   -3.6080    0.6250    2.3500 C   0  0  0  0  0  0  0  0  0  0  0  0
   -2.9710    0.9540    1.1750 C   0  0  0  0  0  0  0  0  0  0  0  0
   -3.6770    1.4070    0.0410 C   0  0  0  0  0  0  0  0  0  0  0  0
   -2.9190    1.7480   -1.1990 C   0  0  0  0  0  0  0  0  0  0  0  0
   -3.5780    2.0300   -2.3760 C   0  0  0  0  0  0  0  0  0  0  0  0
   -2.1610    2.3150   -3.5220 S   0  0  0  0  0  0  0  0  0  0  0  0
   -0.8930    1.9980   -2.1850 C   0  0  0  0  0  0  0  0  0  0  0  0
    0.4830    2.0740   -2.5080 N   0  0  0  0  0  0  0  0  0  0  0  0
    1.4800    1.8930   -1.5050 C   0  0  0  0  0  0  0  0  0  0  0  0
    1.0500    1.6810   -0.3420 O   0  0  0  0  0  0  0  0  0  0  0  0
    2.9120    1.9540   -1.8230 C   0  0  0  0  0  0  0  0  0  0  0  0
    3.8340    1.8600   -0.6690 C   0  0  0  0  0  0  0  0  0  0  0  0
    3.6640    0.5590    0.0650 C   0  0  0  0  0  0  0  0  0  0  0  0
    3.9310   -0.5950   -0.8070 C   0  0  0  0  0  0  0  0  0  0  0  0
    4.8950   -1.4360   -0.5060 C   0  0  0  0  0  0  0  0  0  0  0  0
    5.9840   -1.3180    0.9390 S   0  0  0  0  0  0  0  0  0  0  0  0
    6.9130   -2.8030    0.6040 C   0  0  0  0  0  0  0  0  0  0  0  0
    6.4440   -3.3160   -0.5090 C   0  0  0  0  0  0  0  0  0  0  0  0
    7.1320   -4.6060   -0.9490 C   0  0  0  0  0  0  0  0  0  0  0  0
    8.6110   -4.3060   -0.9410 C   0  0  0  0  0  0  0  0  0  0  0  0
    9.0600   -4.0820    0.4670 C   0  0  1  0  0  0  0  0  0  0  0  0
   10.2210   -3.2910    0.5320 O   0  0  0  0  0  0  0  0  0  0  0  0
    8.0400   -3.4610    1.3580 C   0  0  1  0  0  0  0  0  0  0  0  0
    8.6160   -2.4780    2.1870 O   0  0  0  0  0  0  0  0  0  0  0  0
    5.3700   -2.6390   -1.1540 C   0  0  0  0  0  0  0  0  0  0  0  0
    4.8070   -3.0220   -2.2530 O   0  0  0  0  0  0  0  0  0  0  0  0
   -1.6210    1.7650   -1.2430 N   0  0  0  0  0  0  0  0  0  0  0  0
   -5.0250    1.5100    0.1500 C   0  0  0  0  0  0  0  0  0  0  0  0
   -5.7780    1.9480   -0.9110 O   0  0  0  0  0  0  0  0  0  0  0  0
   -7.1500    2.1230   -0.9950 C   0  0  1  0  0  0  0  0  0  0  0  0
   -7.5070    2.6330   -2.4070 C   0  0  0  0  0  0  0  0  0  0  0  0
   -7.9600    0.8640   -0.7820 C   0  0  0  0  0  0  0  0  0  0  0  0
   -7.5750    3.2120   -0.0330 C   0  0  0  0  0  0  0  0  0  0  0  0
   -5.6690    1.1740    1.3490 C   0  0  0  0  0  0  0  0  0  0  0  0
   -4.9730    0.7330    2.4480 C   0  0  0  0  0  0  0  0  0  0  0  0
   -5.7080    0.3870    3.7030 C   0  0  0  0  0  0  0  0  0  0  0  0
   -7.0760    0.5920    3.5060 O   0  0  0  0  0  0  0  0  0  0  0  0
  1  2  1  0
  2  3  1  0
  3  4  1  0
  4  5  2  0
  4 38  1  0
  5  6  1  0
  6  7  1  0
  6 31  2  0
  7  8  2  0
  7 30  1  0
  8  9  1  0
  9 10  1  0
 10 11  1  0
 10 30  2  0
 11 12  1  0
 12 13  2  0
 12 14  1  0
 14 15  1  0
 15 16  1  0
 16 17  1  0
 17 18  2  3
 18 19  1  0
 18 28  1  0
 19 20  1  0
 20 21  2  0
 20 26  1  0
 21 22  1  0
 21 28  1  0
 22 23  1  0
 23 24  1  0
 24 25  1  6
 24 26  1  0
 26 27  1  6
 28 29  2  0
 31 32  1  0
 31 37  1  0
 32 33  1  0
 33 34  1  6
 33 35  1  0
 33 36  1  0
 37 38  2  0
 38 39  1  0
 39 40  1  0
M  END
