
     RDKit          3D

 40 43  0  0  0  0  0  0  0  0999 V2000
   -2.2860   -4.2280    3.9020 C   0  0  0  0  0  0  0  0  0  0  0  0
   -2.3780   -3.5220    2.8020 C   0  0  0  0  0  0  0  0  0  0  0  0
   -1.2010   -2.7650    2.2340 C   0  0  0  0  0  0  0  0  0  0  0  0
   -1.6500   -0.9990    2.1770 S   0  0  0  0  0  0  0  0  0  0  0  0
   -2.9600   -0.7120    1.0100 C   0  0  0  0  0  0  0  0  0  0  0  0
   -2.5640   -0.7130   -0.4070 C   0  0  0  0  0  0  0  0  0  0  0  0
   -3.6460   -0.6590   -1.3200 C   0  0  0  0  0  0  0  0  0  0  0  0
   -4.9260   -0.6100   -0.8300 O   0  0  0  0  0  0  0  0  0  0  0  0
   -3.4220   -0.6530   -2.6740 C   0  0  0  0  0  0  0  0  0  0  0  0
   -4.5050   -0.6000   -3.5670 O   0  0  0  0  0  0  0  0  0  0  0  0
   -5.0750   -1.8020   -4.0110 C   0  0  0  0  0  0  0  0  0  0  0  0
   -2.1720   -0.6980   -3.2310 C   0  0  0  0  0  0  0  0  0  0  0  0
   -1.1170   -0.7460   -2.3470 C   0  0  0  0  0  0  0  0  0  0  0  0
   -1.3330   -0.7500   -0.9540 C   0  0  0  0  0  0  0  0  0  0  0  0
   -0.0900   -0.6110   -0.1540 C   0  0  0  0  0  0  0  0  0  0  0  0
    0.1830    0.5120    0.4500 C   0  0  0  0  0  0  0  0  0  0  0  0
   -0.5580    1.7510    0.4830 C   0  0  0  0  0  0  0  0  0  0  0  0
   -1.6310    1.8560   -0.1550 O   0  0  0  0  0  0  0  0  0  0  0  0
   -0.1070    2.8810    1.2280 N   0  0  0  0  0  0  0  0  0  0  0  0
   -0.7410    4.1340    1.3310 C   0  0  0  0  0  0  0  0  0  0  0  0
   -0.1830    5.0470    2.2310 C   0  0  0  0  0  0  0  0  0  0  0  0
   -0.6830    6.3040    2.4360 C   0  0  0  0  0  0  0  0  0  0  0  0
   -1.7930    6.6730    1.7110 C   0  0  0  0  0  0  0  0  0  0  0  0
   -2.3560    5.7920    0.8230 C   0  0  0  0  0  0  0  0  0  0  0  0
   -1.8330    4.5180    0.6280 C   0  0  0  0  0  0  0  0  0  0  0  0
    1.7440    0.2570    1.2700 S   0  0  0  0  0  0  0  0  0  0  0  0
    1.7980   -1.5350    0.9360 C   0  0  2  0  0  0  0  0  0  0  0  0
    3.1100   -1.9700    0.5140 N   0  0  0  0  0  0  0  0  0  0  0  0
    3.8040   -1.4900   -0.5700 C   0  0  0  0  0  0  0  0  0  0  0  0
    4.7850   -0.6830   -0.6490 C   0  0  0  0  0  0  0  0  0  0  0  0
    5.5420    0.0310    0.3270 C   0  0  0  0  0  0  0  0  0  0  0  0
    6.5420    0.8260   -0.2340 C   0  0  0  0  0  0  0  0  0  0  0  0
    5.5180    0.1090    1.7520 C   0  0  0  0  0  0  0  0  0  0  0  0
    4.8280   -0.4040    2.7020 C   0  0  0  0  0  0  0  0  0  0  0  0
    3.3030   -2.0550   -1.9160 C   0  0  0  0  0  0  0  0  0  0  0  0
    4.0350   -1.5580   -2.9660 O   0  0  0  0  0  0  0  0  0  0  0  0
    0.7980   -1.6150   -0.0240 O   0  0  0  0  0  0  0  0  0  0  0  0
    0.0100   -0.7820   -3.1520 O   0  0  0  0  0  0  0  0  0  0  0  0
   -0.3260   -1.1540   -4.4760 C   0  0  0  0  0  0  0  0  0  0  0  0
   -1.6860   -0.7060   -4.5310 O   0  0  0  0  0  0  0  0  0  0  0  0
  1  2  2  0
  2  3  1  0
  3  4  1  0
  4  5  1  0
  5  6  1  0
  6  7  2  0
  6 14  1  0
  7  8  1  0
  7  9  1  0
  9 10  1  0
  9 12  2  0
 10 11  1  0
 12 13  1  0
 12 40  1  0
 13 14  2  0
 13 38  1  0
 14 15  1  0
 15 16  2  0
 15 37  1  0
 16 17  1  0
 16 26  1  0
 17 18  2  0
 17 19  1  0
 19 20  1  0
 20 21  2  0
 20 25  1  0
 21 22  1  0
 22 23  2  0
 23 24  1  0
 24 25  2  0
 26 27  1  0
 27 28  1  6
 27 37  1  0
 28 29  1  0
 29 30  2  3
 29 35  1  0
 30 31  1  0
 31 32  2  0
 31 33  1  0
 33 34  2  0
 35 36  1  0
 38 39  1  0
 39 40  1  0
M  END
