
     RDKit          3D

 20 20  0  0  0  0  0  0  0  0999 V2000
   -2.2310   -1.1920   -2.2950 N   0  0  0  0  0  0  0  0  0  0  0  0
   -2.6910   -0.5540   -1.0810 C   0  0  2  0  0  0  0  0  0  0  0  0
   -2.8930    0.8920   -1.3780 C   0  0  0  0  0  0  0  0  0  0  0  0
   -4.1410    1.3310   -0.8730 O   0  0  0  0  0  0  0  0  0  0  0  0
   -3.8090    1.9060    0.7310 P   0  0  0  0  0  0  0  0  0  0  0  0
   -5.1580    1.8200    1.7700 O   0  0  0  0  0  0  0  0  0  0  0  0
   -2.3990    1.1330    1.3600 O   0  0  0  0  0  0  0  0  0  0  0  0
   -2.4560   -0.2260    1.3430 C   0  0  0  0  0  0  0  0  0  0  0  0
   -1.8530   -0.8760    0.1130 C   0  0  1  0  0  0  0  0  0  0  0  0
   -2.0120   -2.2520    0.3440 O   0  0  0  0  0  0  0  0  0  0  0  0
   -0.4490   -0.4810    0.0190 C   0  0  0  0  0  0  0  0  0  0  0  0
   -0.1460    0.7190   -0.1800 O   0  0  0  0  0  0  0  0  0  0  0  0
    0.6370   -1.3890    0.1420 N   0  0  0  0  0  0  0  0  0  0  0  0
    2.0340   -1.0170    0.0540 C   0  0  0  0  0  0  0  0  0  0  0  0
    2.4100   -0.0330    1.1200 C   0  0  0  0  0  0  0  0  0  0  0  0
    3.8740    0.3440    1.0170 C   0  0  0  0  0  0  0  0  0  0  0  0
    4.1570    0.9360   -0.2520 O   0  0  0  0  0  0  0  0  0  0  0  0
    5.4510    1.3410   -0.5140 C   0  0  0  0  0  0  0  0  0  0  0  0
    6.3310    1.1720    0.3740 O   0  0  0  0  0  0  0  0  0  0  0  0
    5.8350    1.9260   -1.7120 O   0  0  0  0  0  0  0  0  0  0  0  0
  2  1  1  6
  2  3  1  0
  2  9  1  0
  3  4  1  0
  4  5  1  0
  5  6  1  0
  5  7  1  0
  7  8  1  0
  8  9  1  0
  9 10  1  1
  9 11  1  0
 11 12  2  0
 11 13  1  0
 13 14  1  0
 14 15  1  0
 15 16  1  0
 16 17  1  0
 17 18  1  0
 18 19  2  0
 18 20  1  0
M  END
