
     RDKit          3D

 20 21  0  0  0  0  0  0  0  0999 V2000
   -0.8290   -3.6760    1.4950 N   0  0  0  0  0  0  0  0  0  0  0  0
   -1.2880   -2.6040    0.9650 C   0  0  0  0  0  0  0  0  0  0  0  0
   -0.4390   -1.9030    0.0570 N   0  0  0  0  0  0  0  0  0  0  0  0
   -0.5530   -0.6980   -0.3860 C   0  0  0  0  0  0  0  0  0  0  0  0
    0.4760   -0.2280   -1.3220 C   0  0  0  0  0  0  0  0  0  0  0  0
    1.4930   -0.9640   -1.7260 C   0  0  0  0  0  0  0  0  0  0  0  0
    2.2930   -0.2380   -2.6110 O   0  0  0  0  0  0  0  0  0  0  0  0
    1.9210    1.1170   -2.4430 C   0  0  2  0  0  0  0  0  0  0  0  0
    2.8370    1.8300   -1.4700 C   0  0  0  0  0  0  0  0  0  0  0  0
    2.8020    1.2290   -0.2140 O   0  0  0  0  0  0  0  0  0  0  0  0
    3.8660    2.0910    0.8430 P   0  0  0  0  0  0  0  0  0  0  0  0
    3.9090    1.2640    2.3730 O   0  0  0  0  0  0  0  0  0  0  0  0
    5.4610    2.0630    0.1850 O   0  0  0  0  0  0  0  0  0  0  0  0
    0.6050    0.9860   -1.9410 O   0  0  0  0  0  0  0  0  0  0  0  0
   -1.5650    0.1900   -0.0510 O   0  0  0  0  0  0  0  0  0  0  0  0
   -2.3680    0.2130    1.0930 C   0  0  0  0  0  0  0  0  0  0  0  0
   -3.2600   -0.9930    1.2280 C   0  0  1  0  0  0  0  0  0  0  0  0
   -4.2660   -0.9700    0.0860 C   0  0  0  0  0  0  0  0  0  0  0  0
   -4.9350    0.2510    0.0350 O   0  0  0  0  0  0  0  0  0  0  0  0
   -2.5730   -2.1990    1.3080 O   0  0  0  0  0  0  0  0  0  0  0  0
  1  2  2  0
  2  3  1  0
  2 20  1  0
  3  4  2  0
  4  5  1  0
  4 15  1  0
  5  6  2  0
  5 14  1  0
  6  7  1  0
  7  8  1  0
  8  9  1  1
  8 14  1  0
  9 10  1  0
 10 11  1  0
 11 12  1  0
 11 13  1  0
 15 16  1  0
 16 17  1  0
 17 18  1  6
 17 20  1  0
 18 19  1  0
M  END
