
     RDKit          3D

 20 21  0  0  0  0  0  0  0  0999 V2000
    5.9150    2.0390    1.7890 O   0  0  0  0  0  0  0  0  0  0  0  0
    4.8410    1.5530    1.3730 C   0  0  0  0  0  0  0  0  0  0  0  0
    4.5440    1.4100   -0.0210 N   0  0  0  0  0  0  0  0  0  0  0  0
    3.2140    0.8340   -0.1280 C   0  0  0  0  0  0  0  0  0  0  0  0
    2.6380    1.1840    1.2420 C   0  0  1  0  0  0  0  0  0  0  0  0
    1.5910    0.1740    1.5460 C   0  0  0  0  0  0  0  0  0  0  0  0
    1.7570   -0.6420    2.4730 O   0  0  0  0  0  0  0  0  0  0  0  0
    0.4480    0.1890    0.7590 O   0  0  0  0  0  0  0  0  0  0  0  0
   -0.5660   -0.7340    0.9990 C   0  0  1  0  0  0  0  0  0  0  0  0
   -1.8870   -0.0820    1.2540 C   0  0  0  0  0  0  0  0  0  0  0  0
   -2.1330    0.9800    1.8000 O   0  0  0  0  0  0  0  0  0  0  0  0
   -2.8990   -1.0050    0.6970 C   0  0  0  0  0  0  0  0  0  0  0  0
   -2.2550   -1.4200   -0.5510 N   0  0  0  0  0  0  0  0  0  0  0  0
   -2.9060   -1.7240   -1.8130 C   0  0  0  0  0  0  0  0  0  0  0  0
   -3.0110   -0.1510   -2.7890 P   0  0  0  0  0  0  0  0  0  0  0  0
   -4.0770    0.9870   -2.1000 O   0  0  0  0  0  0  0  0  0  0  0  0
   -1.4830    0.4630   -3.2230 O   0  0  0  0  0  0  0  0  0  0  0  0
   -0.8530   -1.4630   -0.2730 C   0  0  0  0  0  0  0  0  0  0  0  0
    0.0170   -2.0250   -0.9810 O   0  0  0  0  0  0  0  0  0  0  0  0
    3.7480    1.0660    2.1080 O   0  0  0  0  0  0  0  0  0  0  0  0
  1  2  2  0
  2  3  1  0
  2 20  1  0
  3  4  1  0
  4  5  1  0
  5  6  1  1
  5 20  1  0
  6  7  2  0
  6  8  1  0
  9  8  1  6
  9 10  1  0
  9 18  1  0
 10 11  2  0
 10 12  1  0
 12 13  1  0
 13 14  1  0
 13 18  1  0
 14 15  1  0
 15 16  1  0
 15 17  1  0
 18 19  2  0
M  END
