
     RDKit          3D

 13 13  0  0  0  0  0  0  0  0999 V2000
    4.7940    0.9050   -0.4030 O   0  0  0  0  0  0  0  0  0  0  0  0
    4.0650   -0.6680   -0.4740 P   0  0  0  0  0  0  0  0  0  0  0  0
    3.5520   -1.0570   -2.0790 O   0  0  0  0  0  0  0  0  0  0  0  0
    2.7040   -0.8360    0.7590 C   0  0  0  0  0  0  0  0  0  0  0  0
    1.5170    0.0540    0.4480 C   0  0  0  0  0  0  0  0  0  0  0  0
    0.5420   -0.1750    1.4800 N   0  0  0  0  0  0  0  0  0  0  0  0
   -0.6450    0.6000    1.3380 C   0  0  0  0  0  0  0  0  0  0  0  0
   -1.4560    0.1810    0.1460 C   0  0  2  0  0  0  0  0  0  0  0  0
   -2.7840    0.9460    0.0850 C   0  0  0  0  0  0  0  0  0  0  0  0
   -3.8260   -0.0200   -0.3960 C   0  0  0  0  0  0  0  0  0  0  0  0
   -3.3360   -0.9630   -1.2850 O   0  0  0  0  0  0  0  0  0  0  0  0
   -2.3300   -1.6490   -0.8100 O   0  0  0  0  0  0  0  0  0  0  0  0
   -1.8240   -1.1720    0.2960 O   0  0  0  0  0  0  0  0  0  0  0  0
  1  2  1  0
  2  3  1  0
  2  4  1  0
  4  5  1  0
  5  6  1  0
  6  7  1  0
  8  7  1  1
  8  9  1  0
  8 13  1  0
  9 10  1  0
 10 11  1  0
 11 12  1  0
 12 13  1  0
M  END
