
     RDKit          3D

 12 11  0  0  0  0  0  0  0  0999 V2000
   -2.5840   -1.2390    0.4580 C   0  0  0  0  0  0  0  0  0  0  0  0
   -1.6980   -0.0540    0.7450 C   0  0  2  0  0  0  0  0  0  0  0  0
   -2.5840    1.1910    0.6460 C   0  0  0  0  0  0  0  0  0  0  0  0
   -0.5620    0.0950   -0.0470 N   0  0  0  0  0  0  0  0  0  0  0  0
   -0.7020    0.3010   -1.4200 C   0  0  0  0  0  0  0  0  0  0  0  0
   -1.3620   -0.7650   -2.0650 O   0  0  0  0  0  0  0  0  0  0  0  0
    0.6920    0.1320    0.5600 C   0  0  0  0  0  0  0  0  0  0  0  0
    1.8490    0.2820   -0.3540 C   0  0  2  0  0  0  0  0  0  0  0  0
    1.9450   -0.7640   -1.2750 O   0  0  0  0  0  0  0  0  0  0  0  0
    3.4750    0.2670    0.5930 P   0  0  0  0  0  0  0  0  0  0  0  0
    4.4870    1.5760    0.1190 O   0  0  0  0  0  0  0  0  0  0  0  0
    4.3500   -1.2070    0.3160 O   0  0  0  0  0  0  0  0  0  0  0  0
  2  1  1  6
  2  3  1  0
  2  4  1  0
  4  5  1  0
  4  7  1  0
  5  6  1  0
  7  8  1  0
  8  9  1  6
  8 10  1  0
 10 11  1  0
 10 12  1  0
M  END
