
     RDKit          3D

 12 11  0  0  0  0  0  0  0  0999 V2000
    3.5620   -0.4300   -0.1120 C   0  0  0  0  0  0  0  0  0  0  0  0
    2.7180    0.5430   -0.9090 C   0  0  0  0  0  0  0  0  0  0  0  0
    1.3980    0.6870   -0.1850 C   0  0  0  0  0  0  0  0  0  0  0  0
    0.6890   -0.5470   -0.0630 N   0  0  0  0  0  0  0  0  0  0  0  0
   -0.5500   -0.2790    0.6400 C   0  0  2  0  0  0  0  0  0  0  0  0
   -1.0720   -1.6320    1.1340 C   0  0  0  0  0  0  0  0  0  0  0  0
   -1.2680   -2.4170    0.0100 O   0  0  0  0  0  0  0  0  0  0  0  0
   -1.5430    0.3450   -0.2830 C   0  0  0  0  0  0  0  0  0  0  0  0
   -1.2220    0.5320   -1.4410 O   0  0  0  0  0  0  0  0  0  0  0  0
   -3.1860    0.7890    0.3890 P   0  0  0  0  0  0  0  0  0  0  0  0
   -4.3860    0.6890   -0.8610 O   0  0  0  0  0  0  0  0  0  0  0  0
   -3.1670    2.3640    1.1170 O   0  0  0  0  0  0  0  0  0  0  0  0
  1  2  1  0
  2  3  1  0
  3  4  1  0
  4  5  1  0
  5  6  1  6
  5  8  1  0
  6  7  1  0
  8  9  2  0
  8 10  1  0
 10 11  1  0
 10 12  1  0
M  END
