
     RDKit          3D

 25 28  0  0  0  0  0  0  0  0999 V2000
   -4.0770   -0.9300   -2.1160 C   0  0  0  0  0  0  0  0  0  0  0  0
   -5.2120   -0.5390   -1.2190 C   0  0  0  0  0  0  0  0  0  0  0  0
   -4.7540   -0.1040    0.1590 C   0  0  1  0  0  0  0  0  0  0  0  0
   -6.0350    0.2540    0.9260 C   0  0  0  0  0  0  0  0  0  0  0  0
   -4.1120   -1.2330    0.9130 C   0  0  0  0  0  0  0  0  0  0  0  0
   -3.2240   -0.6030    1.9830 C   0  0  0  0  0  0  0  0  0  0  0  0
   -2.1550    0.0590    1.2190 N   0  0  0  0  0  0  0  0  0  0  0  0
   -0.8240    0.0060    1.2380 C   0  0  0  0  0  0  0  0  0  0  0  0
   -0.1560   -0.7180    2.0190 O   0  0  0  0  0  0  0  0  0  0  0  0
   -0.3290    0.8380    0.3040 N   0  0  0  0  0  0  0  0  0  0  0  0
    1.0920    1.0450    0.0310 C   0  0  0  0  0  0  0  0  0  0  0  0
    1.6070    0.1070   -1.0020 C   0  0  0  0  0  0  0  0  0  0  0  0
    3.0520    0.3780   -1.2190 C   0  0  0  0  0  0  0  0  0  0  0  0
    3.5660    1.0700   -2.2790 N   0  0  0  0  0  0  0  0  0  0  0  0
    4.8700    1.1470   -2.1870 N   0  0  0  0  0  0  0  0  0  0  0  0
    5.2980    0.5250   -1.0840 C   0  0  0  0  0  0  0  0  0  0  0  0
    4.1540    0.0330   -0.4620 C   0  0  0  0  0  0  0  0  0  0  0  0
    4.2570   -0.7250    0.8010 C   0  0  0  0  0  0  0  0  0  0  0  0
    5.6090   -0.6140    1.4520 C   0  0  0  0  0  0  0  0  0  0  0  0
    6.7190   -0.7850    0.4420 C   0  0  0  0  0  0  0  0  0  0  0  0
    6.6650    0.3500   -0.5620 C   0  0  0  0  0  0  0  0  0  0  0  0
   -1.4000    1.3950   -0.2800 C   0  0  0  0  0  0  0  0  0  0  0  0
   -1.3420    2.2280   -1.2030 O   0  0  0  0  0  0  0  0  0  0  0  0
   -2.5280    0.9110    0.2880 N   0  0  0  0  0  0  0  0  0  0  0  0
   -3.9330    1.1380    0.0810 C   0  0  0  0  0  0  0  0  0  0  0  0
  1  2  1  0
  2  3  1  0
  3  4  1  1
  3  5  1  0
  3 25  1  0
  5  6  1  0
  6  7  1  0
  7  8  1  0
  7 24  1  0
  8  9  2  0
  8 10  1  0
 10 11  1  0
 10 22  1  0
 11 12  1  0
 12 13  1  0
 13 14  2  0
 13 17  1  0
 14 15  1  0
 15 16  1  0
 16 17  2  0
 16 21  1  0
 17 18  1  0
 18 19  1  0
 19 20  1  0
 20 21  1  0
 22 23  2  0
 22 24  1  0
 24 25  1  0
M  END
