
     RDKit          3D

 24 27  0  0  0  0  0  0  0  0999 V2000
    6.0420   -1.0260    3.2190 C   0  0  0  0  0  0  0  0  0  0  0  0
    5.8180   -0.3450    1.9570 N   0  0  0  0  0  0  0  0  0  0  0  0
    6.7520    0.1830    1.2010 N   0  0  0  0  0  0  0  0  0  0  0  0
    6.2420    0.7440    0.0990 C   0  0  0  0  0  0  0  0  0  0  0  0
    4.8640    0.5620    0.1480 C   0  0  0  0  0  0  0  0  0  0  0  0
    3.6900    0.7920   -0.4970 N   0  0  0  0  0  0  0  0  0  0  0  0
    2.7630    0.2440    0.2970 C   0  0  0  0  0  0  0  0  0  0  0  0
    1.2950    0.2380    0.0130 C   0  0  0  0  0  0  0  0  0  0  0  0
    0.8870   -0.9110   -0.7150 N   0  0  0  0  0  0  0  0  0  0  0  0
    1.5550   -1.0750   -1.9850 C   0  0  0  0  0  0  0  0  0  0  0  0
    0.9320   -0.2850   -3.0890 C   0  0  0  0  0  0  0  0  0  0  0  0
    0.3330    0.8340   -2.5220 O   0  0  0  0  0  0  0  0  0  0  0  0
   -0.8100    0.4860   -1.7850 C   0  0  0  0  0  0  0  0  0  0  0  0
   -0.5460   -0.7670   -1.0470 C   0  0  2  0  0  0  0  0  0  0  0  0
   -1.4070   -1.1140    0.1040 C   0  0  0  0  0  0  0  0  0  0  0  0
   -2.8680   -1.0350   -0.0320 C   0  0  0  0  0  0  0  0  0  0  0  0
   -3.5290    0.2490   -0.3120 C   0  0  2  0  0  0  0  0  0  0  0  0
   -3.2890    1.3150    0.7320 C   0  0  0  0  0  0  0  0  0  0  0  0
   -4.1030    1.0050    1.9390 C   0  0  0  0  0  0  0  0  0  0  0  0
   -5.4130    1.4330    1.6820 O   0  0  0  0  0  0  0  0  0  0  0  0
   -5.7780    1.1660    0.3630 C   0  0  0  0  0  0  0  0  0  0  0  0
   -5.0480   -0.0470   -0.1760 C   0  0  0  0  0  0  0  0  0  0  0  0
    3.3120   -0.3060    1.3880 N   0  0  0  0  0  0  0  0  0  0  0  0
    4.6450   -0.1240    1.3300 C   0  0  0  0  0  0  0  0  0  0  0  0
  1  2  1  0
  2  3  1  0
  2 24  1  0
  3  4  2  0
  4  5  1  0
  5  6  1  0
  5 24  2  0
  6  7  1  0
  7  8  1  0
  7 23  2  0
  8  9  1  0
  9 10  1  0
  9 14  1  0
 10 11  1  0
 11 12  1  0
 12 13  1  0
 13 14  1  0
 14 15  1  1
 15 16  1  0
 17 16  1  1
 17 18  1  0
 17 22  1  0
 18 19  1  0
 19 20  1  0
 20 21  1  0
 21 22  1  0
 23 24  1  0
M  END
