
     RDKit          3D

 25 28  0  0  0  0  0  0  0  0999 V2000
    7.3380    0.9030   -0.2240 C   0  0  0  0  0  0  0  0  0  0  0  0
    6.2570    0.6030   -1.2450 C   0  0  0  0  0  0  0  0  0  0  0  0
    5.6420   -0.7110   -1.0180 C   0  0  0  0  0  0  0  0  0  0  0  0
    4.3580   -0.9460   -0.7580 C   0  0  0  0  0  0  0  0  0  0  0  0
    3.3610    0.0840   -0.6600 C   0  0  0  0  0  0  0  0  0  0  0  0
    2.0860   -0.1100   -0.4060 C   0  0  0  0  0  0  0  0  0  0  0  0
    1.4660   -1.3960   -0.1820 C   0  0  0  0  0  0  0  0  0  0  0  0
    2.0950   -2.4790   -0.2080 O   0  0  0  0  0  0  0  0  0  0  0  0
    0.0550   -1.4680    0.0860 N   0  0  0  0  0  0  0  0  0  0  0  0
   -0.5670   -2.7430    0.3100 C   0  0  0  0  0  0  0  0  0  0  0  0
   -1.8560   -2.8300    0.5570 C   0  0  0  0  0  0  0  0  0  0  0  0
   -2.6470   -1.6010    0.6010 C   0  0  0  0  0  0  0  0  0  0  0  0
   -2.1480   -0.4000    0.4060 C   0  0  0  0  0  0  0  0  0  0  0  0
   -2.9120    0.8640    0.4420 C   0  0  0  0  0  0  0  0  0  0  0  0
   -4.2530    0.7320    1.1030 C   0  0  1  0  0  0  0  0  0  0  0  0
   -5.1650    1.6610    0.4660 N   0  0  0  0  0  0  0  0  0  0  0  0
   -6.2940    0.9250   -0.0190 C   0  0  0  0  0  0  0  0  0  0  0  0
   -6.2660   -0.3450    0.8070 C   0  0  0  0  0  0  0  0  0  0  0  0
   -4.8430   -0.5760    0.9230 N   0  0  0  0  0  0  0  0  0  0  0  0
   -4.0830   -1.7710    0.8830 C   0  0  0  0  0  0  0  0  0  0  0  0
   -4.5950   -2.9070    1.0740 O   0  0  0  0  0  0  0  0  0  0  0  0
   -0.7060   -0.2740    0.1270 C   0  0  0  0  0  0  0  0  0  0  0  0
   -0.1290    0.8510   -0.0750 N   0  0  0  0  0  0  0  0  0  0  0  0
    1.2150    1.0440   -0.3420 N   0  0  0  0  0  0  0  0  0  0  0  0
    1.7600    2.3970   -0.5580 C   0  0  0  0  0  0  0  0  0  0  0  0
  1  2  1  0
  2  3  1  0
  3  4  2  3
  4  5  1  0
  5  6  2  3
  6  7  1  0
  6 24  1  0
  7  8  2  0
  7  9  1  0
  9 10  1  0
  9 22  1  0
 10 11  2  0
 11 12  1  0
 12 13  2  0
 12 20  1  0
 13 14  1  0
 13 22  1  0
 15 14  1  6
 15 16  1  0
 15 19  1  0
 16 17  1  0
 17 18  1  0
 18 19  1  0
 19 20  1  0
 20 21  2  0
 22 23  2  0
 23 24  1  0
 24 25  1  0
M  END
