
     RDKit          3D

 23 23  0  0  0  0  0  0  0  0999 V2000
   -4.7340   -1.2420   -0.8930 O   0  0  0  0  0  0  0  0  0  0  0  0
   -3.7540   -1.7770   -1.4220 C   0  0  0  0  0  0  0  0  0  0  0  0
   -4.0390   -2.6440   -2.4990 O   0  0  0  0  0  0  0  0  0  0  0  0
   -2.3350   -1.6250   -1.0740 C   0  0  0  0  0  0  0  0  0  0  0  0
   -2.0420   -0.8620    0.1890 C   0  0  1  0  0  0  0  0  0  0  0  0
   -2.6280   -1.5970    1.3610 C   0  0  0  0  0  0  0  0  0  0  0  0
   -3.9650   -1.8210    1.3620 O   0  0  0  0  0  0  0  0  0  0  0  0
   -0.5440   -0.9040    0.3650 C   0  0  0  0  0  0  0  0  0  0  0  0
   -0.0100    0.2770    1.1140 C   0  0  1  0  0  0  0  0  0  0  0  0
   -0.6140    0.4090    2.3840 O   0  0  0  0  0  0  0  0  0  0  0  0
    1.3890    0.1580    1.2960 N   0  0  0  0  0  0  0  0  0  0  0  0
    2.3460    0.0810    0.2570 C   0  0  0  0  0  0  0  0  0  0  0  0
    1.9510    0.1180   -0.9100 O   0  0  0  0  0  0  0  0  0  0  0  0
    3.7100   -0.0350    0.4810 O   0  0  0  0  0  0  0  0  0  0  0  0
    4.6590   -0.1120   -0.5550 C   0  0  0  0  0  0  0  0  0  0  0  0
    4.4420   -1.3070   -1.4520 C   0  0  0  0  0  0  0  0  0  0  0  0
    5.4170   -1.3100   -2.4460 O   0  0  0  0  0  0  0  0  0  0  0  0
   -0.4440    1.4970    0.3470 C   0  0  2  0  0  0  0  0  0  0  0  0
   -0.0490    2.6810    0.9810 O   0  0  0  0  0  0  0  0  0  0  0  0
    0.6260    3.5180    0.1050 C   0  0  0  0  0  0  0  0  0  0  0  0
   -0.1970    3.8530   -0.9690 O   0  0  0  0  0  0  0  0  0  0  0  0
   -1.9520    1.4880    0.3920 C   0  0  0  0  0  0  0  0  0  0  0  0
   -2.5690    0.3840    0.0110 O   0  0  0  0  0  0  0  0  0  0  0  0
  1  2  2  0
  2  3  1  0
  2  4  1  0
  5  4  1  6
  5  6  1  0
  5  8  1  0
  5 23  1  0
  6  7  1  0
  8  9  1  0
  9 10  1  1
  9 11  1  0
  9 18  1  0
 11 12  1  0
 12 13  2  0
 12 14  1  0
 14 15  1  0
 15 16  1  0
 16 17  1  0
 18 19  1  1
 18 22  1  0
 19 20  1  0
 20 21  1  0
 22 23  1  0
M  END
