
     RDKit          3D

 25 27  0  0  0  0  0  0  0  0999 V2000
   -2.0370   -1.7230   -2.9720 C   0  0  0  0  0  0  0  0  0  0  0  0
   -2.3440   -1.4060   -1.5340 C   0  0  0  0  0  0  0  0  0  0  0  0
   -1.3810   -0.8950   -0.8110 C   0  0  0  0  0  0  0  0  0  0  0  0
   -1.6470   -0.5770    0.5840 C   0  0  0  0  0  0  0  0  0  0  0  0
   -0.7340   -0.0700    1.3520 N   0  0  0  0  0  0  0  0  0  0  0  0
    0.5420    0.1680    0.7850 C   0  0  0  0  0  0  0  0  0  0  0  0
    1.4200   -0.7630    0.8330 N   0  0  0  0  0  0  0  0  0  0  0  0
    2.7280   -0.6490    0.3040 C   0  0  0  0  0  0  0  0  0  0  0  0
    3.0920   -1.3710   -0.7450 C   0  0  0  0  0  0  0  0  0  0  0  0
    4.3710   -1.3910   -1.4200 C   0  0  0  0  0  0  0  0  0  0  0  0
    4.2690   -2.2580   -2.4060 C   0  0  0  0  0  0  0  0  0  0  0  0
    2.9660   -2.8160   -2.4100 N   0  0  0  0  0  0  0  0  0  0  0  0
    2.2480   -2.3250   -1.4560 C   0  0  0  0  0  0  0  0  0  0  0  0
    0.8030    1.4960    0.1570 C   0  0  1  0  0  0  0  0  0  0  0  0
    0.6250    2.5410    1.1960 C   0  0  0  0  0  0  0  0  0  0  0  0
    1.1950    3.8240    0.8590 N   0  0  0  0  0  0  0  0  0  0  0  0
    1.7470    3.7550   -0.5000 C   0  0  0  0  0  0  0  0  0  0  0  0
    2.7400    2.6070   -0.4590 C   0  0  0  0  0  0  0  0  0  0  0  0
    2.0210    1.4440   -0.4490 O   0  0  0  0  0  0  0  0  0  0  0  0
   -2.9890   -0.8450    1.1170 C   0  0  0  0  0  0  0  0  0  0  0  0
   -3.2310   -0.5610    2.3680 C   0  0  0  0  0  0  0  0  0  0  0  0
   -4.5310   -0.7760    3.0400 C   0  0  0  0  0  0  0  0  0  0  0  0
   -4.3890   -1.6620    4.1330 O   0  0  0  0  0  0  0  0  0  0  0  0
   -3.9680   -1.4060    0.2340 C   0  0  0  0  0  0  0  0  0  0  0  0
   -3.6360   -1.6590   -1.0080 N   0  0  0  0  0  0  0  0  0  0  0  0
  1  2  1  0
  2  3  2  0
  2 25  1  0
  3  4  1  0
  4  5  2  3
  4 20  1  0
  5  6  1  0
  6  7  2  3
 14  6  1  1
  7  8  1  0
  8  9  2  3
  9 10  1  0
  9 13  1  0
 10 11  2  0
 11 12  1  0
 12 13  2  0
 14 15  1  0
 14 19  1  0
 15 16  1  0
 16 17  1  0
 17 18  1  0
 18 19  1  0
 20 21  2  3
 20 24  1  0
 21 22  1  0
 22 23  1  0
 24 25  2  0
M  END
