
     RDKit          3D

 22 22  0  0  0  0  0  0  0  0999 V2000
    1.8850   -4.0820   -1.2060 C   0  0  0  0  0  0  0  0  0  0  0  0
    1.7460   -2.8180   -0.3810 C   0  0  1  0  0  0  0  0  0  0  0  0
    0.8950   -1.9510   -1.0220 O   0  0  0  0  0  0  0  0  0  0  0  0
    0.6100   -0.7990   -0.3630 C   0  0  1  0  0  0  0  0  0  0  0  0
    1.5520    0.2850   -0.8440 C   0  0  0  0  0  0  0  0  0  0  0  0
    1.2880    1.5070   -0.1800 O   0  0  0  0  0  0  0  0  0  0  0  0
    1.9880    2.6630   -0.4160 C   0  0  0  0  0  0  0  0  0  0  0  0
    2.9100    2.6340   -1.2650 O   0  0  0  0  0  0  0  0  0  0  0  0
    1.7200    3.9460    0.2730 C   0  0  0  0  0  0  0  0  0  0  0  0
    0.6710    3.8230    1.1850 O   0  0  0  0  0  0  0  0  0  0  0  0
   -0.7940   -0.3560   -0.7940 C   0  0  0  0  0  0  0  0  0  0  0  0
   -1.0770    0.8250   -0.1130 O   0  0  0  0  0  0  0  0  0  0  0  0
   -2.3120    1.3390   -0.4050 C   0  0  1  0  0  0  0  0  0  0  0  0
   -3.2430    1.3980    0.7840 C   0  0  0  0  0  0  0  0  0  0  0  0
   -3.4200    0.0840    1.2700 O   0  0  0  0  0  0  0  0  0  0  0  0
   -2.2700    2.7000   -1.0430 C   0  0  0  0  0  0  0  0  0  0  0  0
   -3.5850    3.1070   -1.2900 O   0  0  0  0  0  0  0  0  0  0  0  0
    0.6430   -0.8330    0.9940 O   0  0  0  0  0  0  0  0  0  0  0  0
    0.4220   -2.0390    1.5960 C   0  0  2  0  0  0  0  0  0  0  0  0
    0.9750   -1.9610    2.8910 O   0  0  0  0  0  0  0  0  0  0  0  0
    1.0720   -3.2120    0.9210 C   0  0  2  0  0  0  0  0  0  0  0  0
    2.0360   -3.8320    1.7160 O   0  0  0  0  0  0  0  0  0  0  0  0
  2  1  1  6
  2  3  1  0
  2 21  1  0
  3  4  1  0
  4  5  1  6
  4 11  1  0
  4 18  1  0
  5  6  1  0
  6  7  1  0
  7  8  2  0
  7  9  1  0
  9 10  1  0
 11 12  1  0
 12 13  1  0
 13 14  1  1
 13 16  1  0
 14 15  1  0
 16 17  1  0
 18 19  1  0
 19 20  1  1
 19 21  1  0
 21 22  1  1
M  END
