
     RDKit          3D

 23 24  0  0  0  0  0  0  0  0999 V2000
   -2.5130    5.8260    0.3920 C   0  0  0  0  0  0  0  0  0  0  0  0
   -1.1480    5.3900    0.4020 N   0  0  0  0  0  0  0  0  0  0  0  0
   -0.8650    4.1850    0.6260 C   0  0  0  0  0  0  0  0  0  0  0  0
   -1.8920    3.1990    0.8800 C   0  0  0  0  0  0  0  0  0  0  0  0
   -1.4600    1.8700    1.1220 N   0  0  0  0  0  0  0  0  0  0  0  0
   -0.3190    1.2320    0.5020 C   0  0  0  0  0  0  0  0  0  0  0  0
    0.7760    1.9070    0.2220 C   0  0  0  0  0  0  0  0  0  0  0  0
    0.8260    3.6520    0.6370 S   0  0  0  0  0  0  0  0  0  0  0  0
    1.9490    1.3510   -0.4430 C   0  0  0  0  0  0  0  0  0  0  0  0
    2.9890    1.9810   -0.7090 O   0  0  0  0  0  0  0  0  0  0  0  0
    1.8150   -0.0330   -0.7870 N   0  0  0  0  0  0  0  0  0  0  0  0
    2.9730   -0.8630   -0.9110 C   0  0  1  0  0  0  0  0  0  0  0  0
    3.8210   -0.2910   -1.9390 N   0  0  0  0  0  0  0  0  0  0  0  0
    3.6850   -0.8830    0.4330 C   0  0  0  0  0  0  0  0  0  0  0  0
    4.9090   -1.7450    0.3440 C   0  0  0  0  0  0  0  0  0  0  0  0
    5.5500   -1.7280    1.6550 N   0  0  0  0  0  0  0  0  0  0  0  0
    0.4410   -0.5330   -1.0030 C   0  0  0  0  0  0  0  0  0  0  0  0
   -0.3710   -0.2170    0.2260 C   0  0  2  0  0  0  0  0  0  0  0  0
   -1.7960   -0.6880    0.0180 C   0  0  0  0  0  0  0  0  0  0  0  0
   -1.8730   -2.1590   -0.2650 C   0  0  0  0  0  0  0  0  0  0  0  0
   -3.3560   -2.4920   -0.4510 C   0  0  1  0  0  0  0  0  0  0  0  0
   -3.5750   -3.9410   -0.7420 C   0  0  0  0  0  0  0  0  0  0  0  0
   -4.1640   -2.0750    0.7430 C   0  0  0  0  0  0  0  0  0  0  0  0
  1  2  1  0
  2  3  2  3
  3  4  1  0
  3  8  1  0
  4  5  1  0
  5  6  1  0
  6  7  2  0
  6 18  1  0
  7  8  1  0
  7  9  1  0
  9 10  2  0
  9 11  1  0
 11 12  1  0
 11 17  1  0
 12 13  1  6
 12 14  1  0
 14 15  1  0
 15 16  1  0
 17 18  1  0
 18 19  1  6
 19 20  1  0
 20 21  1  0
 21 22  1  1
 21 23  1  0
M  CHG  1  13   1
M  END
