
     RDKit          3D

 23 24  0  0  0  0  0  0  0  0999 V2000
    3.7300    2.2270   -2.5710 C   0  0  0  0  0  0  0  0  0  0  0  0
    4.3950    2.0610   -0.9140 S   0  0  0  0  0  0  0  0  0  0  0  0
    3.1420    1.4150    0.2560 C   0  0  0  0  0  0  0  0  0  0  0  0
    2.7880    0.0110   -0.1140 C   0  0  1  0  0  0  0  0  0  0  0  0
    4.0490   -0.8220   -0.0450 C   0  0  0  0  0  0  0  0  0  0  0  0
    3.9870   -1.8210    0.9960 N   0  0  0  0  0  0  0  0  0  0  0  0
    3.4970   -1.3010    2.2550 C   0  0  0  0  0  0  0  0  0  0  0  0
    2.0660   -0.9280    2.0960 C   0  0  0  0  0  0  0  0  0  0  0  0
    1.6690   -0.5800    0.6920 C   0  0  1  0  0  0  0  0  0  0  0  0
    0.5280    0.2480    0.6950 N   0  0  0  0  0  0  0  0  0  0  0  0
   -0.1220    0.5080   -0.5410 C   0  0  0  0  0  0  0  0  0  0  0  0
   -0.7910   -0.6190   -1.1620 C   0  0  0  0  0  0  0  0  0  0  0  0
   -2.0800   -0.5910   -1.3970 C   0  0  0  0  0  0  0  0  0  0  0  0
   -2.7930   -1.7300   -2.0310 C   0  0  0  0  0  0  0  0  0  0  0  0
   -2.8710    0.5510   -1.0460 N   0  0  0  0  0  0  0  0  0  0  0  0
   -4.0530    0.4560   -0.2930 C   0  0  0  0  0  0  0  0  0  0  0  0
   -4.0080    0.5180    1.0780 C   0  0  0  0  0  0  0  0  0  0  0  0
   -2.7590    0.6850    1.8430 C   0  0  0  0  0  0  0  0  0  0  0  0
   -5.1970    0.4210    1.8130 C   0  0  0  0  0  0  0  0  0  0  0  0
   -6.3450    0.2720    1.1730 N   0  0  0  0  0  0  0  0  0  0  0  0
   -6.3910    0.2120   -0.1440 N   0  0  0  0  0  0  0  0  0  0  0  0
   -5.2690    0.3010   -0.9050 C   0  0  0  0  0  0  0  0  0  0  0  0
   -5.4070    0.2340   -2.1440 O   0  0  0  0  0  0  0  0  0  0  0  0
  1  2  1  0
  2  3  1  0
  4  3  1  1
  4  5  1  0
  4  9  1  0
  5  6  1  0
  6  7  1  0
  7  8  1  0
  8  9  1  0
  9 10  1  1
 10 11  1  0
 11 12  1  0
 12 13  2  3
 13 14  1  0
 13 15  1  0
 15 16  1  0
 16 17  2  0
 16 22  1  0
 17 18  1  0
 17 19  1  0
 19 20  2  0
 20 21  1  0
 21 22  1  0
 22 23  2  0
M  CHG  1   6   1
M  END
