
     RDKit          3D

 36 39  0  0  0  0  0  0  0  0999 V2000
    0.8640    3.3340    0.8160 C   0  0  0  0  0  0  0  0  0  0  0  0
   -0.5440    3.0130    0.4870 C   0  0  1  0  0  0  0  0  0  0  0  0
   -1.2730    4.0570   -0.3360 C   0  0  0  0  0  0  0  0  0  0  0  0
   -2.7060    4.0700    0.0780 C   0  0  0  0  0  0  0  0  0  0  0  0
   -3.5890    3.0760   -0.6120 C   0  0  0  0  0  0  0  0  0  0  0  0
   -3.1850    1.6470   -0.3690 C   0  0  0  0  0  0  0  0  0  0  0  0
   -2.0010    1.0570   -0.2320 C   0  0  0  0  0  0  0  0  0  0  0  0
   -2.1990   -0.3860   -0.0080 C   0  0  0  0  0  0  0  0  0  0  0  0
   -3.1200   -1.1290   -0.7140 N   0  0  0  0  0  0  0  0  0  0  0  0
   -4.4570   -1.2680   -0.1920 C   0  0  0  0  0  0  0  0  0  0  0  0
   -4.8360   -2.7070   -0.2200 C   0  0  0  0  0  0  0  0  0  0  0  0
   -3.9060   -3.2910   -1.2350 C   0  0  0  0  0  0  0  0  0  0  0  0
   -2.7580   -2.3120   -1.3790 C   0  0  2  0  0  0  0  0  0  0  0  0
   -1.4480   -2.9160   -1.3270 C   0  0  0  0  0  0  0  0  0  0  0  0
   -0.7050   -3.1650   -0.1450 N   0  0  0  0  0  0  0  0  0  0  0  0
   -1.3040   -3.5660    1.1160 C   0  0  2  0  0  0  0  0  0  0  0  0
   -0.5940   -3.7050    2.3730 C   0  0  0  0  0  0  0  0  0  0  0  0
   -0.8740   -4.9540    1.6820 C   0  0  0  0  0  0  0  0  0  0  0  0
    0.7220   -3.0560   -0.1490 C   0  0  0  0  0  0  0  0  0  0  0  0
    1.4160   -4.0250    0.3960 O   0  0  0  0  0  0  0  0  0  0  0  0
    1.5140   -2.0370   -0.6680 N   0  0  0  0  0  0  0  0  0  0  0  0
    1.6370   -0.6290   -0.2970 C   0  0  1  0  0  0  0  0  0  0  0  0
    3.0470   -0.4420    0.0660 C   0  0  0  0  0  0  0  0  0  0  0  0
    3.6720   -1.5090    0.4280 O   0  0  0  0  0  0  0  0  0  0  0  0
    3.8110    0.7250    0.0720 N   0  0  0  0  0  0  0  0  0  0  0  0
    5.2070    0.7010    0.4760 C   0  0  0  0  0  0  0  0  0  0  0  0
    5.8110    2.0480    0.3390 C   0  0  0  0  0  0  0  0  0  0  0  0
    6.2810    2.6570    1.4010 C   0  0  0  0  0  0  0  0  0  0  0  0
    6.1970    1.8850    2.9950 S   0  0  0  0  0  0  0  0  0  0  0  0
    5.8850    2.6590   -1.0270 C   0  0  1  0  0  0  0  0  0  0  0  0
    6.5830    1.8720   -1.8900 F   0  0  0  0  0  0  0  0  0  0  0  0
    4.6200    2.9230   -1.4710 F   0  0  0  0  0  0  0  0  0  0  0  0
    1.0400    0.2010   -1.3400 C   0  0  0  0  0  0  0  0  0  0  0  0
    0.4370    1.4910   -0.9730 C   0  0  0  0  0  0  0  0  0  0  0  0
    1.1670    2.4930   -1.4070 O   0  0  0  0  0  0  0  0  0  0  0  0
   -0.7430    1.7600   -0.2680 N   0  0  0  0  0  0  0  0  0  0  0  0
  2  1  1  6
  2  3  1  0
  2 36  1  0
  3  4  1  0
  4  5  1  0
  5  6  1  0
  6  7  2  0
  7  8  1  0
  7 36  1  0
  8  9  1  0
  9 10  1  0
  9 13  1  0
 10 11  1  0
 11 12  1  0
 13 12  1  1
 13 14  1  0
 14 15  1  0
 16 15  1  6
 15 19  1  0
 16 17  1  0
 16 18  1  0
 17 18  1  0
 19 20  2  0
 19 21  1  0
 21 22  1  0
 22 23  1  6
 22 33  1  0
 23 24  2  0
 23 25  1  0
 25 26  1  0
 26 27  1  0
 27 28  2  3
 27 30  1  0
 28 29  1  0
 30 31  1  6
 30 32  1  0
 33 34  1  0
 34 35  2  0
 34 36  1  0
M  END
