
     RDKit          3D

 37 40  0  0  0  0  0  0  0  0999 V2000
    7.8300   -2.1520    0.8170 C   0  0  0  0  0  0  0  0  0  0  0  0
    6.9550   -1.0180    1.0140 N   0  0  0  0  0  0  0  0  0  0  0  0
    5.6700   -1.1520    1.6240 C   0  0  0  0  0  0  0  0  0  0  0  0
    4.6140   -1.2950    0.5840 C   0  0  0  0  0  0  0  0  0  0  0  0
    3.4980   -0.4850    0.4210 C   0  0  0  0  0  0  0  0  0  0  0  0
    2.6350   -0.7000   -0.5220 C   0  0  0  0  0  0  0  0  0  0  0  0
    1.3710   -0.1140   -0.7630 N   0  0  0  0  0  0  0  0  0  0  0  0
    0.7410    0.7530    0.2110 C   0  0  0  0  0  0  0  0  0  0  0  0
    1.3240    1.0720    1.2370 O   0  0  0  0  0  0  0  0  0  0  0  0
   -0.5620    1.1740   -0.0400 N   0  0  0  0  0  0  0  0  0  0  0  0
   -1.4800    1.9420    0.8240 C   0  0  0  0  0  0  0  0  0  0  0  0
   -2.7850    1.6310    0.0820 C   0  0  0  0  0  0  0  0  0  0  0  0
   -2.7150    1.7060   -1.2740 C   0  0  0  0  0  0  0  0  0  0  0  0
   -3.7560    1.2700   -2.0670 C   0  0  0  0  0  0  0  0  0  0  0  0
   -4.8570    0.7560   -1.4210 C   0  0  0  0  0  0  0  0  0  0  0  0
   -4.9150    0.6900   -0.0420 C   0  0  0  0  0  0  0  0  0  0  0  0
   -3.8920    1.1340    0.7830 C   0  0  0  0  0  0  0  0  0  0  0  0
   -3.8310    1.1460    2.1020 O   0  0  0  0  0  0  0  0  0  0  0  0
   -6.1320   -0.0820    0.2970 C   0  0  0  0  0  0  0  0  0  0  0  0
   -6.7700   -0.4520   -0.9020 C   0  0  0  0  0  0  0  0  0  0  0  0
   -7.8910   -1.2340   -0.8710 C   0  0  0  0  0  0  0  0  0  0  0  0
   -8.4320   -1.6820    0.3050 C   0  0  0  0  0  0  0  0  0  0  0  0
   -7.8080   -1.3190    1.4880 C   0  0  0  0  0  0  0  0  0  0  0  0
   -6.6560   -0.5130    1.4900 C   0  0  0  0  0  0  0  0  0  0  0  0
   -6.1110   -0.1640    2.8270 C   0  0  1  0  0  0  0  0  0  0  0  0
   -7.0090   -0.7980    3.7770 F   0  0  0  0  0  0  0  0  0  0  0  0
   -4.9520   -0.8300    3.1780 F   0  0  0  0  0  0  0  0  0  0  0  0
   -6.2510    1.1390    3.1890 F   0  0  0  0  0  0  0  0  0  0  0  0
   -5.9880    0.0670   -2.0060 C   0  0  0  0  0  0  0  0  0  0  0  0
   -6.2500   -0.0730   -3.3010 C   0  0  0  0  0  0  0  0  0  0  0  0
   -7.3100   -0.7270   -3.8120 F   0  0  0  0  0  0  0  0  0  0  0  0
    2.9400   -1.8390   -1.3750 N   0  0  0  0  0  0  0  0  0  0  0  0
    4.4590   -2.4590   -0.6840 S   0  0  0  0  0  0  0  0  0  0  0  0
    7.4150    0.2670    0.6200 C   0  0  0  0  0  0  0  0  0  0  0  0
    6.7650    1.3150    0.7050 O   0  0  0  0  0  0  0  0  0  0  0  0
    8.8010    0.3060    0.0650 C   0  0  0  0  0  0  0  0  0  0  0  0
    9.2060    1.6170   -0.4000 N   0  0  0  0  0  0  0  0  0  0  0  0
  1  2  1  0
  2  3  1  0
  2 34  1  0
  3  4  1  0
  4  5  2  0
  4 33  1  0
  5  6  1  0
  6  7  1  0
  6 32  2  0
  7  8  1  0
  8  9  2  0
  8 10  1  0
 10 11  1  0
 11 12  1  0
 12 13  2  0
 12 17  1  0
 13 14  1  0
 14 15  2  0
 15 16  1  0
 15 29  1  0
 16 17  2  0
 16 19  1  0
 17 18  1  0
 19 20  2  0
 19 24  1  0
 20 21  1  0
 20 29  1  0
 21 22  2  0
 22 23  1  0
 23 24  2  0
 24 25  1  0
 25 26  1  1
 25 27  1  0
 25 28  1  0
 29 30  2  3
 30 31  1  0
 32 33  1  0
 34 35  2  0
 34 36  1  0
 36 37  1  0
M  CHG  1  37   1
M  END
