
     RDKit          3D

 36 40  0  0  0  0  0  0  0  0999 V2000
    3.3630   -2.5080   -0.3910 C   0  0  0  0  0  0  0  0  0  0  0  0
    3.7210   -1.0990   -0.1340 C   0  0  0  0  0  0  0  0  0  0  0  0
    2.7560   -0.1950    0.0750 C   0  0  0  0  0  0  0  0  0  0  0  0
    1.3660   -0.6310    0.0380 C   0  0  0  0  0  0  0  0  0  0  0  0
    0.4520    0.5420   -0.2360 C   0  0  1  0  0  0  0  0  0  0  0  0
   -0.9330    0.2100   -0.0300 N   0  0  0  0  0  0  0  0  0  0  0  0
   -1.8350    0.2380   -1.1170 C   0  0  0  0  0  0  0  0  0  0  0  0
   -1.3460    0.5730   -2.2570 O   0  0  0  0  0  0  0  0  0  0  0  0
   -3.2820   -0.0870   -1.0290 C   0  0  0  0  0  0  0  0  0  0  0  0
   -3.6470   -0.5840    0.6610 S   0  0  0  0  0  0  0  0  0  0  0  0
   -2.7900   -1.7870    1.0610 O   0  0  0  0  0  0  0  0  0  0  0  0
   -5.4000   -0.9880    0.8400 C   0  0  2  0  0  0  0  0  0  0  0  0
   -5.8040   -2.1060   -0.0590 C   0  0  0  0  0  0  0  0  0  0  0  0
   -7.3260   -2.2400    0.0700 C   0  0  0  0  0  0  0  0  0  0  0  0
   -8.0200   -1.0400   -0.4910 C   0  0  0  0  0  0  0  0  0  0  0  0
   -7.4100    0.2360   -0.0540 C   0  0  0  0  0  0  0  0  0  0  0  0
   -8.1030    1.4160   -0.2840 C   0  0  0  0  0  0  0  0  0  0  0  0
   -7.5630    2.6190    0.1110 C   0  0  0  0  0  0  0  0  0  0  0  0
   -6.3320    2.5750    0.7290 C   0  0  0  0  0  0  0  0  0  0  0  0
   -5.6630    1.4370    0.9510 N   0  0  0  0  0  0  0  0  0  0  0  0
   -6.1810    0.2310    0.5670 C   0  0  0  0  0  0  0  0  0  0  0  0
    0.7960    1.7460    0.5690 C   0  0  0  0  0  0  0  0  0  0  0  0
    2.1960    2.0560    0.5610 N   0  0  0  0  0  0  0  0  0  0  0  0
    3.0970    1.1860    0.3390 C   0  0  0  0  0  0  0  0  0  0  0  0
    4.4920    1.5490    0.3650 N   0  0  0  0  0  0  0  0  0  0  0  0
    5.4230    0.7120    0.1670 C   0  0  0  0  0  0  0  0  0  0  0  0
    6.8350    1.0300    0.1840 C   0  0  0  0  0  0  0  0  0  0  0  0
    7.1770    2.3010    0.3240 C   0  0  0  0  0  0  0  0  0  0  0  0
    8.5860    2.7010    0.3510 C   0  0  2  0  0  0  0  0  0  0  0  0
    9.2630    2.2480   -0.7830 F   0  0  0  0  0  0  0  0  0  0  0  0
    9.2480    2.3100    1.5050 F   0  0  0  0  0  0  0  0  0  0  0  0
    7.9130    0.0120    0.0560 C   0  0  0  0  0  0  0  0  0  0  0  0
    7.4240   -1.4040    0.2640 C   0  0  0  0  0  0  0  0  0  0  0  0
    6.0990   -1.6080   -0.3450 C   0  0  0  0  0  0  0  0  0  0  0  0
    5.8740   -2.5850   -1.0700 O   0  0  0  0  0  0  0  0  0  0  0  0
    5.0600   -0.6570   -0.0920 N   0  0  0  0  0  0  0  0  0  0  0  0
  1  2  1  0
  2  3  2  0
  2 36  1  0
  3  4  1  0
  3 24  1  0
  4  5  1  0
  5  6  1  1
  5 22  1  0
  6  7  1  0
  7  8  2  0
  7  9  1  0
 10  9  1  6
 10 11  2  0
 10 12  1  0
 12 13  1  6
 12 21  1  0
 13 14  1  0
 14 15  1  0
 15 16  1  0
 16 17  2  0
 16 21  1  0
 17 18  1  0
 18 19  2  0
 19 20  1  0
 20 21  2  0
 22 23  1  0
 23 24  2  0
 24 25  1  0
 25 26  2  0
 26 27  1  0
 26 36  1  0
 27 28  2  3
 27 32  1  0
 28 29  1  0
 29 30  1  6
 29 31  1  0
 32 33  1  0
 33 34  1  0
 34 35  2  0
 34 36  1  0
M  END
