
     RDKit          3D

 19 18  0  0  0  0  0  0  0  0999 V2000
   -1.1990   -3.2850   -0.4900 C   0  0  0  0  0  0  0  0  0  0  0  0
   -0.1890   -2.5930   -1.3140 C   0  0  0  0  0  0  0  0  0  0  0  0
    0.4340   -1.3500   -0.7420 C   0  0  1  0  0  0  0  0  0  0  0  0
    1.1490   -1.5450    0.5470 C   0  0  0  0  0  0  0  0  0  0  0  0
    1.4330   -1.0030   -1.6970 O   0  0  0  0  0  0  0  0  0  0  0  0
    2.0780    0.0650   -1.3540 O   0  0  0  0  0  0  0  0  0  0  0  0
    3.0510   -0.1150   -0.5220 O   0  0  0  0  0  0  0  0  0  0  0  0
    4.2800    0.3220   -1.0110 C   0  0  0  0  0  0  0  0  0  0  0  0
    5.2650    0.0900   -0.0540 O   0  0  0  0  0  0  0  0  0  0  0  0
    4.9350    0.7630    1.0310 O   0  0  0  0  0  0  0  0  0  0  0  0
    5.9760    2.1280    1.2730 P   0  0  0  0  0  0  0  0  0  0  0  0
   -0.5250   -0.2400   -0.6550 C   0  0  0  0  0  0  0  0  0  0  0  0
   -0.3680    0.7090   -1.5120 O   0  0  0  0  0  0  0  0  0  0  0  0
   -1.6100   -0.1250    0.2990 C   0  0  0  0  0  0  0  0  0  0  0  0
   -1.8600   -0.9510    1.2030 O   0  0  0  0  0  0  0  0  0  0  0  0
   -2.5090    1.0690    0.2060 C   0  0  1  0  0  0  0  0  0  0  0  0
   -3.1810    1.1100   -1.1330 C   0  0  0  0  0  0  0  0  0  0  0  0
   -3.8030    1.0500    1.5310 P   0  0  0  0  0  0  0  0  0  0  0  0
   -3.9390    2.7430    2.2650 C   0  0  0  0  0  0  0  0  0  0  0  0
  1  2  1  0
  2  3  1  0
  3  4  1  1
  3  5  1  0
  3 12  1  0
  5  6  1  0
  6  7  1  0
  7  8  1  0
  8  9  1  0
  9 10  1  0
 10 11  1  0
 12 13  2  0
 12 14  1  0
 14 15  2  0
 14 16  1  0
 16 17  1  6
 16 18  1  0
 18 19  1  0
M  END
