
     RDKit          3D

 20 19  0  0  0  0  0  0  0  0999 V2000
   -4.7240   -2.9910    1.1490 C   0  0  0  0  0  0  0  0  0  0  0  0
   -3.4740   -2.4970    1.5520 O   0  0  0  0  0  0  0  0  0  0  0  0
   -3.2340   -1.3160    1.0780 O   0  0  0  0  0  0  0  0  0  0  0  0
   -2.2230   -1.3250    0.1390 C   0  0  0  0  0  0  0  0  0  0  0  0
   -1.9270    0.0020   -0.4180 C   0  0  0  0  0  0  0  0  0  0  0  0
   -0.8310    0.0490   -1.4480 C   0  0  0  0  0  0  0  0  0  0  0  0
    0.3190   -0.4230   -0.8170 O   0  0  0  0  0  0  0  0  0  0  0  0
    1.3250   -0.4090   -1.6660 O   0  0  0  0  0  0  0  0  0  0  0  0
    2.0070    0.7230   -1.4410 O   0  0  0  0  0  0  0  0  0  0  0  0
    2.5000    0.9320   -0.1710 C   0  0  0  0  0  0  0  0  0  0  0  0
    1.5550    1.7190    0.9310 P   0  0  0  0  0  0  0  0  0  0  0  0
    4.0730    0.3870    0.2710 S   0  0  2  0  0  0  0  0  0  0  0  0
    3.9370   -1.2780    0.9160 C   0  0  0  0  0  0  0  0  0  0  0  0
    4.7370    1.3000    1.2700 O   0  0  0  0  0  0  0  0  0  0  0  0
    5.2620    0.3140   -1.2640 P   0  0  0  0  0  0  0  0  0  0  0  0
    7.0870    0.2510   -0.9230 C   0  0  0  0  0  0  0  0  0  0  0  0
   -2.5240    1.1160   -0.0960 C   0  0  0  0  0  0  0  0  0  0  0  0
   -3.6110    1.1810    0.9020 C   0  0  0  0  0  0  0  0  0  0  0  0
   -2.1210    2.3050   -0.7230 O   0  0  0  0  0  0  0  0  0  0  0  0
   -2.8220    2.7360   -1.8750 C   0  0  0  0  0  0  0  0  0  0  0  0
  1  2  1  0
  2  3  1  0
  3  4  1  0
  4  5  1  0
  5  6  1  0
  5 17  2  3
  6  7  1  0
  7  8  1  0
  8  9  1  0
  9 10  1  0
 10 11  2  0
 10 12  1  0
 12 13  1  1
 12 14  2  0
 12 15  2  0
 15 16  1  0
 17 18  1  0
 17 19  1  0
 19 20  1  0
M  END
