
     RDKit          3D

 20 19  0  0  0  0  0  0  0  0999 V2000
    5.4430   -1.4220    0.2300 C   0  0  0  0  0  0  0  0  0  0  0  0
    4.9350   -0.5200   -0.7460 O   0  0  0  0  0  0  0  0  0  0  0  0
    4.6980    0.7800   -0.3210 C   0  0  0  0  0  0  0  0  0  0  0  0
    5.7900    1.6980   -0.1310 C   0  0  0  0  0  0  0  0  0  0  0  0
    5.5790    2.8870    0.2570 O   0  0  0  0  0  0  0  0  0  0  0  0
    3.4420    1.1630   -0.0930 C   0  0  0  0  0  0  0  0  0  0  0  0
    2.3850    0.2890   -0.2730 O   0  0  0  0  0  0  0  0  0  0  0  0
    1.2720    0.7010   -0.8680 O   0  0  0  0  0  0  0  0  0  0  0  0
    0.2190    0.1750   -0.2800 O   0  0  0  0  0  0  0  0  0  0  0  0
   -0.8430    0.2070   -1.0330 O   0  0  0  0  0  0  0  0  0  0  0  0
   -2.0130    0.3540   -0.2690 C   0  0  1  0  0  0  0  0  0  0  0  0
   -1.8620    1.6880    0.4960 C   0  0  0  0  0  0  0  0  0  0  0  0
   -3.2390    0.5070   -1.1170 C   0  0  2  0  0  0  0  0  0  0  0  0
   -3.5640   -0.9160   -2.2470 P   0  0  0  0  0  0  0  0  0  0  0  0
   -3.1250    2.0410   -2.1700 P   0  0  0  0  0  0  0  0  0  0  0  0
   -4.2660    3.0720   -2.2450 O   0  0  0  0  0  0  0  0  0  0  0  0
   -2.0840   -0.7160    0.7640 C   0  0  1  0  0  0  0  0  0  0  0  0
   -3.2960   -0.6010    1.6560 C   0  0  0  0  0  0  0  0  0  0  0  0
   -1.9790   -2.1190    0.1940 C   0  0  0  0  0  0  0  0  0  0  0  0
   -0.9550   -0.5650    1.5910 O   0  0  0  0  0  0  0  0  0  0  0  0
  1  2  1  0
  2  3  1  0
  3  4  1  0
  3  6  2  3
  4  5  2  0
  6  7  1  0
  7  8  1  0
  8  9  1  0
  9 10  1  0
 10 11  1  0
 11 12  1  1
 11 13  1  0
 11 17  1  0
 13 14  1  6
 13 15  1  0
 15 16  2  0
 17 18  1  1
 17 19  1  0
 17 20  1  0
M  END
