
     RDKit          3D

 20 20  0  0  0  0  0  0  0  0999 V2000
   -3.1490   -2.8830    0.3230 O   0  0  0  0  0  0  0  0  0  0  0  0
   -2.0000   -2.7820    0.7370 C   0  0  0  0  0  0  0  0  0  0  0  0
   -1.0810   -1.7100    0.7200 C   0  0  0  0  0  0  0  0  0  0  0  0
    0.0720   -2.0640    1.2990 O   0  0  0  0  0  0  0  0  0  0  0  0
   -1.1130   -0.3450    0.2260 C   0  0  0  0  0  0  0  0  0  0  0  0
   -2.0850    0.2450   -0.3660 C   0  0  0  0  0  0  0  0  0  0  0  0
   -3.6920   -0.6270   -0.7140 P   0  0  0  0  0  0  0  0  0  0  0  0
   -2.1130    1.5810   -0.8180 O   0  0  0  0  0  0  0  0  0  0  0  0
   -1.0030    2.3520   -0.5990 C   0  0  0  0  0  0  0  0  0  0  0  0
   -0.8950    3.9400   -1.0910 P   0  0  0  0  0  0  0  0  0  0  0  0
    0.1260    1.7670    0.0890 C   0  0  0  0  0  0  0  0  0  0  0  0
    1.0390    2.6120    0.4520 O   0  0  0  0  0  0  0  0  0  0  0  0
    0.2350    0.3570    0.3590 C   0  0  1  0  0  0  0  0  0  0  0  0
    0.5720    0.1170    1.8230 C   0  0  0  0  0  0  0  0  0  0  0  0
    1.8780   -0.1530    2.2940 S   0  0  0  0  0  0  0  0  0  0  0  0
    1.1400   -0.3130   -0.4900 O   0  0  0  0  0  0  0  0  0  0  0  0
    2.4440    0.0800   -0.5960 C   0  0  0  0  0  0  0  0  0  0  0  0
    2.9540    1.0420    0.0290 O   0  0  0  0  0  0  0  0  0  0  0  0
    3.3810   -0.6700   -1.5220 C   0  0  0  0  0  0  0  0  0  0  0  0
    4.6290   -0.0750   -1.4430 O   0  0  0  0  0  0  0  0  0  0  0  0
  1  2  2  0
  2  3  1  0
  3  4  2  0
  3  5  1  0
  5  6  2  0
  5 13  1  0
  6  7  1  0
  6  8  1  0
  8  9  1  0
  9 10  2  0
  9 11  1  0
 11 12  2  0
 11 13  1  0
 13 14  1  0
 13 16  1  6
 14 15  2  0
 16 17  1  0
 17 18  2  0
 17 19  1  0
 19 20  1  0
M  END
