
     RDKit          3D

 19 19  0  0  0  0  0  0  0  0999 V2000
   -2.3700    2.6150    0.1750 C   0  0  0  0  0  0  0  0  0  0  0  0
   -2.7470    0.8650    0.5360 P   0  0  0  0  0  0  0  0  0  0  0  0
   -4.2040    0.2770   -0.3950 C   0  0  0  0  0  0  0  0  0  0  0  0
   -1.3320   -0.2670    0.6110 C   0  0  0  0  0  0  0  0  0  0  0  0
   -0.4750   -0.3420   -0.6250 C   0  0  2  0  0  0  0  0  0  0  0  0
    0.1560    0.9750   -1.0090 C   0  0  0  0  0  0  0  0  0  0  0  0
   -1.3600   -0.7940   -1.7330 C   0  0  0  0  0  0  0  0  0  0  0  0
   -2.1650   -0.1350   -2.4120 O   0  0  0  0  0  0  0  0  0  0  0  0
   -1.1100   -2.1440   -1.8720 O   0  0  0  0  0  0  0  0  0  0  0  0
   -0.3050   -2.5810   -0.9220 O   0  0  0  0  0  0  0  0  0  0  0  0
    0.5030   -1.4890   -0.5640 C   0  0  2  0  0  0  0  0  0  0  0  0
    1.1010   -1.6720    0.7860 C   0  0  0  0  0  0  0  0  0  0  0  0
    1.8340   -0.6340    1.2290 O   0  0  0  0  0  0  0  0  0  0  0  0
    2.9550   -0.2550    0.5730 C   0  0  0  0  0  0  0  0  0  0  0  0
    3.5740    0.9390    1.3360 C   0  0  0  0  0  0  0  0  0  0  0  0
    2.6940    1.9890    1.3910 O   0  0  0  0  0  0  0  0  0  0  0  0
    1.4070   -1.3530   -1.6010 O   0  0  0  0  0  0  0  0  0  0  0  0
    2.4540   -2.7650   -1.5500 P   0  0  0  0  0  0  0  0  0  0  0  0
    1.7350   -4.1450   -1.5600 O   0  0  0  0  0  0  0  0  0  0  0  0
  1  2  1  0
  2  3  1  0
  2  4  1  0
  4  5  1  0
  5  6  1  6
  5  7  1  0
  5 11  1  0
  7  8  2  0
  7  9  1  0
  9 10  1  0
 10 11  1  0
 11 12  1  1
 11 17  1  0
 12 13  1  0
 13 14  1  0
 14 15  1  0
 15 16  1  0
 17 18  1  0
 18 19  2  0
M  END
