
     RDKit          3D

 19 21  0  0  0  0  0  0  0  0999 V2000
    4.2690    2.1240    0.8390 N   0  0  0  0  0  0  0  0  0  0  0  0
    3.7100    1.0220    0.1700 C   0  0  0  0  0  0  0  0  0  0  0  0
    2.4850    0.5550    0.5620 C   0  0  0  0  0  0  0  0  0  0  0  0
    1.9460   -0.5220   -0.0970 C   0  0  0  0  0  0  0  0  0  0  0  0
    0.6390   -1.0720    0.2710 C   0  0  0  0  0  0  0  0  0  0  0  0
    0.0120   -2.0950   -0.2760 C   0  0  0  0  0  0  0  0  0  0  0  0
   -1.1900   -2.2880    0.3610 O   0  0  0  0  0  0  0  0  0  0  0  0
   -1.5790   -1.0840    0.9840 C   0  0  2  0  0  0  0  0  0  0  0  0
   -2.1440   -0.1600   -0.0490 C   0  0  1  0  0  0  0  0  0  0  0  0
   -3.2920   -0.6780   -0.7330 N   0  0  0  0  0  0  0  0  0  0  0  0
   -4.0650    0.4540   -1.1210 C   0  0  0  0  0  0  0  0  0  0  0  0
   -4.9280    0.5560   -2.0350 O   0  0  0  0  0  0  0  0  0  0  0  0
   -3.6970    1.5400   -0.2640 N   0  0  0  0  0  0  0  0  0  0  0  0
   -2.7060    1.0430    0.6290 C   0  0  0  0  0  0  0  0  0  0  0  0
   -2.3840    1.5300    1.7520 O   0  0  0  0  0  0  0  0  0  0  0  0
   -0.2000   -0.5220    1.3570 C   0  0  0  0  0  0  0  0  0  0  0  0
    2.6260   -1.1340   -1.1440 C   0  0  0  0  0  0  0  0  0  0  0  0
    3.8400   -0.6000   -1.4630 N   0  0  0  0  0  0  0  0  0  0  0  0
    4.3570    0.4250   -0.8390 N   0  0  0  0  0  0  0  0  0  0  0  0
  1  2  1  0
  2  3  2  0
  2 19  1  0
  3  4  1  0
  4  5  1  0
  4 17  2  0
  5  6  2  0
  5 16  1  0
  6  7  1  0
  7  8  1  0
  8  9  1  0
  8 16  1  6
  9 10  1  1
  9 14  1  0
 10 11  1  0
 11 12  2  0
 11 13  1  0
 13 14  1  0
 14 15  2  0
 17 18  1  0
 18 19  2  0
M  END
