
     RDKit          3D

 19 20  0  0  0  0  0  0  0  0999 V2000
    4.1580    2.2730   -0.2500 N   0  0  0  0  0  0  0  0  0  0  0  0
    3.2210    1.3620    0.2650 C   0  0  0  0  0  0  0  0  0  0  0  0
    2.7960    1.4560    1.4360 O   0  0  0  0  0  0  0  0  0  0  0  0
    2.7380    0.2750   -0.6080 C   0  0  0  0  0  0  0  0  0  0  0  0
    1.7770   -0.5820    0.0590 N   0  0  0  0  0  0  0  0  0  0  0  0
    0.5500    0.0370    0.3450 C   0  0  0  0  0  0  0  0  0  0  0  0
   -0.6820   -0.7250    0.1590 C   0  0  0  0  0  0  0  0  0  0  0  0
   -1.9620   -0.0090    0.1970 C   0  0  0  0  0  0  0  0  0  0  0  0
   -1.9540    1.3550    0.4520 C   0  0  0  0  0  0  0  0  0  0  0  0
   -3.1240    2.0780    0.4920 C   0  0  0  0  0  0  0  0  0  0  0  0
   -3.1230    3.3160    0.7220 O   0  0  0  0  0  0  0  0  0  0  0  0
   -4.2820    1.4320    0.2780 N   0  0  0  0  0  0  0  0  0  0  0  0
   -4.3180    0.1170    0.0300 C   0  0  0  0  0  0  0  0  0  0  0  0
   -5.3880   -0.5110   -0.1730 O   0  0  0  0  0  0  0  0  0  0  0  0
   -3.1600   -0.5630   -0.0030 N   0  0  0  0  0  0  0  0  0  0  0  0
   -0.6410   -2.0190   -0.0400 C   0  0  0  0  0  0  0  0  0  0  0  0
    0.6690   -2.7640   -0.0820 C   0  0  1  0  0  0  0  0  0  0  0  0
    0.4920   -3.7950   -1.0030 F   0  0  0  0  0  0  0  0  0  0  0  0
    1.7680   -1.8750   -0.5130 C   0  0  0  0  0  0  0  0  0  0  0  0
  1  2  1  0
  2  3  2  0
  2  4  1  0
  4  5  1  0
  5  6  1  0
  5 19  1  0
  6  7  1  0
  7  8  1  0
  7 16  2  0
  8  9  2  0
  8 15  1  0
  9 10  1  0
 10 11  2  0
 10 12  1  0
 12 13  1  0
 13 14  2  0
 13 15  1  0
 16 17  1  0
 17 18  1  6
 17 19  1  0
M  END
