
     RDKit          3D

 19 20  0  0  0  0  0  0  0  0999 V2000
    2.9130   -1.2740    0.9790 C   0  0  0  0  0  0  0  0  0  0  0  0
    2.0110   -0.1340    0.5600 C   0  0  2  0  0  0  0  0  0  0  0  0
    0.7810   -0.6900    0.1290 N   0  0  0  0  0  0  0  0  0  0  0  0
   -0.1850   -1.0190    1.1210 C   0  0  0  0  0  0  0  0  0  0  0  0
   -1.4370   -1.1950    0.3700 N   0  0  0  0  0  0  0  0  0  0  0  0
   -1.8340   -2.4630   -0.1990 C   0  0  0  0  0  0  0  0  0  0  0  0
   -2.9890   -2.2900   -0.7950 C   0  0  0  0  0  0  0  0  0  0  0  0
   -3.4120   -0.9450   -0.6620 N   0  0  0  0  0  0  0  0  0  0  0  0
   -2.3990   -0.2210    0.1020 C   0  0  0  0  0  0  0  0  0  0  0  0
   -2.4080    1.0540    0.4240 C   0  0  0  0  0  0  0  0  0  0  0  0
   -1.4290    1.8410    1.1490 C   0  0  0  0  0  0  0  0  0  0  0  0
   -1.8490    2.1660    2.3430 O   0  0  0  0  0  0  0  0  0  0  0  0
   -0.1490    2.2830    0.7520 N   0  0  0  0  0  0  0  0  0  0  0  0
    0.4170    2.4690   -0.5190 C   0  0  0  0  0  0  0  0  0  0  0  0
    0.9610    3.5830   -0.8740 O   0  0  0  0  0  0  0  0  0  0  0  0
    0.5050    1.4980   -1.6370 C   0  0  0  0  0  0  0  0  0  0  0  0
    1.8780    1.0220   -1.7130 N   0  0  0  0  0  0  0  0  0  0  0  0
    2.6140    0.5570   -0.6140 C   0  0  0  0  0  0  0  0  0  0  0  0
    3.8590    0.7330   -0.6190 O   0  0  0  0  0  0  0  0  0  0  0  0
  2  1  1  6
  2  3  1  0
  2 18  1  0
  3  4  1  0
  4  5  1  0
  5  6  1  0
  5  9  1  0
  6  7  2  0
  7  8  1  0
  8  9  1  0
  9 10  2  0
 10 11  1  0
 11 12  2  0
 11 13  1  0
 13 14  1  0
 14 15  2  0
 14 16  1  0
 16 17  1  0
 17 18  1  0
 18 19  2  0
M  END
