
     RDKit          3D

 29 32  0  0  0  0  0  0  0  0999 V2000
    8.3170   -1.8460   -1.1100 C   0  0  0  0  0  0  0  0  0  0  0  0
    7.3810   -1.4990   -0.2400 C   0  0  0  0  0  0  0  0  0  0  0  0
    5.9670   -1.6080   -0.6040 C   0  0  0  0  0  0  0  0  0  0  0  0
    5.2920   -0.2020   -0.5910 C   0  0  0  0  0  0  0  0  0  0  0  0
    5.3800    0.4050    0.6950 C   0  0  0  0  0  0  0  0  0  0  0  0
    4.5970    0.9030    1.5520 C   0  0  0  0  0  0  0  0  0  0  0  0
    3.2390    1.1840    1.7920 C   0  0  0  0  0  0  0  0  0  0  0  0
    2.9720    1.6350    3.0300 O   0  0  0  0  0  0  0  0  0  0  0  0
    2.0750    1.0800    0.9540 C   0  0  0  0  0  0  0  0  0  0  0  0
    2.0330    1.0480   -0.4070 C   0  0  0  0  0  0  0  0  0  0  0  0
    0.8530    0.8840   -1.1370 C   0  0  0  0  0  0  0  0  0  0  0  0
   -0.3540    0.7470   -0.4930 C   0  0  0  0  0  0  0  0  0  0  0  0
   -0.3630    0.7750    0.8820 C   0  0  0  0  0  0  0  0  0  0  0  0
    0.8060    0.9340    1.5690 C   0  0  0  0  0  0  0  0  0  0  0  0
   -1.7750    0.6210    1.2900 C   0  0  0  0  0  0  0  0  0  0  0  0
   -2.1560    0.6020    2.4870 O   0  0  0  0  0  0  0  0  0  0  0  0
   -2.6100    0.5020    0.1520 N   0  0  0  0  0  0  0  0  0  0  0  0
   -4.0240    0.3600    0.0910 C   0  0  0  0  0  0  0  0  0  0  0  0
   -4.8400    1.4600    0.3810 C   0  0  0  0  0  0  0  0  0  0  0  0
   -4.1630    2.7420    0.7400 C   0  0  0  0  0  0  0  0  0  0  0  0
   -6.2020    1.4200    0.3500 C   0  0  0  0  0  0  0  0  0  0  0  0
   -6.8240    0.2380    0.0180 C   0  0  0  0  0  0  0  0  0  0  0  0
   -6.0510   -0.8730   -0.2750 C   0  0  0  0  0  0  0  0  0  0  0  0
   -4.6540   -0.8280   -0.2420 C   0  0  0  0  0  0  0  0  0  0  0  0
   -4.1650   -2.0090   -0.5570 C   0  0  0  0  0  0  0  0  0  0  0  0
   -5.2820   -2.9340   -0.8270 C   0  0  0  0  0  0  0  0  0  0  0  0
   -6.4720   -2.0770   -0.6100 C   0  0  0  0  0  0  0  0  0  0  0  0
   -1.7220    0.5790   -0.9710 C   0  0  0  0  0  0  0  0  0  0  0  0
   -2.1170    0.5080   -2.1710 O   0  0  0  0  0  0  0  0  0  0  0  0
  1  2  2  0
  2  3  1  0
  3  4  1  0
  4  5  1  0
  5  6  2  3
  6  7  1  0
  7  8  2  0
  7  9  1  0
  9 10  2  0
  9 14  1  0
 10 11  1  0
 11 12  2  0
 12 13  1  0
 12 28  1  0
 13 14  2  0
 13 15  1  0
 15 16  2  0
 15 17  1  0
 17 18  1  0
 17 28  1  0
 18 19  2  0
 18 24  1  0
 19 20  1  0
 19 21  1  0
 21 22  2  0
 22 23  1  0
 23 24  1  0
 23 27  2  0
 24 25  2  0
 25 26  1  0
 26 27  1  0
 28 29  2  0
M  END
