
     RDKit          3D

 31 34  0  0  0  0  0  0  0  0999 V2000
   -6.3860    0.2730   -2.8480 O   0  0  0  0  0  0  0  0  0  0  0  0
   -6.1850   -0.6670   -2.0380 C   0  0  0  0  0  0  0  0  0  0  0  0
   -7.3180   -1.3210   -1.5620 O   0  0  0  0  0  0  0  0  0  0  0  0
   -4.8090   -1.0030   -1.6590 C   0  0  0  0  0  0  0  0  0  0  0  0
   -4.1970   -0.0650   -0.6380 C   0  0  2  0  0  0  0  0  0  0  0  0
   -2.7980   -0.5200   -0.3370 C   0  0  0  0  0  0  0  0  0  0  0  0
   -2.0840    0.2860    0.6350 C   0  0  0  0  0  0  0  0  0  0  0  0
   -2.6210    1.2710    1.1710 O   0  0  0  0  0  0  0  0  0  0  0  0
   -0.7630   -0.0300    0.9930 N   0  0  0  0  0  0  0  0  0  0  0  0
   -0.0050   -1.1600    0.4390 C   0  0  0  0  0  0  0  0  0  0  0  0
    1.1050   -1.3800    1.4750 C   0  0  0  0  0  0  0  0  0  0  0  0
    2.0940   -0.2830    1.4240 N   0  0  1  0  0  0  0  0  0  0  0  0
    3.1660   -0.5570    0.5470 C   0  0  2  0  0  0  0  0  0  0  0  0
    4.4390   -0.8930    1.2940 C   0  0  0  0  0  0  0  0  0  0  0  0
    5.6600   -0.3670    0.9710 C   0  0  0  0  0  0  0  0  0  0  0  0
    6.8190   -0.6680    1.6480 C   0  0  0  0  0  0  0  0  0  0  0  0
    6.7720   -1.5460    2.7120 C   0  0  0  0  0  0  0  0  0  0  0  0
    5.5660   -2.0950    3.0660 C   0  0  0  0  0  0  0  0  0  0  0  0
    4.4200   -1.7690    2.3640 C   0  0  0  0  0  0  0  0  0  0  0  0
    3.4120    0.3150   -0.5980 C   0  0  0  0  0  0  0  0  0  0  0  0
    3.5800   -0.2120   -1.8920 C   0  0  0  0  0  0  0  0  0  0  0  0
    3.8220    0.5720   -2.9960 C   0  0  0  0  0  0  0  0  0  0  0  0
    3.9140    1.9400   -2.8820 C   0  0  0  0  0  0  0  0  0  0  0  0
    3.7580    2.4880   -1.6500 C   0  0  0  0  0  0  0  0  0  0  0  0
    3.5170    1.6890   -0.5610 C   0  0  0  0  0  0  0  0  0  0  0  0
    1.3850    0.9280    1.3380 C   0  0  0  0  0  0  0  0  0  0  0  0
   -0.0160    0.7480    1.9620 C   0  0  0  0  0  0  0  0  0  0  0  0
   -5.0450   -0.1370    0.6100 C   0  0  0  0  0  0  0  0  0  0  0  0
   -6.0120    0.9990    0.5720 C   0  0  0  0  0  0  0  0  0  0  0  0
   -5.4670    2.0010   -0.3990 C   0  0  0  0  0  0  0  0  0  0  0  0
   -4.3040    1.3370   -1.1010 C   0  0  0  0  0  0  0  0  0  0  0  0
  1  2  2  0
  2  3  1  0
  2  4  1  0
  5  4  1  6
  5  6  1  0
  5 28  1  0
  5 31  1  0
  6  7  1  0
  7  8  2  0
  7  9  1  0
  9 10  1  0
  9 27  1  0
 10 11  1  0
 12 11  1  6
 12 13  1  0
 12 26  1  0
 13 14  1  1
 13 20  1  0
 14 15  2  0
 14 19  1  0
 15 16  1  0
 16 17  2  0
 17 18  1  0
 18 19  2  0
 20 21  2  0
 20 25  1  0
 21 22  1  0
 22 23  2  0
 23 24  1  0
 24 25  2  0
 26 27  1  0
 28 29  1  0
 29 30  1  0
 30 31  1  0
M  CHG  1  12   1
M  END
