
     RDKit          3D

 29 33  0  0  0  0  0  0  0  0999 V2000
   -4.3020    2.5970   -1.4490 C   0  0  0  0  0  0  0  0  0  0  0  0
   -5.1070    2.0330   -0.3130 C   0  0  0  0  0  0  0  0  0  0  0  0
   -4.8990    0.5630   -0.1710 C   0  0  0  0  0  0  0  0  0  0  0  0
   -5.7880   -0.3880   -0.2510 C   0  0  0  0  0  0  0  0  0  0  0  0
   -7.2080   -0.7460   -0.4620 C   0  0  0  0  0  0  0  0  0  0  0  0
   -7.3910   -2.0270    0.3710 C   0  0  0  0  0  0  0  0  0  0  0  0
   -5.9900   -2.1850    0.9840 C   0  0  0  0  0  0  0  0  0  0  0  0
   -5.1600   -1.6810   -0.0760 N   0  0  2  0  0  0  0  0  0  0  0  0
   -3.8300   -1.4240    0.2100 C   0  0  0  0  0  0  0  0  0  0  0  0
   -2.7730   -2.2530    0.5110 C   0  0  0  0  0  0  0  0  0  0  0  0
   -1.5240   -1.7080    0.7230 C   0  0  0  0  0  0  0  0  0  0  0  0
   -1.2810   -0.3570    0.6470 C   0  0  0  0  0  0  0  0  0  0  0  0
   -0.0500    0.2400    0.8490 O   0  0  0  0  0  0  0  0  0  0  0  0
    0.8710    0.4690   -0.1410 C   0  0  0  0  0  0  0  0  0  0  0  0
    0.5810    0.1170   -1.3040 O   0  0  0  0  0  0  0  0  0  0  0  0
    2.1500    1.1200    0.2290 C   0  0  1  0  0  0  0  0  0  0  0  0
    2.9330    0.3230    1.2440 C   0  0  0  0  0  0  0  0  0  0  0  0
    4.3360    0.8930    1.2720 C   0  0  0  0  0  0  0  0  0  0  0  0
    4.9510    0.5820    0.0110 N   0  0  0  0  0  0  0  0  0  0  0  0
    6.3180    0.2400   -0.0390 C   0  0  0  0  0  0  0  0  0  0  0  0
    7.1730    0.1640    1.0220 N   0  0  0  0  0  0  0  0  0  0  0  0
    8.3880   -0.1900    0.5850 C   0  0  0  0  0  0  0  0  0  0  0  0
    8.3210   -0.3410   -0.7360 N   0  0  0  0  0  0  0  0  0  0  0  0
    9.4340   -0.7260   -1.6130 C   0  0  0  0  0  0  0  0  0  0  0  0
    7.0790   -0.0830   -1.1090 N   0  0  0  0  0  0  0  0  0  0  0  0
    4.1650    0.6230   -1.1900 C   0  0  0  0  0  0  0  0  0  0  0  0
    2.9430    1.4870   -0.9860 C   0  0  0  0  0  0  0  0  0  0  0  0
   -2.3440    0.4640    0.3450 C   0  0  0  0  0  0  0  0  0  0  0  0
   -3.6220   -0.0660    0.1260 C   0  0  0  0  0  0  0  0  0  0  0  0
  1  2  1  0
  2  3  1  0
  3  4  2  0
  3 29  1  0
  4  5  1  0
  4  8  1  0
  5  6  1  0
  6  7  1  0
  8  7  1  1
  8  9  1  0
  9 10  2  0
  9 29  1  0
 10 11  1  0
 11 12  2  0
 12 13  1  0
 12 28  1  0
 13 14  1  0
 14 15  2  0
 16 14  1  6
 16 17  1  0
 16 27  1  0
 17 18  1  0
 18 19  1  0
 19 20  1  0
 19 26  1  0
 20 21  1  0
 20 25  2  0
 21 22  2  0
 22 23  1  0
 23 24  1  0
 23 25  1  0
 26 27  1  0
 28 29  2  0
M  CHG  1   8   1
M  END
