
     RDKit          3D

 29 32  0  0  0  0  0  0  0  0999 V2000
   -7.3200    2.0280    0.7120 C   0  0  0  0  0  0  0  0  0  0  0  0
   -6.3510    2.6900   -0.2290 C   0  0  0  0  0  0  0  0  0  0  0  0
   -5.0160    2.5130    0.0480 O   0  0  0  0  0  0  0  0  0  0  0  0
   -4.2580    1.3660    0.0450 C   0  0  0  0  0  0  0  0  0  0  0  0
   -2.9540    1.4450    0.3720 C   0  0  0  0  0  0  0  0  0  0  0  0
   -2.0670    0.3200    0.3930 C   0  0  0  0  0  0  0  0  0  0  0  0
   -2.5880   -0.9000    0.0480 C   0  0  0  0  0  0  0  0  0  0  0  0
   -1.9050   -2.1320   -0.0110 C   0  0  0  0  0  0  0  0  0  0  0  0
   -2.7490   -3.1540   -0.3330 C   0  0  0  0  0  0  0  0  0  0  0  0
   -2.2660   -4.4380   -0.5020 C   0  0  0  0  0  0  0  0  0  0  0  0
   -0.9150   -4.7590   -0.3540 C   0  0  0  0  0  0  0  0  0  0  0  0
   -0.0920   -3.7020   -0.0300 C   0  0  0  0  0  0  0  0  0  0  0  0
   -0.5630   -2.4280    0.1380 C   0  0  0  0  0  0  0  0  0  0  0  0
    0.4080   -1.5090    0.4580 C   0  0  0  0  0  0  0  0  0  0  0  0
    0.3150   -0.1550    0.7790 C   0  0  0  0  0  0  0  0  0  0  0  0
    1.6020    0.3890    1.2160 C   0  0  0  0  0  0  0  0  0  0  0  0
    2.0740    1.5330    0.4840 N   0  0  0  0  0  0  0  0  0  0  0  0
    2.7150    1.1980   -0.7610 C   0  0  0  0  0  0  0  0  0  0  0  0
    4.1570    1.0320   -0.7810 C   0  0  0  0  0  0  0  0  0  0  0  0
    4.7680    1.0300   -2.0330 C   0  0  0  0  0  0  0  0  0  0  0  0
    6.1000    0.7840   -2.1720 C   0  0  0  0  0  0  0  0  0  0  0  0
    6.9020    0.5280   -1.0870 C   0  0  0  0  0  0  0  0  0  0  0  0
    6.3070    0.5300    0.1700 C   0  0  0  0  0  0  0  0  0  0  0  0
    7.1480    0.2460    1.3480 C   0  0  0  0  0  0  0  0  0  0  0  0
    4.9570    0.7810    0.3120 C   0  0  0  0  0  0  0  0  0  0  0  0
   -0.7730    0.6350    0.7750 C   0  0  0  0  0  0  0  0  0  0  0  0
   -0.6490    1.8440    1.1570 O   0  0  0  0  0  0  0  0  0  0  0  0
   -3.9100   -0.9560   -0.2860 O   0  0  0  0  0  0  0  0  0  0  0  0
   -4.8420    0.0760   -0.3070 C   0  0  0  0  0  0  0  0  0  0  0  0
  1  2  1  0
  2  3  1  0
  3  4  1  0
  4  5  2  0
  4 29  1  0
  5  6  1  0
  6  7  2  0
  6 26  1  0
  7  8  1  0
  7 28  1  0
  8  9  2  0
  8 13  1  0
  9 10  1  0
 10 11  2  0
 11 12  1  0
 12 13  2  0
 13 14  1  0
 14 15  2  0
 15 16  1  0
 15 26  1  0
 16 17  1  0
 17 18  1  0
 18 19  1  0
 19 20  2  0
 19 25  1  0
 20 21  1  0
 21 22  2  0
 22 23  1  0
 23 24  1  0
 23 25  2  0
 26 27  2  0
 28 29  1  0
M  END
