
     RDKit          3D

 29 33  0  0  0  0  0  0  0  0999 V2000
    5.5510   -3.4000    0.3420 C   0  0  0  0  0  0  0  0  0  0  0  0
    4.5930   -2.4480    0.4830 C   0  0  0  0  0  0  0  0  0  0  0  0
    4.8540   -1.2750    1.3550 C   0  0  0  0  0  0  0  0  0  0  0  0
    4.8000   -0.0400    0.7390 O   0  0  0  0  0  0  0  0  0  0  0  0
    3.6960    0.5220    0.1880 C   0  0  0  0  0  0  0  0  0  0  0  0
    2.4410   -0.1220    0.2480 C   0  0  0  0  0  0  0  0  0  0  0  0
    1.3460    0.4490   -0.3120 C   0  0  0  0  0  0  0  0  0  0  0  0
    1.4920    1.6670   -0.9330 C   0  0  0  0  0  0  0  0  0  0  0  0
    2.7360    2.3220   -1.0010 C   0  0  0  0  0  0  0  0  0  0  0  0
    3.8390    1.7510   -0.4410 C   0  0  0  0  0  0  0  0  0  0  0  0
    5.1020    2.3370   -0.4670 O   0  0  0  0  0  0  0  0  0  0  0  0
    5.3520    3.5760   -1.0760 C   0  0  0  0  0  0  0  0  0  0  0  0
    0.3350    2.3840   -1.4990 C   0  0  0  0  0  0  0  0  0  0  0  0
   -0.8410    1.5390   -1.7610 C   0  0  0  0  0  0  0  0  0  0  0  0
   -0.9960    0.3120   -0.9750 C   0  0  0  0  0  0  0  0  0  0  0  0
    0.0580   -0.2660   -0.3180 C   0  0  0  0  0  0  0  0  0  0  0  0
   -0.3680   -1.4350    0.2830 C   0  0  0  0  0  0  0  0  0  0  0  0
    0.2100   -2.4000    1.0400 C   0  0  0  0  0  0  0  0  0  0  0  0
   -0.5700   -3.4760    1.4810 C   0  0  0  0  0  0  0  0  0  0  0  0
   -1.9060   -3.6070    1.1850 C   0  0  0  0  0  0  0  0  0  0  0  0
   -2.4780   -2.6000    0.4050 C   0  0  0  0  0  0  0  0  0  0  0  0
   -1.7130   -1.5380   -0.0320 C   0  0  0  0  0  0  0  0  0  0  0  0
   -2.0840   -0.4980   -0.7790 N   0  0  0  0  0  0  0  0  0  0  0  0
   -3.3770   -0.1560   -1.3260 C   0  0  0  0  0  0  0  0  0  0  0  0
   -4.1930    0.7570   -0.4590 C   0  0  2  0  0  0  0  0  0  0  0  0
   -4.5280    0.2540    0.8950 C   0  0  0  0  0  0  0  0  0  0  0  0
   -5.8540    0.9800    1.1820 C   0  0  0  0  0  0  0  0  0  0  0  0
   -6.4000    1.1110   -0.2080 C   0  0  0  0  0  0  0  0  0  0  0  0
   -5.3880    1.0180   -1.1180 O   0  0  0  0  0  0  0  0  0  0  0  0
  1  2  2  0
  2  3  1  0
  3  4  1  0
  4  5  1  0
  5  6  2  0
  5 10  1  0
  6  7  1  0
  7  8  2  0
  7 16  1  0
  8  9  1  0
  8 13  1  0
  9 10  2  0
 10 11  1  0
 11 12  1  0
 13 14  1  0
 14 15  1  0
 15 16  2  0
 15 23  1  0
 16 17  1  0
 17 18  2  0
 17 22  1  0
 18 19  1  0
 19 20  2  0
 20 21  1  0
 21 22  2  0
 22 23  1  0
 23 24  1  0
 25 24  1  6
 25 26  1  0
 25 29  1  0
 26 27  1  0
 27 28  1  0
 28 29  1  0
M  END
