
     RDKit          3D

 29 31  0  0  0  0  0  0  0  0999 V2000
   -2.4370    5.5300   -0.6470 C   0  0  0  0  0  0  0  0  0  0  0  0
   -1.5800    4.6990    0.3070 C   0  0  0  0  0  0  0  0  0  0  0  0
   -1.5980    3.3420   -0.1440 N   0  0  0  0  0  0  0  0  0  0  0  0
   -0.9190    2.2550    0.5360 C   0  0  0  0  0  0  0  0  0  0  0  0
   -0.3230    2.5620    1.5800 O   0  0  0  0  0  0  0  0  0  0  0  0
   -0.9600    0.9620    0.0110 N   0  0  0  0  0  0  0  0  0  0  0  0
   -0.3350   -0.2360    0.6210 C   0  0  1  0  0  0  0  0  0  0  0  0
   -1.3270   -1.3590    0.2370 C   0  0  0  0  0  0  0  0  0  0  0  0
   -2.6460   -1.1630    0.7310 N   0  0  0  0  0  0  0  0  0  0  0  0
   -3.6060   -2.0200    0.0680 C   0  0  2  0  0  0  0  0  0  0  0  0
   -3.8750   -3.2310    0.9210 C   0  0  0  0  0  0  0  0  0  0  0  0
   -3.1320   -2.5210   -1.2710 C   0  0  0  0  0  0  0  0  0  0  0  0
   -4.8750   -1.2530   -0.0880 C   0  0  0  0  0  0  0  0  0  0  0  0
    0.8430   -0.4800   -0.2480 C   0  0  0  0  0  0  0  0  0  0  0  0
    0.6590   -0.7500   -1.5840 C   0  0  0  0  0  0  0  0  0  0  0  0
    1.7050   -0.9260   -2.4530 C   0  0  0  0  0  0  0  0  0  0  0  0
    2.9720   -0.8240   -1.9370 C   0  0  0  0  0  0  0  0  0  0  0  0
    3.2270   -0.5580   -0.6310 C   0  0  0  0  0  0  0  0  0  0  0  0
    2.1110   -0.3760    0.2620 C   0  0  0  0  0  0  0  0  0  0  0  0
    2.5090   -0.1300    1.5150 O   0  0  0  0  0  0  0  0  0  0  0  0
    2.1780    0.4370    2.6940 C   0  0  1  0  0  0  0  0  0  0  0  0
    2.4350   -0.4770    3.9130 C   0  0  0  0  0  0  0  0  0  0  0  0
    3.0060    0.7330    4.6160 C   0  0  0  0  0  0  0  0  0  0  0  0
    3.3090    1.3350    3.2750 C   0  0  0  0  0  0  0  0  0  0  0  0
    4.0680   -1.0860   -2.8870 C   0  0  0  0  0  0  0  0  0  0  0  0
    5.2550   -1.3430   -2.4430 N   0  0  0  0  0  0  0  0  0  0  0  0
    3.8710   -1.0840   -4.3470 C   0  0  0  0  0  0  0  0  0  0  0  0
    2.4900   -1.1820   -4.7100 N   0  0  0  0  0  0  0  0  0  0  0  0
    1.5190   -1.1090   -3.8680 C   0  0  0  0  0  0  0  0  0  0  0  0
  1  2  1  0
  2  3  1  0
  3  4  1  0
  4  5  2  0
  4  6  1  0
  6  7  1  0
  7  8  1  6
  7 14  1  0
  8  9  1  0
  9 10  1  0
 10 11  1  1
 10 12  1  0
 10 13  1  0
 14 15  2  0
 14 19  1  0
 15 16  1  0
 16 17  2  0
 16 29  1  0
 17 18  1  0
 17 25  1  0
 18 19  2  0
 19 20  1  0
 21 20  1  6
 21 22  1  0
 21 24  1  0
 22 23  1  0
 23 24  1  0
 25 26  2  0
 25 27  1  0
 27 28  1  0
 28 29  2  0
M  CHG  2   9   1  26   1
M  END
