
     RDKit          3D

 29 31  0  0  0  0  0  0  0  0999 V2000
   -5.3030   -3.0140   -1.3250 C   0  0  0  0  0  0  0  0  0  0  0  0
   -4.6710   -2.3260   -0.3910 C   0  0  0  0  0  0  0  0  0  0  0  0
   -5.2590   -1.1280    0.2020 C   0  0  0  0  0  0  0  0  0  0  0  0
   -4.6010   -0.4790    1.1200 N   0  0  0  0  0  0  0  0  0  0  0  0
   -3.3040   -0.9540    1.5350 C   0  0  0  0  0  0  0  0  0  0  0  0
   -2.9380   -0.6860    2.7700 C   0  0  0  0  0  0  0  0  0  0  0  0
   -3.8040    0.0710    3.7150 C   0  0  0  0  0  0  0  0  0  0  0  0
   -2.4790   -1.7040    0.5480 C   0  0  2  0  0  0  0  0  0  0  0  0
   -2.0230   -0.9530   -0.5500 N   0  0  0  0  0  0  0  0  0  0  0  0
   -1.1390    0.1450   -0.3020 C   0  0  1  0  0  0  0  0  0  0  0  0
    0.1600   -0.2730    0.2550 C   0  0  0  0  0  0  0  0  0  0  0  0
    0.1800   -1.0880    1.2600 O   0  0  0  0  0  0  0  0  0  0  0  0
    1.4300    0.1210   -0.2010 N   0  0  0  0  0  0  0  0  0  0  0  0
    2.6520   -0.2880    0.3720 C   0  0  0  0  0  0  0  0  0  0  0  0
    3.7740   -0.4350   -0.4310 C   0  0  0  0  0  0  0  0  0  0  0  0
    4.9880   -0.8000    0.1020 C   0  0  0  0  0  0  0  0  0  0  0  0
    5.1530   -1.0350    1.4530 C   0  0  0  0  0  0  0  0  0  0  0  0
    6.3720   -1.4010    1.9900 O   0  0  0  0  0  0  0  0  0  0  0  0
    7.5090   -1.5420    1.2100 C   0  0  0  0  0  0  0  0  0  0  0  0
    7.8840   -0.2420    0.5650 C   0  0  0  0  0  0  0  0  0  0  0  0
    4.0390   -0.8900    2.2540 C   0  0  0  0  0  0  0  0  0  0  0  0
    2.8350   -0.5260    1.7050 C   0  0  0  0  0  0  0  0  0  0  0  0
   -1.2330    1.2460   -1.2500 C   0  0  1  0  0  0  0  0  0  0  0  0
   -0.3520    2.4300   -0.9980 C   0  0  0  0  0  0  0  0  0  0  0  0
   -1.2130    3.6450   -1.4200 C   0  0  0  0  0  0  0  0  0  0  0  0
   -1.7790    3.2990   -2.6890 N   0  0  0  0  0  0  0  0  0  0  0  0
   -1.0580    2.2830   -3.4320 C   0  0  0  0  0  0  0  0  0  0  0  0
   -1.1040    0.9300   -2.7260 C   0  0  0  0  0  0  0  0  0  0  0  0
   -3.4040   -2.7480    0.0470 N   0  0  0  0  0  0  0  0  0  0  0  0
  1  2  2  0
  2  3  1  0
  2 29  1  0
  3  4  2  0
  4  5  1  0
  5  6  2  3
  5  8  1  0
  6  7  1  0
  8  9  1  6
  8 29  1  0
 10  9  1  6
 10 11  1  0
 10 23  1  0
 11 12  2  0
 11 13  1  0
 13 14  1  0
 14 15  2  0
 14 22  1  0
 15 16  1  0
 16 17  2  0
 17 18  1  0
 17 21  1  0
 18 19  1  0
 19 20  1  0
 21 22  2  0
 23 24  1  1
 23 28  1  0
 24 25  1  0
 25 26  1  0
 26 27  1  0
 27 28  1  0
M  CHG  2   4   1  26   1
M  END
