
     RDKit          3D

 31 33  0  0  0  0  0  0  0  0999 V2000
   -0.9010   -1.6270    1.7670 N   0  0  0  0  0  0  0  0  0  0  0  0
   -0.5270   -0.3750    1.2120 C   0  0  0  0  0  0  0  0  0  0  0  0
   -0.0340    0.5710    1.8440 O   0  0  0  0  0  0  0  0  0  0  0  0
   -0.7530   -0.1930   -0.2610 C   0  0  1  0  0  0  0  0  0  0  0  0
    0.2040   -1.4460   -1.1090 S   0  0  0  0  0  0  0  0  0  0  0  0
    1.9560   -1.0990   -0.8320 C   0  0  0  0  0  0  0  0  0  0  0  0
    2.2490   -0.1050   -0.1390 N   0  0  0  0  0  0  0  0  0  0  0  0
    3.4690    0.4340    0.2600 C   0  0  0  0  0  0  0  0  0  0  0  0
    4.2250    1.3170   -0.2210 N   0  0  0  0  0  0  0  0  0  0  0  0
    5.3780    1.6620    0.3740 N   0  0  0  0  0  0  0  0  0  0  0  0
    5.5220    1.2860    1.7600 C   0  0  2  0  0  0  0  0  0  0  0  0
    6.8420    0.8200    2.0910 N   0  0  0  0  0  0  0  0  0  0  0  0
    7.2170   -0.2600    1.3920 O   0  0  0  0  0  0  0  0  0  0  0  0
    4.3110   -0.0970    1.7810 S   0  0  0  0  0  0  0  0  0  0  0  0
    2.9100   -1.9890   -1.4280 C   0  0  0  0  0  0  0  0  0  0  0  0
    4.2800   -1.9440   -1.3690 C   0  0  0  0  0  0  0  0  0  0  0  0
    4.7680   -3.0260   -2.1060 C   0  0  0  0  0  0  0  0  0  0  0  0
    3.6730   -3.6740   -2.5760 C   0  0  0  0  0  0  0  0  0  0  0  0
    2.6200   -3.0360   -2.1570 O   0  0  0  0  0  0  0  0  0  0  0  0
   -2.2140   -0.3480   -0.4730 C   0  0  0  0  0  0  0  0  0  0  0  0
   -2.7080   -1.2260   -1.2100 O   0  0  0  0  0  0  0  0  0  0  0  0
   -3.0780    0.5630    0.2080 N   0  0  0  0  0  0  0  0  0  0  0  0
   -4.5020    0.5330    0.1000 C   0  0  1  0  0  0  0  0  0  0  0  0
   -5.1010   -0.7820    0.5740 C   0  0  0  0  0  0  0  0  0  0  0  0
   -4.7790   -0.9980    1.9010 O   0  0  0  0  0  0  0  0  0  0  0  0
   -5.0920    1.6680    0.9010 C   0  0  0  0  0  0  0  0  0  0  0  0
   -4.5210    2.8590    0.4480 O   0  0  0  0  0  0  0  0  0  0  0  0
   -5.0640    3.2000   -0.7980 C   0  0  0  0  0  0  0  0  0  0  0  0
   -4.8830    2.1490   -1.7630 N   0  0  0  0  0  0  0  0  0  0  0  0
   -4.8920    0.7890   -1.3310 C   0  0  0  0  0  0  0  0  0  0  0  0
   -5.2090   -0.1600   -2.0950 O   0  0  0  0  0  0  0  0  0  0  0  0
  1  2  1  0
  2  3  2  0
  2  4  1  0
  4  5  1  6
  4 20  1  0
  5  6  1  0
  6  7  2  3
  6 15  1  0
  7  8  1  0
  8  9  2  0
  8 14  1  0
  9 10  1  0
 10 11  1  0
 11 12  1  6
 11 14  1  0
 12 13  1  0
 15 16  2  0
 15 19  1  0
 16 17  1  0
 17 18  2  0
 18 19  1  0
 20 21  2  0
 20 22  1  0
 22 23  1  0
 23 24  1  1
 23 26  1  0
 23 30  1  0
 24 25  1  0
 26 27  1  0
 27 28  1  0
 28 29  1  0
 29 30  1  0
 30 31  2  0
M  END
