
     RDKit          3D

 27 28  0  0  0  0  0  0  0  0999 V2000
   -2.4280   -0.6870   -3.8270 C   0  0  0  0  0  0  0  0  0  0  0  0
   -2.7070   -0.1580   -2.5050 C   0  0  0  0  0  0  0  0  0  0  0  0
   -3.5540    0.8230   -2.2860 N   0  0  0  0  0  0  0  0  0  0  0  0
   -3.6660    1.3120   -1.0430 C   0  0  0  0  0  0  0  0  0  0  0  0
   -3.0100    0.8630    0.0130 C   0  0  0  0  0  0  0  0  0  0  0  0
   -3.1890    1.2700    1.3950 C   0  0  0  0  0  0  0  0  0  0  0  0
   -4.5990    1.6210    1.5070 O   0  0  0  0  0  0  0  0  0  0  0  0
   -5.5010    0.3200    0.9810 P   0  0  0  0  0  0  0  0  0  0  0  0
   -6.5830    1.2060    0.3190 O   0  0  0  0  0  0  0  0  0  0  0  0
   -4.5410   -0.7250    1.5210 O   0  0  0  0  0  0  0  0  0  0  0  0
   -6.6970   -0.2720    1.9420 O   0  0  0  0  0  0  0  0  0  0  0  0
   -1.9980   -0.1630   -0.1590 C   0  0  0  0  0  0  0  0  0  0  0  0
   -1.0280   -0.5380    0.8850 C   0  0  0  0  0  0  0  0  0  0  0  0
    0.0950   -0.5840    0.0000 N   0  0  0  0  0  0  0  0  0  0  0  0
    1.2920   -0.5260    0.2640 C   0  0  0  0  0  0  0  0  0  0  0  0
    1.7210   -0.3150    1.6280 C   0  0  0  0  0  0  0  0  0  0  0  0
    3.0270   -0.3000    1.9180 C   0  0  0  0  0  0  0  0  0  0  0  0
    3.9710   -0.4330    0.8310 C   0  0  0  0  0  0  0  0  0  0  0  0
    5.4310   -0.8740    1.1050 C   0  0  0  0  0  0  0  0  0  0  0  0
    6.1590   -0.5460   -0.1790 C   0  0  0  0  0  0  0  0  0  0  0  0
    7.1650    0.5650    0.0290 C   0  0  0  0  0  0  0  0  0  0  0  0
    8.3290    0.0630    0.6460 O   0  0  0  0  0  0  0  0  0  0  0  0
    3.6640   -0.5630   -0.3840 N   0  0  0  0  0  0  0  0  0  0  0  0
    2.2830   -0.6500   -0.8160 C   0  0  0  0  0  0  0  0  0  0  0  0
    1.9420   -0.8030   -1.9990 O   0  0  0  0  0  0  0  0  0  0  0  0
   -1.9100   -0.6700   -1.4460 C   0  0  0  0  0  0  0  0  0  0  0  0
   -1.0830   -1.7220   -1.7190 O   0  0  0  0  0  0  0  0  0  0  0  0
  1  2  1  0
  2  3  2  0
  2 26  1  0
  3  4  1  0
  4  5  2  0
  5  6  1  0
  5 12  1  0
  6  7  1  0
  7  8  1  0
  8  9  1  0
  8 10  1  0
  8 11  1  0
 12 13  1  0
 12 26  2  0
 13 14  1  0
 14 15  2  3
 15 16  1  0
 15 24  1  0
 16 17  2  0
 17 18  1  0
 18 19  1  0
 18 23  2  0
 19 20  1  0
 20 21  1  0
 21 22  1  0
 23 24  1  0
 24 25  2  0
 26 27  1  0
M  END
