
     RDKit          3D

 15 14  0  0  0  0  0  0  0  0999 V2000
   -2.9550   -2.8320    0.3900 N   0  0  0  0  0  0  0  0  0  0  0  0
   -1.8880   -2.0030   -0.1650 C   0  0  0  0  0  0  0  0  0  0  0  0
   -2.2410   -0.5790    0.1150 C   0  0  0  0  0  0  0  0  0  0  0  0
   -1.2420    0.4140   -0.3940 C   0  0  1  0  0  0  0  0  0  0  0  0
   -1.7820    1.7860   -0.0100 C   0  0  0  0  0  0  0  0  0  0  0  0
   -0.9430    2.8040   -0.4440 O   0  0  0  0  0  0  0  0  0  0  0  0
   -1.4950    3.9380   -0.0660 O   0  0  0  0  0  0  0  0  0  0  0  0
    0.0210    0.2910    0.2220 O   0  0  0  0  0  0  0  0  0  0  0  0
    1.1560    0.1600   -0.5570 C   0  0  0  0  0  0  0  0  0  0  0  0
    0.9960    0.1560   -1.8030 O   0  0  0  0  0  0  0  0  0  0  0  0
    2.5200    0.0270    0.0540 C   0  0  0  0  0  0  0  0  0  0  0  0
    3.4980   -0.0920   -0.9810 O   0  0  0  0  0  0  0  0  0  0  0  0
    4.8380   -0.2270   -0.6510 C   0  0  0  0  0  0  0  0  0  0  0  0
    5.1770   -0.2430    0.5600 O   0  0  0  0  0  0  0  0  0  0  0  0
    5.8130   -0.3450   -1.6290 O   0  0  0  0  0  0  0  0  0  0  0  0
  1  2  1  0
  2  3  1  0
  4  3  1  1
  4  5  1  0
  4  8  1  0
  5  6  1  0
  6  7  1  0
  8  9  1  0
  9 10  2  0
  9 11  1  0
 11 12  1  0
 12 13  1  0
 13 14  2  0
 13 15  1  0
M  END
