
     RDKit          3D

 15 14  0  0  0  0  0  0  0  0999 V2000
    0.2840    0.4790   -0.0860 O   0  0  0  0  0  0  0  0  0  0  0  0
    0.3430   -0.6240   -0.6550 C   0  0  0  0  0  0  0  0  0  0  0  0
    1.5750   -1.3030   -1.0480 C   0  0  0  0  0  0  0  0  0  0  0  0
    2.7540   -0.6960   -0.7790 O   0  0  0  0  0  0  0  0  0  0  0  0
    3.0360   -0.4250    0.5340 C   0  0  1  0  0  0  0  0  0  0  0  0
    4.0970   -1.2950    0.9260 O   0  0  0  0  0  0  0  0  0  0  0  0
    3.5670    0.9330    0.7590 C   0  0  0  0  0  0  0  0  0  0  0  0
    2.8730    1.9410    0.4930 O   0  0  0  0  0  0  0  0  0  0  0  0
    4.8370    1.1980    1.2680 O   0  0  0  0  0  0  0  0  0  0  0  0
   -0.9580   -1.2070   -0.9080 N   0  0  0  0  0  0  0  0  0  0  0  0
   -2.1690   -0.5770   -0.5420 C   0  0  0  0  0  0  0  0  0  0  0  0
   -2.4230    0.7680   -1.1590 C   0  0  0  0  0  0  0  0  0  0  0  0
   -4.0860    1.3430   -0.4920 P   0  0  0  0  0  0  0  0  0  0  0  0
   -3.8710    2.2940    0.9380 O   0  0  0  0  0  0  0  0  0  0  0  0
   -5.1260    0.0020   -0.2190 O   0  0  0  0  0  0  0  0  0  0  0  0
  1  2  2  0
  2  3  1  0
  2 10  1  0
  3  4  1  0
  4  5  1  0
  5  6  1  6
  5  7  1  0
  7  8  2  0
  7  9  1  0
 10 11  1  0
 11 12  1  0
 12 13  1  0
 13 14  1  0
 13 15  1  0
M  END
