
     RDKit          3D

 15 14  0  0  0  0  0  0  0  0999 V2000
   -2.0510   -0.2100   -2.2190 C   0  0  0  0  0  0  0  0  0  0  0  0
   -2.2510   -0.1460   -0.7360 C   0  0  2  0  0  0  0  0  0  0  0  0
   -3.1180    0.8680   -0.2650 N   0  0  0  0  0  0  0  0  0  0  0  0
   -3.7240    0.9860    0.9790 C   0  0  0  0  0  0  0  0  0  0  0  0
   -3.4480    0.2160    1.9090 O   0  0  0  0  0  0  0  0  0  0  0  0
   -4.6910    2.0000    1.2220 O   0  0  0  0  0  0  0  0  0  0  0  0
   -1.0580   -0.5560    0.0000 C   0  0  0  0  0  0  0  0  0  0  0  0
   -0.8550   -1.6860    0.3670 O   0  0  0  0  0  0  0  0  0  0  0  0
   -0.0560    0.4370    0.2820 O   0  0  0  0  0  0  0  0  0  0  0  0
    1.0650   -0.1270    0.9840 C   0  0  0  0  0  0  0  0  0  0  0  0
    2.2660    0.7520    0.6830 C   0  0  0  0  0  0  0  0  0  0  0  0
    3.3420    0.0290    1.2150 O   0  0  0  0  0  0  0  0  0  0  0  0
    4.3620   -0.2790   -0.1700 P   0  0  0  0  0  0  0  0  0  0  0  0
    5.4960   -1.5060    0.1160 O   0  0  0  0  0  0  0  0  0  0  0  0
    4.8330    0.9960   -1.1020 O   0  0  0  0  0  0  0  0  0  0  0  0
  2  1  1  6
  2  3  1  0
  2  7  1  0
  3  4  1  0
  4  5  2  0
  4  6  1  0
  7  8  2  0
  7  9  1  0
  9 10  1  0
 10 11  1  0
 11 12  1  0
 12 13  1  0
 13 14  1  0
 13 15  1  0
M  END
