
     RDKit          3D

 15 14  0  0  0  0  0  0  0  0999 V2000
   -1.8170   -2.3920    0.1280 C   0  0  0  0  0  0  0  0  0  0  0  0
   -1.5940   -0.9680    0.1870 N   0  0  0  0  0  0  0  0  0  0  0  0
   -2.3410   -0.1690    1.0640 C   0  0  0  0  0  0  0  0  0  0  0  0
   -3.2180   -0.7030    1.8150 O   0  0  0  0  0  0  0  0  0  0  0  0
   -2.2010    1.2060    1.1880 O   0  0  0  0  0  0  0  0  0  0  0  0
   -0.5780   -0.3720   -0.6770 C   0  0  2  0  0  0  0  0  0  0  0  0
    0.4890    0.1900    0.2080 C   0  0  0  0  0  0  0  0  0  0  0  0
    1.5700    0.8140   -0.6190 C   0  0  0  0  0  0  0  0  0  0  0  0
    2.6330    1.3610    0.1130 O   0  0  0  0  0  0  0  0  0  0  0  0
    3.4380    0.6010    0.9360 C   0  0  0  0  0  0  0  0  0  0  0  0
    3.1980   -0.6290    1.0220 O   0  0  0  0  0  0  0  0  0  0  0  0
    4.5000    1.1810    1.6630 O   0  0  0  0  0  0  0  0  0  0  0  0
   -1.1850    0.6030   -1.6010 C   0  0  0  0  0  0  0  0  0  0  0  0
   -2.4250    0.8710   -1.4440 O   0  0  0  0  0  0  0  0  0  0  0  0
   -0.5560    1.2550   -2.6200 O   0  0  0  0  0  0  0  0  0  0  0  0
  1  2  1  0
  2  3  1  0
  2  6  1  0
  3  4  2  0
  3  5  1  0
  6  7  1  1
  6 13  1  0
  7  8  1  0
  8  9  1  0
  9 10  1  0
 10 11  2  0
 10 12  1  0
 13 14  2  0
 13 15  1  0
M  END
