
     RDKit          3D

 35 38  0  0  0  0  0  0  0  0999 V2000
    7.9370    0.5970   -3.2030 C   0  0  0  0  0  0  0  0  0  0  0  0
    6.9890    0.3600   -2.1700 N   0  0  0  0  0  0  0  0  0  0  0  0
    7.3180   -0.6330   -1.2070 C   0  0  0  0  0  0  0  0  0  0  0  0
    6.9220   -0.2260    0.1620 C   0  0  0  0  0  0  0  0  0  0  0  0
    5.4900    0.2170    0.2300 C   0  0  2  0  0  0  0  0  0  0  0  0
    4.6700   -0.9410    0.5630 N   0  0  0  0  0  0  0  0  0  0  0  0
    4.4070   -2.0060   -0.3490 C   0  0  0  0  0  0  0  0  0  0  0  0
    4.0950   -0.9680    1.8630 C   0  0  0  0  0  0  0  0  0  0  0  0
    4.2970    0.0120    2.6730 O   0  0  0  0  0  0  0  0  0  0  0  0
    3.2880   -2.0000    2.3890 N   0  0  0  0  0  0  0  0  0  0  0  0
    2.7240   -1.9540    3.7370 C   0  0  0  0  0  0  0  0  0  0  0  0
    1.8100   -0.7800    3.8860 C   0  0  0  0  0  0  0  0  0  0  0  0
    0.6560   -0.8140    2.9090 C   0  0  0  0  0  0  0  0  0  0  0  0
   -0.1350    0.3360    3.1380 O   0  0  0  0  0  0  0  0  0  0  0  0
   -1.2830    0.5610    2.3650 C   0  0  0  0  0  0  0  0  0  0  0  0
   -2.0680    1.6690    2.5670 C   0  0  0  0  0  0  0  0  0  0  0  0
   -3.1970    1.9000    1.8140 C   0  0  0  0  0  0  0  0  0  0  0  0
   -3.5930    1.0120    0.8090 C   0  0  0  0  0  0  0  0  0  0  0  0
   -4.7540    1.3260    0.0660 N   0  0  0  0  0  0  0  0  0  0  0  0
   -5.4930    0.4340   -0.7510 C   0  0  0  0  0  0  0  0  0  0  0  0
   -5.0850   -0.7430   -0.8130 O   0  0  0  0  0  0  0  0  0  0  0  0
   -6.6320    0.8970   -1.4440 N   0  0  0  0  0  0  0  0  0  0  0  0
   -7.1190    2.2360   -1.3780 C   0  0  0  0  0  0  0  0  0  0  0  0
   -8.3940    2.3220   -0.5340 C   0  0  0  0  0  0  0  0  0  0  0  0
   -9.6250    1.2880   -1.3700 S   0  0  0  0  0  0  0  0  0  0  0  0
   -8.8160    0.0130   -2.3120 C   0  0  0  0  0  0  0  0  0  0  0  0
   -9.2950   -0.9160   -3.0920 C   0  0  0  0  0  0  0  0  0  0  0  0
   -8.1580   -1.7300   -3.6390 C   0  0  0  0  0  0  0  0  0  0  0  0
   -6.9870   -1.0670   -3.0330 C   0  0  0  0  0  0  0  0  0  0  0  0
   -5.3300   -1.5830   -3.3530 Cl  0  0  0  0  0  0  0  0  0  0  0  0
   -7.3430   -0.0640   -2.2580 C   0  0  0  0  0  0  0  0  0  0  0  0
   -2.8180   -0.0830    0.6080 C   0  0  0  0  0  0  0  0  0  0  0  0
   -1.6680   -0.3120    1.3800 C   0  0  0  0  0  0  0  0  0  0  0  0
    5.0330    0.9350   -0.9810 C   0  0  0  0  0  0  0  0  0  0  0  0
    6.2730    1.4970   -1.6920 C   0  0  0  0  0  0  0  0  0  0  0  0
  1  2  1  0
  2  3  1  0
  2 35  1  0
  3  4  1  0
  4  5  1  0
  5  6  1  6
  5 34  1  0
  6  7  1  0
  6  8  1  0
  8  9  2  0
  8 10  1  0
 10 11  1  0
 11 12  1  0
 12 13  1  0
 13 14  1  0
 14 15  1  0
 15 16  2  0
 15 33  1  0
 16 17  1  0
 17 18  2  0
 18 19  1  0
 18 32  1  0
 19 20  1  0
 20 21  2  0
 20 22  1  0
 22 23  1  0
 22 31  1  0
 23 24  1  0
 24 25  1  0
 25 26  1  0
 26 27  2  0
 26 31  1  0
 27 28  1  0
 28 29  1  0
 29 30  1  0
 29 31  2  0
 32 33  2  0
 34 35  1  0
M  END
