
     RDKit          3D

 35 39  0  0  0  0  0  0  0  0999 V2000
    6.4520    3.4240   -0.0590 C   0  0  0  0  0  0  0  0  0  0  0  0
    5.4640    2.3620   -0.3080 C   0  0  0  0  0  0  0  0  0  0  0  0
    5.7980    1.1410   -0.8930 C   0  0  0  0  0  0  0  0  0  0  0  0
    4.8020    0.2080   -1.0870 C   0  0  0  0  0  0  0  0  0  0  0  0
    3.4810    0.4030   -0.7360 C   0  0  0  0  0  0  0  0  0  0  0  0
    3.1700    1.6220   -0.1570 C   0  0  0  0  0  0  0  0  0  0  0  0
    4.1450    2.5700    0.0470 C   0  0  0  0  0  0  0  0  0  0  0  0
    3.6930    4.0850    0.7810 Cl  0  0  0  0  0  0  0  0  0  0  0  0
    2.7040   -0.7270   -1.0570 N   0  0  0  0  0  0  0  0  0  0  0  0
    1.3860   -0.9940   -0.6230 C   0  0  0  0  0  0  0  0  0  0  0  0
    0.8500   -0.1410    0.1270 O   0  0  0  0  0  0  0  0  0  0  0  0
    0.7450   -2.2300   -1.0710 C   0  0  0  0  0  0  0  0  0  0  0  0
   -0.6550   -2.4680   -0.5470 C   0  0  0  0  0  0  0  0  0  0  0  0
   -0.6490   -2.5350    0.9790 C   0  0  0  0  0  0  0  0  0  0  0  0
    0.0000   -3.6100    1.5330 C   0  0  0  0  0  0  0  0  0  0  0  0
    0.6670   -4.7620    0.8890 C   0  0  0  0  0  0  0  0  0  0  0  0
   -0.1110   -3.3570    3.3100 S   0  0  0  0  0  0  0  0  0  0  0  0
   -1.0320   -1.8130    3.1690 C   0  0  0  0  0  0  0  0  0  0  0  0
   -1.5080   -0.9670    4.2800 C   0  0  0  0  0  0  0  0  0  0  0  0
   -1.1830   -1.6140    1.7670 C   0  0  0  0  0  0  0  0  0  0  0  0
   -2.0480   -0.4390    1.3860 C   0  0  0  0  0  0  0  0  0  0  0  0
   -1.8480    0.6450    1.9890 O   0  0  0  0  0  0  0  0  0  0  0  0
   -3.0570   -0.4750    0.4210 N   0  0  0  0  0  0  0  0  0  0  0  0
   -3.8570    0.6780    0.1000 C   0  0  0  0  0  0  0  0  0  0  0  0
   -3.6580    1.8500    0.7280 N   0  0  0  0  0  0  0  0  0  0  0  0
   -4.4130    2.9220    0.4180 C   0  0  0  0  0  0  0  0  0  0  0  0
   -5.4070    2.8550   -0.5470 C   0  0  0  0  0  0  0  0  0  0  0  0
   -5.6010    1.6550   -1.1810 C   0  0  0  0  0  0  0  0  0  0  0  0
   -4.8120    0.6070   -0.8290 N   0  0  0  0  0  0  0  0  0  0  0  0
   -6.7010    1.8030   -2.1610 C   0  0  0  0  0  0  0  0  0  0  0  0
   -7.1460    3.1670   -2.0750 N   0  0  0  0  0  0  0  0  0  0  0  0
   -6.3600    3.8130   -1.0890 C   0  0  0  0  0  0  0  0  0  0  0  0
   -6.4520    5.0200   -0.7220 O   0  0  0  0  0  0  0  0  0  0  0  0
    3.4920   -1.5800   -1.9160 C   0  0  0  0  0  0  0  0  0  0  0  0
    4.9350   -1.1630   -1.6960 C   0  0  0  0  0  0  0  0  0  0  0  0
  1  2  1  0
  2  3  2  0
  2  7  1  0
  3  4  1  0
  4  5  2  0
  4 35  1  0
  5  6  1  0
  5  9  1  0
  6  7  2  0
  7  8  1  0
  9 10  1  0
  9 34  1  0
 10 11  2  0
 10 12  1  0
 12 13  1  0
 13 14  1  0
 14 15  2  0
 14 20  1  0
 15 16  1  0
 15 17  1  0
 17 18  1  0
 18 19  1  0
 18 20  2  0
 20 21  1  0
 21 22  2  0
 21 23  1  0
 23 24  1  0
 24 25  2  0
 24 29  1  0
 25 26  1  0
 26 27  2  0
 27 28  1  0
 27 32  1  0
 28 29  2  0
 28 30  1  0
 30 31  1  0
 31 32  1  0
 32 33  2  0
 34 35  1  0
M  END
