
     RDKit          3D

 35 39  0  0  0  0  0  0  0  0999 V2000
   -8.8710    2.6490   -0.4630 C   0  0  0  0  0  0  0  0  0  0  0  0
   -8.6380    2.0040   -1.7160 N   0  0  0  0  0  0  0  0  0  0  0  0
   -7.3150    1.8320   -2.0680 N   0  0  0  0  0  0  0  0  0  0  0  0
   -6.4480    1.1320   -1.1860 C   0  0  0  0  0  0  0  0  0  0  0  0
   -6.3860   -0.2660   -1.2110 C   0  0  0  0  0  0  0  0  0  0  0  0
   -5.5570   -0.9350   -0.3800 C   0  0  0  0  0  0  0  0  0  0  0  0
   -4.7500   -0.2310    0.5180 C   0  0  0  0  0  0  0  0  0  0  0  0
   -4.8210    1.1640    0.5330 C   0  0  0  0  0  0  0  0  0  0  0  0
   -5.6690    1.8550   -0.3180 C   0  0  0  0  0  0  0  0  0  0  0  0
   -5.7100    3.6280   -0.2580 Cl  0  0  0  0  0  0  0  0  0  0  0  0
   -3.8670   -0.8640    1.4320 N   0  0  0  0  0  0  0  0  0  0  0  0
   -3.0620   -0.0730    2.3460 C   0  0  0  0  0  0  0  0  0  0  0  0
   -1.7200    0.2620    1.7830 C   0  0  0  0  0  0  0  0  0  0  0  0
   -1.3640    1.2820    0.9570 C   0  0  0  0  0  0  0  0  0  0  0  0
    0.0020    1.1410    0.7350 C   0  0  0  0  0  0  0  0  0  0  0  0
    0.4310    0.0430    1.4330 C   0  0  0  0  0  0  0  0  0  0  0  0
    1.7480   -0.5440    1.5490 C   0  0  0  0  0  0  0  0  0  0  0  0
    1.8260   -1.6020    2.2820 O   0  0  0  0  0  0  0  0  0  0  0  0
    2.9250   -0.1020    0.9670 N   0  0  0  0  0  0  0  0  0  0  0  0
    3.1090    1.0470    0.1200 C   0  0  0  0  0  0  0  0  0  0  0  0
    4.5830    1.2600   -0.1800 C   0  0  0  0  0  0  0  0  0  0  0  0
    5.2680    0.0480   -0.7520 C   0  0  1  0  0  0  0  0  0  0  0  0
    6.6580    0.1190   -0.3420 N   0  0  0  0  0  0  0  0  0  0  0  0
    7.4360   -1.0340   -0.7400 C   0  0  0  0  0  0  0  0  0  0  0  0
    8.8080   -0.5550   -1.0710 C   0  0  0  0  0  0  0  0  0  0  0  0
    8.7550    0.9370   -1.0660 C   0  0  0  0  0  0  0  0  0  0  0  0
    7.2860    1.2590   -0.9850 C   0  0  0  0  0  0  0  0  0  0  0  0
    4.6440   -1.1980   -0.2180 C   0  0  0  0  0  0  0  0  0  0  0  0
    4.1720   -0.8640    1.2000 C   0  0  0  0  0  0  0  0  0  0  0  0
   -0.6380   -0.4260    2.0270 O   0  0  0  0  0  0  0  0  0  0  0  0
   -3.7400   -2.2890    1.5030 C   0  0  0  0  0  0  0  0  0  0  0  0
   -3.5370   -2.8450    2.6020 O   0  0  0  0  0  0  0  0  0  0  0  0
   -3.8430   -3.1350    0.2890 C   0  0  1  0  0  0  0  0  0  0  0  0
   -3.7730   -4.5840    0.6260 C   0  0  0  0  0  0  0  0  0  0  0  0
   -5.4840   -2.7140   -0.4310 S   0  0  0  0  0  0  0  0  0  0  0  0
  1  2  1  0
  2  3  1  0
  3  4  1  0
  4  5  2  0
  4  9  1  0
  5  6  1  0
  6  7  2  0
  6 35  1  0
  7  8  1  0
  7 11  1  0
  8  9  2  0
  9 10  1  0
 11 12  1  0
 11 31  1  0
 12 13  1  0
 13 14  2  0
 13 30  1  0
 14 15  1  0
 15 16  2  0
 16 17  1  0
 16 30  1  0
 17 18  2  0
 17 19  1  0
 19 20  1  0
 19 29  1  0
 20 21  1  0
 21 22  1  0
 22 23  1  1
 22 28  1  0
 23 24  1  0
 23 27  1  0
 24 25  1  0
 25 26  1  0
 26 27  1  0
 28 29  1  0
 31 32  2  0
 31 33  1  0
 33 34  1  1
 33 35  1  0
M  END
