
     RDKit          3D

 34 39  0  0  0  0  0  0  0  0999 V2000
    9.4370   -0.2360    0.0980 C   0  0  0  0  0  0  0  0  0  0  0  0
    8.1460    0.4700    0.2990 C   0  0  0  0  0  0  0  0  0  0  0  0
    8.1510    1.7310    0.8800 C   0  0  0  0  0  0  0  0  0  0  0  0
    6.9730    2.4060    1.0780 C   0  0  0  0  0  0  0  0  0  0  0  0
    5.7740    1.8120    0.6900 C   0  0  0  0  0  0  0  0  0  0  0  0
    5.7690    0.5640    0.1150 C   0  0  0  0  0  0  0  0  0  0  0  0
    4.5310   -0.0900   -0.3030 C   0  0  0  0  0  0  0  0  0  0  0  0
    3.3270    0.5100   -0.1430 C   0  0  0  0  0  0  0  0  0  0  0  0
    2.1560   -0.1400   -0.5510 C   0  0  0  0  0  0  0  0  0  0  0  0
    2.1810   -1.3910   -1.1210 C   0  0  0  0  0  0  0  0  0  0  0  0
    1.0030   -2.0340   -1.5250 O   0  0  0  0  0  0  0  0  0  0  0  0
   -0.1880   -1.3640   -1.3080 C   0  0  0  0  0  0  0  0  0  0  0  0
   -0.6900   -0.4300   -2.1820 C   0  0  0  0  0  0  0  0  0  0  0  0
   -1.8850    0.1880   -1.8820 C   0  0  0  0  0  0  0  0  0  0  0  0
   -2.5910   -0.1150   -0.7160 C   0  0  0  0  0  0  0  0  0  0  0  0
   -2.0350   -1.0630    0.1250 C   0  0  0  0  0  0  0  0  0  0  0  0
   -0.8690   -1.6550   -0.1840 N   0  0  0  0  0  0  0  0  0  0  0  0
   -2.7730   -1.3740    1.3410 C   0  0  0  0  0  0  0  0  0  0  0  0
   -2.2430   -2.2490    2.0990 O   0  0  0  0  0  0  0  0  0  0  0  0
   -4.0000   -0.7470    1.6650 N   0  0  0  0  0  0  0  0  0  0  0  0
   -4.6270    0.1870    0.7690 C   0  0  2  0  0  0  0  0  0  0  0  0
   -5.9240   -0.3180    0.2650 C   0  0  0  0  0  0  0  0  0  0  0  0
   -6.1820   -1.5490   -0.1910 N   0  0  0  0  0  0  0  0  0  0  0  0
   -7.4580   -1.6360   -0.5560 N   0  0  0  0  0  0  0  0  0  0  0  0
   -8.0180   -0.4160   -0.3200 C   0  0  0  0  0  0  0  0  0  0  0  0
   -7.0530    0.3800    0.1860 N   0  0  0  0  0  0  0  0  0  0  0  0
   -7.6270    1.7030    0.4500 C   0  0  0  0  0  0  0  0  0  0  0  0
   -8.8310    1.7550   -0.4510 C   0  0  0  0  0  0  0  0  0  0  0  0
   -9.2990    0.3160   -0.4290 C   0  0  0  0  0  0  0  0  0  0  0  0
   -3.8080    0.4870   -0.3730 N   0  0  0  0  0  0  0  0  0  0  0  0
    3.4120   -1.9780   -1.2710 C   0  0  0  0  0  0  0  0  0  0  0  0
    4.5820   -1.3490   -0.8730 C   0  0  0  0  0  0  0  0  0  0  0  0
    5.8970   -2.0360   -1.0590 C   0  0  0  0  0  0  0  0  0  0  0  0
    6.9550   -0.0280   -0.0440 N   0  0  0  0  0  0  0  0  0  0  0  0
  1  2  1  0
  2  3  2  0
  2 34  1  0
  3  4  1  0
  4  5  2  0
  5  6  1  0
  6  7  1  0
  6 34  2  0
  7  8  2  0
  7 32  1  0
  8  9  1  0
  9 10  2  0
 10 11  1  0
 10 31  1  0
 11 12  1  0
 12 13  2  0
 12 17  1  0
 13 14  1  0
 14 15  2  0
 15 16  1  0
 15 30  1  0
 16 17  2  0
 16 18  1  0
 18 19  2  0
 18 20  1  0
 20 21  1  0
 21 22  1  6
 21 30  1  0
 22 23  2  0
 22 26  1  0
 23 24  1  0
 24 25  2  0
 25 26  1  0
 25 29  1  0
 26 27  1  0
 27 28  1  0
 28 29  1  0
 31 32  2  0
 32 33  1  0
M  END
