
     RDKit          3D

 35 37  0  0  0  0  0  0  0  0999 V2000
   -6.6860   -2.5680    1.7460 C   0  0  0  0  0  0  0  0  0  0  0  0
   -5.6340   -3.6020    1.6630 C   0  0  0  0  0  0  0  0  0  0  0  0
   -5.3870   -4.2800    2.6310 O   0  0  0  0  0  0  0  0  0  0  0  0
   -4.8760   -3.8190    0.4040 C   0  0  2  0  0  0  0  0  0  0  0  0
   -3.8630   -4.9350    0.5950 C   0  0  0  0  0  0  0  0  0  0  0  0
   -2.7510   -4.2130    1.2790 C   0  0  0  0  0  0  0  0  0  0  0  0
   -2.7220   -2.8690    0.6460 N   0  0  0  0  0  0  0  0  0  0  0  0
   -1.5120   -2.1540    0.6230 C   0  0  0  0  0  0  0  0  0  0  0  0
   -0.5150   -2.7580    1.1590 O   0  0  0  0  0  0  0  0  0  0  0  0
   -1.2920   -0.8020    0.0490 C   0  0  0  0  0  0  0  0  0  0  0  0
   -2.2310   -0.0150   -0.5240 C   0  0  0  0  0  0  0  0  0  0  0  0
   -1.9350    1.1800   -0.9990 C   0  0  0  0  0  0  0  0  0  0  0  0
   -2.8280    2.1880   -1.6620 C   0  0  0  0  0  0  0  0  0  0  0  0
   -2.2900    3.2560   -2.0240 O   0  0  0  0  0  0  0  0  0  0  0  0
   -4.1540    1.9790   -1.8710 O   0  0  0  0  0  0  0  0  0  0  0  0
   -5.0320    2.8950   -2.4890 C   0  0  0  0  0  0  0  0  0  0  0  0
   -4.6280    3.2250   -3.8800 C   0  0  0  0  0  0  0  0  0  0  0  0
   -5.4390    4.1370   -4.5940 N   0  0  0  0  0  0  0  0  0  0  0  0
   -3.6260    2.7480   -4.4440 O   0  0  0  0  0  0  0  0  0  0  0  0
   -0.2520    1.3590   -0.6930 S   0  0  0  0  0  0  0  0  0  0  0  0
   -0.0160   -0.2780    0.1050 C   0  0  0  0  0  0  0  0  0  0  0  0
    1.2340   -0.7420    0.6030 N   0  0  0  0  0  0  0  0  0  0  0  0
    2.3680    0.1290    0.4640 C   0  0  0  0  0  0  0  0  0  0  0  0
    2.2170    1.2210   -0.0690 O   0  0  0  0  0  0  0  0  0  0  0  0
    3.6200   -0.2720    0.9340 N   0  0  0  0  0  0  0  0  0  0  0  0
    4.8210    0.4480    0.8790 C   0  0  0  0  0  0  0  0  0  0  0  0
    4.9910    1.6510    0.3640 C   0  0  0  0  0  0  0  0  0  0  0  0
    6.2740    2.3530    0.3360 C   0  0  0  0  0  0  0  0  0  0  0  0
    6.2990    3.5650   -0.2170 C   0  0  0  0  0  0  0  0  0  0  0  0
    5.1210    4.1380   -0.7520 N   0  0  0  0  0  0  0  0  0  0  0  0
    7.4960    1.7400    0.8990 C   0  0  0  0  0  0  0  0  0  0  0  0
    7.2230    0.4190    1.4460 C   0  0  0  0  0  0  0  0  0  0  0  0
    8.4110   -0.3080    2.0540 C   0  0  0  0  0  0  0  0  0  0  0  0
    6.0470   -0.1550    1.4390 C   0  0  0  0  0  0  0  0  0  0  0  0
   -4.0310   -2.5780    0.1600 C   0  0  0  0  0  0  0  0  0  0  0  0
  1  2  1  0
  2  3  2  0
  4  2  1  1
  4  5  1  0
  4 35  1  0
  5  6  1  0
  6  7  1  0
  7  8  1  0
  7 35  1  0
  8  9  2  0
  8 10  1  0
 10 11  1  0
 10 21  2  0
 11 12  2  0
 12 13  1  0
 12 20  1  0
 13 14  2  0
 13 15  1  0
 15 16  1  0
 16 17  1  0
 17 18  1  0
 17 19  2  0
 20 21  1  0
 21 22  1  0
 22 23  1  0
 23 24  2  0
 23 25  1  0
 25 26  1  0
 26 27  2  0
 26 34  1  0
 27 28  1  0
 28 29  2  3
 28 31  1  0
 29 30  1  0
 31 32  1  0
 32 33  1  0
 32 34  2  0
M  CHG  1  30   1
M  END
