
     RDKit          3D

 35 38  0  0  0  0  0  0  0  0999 V2000
   -6.9300   -0.7220   -1.8450 C   0  0  0  0  0  0  0  0  0  0  0  0
   -5.9800   -0.0200   -0.9500 C   0  0  0  0  0  0  0  0  0  0  0  0
   -5.3390    1.1080   -1.2360 N   0  0  0  0  0  0  0  0  0  0  0  0
   -4.4990    1.4670   -0.2470 C   0  0  0  0  0  0  0  0  0  0  0  0
   -4.6080    0.4900    0.7300 C   0  0  0  0  0  0  0  0  0  0  0  0
   -5.5330   -0.4280    0.2910 C   0  0  0  0  0  0  0  0  0  0  0  0
   -6.1890   -1.5770    1.0310 C   0  0  0  0  0  0  0  0  0  0  0  0
   -6.0640   -2.8410    0.3950 N   0  0  0  0  0  0  0  0  0  0  0  0
   -3.8230    0.6270    1.9720 C   0  0  1  0  0  0  0  0  0  0  0  0
   -2.5240   -0.0860    1.9810 C   0  0  0  0  0  0  0  0  0  0  0  0
   -1.6030    0.3280    0.8070 C   0  0  1  0  0  0  0  0  0  0  0  0
   -0.3100   -0.4500    1.0120 C   0  0  0  0  0  0  0  0  0  0  0  0
    0.4960   -0.3240   -0.1530 N   0  0  0  0  0  0  0  0  0  0  0  0
    1.8630   -0.7540   -0.1770 C   0  0  0  0  0  0  0  0  0  0  0  0
    2.4120   -1.2730    0.8230 O   0  0  0  0  0  0  0  0  0  0  0  0
    2.5880   -0.6000   -1.3310 O   0  0  0  0  0  0  0  0  0  0  0  0
    3.8530   -0.9330   -1.6680 C   0  0  0  0  0  0  0  0  0  0  0  0
    4.9930   -0.4090   -0.9480 C   0  0  0  0  0  0  0  0  0  0  0  0
    5.4860    0.8680   -1.0080 C   0  0  0  0  0  0  0  0  0  0  0  0
    6.6270    1.3040   -0.3430 C   0  0  0  0  0  0  0  0  0  0  0  0
    7.3310    0.4280    0.4230 C   0  0  0  0  0  0  0  0  0  0  0  0
    8.6520    0.7320    1.1150 C   0  0  0  0  0  0  0  0  0  0  0  0
    9.7150    0.0620    0.2510 C   0  0  0  0  0  0  0  0  0  0  0  0
   10.2620   -1.1610    0.7200 N   0  0  0  0  0  0  0  0  0  0  0  0
   10.0870    0.5640   -0.8250 O   0  0  0  0  0  0  0  0  0  0  0  0
    6.8660   -0.8920    0.5160 C   0  0  0  0  0  0  0  0  0  0  0  0
    5.7440   -1.2830   -0.1430 C   0  0  0  0  0  0  0  0  0  0  0  0
   -0.0380    0.1780   -1.3690 C   0  0  0  0  0  0  0  0  0  0  0  0
   -1.5030   -0.0180   -1.4870 C   0  0  0  0  0  0  0  0  0  0  0  0
   -2.2020   -0.1160   -0.3500 O   0  0  0  0  0  0  0  0  0  0  0  0
   -3.7870    1.9440    2.5380 N   0  0  0  0  0  0  0  0  0  0  0  0
   -3.4820    3.2090    1.4680 S   0  0  1  0  0  0  0  0  0  0  0  0
   -4.5330    4.3060    1.7180 O   0  0  0  0  0  0  0  0  0  0  0  0
   -2.1670    3.9020    1.7250 O   0  0  0  0  0  0  0  0  0  0  0  0
   -3.6680    2.6820   -0.1920 C   0  0  0  0  0  0  0  0  0  0  0  0
  1  2  1  0
  2  3  1  0
  2  6  2  0
  3  4  1  0
  4  5  2  0
  4 35  1  0
  5  6  1  0
  5  9  1  0
  6  7  1  0
  7  8  1  0
  9 10  1  6
  9 31  1  0
 11 10  1  1
 11 12  1  0
 11 30  1  0
 12 13  1  0
 13 14  1  0
 13 28  1  0
 14 15  2  0
 14 16  1  0
 16 17  1  0
 17 18  1  0
 18 19  2  0
 18 27  1  0
 19 20  1  0
 20 21  2  0
 21 22  1  0
 21 26  1  0
 22 23  1  0
 23 24  1  0
 23 25  2  0
 26 27  2  0
 28 29  1  0
 29 30  1  0
 31 32  1  0
 32 33  2  0
 32 34  2  0
 32 35  1  6
M  CHG  1   8   1
M  END
