
     RDKit          3D

 34 37  0  0  0  0  0  0  0  0999 V2000
    9.5660    0.2520   -0.7210 C   0  0  0  0  0  0  0  0  0  0  0  0
    8.8320   -0.8000   -0.0730 N   0  0  0  0  0  0  0  0  0  0  0  0
    7.4080   -0.4330    0.0080 C   0  0  1  0  0  0  0  0  0  0  0  0
    6.6370   -1.7110    0.0830 C   0  0  0  0  0  0  0  0  0  0  0  0
    5.2570   -1.6040    0.6080 C   0  0  0  0  0  0  0  0  0  0  0  0
    4.7460   -0.2470    0.8960 C   0  0  2  0  0  0  0  0  0  0  0  0
    3.7880    0.3650   -0.5470 S   0  0  0  0  0  0  0  0  0  0  0  0
    2.2840   -0.6650   -0.7370 C   0  0  1  0  0  0  0  0  0  0  0  0
    1.3150   -0.4920    0.4360 C   0  0  0  0  0  0  0  0  0  0  0  0
    0.2040   -0.4110   -0.6180 C   0  0  1  0  0  0  0  0  0  0  0  0
   -0.7400    0.6070   -0.1960 N   0  0  0  0  0  0  0  0  0  0  0  0
   -2.1340    0.1990   -0.1240 C   0  0  0  0  0  0  0  0  0  0  0  0
   -2.4120   -0.9670   -0.4230 O   0  0  0  0  0  0  0  0  0  0  0  0
   -3.1330    1.1260    0.2810 N   0  0  0  0  0  0  0  0  0  0  0  0
   -4.4790    0.7820    0.3950 C   0  0  0  0  0  0  0  0  0  0  0  0
   -5.3550    1.7010    0.7570 C   0  0  0  0  0  0  0  0  0  0  0  0
   -4.8980    3.0310    1.0270 C   0  0  0  0  0  0  0  0  0  0  0  0
   -3.7670    3.5050    0.9760 O   0  0  0  0  0  0  0  0  0  0  0  0
   -5.8730    4.0040    1.4250 O   0  0  0  0  0  0  0  0  0  0  0  0
   -5.4990    5.3310    1.7080 C   0  0  0  0  0  0  0  0  0  0  0  0
   -6.7770    1.5140    0.9140 O   0  0  0  0  0  0  0  0  0  0  0  0
   -7.6120    0.7240    0.1060 C   0  0  0  0  0  0  0  0  0  0  0  0
   -8.7840    1.0840   -0.1010 O   0  0  0  0  0  0  0  0  0  0  0  0
   -7.2140   -0.5290   -0.5370 C   0  0  0  0  0  0  0  0  0  0  0  0
   -8.2160   -1.1680   -1.2300 C   0  0  0  0  0  0  0  0  0  0  0  0
   -7.9980   -2.3690   -1.8850 C   0  0  0  0  0  0  0  0  0  0  0  0
   -9.0780   -2.9750   -2.5810 N   0  0  0  0  0  0  0  0  0  0  0  0
   -6.7410   -2.9370   -1.8390 C   0  0  0  0  0  0  0  0  0  0  0  0
   -5.7130   -2.3290   -1.1580 C   0  0  0  0  0  0  0  0  0  0  0  0
   -5.9600   -1.1280   -0.5120 C   0  0  0  0  0  0  0  0  0  0  0  0
   -4.8240   -0.6060    0.1540 N   0  0  0  0  0  0  0  0  0  0  0  0
    1.2610    0.0540   -1.5890 C   0  0  0  0  0  0  0  0  0  0  0  0
    5.7310    0.7590    1.3440 C   0  0  0  0  0  0  0  0  0  0  0  0
    7.1660    0.3310    1.2690 C   0  0  0  0  0  0  0  0  0  0  0  0
  1  2  1  0
  3  2  1  1
  3  4  1  0
  3 34  1  0
  4  5  1  0
  5  6  1  0
  6  7  1  6
  6 33  1  0
  8  7  1  1
  8  9  1  0
  8 32  1  0
  9 10  1  0
 10 11  1  1
 10 32  1  0
 11 12  1  0
 12 13  2  0
 12 14  1  0
 14 15  1  0
 15 16  2  0
 15 31  1  0
 16 17  1  0
 16 21  1  0
 17 18  2  0
 17 19  1  0
 19 20  1  0
 21 22  1  0
 22 23  2  0
 22 24  1  0
 24 25  2  0
 24 30  1  0
 25 26  1  0
 26 27  1  0
 26 28  2  0
 28 29  1  0
 29 30  2  0
 30 31  1  0
 33 34  1  0
M  CHG  1   2   1
M  END
