
     RDKit          3D

 35 37  0  0  0  0  0  0  0  0999 V2000
   -5.1870   -4.9310   -0.8090 C   0  0  0  0  0  0  0  0  0  0  0  0
   -5.4190   -3.4020   -0.7420 C   0  0  0  0  0  0  0  0  0  0  0  0
   -4.3370   -2.7120   -0.6380 O   0  0  0  0  0  0  0  0  0  0  0  0
   -3.2590   -2.0070   -0.5310 C   0  0  0  0  0  0  0  0  0  0  0  0
   -3.3340   -0.6430   -0.1970 C   0  0  0  0  0  0  0  0  0  0  0  0
   -2.2300    0.1260   -0.0770 C   0  0  0  0  0  0  0  0  0  0  0  0
   -0.9400   -0.3760   -0.2670 C   0  0  0  0  0  0  0  0  0  0  0  0
   -0.8690   -1.7090   -0.5920 C   0  0  0  0  0  0  0  0  0  0  0  0
   -1.9770   -2.5520   -0.7340 C   0  0  0  0  0  0  0  0  0  0  0  0
   -1.9050   -3.8410   -1.0650 O   0  0  0  0  0  0  0  0  0  0  0  0
   -0.9330   -4.7520   -1.3680 C   0  0  0  0  0  0  0  0  0  0  0  0
    0.2330    0.4450   -0.0520 N   0  0  0  0  0  0  0  0  0  0  0  0
    1.4920   -0.1840   -0.0630 C   0  0  0  0  0  0  0  0  0  0  0  0
    1.4720   -1.3920   -0.5510 O   0  0  0  0  0  0  0  0  0  0  0  0
    2.8310    0.2320    0.3880 C   0  0  2  0  0  0  0  0  0  0  0  0
    2.6660    0.4090    1.8460 N   0  0  0  0  0  0  0  0  0  0  0  0
    3.7260    0.8280    2.6900 C   0  0  0  0  0  0  0  0  0  0  0  0
    3.5780    0.9940    4.0690 N   0  0  0  0  0  0  0  0  0  0  0  0
    4.8740    1.0600    2.2210 O   0  0  0  0  0  0  0  0  0  0  0  0
    3.4210    1.3040   -0.3590 C   0  0  0  0  0  0  0  0  0  0  0  0
    4.1530    0.8790   -1.6220 C   0  0  0  0  0  0  0  0  0  0  0  0
    5.2790   -0.0380   -1.3310 C   0  0  1  0  0  0  0  0  0  0  0  0
    6.4780    0.7270   -1.0640 N   0  0  0  0  0  0  0  0  0  0  0  0
    5.0380   -0.9630   -0.1760 C   0  0  0  0  0  0  0  0  0  0  0  0
    3.6530   -1.0920    0.2750 C   0  0  0  0  0  0  0  0  0  0  0  0
    0.1240    1.8460    0.1960 C   0  0  0  0  0  0  0  0  0  0  0  0
   -1.2240    2.4310    0.3810 C   0  0  0  0  0  0  0  0  0  0  0  0
   -2.3780    1.5570    0.1870 C   0  0  0  0  0  0  0  0  0  0  0  0
   -3.5800    2.0720    0.2870 C   0  0  0  0  0  0  0  0  0  0  0  0
   -3.8500    3.4450    0.5250 N   0  0  0  0  0  0  0  0  0  0  0  0
   -5.2190    3.9290    0.6430 C   0  0  0  0  0  0  0  0  0  0  0  0
   -6.1650    3.1470    0.5720 O   0  0  0  0  0  0  0  0  0  0  0  0
   -5.4410    5.3730    0.8340 C   0  0  0  0  0  0  0  0  0  0  0  0
   -4.3920    6.2780    0.8870 O   0  0  0  0  0  0  0  0  0  0  0  0
   -6.9670    5.9130    0.9840 S   0  0  0  0  0  0  0  0  0  0  0  0
  1  2  1  0
  2  3  1  0
  3  4  1  0
  4  5  2  0
  4  9  1  0
  5  6  1  0
  6  7  2  0
  6 28  1  0
  7  8  1  0
  7 12  1  0
  8  9  2  0
  9 10  1  0
 10 11  1  0
 12 13  1  0
 12 26  1  0
 13 14  2  0
 13 15  1  0
 15 16  1  1
 15 20  1  0
 15 25  1  0
 16 17  1  0
 17 18  1  0
 17 19  2  0
 20 21  1  0
 21 22  1  0
 22 23  1  1
 22 24  1  0
 24 25  1  0
 26 27  1  0
 27 28  1  0
 28 29  2  3
 29 30  1  0
 30 31  1  0
 31 32  2  0
 31 33  1  0
 33 34  1  0
 33 35  2  0
M  CHG  1  23   1
M  END
