
     RDKit          3D

 21 22  0  0  0  0  0  0  0  0999 V2000
    1.0650    2.3240    1.0350 O   0  0  0  0  0  0  0  0  0  0  0  0
    0.5880    1.2240    0.6610 C   0  0  0  0  0  0  0  0  0  0  0  0
    1.4800    0.2460    0.3120 O   0  0  0  0  0  0  0  0  0  0  0  0
    2.8840    0.3950    0.3460 C   0  0  0  0  0  0  0  0  0  0  0  0
    3.6040   -0.8430   -0.0900 C   0  0  0  0  0  0  0  0  0  0  0  0
    4.9820   -0.6420   -0.0380 O   0  0  0  0  0  0  0  0  0  0  0  0
    5.8580   -2.0440   -0.5330 P   0  0  0  0  0  0  0  0  0  0  0  0
    7.1930   -1.5910   -1.5700 O   0  0  0  0  0  0  0  0  0  0  0  0
    6.4780   -2.9070    0.8630 O   0  0  0  0  0  0  0  0  0  0  0  0
   -0.8220    1.0460    0.6170 N   0  0  0  0  0  0  0  0  0  0  0  0
   -1.6620    2.1460    1.0070 C   0  0  0  0  0  0  0  0  0  0  0  0
   -2.8090    2.2130   -0.0100 C   0  0  0  0  0  0  0  0  0  0  0  0
   -3.5380    0.9310    0.1340 C   0  0  1  0  0  0  0  0  0  0  0  0
   -4.7350    0.8630   -0.5320 O   0  0  0  0  0  0  0  0  0  0  0  0
   -5.4910   -0.1060   -0.1590 O   0  0  0  0  0  0  0  0  0  0  0  0
   -4.8420   -1.2040    0.2780 N   0  0  0  0  0  0  0  0  0  0  0  0
   -3.4850   -1.4200   -0.0170 C   0  0  0  0  0  0  0  0  0  0  0  0
   -2.9920   -2.5490    0.0220 O   0  0  0  0  0  0  0  0  0  0  0  0
   -2.6860   -0.2410   -0.3720 C   0  0  1  0  0  0  0  0  0  0  0  0
   -2.6720   -0.1780   -1.7860 O   0  0  0  0  0  0  0  0  0  0  0  0
   -1.3100   -0.2330    0.1810 C   0  0  0  0  0  0  0  0  0  0  0  0
  1  2  2  0
  2  3  1  0
  2 10  1  0
  3  4  1  0
  4  5  1  0
  5  6  1  0
  6  7  1  0
  7  8  1  0
  7  9  1  0
 10 11  1  0
 10 21  1  0
 11 12  1  0
 13 12  1  6
 13 14  1  0
 13 19  1  0
 14 15  1  0
 15 16  1  0
 16 17  1  0
 17 18  2  0
 17 19  1  0
 19 20  1  6
 19 21  1  0
M  END
