
     RDKit          3D

 21 21  0  0  0  0  0  0  0  0999 V2000
   -0.8070   -1.6090   -1.3470 O   0  0  0  0  0  0  0  0  0  0  0  0
   -0.7320   -0.3720   -1.2410 C   0  0  0  0  0  0  0  0  0  0  0  0
   -1.7690    0.3860   -1.8580 N   0  0  0  0  0  0  0  0  0  0  0  0
   -2.8470   -0.2090   -2.5680 C   0  0  0  0  0  0  0  0  0  0  0  0
   -3.7060   -1.1380   -1.7670 C   0  0  0  0  0  0  0  0  0  0  0  0
   -4.2890   -0.4540   -0.6770 O   0  0  0  0  0  0  0  0  0  0  0  0
   -5.2800   -1.5510    0.2340 P   0  0  0  0  0  0  0  0  0  0  0  0
   -5.6090   -0.9750    1.8130 O   0  0  0  0  0  0  0  0  0  0  0  0
   -6.7240   -1.8400   -0.6880 O   0  0  0  0  0  0  0  0  0  0  0  0
    0.3450    0.1960   -0.5330 N   0  0  0  0  0  0  0  0  0  0  0  0
    1.4060   -0.5700    0.0980 C   0  0  2  0  0  0  0  0  0  0  0  0
    1.3840   -0.4120    1.6010 C   0  0  0  0  0  0  0  0  0  0  0  0
    1.7500    0.8290    2.0390 O   0  0  0  0  0  0  0  0  0  0  0  0
    3.0210    0.9310    2.5470 C   0  0  0  0  0  0  0  0  0  0  0  0
    3.9640    1.1410    1.3700 C   0  0  1  0  0  0  0  0  0  0  0  0
    3.5490    2.2680    0.6330 O   0  0  0  0  0  0  0  0  0  0  0  0
    5.2610    1.3610    1.7500 O   0  0  0  0  0  0  0  0  0  0  0  0
    5.2870    2.4420    2.5000 O   0  0  0  0  0  0  0  0  0  0  0  0
    3.8010   -0.0430    0.4850 C   0  0  0  0  0  0  0  0  0  0  0  0
    4.6530   -0.8970    0.6230 O   0  0  0  0  0  0  0  0  0  0  0  0
    2.7290   -0.2520   -0.5080 C   0  0  0  0  0  0  0  0  0  0  0  0
  1  2  2  0
  2  3  1  0
  2 10  1  0
  3  4  1  0
  4  5  1  0
  5  6  1  0
  6  7  1  0
  7  8  1  0
  7  9  1  0
 11 10  1  6
 11 12  1  0
 11 21  1  0
 12 13  1  0
 13 14  1  0
 14 15  1  0
 15 16  1  6
 15 17  1  0
 15 19  1  0
 17 18  1  0
 19 20  2  0
 19 21  1  0
M  END
