
     RDKit          3D

 20 21  0  0  0  0  0  0  0  0999 V2000
   -2.9720   -3.5840   -0.3960 N   0  0  0  0  0  0  0  0  0  0  0  0
   -2.7810   -2.3430   -0.1010 C   0  0  0  0  0  0  0  0  0  0  0  0
   -1.4890   -1.7740   -0.3650 N   0  0  0  0  0  0  0  0  0  0  0  0
   -0.9860   -0.6390   -0.0130 C   0  0  0  0  0  0  0  0  0  0  0  0
    0.3830   -0.3690   -0.4590 C   0  0  0  0  0  0  0  0  0  0  0  0
    1.1180   -1.1970   -1.1820 C   0  0  0  0  0  0  0  0  0  0  0  0
    2.3650   -0.6420   -1.4340 O   0  0  0  0  0  0  0  0  0  0  0  0
    2.3610    0.6870   -1.0120 C   0  0  2  0  0  0  0  0  0  0  0  0
    3.5680    1.0170   -0.1640 C   0  0  0  0  0  0  0  0  0  0  0  0
    4.7010    0.7860   -0.9380 O   0  0  0  0  0  0  0  0  0  0  0  0
    6.1390    1.1420   -0.0340 P   0  0  0  0  0  0  0  0  0  0  0  0
    6.8840   -0.3850    0.3600 O   0  0  0  0  0  0  0  0  0  0  0  0
    5.7020    2.0210    1.3980 O   0  0  0  0  0  0  0  0  0  0  0  0
    1.1590    0.7350   -0.2380 O   0  0  0  0  0  0  0  0  0  0  0  0
   -1.6550    0.2890    0.7320 O   0  0  0  0  0  0  0  0  0  0  0  0
   -2.8810    0.4900    1.3000 C   0  0  0  0  0  0  0  0  0  0  0  0
   -4.0260   -0.3290    0.8940 C   0  0  1  0  0  0  0  0  0  0  0  0
   -4.7830    0.4020   -0.2180 C   0  0  0  0  0  0  0  0  0  0  0  0
   -5.0470    1.7130    0.1340 O   0  0  0  0  0  0  0  0  0  0  0  0
   -3.8120   -1.6120    0.4530 O   0  0  0  0  0  0  0  0  0  0  0  0
  1  2  2  0
  2  3  1  0
  2 20  1  0
  3  4  2  0
  4  5  1  0
  4 15  1  0
  5  6  2  0
  5 14  1  0
  6  7  1  0
  7  8  1  0
  8  9  1  1
  8 14  1  0
  9 10  1  0
 10 11  1  0
 11 12  1  0
 11 13  1  0
 15 16  1  0
 16 17  1  0
 17 18  1  6
 17 20  1  0
 18 19  1  0
M  END
