
     RDKit          3D

 27 29  0  0  0  0  0  0  0  0999 V2000
   -6.5900    1.5990    2.3210 N   0  0  0  0  0  0  0  0  0  0  0  0
   -5.9680    0.6520    1.4800 C   0  0  0  0  0  0  0  0  0  0  0  0
   -6.6980   -0.3630    0.9910 N   0  0  0  0  0  0  0  0  0  0  0  0
   -6.1560   -1.3070    0.1560 C   0  0  0  0  0  0  0  0  0  0  0  0
   -4.8510   -1.2510   -0.2000 N   0  0  0  0  0  0  0  0  0  0  0  0
   -4.0590   -0.2690    0.2580 C   0  0  0  0  0  0  0  0  0  0  0  0
   -4.6370    0.6920    1.1070 C   0  0  0  0  0  0  0  0  0  0  0  0
   -3.6770    1.5410    1.4160 N   0  0  0  0  0  0  0  0  0  0  0  0
   -2.5500    1.1650    0.8180 C   0  0  0  0  0  0  0  0  0  0  0  0
   -2.7740    0.0170    0.0790 N   0  0  0  0  0  0  0  0  0  0  0  0
   -1.7340   -0.6910   -0.6250 C   0  0  2  0  0  0  0  0  0  0  0  0
   -0.5030   -0.2190   -0.1410 O   0  0  0  0  0  0  0  0  0  0  0  0
    0.3600   -0.2310   -1.2350 C   0  0  2  0  0  0  0  0  0  0  0  0
    1.5750    0.6580   -0.8790 C   0  0  0  0  0  0  0  0  0  0  0  0
    1.8930    0.2350    0.4250 O   0  0  0  0  0  0  0  0  0  0  0  0
    3.2340   -0.6180    0.6220 P   0  0  0  0  0  0  0  0  0  0  0  0
    4.0010   -1.2660   -0.7390 O   0  0  0  0  0  0  0  0  0  0  0  0
    3.6200   -1.1820    2.0980 O   0  0  0  0  0  0  0  0  0  0  0  0
    4.2090    0.5080    0.6530 O   0  0  0  0  0  0  0  0  0  0  0  0
    5.7240    0.3450    1.0160 P   0  0  0  0  0  0  0  0  0  0  0  0
    7.1660    0.1620    1.4310 O   0  0  0  0  0  0  0  0  0  0  0  0
    5.8320   -0.9870    0.0340 O   0  0  0  0  0  0  0  0  0  0  0  0
    5.2330    0.0610    2.5740 O   0  0  0  0  0  0  0  0  0  0  0  0
   -0.4560    0.2930   -2.3440 C   0  0  1  0  0  0  0  0  0  0  0  0
    0.0590   -0.1030   -3.6040 O   0  0  0  0  0  0  0  0  0  0  0  0
   -1.7350   -0.5710   -2.0850 C   0  0  1  0  0  0  0  0  0  0  0  0
   -1.3960   -1.8630   -2.6130 O   0  0  0  0  0  0  0  0  0  0  0  0
  1  2  1  0
  2  3  2  0
  2  7  1  0
  3  4  1  0
  4  5  2  0
  5  6  1  0
  6  7  2  0
  6 10  1  0
  7  8  1  0
  8  9  2  0
  9 10  1  0
 11 10  1  1
 11 12  1  0
 11 26  1  0
 12 13  1  0
 13 14  1  1
 13 24  1  0
 14 15  1  0
 15 16  1  0
 16 17  1  0
 16 18  1  0
 16 19  1  0
 19 20  1  0
 20 21  1  0
 20 22  1  0
 20 23  1  0
 24 25  1  6
 24 26  1  0
 26 27  1  6
M  END
