
     RDKit          3D

 20 21  0  0  0  0  0  0  0  0999 V2000
   -5.6790    2.1860   -1.1650 O   0  0  0  0  0  0  0  0  0  0  0  0
   -4.9350    1.4340   -0.5060 C   0  0  0  0  0  0  0  0  0  0  0  0
   -3.4680    1.3140   -0.6470 C   0  0  0  0  0  0  0  0  0  0  0  0
   -3.2160   -0.0140    0.0300 C   0  0  2  0  0  0  0  0  0  0  0  0
   -4.2280   -0.0270    1.1200 C   0  0  0  0  0  0  0  0  0  0  0  0
   -5.3690    0.5720    0.4830 O   0  0  0  0  0  0  0  0  0  0  0  0
   -1.9200   -0.1930    0.4280 O   0  0  0  0  0  0  0  0  0  0  0  0
   -1.2760   -0.4890   -0.7940 C   0  0  1  0  0  0  0  0  0  0  0  0
    0.0740   -1.0310   -0.5810 C   0  0  0  0  0  0  0  0  0  0  0  0
    0.3060   -2.2290   -0.8770 O   0  0  0  0  0  0  0  0  0  0  0  0
    1.1570   -0.2870   -0.0570 N   0  0  0  0  0  0  0  0  0  0  0  0
    2.4810   -0.8560    0.1410 C   0  0  0  0  0  0  0  0  0  0  0  0
    3.4450    0.1350    0.7070 C   0  0  0  0  0  0  0  0  0  0  0  0
    4.6950   -0.4390    0.8820 O   0  0  0  0  0  0  0  0  0  0  0  0
    5.8460    0.6620    1.5330 P   0  0  0  0  0  0  0  0  0  0  0  0
    5.9180    2.0810    0.5350 O   0  0  0  0  0  0  0  0  0  0  0  0
    7.4180   -0.0770    1.4840 O   0  0  0  0  0  0  0  0  0  0  0  0
   -2.1280   -1.5240   -1.3420 N   0  0  0  0  0  0  0  0  0  0  0  0
   -3.4540   -1.1620   -0.9000 C   0  0  0  0  0  0  0  0  0  0  0  0
   -4.5230   -1.7080   -1.2400 O   0  0  0  0  0  0  0  0  0  0  0  0
  1  2  2  0
  2  3  1  0
  2  6  1  0
  4  3  1  6
  4  5  1  0
  4  7  1  0
  4 19  1  0
  5  6  1  0
  7  8  1  0
  8  9  1  1
  8 18  1  0
  9 10  2  0
  9 11  1  0
 11 12  1  0
 12 13  1  0
 13 14  1  0
 14 15  1  0
 15 16  1  0
 15 17  1  0
 18 19  1  0
 19 20  2  0
M  END
