
     RDKit          3D

 31 34  0  0  0  0  0  0  0  0999 V2000
    8.7610   -0.8770   -0.6370 C   0  0  0  0  0  0  0  0  0  0  0  0
    8.8930   -1.2660    0.8000 C   0  0  0  0  0  0  0  0  0  0  0  0
    8.1260   -0.4060    1.7500 C   0  0  0  0  0  0  0  0  0  0  0  0
    6.6610   -0.4390    1.6300 C   0  0  0  0  0  0  0  0  0  0  0  0
    6.0070   -0.1070    0.3440 C   0  0  0  0  0  0  0  0  0  0  0  0
    4.5120   -0.1300    0.5360 C   0  0  0  0  0  0  0  0  0  0  0  0
    4.0050    0.0210    1.6540 O   0  0  0  0  0  0  0  0  0  0  0  0
    3.6200   -0.3190   -0.5800 N   0  0  0  0  0  0  0  0  0  0  0  0
    4.2200   -0.7720   -1.8250 C   0  0  0  0  0  0  0  0  0  0  0  0
    2.2170   -0.1170   -0.4450 C   0  0  0  0  0  0  0  0  0  0  0  0
    1.5500    1.0920   -0.2500 C   0  0  0  0  0  0  0  0  0  0  0  0
    0.2030    0.8000   -0.1920 C   0  0  0  0  0  0  0  0  0  0  0  0
    0.0420   -0.5210   -0.3420 N   0  0  0  0  0  0  0  0  0  0  0  0
    1.2720   -1.0460   -0.4920 N   0  0  0  0  0  0  0  0  0  0  0  0
   -1.2700   -1.1370   -0.3350 C   0  0  0  0  0  0  0  0  0  0  0  0
   -2.2010   -0.2990    0.4680 C   0  0  1  0  0  0  0  0  0  0  0  0
   -1.7670   -0.3530    1.9120 C   0  0  0  0  0  0  0  0  0  0  0  0
   -2.2080    1.0420   -0.0280 N   0  0  0  0  0  0  0  0  0  0  0  0
   -2.9410    1.1960   -1.2600 C   0  0  0  0  0  0  0  0  0  0  0  0
   -4.3450    0.8000   -1.0680 C   0  0  0  0  0  0  0  0  0  0  0  0
   -4.8530   -0.4160   -1.4650 C   0  0  0  0  0  0  0  0  0  0  0  0
   -6.1820   -0.7630   -1.2550 C   0  0  0  0  0  0  0  0  0  0  0  0
   -6.7270   -1.9950   -1.6540 N   0  0  0  0  0  0  0  0  0  0  0  0
   -7.0200    0.1370   -0.6280 C   0  0  0  0  0  0  0  0  0  0  0  0
   -8.3390   -0.1300   -0.3750 C   0  0  0  0  0  0  0  0  0  0  0  0
   -9.1350    0.8170    0.2680 C   0  0  0  0  0  0  0  0  0  0  0  0
   -8.6200    2.0380    0.6620 C   0  0  0  0  0  0  0  0  0  0  0  0
   -7.2900    2.2690    0.3920 C   0  0  0  0  0  0  0  0  0  0  0  0
   -6.4830    1.3460   -0.2410 C   0  0  0  0  0  0  0  0  0  0  0  0
   -5.1930    1.6520   -0.4590 N   0  0  0  0  0  0  0  0  0  0  0  0
   -0.9580    1.7220   -0.0020 C   0  0  0  0  0  0  0  0  0  0  0  0
  1  2  1  0
  2  3  1  0
  3  4  1  0
  4  5  1  0
  5  6  1  0
  6  7  2  0
  6  8  1  0
  8  9  1  0
  8 10  1  0
 10 11  1  0
 10 14  2  0
 11 12  2  0
 12 13  1  0
 12 31  1  0
 13 14  1  0
 13 15  1  0
 15 16  1  0
 16 17  1  1
 16 18  1  0
 18 19  1  0
 18 31  1  0
 19 20  1  0
 20 21  2  0
 20 30  1  0
 21 22  1  0
 22 23  1  0
 22 24  2  0
 24 25  1  0
 24 29  1  0
 25 26  2  0
 26 27  1  0
 27 28  2  0
 28 29  1  0
 29 30  2  0
M  CHG  1  30   1
M  END
