
     RDKit          3D

 31 34  0  0  0  0  0  0  0  0999 V2000
    6.1240   -1.8040    2.2650 C   0  0  0  0  0  0  0  0  0  0  0  0
    7.0530   -0.9040    1.7840 O   0  0  0  0  0  0  0  0  0  0  0  0
    6.5940   -0.1180    0.7350 C   0  0  0  0  0  0  0  0  0  0  0  0
    6.1920   -0.9420   -0.4620 C   0  0  0  0  0  0  0  0  0  0  0  0
    5.7280   -0.0410   -1.5030 N   0  0  0  0  0  0  0  0  0  0  0  0
    4.5670   -0.5790   -2.1780 C   0  0  2  0  0  0  0  0  0  0  0  0
    4.5390   -0.0230   -3.5960 C   0  0  0  0  0  0  0  0  0  0  0  0
    3.3180   -0.1600   -1.5010 C   0  0  0  0  0  0  0  0  0  0  0  0
    2.2930   -1.0710   -1.2350 C   0  0  0  0  0  0  0  0  0  0  0  0
    1.1160   -0.7170   -0.6090 C   0  0  0  0  0  0  0  0  0  0  0  0
    0.9520    0.6100   -0.2260 C   0  0  0  0  0  0  0  0  0  0  0  0
   -0.1250    1.2330    0.4260 C   0  0  0  0  0  0  0  0  0  0  0  0
   -1.2680    0.5580    0.9240 C   0  0  0  0  0  0  0  0  0  0  0  0
   -2.5280    0.3740    0.7850 C   0  0  0  0  0  0  0  0  0  0  0  0
   -3.1930   -0.5390    1.7410 N   0  0  0  0  0  0  0  0  0  0  0  0
   -4.4140   -0.8350    1.7500 C   0  0  0  0  0  0  0  0  0  0  0  0
   -4.9980   -1.7830    2.7750 C   0  0  1  0  0  0  0  0  0  0  0  0
   -5.9680   -1.0820    3.6890 C   0  0  0  0  0  0  0  0  0  0  0  0
   -5.8030   -2.8720    2.0510 C   0  0  0  0  0  0  0  0  0  0  0  0
   -5.2570   -0.2550    0.7620 N   0  0  0  0  0  0  0  0  0  0  0  0
   -4.7160    0.6400   -0.2150 C   0  0  0  0  0  0  0  0  0  0  0  0
   -3.3690    0.9700   -0.2290 C   0  0  0  0  0  0  0  0  0  0  0  0
   -3.1600    1.8110   -1.2940 C   0  0  0  0  0  0  0  0  0  0  0  0
   -1.8760    2.3950   -1.7440 C   0  0  0  0  0  0  0  0  0  0  0  0
   -4.3770    1.9760   -1.8940 N   0  0  0  0  0  0  0  0  0  0  0  0
   -5.2780    1.2880   -1.2550 N   0  0  0  0  0  0  0  0  0  0  0  0
   -6.7060    1.1720   -1.5540 C   0  0  0  0  0  0  0  0  0  0  0  0
    0.2890    2.5630    0.5460 C   0  0  0  0  0  0  0  0  0  0  0  0
    1.5010    2.7240    0.0150 N   0  0  0  0  0  0  0  0  0  0  0  0
    1.9300    1.5460   -0.4640 C   0  0  0  0  0  0  0  0  0  0  0  0
    3.0960    1.1280   -1.1010 C   0  0  0  0  0  0  0  0  0  0  0  0
  1  2  1  0
  2  3  1  0
  3  4  1  0
  4  5  1  0
  5  6  1  0
  6  7  1  6
  6  8  1  0
  8  9  2  0
  8 31  1  0
  9 10  1  0
 10 11  2  0
 11 12  1  0
 11 30  1  0
 12 13  1  0
 12 28  2  0
 13 14  2  3
 14 15  1  0
 14 22  1  0
 15 16  2  0
 16 17  1  0
 16 20  1  0
 17 18  1  1
 17 19  1  0
 20 21  1  0
 21 22  2  0
 21 26  1  0
 22 23  1  0
 23 24  1  0
 23 25  2  0
 25 26  1  0
 26 27  1  0
 28 29  1  0
 29 30  1  0
 30 31  2  0
M  CHG  1   5   1
M  END
