
     RDKit          3D

 31 34  0  0  0  0  0  0  0  0999 V2000
    8.9010    0.6060   -0.6190 C   0  0  0  0  0  0  0  0  0  0  0  0
    9.0830    1.0390    0.5980 C   0  0  0  0  0  0  0  0  0  0  0  0
    8.1650    0.8330    1.6880 C   0  0  0  0  0  0  0  0  0  0  0  0
    7.0720    0.2330    1.6820 N   0  0  0  0  0  0  0  0  0  0  0  0
    6.3260   -0.4400    0.7200 C   0  0  0  0  0  0  0  0  0  0  0  0
    6.4640   -1.8230    0.5430 C   0  0  0  0  0  0  0  0  0  0  0  0
    5.6870   -2.4210   -0.4200 C   0  0  0  0  0  0  0  0  0  0  0  0
    4.8160   -1.7390   -1.1820 N   0  0  0  0  0  0  0  0  0  0  0  0
    4.6860   -0.4270   -1.0130 C   0  0  0  0  0  0  0  0  0  0  0  0
    3.7230    0.3780   -1.8480 C   0  0  0  0  0  0  0  0  0  0  0  0
    2.3980    0.4070   -1.2610 N   0  0  2  0  0  0  0  0  0  0  0  0
    1.3860   -0.0940   -2.1520 C   0  0  0  0  0  0  0  0  0  0  0  0
    0.1440    0.8140   -2.1560 C   0  0  0  0  0  0  0  0  0  0  0  0
   -0.2530    0.9960   -0.7590 C   0  0  2  0  0  0  0  0  0  0  0  0
   -1.5440    1.5640   -0.5190 N   0  0  0  0  0  0  0  0  0  0  0  0
   -2.6030    0.9390    0.1790 C   0  0  0  0  0  0  0  0  0  0  0  0
   -2.3840   -0.2060    0.6180 O   0  0  0  0  0  0  0  0  0  0  0  0
   -3.9210    1.5700    0.4010 C   0  0  0  0  0  0  0  0  0  0  0  0
   -4.8770    0.7390    1.1590 C   0  0  2  0  0  0  0  0  0  0  0  0
   -4.4250    0.3580    2.5410 C   0  0  0  0  0  0  0  0  0  0  0  0
   -5.6200   -0.1800    3.2960 C   0  0  0  0  0  0  0  0  0  0  0  0
   -6.7270   -0.6770    2.4290 C   0  0  0  0  0  0  0  0  0  0  0  0
   -6.2580   -1.2520    1.1270 C   0  0  0  0  0  0  0  0  0  0  0  0
   -6.5380   -2.3320    0.4100 N   0  0  0  0  0  0  0  0  0  0  0  0
   -5.7750   -2.3030   -0.7000 C   0  0  0  0  0  0  0  0  0  0  0  0
   -5.7910   -3.3410   -1.7670 C   0  0  0  0  0  0  0  0  0  0  0  0
   -4.9930   -1.1770   -0.6840 C   0  0  0  0  0  0  0  0  0  0  0  0
   -5.2980   -0.5040    0.4780 C   0  0  0  0  0  0  0  0  0  0  0  0
    0.7750    1.8130   -0.0280 C   0  0  0  0  0  0  0  0  0  0  0  0
    2.0730    1.7120   -0.7290 C   0  0  0  0  0  0  0  0  0  0  0  0
    5.4290    0.1880   -0.0830 N   0  0  0  0  0  0  0  0  0  0  0  0
  1  2  2  0
  2  3  1  0
  3  4  2  3
  4  5  1  0
  5  6  2  0
  5 31  1  0
  6  7  1  0
  7  8  2  0
  8  9  1  0
  9 10  1  0
  9 31  2  0
 11 10  1  6
 11 12  1  0
 11 30  1  0
 12 13  1  0
 13 14  1  0
 14 15  1  6
 14 29  1  0
 15 16  1  0
 16 17  2  0
 16 18  1  0
 19 18  1  6
 19 20  1  0
 19 28  1  0
 20 21  1  0
 21 22  1  0
 22 23  1  0
 23 24  1  0
 23 28  2  0
 24 25  1  0
 25 26  1  0
 25 27  2  0
 27 28  1  0
 29 30  1  0
M  CHG  1  11   1
M  END
