
     RDKit          3D

 30 33  0  0  0  0  0  0  0  0999 V2000
    8.8620   -3.0080    1.6260 N   0  0  0  0  0  0  0  0  0  0  0  0
    8.5570   -3.2080    0.2290 C   0  0  0  0  0  0  0  0  0  0  0  0
    7.0700   -3.1340   -0.0200 C   0  0  0  0  0  0  0  0  0  0  0  0
    6.5540   -1.8230    0.3780 N   0  0  0  0  0  0  0  0  0  0  0  0
    5.1750   -1.5250    0.2340 C   0  0  0  0  0  0  0  0  0  0  0  0
    4.4300   -2.4190   -0.2420 O   0  0  0  0  0  0  0  0  0  0  0  0
    4.6150   -0.2450    0.6110 C   0  0  0  0  0  0  0  0  0  0  0  0
    5.3600    0.7720    1.1260 C   0  0  0  0  0  0  0  0  0  0  0  0
    4.8530    1.9810    1.4870 N   0  0  0  0  0  0  0  0  0  0  0  0
    3.5390    2.1610    1.3180 C   0  0  0  0  0  0  0  0  0  0  0  0
    2.7000    1.1940    0.8060 C   0  0  0  0  0  0  0  0  0  0  0  0
    1.2970    1.4720    0.6580 C   0  0  0  0  0  0  0  0  0  0  0  0
    0.2210    0.7840    0.2150 C   0  0  0  0  0  0  0  0  0  0  0  0
   -0.9280    1.3600    0.2250 N   0  0  0  0  0  0  0  0  0  0  0  0
   -1.1460    2.5530    0.6260 C   0  0  0  0  0  0  0  0  0  0  0  0
   -2.2350    3.4500    0.7690 N   0  0  0  0  0  0  0  0  0  0  0  0
   -3.5190    3.0650    0.4150 C   0  0  0  0  0  0  0  0  0  0  0  0
   -3.8840    1.8420   -0.0910 C   0  0  0  0  0  0  0  0  0  0  0  0
   -5.1900    1.5310   -0.4170 C   0  0  0  0  0  0  0  0  0  0  0  0
   -5.6170    0.2890   -0.9330 N   0  0  0  0  0  0  0  0  0  0  0  0
   -6.9900    0.1190   -1.3400 C   0  0  0  0  0  0  0  0  0  0  0  0
   -7.1170   -1.3150   -1.8310 C   0  0  0  0  0  0  0  0  0  0  0  0
   -6.6970   -2.2130   -0.8620 O   0  0  0  0  0  0  0  0  0  0  0  0
   -5.3920   -2.0560   -0.4780 C   0  0  0  0  0  0  0  0  0  0  0  0
   -4.7190   -0.8180   -1.0650 C   0  0  0  0  0  0  0  0  0  0  0  0
   -6.1730    2.5110   -0.2180 C   0  0  0  0  0  0  0  0  0  0  0  0
   -5.8030    3.7140    0.2810 C   0  0  0  0  0  0  0  0  0  0  0  0
   -4.5240    3.9780    0.5850 N   0  0  0  0  0  0  0  0  0  0  0  0
    0.5270    3.0700    1.1120 S   0  0  0  0  0  0  0  0  0  0  0  0
    3.2530   -0.0020    0.4570 C   0  0  0  0  0  0  0  0  0  0  0  0
  1  2  1  0
  2  3  1  0
  3  4  1  0
  4  5  1  0
  5  6  2  0
  5  7  1  0
  7  8  2  0
  7 30  1  0
  8  9  1  0
  9 10  2  0
 10 11  1  0
 11 12  1  0
 11 30  2  0
 12 13  2  0
 12 29  1  0
 13 14  1  0
 14 15  2  0
 15 16  1  0
 15 29  1  0
 16 17  1  0
 17 18  2  0
 17 28  1  0
 18 19  1  0
 19 20  1  0
 19 26  2  0
 20 21  1  0
 20 25  1  0
 21 22  1  0
 22 23  1  0
 23 24  1  0
 24 25  1  0
 26 27  1  0
 27 28  2  0
M  END
