
     RDKit          3D

 38 42  0  0  0  0  0  0  0  0999 V2000
    8.3300    1.1270   -1.1860 C   0  0  0  0  0  0  0  0  0  0  0  0
    7.5330    1.2520   -0.0510 O   0  0  0  0  0  0  0  0  0  0  0  0
    8.0940    0.5830    1.0360 C   0  0  0  0  0  0  0  0  0  0  0  0
    8.2610   -0.8590    0.7980 C   0  0  0  0  0  0  0  0  0  0  0  0
    9.5470   -1.3680    0.6800 C   0  0  0  0  0  0  0  0  0  0  0  0
    9.7690   -2.7050    0.4560 C   0  0  0  0  0  0  0  0  0  0  0  0
    8.6690   -3.5310    0.3520 C   0  0  0  0  0  0  0  0  0  0  0  0
    8.9010   -5.2550    0.0640 Cl  0  0  0  0  0  0  0  0  0  0  0  0
    7.4250   -2.9880    0.4740 C   0  0  0  0  0  0  0  0  0  0  0  0
    7.1890   -1.6610    0.6960 N   0  0  0  0  0  0  0  0  0  0  0  0
    5.8640   -1.1630    0.8010 C   0  0  0  0  0  0  0  0  0  0  0  0
    4.8340   -1.7550    0.0720 C   0  0  0  0  0  0  0  0  0  0  0  0
    3.5310   -1.2990    0.1430 C   0  0  0  0  0  0  0  0  0  0  0  0
    3.2190   -0.2300    0.9500 C   0  0  0  0  0  0  0  0  0  0  0  0
    1.8660    0.3220    1.0810 C   0  0  0  0  0  0  0  0  0  0  0  0
    1.7680    1.3120    1.8350 O   0  0  0  0  0  0  0  0  0  0  0  0
    0.7510   -0.2110    0.4120 N   0  0  0  0  0  0  0  0  0  0  0  0
   -0.5620    0.2850    0.4890 C   0  0  0  0  0  0  0  0  0  0  0  0
   -0.8210    1.5520    0.9160 C   0  0  0  0  0  0  0  0  0  0  0  0
   -2.1220    1.9840    0.9850 C   0  0  0  0  0  0  0  0  0  0  0  0
   -3.2070    1.1560    0.6270 C   0  0  0  0  0  0  0  0  0  0  0  0
   -4.3980    1.6230    0.7130 O   0  0  0  0  0  0  0  0  0  0  0  0
   -5.6040    2.0950    0.8010 C   0  0  1  0  0  0  0  0  0  0  0  0
   -5.9250    2.4100    2.2900 C   0  0  0  0  0  0  0  0  0  0  0  0
   -6.6070    3.7390    2.2600 C   0  0  0  0  0  0  0  0  0  0  0  0
   -5.9140    4.4390    1.1690 N   0  0  0  0  0  0  0  0  0  0  0  0
   -5.8680    3.4390    0.1260 C   0  0  0  0  0  0  0  0  0  0  0  0
   -2.9410   -0.1350    0.1920 C   0  0  0  0  0  0  0  0  0  0  0  0
   -3.9690   -1.0890   -0.2000 C   0  0  0  0  0  0  0  0  0  0  0  0
   -3.6270   -2.2560   -0.5890 O   0  0  0  0  0  0  0  0  0  0  0  0
   -5.3230   -0.8500   -0.1920 O   0  0  0  0  0  0  0  0  0  0  0  0
   -6.3040   -1.7670   -0.5660 C   0  0  0  0  0  0  0  0  0  0  0  0
   -6.2170   -2.2630   -1.9740 C   0  0  1  0  0  0  0  0  0  0  0  0
   -7.3110   -3.2620   -2.3280 C   0  0  0  0  0  0  0  0  0  0  0  0
   -7.3400   -1.8940   -2.9400 C   0  0  0  0  0  0  0  0  0  0  0  0
   -1.6390   -0.5470    0.1300 C   0  0  0  0  0  0  0  0  0  0  0  0
    4.2570    0.3040    1.6340 N   0  0  0  0  0  0  0  0  0  0  0  0
    5.4920   -0.1290    1.5660 N   0  0  0  0  0  0  0  0  0  0  0  0
  1  2  1  0
  2  3  1  0
  3  4  1  0
  4  5  2  0
  4 10  1  0
  5  6  1  0
  6  7  2  0
  7  8  1  0
  7  9  1  0
  9 10  2  0
 10 11  1  0
 11 12  2  0
 11 38  1  0
 12 13  1  0
 13 14  2  0
 14 15  1  0
 14 37  1  0
 15 16  2  0
 15 17  1  0
 17 18  1  0
 18 19  2  0
 18 36  1  0
 19 20  1  0
 20 21  2  0
 21 22  1  0
 21 28  1  0
 23 22  1  1
 23 24  1  0
 23 27  1  0
 24 25  1  0
 25 26  1  0
 26 27  1  0
 28 29  1  0
 28 36  2  0
 29 30  2  0
 29 31  1  0
 31 32  1  0
 33 32  1  1
 33 34  1  0
 33 35  1  0
 34 35  1  0
 37 38  2  0
M  CHG  2  10   1  26   1
M  END
