
     RDKit          3D

 37 42  0  0  0  0  0  0  0  0999 V2000
    9.9540    1.4550   -1.2130 C   0  0  0  0  0  0  0  0  0  0  0  0
    8.6020    1.3970   -1.7050 N   0  0  0  0  0  0  0  0  0  0  0  0
    7.7850    0.4290   -1.0270 C   0  0  0  0  0  0  0  0  0  0  0  0
    6.5830    1.1300   -0.3810 C   0  0  0  0  0  0  0  0  0  0  0  0
    5.7520    0.1090    0.3140 C   0  0  0  0  0  0  0  0  0  0  0  0
    6.0430   -0.1630    1.6370 C   0  0  0  0  0  0  0  0  0  0  0  0
    5.2840   -1.1050    2.2930 C   0  0  0  0  0  0  0  0  0  0  0  0
    4.2490   -1.7980    1.7200 C   0  0  0  0  0  0  0  0  0  0  0  0
    3.9560   -1.5210    0.3780 C   0  0  0  0  0  0  0  0  0  0  0  0
    2.9410   -2.1900   -0.2300 O   0  0  0  0  0  0  0  0  0  0  0  0
    1.5860   -2.0020   -0.2050 C   0  0  0  0  0  0  0  0  0  0  0  0
    0.7560   -3.0500    0.2690 C   0  0  0  0  0  0  0  0  0  0  0  0
   -0.6060   -2.8770    0.2930 C   0  0  0  0  0  0  0  0  0  0  0  0
   -1.1810   -1.7010   -0.1350 C   0  0  0  0  0  0  0  0  0  0  0  0
   -0.3970   -0.6540   -0.6040 C   0  0  0  0  0  0  0  0  0  0  0  0
    0.9880   -0.8310   -0.6270 C   0  0  0  0  0  0  0  0  0  0  0  0
    1.7050    0.2460   -1.0960 O   0  0  0  0  0  0  0  0  0  0  0  0
    1.9830    1.3040   -0.1660 C   0  0  0  0  0  0  0  0  0  0  0  0
    0.7920    1.8740    0.3270 O   0  0  0  0  0  0  0  0  0  0  0  0
   -0.9710    0.5440   -1.0410 O   0  0  0  0  0  0  0  0  0  0  0  0
   -2.3740    0.7200   -1.0190 C   0  0  0  0  0  0  0  0  0  0  0  0
   -3.2230    1.6180   -1.3130 N   0  0  0  0  0  0  0  0  0  0  0  0
   -4.5400    1.2220   -1.0580 N   0  0  0  0  0  0  0  0  0  0  0  0
   -5.6070    2.1940   -1.3050 C   0  0  0  0  0  0  0  0  0  0  0  0
   -6.5220    2.3250   -0.1240 C   0  0  0  0  0  0  0  0  0  0  0  0
   -7.3940    1.2740    0.1880 N   0  0  1  0  0  0  0  0  0  0  0  0
   -7.6360    0.2790   -0.8110 C   0  0  0  0  0  0  0  0  0  0  0  0
   -7.1650    0.6040    1.4530 C   0  0  0  0  0  0  0  0  0  0  0  0
   -5.7640    0.2240    1.7490 C   0  0  0  0  0  0  0  0  0  0  0  0
   -5.0170   -0.4030    0.7340 N   0  0  0  0  0  0  0  0  0  0  0  0
   -4.6380   -1.7310    1.1810 C   0  0  0  0  0  0  0  0  0  0  0  0
   -5.1670   -2.2220    2.1860 O   0  0  0  0  0  0  0  0  0  0  0  0
   -3.5920   -2.5320    0.4250 C   0  0  0  0  0  0  0  0  0  0  0  0
   -2.6030   -1.5540   -0.1040 C   0  0  0  0  0  0  0  0  0  0  0  0
   -3.0920   -0.4100   -0.5310 C   0  0  0  0  0  0  0  0  0  0  0  0
   -4.5430   -0.0980   -0.5820 C   0  0  2  0  0  0  0  0  0  0  0  0
    4.7310   -0.5640   -0.2820 C   0  0  0  0  0  0  0  0  0  0  0  0
  1  2  1  0
  2  3  1  0
  3  4  1  0
  4  5  1  0
  5  6  2  0
  5 37  1  0
  6  7  1  0
  7  8  2  0
  8  9  1  0
  9 10  1  0
  9 37  2  0
 10 11  1  0
 11 12  2  0
 11 16  1  0
 12 13  1  0
 13 14  2  0
 14 15  1  0
 14 34  1  0
 15 16  2  0
 15 20  1  0
 16 17  1  0
 17 18  1  0
 18 19  1  0
 20 21  1  0
 21 22  2  0
 21 35  1  0
 22 23  1  0
 23 24  1  0
 36 23  1  1
 24 25  1  0
 25 26  1  0
 26 27  1  6
 26 28  1  0
 28 29  1  0
 29 30  1  0
 30 31  1  0
 30 36  1  0
 31 32  2  0
 31 33  1  0
 33 34  1  0
 34 35  2  0
 35 36  1  0
M  CHG  2   2   1  26   1
M  END
