
     RDKit          3D

 38 42  0  0  0  0  0  0  0  0999 V2000
    9.6610    2.6340    0.0570 C   0  0  0  0  0  0  0  0  0  0  0  0
   10.2520    1.3230    0.1500 N   0  0  0  0  0  0  0  0  0  0  0  0
    9.5670    0.3620   -0.6860 C   0  0  0  0  0  0  0  0  0  0  0  0
    8.2380   -0.0270   -0.2060 C   0  0  0  0  0  0  0  0  0  0  0  0
    7.3670   -0.6280   -1.1020 C   0  0  0  0  0  0  0  0  0  0  0  0
    6.1130   -1.0030   -0.6830 C   0  0  0  0  0  0  0  0  0  0  0  0
    5.6650   -0.8050    0.6250 C   0  0  0  0  0  0  0  0  0  0  0  0
    4.4950   -1.1380    1.0630 O   0  0  0  0  0  0  0  0  0  0  0  0
    3.2770   -1.5690    0.9020 C   0  0  0  0  0  0  0  0  0  0  0  0
    2.4880   -1.8120    2.0640 C   0  0  0  0  0  0  0  0  0  0  0  0
    1.2090   -2.2570    2.0210 C   0  0  0  0  0  0  0  0  0  0  0  0
    0.6150   -2.4960    0.7690 C   0  0  0  0  0  0  0  0  0  0  0  0
   -0.6670   -2.9390    0.8100 O   0  0  0  0  0  0  0  0  0  0  0  0
   -1.8040   -2.2850    0.4030 C   0  0  0  0  0  0  0  0  0  0  0  0
   -3.0240   -2.8970    0.4900 N   0  0  0  0  0  0  0  0  0  0  0  0
   -4.1470   -2.2900    0.1100 N   0  0  0  0  0  0  0  0  0  0  0  0
   -4.1580   -1.0530   -0.3770 C   0  0  0  0  0  0  0  0  0  0  0  0
   -5.4090   -0.4310   -0.7730 N   0  0  0  0  0  0  0  0  0  0  0  0
   -5.8460    0.5200   -0.0630 C   0  0  0  0  0  0  0  0  0  0  0  0
   -4.9750    0.8230    1.0910 C   0  0  0  0  0  0  0  0  0  0  0  0
   -4.4190   -0.1890    1.5840 O   0  0  0  0  0  0  0  0  0  0  0  0
   -4.7470    2.0830    1.6390 O   0  0  0  0  0  0  0  0  0  0  0  0
   -5.7280    3.0800    1.9110 C   0  0  0  0  0  0  0  0  0  0  0  0
   -6.5450    3.4620    0.7220 C   0  0  0  0  0  0  0  0  0  0  0  0
   -7.6300    2.4660    0.3670 C   0  0  0  0  0  0  0  0  0  0  0  0
   -7.0550    1.3130   -0.3820 C   0  0  0  0  0  0  0  0  0  0  0  0
   -7.6760    0.9710   -1.4800 C   0  0  0  0  0  0  0  0  0  0  0  0
   -7.2400   -0.1150   -2.3730 C   0  0  0  0  0  0  0  0  0  0  0  0
   -6.1200   -0.9480   -1.9030 C   0  0  2  0  0  0  0  0  0  0  0  0
   -6.6220   -2.3610   -1.5030 C   0  0  0  0  0  0  0  0  0  0  0  0
   -2.9720   -0.4070   -0.4830 N   0  0  0  0  0  0  0  0  0  0  0  0
   -1.8070   -1.0090   -0.0990 C   0  0  0  0  0  0  0  0  0  0  0  0
   -0.7210   -0.3460   -0.2150 O   0  0  0  0  0  0  0  0  0  0  0  0
    1.3420   -2.2760   -0.3540 C   0  0  0  0  0  0  0  0  0  0  0  0
    0.6280   -2.6540   -1.9270 Cl  0  0  0  0  0  0  0  0  0  0  0  0
    2.6630   -1.8160   -0.3180 C   0  0  0  0  0  0  0  0  0  0  0  0
    6.5930   -0.1830    1.5160 C   0  0  0  0  0  0  0  0  0  0  0  0
    7.8310    0.1860    1.0980 C   0  0  0  0  0  0  0  0  0  0  0  0
  1  2  1  0
  2  3  1  0
  3  4  1  0
  4  5  2  0
  4 38  1  0
  5  6  1  0
  6  7  2  0
  7  8  1  0
  7 37  1  0
  8  9  1  0
  9 10  2  0
  9 36  1  0
 10 11  1  0
 11 12  2  0
 12 13  1  0
 12 34  1  0
 13 14  1  0
 14 15  2  0
 14 32  1  0
 15 16  1  0
 16 17  2  0
 17 18  1  0
 17 31  1  0
 18 19  2  0
 18 29  1  0
 19 20  1  0
 19 26  1  0
 20 21  2  0
 20 22  1  0
 22 23  1  0
 23 24  1  0
 24 25  1  0
 25 26  1  0
 26 27  2  0
 27 28  1  0
 28 29  1  0
 29 30  1  1
 31 32  1  0
 32 33  2  0
 34 35  1  0
 34 36  2  0
 37 38  2  0
M  CHG  2   2   1  18   1
M  END
