
     RDKit          3D

 38 42  0  0  0  0  0  0  0  0999 V2000
   -7.5920   -0.8790    2.3380 C   0  0  0  0  0  0  0  0  0  0  0  0
   -7.6850    0.4310    2.1990 C   0  0  0  0  0  0  0  0  0  0  0  0
   -6.9560    1.0780    1.1250 C   0  0  0  0  0  0  0  0  0  0  0  0
   -7.0220    2.3650    0.9550 C   0  0  0  0  0  0  0  0  0  0  0  0
   -7.7970    3.2910    1.7760 C   0  0  0  0  0  0  0  0  0  0  0  0
   -9.0220    4.1670    0.7760 Cl  0  0  0  0  0  0  0  0  0  0  0  0
   -6.1340    0.1950    0.2390 C   0  0  0  0  0  0  0  0  0  0  0  0
   -5.4160    0.9780   -0.8360 C   0  0  0  0  0  0  0  0  0  0  0  0
   -4.6310    0.1230   -1.6910 N   0  0  0  0  0  0  0  0  0  0  0  0
   -5.0720   -0.4580   -2.8140 C   0  0  0  0  0  0  0  0  0  0  0  0
   -6.2720   -0.2710   -3.1970 O   0  0  0  0  0  0  0  0  0  0  0  0
   -4.2910   -1.2460   -3.5700 N   0  0  0  0  0  0  0  0  0  0  0  0
   -2.9920   -1.5030   -3.2370 C   0  0  0  0  0  0  0  0  0  0  0  0
   -2.2250   -2.2760   -3.9930 N   0  0  0  0  0  0  0  0  0  0  0  0
   -0.9580   -2.4960   -3.6340 C   0  0  0  0  0  0  0  0  0  0  0  0
   -0.4170   -1.9320   -2.4810 C   0  0  0  0  0  0  0  0  0  0  0  0
   -1.1820   -1.1160   -1.6560 C   0  0  0  0  0  0  0  0  0  0  0  0
   -0.6270   -0.5620   -0.4570 C   0  0  0  0  0  0  0  0  0  0  0  0
    0.7830   -0.9010   -0.2780 N   0  0  2  0  0  0  0  0  0  0  0  0
    1.0050   -2.2170    0.2350 C   0  0  0  0  0  0  0  0  0  0  0  0
    2.4060   -2.7000   -0.0230 C   0  0  0  0  0  0  0  0  0  0  0  0
    3.4430   -1.8520    0.6850 C   0  0  0  0  0  0  0  0  0  0  0  0
    3.7190   -0.5800   -0.0890 C   0  0  2  0  0  0  0  0  0  0  0  0
    5.1040   -0.0810    0.1160 C   0  0  0  0  0  0  0  0  0  0  0  0
    5.6150    0.3600    1.2900 N   0  0  0  0  0  0  0  0  0  0  0  0
    6.8930    0.7300    1.0900 C   0  0  0  0  0  0  0  0  0  0  0  0
    7.1590    0.5100   -0.2230 C   0  0  0  0  0  0  0  0  0  0  0  0
    6.0860    0.0340   -0.7610 O   0  0  0  0  0  0  0  0  0  0  0  0
    8.4310    0.7500   -0.9680 C   0  0  0  0  0  0  0  0  0  0  0  0
    9.0430    1.9340   -0.6000 O   0  0  0  0  0  0  0  0  0  0  0  0
    8.4550    2.5660    0.4700 C   0  0  0  0  0  0  0  0  0  0  0  0
    8.8740    1.9230    1.6370 O   0  0  0  0  0  0  0  0  0  0  0  0
    7.7630    1.2630    2.1620 C   0  0  0  0  0  0  0  0  0  0  0  0
    2.7500    0.4860    0.2970 C   0  0  0  0  0  0  0  0  0  0  0  0
    1.3980    0.0200    0.6780 C   0  0  0  0  0  0  0  0  0  0  0  0
   -2.5000   -0.9250   -2.0900 C   0  0  0  0  0  0  0  0  0  0  0  0
   -3.3280   -0.1250   -1.3420 C   0  0  0  0  0  0  0  0  0  0  0  0
   -2.8690    0.3990   -0.3000 O   0  0  0  0  0  0  0  0  0  0  0  0
  1  2  2  0
  2  3  1  0
  3  4  2  3
  3  7  1  0
  4  5  1  0
  5  6  1  0
  7  8  1  0
  8  9  1  0
  9 10  1  0
  9 37  1  0
 10 11  2  0
 10 12  1  0
 12 13  1  0
 13 14  2  0
 13 36  1  0
 14 15  1  0
 15 16  2  0
 16 17  1  0
 17 18  1  0
 17 36  2  0
 19 18  1  1
 19 20  1  0
 19 35  1  0
 20 21  1  0
 21 22  1  0
 22 23  1  0
 23 24  1  1
 23 34  1  0
 24 25  2  0
 24 28  1  0
 25 26  1  0
 26 27  2  0
 26 33  1  0
 27 28  1  0
 27 29  1  0
 29 30  1  0
 30 31  1  0
 31 32  1  0
 32 33  1  0
 34 35  1  0
 36 37  1  0
 37 38  2  0
M  CHG  2  19   1  25   1
M  END
