
     RDKit          3D

 38 43  0  0  0  0  0  0  0  0999 V2000
  -10.0370    0.8570    0.1920 C   0  0  0  0  0  0  0  0  0  0  0  0
   -8.6570    0.5000    0.7640 C   0  0  0  0  0  0  0  0  0  0  0  0
   -8.2820   -0.6720    0.1650 O   0  0  0  0  0  0  0  0  0  0  0  0
   -7.0760   -1.1970    0.5220 C   0  0  0  0  0  0  0  0  0  0  0  0
   -5.9080   -0.3040    0.2080 C   0  0  0  0  0  0  0  0  0  0  0  0
   -5.9900    0.8580   -0.3540 O   0  0  0  0  0  0  0  0  0  0  0  0
   -4.7870    1.3520   -0.4750 C   0  0  0  0  0  0  0  0  0  0  0  0
   -4.4700    2.6110   -1.0460 O   0  0  0  0  0  0  0  0  0  0  0  0
   -4.1320    2.5340   -2.4340 C   0  0  0  0  0  0  0  0  0  0  0  0
   -3.8580    0.4810    0.0290 C   0  0  0  0  0  0  0  0  0  0  0  0
   -2.3990    0.5860    0.1400 C   0  0  0  0  0  0  0  0  0  0  0  0
   -1.5510   -0.3470    0.6190 N   0  0  0  0  0  0  0  0  0  0  0  0
   -0.2990    0.1050    0.5590 C   0  0  0  0  0  0  0  0  0  0  0  0
    0.9240   -0.4440    0.9170 C   0  0  0  0  0  0  0  0  0  0  0  0
    2.0420    0.3230    0.7110 C   0  0  0  0  0  0  0  0  0  0  0  0
    1.9970    1.5590    0.1870 N   0  0  0  0  0  0  0  0  0  0  0  0
    0.8240    2.0900   -0.1580 C   0  0  0  0  0  0  0  0  0  0  0  0
   -0.3300    1.3730    0.0240 C   0  0  0  0  0  0  0  0  0  0  0  0
   -1.6530    1.6340   -0.2230 N   0  0  0  0  0  0  0  0  0  0  0  0
    3.2390   -0.4350    1.1560 C   0  0  2  0  0  0  0  0  0  0  0  0
    4.3350   -0.2030    0.2770 N   0  0  0  0  0  0  0  0  0  0  0  0
    4.4490   -1.1180   -0.8150 C   0  0  0  0  0  0  0  0  0  0  0  0
    5.5260   -0.6430   -1.7830 C   0  0  2  0  0  0  0  0  0  0  0  0
    6.7790   -0.5620   -1.1230 O   0  0  0  0  0  0  0  0  0  0  0  0
    7.0240    0.7940   -0.8890 C   0  0  0  0  0  0  0  0  0  0  0  0
    8.0190    1.3850   -0.1550 C   0  0  0  0  0  0  0  0  0  0  0  0
    8.0600    2.7510   -0.0660 C   0  0  0  0  0  0  0  0  0  0  0  0
    7.1140    3.5330   -0.7040 C   0  0  0  0  0  0  0  0  0  0  0  0
    6.1060    2.9230   -1.4470 C   0  0  0  0  0  0  0  0  0  0  0  0
    6.0660    1.5590   -1.5360 C   0  0  0  0  0  0  0  0  0  0  0  0
    5.2150    0.6620   -2.1810 O   0  0  0  0  0  0  0  0  0  0  0  0
    2.7600   -1.8620    1.2220 C   0  0  0  0  0  0  0  0  0  0  0  0
    1.2580   -1.7670    1.5050 C   0  0  2  0  0  0  0  0  0  0  0  0
    0.5810   -2.8570    0.8560 N   0  0  2  0  0  0  0  0  0  0  0  0
    1.1260   -4.1030    1.3320 C   0  0  0  0  0  0  0  0  0  0  0  0
    0.5360   -2.7530   -0.5680 C   0  0  0  0  0  0  0  0  0  0  0  0
   -4.5980   -0.6140    0.4800 C   0  0  0  0  0  0  0  0  0  0  0  0
   -3.9320   -2.0380    1.2220 Cl  0  0  0  0  0  0  0  0  0  0  0  0
  1  2  1  0
  2  3  1  0
  3  4  1  0
  4  5  1  0
  5  6  1  0
  5 37  2  0
  6  7  1  0
  7  8  1  0
  7 10  2  0
  8  9  1  0
 10 11  1  0
 10 37  1  0
 11 12  2  0
 11 19  1  0
 12 13  1  0
 13 14  2  0
 13 18  1  0
 14 15  1  0
 14 33  1  0
 15 16  2  0
 15 20  1  0
 16 17  1  0
 17 18  2  0
 18 19  1  0
 20 21  1  6
 20 32  1  0
 21 22  1  0
 23 22  1  1
 23 24  1  0
 23 31  1  0
 24 25  1  0
 25 26  2  0
 25 30  1  0
 26 27  1  0
 27 28  2  0
 28 29  1  0
 29 30  2  0
 30 31  1  0
 33 32  1  6
 33 34  1  0
 34 35  1  6
 34 36  1  0
 37 38  1  0
M  CHG  2  21   1  34   1
M  END
