
     RDKit          3D

 38 41  0  0  0  0  0  0  0  0999 V2000
    0.1500   -2.3920    3.1330 C   0  0  0  0  0  0  0  0  0  0  0  0
    1.3520   -2.5310    2.2380 C   0  0  1  0  0  0  0  0  0  0  0  0
    1.1530   -3.8450    1.4700 C   0  0  0  0  0  0  0  0  0  0  0  0
    1.5670   -1.4230    1.2730 C   0  0  0  0  0  0  0  0  0  0  0  0
    1.7590   -0.1260    1.7910 N   0  0  0  0  0  0  0  0  0  0  0  0
    0.6780    0.6050    2.2880 C   0  0  0  0  0  0  0  0  0  0  0  0
    0.3180    1.8690    1.5460 C   0  0  1  0  0  0  0  0  0  0  0  0
    1.4430    2.6870    1.5640 O   0  0  0  0  0  0  0  0  0  0  0  0
   -0.1190    1.6780    0.1330 C   0  0  2  0  0  0  0  0  0  0  0  0
   -0.3660    3.0330   -0.5430 C   0  0  0  0  0  0  0  0  0  0  0  0
   -1.4220    3.8150    0.1370 C   0  0  0  0  0  0  0  0  0  0  0  0
   -1.1630    4.7100    1.1500 C   0  0  0  0  0  0  0  0  0  0  0  0
   -2.1690    5.4350    1.7780 C   0  0  0  0  0  0  0  0  0  0  0  0
   -3.4800    5.2550    1.3740 C   0  0  0  0  0  0  0  0  0  0  0  0
   -3.7630    4.3750    0.3720 C   0  0  0  0  0  0  0  0  0  0  0  0
   -2.7420    3.6570   -0.2460 C   0  0  0  0  0  0  0  0  0  0  0  0
   -1.2980    0.8540   -0.0190 N   0  0  0  0  0  0  0  0  0  0  0  0
   -1.3630   -0.1820   -0.9710 C   0  0  0  0  0  0  0  0  0  0  0  0
   -0.3690   -0.3890   -1.7080 O   0  0  0  0  0  0  0  0  0  0  0  0
   -2.4700   -0.9940   -1.1460 O   0  0  0  0  0  0  0  0  0  0  0  0
   -2.4330   -1.9990   -2.1230 C   0  0  1  0  0  0  0  0  0  0  0  0
   -2.6370   -3.3730   -1.5660 C   0  0  0  0  0  0  0  0  0  0  0  0
   -3.6630   -3.9810   -2.2330 O   0  0  0  0  0  0  0  0  0  0  0  0
   -3.8720   -3.3020   -3.4220 C   0  0  1  0  0  0  0  0  0  0  0  0
   -5.2000   -3.2550   -3.7950 O   0  0  0  0  0  0  0  0  0  0  0  0
   -5.8270   -2.3120   -3.0100 C   0  0  0  0  0  0  0  0  0  0  0  0
   -4.8010   -1.3220   -2.5660 C   0  0  0  0  0  0  0  0  0  0  0  0
   -3.5190   -1.8610   -3.1360 C   0  0  1  0  0  0  0  0  0  0  0  0
    3.3170    0.2320    2.3280 S   0  0  2  0  0  0  0  0  0  0  0  0
    3.7690   -0.6550    3.4650 O   0  0  0  0  0  0  0  0  0  0  0  0
    3.3930    1.6270    2.8620 O   0  0  0  0  0  0  0  0  0  0  0  0
    4.4280    0.1110    0.9770 C   0  0  0  0  0  0  0  0  0  0  0  0
    4.6830    1.2600    0.2640 C   0  0  0  0  0  0  0  0  0  0  0  0
    5.5260    1.2840   -0.8060 C   0  0  0  0  0  0  0  0  0  0  0  0
    6.1440    0.1170   -1.1880 C   0  0  0  0  0  0  0  0  0  0  0  0
    7.0190    0.1700   -2.3070 N   0  0  0  0  0  0  0  0  0  0  0  0
    5.8900   -1.0360   -0.4740 C   0  0  0  0  0  0  0  0  0  0  0  0
    5.0350   -1.0480    0.6080 C   0  0  0  0  0  0  0  0  0  0  0  0
  2  1  1  6
  2  3  1  0
  2  4  1  0
  4  5  1  0
  5  6  1  0
 29  5  1  6
  6  7  1  0
  7  8  1  6
  7  9  1  0
  9 10  1  1
  9 17  1  0
 10 11  1  0
 11 12  2  0
 11 16  1  0
 12 13  1  0
 13 14  2  0
 14 15  1  0
 15 16  2  0
 17 18  1  0
 18 19  2  0
 18 20  1  0
 21 20  1  1
 21 22  1  0
 21 28  1  0
 22 23  1  0
 24 23  1  1
 24 25  1  0
 24 28  1  0
 25 26  1  0
 26 27  1  0
 28 27  1  1
 29 30  2  0
 29 31  2  0
 29 32  1  0
 32 33  2  0
 32 38  1  0
 33 34  1  0
 34 35  2  0
 35 36  1  0
 35 37  1  0
 37 38  2  0
M  END
