
     RDKit          3D

 40 42  0  0  0  0  0  0  0  0999 V2000
   10.0640    0.3550    0.9140 C   0  0  0  0  0  0  0  0  0  0  0  0
    9.4430    1.1660    0.0950 C   0  0  0  0  0  0  0  0  0  0  0  0
    8.0070    1.0600   -0.1030 C   0  0  0  0  0  0  0  0  0  0  0  0
    7.4230    1.9020   -0.9420 C   0  0  0  0  0  0  0  0  0  0  0  0
    8.2000    2.9220   -1.6610 C   0  0  0  0  0  0  0  0  0  0  0  0
    7.3040   -0.0010    0.6360 C   0  0  0  0  0  0  0  0  0  0  0  0
    5.9390   -0.0980    0.4000 O   0  0  0  0  0  0  0  0  0  0  0  0
    5.3710   -0.4410   -0.8060 C   0  0  0  0  0  0  0  0  0  0  0  0
    6.1380   -0.7020   -1.7810 O   0  0  0  0  0  0  0  0  0  0  0  0
    3.9230   -0.5320   -1.0650 C   0  0  0  0  0  0  0  0  0  0  0  0
    3.0600   -0.2300    0.1290 C   0  0  2  0  0  0  0  0  0  0  0  0
    3.3270    1.1920    0.6390 C   0  0  0  0  0  0  0  0  0  0  0  0
    3.2460   -1.1690    1.2760 C   0  0  0  0  0  0  0  0  0  0  0  0
    2.9090   -2.5960    0.9150 C   0  0  0  0  0  0  0  0  0  0  0  0
    1.5930   -2.6670    0.1610 C   0  0  0  0  0  0  0  0  0  0  0  0
    0.8940   -1.4040    0.2150 N   0  0  0  0  0  0  0  0  0  0  0  0
   -0.4060   -1.2090    0.7370 C   0  0  0  0  0  0  0  0  0  0  0  0
   -0.8790   -0.0170    0.7020 O   0  0  0  0  0  0  0  0  0  0  0  0
   -1.1970   -2.2360    1.2850 N   0  0  0  0  0  0  0  0  0  0  0  0
   -2.5320   -1.8860    1.7850 C   0  0  0  0  0  0  0  0  0  0  0  0
   -3.3550   -1.3310    0.6590 C   0  0  0  0  0  0  0  0  0  0  0  0
   -2.8620   -1.2360   -0.4960 O   0  0  0  0  0  0  0  0  0  0  0  0
   -4.6920   -0.9050    0.8690 N   0  0  0  0  0  0  0  0  0  0  0  0
   -5.5340   -0.3650   -0.1700 C   0  0  1  0  0  0  0  0  0  0  0  0
   -6.8110   -1.1640   -0.3510 C   0  0  0  0  0  0  0  0  0  0  0  0
   -8.0420   -0.4950   -0.1870 C   0  0  0  0  0  0  0  0  0  0  0  0
   -9.2650   -1.6820   -0.4650 S   0  0  0  0  0  0  0  0  0  0  0  0
   -7.9800   -3.0700   -0.8020 C   0  0  0  0  0  0  0  0  0  0  0  0
   -8.2440   -4.3480   -1.1100 C   0  0  0  0  0  0  0  0  0  0  0  0
   -6.5770   -4.9990   -1.2790 S   0  0  0  0  0  0  0  0  0  0  0  0
   -5.7600   -3.4620   -0.9110 C   0  0  0  0  0  0  0  0  0  0  0  0
   -6.9280   -2.4950   -0.6690 C   0  0  0  0  0  0  0  0  0  0  0  0
   -5.8050    1.0740    0.0980 C   0  0  1  0  0  0  0  0  0  0  0  0
   -6.4300    1.2980    1.3440 O   0  0  0  0  0  0  0  0  0  0  0  0
   -4.5290    1.8660    0.0930 C   0  0  0  0  0  0  0  0  0  0  0  0
   -4.8450    3.2690    0.2680 N   0  0  0  0  0  0  0  0  0  0  0  0
   -5.6360    4.0210   -0.6300 C   0  0  0  0  0  0  0  0  0  0  0  0
   -5.9010    5.4700   -0.3450 C   0  0  0  0  0  0  0  0  0  0  0  0
   -6.1190    3.5170   -1.6510 O   0  0  0  0  0  0  0  0  0  0  0  0
    1.6120   -0.2370   -0.3270 C   0  0  0  0  0  0  0  0  0  0  0  0
  1  2  2  0
  2  3  1  0
  3  4  2  3
  3  6  1  0
  4  5  1  0
  6  7  1  0
  7  8  1  0
  8  9  2  0
  8 10  1  0
 10 11  1  0
 11 12  1  1
 11 13  1  0
 11 40  1  0
 13 14  1  0
 14 15  1  0
 15 16  1  0
 16 17  1  0
 16 40  1  0
 17 18  2  0
 17 19  1  0
 19 20  1  0
 20 21  1  0
 21 22  2  0
 21 23  1  0
 24 23  1  1
 24 25  1  0
 24 33  1  0
 25 26  2  0
 25 32  1  0
 26 27  1  0
 27 28  1  0
 28 29  2  0
 28 32  1  0
 29 30  1  0
 30 31  1  0
 31 32  2  0
 33 34  1  1
 33 35  1  0
 35 36  1  0
 36 37  1  0
 37 38  1  0
 37 39  2  0
M  END
