
     RDKit          3D

 40 43  0  0  0  0  0  0  0  0999 V2000
    2.5080   -2.5590    1.5170 C   0  0  0  0  0  0  0  0  0  0  0  0
    3.0610   -1.2680    1.7270 O   0  0  0  0  0  0  0  0  0  0  0  0
    3.5730   -0.6170    0.6200 C   0  0  0  0  0  0  0  0  0  0  0  0
    3.5750   -1.1310   -0.6120 N   0  0  0  0  0  0  0  0  0  0  0  0
    4.0810   -0.4810   -1.6850 C   0  0  0  0  0  0  0  0  0  0  0  0
    4.0440   -1.2430   -3.3230 S   0  0  0  0  0  0  0  0  0  0  0  0
    2.4970   -0.7810   -4.1440 C   0  0  0  0  0  0  0  0  0  0  0  0
    1.3600   -1.3970   -3.3990 C   0  0  0  0  0  0  0  0  0  0  0  0
    0.7320   -0.7540   -2.3680 C   0  0  0  0  0  0  0  0  0  0  0  0
   -0.3470   -1.3110   -1.6510 C   0  0  0  0  0  0  0  0  0  0  0  0
   -0.9760   -0.4900   -0.5910 C   0  0  0  0  0  0  0  0  0  0  0  0
   -2.1880    0.2220   -1.1530 C   0  0  0  0  0  0  0  0  0  0  0  0
   -2.8260    1.2230   -0.3120 C   0  0  0  0  0  0  0  0  0  0  0  0
   -3.4750    1.0560    0.9740 C   0  0  1  0  0  0  0  0  0  0  0  0
   -3.9270    2.4360    1.5280 C   0  0  0  0  0  0  0  0  0  0  0  0
   -2.7410    3.3630    1.7000 C   0  0  0  0  0  0  0  0  0  0  0  0
   -1.7840    2.8780    2.5570 O   0  0  0  0  0  0  0  0  0  0  0  0
   -4.6130    0.1250    1.0130 C   0  0  1  0  0  0  0  0  0  0  0  0
   -4.2660   -1.3230    0.6890 C   0  0  0  0  0  0  0  0  0  0  0  0
   -5.5600    0.0670    2.4980 S   0  0  1  0  0  0  0  0  0  0  0  0
   -6.5690    1.4580    2.8130 C   0  0  0  0  0  0  0  0  0  0  0  0
   -6.4760   -1.1450    2.3750 O   0  0  0  0  0  0  0  0  0  0  0  0
   -4.6630   -0.2670    3.6800 O   0  0  0  0  0  0  0  0  0  0  0  0
   -0.7530   -2.5520   -2.0310 C   0  0  0  0  0  0  0  0  0  0  0  0
   -1.7830   -3.1520   -1.3670 N   0  0  0  0  0  0  0  0  0  0  0  0
   -2.1820   -4.3710   -1.7240 C   0  0  0  0  0  0  0  0  0  0  0  0
   -3.1350   -4.9160   -1.1020 O   0  0  0  0  0  0  0  0  0  0  0  0
   -1.5780   -5.0170   -2.7350 N   0  0  0  0  0  0  0  0  0  0  0  0
   -0.5600   -4.4780   -3.4250 C   0  0  0  0  0  0  0  0  0  0  0  0
    0.0010   -5.0880   -4.3700 O   0  0  0  0  0  0  0  0  0  0  0  0
   -0.1380   -3.2290   -3.0720 C   0  0  0  0  0  0  0  0  0  0  0  0
    0.9020   -2.6620   -3.7450 C   0  0  0  0  0  0  0  0  0  0  0  0
    4.6040    0.7400   -1.4910 N   0  0  0  0  0  0  0  0  0  0  0  0
    4.6360    1.3200   -0.2780 C   0  0  0  0  0  0  0  0  0  0  0  0
    4.1120    0.6390    0.8150 C   0  0  0  0  0  0  0  0  0  0  0  0
    4.0270    1.0530    2.2380 C   0  0  0  0  0  0  0  0  0  0  0  0
    4.6930    2.3790    2.4340 C   0  0  0  0  0  0  0  0  0  0  0  0
    6.1440    2.3870    2.0500 C   0  0  0  0  0  0  0  0  0  0  0  0
    6.4200    2.7230    0.6280 C   0  0  0  0  0  0  0  0  0  0  0  0
    5.2480    2.6680   -0.2910 C   0  0  0  0  0  0  0  0  0  0  0  0
  1  2  1  0
  2  3  1  0
  3  4  2  0
  3 35  1  0
  4  5  1  0
  5  6  1  0
  5 33  2  0
  6  7  1  0
  7  8  1  0
  8  9  2  0
  8 32  1  0
  9 10  1  0
 10 11  1  0
 10 24  2  0
 11 12  1  0
 12 13  1  0
 14 13  1  6
 14 15  1  0
 14 18  1  0
 15 16  1  0
 16 17  1  0
 18 19  1  1
 18 20  1  0
 20 21  1  1
 20 22  2  0
 20 23  2  0
 24 25  1  0
 24 31  1  0
 25 26  1  0
 26 27  2  0
 26 28  1  0
 28 29  1  0
 29 30  2  0
 29 31  1  0
 31 32  2  0
 33 34  1  0
 34 35  2  0
 34 40  1  0
 35 36  1  0
 36 37  1  0
 37 38  1  0
 38 39  1  0
 39 40  1  0
M  END
