
     RDKit          3D

 40 43  0  0  0  0  0  0  0  0999 V2000
   -5.2410    6.4010   -2.2990 C   0  0  0  0  0  0  0  0  0  0  0  0
   -5.9590    5.4800   -1.3460 C   0  0  0  0  0  0  0  0  0  0  0  0
   -5.0160    4.6330   -0.5420 C   0  0  0  0  0  0  0  0  0  0  0  0
   -6.0230    3.6020    0.5300 S   0  0  1  0  0  0  0  0  0  0  0  0
   -6.8020    4.5720    1.4000 O   0  0  0  0  0  0  0  0  0  0  0  0
   -6.9210    2.7970   -0.3270 O   0  0  0  0  0  0  0  0  0  0  0  0
   -5.0310    2.5870    1.4970 N   0  0  0  0  0  0  0  0  0  0  0  0
   -4.1530    1.6140    0.9280 C   0  0  0  0  0  0  0  0  0  0  0  0
   -4.5870    0.7930   -0.0830 C   0  0  0  0  0  0  0  0  0  0  0  0
   -3.7380   -0.1370   -0.6240 C   0  0  0  0  0  0  0  0  0  0  0  0
   -2.4600   -0.2660   -0.1760 C   0  0  0  0  0  0  0  0  0  0  0  0
   -1.6090   -1.2680   -0.7880 C   0  0  0  0  0  0  0  0  0  0  0  0
   -1.0020   -0.8160   -1.8380 O   0  0  0  0  0  0  0  0  0  0  0  0
   -1.4150   -2.5810   -0.3550 N   0  0  0  0  0  0  0  0  0  0  0  0
   -1.9490   -3.3110    0.7390 C   0  0  1  0  0  0  0  0  0  0  0  0
   -2.8990   -2.6460    1.6480 C   0  0  0  0  0  0  0  0  0  0  0  0
   -2.5290   -4.5220    0.0280 C   0  0  0  0  0  0  0  0  0  0  0  0
   -1.5560   -4.7050   -1.1190 C   0  0  0  0  0  0  0  0  0  0  0  0
   -0.5540   -3.5460   -1.0000 C   0  0  1  0  0  0  0  0  0  0  0  0
    0.0130   -3.1250   -2.3060 C   0  0  0  0  0  0  0  0  0  0  0  0
    0.8000   -4.1800   -2.7840 O   0  0  0  0  0  0  0  0  0  0  0  0
   -1.9870    0.5260    0.8250 C   0  0  0  0  0  0  0  0  0  0  0  0
   -0.6310    0.4990    1.3800 C   0  0  0  0  0  0  0  0  0  0  0  0
    0.4010    1.2530    0.5800 C   0  0  0  0  0  0  0  0  0  0  0  0
    1.7720    1.1700    1.2190 C   0  0  0  0  0  0  0  0  0  0  0  0
    2.2510   -0.1670    1.3240 N   0  0  0  0  0  0  0  0  0  0  0  0
    3.7790   -0.3560    2.0300 S   0  0  2  0  0  0  0  0  0  0  0  0
    3.8000   -1.7250    2.7010 O   0  0  0  0  0  0  0  0  0  0  0  0
    3.8680    0.6300    3.1890 O   0  0  0  0  0  0  0  0  0  0  0  0
    5.1040   -0.1630    0.9760 N   0  0  0  0  0  0  0  0  0  0  0  0
    5.4260   -0.9230   -0.1670 C   0  0  0  0  0  0  0  0  0  0  0  0
    4.6660   -1.7120   -1.0120 C   0  0  0  0  0  0  0  0  0  0  0  0
    5.2180   -2.3800   -2.1080 C   0  0  0  0  0  0  0  0  0  0  0  0
    6.5660   -2.2370   -2.3390 C   0  0  0  0  0  0  0  0  0  0  0  0
    7.3560   -1.4610   -1.5220 C   0  0  0  0  0  0  0  0  0  0  0  0
    6.7670   -0.8260   -0.4590 C   0  0  0  0  0  0  0  0  0  0  0  0
    7.3650    0.0640    0.5820 C   0  0  0  0  0  0  0  0  0  0  0  0
    6.1710    0.8430    1.0620 C   0  0  2  0  0  0  0  0  0  0  0  0
    6.4010    1.2620    2.4980 C   0  0  0  0  0  0  0  0  0  0  0  0
   -2.8480    1.4860    1.3900 C   0  0  0  0  0  0  0  0  0  0  0  0
  1  2  1  0
  2  3  1  0
  4  3  1  6
  4  5  2  0
  4  6  2  0
  4  7  1  0
  7  8  1  0
  8  9  2  0
  8 40  1  0
  9 10  1  0
 10 11  2  0
 11 12  1  0
 11 22  1  0
 12 13  2  0
 12 14  1  0
 14 15  1  0
 14 19  1  0
 15 16  1  6
 15 17  1  0
 17 18  1  0
 18 19  1  0
 19 20  1  6
 20 21  1  0
 22 23  1  0
 22 40  2  0
 23 24  1  0
 24 25  1  0
 25 26  1  0
 27 26  1  6
 27 28  2  0
 27 29  2  0
 27 30  1  0
 30 31  1  0
 30 38  1  0
 31 32  2  0
 31 36  1  0
 32 33  1  0
 33 34  2  0
 34 35  1  0
 35 36  2  0
 36 37  1  0
 37 38  1  0
 38 39  1  1
M  END
