
     RDKit          3D

 40 43  0  0  0  0  0  0  0  0999 V2000
    0.8210   -3.7520    0.2530 C   0  0  0  0  0  0  0  0  0  0  0  0
    0.1550   -3.6650   -1.1000 C   0  0  0  0  0  0  0  0  0  0  0  0
    0.2700   -2.2670   -1.6840 C   0  0  0  0  0  0  0  0  0  0  0  0
   -0.3780   -1.2530   -0.7950 C   0  0  2  0  0  0  0  0  0  0  0  0
   -1.8050   -1.5040   -0.5860 C   0  0  0  0  0  0  0  0  0  0  0  0
   -2.3480   -1.6350    0.6730 C   0  0  0  0  0  0  0  0  0  0  0  0
   -3.6970   -1.8770    0.8190 C   0  0  0  0  0  0  0  0  0  0  0  0
   -4.5440   -1.9970   -0.2580 C   0  0  0  0  0  0  0  0  0  0  0  0
   -5.9900   -2.2600   -0.0860 C   0  0  0  0  0  0  0  0  0  0  0  0
   -6.9570   -0.7280    0.0540 S   0  0  0  0  0  0  0  0  0  0  0  0
   -6.5420    0.1550    1.5820 C   0  0  0  0  0  0  0  0  0  0  0  0
   -7.3870    1.4180    1.6310 C   0  0  2  0  0  0  0  0  0  0  0  0
   -7.0850    2.2110    2.8990 C   0  0  0  0  0  0  0  0  0  0  0  0
   -5.7560    2.6310    2.9240 O   0  0  0  0  0  0  0  0  0  0  0  0
   -8.7290    1.0550    1.7180 O   0  0  0  0  0  0  0  0  0  0  0  0
   -9.4680    1.5840    0.6600 C   0  0  0  0  0  0  0  0  0  0  0  0
   -4.0110   -1.8680   -1.5190 C   0  0  0  0  0  0  0  0  0  0  0  0
   -2.6420   -1.6220   -1.6710 C   0  0  0  0  0  0  0  0  0  0  0  0
   -0.0440    0.1640   -1.2070 C   0  0  2  0  0  0  0  0  0  0  0  0
   -0.4660    0.5240   -2.5850 C   0  0  0  0  0  0  0  0  0  0  0  0
    0.1350    1.7710   -3.1020 C   0  0  0  0  0  0  0  0  0  0  0  0
   -0.5800    2.5810   -3.7370 O   0  0  0  0  0  0  0  0  0  0  0  0
    1.5120    1.9990   -2.8550 N   0  0  0  0  0  0  0  0  0  0  0  0
    2.0900    1.2890   -1.7690 C   0  0  0  0  0  0  0  0  0  0  0  0
    3.3860    1.3200   -1.3110 C   0  0  0  0  0  0  0  0  0  0  0  0
    3.4380    0.4640   -0.2460 C   0  0  0  0  0  0  0  0  0  0  0  0
    4.6330    0.1730    0.5680 C   0  0  0  0  0  0  0  0  0  0  0  0
    4.5520   -0.6300    1.5220 O   0  0  0  0  0  0  0  0  0  0  0  0
    5.8810    0.7850    0.2910 N   0  0  0  0  0  0  0  0  0  0  0  0
    6.9950    0.4630    1.1130 C   0  0  0  0  0  0  0  0  0  0  0  0
    6.9110   -0.6870    2.4970 S   0  0  0  0  0  0  0  0  0  0  0  0
    8.6230   -0.5310    2.9580 C   0  0  0  0  0  0  0  0  0  0  0  0
    9.1120    0.3500    2.0600 C   0  0  0  0  0  0  0  0  0  0  0  0
    8.2750    0.8500    1.1250 C   0  0  0  0  0  0  0  0  0  0  0  0
    8.7820    1.8300    0.1110 C   0  0  0  0  0  0  0  0  0  0  0  0
    8.0420    2.3140   -0.7670 O   0  0  0  0  0  0  0  0  0  0  0  0
   10.1020    2.2550    0.0910 O   0  0  0  0  0  0  0  0  0  0  0  0
   10.5870    3.1750   -0.8570 C   0  0  0  0  0  0  0  0  0  0  0  0
    2.2230   -0.0370   -0.0980 N   0  0  0  0  0  0  0  0  0  0  0  0
    1.3660    0.4480   -1.0180 N   0  0  0  0  0  0  0  0  0  0  0  0
  1  2  1  0
  2  3  1  0
  4  3  1  6
  4  5  1  0
  4 19  1  0
  5  6  2  0
  5 18  1  0
  6  7  1  0
  7  8  2  0
  8  9  1  0
  8 17  1  0
  9 10  1  0
 10 11  1  0
 12 11  1  1
 12 13  1  0
 12 15  1  0
 13 14  1  0
 15 16  1  0
 17 18  2  0
 19 20  1  6
 19 40  1  0
 20 21  1  0
 21 22  2  0
 21 23  1  0
 23 24  1  0
 24 25  2  0
 24 40  1  0
 25 26  1  0
 26 27  1  0
 26 39  2  0
 27 28  2  0
 27 29  1  0
 29 30  1  0
 30 31  1  0
 30 34  2  0
 31 32  1  0
 32 33  2  0
 33 34  1  0
 34 35  1  0
 35 36  2  0
 35 37  1  0
 37 38  1  0
 39 40  1  0
M  END
