
     RDKit          3D

 40 42  0  0  0  0  0  0  0  0999 V2000
    1.2440    3.2330    0.0600 C   0  0  0  0  0  0  0  0  0  0  0  0
    1.6130    1.9030   -0.5640 C   0  0  1  0  0  0  0  0  0  0  0  0
    0.7080    1.5300   -1.6890 C   0  0  0  0  0  0  0  0  0  0  0  0
   -0.6020    1.2960   -1.3780 O   0  0  0  0  0  0  0  0  0  0  0  0
   -0.7900    0.2410   -0.4880 C   0  0  1  0  0  0  0  0  0  0  0  0
   -1.3910    0.7420    0.7710 C   0  0  0  0  0  0  0  0  0  0  0  0
   -2.9090    0.9130    0.6580 C   0  0  2  0  0  0  0  0  0  0  0  0
   -3.3980    1.5770    1.8910 C   0  0  0  0  0  0  0  0  0  0  0  0
   -4.8190    1.7940    1.8500 N   0  0  0  0  0  0  0  0  0  0  0  0
   -5.3970    2.5670    3.2820 S   0  0  2  0  0  0  0  0  0  0  0  0
   -5.3700    4.2750    3.1490 N   0  0  0  0  0  0  0  0  0  0  0  0
   -4.5710    2.0780    4.4510 O   0  0  0  0  0  0  0  0  0  0  0  0
   -6.8200    2.1360    3.5010 O   0  0  0  0  0  0  0  0  0  0  0  0
   -3.4030   -0.4760    0.4630 C   0  0  0  0  0  0  0  0  0  0  0  0
   -4.2720   -1.0220    1.1970 N   0  0  0  0  0  0  0  0  0  0  0  0
   -4.8190   -2.2970    1.1330 C   0  0  0  0  0  0  0  0  0  0  0  0
   -6.0770   -2.4960    0.8430 C   0  0  0  0  0  0  0  0  0  0  0  0
   -7.1210   -1.1380    0.5220 Cl  0  0  0  0  0  0  0  0  0  0  0  0
   -3.9930   -3.4310    1.3910 N   0  0  0  0  0  0  0  0  0  0  0  0
   -4.4030   -4.4340    2.0880 C   0  0  0  0  0  0  0  0  0  0  0  0
   -3.5150   -5.4860    2.2770 O   0  0  0  0  0  0  0  0  0  0  0  0
   -2.8060   -1.2110   -0.6600 C   0  0  0  0  0  0  0  0  0  0  0  0
   -3.2610   -2.2620   -1.4290 C   0  0  0  0  0  0  0  0  0  0  0  0
   -2.2750   -2.5350   -2.3310 N   0  0  0  0  0  0  0  0  0  0  0  0
   -2.3620   -3.5860   -3.3350 C   0  0  0  0  0  0  0  0  0  0  0  0
   -1.2800   -1.6910   -2.1150 N   0  0  0  0  0  0  0  0  0  0  0  0
   -1.5530   -0.8680   -1.1130 C   0  0  0  0  0  0  0  0  0  0  0  0
    2.9500    2.0790   -1.1720 N   0  0  0  0  0  0  0  0  0  0  0  0
    4.0830    1.4050   -0.6760 C   0  0  0  0  0  0  0  0  0  0  0  0
    4.0020    0.6340    0.3040 O   0  0  0  0  0  0  0  0  0  0  0  0
    5.3300    1.6180   -1.3120 N   0  0  0  0  0  0  0  0  0  0  0  0
    6.5240    0.9860   -0.8750 C   0  0  0  0  0  0  0  0  0  0  0  0
    7.5870    1.7070   -0.4830 C   0  0  0  0  0  0  0  0  0  0  0  0
    8.7550    1.0210   -0.0560 N   0  0  0  0  0  0  0  0  0  0  0  0
    8.6540   -0.3290    0.4650 C   0  0  0  0  0  0  0  0  0  0  0  0
    7.7900   -1.0400   -0.4030 O   0  0  0  0  0  0  0  0  0  0  0  0
    6.6220   -0.4640   -0.8360 C   0  0  0  0  0  0  0  0  0  0  0  0
    5.6260   -1.2250   -1.2020 N   0  0  0  0  0  0  0  0  0  0  0  0
    5.7870   -2.9660   -1.1390 S   0  0  0  0  0  0  0  0  0  0  0  0
    6.8750   -3.2990   -0.1360 O   0  0  0  0  0  0  0  0  0  0  0  0
  2  1  1  6
  2  3  1  0
  2 28  1  0
  3  4  1  0
  5  4  1  6
  5  6  1  0
  5 27  1  0
  6  7  1  0
  7  8  1  1
  7 14  1  0
  8  9  1  0
  9 10  1  0
 10 11  1  6
 10 12  2  0
 10 13  2  0
 14 15  2  3
 14 22  1  0
 15 16  1  0
 16 17  2  3
 16 19  1  0
 17 18  1  0
 19 20  2  3
 20 21  1  0
 22 23  2  0
 22 27  1  0
 23 24  1  0
 24 25  1  0
 24 26  1  0
 26 27  2  0
 28 29  1  0
 29 30  2  0
 29 31  1  0
 31 32  1  0
 32 33  2  0
 32 37  1  0
 33 34  1  0
 34 35  1  0
 35 36  1  0
 36 37  1  0
 37 38  2  3
 38 39  1  0
 39 40  2  0
M  END
