
     RDKit          3D

 40 43  0  0  0  0  0  0  0  0999 V2000
    8.0270   -0.5970    1.0390 C   0  0  0  0  0  0  0  0  0  0  0  0
    7.5300    0.7480    0.6260 C   0  0  0  0  0  0  0  0  0  0  0  0
    8.3150    1.7090    0.3270 N   0  0  0  0  0  0  0  0  0  0  0  0
    7.8790    3.0190   -0.0650 C   0  0  0  0  0  0  0  0  0  0  0  0
    6.4970    3.2720    0.5010 C   0  0  0  0  0  0  0  0  0  0  0  0
    5.5740    2.1590   -0.0260 C   0  0  0  0  0  0  0  0  0  0  0  0
    6.0530    0.9210    0.5830 C   0  0  0  0  0  0  0  0  0  0  0  0
    5.2720    0.0070    1.0710 C   0  0  0  0  0  0  0  0  0  0  0  0
    3.8670    0.1080    1.0570 N   0  0  0  0  0  0  0  0  0  0  0  0
    2.9960   -1.1870    0.3600 S   0  0  2  0  0  0  0  0  0  0  0  0
    2.8590   -2.2720    1.4040 O   0  0  0  0  0  0  0  0  0  0  0  0
    4.0040   -1.8020   -0.6730 O   0  0  0  0  0  0  0  0  0  0  0  0
    1.5880   -0.8510   -0.4680 N   0  0  0  0  0  0  0  0  0  0  0  0
    0.3300   -1.1840    0.1420 C   0  0  0  0  0  0  0  0  0  0  0  0
   -0.8060   -0.8130   -0.8530 C   0  0  1  0  0  0  0  0  0  0  0  0
   -0.4290   -1.5900   -2.1010 C   0  0  0  0  0  0  0  0  0  0  0  0
   -1.3040   -1.7970   -3.0650 O   0  0  0  0  0  0  0  0  0  0  0  0
   -2.6010   -1.9730   -2.7590 C   0  0  0  0  0  0  0  0  0  0  0  0
   -3.1130   -1.4020   -1.5020 C   0  0  0  0  0  0  0  0  0  0  0  0
   -2.1430   -1.3010   -0.3790 C   0  0  2  0  0  0  0  0  0  0  0  0
   -2.6530   -0.6580    0.7830 N   0  0  0  0  0  0  0  0  0  0  0  0
   -4.2520   -0.8390    1.1800 S   0  0  1  0  0  0  0  0  0  0  0  0
   -4.5850   -2.3610    1.3980 O   0  0  0  0  0  0  0  0  0  0  0  0
   -4.4540   -0.3040    2.6060 O   0  0  0  0  0  0  0  0  0  0  0  0
   -5.4980   -0.2120    0.1250 C   0  0  0  0  0  0  0  0  0  0  0  0
   -6.1960   -0.7530   -0.8520 C   0  0  0  0  0  0  0  0  0  0  0  0
   -7.1090    0.1080   -1.4510 N   0  0  0  0  0  0  0  0  0  0  0  0
   -7.0020    1.3680   -0.7810 C   0  0  0  0  0  0  0  0  0  0  0  0
   -7.7200    2.3370   -1.1260 O   0  0  0  0  0  0  0  0  0  0  0  0
   -5.9900    1.2040    0.2250 C   0  0  0  0  0  0  0  0  0  0  0  0
   -5.6080    2.0970    1.0920 C   0  0  0  0  0  0  0  0  0  0  0  0
   -6.0640    3.4500    1.1980 C   0  0  0  0  0  0  0  0  0  0  0  0
   -6.9100    3.9700    0.4120 O   0  0  0  0  0  0  0  0  0  0  0  0
   -5.5290    4.2700    2.2740 N   0  0  0  0  0  0  0  0  0  0  0  0
   -6.1240    5.9130    2.3740 Cl  0  0  0  0  0  0  0  0  0  0  0  0
   -1.8580   -2.7360    0.0920 C   0  0  0  0  0  0  0  0  0  0  0  0
   -1.6380   -3.8090   -0.6530 N   0  0  0  0  0  0  0  0  0  0  0  0
   -1.4330   -4.8320    0.1730 N   0  0  0  0  0  0  0  0  0  0  0  0
   -1.5190   -4.4140    1.4270 N   0  0  0  0  0  0  0  0  0  0  0  0
   -1.7860   -3.1060    1.3510 N   0  0  0  0  0  0  0  0  0  0  0  0
  1  2  1  0
  2  3  2  0
  2  7  1  0
  3  4  1  0
  4  5  1  0
  5  6  1  0
  6  7  1  0
  7  8  2  3
  8  9  1  0
 10  9  1  1
 10 11  2  0
 10 12  2  0
 10 13  1  0
 13 14  1  0
 15 14  1  1
 15 16  1  0
 15 20  1  0
 16 17  1  0
 17 18  1  0
 18 19  1  0
 19 20  1  0
 20 21  1  1
 20 36  1  0
 22 21  1  6
 22 23  2  0
 22 24  2  0
 22 25  1  0
 25 26  2  0
 25 30  1  0
 26 27  1  0
 27 28  1  0
 28 29  2  0
 28 30  1  0
 30 31  2  3
 31 32  1  0
 32 33  2  0
 32 34  1  0
 34 35  1  0
 36 37  2  0
 36 40  1  0
 37 38  1  0
 38 39  2  0
 39 40  1  0
M  END
