
     RDKit          3D

 40 43  0  0  0  0  0  0  0  0999 V2000
   -4.5980   -0.9100   -3.7820 C   0  0  0  0  0  0  0  0  0  0  0  0
   -5.0040    0.0620   -2.6920 C   0  0  2  0  0  0  0  0  0  0  0  0
   -4.5350   -0.3280   -1.4110 N   0  0  0  0  0  0  0  0  0  0  0  0
   -5.2410   -1.0460   -0.5400 N   0  0  0  0  0  0  0  0  0  0  0  0
   -4.4960   -1.2310    0.5660 C   0  0  0  0  0  0  0  0  0  0  0  0
   -3.2730   -0.6140    0.4040 C   0  0  0  0  0  0  0  0  0  0  0  0
   -2.1390   -0.5260    1.3020 C   0  0  0  0  0  0  0  0  0  0  0  0
   -2.0610   -1.0470    2.5310 N   0  0  0  0  0  0  0  0  0  0  0  0
   -0.8510   -0.7590    3.0740 C   0  0  0  0  0  0  0  0  0  0  0  0
   -0.4330   -1.1180    4.3710 N   0  0  0  0  0  0  0  0  0  0  0  0
    1.0770   -0.7840    5.0620 S   0  0  1  0  0  0  0  0  0  0  0  0
    1.1620    0.7350    5.2090 O   0  0  0  0  0  0  0  0  0  0  0  0
    1.0950   -1.2590    6.5300 O   0  0  0  0  0  0  0  0  0  0  0  0
    2.4730   -1.4830    4.3130 C   0  0  0  0  0  0  0  0  0  0  0  0
    2.7850   -1.1650    2.9020 C   0  0  0  0  0  0  0  0  0  0  0  0
    3.0420    0.2230    2.5510 C   0  0  0  0  0  0  0  0  0  0  0  0
    2.8670    1.1520    3.3630 O   0  0  0  0  0  0  0  0  0  0  0  0
    3.5140    0.5640    1.2310 N   0  0  0  0  0  0  0  0  0  0  0  0
    3.7520    1.9410    0.8800 C   0  0  0  0  0  0  0  0  0  0  0  0
    5.1120    2.4060    1.1930 C   0  0  0  0  0  0  0  0  0  0  0  0
    6.1100    1.6100    1.7920 N   0  0  0  0  0  0  0  0  0  0  0  0
    5.4120    3.6110    0.9040 O   0  0  0  0  0  0  0  0  0  0  0  0
    3.7360   -0.4550    0.2300 C   0  0  2  0  0  0  0  0  0  0  0  0
    5.1990   -0.6080   -0.1380 C   0  0  0  0  0  0  0  0  0  0  0  0
    5.2640   -1.7200   -1.1960 C   0  0  0  0  0  0  0  0  0  0  0  0
    4.7380   -1.1440   -2.4980 C   0  0  0  0  0  0  0  0  0  0  0  0
    3.5520   -0.3410   -2.2570 N   0  0  0  0  0  0  0  0  0  0  0  0
    2.8920    0.5710   -3.5820 Cl  0  0  0  0  0  0  0  0  0  0  0  0
    2.9360   -0.2920   -0.9840 C   0  0  0  0  0  0  0  0  0  0  0  0
    1.6960   -0.1090   -0.9120 O   0  0  0  0  0  0  0  0  0  0  0  0
   -0.1880   -0.0610    2.1740 N   0  0  0  0  0  0  0  0  0  0  0  0
   -0.9610    0.0830    1.1020 N   0  0  0  0  0  0  0  0  0  0  0  0
   -3.3430   -0.0560   -0.8630 C   0  0  0  0  0  0  0  0  0  0  0  0
   -2.3110    0.6800   -1.4720 N   0  0  0  0  0  0  0  0  0  0  0  0
   -6.5190    0.1020   -2.6710 C   0  0  0  0  0  0  0  0  0  0  0  0
   -6.9550    1.2160   -1.7770 C   0  0  0  0  0  0  0  0  0  0  0  0
   -5.6250    2.4100   -2.0100 S   0  0  2  0  0  0  0  0  0  0  0  0
   -4.9290    2.6090   -0.7140 O   0  0  0  0  0  0  0  0  0  0  0  0
   -6.1140    3.6620   -2.6320 O   0  0  0  0  0  0  0  0  0  0  0  0
   -4.6330    1.4360   -3.1460 C   0  0  0  0  0  0  0  0  0  0  0  0
  2  1  1  6
  2  3  1  0
  2 35  1  0
  2 40  1  0
  3  4  1  0
  3 33  1  0
  4  5  2  0
  5  6  1  0
  6  7  1  0
  6 33  2  0
  7  8  2  0
  7 32  1  0
  8  9  1  0
  9 10  1  0
  9 31  2  0
 10 11  1  0
 11 12  2  0
 11 13  2  0
 11 14  1  6
 14 15  1  0
 15 16  1  0
 16 17  2  0
 16 18  1  0
 18 19  1  0
 23 18  1  1
 19 20  1  0
 20 21  1  0
 20 22  2  0
 23 24  1  0
 23 29  1  0
 24 25  1  0
 25 26  1  0
 26 27  1  0
 27 28  1  0
 27 29  1  0
 29 30  2  0
 31 32  1  0
 33 34  1  0
 35 36  1  0
 37 36  1  1
 37 38  2  0
 37 39  2  0
 37 40  1  0
M  END
