
     RDKit          3D

 40 43  0  0  0  0  0  0  0  0999 V2000
    9.8210    3.0850    1.3520 N   0  0  0  0  0  0  0  0  0  0  0  0
    9.8820    1.8860    0.5870 C   0  0  0  0  0  0  0  0  0  0  0  0
    9.3130    0.7560    1.1390 C   0  0  0  0  0  0  0  0  0  0  0  0
    9.3640   -0.3980    0.3950 C   0  0  0  0  0  0  0  0  0  0  0  0
    8.7400   -1.6150    0.9900 C   0  0  0  0  0  0  0  0  0  0  0  0
    7.3400   -1.3400    1.0160 O   0  0  0  0  0  0  0  0  0  0  0  0
    6.6390   -1.0650   -0.1350 C   0  0  0  0  0  0  0  0  0  0  0  0
    7.2170   -1.0570   -1.2370 O   0  0  0  0  0  0  0  0  0  0  0  0
    5.2190   -0.7790   -0.0670 C   0  0  0  0  0  0  0  0  0  0  0  0
    4.4170   -0.7670    1.0750 C   0  0  0  0  0  0  0  0  0  0  0  0
    3.1940   -0.4540    0.6720 N   0  0  0  0  0  0  0  0  0  0  0  0
    3.1860   -0.2680   -0.6630 C   0  0  0  0  0  0  0  0  0  0  0  0
    1.8010    0.1710   -1.6940 S   0  0  0  0  0  0  0  0  0  0  0  0
    0.8970   -1.2550   -2.3130 C   0  0  0  0  0  0  0  0  0  0  0  0
    0.2130   -2.0270   -1.2540 C   0  0  0  0  0  0  0  0  0  0  0  0
    0.5750   -3.2290   -0.9930 O   0  0  0  0  0  0  0  0  0  0  0  0
   -0.8430   -1.4860   -0.5030 N   0  0  0  0  0  0  0  0  0  0  0  0
   -1.5680   -2.2420    0.5160 C   0  0  0  0  0  0  0  0  0  0  0  0
   -3.0310   -2.1650    0.2530 C   0  0  0  0  0  0  0  0  0  0  0  0
   -3.4960   -0.6870    0.1880 C   0  0  2  0  0  0  0  0  0  0  0  0
   -3.1530   -0.1800    1.4300 O   0  0  0  0  0  0  0  0  0  0  0  0
   -4.9950   -0.8550    0.0400 C   0  0  0  0  0  0  0  0  0  0  0  0
   -5.6760    0.3370    0.3040 N   0  0  0  0  0  0  0  0  0  0  0  0
   -7.0530    0.4180    0.2090 C   0  0  0  0  0  0  0  0  0  0  0  0
   -7.8100   -0.4950   -0.1640 O   0  0  0  0  0  0  0  0  0  0  0  0
   -7.7360    1.5920    0.5560 N   0  0  0  0  0  0  0  0  0  0  0  0
   -9.1220    1.8230    0.4610 C   0  0  0  0  0  0  0  0  0  0  0  0
   -9.4890    2.7310    1.2540 N   0  0  0  0  0  0  0  0  0  0  0  0
  -11.2460    2.8710    1.0150 S   0  0  0  0  0  0  0  0  0  0  0  0
  -11.4470    3.8830   -0.1500 O   0  0  0  0  0  0  0  0  0  0  0  0
  -11.3510    1.2850    0.1340 N   0  0  0  0  0  0  0  0  0  0  0  0
  -10.1070    1.5380   -0.4940 N   0  0  0  0  0  0  0  0  0  0  0  0
   -2.7950   -0.0190   -0.9080 C   0  0  1  0  0  0  0  0  0  0  0  0
   -3.0240    1.4620   -1.0630 C   0  0  0  0  0  0  0  0  0  0  0  0
   -2.4940    2.3520    0.3880 Cl  0  0  0  0  0  0  0  0  0  0  0  0
   -1.2750   -0.1310   -0.6790 C   0  0  0  0  0  0  0  0  0  0  0  0
    4.4320   -0.4770   -1.0560 O   0  0  0  0  0  0  0  0  0  0  0  0
    9.9620   -0.3860   -0.8340 C   0  0  0  0  0  0  0  0  0  0  0  0
   10.5070    0.7260   -1.3440 N   0  0  0  0  0  0  0  0  0  0  0  0
   10.4480    1.8280   -0.6130 N   0  0  0  0  0  0  0  0  0  0  0  0
  1  2  1  0
  2  3  2  0
  2 40  1  0
  3  4  1  0
  4  5  1  0
  4 38  2  0
  5  6  1  0
  6  7  1  0
  7  8  2  0
  7  9  1  0
  9 10  2  0
  9 37  1  0
 10 11  1  0
 11 12  2  0
 12 13  1  0
 12 37  1  0
 13 14  1  0
 14 15  1  0
 15 16  2  0
 15 17  1  0
 17 18  1  0
 17 36  1  0
 18 19  1  0
 19 20  1  0
 20 21  1  1
 20 22  1  0
 20 33  1  0
 22 23  1  0
 23 24  1  0
 24 25  2  0
 24 26  1  0
 26 27  1  0
 27 28  2  0
 27 32  1  0
 28 29  1  0
 29 30  2  0
 29 31  1  6
 31 32  1  0
 33 34  1  1
 33 36  1  0
 34 35  1  0
 38 39  1  0
 39 40  2  0
M  END
