
     RDKit          3D

 40 43  0  0  0  0  0  0  0  0999 V2000
   -3.5780   -4.3250    1.9270 C   0  0  0  0  0  0  0  0  0  0  0  0
   -3.1120   -4.1350    0.4910 C   0  0  1  0  0  0  0  0  0  0  0  0
   -2.7060   -2.7310    0.3070 C   0  0  0  0  0  0  0  0  0  0  0  0
   -1.5630   -2.2710   -0.1370 C   0  0  0  0  0  0  0  0  0  0  0  0
   -1.3670   -0.8280   -0.2440 C   0  0  0  0  0  0  0  0  0  0  0  0
   -0.2080   -0.3020   -0.6900 N   0  0  0  0  0  0  0  0  0  0  0  0
    0.0330    0.9940   -0.7980 C   0  0  0  0  0  0  0  0  0  0  0  0
    1.2660    1.4860   -1.2780 N   0  0  0  0  0  0  0  0  0  0  0  0
    2.5450    0.4750   -1.7690 S   0  0  1  0  0  0  0  0  0  0  0  0
    2.1310   -0.7920   -2.4250 O   0  0  0  0  0  0  0  0  0  0  0  0
    3.4050    1.2050   -2.8150 O   0  0  0  0  0  0  0  0  0  0  0  0
    3.5430    0.1480   -0.4180 N   0  0  0  0  0  0  0  0  0  0  0  0
    2.9340   -0.5250    0.6610 C   0  0  0  0  0  0  0  0  0  0  0  0
    3.7560   -0.5790    1.9130 C   0  0  0  0  0  0  0  0  0  0  0  0
    5.2170   -0.6490    1.6470 C   0  0  0  0  0  0  0  0  0  0  0  0
    5.5880   -1.0360    0.2590 C   0  0  2  0  0  0  0  0  0  0  0  0
    7.3480   -0.6600   -0.0170 S   0  0  0  0  0  0  0  0  0  0  0  0
    7.6720    1.0940   -0.0040 C   0  0  0  0  0  0  0  0  0  0  0  0
    8.8970    1.6060   -0.1650 N   0  0  0  0  0  0  0  0  0  0  0  0
    8.7750    2.9140   -0.0980 N   0  0  0  0  0  0  0  0  0  0  0  0
    7.5220    3.2250    0.0960 N   0  0  0  0  0  0  0  0  0  0  0  0
    6.8310    2.1120    0.1560 N   0  0  0  0  0  0  0  0  0  0  0  0
    4.8220   -0.3700   -0.8240 C   0  0  0  0  0  0  0  0  0  0  0  0
   -0.9660    1.8820   -0.4310 C   0  0  0  0  0  0  0  0  0  0  0  0
   -0.7450    3.2720   -0.5310 N   0  0  0  0  0  0  0  0  0  0  0  0
   -2.1710    1.3660    0.0320 C   0  0  0  0  0  0  0  0  0  0  0  0
   -3.1040    2.3110    0.3760 O   0  0  0  0  0  0  0  0  0  0  0  0
   -4.3800    2.1730    0.8480 C   0  0  0  0  0  0  0  0  0  0  0  0
   -5.3090    1.4960   -0.1170 C   0  0  2  0  0  0  0  0  0  0  0  0
   -4.8730    0.1680   -0.3460 O   0  0  0  0  0  0  0  0  0  0  0  0
   -5.4540    2.1510   -1.4430 C   0  0  0  0  0  0  0  0  0  0  0  0
   -5.9700    3.5480   -1.4620 C   0  0  2  0  0  0  0  0  0  0  0  0
   -6.0560    3.9460   -2.8370 O   0  0  0  0  0  0  0  0  0  0  0  0
   -4.8810    4.7160   -0.6500 Cl  0  0  0  0  0  0  0  0  0  0  0  0
   -2.3420    0.0330    0.1140 N   0  0  0  0  0  0  0  0  0  0  0  0
   -0.5270   -3.2110   -0.5030 C   0  0  0  0  0  0  0  0  0  0  0  0
    0.5960   -2.8640   -0.9340 O   0  0  0  0  0  0  0  0  0  0  0  0
   -0.8080   -4.6030   -0.3600 N   0  0  0  0  0  0  0  0  0  0  0  0
   -2.0510   -5.0590    0.1210 C   0  0  0  0  0  0  0  0  0  0  0  0
   -2.2180   -6.3360    0.2210 O   0  0  0  0  0  0  0  0  0  0  0  0
  2  1  1  1
  2  3  1  0
  2 39  1  0
  3  4  2  0
  4  5  1  0
  4 36  1  0
  5  6  2  0
  5 35  1  0
  6  7  1  0
  7  8  1  0
  7 24  2  0
  9  8  1  1
  9 10  2  0
  9 11  2  0
  9 12  1  0
 12 13  1  0
 12 23  1  0
 13 14  1  0
 14 15  1  0
 15 16  1  0
 16 17  1  6
 16 23  1  0
 17 18  1  0
 18 19  2  0
 18 22  1  0
 19 20  1  0
 20 21  2  0
 21 22  1  0
 24 25  1  0
 24 26  1  0
 26 27  1  0
 26 35  2  0
 27 28  1  0
 28 29  1  0
 29 30  1  6
 29 31  1  0
 31 32  1  0
 32 33  1  6
 32 34  1  0
 36 37  2  0
 36 38  1  0
 38 39  1  0
 39 40  2  0
M  END
