
     RDKit          3D

 40 42  0  0  0  0  0  0  0  0999 V2000
   -3.1890    1.4310   -5.5350 N   0  0  0  0  0  0  0  0  0  0  0  0
   -3.6590    0.7840   -4.3590 C   0  0  0  0  0  0  0  0  0  0  0  0
   -3.8430    1.5140   -3.3350 O   0  0  0  0  0  0  0  0  0  0  0  0
   -3.9230   -0.6530   -4.3270 C   0  0  0  0  0  0  0  0  0  0  0  0
   -4.2840   -1.1650   -2.9640 C   0  0  0  0  0  0  0  0  0  0  0  0
   -3.1810   -0.9610   -1.9370 C   0  0  2  0  0  0  0  0  0  0  0  0
   -2.0200   -1.6810   -2.3970 N   0  0  0  0  0  0  0  0  0  0  0  0
   -0.7840   -1.0620   -2.7520 C   0  0  0  0  0  0  0  0  0  0  0  0
   -0.7250    0.1730   -2.6500 O   0  0  0  0  0  0  0  0  0  0  0  0
    0.3290   -1.8850   -3.2090 C   0  0  0  0  0  0  0  0  0  0  0  0
    1.5800   -1.2300   -3.6160 C   0  0  0  0  0  0  0  0  0  0  0  0
    2.2990   -0.4370   -2.5980 C   0  0  0  0  0  0  0  0  0  0  0  0
    2.1970    0.9230   -2.4260 C   0  0  0  0  0  0  0  0  0  0  0  0
    2.9090    1.6270   -1.4540 C   0  0  0  0  0  0  0  0  0  0  0  0
    3.7630    0.9630   -0.6110 C   0  0  0  0  0  0  0  0  0  0  0  0
    4.5490    1.6950    0.4120 C   0  0  0  0  0  0  0  0  0  0  0  0
    5.4110    1.2460    1.3100 C   0  0  0  0  0  0  0  0  0  0  0  0
    6.0280    2.1030    2.1480 C   0  0  0  0  0  0  0  0  0  0  0  0
    7.0260    1.7100    3.2010 C   0  0  0  0  0  0  0  0  0  0  0  0
    6.9030    0.4890    3.8190 C   0  0  0  0  0  0  0  0  0  0  0  0
    7.8000    0.0770    4.7830 C   0  0  0  0  0  0  0  0  0  0  0  0
    8.8290    0.9350    5.1120 C   0  0  0  0  0  0  0  0  0  0  0  0
    8.9740    2.1590    4.5110 C   0  0  0  0  0  0  0  0  0  0  0  0
    8.0480    2.5210    3.5510 C   0  0  0  0  0  0  0  0  0  0  0  0
    5.7060    3.4410    2.0080 C   0  0  0  0  0  0  0  0  0  0  0  0
    4.5290    3.4240    0.6780 S   0  0  0  0  0  0  0  0  0  0  0  0
    3.8860   -0.3970   -0.7570 C   0  0  0  0  0  0  0  0  0  0  0  0
    3.1800   -1.0870   -1.7180 C   0  0  0  0  0  0  0  0  0  0  0  0
   -3.6180   -1.4490   -0.5950 C   0  0  0  0  0  0  0  0  0  0  0  0
   -2.9640   -2.3360    0.0120 O   0  0  0  0  0  0  0  0  0  0  0  0
   -4.7870   -0.9100    0.0070 N   0  0  0  0  0  0  0  0  0  0  0  0
   -5.2170   -1.3740    1.3200 C   0  0  1  0  0  0  0  0  0  0  0  0
   -5.9900   -0.3090    2.0140 C   0  0  0  0  0  0  0  0  0  0  0  0
   -5.2700    0.9780    2.2470 C   0  0  0  0  0  0  0  0  0  0  0  0
   -4.0640    0.8050    3.0720 C   0  0  0  0  0  0  0  0  0  0  0  0
   -3.6780   -0.2980    3.5040 O   0  0  0  0  0  0  0  0  0  0  0  0
   -3.2840    1.9040    3.4080 O   0  0  0  0  0  0  0  0  0  0  0  0
   -6.1910   -2.5070    1.0900 C   0  0  0  0  0  0  0  0  0  0  0  0
   -6.8000   -3.1770    2.1770 N   0  0  0  0  0  0  0  0  0  0  0  0
   -6.4540   -2.8490   -0.0890 O   0  0  0  0  0  0  0  0  0  0  0  0
  1  2  1  0
  2  3  2  0
  2  4  1  0
  4  5  1  0
  6  5  1  6
  6  7  1  0
  6 29  1  0
  7  8  1  0
  8  9  2  0
  8 10  1  0
 10 11  1  0
 11 12  1  0
 12 13  2  0
 12 28  1  0
 13 14  1  0
 14 15  2  0
 15 16  1  0
 15 27  1  0
 16 17  2  0
 16 26  1  0
 17 18  1  0
 18 19  1  0
 18 25  2  0
 19 20  2  0
 19 24  1  0
 20 21  1  0
 21 22  2  0
 22 23  1  0
 23 24  2  0
 25 26  1  0
 27 28  2  0
 29 30  2  0
 29 31  1  0
 31 32  1  0
 32 33  1  6
 32 38  1  0
 33 34  1  0
 34 35  1  0
 35 36  2  0
 35 37  1  0
 38 39  1  0
 38 40  2  0
M  END
