
     RDKit          3D

 40 43  0  0  0  0  0  0  0  0999 V2000
   -6.3610   -2.4940    2.2550 O   0  0  0  0  0  0  0  0  0  0  0  0
   -5.8000   -1.7690    1.3920 C   0  0  0  0  0  0  0  0  0  0  0  0
   -4.3830   -1.4440    1.5680 C   0  0  0  0  0  0  0  0  0  0  0  0
   -3.8990   -0.6330    0.5110 O   0  0  0  0  0  0  0  0  0  0  0  0
   -2.5780   -0.2510    0.5580 C   0  0  0  0  0  0  0  0  0  0  0  0
   -1.8170   -0.6070    1.5100 O   0  0  0  0  0  0  0  0  0  0  0  0
   -1.9920    0.5510   -0.4400 N   0  0  0  0  0  0  0  0  0  0  0  0
   -0.6210    0.9960   -0.4690 C   0  0  2  0  0  0  0  0  0  0  0  0
   -0.4390    2.4590   -0.4780 C   0  0  0  0  0  0  0  0  0  0  0  0
    0.8240    2.8330   -1.1950 C   0  0  1  0  0  0  0  0  0  0  0  0
    1.2900    4.4910   -0.6230 S   0  0  0  0  0  0  0  0  0  0  0  0
    1.7410    4.4840    1.0970 C   0  0  0  0  0  0  0  0  0  0  0  0
    1.7230    3.3680    1.8320 N   0  0  0  0  0  0  0  0  0  0  0  0
    2.0620    3.3420    3.1350 C   0  0  0  0  0  0  0  0  0  0  0  0
    1.9970    2.0890    3.7870 N   0  0  0  0  0  0  0  0  0  0  0  0
    2.7500    1.8350    4.7860 N   0  0  0  0  0  0  0  0  0  0  0  0
    2.6660    0.2950    5.5830 Cl  0  0  0  0  0  0  0  0  0  0  0  0
    2.4430    4.5080    3.7420 C   0  0  0  0  0  0  0  0  0  0  0  0
    2.4670    5.6610    3.0060 C   0  0  0  0  0  0  0  0  0  0  0  0
    2.8190    6.7260    3.5750 O   0  0  0  0  0  0  0  0  0  0  0  0
    2.1130    5.6320    1.6840 N   0  0  0  0  0  0  0  0  0  0  0  0
    1.9800    1.9070   -0.9610 C   0  0  0  0  0  0  0  0  0  0  0  0
    1.6120    0.4570   -1.2020 C   0  0  2  0  0  0  0  0  0  0  0  0
    2.4990   -0.1960   -2.1110 N   0  0  0  0  0  0  0  0  0  0  0  0
    3.3070   -1.2720   -1.6930 C   0  0  0  0  0  0  0  0  0  0  0  0
    3.2430   -1.6630   -0.4930 O   0  0  0  0  0  0  0  0  0  0  0  0
    4.2050   -1.9590   -2.5450 N   0  0  0  0  0  0  0  0  0  0  0  0
    4.9870   -3.0550   -1.9890 C   0  0  0  0  0  0  0  0  0  0  0  0
    5.1550   -3.6290   -0.9860 N   0  0  0  0  0  0  0  0  0  0  0  0
    5.9990   -4.6280   -0.8580 N   0  0  0  0  0  0  0  0  0  0  0  0
    6.6740   -5.0720   -1.6840 C   0  0  0  0  0  0  0  0  0  0  0  0
    7.7100   -6.1310   -1.9690 C   0  0  0  0  0  0  0  0  0  0  0  0
    8.1790   -6.2180   -3.1200 O   0  0  0  0  0  0  0  0  0  0  0  0
    8.1230   -6.9730   -0.9840 O   0  0  0  0  0  0  0  0  0  0  0  0
    6.1760   -3.9550   -3.1350 S   0  0  0  0  0  0  0  0  0  0  0  0
    0.1480    0.3870   -1.6230 C   0  0  0  0  0  0  0  0  0  0  0  0
   -6.5730   -1.3190    0.3140 N   0  0  0  0  0  0  0  0  0  0  0  0
   -7.9710   -1.6820    0.2060 C   0  0  1  0  0  0  0  0  0  0  0  0
   -8.9430   -0.6620   -0.3280 C   0  0  0  0  0  0  0  0  0  0  0  0
   -8.5870   -1.8400   -1.1660 C   0  0  0  0  0  0  0  0  0  0  0  0
  1  2  2  0
  2  3  1  0
  2 37  1  0
  3  4  1  0
  4  5  1  0
  5  6  2  0
  5  7  1  0
  8  7  1  6
  8  9  1  0
  8 36  1  0
  9 10  1  0
 10 11  1  1
 10 22  1  0
 11 12  1  0
 12 13  2  0
 12 21  1  0
 13 14  1  0
 14 15  1  0
 14 18  2  0
 15 16  2  3
 16 17  1  0
 18 19  1  0
 19 20  2  0
 19 21  1  0
 22 23  1  0
 23 24  1  6
 23 36  1  0
 24 25  1  0
 25 26  2  0
 25 27  1  0
 27 28  1  0
 28 29  2  0
 28 35  1  0
 29 30  1  0
 30 31  2  0
 31 32  1  0
 31 35  1  0
 32 33  2  0
 32 34  1  0
 38 37  1  6
 38 39  1  0
 38 40  1  0
 39 40  1  0
M  END
