
     RDKit          3D

 26 27  0  0  0  0  0  0  0  0999 V2000
   -4.7770    3.4130   -0.6580 C   0  0  0  0  0  0  0  0  0  0  0  0
   -4.1400    2.6910   -1.8330 C   0  0  0  0  0  0  0  0  0  0  0  0
   -3.7000    1.3070   -1.4100 C   0  0  0  0  0  0  0  0  0  0  0  0
   -2.6940    1.3530   -0.2950 C   0  0  0  0  0  0  0  0  0  0  0  0
   -2.2830   -0.0420    0.0960 C   0  0  0  0  0  0  0  0  0  0  0  0
   -1.0570   -0.4730   -0.0670 C   0  0  0  0  0  0  0  0  0  0  0  0
    0.0910    0.2630   -0.6250 C   0  0  2  0  0  0  0  0  0  0  0  0
    0.7090   -0.5180   -1.6500 O   0  0  0  0  0  0  0  0  0  0  0  0
    1.1500    0.3950    0.4110 C   0  0  0  0  0  0  0  0  0  0  0  0
    0.8300    0.8580    2.1270 S   0  0  0  0  0  0  0  0  0  0  0  0
    2.5570    0.7730    2.6180 C   0  0  0  0  0  0  0  0  0  0  0  0
    3.2060    0.4140    1.4800 C   0  0  0  0  0  0  0  0  0  0  0  0
    4.7260    0.2650    1.5450 C   0  0  0  0  0  0  0  0  0  0  0  0
    5.4400    1.4640    1.0390 C   0  0  0  0  0  0  0  0  0  0  0  0
    5.2030    1.8180   -0.2660 O   0  0  0  0  0  0  0  0  0  0  0  0
    2.4870    0.2200    0.3490 C   0  0  0  0  0  0  0  0  0  0  0  0
    3.0680   -0.1970   -0.9390 N   0  0  0  0  0  0  0  0  0  0  0  0
    3.2610   -1.5590   -1.2180 C   0  0  0  0  0  0  0  0  0  0  0  0
    3.8190   -1.9830   -2.4520 N   0  0  0  0  0  0  0  0  0  0  0  0
    2.9140   -2.3840   -0.3170 O   0  0  0  0  0  0  0  0  0  0  0  0
   -0.7930   -1.8650    0.3600 C   0  0  0  0  0  0  0  0  0  0  0  0
   -1.7390   -2.6210    0.8700 C   0  0  0  0  0  0  0  0  0  0  0  0
   -1.3570   -4.0280    1.2730 C   0  0  0  0  0  0  0  0  0  0  0  0
   -3.1390   -2.2260    1.0730 C   0  0  0  0  0  0  0  0  0  0  0  0
   -3.3540   -0.8330    0.6840 C   0  0  0  0  0  0  0  0  0  0  0  0
   -4.5190   -0.3280    0.8800 O   0  0  0  0  0  0  0  0  0  0  0  0
  1  2  1  0
  2  3  1  0
  3  4  1  0
  4  5  1  0
  5  6  2  0
  5 25  1  0
  6  7  1  0
  6 21  1  0
  7  8  1  6
  7  9  1  0
  9 10  1  0
  9 16  2  0
 10 11  1  0
 11 12  2  0
 12 13  1  0
 12 16  1  0
 13 14  1  0
 14 15  1  0
 16 17  1  0
 17 18  1  0
 18 19  1  0
 18 20  2  0
 21 22  2  0
 22 23  1  0
 22 24  1  0
 24 25  1  0
 25 26  2  0
M  END
