
     RDKit          3D

  6  5  0  0  0  0  0  0  0  0999 V2000
   -1.5070   -0.8030   -1.2770 N   0  0  0  0  0  0  0  0  0  0  0  0
   -1.0930    0.0170   -0.2440 C   0  0  0  0  0  0  0  0  0  0  0  0
   -2.0200    0.5170    0.6500 N   0  0  0  0  0  0  0  0  0  0  0  0
    0.1210    0.3940    0.0040 C   0  0  0  0  0  0  0  0  0  0  0  0
    1.3750    0.6910   -0.0820 C   0  0  0  0  0  0  0  0  0  0  0  0
    2.2090   -0.1680    0.6200 N   0  0  0  0  0  0  0  0  0  0  0  0
  1  2  1  0
  2  3  1  0
  2  4  2  0
  4  5  2  0
  5  6  1  0
M  CHG  1   6   1
M  END
