
     RDKit          3D

  6  5  0  0  0  0  0  0  0  0999 V2000
    2.6970   -0.0690    0.3240 C   0  0  0  0  0  0  0  0  0  0  0  0
    1.4930    0.4390    0.2290 C   0  0  0  0  0  0  0  0  0  0  0  0
    0.3610   -0.4280    0.0150 C   0  0  0  0  0  0  0  0  0  0  0  0
   -0.8830   -0.0100   -0.0920 C   0  0  0  0  0  0  0  0  0  0  0  0
   -1.1210    1.3800    0.0100 N   0  0  0  0  0  0  0  0  0  0  0  0
   -1.9170   -0.9450   -0.3010 N   0  0  0  0  0  0  0  0  0  0  0  0
  1  2  2  0
  2  3  1  0
  3  4  2  3
  4  5  1  0
  4  6  1  0
M  CHG  1   6   1
M  END
