
     RDKit          3D

  6  5  0  0  0  0  0  0  0  0999 V2000
   -2.6440   -0.3300    1.1040 N   0  0  0  0  0  0  0  0  0  0  0  0
   -2.0230    0.7670    0.3820 C   0  0  0  0  0  0  0  0  0  0  0  0
   -0.8430    0.1980   -0.3300 C   0  0  0  0  0  0  0  0  0  0  0  0
    0.3910    0.6090   -0.1240 C   0  0  0  0  0  0  0  0  0  0  0  0
    1.5090   -0.0150   -0.8790 C   0  0  0  0  0  0  0  0  0  0  0  0
    2.4520   -0.6230    0.0490 N   0  0  0  0  0  0  0  0  0  0  0  0
  1  2  1  0
  2  3  1  0
  3  4  2  3
  4  5  1  0
  5  6  1  0
M  CHG  1   6   1
M  END
