
     RDKit          3D

  6  5  0  0  0  0  0  0  0  0999 V2000
    3.0280    0.2040    0.4880 N   0  0  0  0  0  0  0  0  0  0  0  0
    1.8550    0.1820   -0.3360 C   0  0  0  0  0  0  0  0  0  0  0  0
    0.6110    0.0140    0.5100 C   0  0  0  0  0  0  0  0  0  0  0  0
   -0.6120   -0.0040   -0.4060 C   0  0  0  0  0  0  0  0  0  0  0  0
   -1.8060   -0.1740    0.5020 C   0  0  0  0  0  0  0  0  0  0  0  0
   -3.0560   -0.2110   -0.2100 N   0  0  0  0  0  0  0  0  0  0  0  0
  1  2  1  0
  2  3  1  0
  3  4  1  0
  4  5  1  0
  5  6  1  0
M  CHG  2   1   1   6   1
M  END
