
     RDKit          3D

  6  5  0  0  0  0  0  0  0  0999 V2000
   -2.5080    0.4460   -0.3470 N   0  0  0  0  0  0  0  0  0  0  0  0
   -1.6810   -0.2440    0.5860 C   0  0  0  0  0  0  0  0  0  0  0  0
   -0.2470    0.1390    0.4080 C   0  0  0  0  0  0  0  0  0  0  0  0
    0.6160   -0.8210    0.1030 C   0  0  0  0  0  0  0  0  0  0  0  0
    2.0270   -0.5930   -0.0970 C   0  0  0  0  0  0  0  0  0  0  0  0
    2.5440    0.5640    0.0070 N   0  0  0  0  0  0  0  0  0  0  0  0
  1  2  1  0
  2  3  1  0
  3  4  2  3
  4  5  1  0
  5  6  2  0
M  CHG  1   6   1
M  END
