
     RDKit          3D

 13 13  0  0  0  0  0  0  0  0999 V2000
   -2.3780    1.2810    0.2090 N   0  0  0  0  0  0  0  0  0  0  0  0
   -2.2970   -0.0800   -0.1490 C   0  0  0  0  0  0  0  0  0  0  0  0
   -3.1820   -0.8350    0.3600 O   0  0  0  0  0  0  0  0  0  0  0  0
   -1.2960   -0.6610   -1.0360 C   0  0  2  0  0  0  0  0  0  0  0  0
   -1.5240   -2.0250   -1.1600 O   0  0  0  0  0  0  0  0  0  0  0  0
    0.1180   -0.4670   -0.5880 C   0  0  2  0  0  0  0  0  0  0  0  0
    0.4080   -1.0710    0.6450 O   0  0  0  0  0  0  0  0  0  0  0  0
    1.6990   -0.9320    1.1380 C   0  0  0  0  0  0  0  0  0  0  0  0
    2.1340   -1.6880    2.0680 O   0  0  0  0  0  0  0  0  0  0  0  0
    2.6090    0.1120    0.5870 C   0  0  0  0  0  0  0  0  0  0  0  0
    1.7710    1.2240    0.1240 N   0  0  0  0  0  0  0  0  0  0  0  0
    0.5540    0.9350   -0.5520 C   0  0  0  0  0  0  0  0  0  0  0  0
   -0.1090    1.8550   -1.0900 O   0  0  0  0  0  0  0  0  0  0  0  0
  1  2  1  0
  2  3  2  0
  2  4  1  0
  4  5  1  1
  4  6  1  0
  6  7  1  1
  6 12  1  0
  7  8  1  0
  8  9  2  0
  8 10  1  0
 10 11  1  0
 11 12  1  0
 12 13  2  0
M  END
