
     RDKit          3D

 13 13  0  0  0  0  0  0  0  0999 V2000
    3.3100   -0.3280    0.5680 N   0  0  0  0  0  0  0  0  0  0  0  0
    2.5630    0.2320   -0.4940 C   0  0  0  0  0  0  0  0  0  0  0  0
    3.1040    1.1110   -1.2140 O   0  0  0  0  0  0  0  0  0  0  0  0
    1.1630   -0.1650   -0.8090 C   0  0  1  0  0  0  0  0  0  0  0  0
    0.6920   -1.1400    0.0600 O   0  0  0  0  0  0  0  0  0  0  0  0
   -0.5390   -1.4650    0.5880 C   0  0  0  0  0  0  0  0  0  0  0  0
   -0.7140   -2.5990    1.1040 O   0  0  0  0  0  0  0  0  0  0  0  0
   -1.7340   -0.5920    0.6200 C   0  0  0  0  0  0  0  0  0  0  0  0
   -2.0240    0.0240   -0.7320 C   0  0  1  0  0  0  0  0  0  0  0  0
   -3.3430    0.4380   -0.7930 O   0  0  0  0  0  0  0  0  0  0  0  0
   -1.0960    1.1220   -0.9030 N   0  0  0  0  0  0  0  0  0  0  0  0
    0.3070    1.0480   -0.8760 C   0  0  0  0  0  0  0  0  0  0  0  0
    0.9500    2.1530   -0.9110 O   0  0  0  0  0  0  0  0  0  0  0  0
  1  2  1  0
  2  3  2  0
  4  2  1  1
  4  5  1  0
  4 12  1  0
  5  6  1  0
  6  7  2  0
  6  8  1  0
  8  9  1  0
  9 10  1  1
  9 11  1  0
 11 12  1  0
 12 13  2  0
M  END
