
     RDKit          3D

 12 12  0  0  0  0  0  0  0  0999 V2000
    3.7140   -0.8370    0.4130 N   0  0  0  0  0  0  0  0  0  0  0  0
    2.4910   -0.4760    0.2550 C   0  0  0  0  0  0  0  0  0  0  0  0
    1.5060   -1.4130   -0.1670 N   0  0  0  0  0  0  0  0  0  0  0  0
    0.1650   -0.9470   -0.4880 C   0  0  0  0  0  0  0  0  0  0  0  0
   -0.1680    0.1290    0.4970 C   0  0  2  0  0  0  0  0  0  0  0  0
    0.0870   -0.4160    1.7800 O   0  0  0  0  0  0  0  0  0  0  0  0
   -1.5880    0.5610    0.4910 C   0  0  0  0  0  0  0  0  0  0  0  0
   -2.0780    1.1150   -0.8080 C   0  0  0  0  0  0  0  0  0  0  0  0
   -1.9650    0.1660   -1.8260 O   0  0  0  0  0  0  0  0  0  0  0  0
    0.8050    1.2260    0.3270 C   0  0  0  0  0  0  0  0  0  0  0  0
    0.5250    2.4030    0.0500 O   0  0  0  0  0  0  0  0  0  0  0  0
    2.1480    0.8480    0.5040 O   0  0  0  0  0  0  0  0  0  0  0  0
  1  2  2  0
  2  3  1  0
  2 12  1  0
  3  4  1  0
  4  5  1  0
  5  6  1  1
  5  7  1  0
  5 10  1  0
  7  8  1  0
  8  9  1  0
 10 11  2  0
 10 12  1  0
M  END
