
     RDKit          3D

 12 12  0  0  0  0  0  0  0  0999 V2000
   -1.8100   -2.2300    0.8980 N   0  0  0  0  0  0  0  0  0  0  0  0
   -1.4310   -0.8770    0.9440 C   0  0  0  0  0  0  0  0  0  0  0  0
   -1.8880   -0.2000    1.9060 O   0  0  0  0  0  0  0  0  0  0  0  0
   -0.5550   -0.3470   -0.0940 C   0  0  1  0  0  0  0  0  0  0  0  0
   -0.2400   -1.3560   -0.9950 O   0  0  0  0  0  0  0  0  0  0  0  0
   -1.2720    0.8040   -0.8030 C   0  0  0  0  0  0  0  0  0  0  0  0
   -0.5800    2.1170   -0.5140 C   0  0  0  0  0  0  0  0  0  0  0  0
    0.7300    2.1430   -0.9860 O   0  0  0  0  0  0  0  0  0  0  0  0
    1.3880    0.9540   -0.7470 C   0  0  0  0  0  0  0  0  0  0  0  0
    0.7410    0.2160    0.4260 C   0  0  2  0  0  0  0  0  0  0  0  0
    1.6800   -0.8440    0.7880 N   0  0  0  0  0  0  0  0  0  0  0  0
    2.7960   -0.2150    1.2370 O   0  0  0  0  0  0  0  0  0  0  0  0
  1  2  1  0
  2  3  2  0
  2  4  1  0
  4  5  1  6
  4  6  1  0
  4 10  1  0
  6  7  1  0
  7  8  1  0
  8  9  1  0
  9 10  1  0
 10 11  1  6
 11 12  1  0
M  END
