
     RDKit          3D

 38 42  0  0  0  0  0  0  0  0999 V2000
   -7.3590    0.2030    1.7140 C   0  0  0  0  0  0  0  0  0  0  0  0
   -7.2190    1.4470    1.2610 C   0  0  0  0  0  0  0  0  0  0  0  0
   -6.2770    1.7170    0.1970 C   0  0  0  0  0  0  0  0  0  0  0  0
   -6.0030    2.8300   -0.3700 C   0  0  0  0  0  0  0  0  0  0  0  0
   -6.5410    4.1710   -0.1360 C   0  0  0  0  0  0  0  0  0  0  0  0
   -7.7550    4.3140    1.0870 Cl  0  0  0  0  0  0  0  0  0  0  0  0
   -5.5350    0.4810   -0.2780 C   0  0  0  0  0  0  0  0  0  0  0  0
   -4.5710    0.7540   -1.3920 C   0  0  0  0  0  0  0  0  0  0  0  0
   -3.8890   -0.4980   -1.7840 N   0  0  0  0  0  0  0  0  0  0  0  0
   -4.4020   -1.2890   -2.7320 C   0  0  0  0  0  0  0  0  0  0  0  0
   -5.4860   -0.9410   -3.2860 O   0  0  0  0  0  0  0  0  0  0  0  0
   -3.8120   -2.4360   -3.1160 N   0  0  0  0  0  0  0  0  0  0  0  0
   -2.6460   -2.8270   -2.5310 C   0  0  0  0  0  0  0  0  0  0  0  0
   -2.0650   -3.9920   -2.9330 N   0  0  0  0  0  0  0  0  0  0  0  0
   -0.9230   -4.3470   -2.3350 C   0  0  0  0  0  0  0  0  0  0  0  0
   -0.3220   -3.5910   -1.3450 C   0  0  0  0  0  0  0  0  0  0  0  0
   -0.9140   -2.4190   -0.9480 C   0  0  0  0  0  0  0  0  0  0  0  0
   -0.3640   -1.5900    0.0720 C   0  0  0  0  0  0  0  0  0  0  0  0
    0.8800   -2.1090    0.6050 N   0  0  2  0  0  0  0  0  0  0  0  0
    0.9330   -1.6570    2.0050 C   0  0  0  0  0  0  0  0  0  0  0  0
    1.1170   -0.1940    2.1360 C   0  0  0  0  0  0  0  0  0  0  0  0
    2.4250    0.3660    1.7300 C   0  0  0  0  0  0  0  0  0  0  0  0
    3.5580   -0.6180    1.6110 C   0  0  2  0  0  0  0  0  0  0  0  0
    4.6930    0.1430    0.9710 C   0  0  0  0  0  0  0  0  0  0  0  0
    4.8370    0.4490   -0.3200 N   0  0  0  0  0  0  0  0  0  0  0  0
    5.9890    1.1410   -0.4910 C   0  0  0  0  0  0  0  0  0  0  0  0
    6.5410    1.2410    0.7680 C   0  0  0  0  0  0  0  0  0  0  0  0
    5.7330    0.6340    1.5870 O   0  0  0  0  0  0  0  0  0  0  0  0
    7.8120    1.8970    1.2110 C   0  0  0  0  0  0  0  0  0  0  0  0
    8.0970    3.0000    0.3940 O   0  0  0  0  0  0  0  0  0  0  0  0
    6.9860    3.3880   -0.3490 C   0  0  0  0  0  0  0  0  0  0  0  0
    7.1470    2.8840   -1.6340 O   0  0  0  0  0  0  0  0  0  0  0  0
    6.5100    1.6570   -1.7730 C   0  0  0  0  0  0  0  0  0  0  0  0
    3.2470   -1.8100    0.7980 C   0  0  0  0  0  0  0  0  0  0  0  0
    2.0450   -1.7070   -0.1140 C   0  0  0  0  0  0  0  0  0  0  0  0
   -2.1240   -2.0070   -1.5550 C   0  0  0  0  0  0  0  0  0  0  0  0
   -2.7320   -0.8390   -1.1700 C   0  0  0  0  0  0  0  0  0  0  0  0
   -2.2140   -0.1380   -0.2830 O   0  0  0  0  0  0  0  0  0  0  0  0
  1  2  2  0
  2  3  1  0
  3  4  2  3
  3  7  1  0
  4  5  1  0
  5  6  1  0
  7  8  1  0
  8  9  1  0
  9 10  1  0
  9 37  1  0
 10 11  2  0
 10 12  1  0
 12 13  1  0
 13 14  2  0
 13 36  1  0
 14 15  1  0
 15 16  2  0
 16 17  1  0
 17 18  1  0
 17 36  2  0
 19 18  1  6
 19 20  1  0
 19 35  1  0
 20 21  1  0
 21 22  1  0
 22 23  1  0
 23 24  1  6
 23 34  1  0
 24 25  2  0
 24 28  1  0
 25 26  1  0
 26 27  2  0
 26 33  1  0
 27 28  1  0
 27 29  1  0
 29 30  1  0
 30 31  1  0
 31 32  1  0
 32 33  1  0
 34 35  1  0
 36 37  1  0
 37 38  2  0
M  CHG  2  19   1  25   1
M  END
