
     RDKit          3D

 38 42  0  0  0  0  0  0  0  0999 V2000
    5.6560    3.0740   -0.0620 C   0  0  0  0  0  0  0  0  0  0  0  0
    5.2440    1.7240    0.0080 O   0  0  0  0  0  0  0  0  0  0  0  0
    6.1970    0.7330    0.0690 C   0  0  0  0  0  0  0  0  0  0  0  0
    7.5320    1.0510    0.0630 C   0  0  0  0  0  0  0  0  0  0  0  0
    8.5090    0.1090    0.1220 C   0  0  0  0  0  0  0  0  0  0  0  0
    8.1120   -1.2050    0.1900 C   0  0  0  0  0  0  0  0  0  0  0  0
    6.7510   -1.5780    0.1980 C   0  0  0  0  0  0  0  0  0  0  0  0
    5.7920   -0.6070    0.1380 C   0  0  0  0  0  0  0  0  0  0  0  0
    4.4040   -0.8410    0.1390 N   0  0  0  0  0  0  0  0  0  0  0  0
    3.7400   -2.0830    0.2010 C   0  0  0  0  0  0  0  0  0  0  0  0
    4.4460   -3.1360    0.2600 O   0  0  0  0  0  0  0  0  0  0  0  0
    2.2900   -2.3160    0.2040 C   0  0  0  0  0  0  0  0  0  0  0  0
    1.4950   -1.1390    0.2240 O   0  0  0  0  0  0  0  0  0  0  0  0
    0.0980   -1.2570    0.1870 C   0  0  0  0  0  0  0  0  0  0  0  0
   -0.2730   -2.4490    0.1320 O   0  0  0  0  0  0  0  0  0  0  0  0
   -0.8230   -0.1530    0.2050 C   0  0  0  0  0  0  0  0  0  0  0  0
   -0.3380    1.1570    0.3840 C   0  0  0  0  0  0  0  0  0  0  0  0
    1.1130    1.4500    0.4620 C   0  0  0  0  0  0  0  0  0  0  0  0
    1.7790    0.9670    2.0350 Cl  0  0  0  0  0  0  0  0  0  0  0  0
   -1.2210    2.1910    0.4970 N   0  0  0  0  0  0  0  0  0  0  0  0
   -2.5310    1.9690    0.4390 C   0  0  0  0  0  0  0  0  0  0  0  0
   -3.4170    3.0730    0.5640 N   0  0  0  0  0  0  0  0  0  0  0  0
   -3.0860    4.4700    0.7540 C   0  0  0  0  0  0  0  0  0  0  0  0
   -4.0920    5.1680   -0.1420 C   0  0  0  0  0  0  0  0  0  0  0  0
   -5.1970    4.2050   -0.4200 C   0  0  0  0  0  0  0  0  0  0  0  0
   -4.8760    3.0440    0.5310 C   0  0  0  0  0  0  0  0  0  0  0  0
   -2.9870    0.7290    0.2650 N   0  0  0  0  0  0  0  0  0  0  0  0
   -2.1700   -0.3660    0.1390 C   0  0  0  0  0  0  0  0  0  0  0  0
   -2.8180   -1.6410   -0.0410 C   0  0  0  0  0  0  0  0  0  0  0  0
   -3.9090   -1.9010    0.8160 C   0  0  0  0  0  0  0  0  0  0  0  0
   -4.7030   -3.0000    0.7040 C   0  0  0  0  0  0  0  0  0  0  0  0
   -4.4470   -3.9190   -0.2900 C   0  0  0  0  0  0  0  0  0  0  0  0
   -3.3850   -3.6690   -1.1310 C   0  0  0  0  0  0  0  0  0  0  0  0
   -2.5700   -2.5580   -1.0310 C   0  0  0  0  0  0  0  0  0  0  0  0
   -3.2960   -4.7590   -2.0990 C   0  0  0  0  0  0  0  0  0  0  0  0
   -2.6550   -4.7620   -3.1550 O   0  0  0  0  0  0  0  0  0  0  0  0
   -4.1310   -5.8600   -1.5550 C   0  0  0  0  0  0  0  0  0  0  0  0
   -5.0460   -5.1480   -0.6970 N   0  0  0  0  0  0  0  0  0  0  0  0
  1  2  1  0
  2  3  1  0
  3  4  2  0
  3  8  1  0
  4  5  1  0
  5  6  2  0
  6  7  1  0
  7  8  2  0
  8  9  1  0
  9 10  1  0
 10 11  2  0
 10 12  1  0
 12 13  1  0
 13 14  1  0
 14 15  2  0
 14 16  1  0
 16 17  2  0
 16 28  1  0
 17 18  1  0
 17 20  1  0
 18 19  1  0
 20 21  2  0
 21 22  1  0
 21 27  1  0
 22 23  1  0
 22 26  1  0
 23 24  1  0
 24 25  1  0
 25 26  1  0
 27 28  2  0
 28 29  1  0
 29 30  2  0
 29 34  1  0
 30 31  1  0
 31 32  2  0
 32 33  1  0
 32 38  1  0
 33 34  2  0
 33 35  1  0
 35 36  2  0
 35 37  1  0
 37 38  1  0
M  CHG  2  20   1  27   1
M  END
