
     RDKit          3D

 33 37  0  0  0  0  0  0  0  0999 V2000
   -7.9560    0.1300    1.7620 C   0  0  0  0  0  0  0  0  0  0  0  0
   -7.1890    1.1610    0.9680 C   0  0  0  0  0  0  0  0  0  0  0  0
   -5.8520    0.6280    0.5680 N   0  0  0  0  0  0  0  0  0  0  0  0
   -4.7890    0.8410    1.4400 C   0  0  0  0  0  0  0  0  0  0  0  0
   -5.0960    1.2790    2.6190 O   0  0  0  0  0  0  0  0  0  0  0  0
   -3.3780    0.6190    1.1580 C   0  0  0  0  0  0  0  0  0  0  0  0
   -2.8320    0.3630   -0.0610 C   0  0  0  0  0  0  0  0  0  0  0  0
   -1.4500    0.1170   -0.1810 C   0  0  0  0  0  0  0  0  0  0  0  0
   -0.5950    0.1210    0.8870 C   0  0  0  0  0  0  0  0  0  0  0  0
    0.8280   -0.0870    0.8180 C   0  0  0  0  0  0  0  0  0  0  0  0
    1.4510   -0.1660    1.9670 O   0  0  0  0  0  0  0  0  0  0  0  0
    1.6580   -0.2170   -0.2970 N   0  0  0  0  0  0  0  0  0  0  0  0
    1.2680   -0.0680   -1.6560 C   0  0  0  0  0  0  0  0  0  0  0  0
    3.0610   -0.5050   -0.0390 C   0  0  0  0  0  0  0  0  0  0  0  0
    3.4600   -1.5330    0.7830 C   0  0  0  0  0  0  0  0  0  0  0  0
    4.8030   -1.8000    1.0220 C   0  0  0  0  0  0  0  0  0  0  0  0
    5.7560   -1.0110    0.4150 C   0  0  0  0  0  0  0  0  0  0  0  0
    5.3990    0.0270   -0.4130 C   0  0  0  0  0  0  0  0  0  0  0  0
    4.0390    0.2670   -0.6300 C   0  0  0  0  0  0  0  0  0  0  0  0
    6.5960    0.7250   -0.9390 C   0  0  0  0  0  0  0  0  0  0  0  0
    7.6960   -0.0010   -0.3540 N   0  0  0  0  0  0  0  0  0  0  0  0
    9.1360   -0.0260   -0.3210 C   0  0  0  0  0  0  0  0  0  0  0  0
    9.4540   -1.1650    0.5980 C   0  0  0  0  0  0  0  0  0  0  0  0
    8.1970   -1.6940    0.9960 N   0  0  0  0  0  0  0  0  0  0  0  0
    7.2310   -1.0420    0.4640 C   0  0  0  0  0  0  0  0  0  0  0  0
   -1.1520    0.3860    2.1520 C   0  0  0  0  0  0  0  0  0  0  0  0
   -2.4920    0.6220    2.2500 C   0  0  0  0  0  0  0  0  0  0  0  0
   -5.7880   -0.0280   -0.6600 C   0  0  0  0  0  0  0  0  0  0  0  0
   -6.0100    0.5810   -1.9010 C   0  0  0  0  0  0  0  0  0  0  0  0
   -5.9550   -0.1900   -3.0300 C   0  0  0  0  0  0  0  0  0  0  0  0
   -5.6920   -1.5400   -3.0240 C   0  0  0  0  0  0  0  0  0  0  0  0
   -5.4800   -2.1150   -1.8260 N   0  0  0  0  0  0  0  0  0  0  0  0
   -5.5240   -1.4050   -0.7020 C   0  0  0  0  0  0  0  0  0  0  0  0
  1  2  1  0
  2  3  1  0
  3  4  1  0
  3 28  1  0
  4  5  2  0
  4  6  1  0
  6  7  2  0
  6 27  1  0
  7  8  1  0
  8  9  2  0
  9 10  1  0
  9 26  1  0
 10 11  2  0
 10 12  1  0
 12 13  1  0
 12 14  1  0
 14 15  2  0
 14 19  1  0
 15 16  1  0
 16 17  2  0
 17 18  1  0
 17 25  1  0
 18 19  2  0
 18 20  1  0
 20 21  1  0
 21 22  1  0
 21 25  1  0
 22 23  1  0
 23 24  1  0
 24 25  2  0
 26 27  2  0
 28 29  2  0
 28 33  1  0
 29 30  1  0
 30 31  2  0
 31 32  1  0
 32 33  2  0
M  END
