
     RDKit          3D

 33 33  0  0  0  0  0  0  0  0999 V2000
    5.9870    2.8250   -1.9130 O   0  0  0  0  0  0  0  0  0  0  0  0
    4.7490    2.9560   -1.8470 C   0  0  0  0  0  0  0  0  0  0  0  0
    4.0990    4.0100   -2.5200 O   0  0  0  0  0  0  0  0  0  0  0  0
    4.0160    2.0620   -1.1100 O   0  0  0  0  0  0  0  0  0  0  0  0
    4.4850    0.9830   -0.3780 C   0  0  1  0  0  0  0  0  0  0  0  0
    5.2200    0.1150   -1.1880 O   0  0  0  0  0  0  0  0  0  0  0  0
    5.2750    1.3820    0.8060 C   0  0  0  0  0  0  0  0  0  0  0  0
    6.3830    2.1230    0.4520 O   0  0  0  0  0  0  0  0  0  0  0  0
    3.2180    0.1900    0.0580 C   0  0  0  0  0  0  0  0  0  0  0  0
    3.6060   -1.0070    0.8570 C   0  0  2  0  0  0  0  0  0  0  0  0
    4.4200   -1.8880    0.1770 O   0  0  0  0  0  0  0  0  0  0  0  0
    2.3710   -1.7600    1.3630 C   0  0  2  0  0  0  0  0  0  0  0  0
    2.7960   -2.7550    2.1970 O   0  0  0  0  0  0  0  0  0  0  0  0
    1.4940   -2.1940    0.2530 C   0  0  0  0  0  0  0  0  0  0  0  0
    0.2720   -2.9570    0.5660 C   0  0  2  0  0  0  0  0  0  0  0  0
    0.4830   -4.1760    1.2360 O   0  0  0  0  0  0  0  0  0  0  0  0
   -0.2600   -3.4250   -0.7060 O   0  0  0  0  0  0  0  0  0  0  0  0
   -0.8730   -2.2650    1.2070 C   0  0  1  0  0  0  0  0  0  0  0  0
   -1.0030   -2.3990    2.6890 C   0  0  0  0  0  0  0  0  0  0  0  0
   -0.2530   -1.5860    3.4730 O   0  0  0  0  0  0  0  0  0  0  0  0
   -1.1680   -1.0120    0.7190 O   0  0  0  0  0  0  0  0  0  0  0  0
   -2.3700   -1.0320    0.0350 C   0  0  0  0  0  0  0  0  0  0  0  0
   -2.6950    0.3770   -0.5100 C   0  0  2  0  0  0  0  0  0  0  0  0
   -2.7970    1.2850    0.4690 O   0  0  0  0  0  0  0  0  0  0  0  0
   -1.9330    2.2820    0.6650 C   0  0  0  0  0  0  0  0  0  0  0  0
   -1.8130    3.2410   -0.4790 C   0  0  0  0  0  0  0  0  0  0  0  0
   -1.3870    2.7320   -1.6710 O   0  0  0  0  0  0  0  0  0  0  0  0
   -3.9340    0.2810   -1.3780 C   0  0  1  0  0  0  0  0  0  0  0  0
   -5.1210   -0.2410   -0.6190 C   0  0  0  0  0  0  0  0  0  0  0  0
   -6.4290    0.2950   -1.0740 C   0  0  0  0  0  0  0  0  0  0  0  0
   -6.3750    1.4250   -1.8400 O   0  0  0  0  0  0  0  0  0  0  0  0
   -5.3010    1.4340   -2.7220 C   0  0  0  0  0  0  0  0  0  0  0  0
   -4.1480    1.5270   -1.9380 O   0  0  0  0  0  0  0  0  0  0  0  0
  1  2  2  0
  2  3  1  0
  2  4  1  0
  4  5  1  0
  5  6  1  6
  5  7  1  0
  5  9  1  0
  7  8  1  0
  9 10  1  0
 10 11  1  6
 10 12  1  0
 12 13  1  6
 12 14  1  0
 14 15  1  0
 15 16  1  1
 15 17  1  0
 15 18  1  0
 18 19  1  1
 18 21  1  0
 19 20  1  0
 21 22  1  0
 23 22  1  1
 23 24  1  0
 23 28  1  0
 24 25  1  0
 25 26  1  0
 26 27  1  0
 28 29  1  1
 28 33  1  0
 29 30  1  0
 30 31  1  0
 31 32  1  0
 32 33  1  0
M  END
