
     RDKit          3D

 33 37  0  0  0  0  0  0  0  0999 V2000
    4.6680   -3.0510   -0.1560 C   0  0  0  0  0  0  0  0  0  0  0  0
    4.1950   -1.6590    0.1710 C   0  0  0  0  0  0  0  0  0  0  0  0
    4.7020   -0.5250   -0.4090 N   0  0  0  0  0  0  0  0  0  0  0  0
    4.1080    0.5460    0.0710 N   0  0  0  0  0  0  0  0  0  0  0  0
    4.3580    1.9190   -0.2830 C   0  0  0  0  0  0  0  0  0  0  0  0
    5.6500    2.3720   -0.3730 C   0  0  0  0  0  0  0  0  0  0  0  0
    5.9070    3.7020   -0.7130 C   0  0  0  0  0  0  0  0  0  0  0  0
    4.8830    4.5860   -0.9670 C   0  0  0  0  0  0  0  0  0  0  0  0
    3.5750    4.1320   -0.8770 C   0  0  0  0  0  0  0  0  0  0  0  0
    3.3330    2.8010   -0.5350 C   0  0  0  0  0  0  0  0  0  0  0  0
    3.2060    0.1150    0.9670 C   0  0  0  0  0  0  0  0  0  0  0  0
    3.2350   -1.2860    1.0570 C   0  0  0  0  0  0  0  0  0  0  0  0
    2.4010   -2.1020    1.9150 C   0  0  0  0  0  0  0  0  0  0  0  0
    1.2880   -2.7700    1.3010 N   0  0  0  0  0  0  0  0  0  0  0  0
    1.1350   -3.9800    0.8010 C   0  0  0  0  0  0  0  0  0  0  0  0
    2.1510   -5.0530    0.7960 C   0  0  0  0  0  0  0  0  0  0  0  0
   -0.1380   -4.0910    0.3050 C   0  0  0  0  0  0  0  0  0  0  0  0
   -0.7670   -2.9130    0.5150 N   0  0  0  0  0  0  0  0  0  0  0  0
   -2.0990   -2.5880    0.1270 C   0  0  0  0  0  0  0  0  0  0  0  0
   -2.7570   -3.4940   -0.5060 O   0  0  0  0  0  0  0  0  0  0  0  0
   -2.7810   -1.3350    0.3770 C   0  0  0  0  0  0  0  0  0  0  0  0
   -2.8980   -0.7550    1.6070 C   0  0  0  0  0  0  0  0  0  0  0  0
   -3.5520    0.4660    1.7950 C   0  0  0  0  0  0  0  0  0  0  0  0
   -4.1020    1.1270    0.7390 C   0  0  0  0  0  0  0  0  0  0  0  0
   -3.9910    0.5470   -0.5270 C   0  0  0  0  0  0  0  0  0  0  0  0
   -3.3480   -0.6530   -0.7060 C   0  0  0  0  0  0  0  0  0  0  0  0
   -4.5710    1.2310   -1.7080 C   0  0  0  0  0  0  0  0  0  0  0  0
   -5.6420    2.1170   -1.4510 N   0  0  0  0  0  0  0  0  0  0  0  0
   -5.6130    3.3470   -2.1850 C   0  0  0  0  0  0  0  0  0  0  0  0
   -6.0490    2.2300   -0.0930 C   0  0  0  0  0  0  0  0  0  0  0  0
   -4.8320    2.4160    0.7990 C   0  0  0  0  0  0  0  0  0  0  0  0
    0.0970   -2.1150    1.1170 C   0  0  0  0  0  0  0  0  0  0  0  0
   -0.1090   -0.9070    1.4850 O   0  0  0  0  0  0  0  0  0  0  0  0
  1  2  1  0
  2  3  2  0
  2 12  1  0
  3  4  1  0
  4  5  1  0
  4 11  1  0
  5  6  2  0
  5 10  1  0
  6  7  1  0
  7  8  2  0
  8  9  1  0
  9 10  2  0
 11 12  2  0
 12 13  1  0
 13 14  1  0
 14 15  1  0
 14 32  1  0
 15 16  1  0
 15 17  2  0
 17 18  1  0
 18 19  1  0
 18 32  1  0
 19 20  2  0
 19 21  1  0
 21 22  2  0
 21 26  1  0
 22 23  1  0
 23 24  2  0
 24 25  1  0
 24 31  1  0
 25 26  2  0
 25 27  1  0
 27 28  1  0
 28 29  1  0
 28 30  1  0
 30 31  1  0
 32 33  2  0
M  END
