
     RDKit          3D

 33 37  0  0  0  0  0  0  0  0999 V2000
   -5.0220    1.4590   -3.6810 C   0  0  0  0  0  0  0  0  0  0  0  0
   -4.3890    1.5280   -2.6470 C   0  0  0  0  0  0  0  0  0  0  0  0
   -3.7500    1.5890   -1.3420 C   0  0  0  0  0  0  0  0  0  0  0  0
   -2.6870    0.6300   -1.1200 N   0  0  0  0  0  0  0  0  0  0  0  0
   -1.7040    0.5580   -2.0720 N   0  0  0  0  0  0  0  0  0  0  0  0
   -0.8360   -0.3890   -1.6920 C   0  0  0  0  0  0  0  0  0  0  0  0
   -1.2310   -0.9100   -0.5350 C   0  0  0  0  0  0  0  0  0  0  0  0
   -2.4470   -0.2590   -0.1620 C   0  0  0  0  0  0  0  0  0  0  0  0
   -3.1080   -0.5610    1.0690 N   0  0  0  0  0  0  0  0  0  0  0  0
   -4.3480    0.1110    1.3060 C   0  0  0  0  0  0  0  0  0  0  0  0
   -4.8930   -0.3410    2.5700 C   0  0  0  0  0  0  0  0  0  0  0  0
   -4.4150   -1.2040    3.4230 C   0  0  0  0  0  0  0  0  0  0  0  0
   -3.1170   -1.8390    3.0710 C   0  0  0  0  0  0  0  0  0  0  0  0
   -2.5140   -1.5250    1.9540 C   0  0  0  0  0  0  0  0  0  0  0  0
   -1.2510   -2.1600    1.5650 C   0  0  0  0  0  0  0  0  0  0  0  0
   -0.6600   -1.8920    0.4580 C   0  0  0  0  0  0  0  0  0  0  0  0
    0.7490   -2.3050    0.2570 N   0  0  0  0  0  0  0  0  0  0  0  0
    1.5890   -1.4000   -0.4480 C   0  0  0  0  0  0  0  0  0  0  0  0
    2.4730   -0.5250    0.4550 C   0  0  0  0  0  0  0  0  0  0  0  0
    3.1550    0.3540   -0.2440 O   0  0  0  0  0  0  0  0  0  0  0  0
    3.5790    1.2210   -1.0680 C   0  0  0  0  0  0  0  0  0  0  0  0
    2.6940    1.4120   -2.2980 C   0  0  0  0  0  0  0  0  0  0  0  0
    3.1080    2.3700   -3.1490 C   0  0  0  0  0  0  0  0  0  0  0  0
    4.2320    3.1800   -3.0190 C   0  0  0  0  0  0  0  0  0  0  0  0
    5.0400    2.9730   -1.8590 C   0  0  0  0  0  0  0  0  0  0  0  0
    4.6050    2.0180   -1.0510 C   0  0  0  0  0  0  0  0  0  0  0  0
    5.4670    1.8440    0.1180 O   0  0  0  0  0  0  0  0  0  0  0  0
    6.3040    2.9400    0.5030 C   0  0  0  0  0  0  0  0  0  0  0  0
    1.1640   -3.5030    0.8810 C   0  0  0  0  0  0  0  0  0  0  0  0
    0.5230   -3.7440    2.1760 C   0  0  0  0  0  0  0  0  0  0  0  0
    1.1430   -4.4320    3.2180 C   0  0  0  0  0  0  0  0  0  0  0  0
    1.6990   -5.0600    4.1930 N   0  0  0  0  0  0  0  0  0  0  0  0
   -0.6180   -3.1170    2.4640 C   0  0  0  0  0  0  0  0  0  0  0  0
  1  2  2  0
  2  3  1  0
  3  4  1  0
  4  5  1  0
  4  8  1  0
  5  6  2  0
  6  7  1  0
  7  8  2  0
  7 16  1  0
  8  9  1  0
  9 10  1  0
  9 14  1  0
 10 11  1  0
 11 12  2  0
 12 13  1  0
 13 14  2  0
 14 15  1  0
 15 16  2  0
 15 33  1  0
 16 17  1  0
 17 18  1  0
 17 29  1  0
 18 19  1  0
 19 20  1  0
 20 21  1  0
 21 22  2  0
 21 26  1  0
 22 23  1  0
 23 24  2  0
 24 25  1  0
 25 26  2  0
 26 27  1  0
 27 28  1  0
 29 30  1  0
 30 31  1  0
 30 33  2  0
 31 32  3  0
M  END
