
     RDKit          3D

 33 37  0  0  0  0  0  0  0  0999 V2000
   -7.6170    3.3330   -1.7970 C   0  0  0  0  0  0  0  0  0  0  0  0
   -7.5480    1.8420   -1.7350 C   0  0  0  0  0  0  0  0  0  0  0  0
   -7.1840    1.3180   -0.3910 C   0  0  0  0  0  0  0  0  0  0  0  0
   -5.8750    0.8640   -0.1840 C   0  0  0  0  0  0  0  0  0  0  0  0
   -5.5040    0.3770    1.0500 C   0  0  0  0  0  0  0  0  0  0  0  0
   -4.1600   -0.1040    1.3440 C   0  0  0  0  0  0  0  0  0  0  0  0
   -3.8760   -0.5800    2.5680 N   0  0  0  0  0  0  0  0  0  0  0  0
   -2.6600   -1.0340    2.9170 C   0  0  0  0  0  0  0  0  0  0  0  0
   -1.6300   -1.0240    1.9950 C   0  0  0  0  0  0  0  0  0  0  0  0
   -0.3630   -1.3890    2.0290 O   0  0  0  0  0  0  0  0  0  0  0  0
    0.2260   -1.1790    0.8730 C   0  0  0  0  0  0  0  0  0  0  0  0
    1.6290   -1.4650    0.5500 C   0  0  0  0  0  0  0  0  0  0  0  0
    2.4500   -1.9820    1.4420 C   0  0  0  0  0  0  0  0  0  0  0  0
    3.8280   -2.2350    1.0400 C   0  0  0  0  0  0  0  0  0  0  0  0
    4.7810   -2.7710    1.8920 C   0  0  0  0  0  0  0  0  0  0  0  0
    6.0730   -2.9840    1.4380 C   0  0  0  0  0  0  0  0  0  0  0  0
    6.4210   -2.6600    0.1270 C   0  0  0  0  0  0  0  0  0  0  0  0
    5.4400   -2.1300   -0.6800 C   0  0  0  0  0  0  0  0  0  0  0  0
    5.7320   -1.7520   -2.1020 C   0  0  0  0  0  0  0  0  0  0  0  0
    6.1810   -0.3750   -2.1810 N   0  0  0  0  0  0  0  0  0  0  0  0
    5.1840    0.5470   -1.6750 C   0  0  0  0  0  0  0  0  0  0  0  0
    5.6700    1.9490   -1.9780 C   0  0  0  0  0  0  0  0  0  0  0  0
    6.8530    2.1450   -1.2650 O   0  0  0  0  0  0  0  0  0  0  0  0
    7.8400    1.2720   -1.6830 C   0  0  0  0  0  0  0  0  0  0  0  0
    7.4180   -0.1750   -1.4620 C   0  0  0  0  0  0  0  0  0  0  0  0
    4.2090   -1.9450   -0.1940 N   0  0  0  0  0  0  0  0  0  0  0  0
   -0.7320   -0.6410    0.0380 C   0  0  0  0  0  0  0  0  0  0  0  0
   -1.9160   -0.5370    0.7370 C   0  0  0  0  0  0  0  0  0  0  0  0
   -3.1670   -0.0890    0.4380 N   0  0  0  0  0  0  0  0  0  0  0  0
   -6.4750    0.3680    2.0220 C   0  0  0  0  0  0  0  0  0  0  0  0
   -7.7270    0.8020    1.8230 N   0  0  0  0  0  0  0  0  0  0  0  0
   -8.1170    1.2860    0.6200 C   0  0  0  0  0  0  0  0  0  0  0  0
   -9.4850    1.7730    0.3620 C   0  0  0  0  0  0  0  0  0  0  0  0
  1  2  1  0
  2  3  1  0
  3  4  2  0
  3 32  1  0
  4  5  1  0
  5  6  1  0
  5 30  2  0
  6  7  2  0
  6 29  1  0
  7  8  1  0
  8  9  2  0
  9 10  1  0
  9 28  1  0
 10 11  1  0
 11 12  1  0
 11 27  2  0
 12 13  2  3
 13 14  1  0
 14 15  2  0
 14 26  1  0
 15 16  1  0
 16 17  2  0
 17 18  1  0
 18 19  1  0
 18 26  2  0
 19 20  1  0
 20 21  1  0
 20 25  1  0
 21 22  1  0
 22 23  1  0
 23 24  1  0
 24 25  1  0
 27 28  1  0
 28 29  2  0
 30 31  1  0
 31 32  2  0
 32 33  1  0
M  END
