
     RDKit          3D

 33 36  0  0  0  0  0  0  0  0999 V2000
   -6.3950    1.2560    1.1230 C   0  0  0  0  0  0  0  0  0  0  0  0
   -6.3290    0.0270    0.2270 C   0  0  0  0  0  0  0  0  0  0  0  0
   -5.1010   -0.6470    0.4780 O   0  0  0  0  0  0  0  0  0  0  0  0
   -3.9230   -0.0220    0.1660 C   0  0  0  0  0  0  0  0  0  0  0  0
   -3.8710    1.2490   -0.3810 C   0  0  0  0  0  0  0  0  0  0  0  0
   -2.6530    1.8010   -0.6810 C   0  0  0  0  0  0  0  0  0  0  0  0
   -1.4780    1.1350   -0.4560 C   0  0  0  0  0  0  0  0  0  0  0  0
   -0.2680    1.6870   -0.8000 O   0  0  0  0  0  0  0  0  0  0  0  0
   -0.0800    2.9320   -1.3770 C   0  0  0  0  0  0  0  0  0  0  0  0
   -1.4840   -0.1610    0.1170 C   0  0  0  0  0  0  0  0  0  0  0  0
   -0.1830   -0.7860    0.2650 N   0  0  0  0  0  0  0  0  0  0  0  0
    0.8480   -0.0180    0.5550 C   0  0  0  0  0  0  0  0  0  0  0  0
    0.7340    1.2000    1.2400 N   0  0  0  0  0  0  0  0  0  0  0  0
    2.1350   -0.5160    0.3190 C   0  0  0  0  0  0  0  0  0  0  0  0
    3.2190    0.3950    0.7030 C   0  0  0  0  0  0  0  0  0  0  0  0
    4.1830    0.6560   -0.3830 N   0  0  0  0  0  0  0  0  0  0  0  0
    5.0330    1.7820   -0.1540 C   0  0  0  0  0  0  0  0  0  0  0  0
    4.8430    2.6400    0.8910 C   0  0  0  0  0  0  0  0  0  0  0  0
    5.7700    3.7010    1.0780 C   0  0  0  0  0  0  0  0  0  0  0  0
    5.5120    4.7930    2.4220 Cl  0  0  0  0  0  0  0  0  0  0  0  0
    6.8040    3.8470    0.2540 N   0  0  0  0  0  0  0  0  0  0  0  0
    6.9590    2.9900   -0.7570 C   0  0  0  0  0  0  0  0  0  0  0  0
    6.0940    1.9660   -0.9790 N   0  0  0  0  0  0  0  0  0  0  0  0
    2.3370   -1.7530   -0.1800 C   0  0  0  0  0  0  0  0  0  0  0  0
    1.2400   -2.4930   -0.4370 N   0  0  0  0  0  0  0  0  0  0  0  0
    0.0220   -2.0060   -0.2100 C   0  0  0  0  0  0  0  0  0  0  0  0
   -0.9900   -2.8180   -0.3730 N   0  0  0  0  0  0  0  0  0  0  0  0
   -0.8050   -4.1570   -0.8740 C   0  0  0  0  0  0  0  0  0  0  0  0
   -0.7260   -5.3110   -0.1550 C   0  0  0  0  0  0  0  0  0  0  0  0
   -0.5830   -6.4710   -0.7700 C   0  0  0  0  0  0  0  0  0  0  0  0
   -0.5130   -6.4460   -2.1470 C   0  0  0  0  0  0  0  0  0  0  0  0
   -0.6700   -4.6810   -2.5140 S   0  0  0  0  0  0  0  0  0  0  0  0
   -2.7060   -0.6940    0.4050 C   0  0  0  0  0  0  0  0  0  0  0  0
  1  2  1  0
  2  3  1  0
  3  4  1  0
  4  5  2  0
  4 33  1  0
  5  6  1  0
  6  7  2  0
  7  8  1  0
  7 10  1  0
  8  9  1  0
 10 11  1  0
 10 33  2  0
 11 12  1  0
 11 26  1  0
 12 13  1  0
 12 14  2  0
 14 15  1  0
 14 24  1  0
 15 16  1  0
 16 17  1  0
 17 18  2  0
 17 23  1  0
 18 19  1  0
 19 20  1  0
 19 21  2  0
 21 22  1  0
 22 23  2  0
 24 25  2  0
 25 26  1  0
 26 27  2  3
 27 28  1  0
 28 29  2  0
 28 32  1  0
 29 30  1  0
 30 31  2  0
 31 32  1  0
M  END
