
     RDKit          3D

 33 34  0  0  0  0  0  0  0  0999 V2000
   -1.3180   -4.0060    0.7200 C   0  0  0  0  0  0  0  0  0  0  0  0
   -0.9960   -2.5630    0.2910 C   0  0  1  0  0  0  0  0  0  0  0  0
    0.3170   -2.2980    0.1870 O   0  0  0  0  0  0  0  0  0  0  0  0
    1.5240   -2.2630    0.6360 C   0  0  0  0  0  0  0  0  0  0  0  0
    2.0090   -2.6150    1.7410 O   0  0  0  0  0  0  0  0  0  0  0  0
    2.6310   -1.7070   -0.2790 C   0  0  0  0  0  0  0  0  0  0  0  0
    3.0870   -0.3940    0.2780 C   0  0  1  0  0  0  0  0  0  0  0  0
    4.5500   -0.2380    0.2650 C   0  0  0  0  0  0  0  0  0  0  0  0
    5.3030   -0.2570   -0.9950 C   0  0  2  0  0  0  0  0  0  0  0  0
    5.2310   -1.5040   -1.8170 C   0  0  0  0  0  0  0  0  0  0  0  0
    6.7950   -0.1130   -0.6070 C   0  0  0  0  0  0  0  0  0  0  0  0
    5.0660    0.8760   -1.7960 O   0  0  0  0  0  0  0  0  0  0  0  0
    2.3920    0.6840   -0.4170 N   0  0  0  0  0  0  0  0  0  0  0  0
    2.0740    1.9350    0.1410 C   0  0  0  0  0  0  0  0  0  0  0  0
    2.4000    2.9690   -0.5420 O   0  0  0  0  0  0  0  0  0  0  0  0
    1.3980    2.1660    1.4420 C   0  0  0  0  0  0  0  0  0  0  0  0
   -0.1080    2.2980    1.2580 C   0  0  1  0  0  0  0  0  0  0  0  0
   -0.6480    2.5400    2.5860 N   0  0  0  0  0  0  0  0  0  0  0  0
   -0.3920    3.5170    0.4410 C   0  0  0  0  0  0  0  0  0  0  0  0
    0.1570    4.6500    1.2090 N   0  0  0  0  0  0  0  0  0  0  0  0
   -0.7040    1.0230    0.7320 C   0  0  0  0  0  0  0  0  0  0  0  0
   -1.5820    1.1740   -0.4680 C   0  0  0  0  0  0  0  0  0  0  0  0
   -3.0100    1.2730   -0.1840 C   0  0  0  0  0  0  0  0  0  0  0  0
   -3.9840    0.4140   -0.2910 C   0  0  0  0  0  0  0  0  0  0  0  0
   -5.4790    0.5050    0.0010 C   0  0  0  0  0  0  0  0  0  0  0  0
   -6.0690   -0.3090   -1.1140 C   0  0  0  0  0  0  0  0  0  0  0  0
   -4.8840   -0.8600   -1.9240 C   0  0  0  0  0  0  0  0  0  0  0  0
   -3.8650   -0.9840   -0.7680 C   0  0  2  0  0  0  0  0  0  0  0  0
   -4.4730   -2.0060    0.1520 C   0  0  0  0  0  0  0  0  0  0  0  0
   -4.6680   -3.2120   -0.5670 O   0  0  0  0  0  0  0  0  0  0  0  0
   -2.6580   -1.3930   -1.2490 O   0  0  0  0  0  0  0  0  0  0  0  0
   -1.7830   -2.3630   -0.9670 C   0  0  0  0  0  0  0  0  0  0  0  0
   -1.5470   -3.2630   -1.8500 O   0  0  0  0  0  0  0  0  0  0  0  0
  2  1  1  6
  2  3  1  0
  2 32  1  0
  3  4  1  0
  4  5  2  0
  4  6  1  0
  6  7  1  0
  7  8  1  6
  7 13  1  0
  8  9  1  0
  9 10  1  6
  9 11  1  0
  9 12  1  0
 13 14  1  0
 14 15  2  0
 14 16  1  0
 16 17  1  0
 17 18  1  1
 17 19  1  0
 17 21  1  0
 19 20  1  0
 21 22  1  0
 22 23  1  0
 23 24  2  0
 24 25  1  0
 24 28  1  0
 25 26  1  0
 26 27  1  0
 27 28  1  0
 28 29  1  1
 28 31  1  0
 29 30  1  0
 31 32  1  0
 32 33  2  0
M  CHG  1  20   1
M  END
