
     RDKit          3D

 35 39  0  0  0  0  0  0  0  0999 V2000
    1.7290    2.2610    2.2630 C   0  0  0  0  0  0  0  0  0  0  0  0
    2.1060    1.4350    1.2280 O   0  0  0  0  0  0  0  0  0  0  0  0
    1.9190    1.7490   -0.1650 C   0  0  0  0  0  0  0  0  0  0  0  0
    1.2930    3.0200   -0.3720 C   0  0  0  0  0  0  0  0  0  0  0  0
    1.0100    3.5520   -1.6090 C   0  0  0  0  0  0  0  0  0  0  0  0
    1.3770    2.7550   -2.6840 C   0  0  0  0  0  0  0  0  0  0  0  0
    1.9930    1.5030   -2.4750 C   0  0  0  0  0  0  0  0  0  0  0  0
    2.2770    0.9710   -1.2360 C   0  0  0  0  0  0  0  0  0  0  0  0
    2.9020   -0.3040   -1.0890 O   0  0  0  0  0  0  0  0  0  0  0  0
    2.2170   -1.5600   -1.1250 C   0  0  0  0  0  0  0  0  0  0  0  0
    2.4530   -2.3550    0.0930 C   0  0  0  0  0  0  0  0  0  0  0  0
    3.7540   -2.2560    0.5950 C   0  0  0  0  0  0  0  0  0  0  0  0
    4.1960   -2.9270    1.7150 C   0  0  0  0  0  0  0  0  0  0  0  0
    3.3130   -3.7430    2.3840 C   0  0  0  0  0  0  0  0  0  0  0  0
    2.0260   -3.8500    1.9000 C   0  0  0  0  0  0  0  0  0  0  0  0
    1.5750   -3.1670    0.7600 C   0  0  0  0  0  0  0  0  0  0  0  0
    0.2000   -3.3830    0.3830 N   0  0  0  0  0  0  0  0  0  0  0  0
   -0.6990   -2.3120   -0.0190 C   0  0  0  0  0  0  0  0  0  0  0  0
   -1.9840   -2.7140    0.6970 C   0  0  2  0  0  0  0  0  0  0  0  0
   -2.0460   -4.1750    0.2920 C   0  0  0  0  0  0  0  0  0  0  0  0
   -0.6110   -4.5500    0.2900 C   0  0  0  0  0  0  0  0  0  0  0  0
   -0.2200   -5.7470    0.2140 O   0  0  0  0  0  0  0  0  0  0  0  0
   -3.2150   -2.0720    0.0370 C   0  0  0  0  0  0  0  0  0  0  0  0
   -3.2150   -0.6080    0.2210 C   0  0  0  0  0  0  0  0  0  0  0  0
   -3.9740    0.3000    0.8520 C   0  0  0  0  0  0  0  0  0  0  0  0
   -3.6600    1.7010    0.8120 C   0  0  0  0  0  0  0  0  0  0  0  0
   -2.5540    2.1500    0.1130 C   0  0  0  0  0  0  0  0  0  0  0  0
   -1.7840    1.2140   -0.5280 C   0  0  0  0  0  0  0  0  0  0  0  0
   -2.1630   -0.0720   -0.4300 N   0  0  0  0  0  0  0  0  0  0  0  0
   -2.1720    3.6040    0.0330 C   0  0  0  0  0  0  0  0  0  0  0  0
   -2.0970    4.1460   -1.3180 N   0  0  0  0  0  0  0  0  0  0  0  0
   -1.1440    4.9900   -1.8650 C   0  0  0  0  0  0  0  0  0  0  0  0
   -1.5300    6.0000   -2.5630 O   0  0  0  0  0  0  0  0  0  0  0  0
    0.3430    4.8800   -1.7490 C   0  0  0  0  0  0  0  0  0  0  0  0
    0.8660    6.0930   -1.7980 O   0  0  0  0  0  0  0  0  0  0  0  0
  1  2  1  0
  2  3  1  0
  3  4  1  0
  3  8  2  0
  4  5  2  0
  5  6  1  0
  5 34  1  0
  6  7  2  0
  7  8  1  0
  8  9  1  0
  9 10  1  0
 10 11  1  0
 11 12  2  0
 11 16  1  0
 12 13  1  0
 13 14  2  0
 14 15  1  0
 15 16  2  0
 16 17  1  0
 17 18  1  0
 17 21  1  0
 18 19  1  0
 19 20  1  6
 19 23  1  0
 20 21  1  0
 21 22  2  0
 23 24  1  0
 24 25  2  0
 24 29  1  0
 25 26  1  0
 26 27  2  0
 27 28  1  0
 27 30  1  0
 28 29  2  0
 30 31  1  0
 31 32  1  0
 32 33  2  0
 32 34  1  0
 34 35  2  0
M  END
