
     RDKit          3D

 35 39  0  0  0  0  0  0  0  0999 V2000
    5.2070    1.9010   -0.6570 O   0  0  0  0  0  0  0  0  0  0  0  0
    4.0250    1.5790   -0.8590 C   0  0  0  0  0  0  0  0  0  0  0  0
    3.5500    0.1720   -0.7340 C   0  0  0  0  0  0  0  0  0  0  0  0
    3.8960   -0.4550    0.5910 C   0  0  2  0  0  0  0  0  0  0  0  0
    5.3150   -0.1110    0.8430 C   0  0  0  0  0  0  0  0  0  0  0  0
    5.7590    0.7800    1.6540 O   0  0  0  0  0  0  0  0  0  0  0  0
    6.0630   -0.9690    0.0060 N   0  0  0  0  0  0  0  0  0  0  0  0
    5.2410   -2.1300   -0.2210 C   0  0  0  0  0  0  0  0  0  0  0  0
    5.5810   -3.1410   -0.9350 O   0  0  0  0  0  0  0  0  0  0  0  0
    3.9910   -1.9500    0.4890 C   0  0  0  0  0  0  0  0  0  0  0  0
    3.0330   -2.7830    0.9970 C   0  0  0  0  0  0  0  0  0  0  0  0
    1.6010   -2.5750    0.5980 C   0  0  0  0  0  0  0  0  0  0  0  0
    0.9430   -3.2580   -0.4220 C   0  0  0  0  0  0  0  0  0  0  0  0
   -0.3500   -3.0220   -0.8810 C   0  0  0  0  0  0  0  0  0  0  0  0
   -1.1510   -2.0180   -0.3370 C   0  0  0  0  0  0  0  0  0  0  0  0
   -0.4930   -1.3440    0.6870 C   0  0  0  0  0  0  0  0  0  0  0  0
    0.8220   -1.5900    1.1540 C   0  0  0  0  0  0  0  0  0  0  0  0
   -2.4780   -1.6330   -0.8220 N   0  0  0  0  0  0  0  0  0  0  0  0
   -3.6220   -1.9440    0.0930 C   0  0  0  0  0  0  0  0  0  0  0  0
   -4.5470   -0.7510   -0.1340 C   0  0  1  0  0  0  0  0  0  0  0  0
   -3.8210    0.5350    0.0800 C   0  0  0  0  0  0  0  0  0  0  0  0
   -4.5240    1.6230    0.8100 C   0  0  0  0  0  0  0  0  0  0  0  0
   -3.4920    2.7760    1.0960 C   0  0  0  0  0  0  0  0  0  0  0  0
   -2.2050    2.1000    1.4590 C   0  0  0  0  0  0  0  0  0  0  0  0
   -2.5720    1.3660    2.4850 O   0  0  0  0  0  0  0  0  0  0  0  0
   -0.9060    2.3050    0.7450 C   0  0  0  0  0  0  0  0  0  0  0  0
    0.1400    3.0840    1.2240 C   0  0  0  0  0  0  0  0  0  0  0  0
    1.3930    3.1870    0.5850 C   0  0  0  0  0  0  0  0  0  0  0  0
    1.7150    2.5230   -0.5950 C   0  0  0  0  0  0  0  0  0  0  0  0
    0.6610    1.7540   -1.0710 C   0  0  0  0  0  0  0  0  0  0  0  0
   -0.5780    1.6540   -0.4340 C   0  0  0  0  0  0  0  0  0  0  0  0
    3.0290    2.5770   -1.2340 N   0  0  0  0  0  0  0  0  0  0  0  0
   -4.6540   -1.0080   -1.6620 C   0  0  0  0  0  0  0  0  0  0  0  0
   -3.1920   -0.9760   -1.9290 C   0  0  0  0  0  0  0  0  0  0  0  0
   -2.7260   -0.4650   -2.9320 O   0  0  0  0  0  0  0  0  0  0  0  0
  1  2  2  0
  2  3  1  0
  2 32  1  0
  4  3  1  6
  4  5  1  0
  4 10  1  0
  5  6  2  0
  5  7  1  0
  7  8  1  0
  8  9  2  0
  8 10  1  0
 10 11  2  0
 11 12  1  0
 12 13  2  0
 12 17  1  0
 13 14  1  0
 14 15  2  0
 15 16  1  0
 15 18  1  0
 16 17  2  0
 18 19  1  0
 18 34  1  0
 19 20  1  0
 20 21  1  6
 20 33  1  0
 21 22  1  0
 22 23  1  0
 23 24  1  0
 24 25  2  0
 24 26  1  0
 26 27  2  0
 26 31  1  0
 27 28  1  0
 28 29  2  0
 29 30  1  0
 29 32  1  0
 30 31  2  0
 33 34  1  0
 34 35  2  0
M  END
