
     RDKit          3D

 35 40  0  0  0  0  0  0  0  0999 V2000
    4.6870   -0.1480    0.9760 C   0  0  0  0  0  0  0  0  0  0  0  0
    5.5480   -0.3280   -0.0010 C   0  0  0  0  0  0  0  0  0  0  0  0
    5.1750   -0.2050   -1.3780 C   0  0  0  0  0  0  0  0  0  0  0  0
    6.1270   -0.3930   -2.3130 C   0  0  0  0  0  0  0  0  0  0  0  0
    3.8070    0.0610   -1.8300 C   0  0  1  0  0  0  0  0  0  0  0  0
    2.8280   -0.8620   -1.3310 N   0  0  0  0  0  0  0  0  0  0  0  0
    1.6320   -0.5080   -0.9470 C   0  0  0  0  0  0  0  0  0  0  0  0
    0.7680   -1.4700   -0.4920 C   0  0  0  0  0  0  0  0  0  0  0  0
    1.1190   -2.6650   -0.4800 O   0  0  0  0  0  0  0  0  0  0  0  0
   -0.5310   -1.1610   -0.0290 C   0  0  0  0  0  0  0  0  0  0  0  0
   -1.1800   -2.2870    0.6540 C   0  0  0  0  0  0  0  0  0  0  0  0
   -1.3140   -3.4250    0.0050 C   0  0  0  0  0  0  0  0  0  0  0  0
   -1.9480   -4.6610    0.5630 C   0  0  0  0  0  0  0  0  0  0  0  0
   -2.8380   -4.2310    1.5720 O   0  0  0  0  0  0  0  0  0  0  0  0
   -2.4100   -3.3040    2.5040 C   0  0  0  0  0  0  0  0  0  0  0  0
   -2.8780   -3.2900    3.6920 O   0  0  0  0  0  0  0  0  0  0  0  0
   -1.4010   -2.3080    2.1470 C   0  0  0  0  0  0  0  0  0  0  0  0
   -0.9500    0.1120   -0.0430 C   0  0  0  0  0  0  0  0  0  0  0  0
   -2.2300    0.4560    0.3510 C   0  0  0  0  0  0  0  0  0  0  0  0
   -2.5970    1.7940    0.3200 C   0  0  0  0  0  0  0  0  0  0  0  0
   -1.7200    2.7780   -0.1020 C   0  0  0  0  0  0  0  0  0  0  0  0
   -0.4630    2.4410   -0.5100 C   0  0  0  0  0  0  0  0  0  0  0  0
    0.4410    3.4090   -0.9370 C   0  0  0  0  0  0  0  0  0  0  0  0
    0.0290    4.6020   -0.9280 O   0  0  0  0  0  0  0  0  0  0  0  0
    1.6660    3.0640   -1.3270 N   0  0  0  0  0  0  0  0  0  0  0  0
    2.0890    1.7760   -1.3380 C   0  0  0  0  0  0  0  0  0  0  0  0
    1.2100    0.7840   -0.9320 C   0  0  0  0  0  0  0  0  0  0  0  0
   -0.0480    1.1350   -0.5040 C   0  0  0  0  0  0  0  0  0  0  0  0
    3.4080    1.4430   -1.7520 N   0  0  0  0  0  0  0  0  0  0  0  0
   -3.8880    2.1710    0.6150 C   0  0  0  0  0  0  0  0  0  0  0  0
   -4.2770    3.6290    0.5920 C   0  0  0  0  0  0  0  0  0  0  0  0
   -4.8220    1.2190    0.9300 C   0  0  0  0  0  0  0  0  0  0  0  0
   -4.4590   -0.1110    0.9460 C   0  0  0  0  0  0  0  0  0  0  0  0
   -5.3810   -0.9330    1.2420 O   0  0  0  0  0  0  0  0  0  0  0  0
   -3.1770   -0.5030    0.6570 C   0  0  0  0  0  0  0  0  0  0  0  0
  1  2  2  0
  2  3  1  0
  3  4  2  0
  5  3  1  1
  5  6  1  0
  5 29  1  0
  6  7  2  0
  7  8  1  0
  7 27  1  0
  8  9  2  0
  8 10  1  0
 10 11  1  0
 10 18  2  0
 11 12  2  0
 11 17  1  0
 12 13  1  0
 13 14  1  0
 14 15  1  0
 15 16  2  0
 15 17  1  0
 18 19  1  0
 18 28  1  0
 19 20  1  0
 19 35  2  0
 20 21  2  0
 20 30  1  0
 21 22  1  0
 22 23  1  0
 22 28  2  0
 23 24  2  0
 23 25  1  0
 25 26  1  0
 26 27  2  0
 26 29  1  0
 27 28  1  0
 30 31  1  0
 30 32  2  0
 32 33  1  0
 33 34  2  0
 33 35  1  0
M  END
