
     RDKit          3D

 35 37  0  0  0  0  0  0  0  0999 V2000
    3.6530   -2.7390    2.9800 C   0  0  0  0  0  0  0  0  0  0  0  0
    3.7590   -1.8240    1.9080 O   0  0  0  0  0  0  0  0  0  0  0  0
    2.6350   -1.5890    1.1340 C   0  0  0  0  0  0  0  0  0  0  0  0
    1.4380   -2.2270    1.3950 C   0  0  0  0  0  0  0  0  0  0  0  0
    0.3250   -1.9840    0.6160 C   0  0  0  0  0  0  0  0  0  0  0  0
   -0.8280   -2.6670    0.9460 O   0  0  0  0  0  0  0  0  0  0  0  0
   -0.9310   -3.5720    2.0050 C   0  0  0  0  0  0  0  0  0  0  0  0
    0.3790   -1.1050   -0.4340 C   0  0  0  0  0  0  0  0  0  0  0  0
   -0.9980   -0.7430   -1.4270 S   0  0  2  0  0  0  0  0  0  0  0  0
   -1.4990   -2.0200   -2.1100 O   0  0  0  0  0  0  0  0  0  0  0  0
   -0.5400    0.1190   -2.6010 O   0  0  0  0  0  0  0  0  0  0  0  0
   -2.2740    0.0590   -0.6320 N   0  0  0  0  0  0  0  0  0  0  0  0
   -2.2360    1.4780   -0.5920 C   0  0  0  0  0  0  0  0  0  0  0  0
   -2.8340    2.1770   -1.6110 C   0  0  0  0  0  0  0  0  0  0  0  0
   -2.8190    3.5670   -1.6100 C   0  0  0  0  0  0  0  0  0  0  0  0
   -2.1920    4.2410   -0.5670 C   0  0  0  0  0  0  0  0  0  0  0  0
   -1.5940    3.5470    0.4510 C   0  0  0  0  0  0  0  0  0  0  0  0
   -1.6200    2.1530    0.4310 C   0  0  0  0  0  0  0  0  0  0  0  0
   -3.3680   -0.5780   -0.0260 C   0  0  0  0  0  0  0  0  0  0  0  0
   -3.4510   -0.9590    1.2910 C   0  0  0  0  0  0  0  0  0  0  0  0
   -4.5660   -1.5600    1.8360 C   0  0  0  0  0  0  0  0  0  0  0  0
   -5.6830   -1.8170    1.0640 C   0  0  0  0  0  0  0  0  0  0  0  0
   -6.8470   -2.4360    1.5990 N   0  0  0  0  0  0  0  0  0  0  0  0
   -5.6270   -1.4450   -0.2640 C   0  0  0  0  0  0  0  0  0  0  0  0
   -4.5080   -0.8440   -0.7980 C   0  0  0  0  0  0  0  0  0  0  0  0
    1.6020   -0.4770   -0.6730 C   0  0  0  0  0  0  0  0  0  0  0  0
    2.7330   -0.6830    0.0700 C   0  0  0  0  0  0  0  0  0  0  0  0
    3.9650   -0.0550   -0.1650 N   0  0  0  0  0  0  0  0  0  0  0  0
    4.2890    0.8760   -1.1610 C   0  0  0  0  0  0  0  0  0  0  0  0
    3.4350    1.2480   -1.9840 O   0  0  0  0  0  0  0  0  0  0  0  0
    5.6700    1.4660   -1.2860 C   0  0  0  0  0  0  0  0  0  0  0  0
    5.7360    2.4540   -2.4170 C   0  0  0  0  0  0  0  0  0  0  0  0
    4.8060    3.5960   -2.2420 C   0  0  0  0  0  0  0  0  0  0  0  0
    4.0910    3.6690   -1.2310 O   0  0  0  0  0  0  0  0  0  0  0  0
    4.7670    4.5730   -3.2450 O   0  0  0  0  0  0  0  0  0  0  0  0
  1  2  1  0
  2  3  1  0
  3  4  2  0
  3 27  1  0
  4  5  1  0
  5  6  1  0
  5  8  2  0
  6  7  1  0
  8  9  1  0
  8 26  1  0
  9 10  2  0
  9 11  2  0
  9 12  1  1
 12 13  1  0
 12 19  1  0
 13 14  2  0
 13 18  1  0
 14 15  1  0
 15 16  2  0
 16 17  1  0
 17 18  2  0
 19 20  2  0
 19 25  1  0
 20 21  1  0
 21 22  2  0
 22 23  1  0
 22 24  1  0
 24 25  2  0
 26 27  2  0
 27 28  1  0
 28 29  1  0
 29 30  2  0
 29 31  1  0
 31 32  1  0
 32 33  1  0
 33 34  2  0
 33 35  1  0
M  END
