
     RDKit          3D

 35 41  0  0  0  0  0  0  0  0999 V2000
    3.8410   -3.5000   -1.6570 C   0  0  0  0  0  0  0  0  0  0  0  0
    4.2570   -2.1640   -1.5010 O   0  0  0  0  0  0  0  0  0  0  0  0
    3.3690   -1.2140   -1.0740 C   0  0  0  0  0  0  0  0  0  0  0  0
    3.7850    0.1130   -0.9200 C   0  0  0  0  0  0  0  0  0  0  0  0
    2.9180    1.0950   -0.4930 C   0  0  0  0  0  0  0  0  0  0  0  0
    3.3680    2.4720   -0.3380 C   0  0  0  0  0  0  0  0  0  0  0  0
    4.6360    2.9500   -0.5800 C   0  0  0  0  0  0  0  0  0  0  0  0
    4.6470    4.2960   -0.3150 C   0  0  0  0  0  0  0  0  0  0  0  0
    5.7390    5.1330   -0.4390 O   0  0  0  0  0  0  0  0  0  0  0  0
    3.3820    4.5850    0.0800 N   0  0  0  0  0  0  0  0  0  0  0  0
    2.6500    3.4950    0.0570 O   0  0  0  0  0  0  0  0  0  0  0  0
    1.6210    0.7190   -0.2230 C   0  0  0  0  0  0  0  0  0  0  0  0
    0.5440    1.4290    0.2060 C   0  0  0  0  0  0  0  0  0  0  0  0
   -0.5220    0.5670    0.3180 C   0  0  0  0  0  0  0  0  0  0  0  0
   -0.1100   -0.6410   -0.0330 N   0  0  0  0  0  0  0  0  0  0  0  0
    1.1900   -0.5850   -0.3680 C   0  0  0  0  0  0  0  0  0  0  0  0
    2.0650   -1.5600   -0.7960 C   0  0  0  0  0  0  0  0  0  0  0  0
   -1.0110   -1.7470   -0.0130 C   0  0  1  0  0  0  0  0  0  0  0  0
   -0.7770   -2.6380    1.1580 C   0  0  0  0  0  0  0  0  0  0  0  0
   -0.2970   -3.8490    1.1050 C   0  0  0  0  0  0  0  0  0  0  0  0
   -0.2220   -4.3870    2.4850 C   0  0  0  0  0  0  0  0  0  0  0  0
   -0.7240   -3.3100    3.2980 N   0  0  0  0  0  0  0  0  0  0  0  0
   -1.0430   -2.3100    2.5580 C   0  0  0  0  0  0  0  0  0  0  0  0
   -2.4360   -1.3980   -0.0740 C   0  0  0  0  0  0  0  0  0  0  0  0
   -2.8360   -0.1950    0.2790 C   0  0  0  0  0  0  0  0  0  0  0  0
   -4.2960   -0.1160    0.1230 C   0  0  0  0  0  0  0  0  0  0  0  0
   -5.0280    0.8330    0.4900 O   0  0  0  0  0  0  0  0  0  0  0  0
   -4.7900   -1.3510   -0.5480 C   0  0  0  0  0  0  0  0  0  0  0  0
   -3.5890   -2.2360   -0.4970 C   0  0  0  0  0  0  0  0  0  0  0  0
   -1.9110    0.8510    0.7450 C   0  0  2  0  0  0  0  0  0  0  0  0
   -2.2780    2.2020    0.2680 C   0  0  0  0  0  0  0  0  0  0  0  0
   -2.6470    3.2770    0.9510 C   0  0  0  0  0  0  0  0  0  0  0  0
   -2.8990    4.3670   -0.0380 C   0  0  0  0  0  0  0  0  0  0  0  0
   -2.0620    4.0070   -1.0910 O   0  0  0  0  0  0  0  0  0  0  0  0
   -2.2950    2.6150   -1.1610 C   0  0  0  0  0  0  0  0  0  0  0  0
  1  2  1  0
  2  3  1  0
  3  4  2  0
  3 17  1  0
  4  5  1  0
  5  6  1  0
  5 12  2  0
  6  7  2  0
  6 11  1  0
  7  8  1  0
  8  9  1  0
  8 10  2  0
 10 11  1  0
 12 13  1  0
 12 16  1  0
 13 14  2  0
 14 15  1  0
 14 30  1  0
 15 16  1  0
 15 18  1  0
 16 17  2  0
 18 19  1  1
 18 24  1  0
 19 20  2  0
 19 23  1  0
 20 21  1  0
 21 22  1  0
 22 23  2  0
 24 25  2  0
 24 29  1  0
 25 26  1  0
 25 30  1  0
 26 27  2  0
 26 28  1  0
 28 29  1  0
 30 31  1  6
 31 32  2  0
 31 35  1  0
 32 33  1  0
 33 34  1  0
 34 35  1  0
M  END
