
     RDKit          3D

 35 41  0  0  0  0  0  0  0  0999 V2000
   -7.4770    1.0290    2.9900 O   0  0  0  0  0  0  0  0  0  0  0  0
   -6.9590    1.3950    1.9130 C   0  0  0  0  0  0  0  0  0  0  0  0
   -5.5180    1.1400    1.7180 C   0  0  0  0  0  0  0  0  0  0  0  0
   -5.0350    1.3090    0.3370 C   0  0  1  0  0  0  0  0  0  0  0  0
   -4.0680    0.2280    0.0210 C   0  0  0  0  0  0  0  0  0  0  0  0
   -2.7020    0.4160    0.0700 C   0  0  0  0  0  0  0  0  0  0  0  0
   -1.8280   -0.6090   -0.2260 C   0  0  0  0  0  0  0  0  0  0  0  0
   -0.4650   -0.4050   -0.1730 C   0  0  0  0  0  0  0  0  0  0  0  0
    0.3630   -1.4650   -0.4780 C   0  0  0  0  0  0  0  0  0  0  0  0
    1.8040   -1.3810   -0.4590 C   0  0  0  0  0  0  0  0  0  0  0  0
    2.5510   -2.1410   -1.3110 C   0  0  0  0  0  0  0  0  0  0  0  0
    3.9280   -2.0830   -1.3160 C   0  0  0  0  0  0  0  0  0  0  0  0
    4.5960   -1.2310   -0.4360 C   0  0  0  0  0  0  0  0  0  0  0  0
    3.8470   -0.4600    0.4280 C   0  0  0  0  0  0  0  0  0  0  0  0
    2.4470   -0.5370    0.4140 C   0  0  0  0  0  0  0  0  0  0  0  0
    4.5540    0.4430    1.3650 C   0  0  0  0  0  0  0  0  0  0  0  0
    5.8190    1.0240    0.8230 C   0  0  0  0  0  0  0  0  0  0  0  0
    6.5140    0.1820   -0.1900 C   0  0  2  0  0  0  0  0  0  0  0  0
    7.9950    0.1070    0.1610 C   0  0  0  0  0  0  0  0  0  0  0  0
    8.5190    1.3610   -0.4550 C   0  0  0  0  0  0  0  0  0  0  0  0
    7.5390    1.8920   -1.2720 O   0  0  0  0  0  0  0  0  0  0  0  0
    6.6060    0.9230   -1.5300 C   0  0  0  0  0  0  0  0  0  0  0  0
    5.9590   -1.1050   -0.3680 O   0  0  0  0  0  0  0  0  0  0  0  0
   -0.2040   -2.6800   -0.8220 C   0  0  0  0  0  0  0  0  0  0  0  0
   -1.5400   -2.8320   -0.8600 N   0  0  0  0  0  0  0  0  0  0  0  0
   -2.3770   -1.8330   -0.5720 C   0  0  0  0  0  0  0  0  0  0  0  0
   -3.7440   -2.0320   -0.6230 C   0  0  0  0  0  0  0  0  0  0  0  0
   -4.2520   -3.1400   -0.9370 O   0  0  0  0  0  0  0  0  0  0  0  0
   -4.5360   -0.9880   -0.3230 N   0  0  0  0  0  0  0  0  0  0  0  0
   -5.9760   -1.1570   -0.3690 C   0  0  0  0  0  0  0  0  0  0  0  0
   -6.5010   -0.0230   -1.2300 C   0  0  0  0  0  0  0  0  0  0  0  0
   -6.0820    1.3300   -0.7280 C   0  0  1  0  0  0  0  0  0  0  0  0
   -7.2810    2.0880   -0.3780 C   0  0  0  0  0  0  0  0  0  0  0  0
   -7.8610    2.7830   -1.2320 O   0  0  0  0  0  0  0  0  0  0  0  0
   -7.7870    2.0320    0.9440 N   0  0  0  0  0  0  0  0  0  0  0  0
  1  2  2  0
  2  3  1  0
  2 35  1  0
  4  3  1  1
  4  5  1  0
  4 32  1  0
  5  6  2  0
  5 29  1  0
  6  7  1  0
  7  8  2  0
  7 26  1  0
  8  9  1  0
  9 10  1  0
  9 24  2  0
 10 11  2  0
 10 15  1  0
 11 12  1  0
 12 13  2  0
 13 14  1  0
 13 23  1  0
 14 15  2  0
 14 16  1  0
 16 17  1  0
 18 17  1  1
 18 19  1  0
 18 22  1  0
 18 23  1  0
 19 20  1  0
 20 21  1  0
 21 22  1  0
 24 25  1  0
 25 26  2  0
 26 27  1  0
 27 28  2  0
 27 29  1  0
 29 30  1  0
 30 31  1  0
 32 31  1  1
 32 33  1  0
 33 34  2  0
 33 35  1  0
M  END
