
     RDKit          3D

 10 10  0  0  0  0  0  0  0  0999 V2000
   -2.9740   -0.3180   -0.0420 C   0  0  0  0  0  0  0  0  0  0  0  0
   -1.8550   -1.1660   -0.2190 O   0  0  0  0  0  0  0  0  0  0  0  0
   -0.5960   -0.6060   -0.0590 C   0  0  0  0  0  0  0  0  0  0  0  0
    0.5170   -1.4070   -0.2250 C   0  0  0  0  0  0  0  0  0  0  0  0
    1.7820   -0.8570   -0.0680 C   0  0  0  0  0  0  0  0  0  0  0  0
    2.9050   -1.6770   -0.2380 O   0  0  0  0  0  0  0  0  0  0  0  0
    1.9780    0.4750    0.2520 C   0  0  0  0  0  0  0  0  0  0  0  0
    0.8490    1.2750    0.4160 C   0  0  0  0  0  0  0  0  0  0  0  0
    1.0360    2.6160    0.7380 O   0  0  0  0  0  0  0  0  0  0  0  0
   -0.4060    0.7130    0.2570 C   0  0  0  0  0  0  0  0  0  0  0  0
  1  2  1  0
  2  3  1  0
  3  4  2  0
  3 10  1  0
  4  5  1  0
  5  6  1  0
  5  7  2  0
  7  8  1  0
  8  9  1  0
  8 10  2  0
M  END
