
     RDKit          3D

  9  9  0  0  0  0  0  0  0  0999 V2000
    3.1850    0.2270    0.5690 O   0  0  0  0  0  0  0  0  0  0  0  0
    2.6300   -0.6210   -0.3710 C   0  0  0  0  0  0  0  0  0  0  0  0
    1.3620   -0.2300   -0.7780 O   0  0  0  0  0  0  0  0  0  0  0  0
    0.5320   -0.2140    0.3340 C   0  0  1  0  0  0  0  0  0  0  0  0
   -0.0020    1.1510    0.6080 C   0  0  0  0  0  0  0  0  0  0  0  0
   -1.3540    1.4570    0.1090 C   0  0  0  0  0  0  0  0  0  0  0  0
   -2.3250    0.3130    0.1170 C   0  0  0  0  0  0  0  0  0  0  0  0
   -1.6860   -0.8190   -0.6830 C   0  0  0  0  0  0  0  0  0  0  0  0
   -0.5140   -1.2750    0.1500 C   0  0  0  0  0  0  0  0  0  0  0  0
  1  2  1  0
  2  3  1  0
  4  3  1  6
  4  5  1  0
  4  9  1  0
  5  6  1  0
  6  7  1  0
  7  8  1  0
  8  9  1  0
M  END
