
     RDKit          3D

 10 10  0  0  0  0  0  0  0  0999 V2000
    3.6610   -0.2080   -0.2020 O   0  0  0  0  0  0  0  0  0  0  0  0
    2.3790   -0.7240    0.1050 C   0  0  0  0  0  0  0  0  0  0  0  0
    1.4600    0.4520    0.1900 C   0  0  0  0  0  0  0  0  0  0  0  0
    0.0440    0.1070    0.5090 C   0  0  2  0  0  0  0  0  0  0  0  0
   -0.0790   -0.5410    1.7270 O   0  0  0  0  0  0  0  0  0  0  0  0
   -0.6410   -0.7100   -0.5540 C   0  0  0  0  0  0  0  0  0  0  0  0
   -2.0690   -0.9520   -0.1330 C   0  0  0  0  0  0  0  0  0  0  0  0
   -2.5520   -0.0020    0.7390 O   0  0  0  0  0  0  0  0  0  0  0  0
   -2.1520    1.2540    0.2410 C   0  0  0  0  0  0  0  0  0  0  0  0
   -0.7110    1.4370    0.6580 C   0  0  0  0  0  0  0  0  0  0  0  0
  1  2  1  0
  2  3  1  0
  3  4  1  0
  4  5  1  1
  4  6  1  0
  4 10  1  0
  6  7  1  0
  7  8  1  0
  8  9  1  0
  9 10  1  0
M  END
