
     RDKit          3D

 10 10  0  0  0  0  0  0  0  0999 V2000
    2.9120    1.0270   -0.2170 C   0  0  0  0  0  0  0  0  0  0  0  0
    1.7640    0.0890   -0.0690 C   0  0  0  0  0  0  0  0  0  0  0  0
    1.8270   -1.2070    0.3950 C   0  0  0  0  0  0  0  0  0  0  0  0
    0.5310   -1.6720    0.3540 C   0  0  0  0  0  0  0  0  0  0  0  0
   -0.2640   -0.6420   -0.1330 C   0  0  0  0  0  0  0  0  0  0  0  0
   -1.7270   -0.6760   -0.3520 C   0  0  1  0  0  0  0  0  0  0  0  0
   -2.3190   -1.2710    0.7790 O   0  0  0  0  0  0  0  0  0  0  0  0
   -2.2690    0.7150   -0.5020 C   0  0  0  0  0  0  0  0  0  0  0  0
   -1.9780    1.4800    0.6260 O   0  0  0  0  0  0  0  0  0  0  0  0
    0.5060    0.3900   -0.3730 O   0  0  0  0  0  0  0  0  0  0  0  0
  1  2  1  0
  2  3  2  0
  2 10  1  0
  3  4  1  0
  4  5  2  0
  5  6  1  0
  5 10  1  0
  6  7  1  1
  6  8  1  0
  8  9  1  0
M  END
