
     RDKit          3D

 18 20  0  0  0  0  0  0  0  0999 V2000
   -1.1930    0.7800    1.6700 C   0  0  0  0  0  0  0  0  0  0  0  0
   -1.5370    0.6580    0.2330 C   0  0  2  0  0  0  0  0  0  0  0  0
   -0.5260    1.0240   -0.7610 C   0  0  0  0  0  0  0  0  0  0  0  0
    0.7430    0.3060   -0.7840 C   0  0  0  0  0  0  0  0  0  0  0  0
    1.0630   -0.4720   -1.7960 N   0  0  0  0  0  0  0  0  0  0  0  0
    2.3120   -1.0590   -1.6180 C   0  0  0  0  0  0  0  0  0  0  0  0
    2.9720   -1.8850   -2.3930 N   0  0  0  0  0  0  0  0  0  0  0  0
    2.8140   -0.5680   -0.3190 C   0  0  0  0  0  0  0  0  0  0  0  0
    3.8330   -0.6490    0.4960 C   0  0  0  0  0  0  0  0  0  0  0  0
    4.9870   -1.4100    0.2930 O   0  0  0  0  0  0  0  0  0  0  0  0
    3.6040    0.1810    1.6750 C   0  0  0  0  0  0  0  0  0  0  0  0
    2.2390    0.8010    1.4570 C   0  0  0  0  0  0  0  0  0  0  0  0
    1.7850    0.2890    0.1630 N   0  0  0  0  0  0  0  0  0  0  0  0
   -2.7090    1.6420   -0.0030 C   0  0  0  0  0  0  0  0  0  0  0  0
   -3.3060    1.1020   -1.2880 C   0  0  0  0  0  0  0  0  0  0  0  0
   -2.8940   -0.3400   -1.3910 C   0  0  0  0  0  0  0  0  0  0  0  0
   -2.2840   -0.6200   -0.0380 C   0  0  1  0  0  0  0  0  0  0  0  0
   -1.5290   -1.8010    0.0450 N   0  0  0  0  0  0  0  0  0  0  0  0
  2  1  1  1
  2  3  1  0
  2 14  1  0
  2 17  1  0
  3  4  1  0
  4  5  2  0
  4 13  1  0
  5  6  1  0
  6  7  2  0
  6  8  1  0
  8  9  2  0
  8 13  1  0
  9 10  1  0
  9 11  1  0
 11 12  1  0
 12 13  1  0
 14 15  1  0
 15 16  1  0
 16 17  1  0
 17 18  1  6
M  CHG  1  18   1
M  END
