
     RDKit          3D

 21 23  0  0  0  0  0  0  0  0999 V2000
   -0.4210   -0.0780   -1.7260 C   0  0  0  0  0  0  0  0  0  0  0  0
   -0.5500   -1.0370   -0.6210 N   0  0  2  0  0  0  0  0  0  0  0  0
    0.3820   -2.1280   -0.8910 C   0  0  0  0  0  0  0  0  0  0  0  0
    1.7360   -1.8690   -0.2820 C   0  0  1  0  0  0  0  0  0  0  0  0
    2.4470   -0.7740   -0.9890 C   0  0  0  0  0  0  0  0  0  0  0  0
    3.0060    0.2440   -0.3850 C   0  0  0  0  0  0  0  0  0  0  0  0
    3.7580    1.4380   -0.8770 C   0  0  0  0  0  0  0  0  0  0  0  0
    3.5380    2.4430    0.2590 C   0  0  0  0  0  0  0  0  0  0  0  0
    3.6480    1.5670    1.4620 C   0  0  0  0  0  0  0  0  0  0  0  0
    2.9360    0.3300    1.0670 C   0  0  0  0  0  0  0  0  0  0  0  0
    2.2980   -0.6410    1.7260 C   0  0  0  0  0  0  0  0  0  0  0  0
    1.7030   -1.7220    1.1010 O   0  0  0  0  0  0  0  0  0  0  0  0
   -1.8580   -1.5770   -0.5690 C   0  0  0  0  0  0  0  0  0  0  0  0
   -2.6600   -1.2170    0.6400 C   0  0  2  0  0  0  0  0  0  0  0  0
   -2.0630   -1.6280    1.9360 C   0  0  0  0  0  0  0  0  0  0  0  0
   -3.9340   -1.8250    0.5530 O   0  0  0  0  0  0  0  0  0  0  0  0
   -2.9310    0.2730    0.6820 C   0  0  2  0  0  0  0  0  0  0  0  0
   -3.6100    0.7070   -0.4710 O   0  0  0  0  0  0  0  0  0  0  0  0
   -3.5630    2.0980   -0.2790 C   0  0  0  0  0  0  0  0  0  0  0  0
   -2.1260    2.2780    0.1980 C   0  0  0  0  0  0  0  0  0  0  0  0
   -1.7980    1.0420    0.7630 O   0  0  0  0  0  0  0  0  0  0  0  0
  2  1  1  6
  2  3  1  0
  2 13  1  0
  4  3  1  6
  4  5  1  0
  4 12  1  0
  5  6  2  0
  6  7  1  0
  6 10  1  0
  7  8  1  0
  8  9  1  0
  9 10  1  0
 10 11  2  0
 11 12  1  0
 13 14  1  0
 14 15  1  1
 14 16  1  0
 14 17  1  0
 17 18  1  6
 17 21  1  0
 18 19  1  0
 19 20  1  0
 20 21  1  0
M  CHG  1   2   1
M  END
