
     RDKit          3D

 21 23  0  0  0  0  0  0  0  0999 V2000
    0.2930   -0.7430   -2.9240 O   0  0  0  0  0  0  0  0  0  0  0  0
    0.0120   -1.5540   -1.9820 C   0  0  0  0  0  0  0  0  0  0  0  0
   -0.3390   -2.9850   -2.2510 C   0  0  0  0  0  0  0  0  0  0  0  0
   -1.5140   -3.4150   -1.3960 C   0  0  0  0  0  0  0  0  0  0  0  0
   -2.1310   -2.1890   -0.7010 C   0  0  0  0  0  0  0  0  0  0  0  0
   -1.1130   -1.6540    0.2410 C   0  0  2  0  0  0  0  0  0  0  0  0
   -1.6040   -0.6880    1.1730 N   0  0  0  0  0  0  0  0  0  0  0  0
   -1.8650    0.6070    0.5980 C   0  0  1  0  0  0  0  0  0  0  0  0
   -3.2930    0.7820    0.1600 C   0  0  0  0  0  0  0  0  0  0  0  0
   -3.5760    2.2390    0.4640 C   0  0  0  0  0  0  0  0  0  0  0  0
   -2.7600    2.5460    1.5720 O   0  0  0  0  0  0  0  0  0  0  0  0
   -1.7410    1.6090    1.6910 C   0  0  0  0  0  0  0  0  0  0  0  0
   -0.8840    1.6720    2.6120 O   0  0  0  0  0  0  0  0  0  0  0  0
    0.0200   -1.1190   -0.5930 C   0  0  0  0  0  0  0  0  0  0  0  0
    0.9300   -0.3380   -0.1060 C   0  0  0  0  0  0  0  0  0  0  0  0
    2.0400    0.1900   -0.8660 C   0  0  0  0  0  0  0  0  0  0  0  0
    2.9480    1.0000   -0.2990 C   0  0  0  0  0  0  0  0  0  0  0  0
    2.9970    1.4800    1.1050 C   0  0  0  0  0  0  0  0  0  0  0  0
    4.4460    1.9010    1.2390 C   0  0  0  0  0  0  0  0  0  0  0  0
    4.7190    2.4590   -0.1590 C   0  0  0  0  0  0  0  0  0  0  0  0
    4.0220    1.5320   -0.9700 O   0  0  0  0  0  0  0  0  0  0  0  0
  1  2  2  0
  2  3  1  0
  2 14  1  0
  3  4  1  0
  4  5  1  0
  5  6  1  0
  6  7  1  6
  6 14  1  0
  8  7  1  1
  8  9  1  0
  8 12  1  0
  9 10  1  0
 10 11  1  0
 11 12  1  0
 12 13  2  0
 14 15  2  3
 15 16  1  0
 16 17  2  3
 17 18  1  0
 17 21  1  0
 18 19  1  0
 19 20  1  0
 20 21  1  0
M  CHG  1   7   1
M  END
