
     RDKit          3D

 18 20  0  0  0  0  0  0  0  0999 V2000
    5.4460   -0.1110   -0.2070 N   0  0  0  0  0  0  0  0  0  0  0  0
    4.3630   -0.9060   -0.8000 C   0  0  2  0  0  0  0  0  0  0  0  0
    3.2080   -0.0870   -1.1500 C   0  0  0  0  0  0  0  0  0  0  0  0
    2.1950   -0.4590   -0.3970 C   0  0  0  0  0  0  0  0  0  0  0  0
    0.8540    0.0810   -0.4030 N   0  0  0  0  0  0  0  0  0  0  0  0
    0.2980    0.4030    0.8900 C   0  0  0  0  0  0  0  0  0  0  0  0
   -1.0500    0.9430    0.8390 C   0  0  0  0  0  0  0  0  0  0  0  0
   -1.4500    2.1200    1.2700 C   0  0  0  0  0  0  0  0  0  0  0  0
   -2.8790    2.2820    1.0370 C   0  0  0  0  0  0  0  0  0  0  0  0
   -3.3630    1.2090    0.4630 C   0  0  0  0  0  0  0  0  0  0  0  0
   -4.6620    0.8360    0.0220 N   0  0  0  0  0  0  0  0  0  0  0  0
   -4.8270   -0.4260   -0.5670 C   0  0  0  0  0  0  0  0  0  0  0  0
   -6.0150   -0.7110   -0.9450 O   0  0  0  0  0  0  0  0  0  0  0  0
   -3.7380   -1.3730   -0.7500 C   0  0  0  0  0  0  0  0  0  0  0  0
   -2.4450   -0.9000   -0.2670 C   0  0  0  0  0  0  0  0  0  0  0  0
   -2.2580    0.2790    0.2900 C   0  0  0  0  0  0  0  0  0  0  0  0
    2.6520   -1.5300    0.4670 C   0  0  0  0  0  0  0  0  0  0  0  0
    3.8710   -1.7700    0.2290 N   0  0  0  0  0  0  0  0  0  0  0  0
  2  1  1  1
  2  3  1  0
  2 18  1  0
  3  4  2  0
  4  5  1  0
  4 17  1  0
  5  6  1  0
  6  7  1  0
  7  8  2  0
  7 16  1  0
  8  9  1  0
  9 10  2  0
 10 11  1  0
 10 16  1  0
 11 12  1  0
 12 13  2  0
 12 14  1  0
 14 15  1  0
 15 16  2  0
 17 18  2  0
M  CHG  1   1   1
M  END
