
     RDKit          3D

 21 22  0  0  0  0  0  0  0  0999 V2000
   -3.8600   -0.2890   -0.4920 C   0  0  0  0  0  0  0  0  0  0  0  0
   -2.3660    0.0340   -0.2310 C   0  0  1  0  0  0  0  0  0  0  0  0
   -2.3480    1.1580    0.7260 C   0  0  0  0  0  0  0  0  0  0  0  0
   -1.8950    2.4690    0.0580 C   0  0  0  0  0  0  0  0  0  0  0  0
   -0.6340    3.0020    0.7090 C   0  0  0  0  0  0  0  0  0  0  0  0
   -0.9220    3.3970    1.9040 O   0  0  0  0  0  0  0  0  0  0  0  0
    0.4500    2.9810    0.0260 O   0  0  0  0  0  0  0  0  0  0  0  0
    1.4670    2.8810   -0.7650 C   0  0  0  0  0  0  0  0  0  0  0  0
    2.2850    1.8530   -1.0450 C   0  0  0  0  0  0  0  0  0  0  0  0
    2.1890    0.5270   -0.4700 C   0  0  0  0  0  0  0  0  0  0  0  0
    3.1030   -0.4070   -0.5830 C   0  0  0  0  0  0  0  0  0  0  0  0
    4.3950    0.0390   -0.8240 O   0  0  0  0  0  0  0  0  0  0  0  0
    5.2760    0.3290    0.2100 C   0  0  0  0  0  0  0  0  0  0  0  0
    4.8520    0.1700    1.3840 O   0  0  0  0  0  0  0  0  0  0  0  0
    2.7950   -1.8620   -0.4630 C   0  0  0  0  0  0  0  0  0  0  0  0
    1.2750   -2.0520   -0.4500 C   0  0  0  0  0  0  0  0  0  0  0  0
    0.7430   -1.2140    0.6270 C   0  0  1  0  0  0  0  0  0  0  0  0
    0.9530    0.2270    0.2920 C   0  0  0  0  0  0  0  0  0  0  0  0
   -0.6500   -1.3620    0.9810 N   0  0  0  0  0  0  0  0  0  0  0  0
   -1.6000   -1.1870   -0.0370 C   0  0  1  0  0  0  0  0  0  0  0  0
   -2.5990   -2.3640    0.0850 C   0  0  0  0  0  0  0  0  0  0  0  0
  2  1  1  1
  2  3  1  0
  2 20  1  0
  3  4  1  0
  4  5  1  0
  5  6  2  0
  5  7  1  0
  7  8  1  0
  8  9  2  0
  9 10  1  0
 10 11  2  0
 10 18  1  0
 11 12  1  0
 11 15  1  0
 12 13  1  0
 13 14  2  0
 15 16  1  0
 17 16  1  6
 17 18  1  0
 17 19  1  0
 19 20  1  0
 20 21  1  1
M  CHG  1  19   1
M  END
