
     RDKit          3D

 18 20  0  0  0  0  0  0  0  0999 V2000
   -4.7940    2.0780   -0.5320 C   0  0  0  0  0  0  0  0  0  0  0  0
   -3.5560    1.2700   -0.7150 C   0  0  0  0  0  0  0  0  0  0  0  0
   -3.1400    0.2810    0.1560 C   0  0  0  0  0  0  0  0  0  0  0  0
   -1.9640   -0.2530   -0.3210 C   0  0  0  0  0  0  0  0  0  0  0  0
   -1.2120   -1.3400    0.3190 C   0  0  2  0  0  0  0  0  0  0  0  0
    0.2380   -1.1430    0.4580 C   0  0  0  0  0  0  0  0  0  0  0  0
    0.9260   -2.0750    0.9900 O   0  0  0  0  0  0  0  0  0  0  0  0
    0.8340    0.0540    0.0080 N   0  0  0  0  0  0  0  0  0  0  0  0
    2.2710    0.2050    0.1640 C   0  0  0  0  0  0  0  0  0  0  0  0
    2.9720    0.3830   -0.9230 C   0  0  0  0  0  0  0  0  0  0  0  0
    4.4320    0.5490   -0.9000 C   0  0  0  0  0  0  0  0  0  0  0  0
    5.0260    0.4970    0.4440 C   0  0  0  0  0  0  0  0  0  0  0  0
    4.1230    0.2920    1.5790 C   0  0  0  0  0  0  0  0  0  0  0  0
    2.8570    0.1590    1.4390 N   0  0  0  0  0  0  0  0  0  0  0  0
   -1.6660   -2.7500    0.1900 C   0  0  0  0  0  0  0  0  0  0  0  0
   -1.9480   -2.0260    1.4800 C   0  0  0  0  0  0  0  0  0  0  0  0
   -1.7210    0.4310   -1.4540 N   0  0  0  0  0  0  0  0  0  0  0  0
   -2.6490    1.3290   -1.6970 N   0  0  0  0  0  0  0  0  0  0  0  0
  1  2  1  0
  2  3  2  0
  2 18  1  0
  3  4  1  0
  4  5  1  0
  4 17  2  0
  5  6  1  1
  5 15  1  0
  5 16  1  0
  6  7  2  0
  6  8  1  0
  8  9  1  0
  9 10  2  0
  9 14  1  0
 10 11  1  0
 11 12  1  0
 12 13  1  0
 13 14  2  0
 15 16  1  0
 17 18  1  0
M  END
