
     RDKit          3D

 18 20  0  0  0  0  0  0  0  0999 V2000
   -4.7170    0.5480    1.0290 C   0  0  0  0  0  0  0  0  0  0  0  0
   -3.4440    0.8090    0.8100 C   0  0  0  0  0  0  0  0  0  0  0  0
   -2.7110   -0.1340   -0.0640 C   0  0  0  0  0  0  0  0  0  0  0  0
   -1.3370    0.0990   -0.3330 N   0  0  0  0  0  0  0  0  0  0  0  0
   -0.3720   -0.9690   -0.2830 C   0  0  0  0  0  0  0  0  0  0  0  0
    0.9570   -0.4430   -0.7860 C   0  0  0  0  0  0  0  0  0  0  0  0
    1.3670    0.7550   -0.1370 N   0  0  0  0  0  0  0  0  0  0  0  0
    2.4030    0.6110    0.8330 C   0  0  0  0  0  0  0  0  0  0  0  0
    3.6110    0.0710    0.1420 C   0  0  0  0  0  0  0  0  0  0  0  0
    3.8560   -0.1080   -1.2030 C   0  0  0  0  0  0  0  0  0  0  0  0
    5.0940   -0.6330   -1.3630 N   0  0  0  0  0  0  0  0  0  0  0  0
    5.6440   -0.7930   -0.1770 N   0  0  0  0  0  0  0  0  0  0  0  0
    4.7810   -0.3790    0.7660 C   0  0  0  0  0  0  0  0  0  0  0  0
    0.3480    1.6870    0.2010 C   0  0  0  0  0  0  0  0  0  0  0  0
   -0.8640    1.4180   -0.6660 C   0  0  0  0  0  0  0  0  0  0  0  0
   -3.3080   -1.1780   -0.5920 C   0  0  0  0  0  0  0  0  0  0  0  0
   -4.7210   -1.4600   -0.3440 C   0  0  0  0  0  0  0  0  0  0  0  0
   -5.3310   -0.5340    0.4800 O   0  0  0  0  0  0  0  0  0  0  0  0
  1  2  2  0
  1 18  1  0
  2  3  1  0
  3  4  1  0
  3 16  2  0
  4  5  1  0
  4 15  1  0
  5  6  1  0
  6  7  1  0
  7  8  1  0
  7 14  1  0
  8  9  1  0
  9 10  1  0
  9 13  2  0
 10 11  2  0
 11 12  1  0
 12 13  1  0
 14 15  1  0
 16 17  1  0
 17 18  1  0
M  END
