
     RDKit          3D

 18 20  0  0  0  0  0  0  0  0999 V2000
   -4.9660    0.8520   -0.4350 C   0  0  0  0  0  0  0  0  0  0  0  0
   -3.7950    1.2240    0.0000 C   0  0  0  0  0  0  0  0  0  0  0  0
   -3.3080    2.5180    0.3570 N   0  0  0  0  0  0  0  0  0  0  0  0
   -1.9530    2.4210    0.7640 N   0  0  0  0  0  0  0  0  0  0  0  0
   -1.5700    1.1610    0.6800 C   0  0  0  0  0  0  0  0  0  0  0  0
   -0.2480    0.6960    1.0120 N   0  0  0  0  0  0  0  0  0  0  0  0
    0.3180   -0.5950    0.4900 C   0  0  2  0  0  0  0  0  0  0  0  0
    1.7440   -0.2620    0.2490 C   0  0  0  0  0  0  0  0  0  0  0  0
    2.3660    0.9320    0.0120 C   0  0  0  0  0  0  0  0  0  0  0  0
    3.7280    0.7370    0.0080 C   0  0  0  0  0  0  0  0  0  0  0  0
    4.7310    1.7890   -0.2150 C   0  0  0  0  0  0  0  0  0  0  0  0
    3.9220   -0.5550    0.2370 O   0  0  0  0  0  0  0  0  0  0  0  0
    2.7950   -1.1850    0.3830 C   0  0  0  0  0  0  0  0  0  0  0  0
    2.6060   -2.6150    0.6350 C   0  0  0  0  0  0  0  0  0  0  0  0
   -0.2930   -0.6800   -0.9010 C   0  0  0  0  0  0  0  0  0  0  0  0
   -1.5500   -1.4630   -0.9470 C   0  0  0  0  0  0  0  0  0  0  0  0
   -2.6410   -1.0610   -0.0090 C   0  0  0  0  0  0  0  0  0  0  0  0
   -2.6730    0.3730    0.2130 N   0  0  0  0  0  0  0  0  0  0  0  0
  1  2  2  0
  2  3  1  0
  2 18  1  0
  3  4  1  0
  4  5  2  0
  5  6  1  0
  5 18  1  0
  6  7  1  0
  7  8  1  6
  7 15  1  0
  8  9  1  0
  8 13  2  0
  9 10  2  0
 10 11  1  0
 10 12  1  0
 12 13  1  0
 13 14  1  0
 15 16  1  0
 16 17  1  0
 17 18  1  0
M  END
