
     RDKit          3D

 18 20  0  0  0  0  0  0  0  0999 V2000
   -2.0940    2.0630    1.8090 C   0  0  0  0  0  0  0  0  0  0  0  0
   -2.7690    0.8840    1.2640 N   0  0  0  0  0  0  0  0  0  0  0  0
   -4.0710    0.6040    1.4470 C   0  0  0  0  0  0  0  0  0  0  0  0
   -4.3110   -0.5720    0.7830 C   0  0  0  0  0  0  0  0  0  0  0  0
   -3.1480   -1.0110    0.1930 C   0  0  0  0  0  0  0  0  0  0  0  0
   -2.7540   -2.0810   -0.5780 C   0  0  0  0  0  0  0  0  0  0  0  0
   -1.4830   -2.1950   -0.9960 N   0  0  0  0  0  0  0  0  0  0  0  0
   -0.5220   -1.2700   -0.6860 C   0  0  0  0  0  0  0  0  0  0  0  0
    0.7850   -1.4760   -1.1710 N   0  0  0  0  0  0  0  0  0  0  0  0
    1.9110   -0.6540   -0.9700 C   0  0  0  0  0  0  0  0  0  0  0  0
    3.1340   -1.0340   -1.5410 C   0  0  0  0  0  0  0  0  0  0  0  0
    4.2650   -0.2650   -1.3740 C   0  0  0  0  0  0  0  0  0  0  0  0
    4.2690    0.8980   -0.6550 C   0  0  0  0  0  0  0  0  0  0  0  0
    5.4420    1.6260   -0.5250 O   0  0  0  0  0  0  0  0  0  0  0  0
    3.0820    1.2850   -0.0890 C   0  0  0  0  0  0  0  0  0  0  0  0
    1.9260    0.5060   -0.2560 C   0  0  0  0  0  0  0  0  0  0  0  0
   -0.9400   -0.2470    0.0620 N   0  0  0  0  0  0  0  0  0  0  0  0
   -2.1810   -0.0690    0.5120 C   0  0  0  0  0  0  0  0  0  0  0  0
  1  2  1  0
  2  3  1  0
  2 18  1  0
  3  4  2  0
  4  5  1  0
  5  6  2  0
  5 18  1  0
  6  7  1  0
  7  8  2  0
  8  9  1  0
  8 17  1  0
  9 10  1  0
 10 11  2  0
 10 16  1  0
 11 12  1  0
 12 13  2  0
 13 14  1  0
 13 15  1  0
 15 16  2  0
 17 18  2  0
M  END
