
     RDKit          3D

 18 20  0  0  0  0  0  0  0  0999 V2000
   -3.3940   -0.1680   -1.0450 C   0  0  0  0  0  0  0  0  0  0  0  0
   -3.4540    0.2260    0.3960 C   0  0  0  0  0  0  0  0  0  0  0  0
   -4.4770    0.8350    1.0430 N   0  0  0  0  0  0  0  0  0  0  0  0
   -4.1710    0.9940    2.3330 C   0  0  0  0  0  0  0  0  0  0  0  0
   -2.9160    0.4670    2.4950 C   0  0  0  0  0  0  0  0  0  0  0  0
   -2.4320   -0.0310    1.2760 C   0  0  0  0  0  0  0  0  0  0  0  0
   -1.1080   -0.5950    1.0900 C   0  0  0  0  0  0  0  0  0  0  0  0
   -0.7040   -1.5770    1.7490 O   0  0  0  0  0  0  0  0  0  0  0  0
   -0.2040   -0.0040    0.1050 N   0  0  0  0  0  0  0  0  0  0  0  0
    1.0960   -0.5200   -0.1290 C   0  0  1  0  0  0  0  0  0  0  0  0
    1.3220   -0.9990   -1.5490 C   0  0  0  0  0  0  0  0  0  0  0  0
    2.6920   -1.6480   -1.6000 C   0  0  0  0  0  0  0  0  0  0  0  0
    3.6180   -1.1990   -0.5110 C   0  0  0  0  0  0  0  0  0  0  0  0
    3.3920    0.1690   -0.0880 N   0  0  0  0  0  0  0  0  0  0  0  0
    4.1480    1.2100    0.1680 N   0  0  0  0  0  0  0  0  0  0  0  0
    3.3810    2.2960    0.5290 C   0  0  0  0  0  0  0  0  0  0  0  0
    2.0630    1.8640    0.4810 C   0  0  0  0  0  0  0  0  0  0  0  0
    2.1170    0.5350    0.0960 C   0  0  0  0  0  0  0  0  0  0  0  0
  1  2  1  0
  2  3  1  0
  2  6  2  0
  3  4  1  0
  4  5  2  0
  5  6  1  0
  6  7  1  0
  7  8  2  0
  7  9  1  0
 10  9  1  6
 10 11  1  0
 10 18  1  0
 11 12  1  0
 12 13  1  0
 13 14  1  0
 14 15  1  0
 14 18  1  0
 15 16  2  0
 16 17  1  0
 17 18  2  0
M  END
