
     RDKit          3D

 18 19  0  0  0  0  0  0  0  0999 V2000
    4.9730    1.2350   -0.2950 C   0  0  0  0  0  0  0  0  0  0  0  0
    5.0150   -0.1600    0.2890 C   0  0  0  0  0  0  0  0  0  0  0  0
    4.5130   -1.1950   -0.6890 C   0  0  0  0  0  0  0  0  0  0  0  0
    3.0900   -0.9420   -1.1070 C   0  0  0  0  0  0  0  0  0  0  0  0
    2.1810   -0.9610    0.0180 N   0  0  0  0  0  0  0  0  0  0  0  0
    0.8020   -0.7350   -0.2410 C   0  0  0  0  0  0  0  0  0  0  0  0
    0.4190   -0.5290   -1.4190 O   0  0  0  0  0  0  0  0  0  0  0  0
   -0.1440   -0.7390    0.8030 N   0  0  0  0  0  0  0  0  0  0  0  0
   -1.5460   -0.5140    0.5800 C   0  0  0  0  0  0  0  0  0  0  0  0
   -2.4610   -1.4160    0.8970 C   0  0  0  0  0  0  0  0  0  0  0  0
   -3.9060   -1.2240    0.6850 C   0  0  0  0  0  0  0  0  0  0  0  0
   -4.2360    0.0360    0.1010 N   0  0  0  0  0  0  0  0  0  0  0  0
   -5.6010    0.3360   -0.1520 C   0  0  0  0  0  0  0  0  0  0  0  0
   -5.9820    1.4510   -0.6770 N   0  0  0  0  0  0  0  0  0  0  0  0
   -5.0230    2.4570   -1.0360 C   0  0  0  0  0  0  0  0  0  0  0  0
   -3.7370    2.2610   -0.8360 C   0  0  0  0  0  0  0  0  0  0  0  0
   -3.2700    1.0200   -0.2480 C   0  0  0  0  0  0  0  0  0  0  0  0
   -2.0090    0.7360   -0.0110 C   0  0  0  0  0  0  0  0  0  0  0  0
  1  2  1  0
  2  3  1  0
  3  4  1  0
  4  5  1  0
  5  6  1  0
  6  7  2  0
  6  8  1  0
  8  9  1  0
  9 10  2  0
  9 18  1  0
 10 11  1  0
 11 12  1  0
 12 13  1  0
 12 17  1  0
 13 14  2  0
 14 15  1  0
 15 16  2  0
 16 17  1  0
 17 18  2  0
M  END
