
     RDKit          3D

 29 33  0  0  0  0  0  0  0  0999 V2000
    7.3060   -2.7340    0.2390 N   0  0  0  0  0  0  0  0  0  0  0  0
    6.9320   -1.3750    0.2120 C   0  0  0  0  0  0  0  0  0  0  0  0
    7.8420   -0.5180    0.1980 O   0  0  0  0  0  0  0  0  0  0  0  0
    5.5250   -1.0500    0.2020 C   0  0  0  0  0  0  0  0  0  0  0  0
    5.1370    0.2820    0.1770 C   0  0  0  0  0  0  0  0  0  0  0  0
    3.8060    0.6400    0.1680 C   0  0  0  0  0  0  0  0  0  0  0  0
    2.8260   -0.3230    0.1820 C   0  0  0  0  0  0  0  0  0  0  0  0
    1.4210    0.0570    0.1720 C   0  0  0  0  0  0  0  0  0  0  0  0
    0.3910   -0.7940    0.1840 N   0  0  0  0  0  0  0  0  0  0  0  0
   -0.7810   -0.0900    0.1690 C   0  0  0  0  0  0  0  0  0  0  0  0
   -2.1370   -0.6210    0.1770 C   0  0  0  0  0  0  0  0  0  0  0  0
   -3.0020   -0.4270    1.2400 C   0  0  0  0  0  0  0  0  0  0  0  0
   -4.2890   -0.9350    1.2320 C   0  0  0  0  0  0  0  0  0  0  0  0
   -4.7230   -1.6510    0.1410 C   0  0  0  0  0  0  0  0  0  0  0  0
   -3.8990   -1.8700   -0.9400 C   0  0  0  0  0  0  0  0  0  0  0  0
   -2.6280   -1.3460   -0.8870 C   0  0  0  0  0  0  0  0  0  0  0  0
   -4.6090   -2.6180   -1.8790 O   0  0  0  0  0  0  0  0  0  0  0  0
   -5.7120   -3.1830   -1.1950 C   0  0  0  0  0  0  0  0  0  0  0  0
   -5.9320   -2.2720   -0.1530 O   0  0  0  0  0  0  0  0  0  0  0  0
   -0.4450    1.2440    0.1480 C   0  0  0  0  0  0  0  0  0  0  0  0
   -1.3350    2.3950    0.1240 C   0  0  0  0  0  0  0  0  0  0  0  0
   -1.2970    3.2570   -0.9540 C   0  0  0  0  0  0  0  0  0  0  0  0
   -2.1050    4.3650   -1.0430 C   0  0  0  0  0  0  0  0  0  0  0  0
   -2.9780    4.5980    0.0000 C   0  0  0  0  0  0  0  0  0  0  0  0
   -3.0130    3.7330    1.0780 C   0  0  0  0  0  0  0  0  0  0  0  0
   -2.2040    2.6740    1.1090 N   0  0  0  0  0  0  0  0  0  0  0  0
    0.9210    1.2850    0.1510 N   0  0  0  0  0  0  0  0  0  0  0  0
    3.1910   -1.6710    0.2070 C   0  0  0  0  0  0  0  0  0  0  0  0
    4.5270   -1.9910    0.2160 C   0  0  0  0  0  0  0  0  0  0  0  0
  1  2  1  0
  2  3  2  0
  2  4  1  0
  4  5  2  0
  4 29  1  0
  5  6  1  0
  6  7  2  0
  7  8  1  0
  7 28  1  0
  8  9  2  0
  8 27  1  0
  9 10  1  0
 10 11  1  0
 10 20  2  0
 11 12  2  0
 11 16  1  0
 12 13  1  0
 13 14  2  0
 14 15  1  0
 14 19  1  0
 15 16  2  0
 15 17  1  0
 17 18  1  0
 18 19  1  0
 20 21  1  0
 20 27  1  0
 21 22  2  0
 21 26  1  0
 22 23  1  0
 23 24  2  0
 24 25  1  0
 25 26  2  0
 28 29  2  0
M  END
