
     RDKit          3D

 30 33  0  0  0  0  0  0  0  0999 V2000
    6.1510   -0.5960    0.8830 C   0  0  0  0  0  0  0  0  0  0  0  0
    5.3350    0.1420    0.1980 C   0  0  0  0  0  0  0  0  0  0  0  0
    5.9040    0.8460   -0.9780 C   0  0  0  0  0  0  0  0  0  0  0  0
    7.1740    0.7200   -1.2830 N   0  0  0  0  0  0  0  0  0  0  0  0
    4.9910    1.6660   -1.7480 C   0  0  0  0  0  0  0  0  0  0  0  0
    3.7210    1.7860   -1.4300 C   0  0  0  0  0  0  0  0  0  0  0  0
    2.7350    2.8160   -2.4570 Cl  0  0  0  0  0  0  0  0  0  0  0  0
    3.1060    1.1010   -0.2590 C   0  0  0  0  0  0  0  0  0  0  0  0
    1.7350    1.3400   -0.0420 N   0  0  0  0  0  0  0  0  0  0  0  0
    0.7230    0.5400    0.4010 N   0  0  0  0  0  0  0  0  0  0  0  0
   -0.3480    0.1600   -0.4620 C   0  0  0  0  0  0  0  0  0  0  0  0
   -0.2880    0.6000   -1.6420 O   0  0  0  0  0  0  0  0  0  0  0  0
   -1.4940   -0.6840   -0.0800 C   0  0  1  0  0  0  0  0  0  0  0  0
   -2.6250    0.1010    0.4500 N   0  0  0  0  0  0  0  0  0  0  0  0
   -3.0120    1.2150   -0.3270 C   0  0  1  0  0  0  0  0  0  0  0  0
   -4.3650    1.0950   -1.0010 C   0  0  0  0  0  0  0  0  0  0  0  0
   -5.4160    0.4590   -0.1440 C   0  0  0  0  0  0  0  0  0  0  0  0
   -5.4210    1.2630    1.4920 S   0  0  0  0  0  0  0  0  0  0  0  0
   -4.1430    2.5020    1.4390 C   0  0  0  0  0  0  0  0  0  0  0  0
   -4.0080    3.6270    2.1610 N   0  0  0  0  0  0  0  0  0  0  0  0
   -2.8830    4.1880    1.7480 N   0  0  0  0  0  0  0  0  0  0  0  0
   -2.3600    3.4300    0.8150 N   0  0  0  0  0  0  0  0  0  0  0  0
   -3.1200    2.3620    0.5900 N   0  0  0  0  0  0  0  0  0  0  0  0
   -2.0700   -1.4580   -1.2560 C   0  0  0  0  0  0  0  0  0  0  0  0
   -1.8020   -2.9210   -1.2160 C   0  0  0  0  0  0  0  0  0  0  0  0
   -0.4210   -3.2320   -0.7080 C   0  0  0  0  0  0  0  0  0  0  0  0
   -0.3240   -2.7880    0.7170 C   0  0  0  0  0  0  0  0  0  0  0  0
   -1.1710   -1.6290    1.0860 C   0  0  0  0  0  0  0  0  0  0  0  0
    3.9100    0.3450    0.4670 C   0  0  0  0  0  0  0  0  0  0  0  0
    3.3110   -0.3080    1.6580 C   0  0  0  0  0  0  0  0  0  0  0  0
  1  2  2  0
  2  3  1  0
  2 29  1  0
  3  4  2  0
  3  5  1  0
  5  6  2  0
  6  7  1  0
  6  8  1  0
  8  9  1  0
  8 29  2  0
  9 10  1  0
 10 11  1  0
 11 12  2  0
 11 13  1  0
 13 14  1  1
 13 24  1  0
 13 28  1  0
 15 14  1  1
 15 16  1  0
 15 23  1  0
 16 17  1  0
 17 18  1  0
 18 19  1  0
 19 20  2  0
 19 23  1  0
 20 21  1  0
 21 22  2  0
 22 23  1  0
 24 25  1  0
 25 26  1  0
 26 27  1  0
 27 28  1  0
 29 30  1  0
M  CHG  1  14   1
M  END
