
     RDKit          3D

 29 31  0  0  0  0  0  0  0  0999 V2000
   -3.6120   -4.5960   -0.1770 C   0  0  0  0  0  0  0  0  0  0  0  0
   -4.3110   -3.4910    0.0300 C   0  0  0  0  0  0  0  0  0  0  0  0
   -3.9870   -2.5680    1.1780 C   0  0  0  0  0  0  0  0  0  0  0  0
   -3.6330   -1.2450    0.6330 C   0  0  0  0  0  0  0  0  0  0  0  0
   -2.2810   -0.8960    0.4870 C   0  0  0  0  0  0  0  0  0  0  0  0
   -1.9510    0.3210   -0.0960 C   0  0  0  0  0  0  0  0  0  0  0  0
   -0.4910    0.6250   -0.3370 C   0  0  1  0  0  0  0  0  0  0  0  0
   -0.2840    2.0310   -0.8000 C   0  0  0  0  0  0  0  0  0  0  0  0
   -0.6630    3.1200    0.1300 C   0  0  0  0  0  0  0  0  0  0  0  0
   -0.4250    4.3330   -0.5240 O   0  0  0  0  0  0  0  0  0  0  0  0
   -0.7220    5.4480    0.2110 C   0  0  0  0  0  0  0  0  0  0  0  0
    0.3670    0.2990    0.8500 C   0  0  0  0  0  0  0  0  0  0  0  0
    1.5930   -0.4840    0.6030 C   0  0  0  0  0  0  0  0  0  0  0  0
    2.1620   -0.4530   -0.7070 N   0  0  0  0  0  0  0  0  0  0  0  0
    3.5440   -0.4780   -0.9040 C   0  0  0  0  0  0  0  0  0  0  0  0
    3.9150   -0.5180   -2.1590 O   0  0  0  0  0  0  0  0  0  0  0  0
    4.6460   -0.4610    0.0100 C   0  0  0  0  0  0  0  0  0  0  0  0
    5.3220    0.6900    0.4650 C   0  0  0  0  0  0  0  0  0  0  0  0
    4.9740    2.0550    0.0180 C   0  0  0  0  0  0  0  0  0  0  0  0
    6.2630    0.2350    1.2960 N   0  0  0  0  0  0  0  0  0  0  0  0
    6.2200   -1.0800    1.3860 N   0  0  0  0  0  0  0  0  0  0  0  0
    5.2330   -1.5680    0.6080 C   0  0  0  0  0  0  0  0  0  0  0  0
    4.8700   -2.9900    0.4630 C   0  0  0  0  0  0  0  0  0  0  0  0
    1.2780   -0.3730   -1.8610 C   0  0  0  0  0  0  0  0  0  0  0  0
   -0.1320   -0.3100   -1.4990 C   0  0  0  0  0  0  0  0  0  0  0  0
   -2.9430    1.1610   -0.5160 C   0  0  0  0  0  0  0  0  0  0  0  0
   -4.3030    0.8380   -0.3790 C   0  0  0  0  0  0  0  0  0  0  0  0
   -4.5940   -0.3840    0.2050 C   0  0  0  0  0  0  0  0  0  0  0  0
   -6.0370   -0.7440    0.3360 C   0  0  0  0  0  0  0  0  0  0  0  0
  1  2  2  0
  2  3  1  0
  3  4  1  0
  4  5  2  0
  4 28  1  0
  5  6  1  0
  6  7  1  0
  6 26  2  0
  7  8  1  6
  7 12  1  0
  7 25  1  0
  8  9  1  0
  9 10  1  0
 10 11  1  0
 12 13  1  0
 13 14  1  0
 14 15  1  0
 14 24  1  0
 15 16  2  0
 15 17  1  0
 17 18  1  0
 17 22  2  0
 18 19  1  0
 18 20  2  0
 20 21  1  0
 21 22  1  0
 22 23  1  0
 24 25  1  0
 26 27  1  0
 27 28  2  0
 28 29  1  0
M  END
