
     RDKit          3D

 29 31  0  0  0  0  0  0  0  0999 V2000
   -3.6800   -3.4730   -0.2870 C   0  0  0  0  0  0  0  0  0  0  0  0
   -4.1520   -2.1720   -0.4810 C   0  0  0  0  0  0  0  0  0  0  0  0
   -3.5410   -1.1360    0.1840 C   0  0  0  0  0  0  0  0  0  0  0  0
   -3.2810    0.0440    0.5790 C   0  0  0  0  0  0  0  0  0  0  0  0
   -2.1380    0.1400    1.5440 N   0  0  0  0  0  0  0  0  0  0  0  0
   -1.7190    1.2010    2.0510 C   0  0  0  0  0  0  0  0  0  0  0  0
   -0.5610    1.1320    3.0040 C   0  0  0  0  0  0  0  0  0  0  0  0
    0.5940    1.9310    2.5170 C   0  0  0  0  0  0  0  0  0  0  0  0
    1.1650    1.5450    1.2030 C   0  0  0  0  0  0  0  0  0  0  0  0
    1.6860    0.1670    1.2090 C   0  0  0  0  0  0  0  0  0  0  0  0
    1.7110   -0.5020    2.2710 O   0  0  0  0  0  0  0  0  0  0  0  0
    2.1590   -0.3850   -0.0110 N   0  0  0  0  0  0  0  0  0  0  0  0
    2.1330    0.3770   -1.2310 C   0  0  0  0  0  0  0  0  0  0  0  0
    2.6900   -0.4070   -2.3990 C   0  0  0  0  0  0  0  0  0  0  0  0
    4.0790   -0.9380   -2.0120 C   0  0  0  0  0  0  0  0  0  0  0  0
    3.9860   -1.6710   -0.7290 C   0  0  0  0  0  0  0  0  0  0  0  0
    5.0600   -2.2420   -0.2370 C   0  0  0  0  0  0  0  0  0  0  0  0
    6.3540   -2.2000   -0.8790 C   0  0  0  0  0  0  0  0  0  0  0  0
    7.5230   -2.8650   -0.2700 C   0  0  0  0  0  0  0  0  0  0  0  0
    6.5130   -1.5950   -1.9730 O   0  0  0  0  0  0  0  0  0  0  0  0
    2.6790   -1.7350   -0.0410 C   0  0  0  0  0  0  0  0  0  0  0  0
   -2.2640    2.4700    1.7880 N   0  0  0  0  0  0  0  0  0  0  0  0
   -3.3570    2.4990    0.8840 C   0  0  0  0  0  0  0  0  0  0  0  0
   -3.9490    3.7040    0.5710 C   0  0  0  0  0  0  0  0  0  0  0  0
   -5.0090    3.8100   -0.2930 C   0  0  0  0  0  0  0  0  0  0  0  0
   -5.4740    2.6450   -0.8540 C   0  0  0  0  0  0  0  0  0  0  0  0
   -4.9110    1.4210   -0.5690 C   0  0  0  0  0  0  0  0  0  0  0  0
   -5.4450    0.1900   -1.1900 C   0  0  0  0  0  0  0  0  0  0  0  0
   -3.8590    1.3150    0.2890 C   0  0  0  0  0  0  0  0  0  0  0  0
  1  2  2  0
  2  3  1  0
  3  4  2  3
  4  5  1  0
  4 29  1  0
  5  6  2  0
  6  7  1  0
  6 22  1  0
  7  8  1  0
  8  9  1  0
  9 10  1  0
 10 11  2  0
 10 12  1  0
 12 13  1  0
 12 21  1  0
 13 14  1  0
 14 15  1  0
 15 16  1  0
 16 17  2  3
 16 21  1  0
 17 18  1  0
 18 19  1  0
 18 20  2  0
 22 23  1  0
 23 24  2  0
 23 29  1  0
 24 25  1  0
 25 26  2  0
 26 27  1  0
 27 28  1  0
 27 29  2  0
M  END
