
     RDKit          3D

 29 31  0  0  0  0  0  0  0  0999 V2000
   -3.5420   -3.8310   -0.9360 C   0  0  0  0  0  0  0  0  0  0  0  0
   -3.6090   -2.6550   -1.8370 C   0  0  0  0  0  0  0  0  0  0  0  0
   -3.7990   -2.8530   -3.0230 O   0  0  0  0  0  0  0  0  0  0  0  0
   -3.4600   -1.2450   -1.3860 C   0  0  0  0  0  0  0  0  0  0  0  0
   -3.2360   -1.1350    0.0840 C   0  0  0  0  0  0  0  0  0  0  0  0
   -3.1140    0.2810    0.4730 C   0  0  0  0  0  0  0  0  0  0  0  0
   -1.9920    0.7720    0.8510 N   0  0  0  0  0  0  0  0  0  0  0  0
   -0.7900    0.0650    0.9400 N   0  0  0  0  0  0  0  0  0  0  0  0
    0.4280    0.5270    0.4100 C   0  0  0  0  0  0  0  0  0  0  0  0
    0.4490    1.6380   -0.1790 O   0  0  0  0  0  0  0  0  0  0  0  0
    1.6410   -0.2560    0.5350 C   0  0  0  0  0  0  0  0  0  0  0  0
    1.6400   -1.5530    0.9830 C   0  0  0  0  0  0  0  0  0  0  0  0
    2.8170   -2.2750    1.0960 C   0  0  0  0  0  0  0  0  0  0  0  0
    4.0270   -1.7010    0.7580 C   0  0  0  0  0  0  0  0  0  0  0  0
    5.2650   -2.5000    0.8920 C   0  0  0  0  0  0  0  0  0  0  0  0
    4.0690   -0.4050    0.3060 C   0  0  0  0  0  0  0  0  0  0  0  0
    5.3070    0.2090   -0.0510 N   0  0  0  0  0  0  0  0  0  0  0  0
    6.2580   -0.1590   -1.0690 C   0  0  0  0  0  0  0  0  0  0  0  0
    7.4170    0.7680   -0.8650 C   0  0  0  0  0  0  0  0  0  0  0  0
    7.2820    1.1470    0.6150 C   0  0  0  0  0  0  0  0  0  0  0  0
    5.7760    1.4030    0.6700 C   0  0  0  0  0  0  0  0  0  0  0  0
    2.8830    0.2710    0.2100 C   0  0  0  0  0  0  0  0  0  0  0  0
   -4.2620    1.1610    0.3810 C   0  0  0  0  0  0  0  0  0  0  0  0
   -4.0950    2.5400    0.5760 C   0  0  0  0  0  0  0  0  0  0  0  0
   -5.1590    3.4070    0.5260 C   0  0  0  0  0  0  0  0  0  0  0  0
   -6.4430    2.9730    0.2820 C   0  0  0  0  0  0  0  0  0  0  0  0
   -7.5950    3.9100    0.2260 C   0  0  0  0  0  0  0  0  0  0  0  0
   -6.6160    1.6200    0.0890 C   0  0  0  0  0  0  0  0  0  0  0  0
   -5.5490    0.7460    0.1390 C   0  0  0  0  0  0  0  0  0  0  0  0
  1  2  1  0
  2  3  2  0
  2  4  1  0
  4  5  1  0
  5  6  1  0
  6  7  2  3
  6 23  1  0
  7  8  1  0
  8  9  1  0
  9 10  2  0
  9 11  1  0
 11 12  2  0
 11 22  1  0
 12 13  1  0
 13 14  2  0
 14 15  1  0
 14 16  1  0
 16 17  1  0
 16 22  2  0
 17 18  1  0
 17 21  1  0
 18 19  1  0
 19 20  1  0
 20 21  1  0
 23 24  2  0
 23 29  1  0
 24 25  1  0
 25 26  2  0
 26 27  1  0
 26 28  1  0
 28 29  2  0
M  END
