
     RDKit          3D

 29 31  0  0  0  0  0  0  0  0999 V2000
   -6.5680   -0.0760   -1.4520 C   0  0  0  0  0  0  0  0  0  0  0  0
   -7.3120    0.2060   -0.1960 C   0  0  0  0  0  0  0  0  0  0  0  0
   -6.5920    0.6310    1.0150 C   0  0  0  0  0  0  0  0  0  0  0  0
   -5.5340   -0.2190    1.5940 C   0  0  2  0  0  0  0  0  0  0  0  0
   -5.9830   -1.6130    1.9310 C   0  0  0  0  0  0  0  0  0  0  0  0
   -5.2830    0.3880    3.0580 C   0  0  0  0  0  0  0  0  0  0  0  0
   -4.1950   -0.2080    1.0250 C   0  0  0  0  0  0  0  0  0  0  0  0
   -3.2690   -1.1200    1.5200 C   0  0  0  0  0  0  0  0  0  0  0  0
   -1.9830   -1.1600    1.0270 C   0  0  0  0  0  0  0  0  0  0  0  0
   -1.5400   -0.3250    0.0370 C   0  0  0  0  0  0  0  0  0  0  0  0
   -2.4500    0.5930   -0.4730 C   0  0  0  0  0  0  0  0  0  0  0  0
   -3.7380    0.6380    0.0230 C   0  0  0  0  0  0  0  0  0  0  0  0
   -1.7980    1.3560   -1.5570 C   0  0  0  0  0  0  0  0  0  0  0  0
   -0.6830    0.3530   -1.9480 C   0  0  0  0  0  0  0  0  0  0  0  0
   -0.2950   -0.1700   -0.6390 N   0  0  0  0  0  0  0  0  0  0  0  0
    0.9930   -0.3400   -0.1350 C   0  0  0  0  0  0  0  0  0  0  0  0
    1.1780   -0.3260    1.1660 O   0  0  0  0  0  0  0  0  0  0  0  0
    2.2360   -0.5390   -0.8620 C   0  0  1  0  0  0  0  0  0  0  0  0
    2.0540   -0.7750   -2.3190 C   0  0  0  0  0  0  0  0  0  0  0  0
    3.3550    0.2630   -0.5310 N   0  0  0  0  0  0  0  0  0  0  0  0
    4.6350   -0.1910   -0.2120 C   0  0  0  0  0  0  0  0  0  0  0  0
    4.8260   -1.4170   -0.1750 O   0  0  0  0  0  0  0  0  0  0  0  0
    5.7710    0.7610    0.0650 C   0  0  0  0  0  0  0  0  0  0  0  0
    7.0290   -0.0520   -0.1100 C   0  0  0  0  0  0  0  0  0  0  0  0
    8.2570    0.6910   -0.0210 N   0  0  0  0  0  0  0  0  0  0  0  0
    8.7880    1.2980   -1.1370 C   0  0  0  0  0  0  0  0  0  0  0  0
    9.9660    1.8740   -0.7540 C   0  0  0  0  0  0  0  0  0  0  0  0
   10.1690    1.6220    0.6040 C   0  0  0  0  0  0  0  0  0  0  0  0
    9.0560    0.8740    1.0120 C   0  0  0  0  0  0  0  0  0  0  0  0
  1  2  1  0
  2  3  1  0
  3  4  1  0
  4  5  1  1
  4  6  1  0
  4  7  1  0
  7  8  2  0
  7 12  1  0
  8  9  1  0
  9 10  2  0
 10 11  1  0
 10 15  1  0
 11 12  2  0
 11 13  1  0
 13 14  1  0
 14 15  1  0
 15 16  1  0
 16 17  2  0
 16 18  1  0
 18 19  1  6
 18 20  1  0
 20 21  1  0
 21 22  2  0
 21 23  1  0
 23 24  1  0
 24 25  1  0
 25 26  1  0
 25 29  1  0
 26 27  2  0
 27 28  1  0
 28 29  2  0
M  END
