
     RDKit          3D

 26 27  0  0  0  0  0  0  0  0999 V2000
    5.8900   -1.9790   -0.1460 C   0  0  0  0  0  0  0  0  0  0  0  0
    4.5230   -1.6460   -0.2350 O   0  0  0  0  0  0  0  0  0  0  0  0
    4.1730   -0.3090   -0.0020 C   0  0  0  0  0  0  0  0  0  0  0  0
    5.0990    0.6350    0.2970 C   0  0  0  0  0  0  0  0  0  0  0  0
    4.6920    1.9320    0.5160 C   0  0  0  0  0  0  0  0  0  0  0  0
    3.3810    2.2860    0.4370 C   0  0  0  0  0  0  0  0  0  0  0  0
    2.4030    1.3290    0.1300 C   0  0  0  0  0  0  0  0  0  0  0  0
    0.7090    1.8080    0.0330 S   0  0  0  0  0  0  0  0  0  0  0  0
   -0.3670    0.4610   -0.3660 C   0  0  0  0  0  0  0  0  0  0  0  0
    0.0460   -0.7050   -0.5560 O   0  0  0  0  0  0  0  0  0  0  0  0
   -1.7640    0.7790   -0.4610 N   0  0  0  0  0  0  0  0  0  0  0  0
   -2.1460    2.2020   -0.3120 C   0  0  0  0  0  0  0  0  0  0  0  0
   -2.4170    2.5090    1.1470 C   0  0  0  0  0  0  0  0  0  0  0  0
   -2.7990    3.9260    1.3140 C   0  0  0  0  0  0  0  0  0  0  0  0
   -2.8520    4.6570    0.3000 O   0  0  0  0  0  0  0  0  0  0  0  0
   -3.0930    4.4320    2.5640 O   0  0  0  0  0  0  0  0  0  0  0  0
   -2.7240   -0.1820   -0.7700 C   0  0  0  0  0  0  0  0  0  0  0  0
   -3.8890    0.3090   -1.0900 O   0  0  0  0  0  0  0  0  0  0  0  0
   -2.6650   -1.6090   -0.8010 C   0  0  0  0  0  0  0  0  0  0  0  0
   -1.9910   -2.3600    0.1660 C   0  0  0  0  0  0  0  0  0  0  0  0
   -2.0760   -3.7350    0.1810 C   0  0  0  0  0  0  0  0  0  0  0  0
   -2.8250   -4.4260   -0.7460 C   0  0  0  0  0  0  0  0  0  0  0  0
   -3.4940   -3.7170   -1.7000 C   0  0  0  0  0  0  0  0  0  0  0  0
   -3.4080   -2.3310   -1.7190 C   0  0  0  0  0  0  0  0  0  0  0  0
   -4.1250   -1.7400   -2.7390 O   0  0  0  0  0  0  0  0  0  0  0  0
    2.8170    0.0510   -0.0840 C   0  0  0  0  0  0  0  0  0  0  0  0
  1  2  1  0
  2  3  1  0
  3  4  2  0
  3 26  1  0
  4  5  1  0
  5  6  2  0
  6  7  1  0
  7  8  1  0
  7 26  2  0
  8  9  1  0
  9 10  2  0
  9 11  1  0
 11 12  1  0
 11 17  1  0
 12 13  1  0
 13 14  1  0
 14 15  2  0
 14 16  1  0
 17 18  2  0
 17 19  1  0
 19 20  2  0
 19 24  1  0
 20 21  1  0
 21 22  2  0
 22 23  1  0
 23 24  2  0
 24 25  1  0
M  END
