
     RDKit          3D

 26 27  0  0  0  0  0  0  0  0999 V2000
    5.8700    2.4340   -2.0460 C   0  0  0  0  0  0  0  0  0  0  0  0
    4.6650    1.4980   -2.0520 C   0  0  0  0  0  0  0  0  0  0  0  0
    4.7840    0.7030   -0.9180 O   0  0  0  0  0  0  0  0  0  0  0  0
    3.4600   -0.4270   -0.7950 P   0  0  0  0  0  0  0  0  0  0  0  0
    1.9970    0.5220   -0.1670 C   0  0  0  0  0  0  0  0  0  0  0  0
    0.8860   -0.3030    0.1850 N   0  0  0  0  0  0  0  0  0  0  0  0
    0.8070   -0.8030    1.5390 C   0  0  0  0  0  0  0  0  0  0  0  0
   -0.1230   -0.6500   -0.7390 C   0  0  0  0  0  0  0  0  0  0  0  0
   -0.0130   -0.2190   -1.9150 O   0  0  0  0  0  0  0  0  0  0  0  0
   -1.3000   -1.4870   -0.4070 C   0  0  2  0  0  0  0  0  0  0  0  0
   -2.0920   -1.8290   -1.6590 C   0  0  0  0  0  0  0  0  0  0  0  0
   -3.5420   -2.1680   -1.2780 C   0  0  0  0  0  0  0  0  0  0  0  0
   -4.0950   -0.8610   -0.8100 C   0  0  0  0  0  0  0  0  0  0  0  0
   -5.2690   -0.3150   -1.2580 C   0  0  0  0  0  0  0  0  0  0  0  0
   -5.7130    0.9190   -0.7730 C   0  0  0  0  0  0  0  0  0  0  0  0
   -4.9950    1.6290    0.1670 C   0  0  0  0  0  0  0  0  0  0  0  0
   -5.5630    3.1820    0.7730 S   0  0  2  0  0  0  0  0  0  0  0  0
   -6.4200    3.8670   -0.2740 O   0  0  0  0  0  0  0  0  0  0  0  0
   -4.3950    4.0800    1.0300 O   0  0  0  0  0  0  0  0  0  0  0  0
   -6.5050    2.9270    2.1130 O   0  0  0  0  0  0  0  0  0  0  0  0
   -3.8160    1.0700    0.6100 C   0  0  0  0  0  0  0  0  0  0  0  0
   -3.3670   -0.1660    0.1270 C   0  0  0  0  0  0  0  0  0  0  0  0
   -2.1020   -0.7580    0.6200 C   0  0  0  0  0  0  0  0  0  0  0  0
    3.9050   -1.6430    0.3560 O   0  0  0  0  0  0  0  0  0  0  0  0
    5.1970   -1.4270    0.8470 C   0  0  0  0  0  0  0  0  0  0  0  0
    5.5460   -2.4940    1.8350 C   0  0  0  0  0  0  0  0  0  0  0  0
  1  2  1  0
  2  3  1  0
  3  4  1  0
  4  5  1  0
  4 24  1  0
  5  6  1  0
  6  7  1  0
  6  8  1  0
  8  9  2  0
 10  8  1  6
 10 11  1  0
 10 23  1  0
 11 12  1  0
 12 13  1  0
 13 14  2  0
 13 22  1  0
 14 15  1  0
 15 16  2  0
 16 17  1  0
 16 21  1  0
 17 18  2  0
 17 19  2  0
 17 20  1  1
 21 22  2  0
 22 23  1  0
 24 25  1  0
 25 26  1  0
M  END
