
     RDKit          3D

 26 28  0  0  0  0  0  0  0  0999 V2000
   -3.7970    4.0550    0.4790 C   0  0  0  0  0  0  0  0  0  0  0  0
   -4.4410    2.8170   -0.2370 C   0  0  0  0  0  0  0  0  0  0  0  0
   -3.9590    1.7490    0.4930 O   0  0  0  0  0  0  0  0  0  0  0  0
   -4.0450    0.2700   -0.2480 P   0  0  0  0  0  0  0  0  0  0  0  0
   -5.4180   -0.5870   -0.5790 O   0  0  0  0  0  0  0  0  0  0  0  0
   -4.9940   -1.8960   -1.0070 C   0  0  0  0  0  0  0  0  0  0  0  0
   -5.5830   -2.7280    0.1910 C   0  0  0  0  0  0  0  0  0  0  0  0
   -2.4650   -0.6040    0.0460 C   0  0  0  0  0  0  0  0  0  0  0  0
   -1.7040   -0.9100   -1.0460 C   0  0  0  0  0  0  0  0  0  0  0  0
   -0.4250   -1.4090   -1.0160 C   0  0  0  0  0  0  0  0  0  0  0  0
    0.1790   -1.6300    0.2490 C   0  0  0  0  0  0  0  0  0  0  0  0
    1.5040   -2.0970    0.2710 N   0  0  0  0  0  0  0  0  0  0  0  0
    2.5690   -1.1930    0.4480 C   0  0  0  0  0  0  0  0  0  0  0  0
    2.3920   -0.0550    1.1230 C   0  0  0  0  0  0  0  0  0  0  0  0
    3.3870    0.9180    1.1260 C   0  0  0  0  0  0  0  0  0  0  0  0
    4.5820    0.7100    0.4370 C   0  0  0  0  0  0  0  0  0  0  0  0
    4.7570   -0.4790   -0.2410 C   0  0  0  0  0  0  0  0  0  0  0  0
    3.7750   -1.4350   -0.2540 C   0  0  0  0  0  0  0  0  0  0  0  0
    6.0420   -0.4560   -0.8430 O   0  0  0  0  0  0  0  0  0  0  0  0
    6.3570    0.8990   -1.0040 C   0  0  2  0  0  0  0  0  0  0  0  0
    8.0410    1.2540   -0.9990 S   0  0  1  0  0  0  0  0  0  0  0  0
    8.5460    1.5530   -2.3780 O   0  0  0  0  0  0  0  0  0  0  0  0
    8.2310    2.5300   -0.1730 O   0  0  0  0  0  0  0  0  0  0  0  0
    5.7490    1.4130    0.2250 O   0  0  0  0  0  0  0  0  0  0  0  0
   -0.5600   -1.3280    1.4000 C   0  0  0  0  0  0  0  0  0  0  0  0
   -1.8940   -0.8210    1.2620 C   0  0  0  0  0  0  0  0  0  0  0  0
  1  2  1  0
  2  3  1  0
  3  4  1  0
  4  5  1  0
  4  8  1  0
  5  6  1  0
  6  7  1  0
  8  9  2  0
  8 26  1  0
  9 10  1  0
 10 11  2  0
 11 12  1  0
 11 25  1  0
 12 13  1  0
 13 14  2  0
 13 18  1  0
 14 15  1  0
 15 16  2  0
 16 17  1  0
 16 24  1  0
 17 18  2  0
 17 19  1  0
 20 19  1  1
 21 20  1  6
 20 24  1  0
 21 22  2  0
 21 23  2  0
 25 26  2  0
M  END
