
     RDKit          3D

 26 27  0  0  0  0  0  0  0  0999 V2000
    6.0230   -0.4100    0.8130 C   0  0  0  0  0  0  0  0  0  0  0  0
    5.4760   -0.8160   -0.3540 C   0  0  0  0  0  0  0  0  0  0  0  0
    6.2690   -1.7330   -1.1490 C   0  0  0  0  0  0  0  0  0  0  0  0
    5.9230   -2.2420   -2.3030 C   0  0  0  0  0  0  0  0  0  0  0  0
    6.8080   -3.1190   -2.9510 O   0  0  0  0  0  0  0  0  0  0  0  0
    4.1610   -0.3140   -0.7140 C   0  0  0  0  0  0  0  0  0  0  0  0
    3.5880   -0.6390   -1.7700 O   0  0  0  0  0  0  0  0  0  0  0  0
    3.4950    0.5580    0.1220 O   0  0  0  0  0  0  0  0  0  0  0  0
    2.2160    1.0880   -0.1600 C   0  0  0  0  0  0  0  0  0  0  0  0
    1.2110   -0.0450   -0.2950 C   0  0  0  0  0  0  0  0  0  0  0  0
    1.5560   -1.7700   -0.1300 S   0  0  0  0  0  0  0  0  0  0  0  0
   -0.0250   -2.2920   -0.4130 C   0  0  0  0  0  0  0  0  0  0  0  0
   -0.7510   -1.2120   -0.6170 C   0  0  0  0  0  0  0  0  0  0  0  0
   -2.2080   -1.3250   -0.8970 C   0  0  0  0  0  0  0  0  0  0  0  0
   -2.5180   -1.4160   -2.1080 O   0  0  0  0  0  0  0  0  0  0  0  0
   -3.1790   -1.3300    0.1390 N   0  0  0  0  0  0  0  0  0  0  0  0
   -4.6030   -1.4420   -0.1360 C   0  0  0  0  0  0  0  0  0  0  0  0
   -5.3270   -1.1630    1.1420 C   0  0  0  0  0  0  0  0  0  0  0  0
   -4.2510   -0.4760    1.9940 C   0  0  0  0  0  0  0  0  0  0  0  0
   -3.0230   -1.2410    1.5560 C   0  0  0  0  0  0  0  0  0  0  0  0
   -0.1050   -0.0210   -0.5560 C   0  0  0  0  0  0  0  0  0  0  0  0
   -0.7430    1.2190   -0.7530 O   0  0  0  0  0  0  0  0  0  0  0  0
   -1.3140    1.9710    0.2660 C   0  0  0  0  0  0  0  0  0  0  0  0
   -1.8910    3.2330   -0.3870 C   0  0  1  0  0  0  0  0  0  0  0  0
   -2.5760    4.1020    0.6300 C   0  0  0  0  0  0  0  0  0  0  0  0
   -0.8190    3.8820   -0.9850 O   0  0  0  0  0  0  0  0  0  0  0  0
  1  2  2  0
  2  3  1  0
  2  6  1  0
  3  4  2  3
  4  5  1  0
  6  7  2  0
  6  8  1  0
  8  9  1  0
  9 10  1  0
 10 11  1  0
 10 21  2  0
 11 12  1  0
 12 13  2  0
 13 14  1  0
 13 21  1  0
 14 15  2  0
 14 16  1  0
 16 17  1  0
 16 20  1  0
 17 18  1  0
 18 19  1  0
 19 20  1  0
 21 22  1  0
 22 23  1  0
 23 24  1  0
 24 25  1  1
 24 26  1  0
M  END
