
     RDKit          3D

 22 25  0  0  0  0  0  0  0  0999 V2000
    6.0480    0.2510    0.0160 N   0  0  0  0  0  0  0  0  0  0  0  0
    4.7840   -0.3650   -0.1210 C   0  0  0  0  0  0  0  0  0  0  0  0
    4.6160   -1.6640   -0.4150 N   0  0  0  0  0  0  0  0  0  0  0  0
    3.3760   -2.2130   -0.5370 C   0  0  0  0  0  0  0  0  0  0  0  0
    2.2940   -1.4310   -0.3570 N   0  0  0  0  0  0  0  0  0  0  0  0
    2.3880   -0.1410   -0.0650 C   0  0  0  0  0  0  0  0  0  0  0  0
    3.6590    0.4130    0.0580 C   0  0  0  0  0  0  0  0  0  0  0  0
    3.4900    1.7180    0.3550 N   0  0  0  0  0  0  0  0  0  0  0  0
    2.1650    1.9490    0.4100 C   0  0  0  0  0  0  0  0  0  0  0  0
    1.4820    0.8000    0.1510 N   0  0  0  0  0  0  0  0  0  0  0  0
    0.0730    0.7040    0.1320 C   0  0  2  0  0  0  0  0  0  0  0  0
   -0.4540   -0.0020    1.2420 O   0  0  0  0  0  0  0  0  0  0  0  0
   -1.7850   -0.0020    0.9080 C   0  0  2  0  0  0  0  0  0  0  0  0
   -2.6630   -0.8950    1.7100 C   0  0  0  0  0  0  0  0  0  0  0  0
   -3.6830   -1.3480    0.8750 O   0  0  0  0  0  0  0  0  0  0  0  0
   -4.2590   -0.3650   -0.1430 P   0  0  0  0  0  0  0  0  0  0  0  0
   -4.9760    0.4260   -1.2610 O   0  0  0  0  0  0  0  0  0  0  0  0
   -4.5070    0.7630    1.0110 O   0  0  0  0  0  0  0  0  0  0  0  0
   -2.8970   -0.4130   -1.0540 O   0  0  0  0  0  0  0  0  0  0  0  0
   -1.7150   -0.6830   -0.4730 C   0  0  1  0  0  0  0  0  0  0  0  0
   -0.5060   -0.0510   -1.0340 C   0  0  1  0  0  0  0  0  0  0  0  0
   -0.7230    0.7450   -2.1440 O   0  0  0  0  0  0  0  0  0  0  0  0
  1  2  1  0
  2  3  2  0
  2  7  1  0
  3  4  1  0
  4  5  2  0
  5  6  1  0
  6  7  2  0
  6 10  1  0
  7  8  1  0
  8  9  2  0
  9 10  1  0
 11 10  1  6
 11 12  1  0
 11 21  1  0
 12 13  1  0
 13 14  1  1
 13 20  1  0
 14 15  1  0
 15 16  1  0
 16 17  1  0
 16 18  1  0
 16 19  1  0
 20 19  1  6
 20 21  1  0
 21 22  1  6
M  END
