
     RDKit          3D

 26 28  0  0  0  0  0  0  0  0999 V2000
    5.2160    1.9880    1.2330 O   0  0  0  0  0  0  0  0  0  0  0  0
    4.7830    0.9530    0.6540 C   0  0  0  0  0  0  0  0  0  0  0  0
    3.4570    0.5770    0.9080 N   0  0  0  0  0  0  0  0  0  0  0  0
    2.5660    1.3110    1.7960 C   0  0  0  0  0  0  0  0  0  0  0  0
    1.2290    0.6750    1.8660 C   0  0  0  0  0  0  0  0  0  0  0  0
    0.8660   -0.2960    2.7760 C   0  0  0  0  0  0  0  0  0  0  0  0
   -0.4500   -0.6160    2.5030 C   0  0  0  0  0  0  0  0  0  0  0  0
   -0.8390    0.1720    1.4390 C   0  0  0  0  0  0  0  0  0  0  0  0
   -2.1650    0.1410    0.8400 C   0  0  0  0  0  0  0  0  0  0  0  0
   -3.0170   -0.6460    1.3110 O   0  0  0  0  0  0  0  0  0  0  0  0
   -2.5480    0.9300   -0.2220 O   0  0  0  0  0  0  0  0  0  0  0  0
   -3.8310    0.9050   -0.8060 C   0  0  0  0  0  0  0  0  0  0  0  0
   -4.2270   -0.4100   -1.3660 C   0  0  0  0  0  0  0  0  0  0  0  0
   -5.5070   -0.3420   -1.9060 O   0  0  0  0  0  0  0  0  0  0  0  0
   -6.6820   -0.1110   -1.1310 C   0  0  0  0  0  0  0  0  0  0  0  0
   -7.8760   -0.0190   -1.7410 C   0  0  0  0  0  0  0  0  0  0  0  0
   -8.9860    0.1980   -0.9690 C   0  0  0  0  0  0  0  0  0  0  0  0
   -8.2940    0.2740    0.7050 S   0  0  0  0  0  0  0  0  0  0  0  0
   -6.6160    0.0090    0.1950 C   0  0  0  0  0  0  0  0  0  0  0  0
    0.1930    0.9180    1.1010 O   0  0  0  0  0  0  0  0  0  0  0  0
    5.7030    0.2440   -0.2280 C   0  0  0  0  0  0  0  0  0  0  0  0
    6.9410    0.6490   -0.4260 C   0  0  0  0  0  0  0  0  0  0  0  0
    7.9140   -0.0330   -1.3090 C   0  0  0  0  0  0  0  0  0  0  0  0
    7.4030   -1.1710   -1.9310 O   0  0  0  0  0  0  0  0  0  0  0  0
    6.1120   -1.6030   -1.7320 C   0  0  0  0  0  0  0  0  0  0  0  0
    5.2690   -0.9560   -0.9260 C   0  0  0  0  0  0  0  0  0  0  0  0
  1  2  2  0
  2  3  1  0
  2 21  1  0
  3  4  1  0
  4  5  1  0
  5  6  2  0
  5 20  1  0
  6  7  1  0
  7  8  2  0
  8  9  1  0
  8 20  1  0
  9 10  2  0
  9 11  1  0
 11 12  1  0
 12 13  1  0
 13 14  1  0
 14 15  1  0
 15 16  1  0
 15 19  2  0
 16 17  2  0
 17 18  1  0
 18 19  1  0
 21 22  2  0
 21 26  1  0
 22 23  1  0
 23 24  1  0
 24 25  1  0
 25 26  2  0
M  END
