
     RDKit          3D

 12 12  0  0  0  0  0  0  0  0999 V2000
    3.1380    0.9360   -0.3060 C   0  0  0  0  0  0  0  0  0  0  0  0
    1.9100    1.1350    0.1110 C   0  0  0  0  0  0  0  0  0  0  0  0
    1.0670    0.0470    0.3640 N   0  0  0  0  0  0  0  0  0  0  0  0
    1.2070   -0.7140    1.9290 Cl  0  0  0  0  0  0  0  0  0  0  0  0
    0.1050   -0.4780   -0.5680 C   0  0  1  0  0  0  0  0  0  0  0  0
    0.6650   -0.7270   -1.8820 N   0  0  0  0  0  0  0  0  0  0  0  0
   -0.6390   -1.6530    0.0230 C   0  0  0  0  0  0  0  0  0  0  0  0
   -1.4780   -0.5860    0.5900 N   0  0  0  0  0  0  0  0  0  0  0  0
   -2.1570   -0.4080    1.6410 N   0  0  0  0  0  0  0  0  0  0  0  0
   -2.8390    0.7890    1.8170 N   0  0  0  0  0  0  0  0  0  0  0  0
   -1.1890    0.1380   -0.5500 N   0  0  0  0  0  0  0  0  0  0  0  0
   -2.0590    1.2750   -1.4910 Cl  0  0  0  0  0  0  0  0  0  0  0  0
  1  2  2  0
  2  3  1  0
  3  4  1  0
  3  5  1  0
  5  6  1  6
  5  7  1  0
  5 11  1  0
  7  8  1  0
  8  9  2  3
  8 11  1  0
  9 10  1  0
 11 12  1  0
M  CHG  1   8   1
M  END
