
     RDKit          3D

 23 22  0  0  0  0  0  0  0  0999 V2000
   -6.8630   -1.1260    2.6910 C   0  0  0  0  0  0  0  0  0  0  0  0
   -7.0180   -1.6730    1.2970 C   0  0  0  0  0  0  0  0  0  0  0  0
   -7.4070   -0.5450    0.3840 C   0  0  0  0  0  0  0  0  0  0  0  0
   -6.3720    0.5220    0.3970 C   0  0  0  0  0  0  0  0  0  0  0  0
   -4.9920    0.0290   -0.0670 C   0  0  0  0  0  0  0  0  0  0  0  0
   -4.1060    1.1900   -0.0080 C   0  0  0  0  0  0  0  0  0  0  0  0
   -3.4590    1.7120   -1.0000 C   0  0  0  0  0  0  0  0  0  0  0  0
   -3.5220    1.1950   -2.3850 C   0  0  0  0  0  0  0  0  0  0  0  0
   -2.1520    0.7910   -2.7990 C   0  0  0  0  0  0  0  0  0  0  0  0
   -1.1280    0.9140   -1.9910 C   0  0  0  0  0  0  0  0  0  0  0  0
    0.1920    0.5060   -2.4400 C   0  0  0  0  0  0  0  0  0  0  0  0
    1.2240    0.6330   -1.6200 C   0  0  0  0  0  0  0  0  0  0  0  0
    2.5670    0.2540   -1.9820 C   0  0  0  0  0  0  0  0  0  0  0  0
    3.6510    0.3280   -1.2790 C   0  0  0  0  0  0  0  0  0  0  0  0
    3.6800    0.8460    0.0910 C   0  0  0  0  0  0  0  0  0  0  0  0
    4.1790   -0.1720    1.0900 C   0  0  1  0  0  0  0  0  0  0  0  0
    3.3100   -1.2610    1.0310 O   0  0  0  0  0  0  0  0  0  0  0  0
    5.5560   -0.6870    0.7650 C   0  0  0  0  0  0  0  0  0  0  0  0
    6.6010    0.3590    0.7270 C   0  0  0  0  0  0  0  0  0  0  0  0
    7.9470   -0.2060    0.3930 C   0  0  0  0  0  0  0  0  0  0  0  0
    8.4710   -1.1900    1.3570 C   0  0  0  0  0  0  0  0  0  0  0  0
    7.8820   -1.4940    2.3980 O   0  0  0  0  0  0  0  0  0  0  0  0
    9.6960   -1.8200    1.0930 O   0  0  0  0  0  0  0  0  0  0  0  0
  1  2  1  0
  2  3  1  0
  3  4  1  0
  4  5  1  0
  5  6  1  0
  6  7  2  3
  7  8  1  0
  8  9  1  0
  9 10  2  3
 10 11  1  0
 11 12  2  3
 12 13  1  0
 13 14  2  3
 14 15  1  0
 15 16  1  0
 16 17  1  6
 16 18  1  0
 18 19  1  0
 19 20  1  0
 20 21  1  0
 21 22  2  0
 21 23  1  0
M  END
