
     RDKit          3D

 25 27  0  0  0  0  0  0  0  0999 V2000
   -6.5110   -1.8840   -0.2530 C   0  0  0  0  0  0  0  0  0  0  0  0
   -5.5320   -2.0720   -1.3820 C   0  0  0  0  0  0  0  0  0  0  0  0
   -4.2890   -1.3220   -0.9860 N   0  0  0  0  0  0  0  0  0  0  0  0
   -3.3650   -2.1010   -0.2310 C   0  0  0  0  0  0  0  0  0  0  0  0
   -4.1740    0.0030   -1.3570 C   0  0  0  0  0  0  0  0  0  0  0  0
   -5.2240    0.4650   -2.0250 O   0  0  0  0  0  0  0  0  0  0  0  0
   -3.1210    0.9500   -1.1420 C   0  0  0  0  0  0  0  0  0  0  0  0
   -3.3020    2.2860   -1.5700 C   0  0  0  0  0  0  0  0  0  0  0  0
   -2.3080    3.1950   -1.3910 C   0  0  0  0  0  0  0  0  0  0  0  0
   -2.4890    4.4850   -1.8060 F   0  0  0  0  0  0  0  0  0  0  0  0
   -1.1100    2.8590   -0.7980 C   0  0  0  0  0  0  0  0  0  0  0  0
   -0.8840    1.5770   -0.3660 C   0  0  0  0  0  0  0  0  0  0  0  0
    0.3240    1.1660    0.2500 N   0  0  0  0  0  0  0  0  0  0  0  0
    1.1150   -0.0110   -0.1010 C   0  0  0  0  0  0  0  0  0  0  0  0
    2.5740    0.4710    0.0520 C   0  0  2  0  0  0  0  0  0  0  0  0
    3.3810   -0.7720    0.2030 C   0  0  0  0  0  0  0  0  0  0  0  0
    4.8380   -0.5720    0.3440 C   0  0  0  0  0  0  0  0  0  0  0  0
    5.4490    0.5870    0.3240 C   0  0  0  0  0  0  0  0  0  0  0  0
    6.8910    0.3380    0.4990 C   0  0  0  0  0  0  0  0  0  0  0  0
    7.0120   -1.1230    0.6210 C   0  0  0  0  0  0  0  0  0  0  0  0
    5.8100   -1.6440    0.5290 C   0  0  0  0  0  0  0  0  0  0  0  0
    2.4280    1.2060    1.3890 C   0  0  0  0  0  0  0  0  0  0  0  0
    1.0320    1.7640    1.3100 C   0  0  0  0  0  0  0  0  0  0  0  0
    0.5890    2.6410    2.0950 O   0  0  0  0  0  0  0  0  0  0  0  0
   -1.9250    0.6530   -0.5610 C   0  0  0  0  0  0  0  0  0  0  0  0
  1  2  1  0
  2  3  1  0
  3  4  1  0
  3  5  1  0
  5  6  2  0
  5  7  1  0
  7  8  2  0
  7 25  1  0
  8  9  1  0
  9 10  1  0
  9 11  2  0
 11 12  1  0
 12 13  1  0
 12 25  2  0
 13 14  1  0
 13 23  1  0
 14 15  1  0
 15 16  1  1
 15 22  1  0
 16 17  1  0
 17 18  2  0
 17 21  1  0
 18 19  1  0
 19 20  1  0
 20 21  2  0
 22 23  1  0
 23 24  2  0
M  END
