
     RDKit          3D

 28 30  0  0  0  0  0  0  0  0999 V2000
    7.0090    2.5850    0.1710 C   0  0  0  0  0  0  0  0  0  0  0  0
    6.7880    1.0980    0.0770 C   0  0  0  0  0  0  0  0  0  0  0  0
    7.7440    0.2770    0.0280 O   0  0  0  0  0  0  0  0  0  0  0  0
    5.4860    0.6120    0.0640 N   0  0  0  0  0  0  0  0  0  0  0  0
    5.0370   -0.7330    0.0590 C   0  0  0  0  0  0  0  0  0  0  0  0
    5.7800   -1.7790    0.6040 C   0  0  0  0  0  0  0  0  0  0  0  0
    5.2050   -3.0210    0.8210 C   0  0  0  0  0  0  0  0  0  0  0  0
    3.9050   -3.2830    0.5180 C   0  0  0  0  0  0  0  0  0  0  0  0
    3.1950   -4.8710    0.8230 Cl  0  0  0  0  0  0  0  0  0  0  0  0
    3.1650   -2.2350   -0.0340 C   0  0  0  0  0  0  0  0  0  0  0  0
    3.7160   -1.0070   -0.2540 C   0  0  0  0  0  0  0  0  0  0  0  0
    2.9950    0.0930   -0.9630 C   0  0  0  0  0  0  0  0  0  0  0  0
    1.9450    0.4400   -0.1040 N   0  0  0  0  0  0  0  0  0  0  0  0
    0.6350   -0.0210   -0.1910 C   0  0  2  0  0  0  0  0  0  0  0  0
    0.0190   -0.1640   -1.5120 C   0  0  0  0  0  0  0  0  0  0  0  0
   -0.1430    0.9710    0.7160 C   0  0  0  0  0  0  0  0  0  0  0  0
   -1.5480    0.6390    0.7710 C   0  0  0  0  0  0  0  0  0  0  0  0
   -2.5030    1.5700    0.4470 C   0  0  0  0  0  0  0  0  0  0  0  0
   -3.8400    1.2830    0.3890 C   0  0  0  0  0  0  0  0  0  0  0  0
   -4.2430    0.0010    0.6720 C   0  0  0  0  0  0  0  0  0  0  0  0
   -3.2940   -0.9440    1.0080 C   0  0  0  0  0  0  0  0  0  0  0  0
   -1.9870   -0.6270    1.0520 N   0  0  0  0  0  0  0  0  0  0  0  0
   -5.6200   -0.2810    0.5510 N   0  0  0  0  0  0  0  0  0  0  0  0
   -6.0780   -1.6410    0.7550 C   0  0  0  0  0  0  0  0  0  0  0  0
   -6.6160    0.7540    0.2300 C   0  0  0  0  0  0  0  0  0  0  0  0
   -5.9220    1.7200   -0.7040 C   0  0  2  0  0  0  0  0  0  0  0  0
   -5.3740    0.9390   -1.8800 C   0  0  0  0  0  0  0  0  0  0  0  0
   -4.8130    2.2340    0.0550 O   0  0  0  0  0  0  0  0  0  0  0  0
  1  2  1  0
  2  3  2  0
  2  4  1  0
  4  5  1  0
  5  6  2  0
  5 11  1  0
  6  7  1  0
  7  8  2  0
  8  9  1  0
  8 10  1  0
 10 11  2  0
 11 12  1  0
 12 13  1  0
 13 14  1  0
 14 15  1  6
 14 16  1  0
 16 17  1  0
 17 18  2  0
 17 22  1  0
 18 19  1  0
 19 20  2  0
 19 28  1  0
 20 21  1  0
 20 23  1  0
 21 22  2  0
 23 24  1  0
 23 25  1  0
 25 26  1  0
 26 27  1  6
 26 28  1  0
M  CHG  2  13   1  22   1
M  END
