
     RDKit          3D

 21 22  0  0  0  0  0  0  0  0999 V2000
   -5.7490   -1.1840   -0.8810 N   0  0  0  0  0  0  0  0  0  0  0  0
   -5.2310   -0.6180    0.1540 C   0  0  0  0  0  0  0  0  0  0  0  0
   -3.8580   -0.9980    0.6360 C   0  0  0  0  0  0  0  0  0  0  0  0
   -2.8820   -0.4780   -0.4030 C   0  0  1  0  0  0  0  0  0  0  0  0
   -2.9970    1.0050   -0.5370 C   0  0  0  0  0  0  0  0  0  0  0  0
   -2.7540    1.7600    0.6510 N   0  0  0  0  0  0  0  0  0  0  0  0
   -1.5220   -1.0540   -0.3260 C   0  0  0  0  0  0  0  0  0  0  0  0
   -0.7890   -0.8280    0.9440 C   0  0  0  0  0  0  0  0  0  0  0  0
   -0.9270   -1.6260    2.0260 N   0  0  0  0  0  0  0  0  0  0  0  0
   -0.1400   -1.1760    2.9940 C   0  0  0  0  0  0  0  0  0  0  0  0
    0.5030   -0.0760    2.5120 C   0  0  0  0  0  0  0  0  0  0  0  0
    0.0910    0.1200    1.2520 N   0  0  0  0  0  0  0  0  0  0  0  0
    0.6080    1.1870    0.4310 C   0  0  0  0  0  0  0  0  0  0  0  0
    1.8760    0.7460   -0.2250 C   0  0  0  0  0  0  0  0  0  0  0  0
    1.9270    0.2890   -1.5050 C   0  0  0  0  0  0  0  0  0  0  0  0
    3.1460   -0.1130   -2.0450 C   0  0  0  0  0  0  0  0  0  0  0  0
    4.2820   -0.0490   -1.2940 C   0  0  0  0  0  0  0  0  0  0  0  0
    5.5170   -0.4650   -1.8650 N   0  0  0  0  0  0  0  0  0  0  0  0
    4.2100    0.4140   -0.0090 C   0  0  0  0  0  0  0  0  0  0  0  0
    5.3920    0.4850    0.7850 N   0  0  0  0  0  0  0  0  0  0  0  0
    3.0290    0.7980    0.5010 N   0  0  0  0  0  0  0  0  0  0  0  0
  1  2  2  0
  2  3  1  0
  4  3  1  1
  4  5  1  0
  4  7  1  0
  5  6  1  0
  7  8  1  0
  8  9  2  0
  8 12  1  0
  9 10  1  0
 10 11  2  0
 11 12  1  0
 12 13  1  0
 13 14  1  0
 14 15  2  0
 14 21  1  0
 15 16  1  0
 16 17  2  0
 17 18  1  0
 17 19  1  0
 19 20  1  0
 19 21  2  0
M  CHG  2   6   1  18   1
M  END
