
     RDKit          3D

 21 22  0  0  0  0  0  0  0  0999 V2000
    1.2520   -2.5180   -1.2480 C   0  0  0  0  0  0  0  0  0  0  0  0
    0.4030   -1.3560   -0.8900 C   0  0  0  0  0  0  0  0  0  0  0  0
    0.9230   -0.1820   -0.6560 C   0  0  0  0  0  0  0  0  0  0  0  0
    2.3690    0.1080   -0.7250 C   0  0  0  0  0  0  0  0  0  0  0  0
    2.8920    0.5420    0.5600 N   0  0  0  0  0  0  0  0  0  0  0  0
    4.2540    0.8790    0.7530 C   0  0  0  0  0  0  0  0  0  0  0  0
    4.7340    1.3010    2.0250 N   0  0  0  0  0  0  0  0  0  0  0  0
    5.0850    0.8100   -0.2230 N   0  0  0  0  0  0  0  0  0  0  0  0
    0.0110    0.9170   -0.2950 C   0  0  0  0  0  0  0  0  0  0  0  0
    0.5660    2.1180   -0.0600 N   0  0  0  0  0  0  0  0  0  0  0  0
   -0.1720    3.1810    0.2710 C   0  0  0  0  0  0  0  0  0  0  0  0
    0.4770    4.4980    0.5260 C   0  0  0  0  0  0  0  0  0  0  0  0
   -1.4850    3.0550    0.3720 N   0  0  0  0  0  0  0  0  0  0  0  0
   -2.1110    1.8570    0.1450 C   0  0  0  0  0  0  0  0  0  0  0  0
   -1.3540    0.7850   -0.1900 C   0  0  0  0  0  0  0  0  0  0  0  0
   -1.9570   -0.5540   -0.4570 C   0  0  0  0  0  0  0  0  0  0  0  0
   -3.2240   -0.7130   -0.3340 C   0  0  0  0  0  0  0  0  0  0  0  0
   -4.1940   -1.7780   -0.4810 C   0  0  0  0  0  0  0  0  0  0  0  0
   -4.8790   -1.9740    0.8280 N   0  0  0  0  0  0  0  0  0  0  0  0
   -1.0360   -1.5630   -0.8000 N   0  0  0  0  0  0  0  0  0  0  0  0
   -1.5040   -2.8730   -1.1610 C   0  0  0  0  0  0  0  0  0  0  0  0
  1  2  1  0
  2  3  2  0
  2 20  1  0
  3  4  1  0
  3  9  1  0
  4  5  1  0
  5  6  1  0
  6  7  1  0
  6  8  2  0
  9 10  2  0
  9 15  1  0
 10 11  1  0
 11 12  1  0
 11 13  2  0
 13 14  1  0
 14 15  2  0
 15 16  1  0
 16 17  2  3
 16 20  1  0
 17 18  1  0
 18 19  1  0
 20 21  1  0
M  CHG  2   8   1  19   1
M  END
