
     RDKit          3D

 21 22  0  0  0  0  0  0  0  0999 V2000
    0.6240   -3.8430    0.2000 N   0  0  0  0  0  0  0  0  0  0  0  0
    0.1690   -2.8380   -0.1370 C   0  0  0  0  0  0  0  0  0  0  0  0
   -0.3770   -1.5800   -0.5670 C   0  0  0  0  0  0  0  0  0  0  0  0
   -1.4470   -1.5360   -1.2640 C   0  0  0  0  0  0  0  0  0  0  0  0
   -2.1730   -0.3960   -1.7940 C   0  0  0  0  0  0  0  0  0  0  0  0
   -2.3350   -0.0470   -3.0780 N   0  0  0  0  0  0  0  0  0  0  0  0
   -3.1060    1.0210   -3.1700 N   0  0  0  0  0  0  0  0  0  0  0  0
   -3.4930    1.4300   -1.9420 C   0  0  0  0  0  0  0  0  0  0  0  0
   -2.9040    0.5310   -1.0570 C   0  0  0  0  0  0  0  0  0  0  0  0
   -3.0820    0.5340    0.4020 C   0  0  0  0  0  0  0  0  0  0  0  0
   -3.9120    1.6650    0.7830 N   0  0  0  0  0  0  0  0  0  0  0  0
    0.4240   -0.3900   -0.2270 C   0  0  0  0  0  0  0  0  0  0  0  0
   -0.0760    0.8490   -0.7850 N   0  0  0  0  0  0  0  0  0  0  0  0
    1.4130   -0.4000    0.4540 N   0  0  0  0  0  0  0  0  0  0  0  0
    2.4970   -0.2560    1.1720 C   0  0  0  0  0  0  0  0  0  0  0  0
    2.4640    0.4830    2.3660 C   0  0  0  0  0  0  0  0  0  0  0  0
    3.5530    0.6810    3.1680 C   0  0  0  0  0  0  0  0  0  0  0  0
    4.7700    0.1360    2.8130 C   0  0  0  0  0  0  0  0  0  0  0  0
    4.8340   -0.5950    1.6460 C   0  0  0  0  0  0  0  0  0  0  0  0
    3.7470   -0.7960    0.8400 C   0  0  0  0  0  0  0  0  0  0  0  0
    3.9010   -1.5740   -0.3610 N   0  0  0  0  0  0  0  0  0  0  0  0
  1  2  3  0
  2  3  1  0
  3  4  2  3
  3 12  1  0
  4  5  1  0
  5  6  2  0
  5  9  1  0
  6  7  1  0
  7  8  1  0
  8  9  2  0
  9 10  1  0
 10 11  1  0
 12 13  1  0
 12 14  2  3
 14 15  1  0
 15 16  2  0
 15 20  1  0
 16 17  1  0
 17 18  2  0
 18 19  1  0
 19 20  2  0
 20 21  1  0
M  CHG  2   6   1  11   1
M  END
