
     RDKit          3D

 21 22  0  0  0  0  0  0  0  0999 V2000
   -5.4640   -2.4080    0.9250 C   0  0  0  0  0  0  0  0  0  0  0  0
   -4.3820   -1.4750    0.8800 C   0  0  0  0  0  0  0  0  0  0  0  0
   -4.0870   -0.3120    0.4000 C   0  0  0  0  0  0  0  0  0  0  0  0
   -4.9610    0.5450   -0.4250 C   0  0  0  0  0  0  0  0  0  0  0  0
   -5.0250    1.9220    0.0860 N   0  0  0  0  0  0  0  0  0  0  0  0
   -2.7540    0.2330    0.9000 C   0  0  0  0  0  0  0  0  0  0  0  0
   -1.7870    0.5880    0.1230 N   0  0  0  0  0  0  0  0  0  0  0  0
   -0.8970   -0.0330   -0.7760 C   0  0  0  0  0  0  0  0  0  0  0  0
    0.4390    0.1000   -0.0680 C   0  0  0  0  0  0  0  0  0  0  0  0
    0.4850   -0.4840    1.1410 N   0  0  0  0  0  0  0  0  0  0  0  0
    1.6170   -0.6930    1.7990 C   0  0  0  0  0  0  0  0  0  0  0  0
    2.8090   -0.2710    1.1850 C   0  0  0  0  0  0  0  0  0  0  0  0
    2.7510    0.3410   -0.0660 C   0  0  0  0  0  0  0  0  0  0  0  0
    3.9280    0.9860   -0.5120 N   0  0  0  0  0  0  0  0  0  0  0  0
    5.1960    0.3920   -0.2830 C   0  0  0  0  0  0  0  0  0  0  0  0
    6.4450    0.8790   -0.3580 N   0  0  0  0  0  0  0  0  0  0  0  0
    7.3860   -0.0740   -0.1710 C   0  0  0  0  0  0  0  0  0  0  0  0
    6.6660   -1.2120    0.0270 C   0  0  0  0  0  0  0  0  0  0  0  0
    5.3630   -0.9560   -0.0220 N   0  0  0  0  0  0  0  0  0  0  0  0
    1.5400    0.5180   -0.6970 C   0  0  0  0  0  0  0  0  0  0  0  0
    1.5190    1.1720   -1.9650 N   0  0  0  0  0  0  0  0  0  0  0  0
  1  2  1  0
  2  3  2  3
  3  4  1  0
  3  6  1  0
  4  5  1  0
  6  7  1  0
  7  8  1  0
  8  9  1  0
  9 10  2  0
  9 20  1  0
 10 11  1  0
 11 12  2  0
 12 13  1  0
 13 14  1  0
 13 20  2  0
 14 15  1  0
 15 16  1  0
 15 19  2  0
 16 17  1  0
 17 18  2  0
 18 19  1  0
 20 21  1  0
M  CHG  2   5   1  19   1
M  END
