
     RDKit          3D

 27 29  0  0  0  0  0  0  0  0999 V2000
    8.3760    1.4020   -1.5050 C   0  0  0  0  0  0  0  0  0  0  0  0
    7.0170    1.2020   -0.8940 C   0  0  0  0  0  0  0  0  0  0  0  0
    6.1860    2.2050   -0.4470 C   0  0  0  0  0  0  0  0  0  0  0  0
    5.0620    1.5990    0.0300 C   0  0  0  0  0  0  0  0  0  0  0  0
    5.2290    0.2420   -0.1360 C   0  0  0  0  0  0  0  0  0  0  0  0
    4.2910   -0.8270    0.2250 C   0  0  0  0  0  0  0  0  0  0  0  0
    3.1400   -0.5000    0.7760 C   0  0  0  0  0  0  0  0  0  0  0  0
    2.1880   -1.5580    1.1430 C   0  0  0  0  0  0  0  0  0  0  0  0
    0.9130   -1.3430    0.3910 N   0  0  0  0  0  0  0  0  0  0  0  0
    0.2010   -0.2550    0.9650 C   0  0  0  0  0  0  0  0  0  0  0  0
   -1.1710   -0.0180    0.5760 C   0  0  0  0  0  0  0  0  0  0  0  0
   -1.6820    1.0140    1.2310 O   0  0  0  0  0  0  0  0  0  0  0  0
   -1.9660   -0.6800   -0.3250 N   0  0  0  0  0  0  0  0  0  0  0  0
   -1.6400   -1.7920   -1.1650 C   0  0  0  0  0  0  0  0  0  0  0  0
   -2.4160   -3.0210   -0.6820 C   0  0  0  0  0  0  0  0  0  0  0  0
   -3.8780   -2.6820   -0.5880 C   0  0  0  0  0  0  0  0  0  0  0  0
   -4.1730   -1.3870    0.1390 C   0  0  1  0  0  0  0  0  0  0  0  0
   -3.8780   -1.6050    1.5360 N   0  0  0  0  0  0  0  0  0  0  0  0
   -3.4060   -0.2970   -0.4890 C   0  0  1  0  0  0  0  0  0  0  0  0
   -3.7060    1.0700   -0.1380 C   0  0  0  0  0  0  0  0  0  0  0  0
   -4.7180    1.4030    0.7550 C   0  0  0  0  0  0  0  0  0  0  0  0
   -4.9840    2.7180    1.0380 C   0  0  0  0  0  0  0  0  0  0  0  0
   -4.2630    3.7360    0.4530 C   0  0  0  0  0  0  0  0  0  0  0  0
   -4.6340    5.4080    0.8420 Cl  0  0  0  0  0  0  0  0  0  0  0  0
   -3.2640    3.3910   -0.4290 C   0  0  0  0  0  0  0  0  0  0  0  0
   -3.0280    2.1070   -0.6850 N   0  0  0  0  0  0  0  0  0  0  0  0
    6.4020    0.0640   -0.6860 O   0  0  0  0  0  0  0  0  0  0  0  0
  1  2  1  0
  2  3  2  0
  2 27  1  0
  3  4  1  0
  4  5  2  0
  5  6  1  0
  5 27  1  0
  6  7  2  3
  7  8  1  0
  8  9  1  0
  9 10  1  0
 10 11  1  0
 11 12  2  0
 11 13  1  0
 13 14  1  0
 13 19  1  0
 14 15  1  0
 15 16  1  0
 16 17  1  0
 17 18  1  1
 17 19  1  0
 19 20  1  1
 20 21  2  0
 20 26  1  0
 21 22  1  0
 22 23  2  0
 23 24  1  0
 23 25  1  0
 25 26  2  0
M  CHG  2   9   1  26   1
M  END
