
     RDKit          3D

 24 27  0  0  0  0  0  0  0  0999 V2000
    4.3840    3.3340   -0.0390 C   0  0  0  0  0  0  0  0  0  0  0  0
    4.1880    1.8600   -0.0780 C   0  0  0  0  0  0  0  0  0  0  0  0
    5.2670    1.0010   -0.0760 C   0  0  0  0  0  0  0  0  0  0  0  0
    5.0930   -0.3610   -0.1100 C   0  0  0  0  0  0  0  0  0  0  0  0
    3.8140   -0.9450   -0.1480 C   0  0  0  0  0  0  0  0  0  0  0  0
    3.7540   -2.4380   -0.0720 C   0  0  0  0  0  0  0  0  0  0  0  0
    2.7460   -0.1160   -0.1540 C   0  0  0  0  0  0  0  0  0  0  0  0
    1.3620   -0.5330   -0.3100 C   0  0  0  0  0  0  0  0  0  0  0  0
    0.3210    0.1810    0.2570 N   0  0  0  0  0  0  0  0  0  0  0  0
   -0.8600   -0.3340   -0.0890 C   0  0  0  0  0  0  0  0  0  0  0  0
   -0.5830   -1.4050   -0.8980 C   0  0  0  0  0  0  0  0  0  0  0  0
    0.8020   -1.5330   -1.0410 C   0  0  0  0  0  0  0  0  0  0  0  0
    1.3980   -2.5770   -1.9350 C   0  0  0  0  0  0  0  0  0  0  0  0
   -1.6730   -2.2100   -1.4600 C   0  0  0  0  0  0  0  0  0  0  0  0
   -2.9900   -1.7880   -1.1040 N   0  0  0  0  0  0  0  0  0  0  0  0
   -3.2680   -0.6670   -0.2570 C   0  0  0  0  0  0  0  0  0  0  0  0
   -4.5640   -0.3080    0.0540 C   0  0  0  0  0  0  0  0  0  0  0  0
   -4.8490    0.7630    0.8630 C   0  0  0  0  0  0  0  0  0  0  0  0
   -6.2670    1.1420    1.1940 C   0  0  0  0  0  0  0  0  0  0  0  0
   -3.8140    1.5060    1.3830 C   0  0  0  0  0  0  0  0  0  0  0  0
   -4.1360    2.6030    2.2130 N   0  0  0  0  0  0  0  0  0  0  0  0
   -2.4970    1.1500    1.0740 C   0  0  0  0  0  0  0  0  0  0  0  0
   -2.2310    0.0700    0.2590 C   0  0  0  0  0  0  0  0  0  0  0  0
    2.9480    1.2840   -0.1170 C   0  0  0  0  0  0  0  0  0  0  0  0
  1  2  1  0
  2  3  2  0
  2 24  1  0
  3  4  1  0
  4  5  2  0
  5  6  1  0
  5  7  1  0
  7  8  1  0
  7 24  2  0
  8  9  1  0
  8 12  2  0
  9 10  1  0
 10 11  2  0
 10 23  1  0
 11 12  1  0
 11 14  1  0
 12 13  1  0
 14 15  1  0
 15 16  1  0
 16 17  2  0
 16 23  1  0
 17 18  1  0
 18 19  1  0
 18 20  2  0
 20 21  1  0
 20 22  1  0
 22 23  2  0
M  END
