
     RDKit          3D

 24 27  0  0  0  0  0  0  0  0999 V2000
   -5.0080   -1.0700    1.7280 C   0  0  0  0  0  0  0  0  0  0  0  0
   -3.8800   -0.5430    0.9000 C   0  0  0  0  0  0  0  0  0  0  0  0
   -2.6280   -1.0820    1.0330 C   0  0  0  0  0  0  0  0  0  0  0  0
   -1.6100   -0.5690    0.2510 C   0  0  0  0  0  0  0  0  0  0  0  0
   -1.9030    0.4530   -0.6170 C   0  0  0  0  0  0  0  0  0  0  0  0
   -3.1550    0.9910   -0.7490 C   0  0  0  0  0  0  0  0  0  0  0  0
   -3.4370    2.1040   -1.7060 C   0  0  0  0  0  0  0  0  0  0  0  0
   -4.1860    0.4890    0.0260 C   0  0  0  0  0  0  0  0  0  0  0  0
   -5.5690    1.0390   -0.0780 C   0  0  0  0  0  0  0  0  0  0  0  0
   -0.7570    0.9770   -1.4310 C   0  0  0  0  0  0  0  0  0  0  0  0
    0.3330    1.2260   -0.4130 C   0  0  0  0  0  0  0  0  0  0  0  0
    0.7430   -0.0650    0.1080 N   0  0  0  0  0  0  0  0  0  0  0  0
    2.1250   -0.2430    0.3690 C   0  0  0  0  0  0  0  0  0  0  0  0
    2.6290   -0.1960    1.6160 N   0  0  0  0  0  0  0  0  0  0  0  0
    3.9320   -0.3400    1.8930 C   0  0  0  0  0  0  0  0  0  0  0  0
    4.6610   -0.3310    3.0400 N   0  0  0  0  0  0  0  0  0  0  0  0
    5.9490   -0.5250    2.7360 C   0  0  0  0  0  0  0  0  0  0  0  0
    6.0990   -0.6670    1.3810 C   0  0  0  0  0  0  0  0  0  0  0  0
    4.8040   -0.5460    0.8550 C   0  0  0  0  0  0  0  0  0  0  0  0
    4.3610   -0.6070   -0.4520 C   0  0  0  0  0  0  0  0  0  0  0  0
    2.9850   -0.4490   -0.6790 C   0  0  0  0  0  0  0  0  0  0  0  0
    2.4470   -0.5270   -2.0500 C   0  0  0  0  0  0  0  0  0  0  0  0
    3.5440   -0.7650   -2.9630 N   0  0  0  0  0  0  0  0  0  0  0  0
   -0.2280   -1.1160    0.3380 C   0  0  0  0  0  0  0  0  0  0  0  0
  1  2  1  0
  2  3  2  0
  2  8  1  0
  3  4  1  0
  4  5  2  0
  4 24  1  0
  5  6  1  0
  5 10  1  0
  6  7  1  0
  6  8  2  0
  8  9  1  0
 10 11  1  0
 11 12  1  0
 12 13  1  0
 12 24  1  0
 13 14  2  0
 13 21  1  0
 14 15  1  0
 15 16  1  0
 15 19  2  0
 16 17  1  0
 17 18  2  0
 18 19  1  0
 19 20  1  0
 20 21  2  0
 21 22  1  0
 22 23  1  0
M  END
