
     RDKit          3D

 24 27  0  0  0  0  0  0  0  0999 V2000
   -5.8800    1.9760    1.1770 C   0  0  0  0  0  0  0  0  0  0  0  0
   -4.3350    1.7870    1.2460 C   0  0  0  0  0  0  0  0  0  0  0  0
   -4.0170    0.7490    0.2500 C   0  0  0  0  0  0  0  0  0  0  0  0
   -2.6290    0.3470    0.0720 C   0  0  0  0  0  0  0  0  0  0  0  0
   -1.6020    0.8290    0.7130 C   0  0  0  0  0  0  0  0  0  0  0  0
   -1.7280    1.8640    1.7240 N   0  0  0  0  0  0  0  0  0  0  0  0
   -0.2680    0.4210    0.4560 N   0  0  0  0  0  0  0  0  0  0  0  0
    0.0270   -0.6860   -0.3790 C   0  0  2  0  0  0  0  0  0  0  0  0
    1.1220   -0.4300   -1.3000 N   0  0  0  0  0  0  0  0  0  0  0  0
    2.4340   -0.2130   -0.8350 C   0  0  0  0  0  0  0  0  0  0  0  0
    3.4090    0.1930   -1.7420 C   0  0  0  0  0  0  0  0  0  0  0  0
    4.7190    0.4180   -1.3780 C   0  0  0  0  0  0  0  0  0  0  0  0
    5.1110    0.2430   -0.0760 C   0  0  0  0  0  0  0  0  0  0  0  0
    6.4370    0.4820    0.2400 C   0  0  0  0  0  0  0  0  0  0  0  0
    6.8230    0.3040    1.5520 C   0  0  0  0  0  0  0  0  0  0  0  0
    5.8970   -0.0970    2.4910 C   0  0  0  0  0  0  0  0  0  0  0  0
    4.5810   -0.3290    2.1510 C   0  0  0  0  0  0  0  0  0  0  0  0
    4.1720   -0.1570    0.8410 C   0  0  0  0  0  0  0  0  0  0  0  0
    2.8490   -0.3820    0.4640 C   0  0  0  0  0  0  0  0  0  0  0  0
   -1.1610   -1.1860   -1.0820 C   0  0  0  0  0  0  0  0  0  0  0  0
   -2.3670   -0.7470   -0.9020 C   0  0  0  0  0  0  0  0  0  0  0  0
   -3.3420   -1.4990   -1.7810 C   0  0  0  0  0  0  0  0  0  0  0  0
   -2.5840   -2.7880   -2.0220 C   0  0  0  0  0  0  0  0  0  0  0  0
   -1.1760   -2.2780   -2.1300 C   0  0  0  0  0  0  0  0  0  0  0  0
  1  2  1  0
  2  3  1  0
  3  4  1  0
  4  5  2  0
  4 21  1  0
  5  6  1  0
  5  7  1  0
  7  8  1  0
  8  9  1  6
  8 20  1  0
  9 10  1  0
 10 11  2  0
 10 19  1  0
 11 12  1  0
 12 13  2  0
 13 14  1  0
 13 18  1  0
 14 15  2  0
 15 16  1  0
 16 17  2  0
 17 18  1  0
 18 19  2  0
 20 21  2  0
 20 24  1  0
 21 22  1  0
 22 23  1  0
 23 24  1  0
M  END
