
     RDKit          3D

 40 43  0  0  0  0  0  0  0  0999 V2000
   -6.7860    4.9310   -0.7200 C   0  0  0  0  0  0  0  0  0  0  0  0
   -5.8790    4.2240    0.2890 C   0  0  2  0  0  0  0  0  0  0  0  0
   -5.1430    5.2260    0.9300 O   0  0  0  0  0  0  0  0  0  0  0  0
   -4.9640    3.3100   -0.4430 C   0  0  0  0  0  0  0  0  0  0  0  0
   -5.2470    2.9000   -1.7270 C   0  0  0  0  0  0  0  0  0  0  0  0
   -4.3970    2.0610   -2.3840 C   0  0  0  0  0  0  0  0  0  0  0  0
   -3.2030    1.5580   -1.8320 C   0  0  0  0  0  0  0  0  0  0  0  0
   -2.4210    0.7330   -2.5610 O   0  0  0  0  0  0  0  0  0  0  0  0
   -1.2620    0.1100   -2.2310 C   0  0  0  0  0  0  0  0  0  0  0  0
   -1.3470   -0.9320   -1.1210 C   0  0  0  0  0  0  0  0  0  0  0  0
   -0.0400   -1.4510   -0.9350 N   0  0  0  0  0  0  0  0  0  0  0  0
    0.1750   -2.4290    0.0640 C   0  0  1  0  0  0  0  0  0  0  0  0
    1.4910   -2.1600    0.7070 C   0  0  0  0  0  0  0  0  0  0  0  0
    1.9640   -2.7990    1.6690 O   0  0  0  0  0  0  0  0  0  0  0  0
    2.2730   -1.1150    0.2110 O   0  0  0  0  0  0  0  0  0  0  0  0
    3.5380   -0.8080    0.7840 C   0  0  0  0  0  0  0  0  0  0  0  0
    4.1410    0.3360    0.0630 C   0  0  0  0  0  0  0  0  0  0  0  0
    5.2670    0.8160    0.3910 O   0  0  0  0  0  0  0  0  0  0  0  0
    3.4970    0.9660   -1.0420 N   0  0  0  0  0  0  0  0  0  0  0  0
    4.0750    2.0790   -1.7470 C   0  0  0  0  0  0  0  0  0  0  0  0
    4.2960    3.2410   -0.8700 C   0  0  0  0  0  0  0  0  0  0  0  0
    3.4290    4.3040   -0.7280 C   0  0  0  0  0  0  0  0  0  0  0  0
    4.0040    5.1880    0.1910 C   0  0  0  0  0  0  0  0  0  0  0  0
    5.2000    4.5900    0.5470 C   0  0  0  0  0  0  0  0  0  0  0  0
    6.3230    5.3190    1.7060 S   0  0  0  0  0  0  0  0  0  0  0  0
    7.5300    6.3710    0.9250 C   0  0  0  0  0  0  0  0  0  0  0  0
    6.9210    4.3130    2.6500 O   0  0  0  0  0  0  0  0  0  0  0  0
    5.3330    3.4480   -0.0980 O   0  0  0  0  0  0  0  0  0  0  0  0
   -0.8870   -2.5740    1.1130 C   0  0  0  0  0  0  0  0  0  0  0  0
   -1.8590   -3.6730    0.7570 C   0  0  0  0  0  0  0  0  0  0  0  0
   -1.1640   -4.9930    1.0420 C   0  0  1  0  0  0  0  0  0  0  0  0
   -1.0730   -5.1460    2.5390 C   0  0  0  0  0  0  0  0  0  0  0  0
   -1.9080   -6.0040    0.4740 O   0  0  0  0  0  0  0  0  0  0  0  0
   -1.3350   -7.2520    0.6100 C   0  0  0  0  0  0  0  0  0  0  0  0
    0.1730   -7.2130    0.4570 C   0  0  0  0  0  0  0  0  0  0  0  0
    0.4600   -6.1040   -0.3390 O   0  0  0  0  0  0  0  0  0  0  0  0
    0.1880   -4.9290    0.3870 C   0  0  1  0  0  0  0  0  0  0  0  0
    0.3110   -3.8050   -0.6040 C   0  0  0  0  0  0  0  0  0  0  0  0
   -2.9300    1.9730   -0.5540 C   0  0  0  0  0  0  0  0  0  0  0  0
   -3.8040    2.8360    0.1220 C   0  0  0  0  0  0  0  0  0  0  0  0
  2  1  1  6
  2  3  1  0
  2  4  1  0
  4  5  2  0
  4 40  1  0
  5  6  1  0
  6  7  2  0
  7  8  1  0
  7 39  1  0
  8  9  1  0
  9 10  1  0
 10 11  1  0
 12 11  1  6
 12 13  1  0
 12 29  1  0
 12 38  1  0
 13 14  2  0
 13 15  1  0
 15 16  1  0
 16 17  1  0
 17 18  2  0
 17 19  1  0
 19 20  1  0
 20 21  1  0
 21 22  2  0
 21 28  1  0
 22 23  1  0
 23 24  2  0
 24 25  1  0
 24 28  1  0
 25 26  1  6
 25 27  2  0
 29 30  1  0
 30 31  1  0
 31 32  1  1
 31 33  1  0
 31 37  1  0
 33 34  1  0
 34 35  1  0
 35 36  1  0
 36 37  1  0
 37 38  1  6
 39 40  2  0
M  CHG  1  11   1
M  END
