
     RDKit          3D

 39 42  0  0  0  0  0  0  0  0999 V2000
   -6.4310   -0.0570   -3.4480 C   0  0  0  0  0  0  0  0  0  0  0  0
   -6.3350    1.2950   -2.7980 C   0  0  0  0  0  0  0  0  0  0  0  0
   -5.1640    1.4500   -1.9090 C   0  0  0  0  0  0  0  0  0  0  0  0
   -4.0780    2.1760   -2.3310 C   0  0  0  0  0  0  0  0  0  0  0  0
   -2.9550    2.3470   -1.5140 C   0  0  0  0  0  0  0  0  0  0  0  0
   -1.7690    3.1210   -2.0450 C   0  0  0  0  0  0  0  0  0  0  0  0
   -0.6380    2.8110   -1.2270 O   0  0  0  0  0  0  0  0  0  0  0  0
   -0.2610    1.4730   -1.1200 C   0  0  0  0  0  0  0  0  0  0  0  0
   -0.9610    0.6250   -1.7670 O   0  0  0  0  0  0  0  0  0  0  0  0
    0.8920    1.0050   -0.3010 C   0  0  0  0  0  0  0  0  0  0  0  0
    0.7970   -0.4950   -0.0980 C   0  0  0  0  0  0  0  0  0  0  0  0
    1.9730   -0.9450    0.7020 C   0  0  0  0  0  0  0  0  0  0  0  0
    2.3710   -1.0640    1.8080 N   0  0  0  0  0  0  0  0  0  0  0  0
    3.5030   -1.5730    2.2230 C   0  0  0  0  0  0  0  0  0  0  0  0
    3.9580   -1.6340    3.6870 C   0  0  0  0  0  0  0  0  0  0  0  0
    5.0560   -0.1860    3.8340 S   0  0  0  0  0  0  0  0  0  0  0  0
    4.2510    1.0460    3.3950 O   0  0  0  0  0  0  0  0  0  0  0  0
    6.3810   -0.4380    2.6450 C   0  0  0  0  0  0  0  0  0  0  0  0
    6.3250    0.1470    1.4130 C   0  0  0  0  0  0  0  0  0  0  0  0
    7.3220   -0.1350    0.4810 C   0  0  0  0  0  0  0  0  0  0  0  0
    8.3810   -0.9820    0.7270 C   0  0  0  0  0  0  0  0  0  0  0  0
    9.3430   -1.3450   -0.1670 C   0  0  0  0  0  0  0  0  0  0  0  0
   10.2480   -1.7080   -1.0100 C   0  0  0  0  0  0  0  0  0  0  0  0
   11.3020   -2.1040   -1.9840 C   0  0  0  0  0  0  0  0  0  0  0  0
   10.8400   -1.8400   -3.2840 O   0  0  0  0  0  0  0  0  0  0  0  0
    8.4030   -1.5700    2.0240 C   0  0  0  0  0  0  0  0  0  0  0  0
    7.4180   -1.2860    2.9330 C   0  0  0  0  0  0  0  0  0  0  0  0
    4.3490   -2.0390    1.2180 C   0  0  0  0  0  0  0  0  0  0  0  0
    3.4230   -1.6920   -0.2720 S   0  0  0  0  0  0  0  0  0  0  0  0
   -2.9730    1.7700   -0.2850 C   0  0  0  0  0  0  0  0  0  0  0  0
   -4.0730    1.0280    0.1540 C   0  0  0  0  0  0  0  0  0  0  0  0
   -4.0650    0.4060    1.4880 C   0  0  0  0  0  0  0  0  0  0  0  0
   -5.1820    0.8620   -0.6590 C   0  0  0  0  0  0  0  0  0  0  0  0
   -6.2770    0.0870   -0.1830 N   0  0  0  0  0  0  0  0  0  0  0  0
   -7.2940    0.7370    0.5640 C   0  0  0  0  0  0  0  0  0  0  0  0
   -7.2310    1.9770    0.7990 O   0  0  0  0  0  0  0  0  0  0  0  0
   -8.4440   -0.0630    1.0670 C   0  0  2  0  0  0  0  0  0  0  0  0
   -8.1960   -1.4740    1.3980 C   0  0  0  0  0  0  0  0  0  0  0  0
   -9.0060   -1.1020    0.1690 C   0  0  0  0  0  0  0  0  0  0  0  0
  1  2  1  0
  2  3  1  0
  3  4  2  0
  3 33  1  0
  4  5  1  0
  5  6  1  0
  5 30  2  0
  6  7  1  0
  7  8  1  0
  8  9  2  0
  8 10  1  0
 10 11  1  0
 11 12  1  0
 12 13  2  0
 12 29  1  0
 13 14  1  0
 14 15  1  0
 14 28  2  0
 16 15  1  6
 16 17  2  0
 16 18  1  0
 18 19  2  0
 18 27  1  0
 19 20  1  0
 20 21  2  0
 21 22  1  0
 21 26  1  0
 22 23  3  0
 23 24  1  0
 24 25  1  0
 26 27  2  0
 28 29  1  0
 30 31  1  0
 31 32  1  0
 31 33  2  0
 33 34  1  0
 34 35  1  0
 35 36  2  0
 37 35  1  6
 37 38  1  0
 37 39  1  0
 38 39  1  0
M  END
