
     RDKit          3D

 40 44  0  0  0  0  0  0  0  0999 V2000
   -1.1880    1.1790   -4.3900 C   0  0  0  0  0  0  0  0  0  0  0  0
   -0.6410    2.0870   -2.9340 S   0  0  0  0  0  0  0  0  0  0  0  0
    0.2350    1.1210   -1.7680 C   0  0  0  0  0  0  0  0  0  0  0  0
    1.5830    0.8740   -1.6710 C   0  0  0  0  0  0  0  0  0  0  0  0
    1.7950    0.0520   -0.5840 C   0  0  0  0  0  0  0  0  0  0  0  0
    3.1160   -0.4340   -0.1550 C   0  0  2  0  0  0  0  0  0  0  0  0
    3.2240   -1.9610   -0.3120 C   0  0  0  0  0  0  0  0  0  0  0  0
    4.6850   -2.2160   -0.2320 C   0  0  0  0  0  0  0  0  0  0  0  0
    5.2470   -3.0450   -0.9600 O   0  0  0  0  0  0  0  0  0  0  0  0
    5.4180   -1.4550    0.7330 N   0  0  0  0  0  0  0  0  0  0  0  0
    6.8610   -1.3270    0.6690 C   0  0  0  0  0  0  0  0  0  0  0  0
    7.6020   -2.3940    1.4080 C   0  0  0  0  0  0  0  0  0  0  0  0
    8.9740   -2.1170    1.2420 O   0  0  0  0  0  0  0  0  0  0  0  0
    4.6190   -0.8300    1.7640 C   0  0  1  0  0  0  0  0  0  0  0  0
    5.4310   -0.1060    2.8090 C   0  0  0  0  0  0  0  0  0  0  0  0
    3.5050    0.0040    1.2150 C   0  0  0  0  0  0  0  0  0  0  0  0
    0.6170   -0.1800   -0.0540 O   0  0  0  0  0  0  0  0  0  0  0  0
   -0.3410    0.4320   -0.7200 C   0  0  0  0  0  0  0  0  0  0  0  0
   -1.7650    0.3390   -0.3400 C   0  0  1  0  0  0  0  0  0  0  0  0
   -2.4600    1.6050   -0.3620 N   0  0  0  0  0  0  0  0  0  0  0  0
   -1.9180    2.4480    0.6490 C   0  0  0  0  0  0  0  0  0  0  0  0
   -2.3810    3.8430    0.6190 C   0  0  0  0  0  0  0  0  0  0  0  0
   -3.2650    4.3710   -0.2830 C   0  0  0  0  0  0  0  0  0  0  0  0
   -3.6640    5.6920   -0.2630 C   0  0  0  0  0  0  0  0  0  0  0  0
   -3.1570    6.5410    0.7080 C   0  0  0  0  0  0  0  0  0  0  0  0
   -2.2660    6.0200    1.6230 C   0  0  0  0  0  0  0  0  0  0  0  0
   -1.8790    4.6950    1.5850 C   0  0  0  0  0  0  0  0  0  0  0  0
   -0.9680    4.2130    2.5400 O   0  0  0  0  0  0  0  0  0  0  0  0
   -3.6920    7.8250    0.5430 O   0  0  0  0  0  0  0  0  0  0  0  0
   -4.2550    7.8440   -0.7730 C   0  0  0  0  0  0  0  0  0  0  0  0
   -4.5360    6.4650   -1.0530 O   0  0  0  0  0  0  0  0  0  0  0  0
   -2.3800   -0.5010   -1.2290 O   0  0  0  0  0  0  0  0  0  0  0  0
   -2.9460   -1.6330   -0.7400 C   0  0  0  0  0  0  0  0  0  0  0  0
   -2.0980   -2.6020   -0.0420 C   0  0  0  0  0  0  0  0  0  0  0  0
   -2.8380   -3.6940    0.3890 O   0  0  0  0  0  0  0  0  0  0  0  0
   -3.4550   -4.4250   -0.5840 C   0  0  2  0  0  0  0  0  0  0  0  0
   -4.9600   -4.4950   -0.2810 C   0  0  0  0  0  0  0  0  0  0  0  0
   -4.9170   -5.9410   -0.7010 C   0  0  0  0  0  0  0  0  0  0  0  0
   -3.4360   -5.9300   -0.3860 C   0  0  2  0  0  0  0  0  0  0  0  0
   -3.2350   -6.3380    0.9280 O   0  0  0  0  0  0  0  0  0  0  0  0
  1  2  1  0
  2  3  1  0
  3  4  1  0
  3 18  2  0
  4  5  2  0
  6  5  1  1
  5 17  1  0
  6  7  1  0
  6 16  1  0
  7  8  1  0
  8  9  2  0
  8 10  1  0
 10 11  1  0
 10 14  1  0
 11 12  1  0
 12 13  1  0
 14 15  1  6
 14 16  1  0
 17 18  1  0
 18 19  1  0
 19 20  1  6
 19 32  1  0
 20 21  1  0
 21 22  1  0
 22 23  2  0
 22 27  1  0
 23 24  1  0
 24 25  2  0
 24 31  1  0
 25 26  1  0
 25 29  1  0
 26 27  2  0
 27 28  1  0
 29 30  1  0
 30 31  1  0
 32 33  1  0
 33 34  1  0
 34 35  1  0
 36 35  1  1
 36 37  1  0
 36 39  1  0
 37 38  1  0
 38 39  1  0
 39 40  1  1
M  CHG  1  20   1
M  END
