
     RDKit          3D

 40 43  0  0  0  0  0  0  0  0999 V2000
   -1.2460   -0.6900   -3.9020 C   0  0  0  0  0  0  0  0  0  0  0  0
   -0.6700    0.1020   -2.9540 O   0  0  0  0  0  0  0  0  0  0  0  0
   -1.2530    0.0620   -1.6910 C   0  0  0  0  0  0  0  0  0  0  0  0
   -1.1820   -1.2930   -1.0420 C   0  0  0  0  0  0  0  0  0  0  0  0
   -1.7170   -1.4380    0.2070 O   0  0  0  0  0  0  0  0  0  0  0  0
   -1.4440   -0.9090    1.4200 C   0  0  0  0  0  0  0  0  0  0  0  0
   -0.4180    0.0030    1.6950 C   0  0  0  0  0  0  0  0  0  0  0  0
   -0.1470    0.5280    2.9140 C   0  0  0  0  0  0  0  0  0  0  0  0
    0.8560    1.4150    3.1480 O   0  0  0  0  0  0  0  0  0  0  0  0
    1.8380    1.9930    2.3760 C   0  0  0  0  0  0  0  0  0  0  0  0
    1.3310    2.7590    1.2600 C   0  0  0  0  0  0  0  0  0  0  0  0
    1.5490    2.5870   -0.0160 C   0  0  0  0  0  0  0  0  0  0  0  0
    0.9060    3.5260   -0.9890 C   0  0  0  0  0  0  0  0  0  0  0  0
    1.6710    3.7860   -2.1610 N   0  0  0  0  0  0  0  0  0  0  0  0
    2.4460    2.7450   -2.6470 C   0  0  0  0  0  0  0  0  0  0  0  0
    2.8040    1.6710   -1.9780 C   0  0  0  0  0  0  0  0  0  0  0  0
    2.3600    1.5400   -0.5920 C   0  0  0  0  0  0  0  0  0  0  0  0
    2.6990    0.5060    0.0830 O   0  0  0  0  0  0  0  0  0  0  0  0
    3.5960    0.5700   -2.5770 C   0  0  1  0  0  0  0  0  0  0  0  0
    2.6170   -0.1860   -3.4910 C   0  0  0  0  0  0  0  0  0  0  0  0
    3.4730   -0.7710   -4.5740 C   0  0  0  0  0  0  0  0  0  0  0  0
    4.8180   -0.1490   -4.4910 C   0  0  0  0  0  0  0  0  0  0  0  0
    4.7710    0.8930   -3.3750 C   0  0  2  0  0  0  0  0  0  0  0  0
    6.0700    0.7610   -2.5670 C   0  0  0  0  0  0  0  0  0  0  0  0
    4.8390    2.2310   -4.0420 C   0  0  0  0  0  0  0  0  0  0  0  0
    3.1150    2.7600   -4.3520 S   0  0  0  0  0  0  0  0  0  0  0  0
   -0.9350    0.1530    4.0230 C   0  0  0  0  0  0  0  0  0  0  0  0
   -0.6440    0.6910    5.2640 O   0  0  0  0  0  0  0  0  0  0  0  0
   -1.1950    1.9060    5.7030 C   0  0  0  0  0  0  0  0  0  0  0  0
   -1.9480   -0.7350    3.7960 C   0  0  0  0  0  0  0  0  0  0  0  0
   -2.7520   -1.1310    4.8680 O   0  0  0  0  0  0  0  0  0  0  0  0
   -2.2130   -1.2610    2.5470 C   0  0  0  0  0  0  0  0  0  0  0  0
   -3.2380   -2.1570    2.2930 O   0  0  0  0  0  0  0  0  0  0  0  0
   -4.6050   -1.7810    2.2150 C   0  0  0  0  0  0  0  0  0  0  0  0
   -5.3950   -3.0250    1.8030 C   0  0  1  0  0  0  0  0  0  0  0  0
   -4.9210   -3.2940    0.4770 O   0  0  0  0  0  0  0  0  0  0  0  0
   -4.8730   -4.2170    2.5940 C   0  0  0  0  0  0  0  0  0  0  0  0
   -5.2530   -4.1410    3.9750 N   0  0  0  0  0  0  0  0  0  0  0  0
   -6.6050   -4.1150    4.3610 C   0  0  0  0  0  0  0  0  0  0  0  0
   -7.5470   -4.1530    3.5260 O   0  0  0  0  0  0  0  0  0  0  0  0
  1  2  1  0
  2  3  1  0
  3  4  1  0
  4  5  1  0
  5  6  1  0
  6  7  2  0
  6 32  1  0
  7  8  1  0
  8  9  1  0
  8 27  2  0
  9 10  1  0
 10 11  1  0
 11 12  2  3
 12 13  1  0
 12 17  1  0
 13 14  1  0
 14 15  1  0
 15 16  2  0
 15 26  1  0
 16 17  1  0
 16 19  1  0
 17 18  2  0
 19 20  1  6
 19 23  1  0
 20 21  1  0
 21 22  1  0
 22 23  1  0
 23 24  1  1
 23 25  1  0
 25 26  1  0
 27 28  1  0
 27 30  1  0
 28 29  1  0
 30 31  1  0
 30 32  2  0
 32 33  1  0
 33 34  1  0
 34 35  1  0
 35 36  1  6
 35 37  1  0
 37 38  1  0
 38 39  1  0
 39 40  2  0
M  CHG  1  14   1
M  END
