
     RDKit          3D

  8  7  0  0  0  0  0  0  0  0999 V2000
   -3.0310    0.1310    0.5730 C   0  0  0  0  0  0  0  0  0  0  0  0
   -2.6120   -0.0960   -0.7370 O   0  0  0  0  0  0  0  0  0  0  0  0
   -1.3230    0.3860   -0.9390 C   0  0  0  0  0  0  0  0  0  0  0  0
   -0.4840   -0.2760   -0.0620 O   0  0  0  0  0  0  0  0  0  0  0  0
    0.8370    0.1080   -0.1560 C   0  0  1  0  0  0  0  0  0  0  0  0
    1.4070    0.6700    1.1070 C   0  0  0  0  0  0  0  0  0  0  0  0
    1.6890   -1.0660   -0.6020 C   0  0  0  0  0  0  0  0  0  0  0  0
    3.0180   -0.6730   -0.6940 O   0  0  0  0  0  0  0  0  0  0  0  0
  1  2  1  0
  2  3  1  0
  3  4  1  0
  4  5  1  0
  5  6  1  1
  5  7  1  0
  7  8  1  0
M  END
