
     RDKit          3D

  8  7  0  0  0  0  0  0  0  0999 V2000
   -3.3860   -0.3530   -0.1350 C   0  0  0  0  0  0  0  0  0  0  0  0
   -2.2700    0.6950   -0.0810 C   0  0  0  0  0  0  0  0  0  0  0  0
   -1.0590    0.0040   -0.2120 O   0  0  0  0  0  0  0  0  0  0  0  0
    0.1740    0.6430   -0.2070 C   0  0  0  0  0  0  0  0  0  0  0  0
    0.1590    1.8890   -0.0770 O   0  0  0  0  0  0  0  0  0  0  0  0
    1.3790   -0.1830   -0.3510 C   0  0  0  0  0  0  0  0  0  0  0  0
    2.5520    0.5420   -0.3340 O   0  0  0  0  0  0  0  0  0  0  0  0
    3.6030   -0.3770   -0.4810 C   0  0  0  0  0  0  0  0  0  0  0  0
  1  2  1  0
  2  3  1  0
  3  4  1  0
  4  5  2  0
  4  6  1  0
  6  7  1  0
  7  8  1  0
M  END
