
     RDKit          3D

  8  7  0  0  0  0  0  0  0  0999 V2000
    2.8820    0.8580   -0.0710 C   0  0  0  0  0  0  0  0  0  0  0  0
    1.7030    0.4480   -0.7350 O   0  0  0  0  0  0  0  0  0  0  0  0
    0.8540   -0.5220   -0.1920 C   0  0  0  0  0  0  0  0  0  0  0  0
    1.2050   -0.9990    0.9110 O   0  0  0  0  0  0  0  0  0  0  0  0
   -0.3850   -0.9230   -0.9230 C   0  0  0  0  0  0  0  0  0  0  0  0
   -1.5320   -1.0020    0.0830 C   0  0  0  0  0  0  0  0  0  0  0  0
   -1.7120    0.3530    0.7480 C   0  0  0  0  0  0  0  0  0  0  0  0
   -2.0000    1.3300   -0.2020 O   0  0  0  0  0  0  0  0  0  0  0  0
  1  2  1  0
  2  3  1  0
  3  4  2  0
  3  5  1  0
  5  6  1  0
  6  7  1  0
  7  8  1  0
M  END
