
     RDKit          3D

  8  7  0  0  0  0  0  0  0  0999 V2000
    3.6380   -0.3650    0.0520 C   0  0  0  0  0  0  0  0  0  0  0  0
    2.3110   -0.7060    0.2720 O   0  0  0  0  0  0  0  0  0  0  0  0
    1.4250    0.1580   -0.3590 C   0  0  0  0  0  0  0  0  0  0  0  0
    0.1360   -0.2920   -0.0600 O   0  0  0  0  0  0  0  0  0  0  0  0
   -0.8300    0.5170   -0.6530 C   0  0  0  0  0  0  0  0  0  0  0  0
   -2.1900   -0.0240   -0.2910 C   0  0  2  0  0  0  0  0  0  0  0  0
   -2.3710    0.0670    1.2140 C   0  0  0  0  0  0  0  0  0  0  0  0
   -2.3320   -1.3160   -0.7430 O   0  0  0  0  0  0  0  0  0  0  0  0
  1  2  1  0
  2  3  1  0
  3  4  1  0
  4  5  1  0
  5  6  1  0
  6  7  1  1
  6  8  1  0
M  END
