
     RDKit          3D

  8  8  0  0  0  0  0  0  0  0999 V2000
    2.6070    0.5390    0.3660 C   0  0  0  0  0  0  0  0  0  0  0  0
    1.5510    0.0030    1.0810 O   0  0  0  0  0  0  0  0  0  0  0  0
    0.4300    0.0170    0.2340 C   0  0  1  0  0  0  0  0  0  0  0  0
   -0.1050   -1.3860    0.1540 C   0  0  0  0  0  0  0  0  0  0  0  0
   -1.4220   -1.4820   -0.1630 O   0  0  0  0  0  0  0  0  0  0  0  0
   -2.0270   -0.3610   -0.6390 C   0  0  0  0  0  0  0  0  0  0  0  0
   -1.5960    0.9220   -0.0070 C   0  0  0  0  0  0  0  0  0  0  0  0
   -0.5240    0.8070    0.8490 O   0  0  0  0  0  0  0  0  0  0  0  0
  1  2  1  0
  3  2  1  1
  3  4  1  0
  3  8  1  0
  4  5  1  0
  5  6  1  0
  6  7  1  0
  7  8  1  0
M  END
