
     RDKit          3D

 26 28  0  0  0  0  0  0  0  0999 V2000
   -4.5910   -1.0580    1.4510 C   0  0  0  0  0  0  0  0  0  0  0  0
   -4.3600   -0.2780    0.2270 C   0  0  1  0  0  0  0  0  0  0  0  0
   -5.5970   -0.3410   -0.6280 C   0  0  0  0  0  0  0  0  0  0  0  0
   -6.8570    0.1960   -0.3170 N   0  0  0  0  0  0  0  0  0  0  0  0
   -5.4880   -0.9380   -1.7650 O   0  0  0  0  0  0  0  0  0  0  0  0
   -3.9330    1.0910    0.3910 N   0  0  0  0  0  0  0  0  0  0  0  0
   -3.4390    1.7640   -0.7660 C   0  0  0  0  0  0  0  0  0  0  0  0
   -2.9060    2.8930   -0.7430 O   0  0  0  0  0  0  0  0  0  0  0  0
   -3.5840    1.0480   -2.0490 C   0  0  0  0  0  0  0  0  0  0  0  0
   -3.4250   -0.2940   -1.9550 O   0  0  0  0  0  0  0  0  0  0  0  0
   -3.3060   -0.8770   -0.6950 C   0  0  1  0  0  0  0  0  0  0  0  0
   -1.9220   -0.6750   -0.2390 C   0  0  0  0  0  0  0  0  0  0  0  0
   -0.9350    0.1050   -0.8410 C   0  0  0  0  0  0  0  0  0  0  0  0
    0.2890    0.0750   -0.2820 C   0  0  0  0  0  0  0  0  0  0  0  0
    0.5230   -0.6690    0.7860 C   0  0  0  0  0  0  0  0  0  0  0  0
    1.7580   -0.9460    1.4900 N   0  0  0  0  0  0  0  0  0  0  0  0
    2.9100   -0.2840    1.0230 C   0  0  0  0  0  0  0  0  0  0  0  0
    2.7730    0.6160    0.1650 O   0  0  0  0  0  0  0  0  0  0  0  0
    4.2450   -0.5610    1.4300 N   0  0  0  0  0  0  0  0  0  0  0  0
    5.4280    0.0840    0.9690 C   0  0  1  0  0  0  0  0  0  0  0  0
    6.3450   -0.8740    0.2450 C   0  0  0  0  0  0  0  0  0  0  0  0
    7.3040    0.0050   -0.3930 N   0  0  0  0  0  0  0  0  0  0  0  0
    6.5710    1.1980   -0.6320 C   0  0  0  0  0  0  0  0  0  0  0  0
    7.0210    2.2390   -1.2210 O   0  0  0  0  0  0  0  0  0  0  0  0
    5.2290    1.0570   -0.1090 N   0  0  0  0  0  0  0  0  0  0  0  0
   -1.0240   -1.3940    1.0920 S   0  0  0  0  0  0  0  0  0  0  0  0
  2  1  1  1
  2  3  1  0
  2  6  1  0
  2 11  1  0
  3  4  1  0
  3  5  2  0
  6  7  1  0
  7  8  2  0
  7  9  1  0
  9 10  1  0
 10 11  1  0
 11 12  1  1
 12 13  2  0
 12 26  1  0
 13 14  1  0
 14 15  2  0
 15 16  1  0
 15 26  1  0
 16 17  1  0
 17 18  2  0
 17 19  1  0
 20 19  1  6
 20 21  1  0
 20 25  1  0
 21 22  1  0
 22 23  1  0
 23 24  2  0
 23 25  1  0
M  CHG  1  22   1
M  END
