
     RDKit          3D

 26 28  0  0  0  0  0  0  0  0999 V2000
    0.8220   -2.4660    1.2710 C   0  0  0  0  0  0  0  0  0  0  0  0
    0.1730   -1.3120    0.6370 C   0  0  2  0  0  0  0  0  0  0  0  0
    0.9240   -0.3870   -0.2360 C   0  0  0  0  0  0  0  0  0  0  0  0
    1.6110   -0.9120   -1.4270 C   0  0  1  0  0  0  0  0  0  0  0  0
    2.1490    0.3920   -2.1500 C   0  0  0  0  0  0  0  0  0  0  0  0
    2.8210    0.0360   -3.2940 O   0  0  0  0  0  0  0  0  0  0  0  0
    2.9470   -1.6050   -1.1390 C   0  0  0  0  0  0  0  0  0  0  0  0
    3.9420   -0.8400   -0.6040 O   0  0  0  0  0  0  0  0  0  0  0  0
    4.0940   -0.1540    0.5460 C   0  0  0  0  0  0  0  0  0  0  0  0
    3.8940   -0.8640    1.6290 N   0  0  0  0  0  0  0  0  0  0  0  0
    4.4390    1.2120    0.6970 N   0  0  0  0  0  0  0  0  0  0  0  0
   -0.2400   -0.4280    1.7970 N   0  0  0  0  0  0  0  0  0  0  0  0
   -0.8240    0.7150    1.2660 N   0  0  0  0  0  0  0  0  0  0  0  0
   -2.0710    0.5070    0.5030 C   0  0  0  0  0  0  0  0  0  0  0  0
   -2.1130   -0.7390   -0.0830 C   0  0  0  0  0  0  0  0  0  0  0  0
   -3.6790   -0.7290   -0.9230 S   0  0  0  0  0  0  0  0  0  0  0  0
   -4.1840    0.9310   -0.4450 C   0  0  0  0  0  0  0  0  0  0  0  0
   -5.2900    1.6980   -0.6960 C   0  0  0  0  0  0  0  0  0  0  0  0
   -6.1910    1.1910   -1.4110 O   0  0  0  0  0  0  0  0  0  0  0  0
   -5.3770    2.9480   -0.1810 N   0  0  0  0  0  0  0  0  0  0  0  0
   -4.3450    3.3600    0.5610 C   0  0  0  0  0  0  0  0  0  0  0  0
   -4.4190    4.5520    1.0580 O   0  0  0  0  0  0  0  0  0  0  0  0
   -3.2720    2.6210    0.8080 N   0  0  0  0  0  0  0  0  0  0  0  0
   -3.1040    1.3420    0.3240 C   0  0  0  0  0  0  0  0  0  0  0  0
   -1.1000   -1.7900   -0.0130 C   0  0  1  0  0  0  0  0  0  0  0  0
   -0.8520   -2.2790   -1.2780 O   0  0  0  0  0  0  0  0  0  0  0  0
  2  1  1  1
  2  3  1  0
  2 12  1  0
  2 25  1  0
  4  3  1  1
  4  5  1  0
  4  7  1  0
  5  6  1  0
  7  8  1  0
  8  9  1  0
  9 10  2  0
  9 11  1  0
 12 13  1  0
 13 14  1  0
 14 15  2  0
 14 24  1  0
 15 16  1  0
 15 25  1  0
 16 17  1  0
 17 18  1  0
 17 24  2  0
 18 19  2  0
 18 20  1  0
 20 21  1  0
 21 22  2  0
 21 23  1  0
 23 24  1  0
 25 26  1  6
M  CHG  1  12   1
M  END
