
     RDKit          3D

 21 24  0  0  0  0  0  0  0  0999 V2000
   -3.9710    0.2430   -0.0220 C   0  0  0  0  0  0  0  0  0  0  0  0
   -2.9400   -0.8740   -0.2620 C   0  0  2  0  0  0  0  0  0  0  0  0
   -2.6550   -1.3990    0.9570 O   0  0  0  0  0  0  0  0  0  0  0  0
   -1.5500   -2.1670    0.9070 C   0  0  0  0  0  0  0  0  0  0  0  0
   -0.3250   -1.3710    0.5490 C   0  0  1  0  0  0  0  0  0  0  0  0
    0.4640   -2.2800   -0.3400 C   0  0  0  0  0  0  0  0  0  0  0  0
    1.8950   -1.9220   -0.1120 C   0  0  0  0  0  0  0  0  0  0  0  0
    2.8280   -2.7350    0.3530 C   0  0  0  0  0  0  0  0  0  0  0  0
    4.0700   -1.9260    0.4000 C   0  0  0  0  0  0  0  0  0  0  0  0
    3.6960   -0.5860   -0.0940 C   0  0  0  0  0  0  0  0  0  0  0  0
    2.4200   -0.5990   -0.3890 C   0  0  0  0  0  0  0  0  0  0  0  0
    1.6660    0.5120   -0.8950 C   0  0  0  0  0  0  0  0  0  0  0  0
    0.4340    0.9330   -0.1260 C   0  0  1  0  0  0  0  0  0  0  0  0
    1.0390    1.2740    1.2600 C   0  0  0  0  0  0  0  0  0  0  0  0
    1.5020    2.7380    1.1130 C   0  0  0  0  0  0  0  0  0  0  0  0
    0.1650    3.2620    0.5490 C   0  0  0  0  0  0  0  0  0  0  0  0
    0.1820    2.3000   -0.6480 C   0  0  0  0  0  0  0  0  0  0  0  0
   -0.6750    0.0020   -0.0010 C   0  0  2  0  0  0  0  0  0  0  0  0
   -1.4230    0.5120    1.1190 O   0  0  0  0  0  0  0  0  0  0  0  0
   -1.7090   -0.2540   -0.9760 C   0  0  2  0  0  0  0  0  0  0  0  0
   -2.3130    0.7320   -1.8950 C   0  0  0  0  0  0  0  0  0  0  0  0
  2  1  1  1
  2  3  1  0
  2 20  1  0
  3  4  1  0
  5  4  1  6
  5  6  1  0
  5 18  1  0
  6  7  1  0
  7  8  2  0
  7 11  1  0
  8  9  1  0
  9 10  1  0
 10 11  2  0
 11 12  1  0
 13 12  1  6
 13 14  1  0
 13 17  1  0
 13 18  1  0
 14 15  1  0
 15 16  1  0
 16 17  1  0
 18 19  1  1
 18 20  1  0
 20 21  1  1
M  END
