
     RDKit          3D

 27 29  0  0  0  0  0  0  0  0999 V2000
   -6.3600   -2.6340   -0.9590 C   0  0  0  0  0  0  0  0  0  0  0  0
   -5.0690   -2.1430   -0.7640 O   0  0  0  0  0  0  0  0  0  0  0  0
   -4.6600   -0.8330   -0.9140 C   0  0  0  0  0  0  0  0  0  0  0  0
   -5.5390    0.1450   -1.2890 C   0  0  0  0  0  0  0  0  0  0  0  0
   -5.0970    1.4390   -1.4290 C   0  0  0  0  0  0  0  0  0  0  0  0
   -3.7610    1.6980   -1.1790 C   0  0  0  0  0  0  0  0  0  0  0  0
   -3.3160    3.0460   -1.3250 N   0  0  0  0  0  0  0  0  0  0  0  0
   -2.8690    0.7040   -0.7970 C   0  0  0  0  0  0  0  0  0  0  0  0
   -3.3120   -0.5880   -0.6580 C   0  0  0  0  0  0  0  0  0  0  0  0
   -2.5010   -1.6460   -0.2810 O   0  0  0  0  0  0  0  0  0  0  0  0
   -1.2500   -1.6170   -0.0020 C   0  0  0  0  0  0  0  0  0  0  0  0
    0.1250   -1.5860    0.3050 C   0  0  0  0  0  0  0  0  0  0  0  0
    0.7300   -2.6410    0.7090 O   0  0  0  0  0  0  0  0  0  0  0  0
    0.9320   -0.4270    0.1960 N   0  0  0  0  0  0  0  0  0  0  0  0
    2.2980   -0.3500    0.4890 C   0  0  0  0  0  0  0  0  0  0  0  0
    3.0600   -1.3510    1.0300 C   0  0  0  0  0  0  0  0  0  0  0  0
    4.4210   -1.2320    1.3140 C   0  0  0  0  0  0  0  0  0  0  0  0
    5.3660   -2.0720    1.8420 C   0  0  0  0  0  0  0  0  0  0  0  0
    6.5020   -1.4130    1.8790 O   0  0  0  0  0  0  0  0  0  0  0  0
    6.3510   -0.2060    1.4110 C   0  0  0  0  0  0  0  0  0  0  0  0
    5.0350   -0.0540    1.0410 C   0  0  0  0  0  0  0  0  0  0  0  0
    4.3030    1.0010    0.4880 C   0  0  0  0  0  0  0  0  0  0  0  0
    5.1590    2.4760    0.1550 S   0  0  1  0  0  0  0  0  0  0  0  0
    5.5410    2.5080   -1.2980 O   0  0  0  0  0  0  0  0  0  0  0  0
    4.4190    3.7050    0.5960 O   0  0  0  0  0  0  0  0  0  0  0  0
    2.9730    0.8650    0.2180 C   0  0  0  0  0  0  0  0  0  0  0  0
    2.1930    1.9580   -0.3670 C   0  0  0  0  0  0  0  0  0  0  0  0
  1  2  1  0
  2  3  1  0
  3  4  2  0
  3  9  1  0
  4  5  1  0
  5  6  2  0
  6  7  1  0
  6  8  1  0
  8  9  2  0
  9 10  1  0
 10 11  1  0
 11 12  1  0
 12 13  2  0
 12 14  1  0
 14 15  1  0
 15 16  2  0
 15 26  1  0
 16 17  1  0
 17 18  2  0
 17 21  1  0
 18 19  1  0
 19 20  1  0
 20 21  2  0
 21 22  1  0
 23 22  1  6
 22 26  2  0
 23 24  2  0
 23 25  2  0
 26 27  1  0
M  END
