
     RDKit          3D

 27 29  0  0  0  0  0  0  0  0999 V2000
   -3.7750   -0.2320    3.8610 C   0  0  0  0  0  0  0  0  0  0  0  0
   -3.8920   -0.0990    2.4580 O   0  0  0  0  0  0  0  0  0  0  0  0
   -2.7320   -0.0650    1.6870 C   0  0  0  0  0  0  0  0  0  0  0  0
   -1.6460   -0.1500    2.2420 O   0  0  0  0  0  0  0  0  0  0  0  0
   -2.8410    0.0760    0.1960 C   0  0  0  0  0  0  0  0  0  0  0  0
   -1.6900    0.1080   -0.5480 C   0  0  0  0  0  0  0  0  0  0  0  0
   -0.3140    0.0350   -0.2230 N   0  0  0  0  0  0  0  0  0  0  0  0
    0.6900    0.0920   -1.1940 C   0  0  0  0  0  0  0  0  0  0  0  0
    0.2670    0.2160   -2.3980 O   0  0  0  0  0  0  0  0  0  0  0  0
    2.1100    0.0280   -0.9830 C   0  0  0  0  0  0  0  0  0  0  0  0
    2.9210    0.0590   -2.2270 C   0  0  0  0  0  0  0  0  0  0  0  0
    2.2540    0.1750   -3.4710 N   0  0  0  0  0  0  0  0  0  0  0  0
    4.1440   -0.0160   -2.1640 O   0  0  0  0  0  0  0  0  0  0  0  0
    2.6900   -0.0960    0.1750 C   0  0  0  0  0  0  0  0  0  0  0  0
    1.9150   -0.1880    1.3420 O   0  0  0  0  0  0  0  0  0  0  0  0
    4.1200   -0.1420    0.4120 C   0  0  0  0  0  0  0  0  0  0  0  0
    5.0370    0.8290    0.0950 C   0  0  0  0  0  0  0  0  0  0  0  0
    6.3090    0.4010    0.4840 C   0  0  0  0  0  0  0  0  0  0  0  0
    6.0820   -0.8410    1.0310 C   0  0  0  0  0  0  0  0  0  0  0  0
    7.1530   -1.7030    1.5940 C   0  0  0  0  0  0  0  0  0  0  0  0
    4.8160   -1.1100    0.9690 O   0  0  0  0  0  0  0  0  0  0  0  0
   -2.2700    0.2840   -2.2650 S   0  0  0  0  0  0  0  0  0  0  0  0
   -3.9880    0.3000   -1.8440 C   0  0  0  0  0  0  0  0  0  0  0  0
   -4.0170    0.1750   -0.4810 C   0  0  0  0  0  0  0  0  0  0  0  0
   -5.5060    0.1790   -0.1060 C   0  0  0  0  0  0  0  0  0  0  0  0
   -6.0760    1.0350   -1.2080 C   0  0  0  0  0  0  0  0  0  0  0  0
   -5.3740    0.4080   -2.4100 C   0  0  0  0  0  0  0  0  0  0  0  0
  1  2  1  0
  2  3  1  0
  3  4  2  0
  3  5  1  0
  5  6  2  0
  5 24  1  0
  6  7  1  0
  6 22  1  0
  7  8  1  0
  8  9  2  0
  8 10  1  0
 10 11  1  0
 10 14  2  3
 11 12  1  0
 11 13  2  0
 14 15  1  0
 14 16  1  0
 16 17  2  0
 16 21  1  0
 17 18  1  0
 18 19  2  0
 19 20  1  0
 19 21  1  0
 22 23  1  0
 23 24  2  0
 23 27  1  0
 24 25  1  0
 25 26  1  0
 26 27  1  0
M  END
