
     RDKit          3D

 13 14  0  0  0  0  0  0  0  0999 V2000
    2.9330    1.2740    1.1440 C   0  0  0  0  0  0  0  0  0  0  0  0
    3.7480    0.1880    1.3730 C   0  0  0  0  0  0  0  0  0  0  0  0
    3.3350   -0.9810    0.8580 N   0  0  0  0  0  0  0  0  0  0  0  0
    2.1890   -1.1140    0.1510 C   0  0  0  0  0  0  0  0  0  0  0  0
    1.3450   -0.0560   -0.1020 C   0  0  0  0  0  0  0  0  0  0  0  0
    0.1340   -0.1640   -0.8290 N   0  0  0  0  0  0  0  0  0  0  0  0
   -0.5040    1.0950   -1.2140 C   0  0  0  0  0  0  0  0  0  0  0  0
   -1.5400    1.5210   -0.2170 C   0  0  0  0  0  0  0  0  0  0  0  0
   -1.9360    0.4070    0.7230 C   0  0  0  0  0  0  0  0  0  0  0  0
   -2.4760   -0.7030   -0.0390 N   0  0  0  0  0  0  0  0  0  0  0  0
   -1.5020   -1.7780   -0.0870 C   0  0  0  0  0  0  0  0  0  0  0  0
   -0.4270   -1.4590   -1.1410 C   0  0  0  0  0  0  0  0  0  0  0  0
    1.7620    1.1620    0.4270 C   0  0  0  0  0  0  0  0  0  0  0  0
  1  2  2  0
  1 13  1  0
  2  3  1  0
  3  4  2  0
  4  5  1  0
  5  6  1  0
  5 13  2  0
  6  7  1  0
  6 12  1  0
  7  8  1  0
  8  9  1  0
  9 10  1  0
 10 11  1  0
 11 12  1  0
M  CHG  1  10   1
M  END
