
     RDKit          3D

 27 29  0  0  0  0  0  0  0  0999 V2000
   -3.7370   -2.6390   -0.1650 C   0  0  0  0  0  0  0  0  0  0  0  0
   -5.0850   -1.4550   -0.1860 S   0  0  0  0  0  0  0  0  0  0  0  0
   -4.5230    0.2140    0.1250 C   0  0  0  0  0  0  0  0  0  0  0  0
   -3.1910    0.5190    0.3510 C   0  0  0  0  0  0  0  0  0  0  0  0
   -2.7430    1.7960    0.5910 C   0  0  0  0  0  0  0  0  0  0  0  0
   -1.4590    2.1240    0.8120 O   0  0  0  0  0  0  0  0  0  0  0  0
   -0.2680    1.4720    0.8640 C   0  0  0  0  0  0  0  0  0  0  0  0
    0.2150    0.7940   -0.3690 C   0  0  0  0  0  0  0  0  0  0  0  0
    1.5610    0.1320   -0.0950 C   0  0  0  0  0  0  0  0  0  0  0  0
    2.0100    0.2550    1.0290 O   0  0  0  0  0  0  0  0  0  0  0  0
    2.2230   -0.5690   -1.0860 N   0  0  0  0  0  0  0  0  0  0  0  0
    3.4180   -1.2270   -1.1500 N   0  0  0  0  0  0  0  0  0  0  0  0
    3.7140   -2.1510   -2.1470 C   0  0  0  0  0  0  0  0  0  0  0  0
    2.8820   -2.4900   -3.0410 O   0  0  0  0  0  0  0  0  0  0  0  0
    4.9280   -2.5570   -1.9760 O   0  0  0  0  0  0  0  0  0  0  0  0
    5.4810   -1.9840   -0.9460 C   0  0  0  0  0  0  0  0  0  0  0  0
    6.7300   -2.0780   -0.3720 C   0  0  0  0  0  0  0  0  0  0  0  0
    7.0630   -1.3320    0.7360 C   0  0  0  0  0  0  0  0  0  0  0  0
    6.1550   -0.4700    1.3000 C   0  0  0  0  0  0  0  0  0  0  0  0
    6.4740    0.3030    2.4290 O   0  0  0  0  0  0  0  0  0  0  0  0
    4.8980   -0.3860    0.7100 C   0  0  0  0  0  0  0  0  0  0  0  0
    4.5230   -1.1170   -0.3960 C   0  0  0  0  0  0  0  0  0  0  0  0
   -3.7200    2.8070    0.5970 C   0  0  0  0  0  0  0  0  0  0  0  0
   -3.2850    4.1060    0.8390 O   0  0  0  0  0  0  0  0  0  0  0  0
   -5.0370    2.5010    0.3730 C   0  0  0  0  0  0  0  0  0  0  0  0
   -5.4690    1.2130    0.1340 C   0  0  0  0  0  0  0  0  0  0  0  0
   -6.9090    0.9170   -0.1060 C   0  0  0  0  0  0  0  0  0  0  0  0
  1  2  1  0
  2  3  1  0
  3  4  2  0
  3 26  1  0
  4  5  1  0
  5  6  1  0
  5 23  2  0
  6  7  1  0
  7  8  1  0
  8  9  1  0
  9 10  2  0
  9 11  1  0
 11 12  1  0
 12 13  1  0
 12 22  1  0
 13 14  2  0
 13 15  1  0
 15 16  1  0
 16 17  2  0
 16 22  1  0
 17 18  1  0
 18 19  2  0
 19 20  1  0
 19 21  1  0
 21 22  2  0
 23 24  1  0
 23 25  1  0
 25 26  2  0
 26 27  1  0
M  END
