
     RDKit          3D

 27 29  0  0  0  0  0  0  0  0999 V2000
    7.0310   -2.3990    0.8900 N   0  0  0  0  0  0  0  0  0  0  0  0
    5.6750   -2.0560    1.1020 C   0  0  0  0  0  0  0  0  0  0  0  0
    5.0240   -2.7440    1.9170 O   0  0  0  0  0  0  0  0  0  0  0  0
    5.0310   -0.9520    0.4160 C   0  0  0  0  0  0  0  0  0  0  0  0
    3.7060   -0.6540    0.6540 C   0  0  0  0  0  0  0  0  0  0  0  0
    3.0590    0.3910    0.0180 C   0  0  0  0  0  0  0  0  0  0  0  0
    1.6180    0.6950    0.2930 C   0  0  0  0  0  0  0  0  0  0  0  0
    0.8190   -0.1200   -0.7070 C   0  0  0  0  0  0  0  0  0  0  0  0
   -0.5630    0.0560   -0.5790 O   0  0  0  0  0  0  0  0  0  0  0  0
   -1.2110    1.2530   -0.7160 C   0  0  0  0  0  0  0  0  0  0  0  0
   -0.5720    2.2850   -0.9720 O   0  0  0  0  0  0  0  0  0  0  0  0
   -2.6730    1.2820   -0.5530 C   0  0  0  0  0  0  0  0  0  0  0  0
   -3.3330    2.4850   -0.6900 C   0  0  0  0  0  0  0  0  0  0  0  0
   -4.6870    2.5620   -0.5480 C   0  0  0  0  0  0  0  0  0  0  0  0
   -5.3770    1.4080   -0.2650 C   0  0  0  0  0  0  0  0  0  0  0  0
   -6.7190    1.1540   -0.0660 C   0  0  0  0  0  0  0  0  0  0  0  0
   -6.8810   -0.1840    0.1890 C   0  0  0  0  0  0  0  0  0  0  0  0
   -5.6760   -0.7350    0.1480 N   0  0  0  0  0  0  0  0  0  0  0  0
   -5.3660   -2.4110    0.4090 S   0  0  1  0  0  0  0  0  0  0  0  0
   -6.0310   -2.8560    1.6970 O   0  0  0  0  0  0  0  0  0  0  0  0
   -5.9550   -3.2260   -0.6940 O   0  0  0  0  0  0  0  0  0  0  0  0
   -4.7330    0.1970   -0.1250 C   0  0  0  0  0  0  0  0  0  0  0  0
   -3.3730    0.1310   -0.2690 C   0  0  0  0  0  0  0  0  0  0  0  0
    3.7540    1.1730   -0.8910 C   0  0  0  0  0  0  0  0  0  0  0  0
    5.0800    0.8930   -1.1450 C   0  0  0  0  0  0  0  0  0  0  0  0
    5.6930   -0.1550   -0.4940 C   0  0  0  0  0  0  0  0  0  0  0  0
    7.0240   -0.4210   -0.7610 O   0  0  0  0  0  0  0  0  0  0  0  0
  1  2  1  0
  2  3  2  0
  2  4  1  0
  4  5  2  0
  4 26  1  0
  5  6  1  0
  6  7  1  0
  6 24  2  0
  7  8  1  0
  8  9  1  0
  9 10  1  0
 10 11  2  0
 10 12  1  0
 12 13  2  0
 12 23  1  0
 13 14  1  0
 14 15  2  0
 15 16  1  0
 15 22  1  0
 16 17  2  0
 17 18  1  0
 19 18  1  6
 18 22  1  0
 19 20  2  0
 19 21  2  0
 22 23  2  0
 24 25  1  0
 25 26  2  0
 26 27  1  0
M  END
