
     RDKit          3D

 27 29  0  0  0  0  0  0  0  0999 V2000
   -4.3320   -3.3960   -0.2360 C   0  0  0  0  0  0  0  0  0  0  0  0
   -5.0750   -2.1200    0.1010 C   0  0  0  0  0  0  0  0  0  0  0  0
   -4.1010   -0.9710    0.1240 C   0  0  0  0  0  0  0  0  0  0  0  0
   -2.7560   -1.0310   -0.1190 C   0  0  0  0  0  0  0  0  0  0  0  0
   -2.2270    0.2610    0.0060 C   0  0  0  0  0  0  0  0  0  0  0  0
   -0.8200    0.6060   -0.1510 C   0  0  0  0  0  0  0  0  0  0  0  0
   -0.3540    1.6720   -0.5680 O   0  0  0  0  0  0  0  0  0  0  0  0
    0.1240   -0.4120    0.2210 N   0  0  0  0  0  0  0  0  0  0  0  0
    1.5310   -0.1640    0.1040 C   0  0  0  0  0  0  0  0  0  0  0  0
    2.2210    1.3690   -0.4720 S   0  0  0  0  0  0  0  0  0  0  0  0
    3.9290    0.8500   -0.3170 C   0  0  0  0  0  0  0  0  0  0  0  0
    5.0650    1.6840   -0.6450 C   0  0  0  0  0  0  0  0  0  0  0  0
    6.3950    1.2620   -0.5150 N   0  0  0  0  0  0  0  0  0  0  0  0
    4.8460    2.8460   -1.0680 O   0  0  0  0  0  0  0  0  0  0  0  0
    3.8290   -0.4240    0.1520 C   0  0  0  0  0  0  0  0  0  0  0  0
    2.6190   -0.9520    0.3710 C   0  0  0  0  0  0  0  0  0  0  0  0
    2.4910   -2.3390    0.8940 C   0  0  0  0  0  0  0  0  0  0  0  0
    1.3820   -2.8710    1.1110 O   0  0  0  0  0  0  0  0  0  0  0  0
    3.6290   -3.0580    1.1460 O   0  0  0  0  0  0  0  0  0  0  0  0
    4.8370   -2.3560    1.4130 C   0  0  0  0  0  0  0  0  0  0  0  0
    5.0740   -1.2810    0.4220 C   0  0  0  0  0  0  0  0  0  0  0  0
   -3.3130    1.0500    0.3260 C   0  0  0  0  0  0  0  0  0  0  0  0
   -3.3090    2.5240    0.5680 C   0  0  0  0  0  0  0  0  0  0  0  0
   -3.3170    3.3360   -0.6850 C   0  0  0  0  0  0  0  0  0  0  0  0
   -3.3050    4.7980   -0.4100 C   0  0  0  0  0  0  0  0  0  0  0  0
   -3.2820    5.1570    0.7750 O   0  0  0  0  0  0  0  0  0  0  0  0
   -4.3810    0.2570    0.3790 O   0  0  0  0  0  0  0  0  0  0  0  0
  1  2  1  0
  2  3  1  0
  3  4  2  0
  3 27  1  0
  4  5  1  0
  5  6  1  0
  5 22  2  0
  6  7  2  0
  6  8  1  0
  8  9  1  0
  9 10  1  0
  9 16  2  0
 10 11  1  0
 11 12  1  0
 11 15  2  0
 12 13  1  0
 12 14  2  0
 15 16  1  0
 15 21  1  0
 16 17  1  0
 17 18  2  0
 17 19  1  0
 19 20  1  0
 20 21  1  0
 22 23  1  0
 22 27  1  0
 23 24  1  0
 24 25  1  0
 25 26  2  0
M  END
