
     RDKit          3D

 23 23  0  0  0  0  0  0  0  0999 V2000
    4.5860   -3.0100    0.5170 C   0  0  0  0  0  0  0  0  0  0  0  0
    3.6110   -2.1850    0.1740 C   0  0  0  0  0  0  0  0  0  0  0  0
    3.2810   -0.9970    0.9460 C   0  0  0  0  0  0  0  0  0  0  0  0
    2.2910   -0.1870    0.5690 C   0  0  0  0  0  0  0  0  0  0  0  0
    1.5980   -0.6120   -0.6570 C   0  0  0  0  0  0  0  0  0  0  0  0
    0.3310   -0.8350   -0.9040 C   0  0  0  0  0  0  0  0  0  0  0  0
   -0.0100   -1.2410   -2.2320 O   0  0  0  0  0  0  0  0  0  0  0  0
   -0.8770   -0.7600   -0.0760 C   0  0  2  0  0  0  0  0  0  0  0  0
   -1.6670   -2.0470   -0.1490 C   0  0  0  0  0  0  0  0  0  0  0  0
   -2.2470   -2.5600   -1.4130 C   0  0  0  0  0  0  0  0  0  0  0  0
   -1.8590   -2.7570    0.9460 C   0  0  0  0  0  0  0  0  0  0  0  0
   -2.6260   -4.0350    0.9560 C   0  0  0  0  0  0  0  0  0  0  0  0
   -1.9040    0.2990   -0.5660 C   0  0  0  0  0  0  0  0  0  0  0  0
   -1.2160    1.5730   -0.3090 C   0  0  2  0  0  0  0  0  0  0  0  0
   -0.0060    1.3780   -0.9610 O   0  0  0  0  0  0  0  0  0  0  0  0
   -1.2360    1.7940    1.1510 C   0  0  0  0  0  0  0  0  0  0  0  0
   -2.5660    1.9550    1.6310 O   0  0  0  0  0  0  0  0  0  0  0  0
   -1.6590    2.8750   -0.9110 C   0  0  0  0  0  0  0  0  0  0  0  0
   -0.4090    3.7750   -0.5790 C   0  0  0  0  0  0  0  0  0  0  0  0
    0.7260    3.0720   -0.5680 O   0  0  0  0  0  0  0  0  0  0  0  0
    1.7850    3.1900    0.1770 C   0  0  0  0  0  0  0  0  0  0  0  0
    2.0800    2.2800    1.3330 C   0  0  0  0  0  0  0  0  0  0  0  0
    1.9450    0.9480    1.2590 O   0  0  0  0  0  0  0  0  0  0  0  0
  1  2  2  0
  2  3  1  0
  3  4  2  3
  4  5  1  0
  4 23  1  0
  5  6  2  0
  6  7  1  0
  6  8  1  0
  8  9  1  6
  8 13  1  0
  9 10  1  0
  9 11  2  3
 11 12  1  0
 13 14  1  0
 14 15  1  6
 14 16  1  0
 14 18  1  0
 16 17  1  0
 18 19  1  0
 19 20  1  0
 20 21  1  0
 21 22  1  0
 22 23  1  0
M  END
