
     RDKit          3D

 25 26  0  0  0  0  0  0  0  0999 V2000
    6.7730    2.1710    1.6310 C   0  0  0  0  0  0  0  0  0  0  0  0
    5.9110    1.1550    1.1650 O   0  0  0  0  0  0  0  0  0  0  0  0
    4.5930    1.4540    0.8810 C   0  0  0  0  0  0  0  0  0  0  0  0
    4.2100    2.6410    1.0530 O   0  0  0  0  0  0  0  0  0  0  0  0
    3.6770    0.5420    0.4240 O   0  0  0  0  0  0  0  0  0  0  0  0
    2.3330    0.8790    0.1410 C   0  0  0  0  0  0  0  0  0  0  0  0
    1.5820   -0.3420   -0.3430 C   0  0  1  0  0  0  0  0  0  0  0  0
    0.1220    0.0230   -0.6500 C   0  0  0  0  0  0  0  0  0  0  0  0
   -0.5270    0.4950    0.4140 O   0  0  0  0  0  0  0  0  0  0  0  0
   -1.7740    0.9540    0.4310 C   0  0  0  0  0  0  0  0  0  0  0  0
   -2.9370    0.1050    0.0510 C   0  0  2  0  0  0  0  0  0  0  0  0
   -2.9150   -0.3880   -1.3540 C   0  0  1  0  0  0  0  0  0  0  0  0
   -2.7770   -1.7820   -1.4300 O   0  0  0  0  0  0  0  0  0  0  0  0
   -4.0950    0.0020   -2.0020 O   0  0  0  0  0  0  0  0  0  0  0  0
   -5.0260    0.1980   -0.9820 C   0  0  0  0  0  0  0  0  0  0  0  0
   -4.2370    0.9110    0.0880 C   0  0  1  0  0  0  0  0  0  0  0  0
   -4.8920    0.8360    1.4380 C   0  0  0  0  0  0  0  0  0  0  0  0
   -5.1950   -0.4720    1.7550 O   0  0  0  0  0  0  0  0  0  0  0  0
    2.2000   -0.7620   -1.6600 C   0  0  0  0  0  0  0  0  0  0  0  0
    1.7610   -2.0220   -2.0950 O   0  0  0  0  0  0  0  0  0  0  0  0
    1.1160   -2.9510   -1.3060 C   0  0  0  0  0  0  0  0  0  0  0  0
    0.7610   -4.0910   -1.6920 O   0  0  0  0  0  0  0  0  0  0  0  0
    0.8410   -2.5660    0.0550 N   0  0  0  0  0  0  0  0  0  0  0  0
    1.6700   -1.5040    0.6000 C   0  0  1  0  0  0  0  0  0  0  0  0
    2.9790   -1.9840    0.6000 O   0  0  0  0  0  0  0  0  0  0  0  0
  1  2  1  0
  2  3  1  0
  3  4  2  0
  3  5  1  0
  5  6  1  0
  7  6  1  1
  7  8  1  0
  7 19  1  0
  7 24  1  0
  8  9  1  0
  9 10  1  0
 11 10  1  6
 11 12  1  0
 11 16  1  0
 12 13  1  1
 12 14  1  0
 14 15  1  0
 15 16  1  0
 16 17  1  1
 17 18  1  0
 19 20  1  0
 20 21  1  0
 21 22  2  0
 21 23  1  0
 23 24  1  0
 24 25  1  6
M  END
