
     RDKit          3D

 25 25  0  0  0  0  0  0  0  0999 V2000
    4.2240   -2.7200    0.9330 N   0  0  0  0  0  0  0  0  0  0  0  0
    3.2840   -2.0570    0.0140 C   0  0  0  0  0  0  0  0  0  0  0  0
    2.7850   -0.7750    0.6390 C   0  0  1  0  0  0  0  0  0  0  0  0
    3.9010    0.0160    0.8600 O   0  0  0  0  0  0  0  0  0  0  0  0
    1.7380   -0.1310   -0.2110 C   0  0  2  0  0  0  0  0  0  0  0  0
    2.3000    0.2330   -1.5520 C   0  0  0  0  0  0  0  0  0  0  0  0
    3.3450    1.1310   -1.3570 O   0  0  0  0  0  0  0  0  0  0  0  0
    1.2880    1.0480    0.3790 O   0  0  0  0  0  0  0  0  0  0  0  0
    0.4840    1.8280   -0.3980 C   0  0  0  0  0  0  0  0  0  0  0  0
   -0.6150    2.5230    0.4210 C   0  0  1  0  0  0  0  0  0  0  0  0
   -0.0870    3.9230    0.7840 C   0  0  0  0  0  0  0  0  0  0  0  0
   -1.0740    4.6320    1.4460 O   0  0  0  0  0  0  0  0  0  0  0  0
   -1.7290    2.7620   -0.4060 O   0  0  0  0  0  0  0  0  0  0  0  0
   -3.0490    2.6420   -0.1660 C   0  0  0  0  0  0  0  0  0  0  0  0
   -3.7940    3.6740   -0.0480 O   0  0  0  0  0  0  0  0  0  0  0  0
   -3.6640    1.4290   -0.0360 O   0  0  0  0  0  0  0  0  0  0  0  0
   -3.4050    0.3720    0.8220 C   0  0  0  0  0  0  0  0  0  0  0  0
   -2.9390   -0.8690    0.0680 C   0  0  2  0  0  0  0  0  0  0  0  0
   -3.8700   -2.0380    0.2320 C   0  0  0  0  0  0  0  0  0  0  0  0
   -4.0040   -2.4200    1.5710 O   0  0  0  0  0  0  0  0  0  0  0  0
   -1.5690   -1.3290    0.5800 C   0  0  0  0  0  0  0  0  0  0  0  0
   -0.5740   -0.4930    0.1770 O   0  0  0  0  0  0  0  0  0  0  0  0
    0.5800   -1.1070   -0.3020 C   0  0  1  0  0  0  0  0  0  0  0  0
    0.4010   -1.6350   -1.7060 C   0  0  0  0  0  0  0  0  0  0  0  0
   -0.6190   -2.5820   -1.7750 O   0  0  0  0  0  0  0  0  0  0  0  0
  1  2  1  0
  2  3  1  0
  3  4  1  6
  3  5  1  0
  5  6  1  6
  5  8  1  0
  5 23  1  0
  6  7  1  0
  8  9  1  0
  9 10  1  0
 10 11  1  6
 10 13  1  0
 11 12  1  0
 13 14  1  0
 14 15  2  0
 14 16  1  0
 16 17  1  0
 17 18  1  0
 18 19  1  1
 18 21  1  0
 19 20  1  0
 21 22  1  0
 22 23  1  0
 23 24  1  6
 24 25  1  0
M  END
