
     RDKit          3D

 19 19  0  0  0  0  0  0  0  0999 V2000
   -1.8000    0.5750   -3.5000 C   0  0  0  0  0  0  0  0  0  0  0  0
   -2.1810    1.4700   -2.6310 C   0  0  0  0  0  0  0  0  0  0  0  0
   -3.0890    2.5860   -3.0400 C   0  0  0  0  0  0  0  0  0  0  0  0
   -3.5880    2.8160   -4.2040 N   0  0  0  0  0  0  0  0  0  0  0  0
   -3.3060    3.3630   -1.8840 N   0  0  0  0  0  0  0  0  0  0  0  0
   -2.6010    2.8140   -0.7890 C   0  0  0  0  0  0  0  0  0  0  0  0
   -2.5760    3.2560    0.3850 O   0  0  0  0  0  0  0  0  0  0  0  0
   -1.8720    1.6060   -1.2250 C   0  0  0  0  0  0  0  0  0  0  0  0
   -1.1320    0.8800   -0.4370 C   0  0  0  0  0  0  0  0  0  0  0  0
   -0.3600   -0.2970   -0.6440 C   0  0  0  0  0  0  0  0  0  0  0  0
    0.3320   -0.8500    0.3720 C   0  0  0  0  0  0  0  0  0  0  0  0
    1.1020   -2.0500    0.1200 C   0  0  0  0  0  0  0  0  0  0  0  0
    1.7730   -2.6270    1.0720 C   0  0  0  0  0  0  0  0  0  0  0  0
    2.5200   -3.8100    0.7740 N   0  0  0  0  0  0  0  0  0  0  0  0
    2.3200   -4.9690    1.6070 C   0  0  0  0  0  0  0  0  0  0  0  0
    0.2750   -0.2510    1.5860 O   0  0  0  0  0  0  0  0  0  0  0  0
    1.3050    0.5360    2.1120 C   0  0  1  0  0  0  0  0  0  0  0  0
    1.6300    1.7270    1.2340 C   0  0  0  0  0  0  0  0  0  0  0  0
    0.8130    1.0290    3.4770 C   0  0  0  0  0  0  0  0  0  0  0  0
  1  2  2  0
  2  3  1  0
  2  8  1  0
  3  4  2  0
  3  5  1  0
  5  6  1  0
  6  7  2  0
  6  8  1  0
  8  9  2  3
  9 10  1  0
 10 11  2  3
 11 12  1  0
 11 16  1  0
 12 13  2  3
 13 14  1  0
 14 15  1  0
 16 17  1  0
 17 18  1  6
 17 19  1  0
M  END
