
     RDKit          3D

 15 15  0  0  0  0  0  0  0  0999 V2000
    0.8730   -0.0520    2.6120 C   0  0  0  0  0  0  0  0  0  0  0  0
    0.9290   -0.0210    1.2970 C   0  0  0  0  0  0  0  0  0  0  0  0
    2.4820   -0.4080    0.4960 S   0  0  0  0  0  0  0  0  0  0  0  0
    2.4490   -0.1650   -1.2760 C   0  0  0  0  0  0  0  0  0  0  0  0
   -0.2540    0.3830    0.5390 C   0  0  0  0  0  0  0  0  0  0  0  0
   -0.7260    1.6570    0.7330 N   0  0  0  0  0  0  0  0  0  0  0  0
   -1.8060    2.0730    0.0590 C   0  0  0  0  0  0  0  0  0  0  0  0
   -2.2450    3.2410    0.2310 O   0  0  0  0  0  0  0  0  0  0  0  0
   -2.4080    1.1940   -0.8120 C   0  0  0  0  0  0  0  0  0  0  0  0
   -3.4200    1.5880   -1.4430 O   0  0  0  0  0  0  0  0  0  0  0  0
   -1.9370   -0.0500   -0.9920 N   0  0  0  0  0  0  0  0  0  0  0  0
   -0.8440   -0.5030   -0.3240 C   0  0  0  0  0  0  0  0  0  0  0  0
   -0.3860   -1.8600   -0.5230 C   0  0  0  0  0  0  0  0  0  0  0  0
   -1.0370   -2.5750   -1.3600 O   0  0  0  0  0  0  0  0  0  0  0  0
    0.6810   -2.4630    0.1000 O   0  0  0  0  0  0  0  0  0  0  0  0
  1  2  2  0
  2  3  1  0
  2  5  1  0
  3  4  1  0
  5  6  1  0
  5 12  2  0
  6  7  1  0
  7  8  2  0
  7  9  1  0
  9 10  2  0
  9 11  1  0
 11 12  1  0
 12 13  1  0
 13 14  2  0
 13 15  1  0
M  END
