
     RDKit          3D

 19 19  0  0  0  0  0  0  0  0999 V2000
   -6.3350    0.2710    0.0880 C   0  0  0  0  0  0  0  0  0  0  0  0
   -5.3950    1.2620    0.7350 C   0  0  0  0  0  0  0  0  0  0  0  0
   -4.0150    1.1070    0.0930 C   0  0  0  0  0  0  0  0  0  0  0  0
   -3.5690   -0.3150    0.3450 C   0  0  0  0  0  0  0  0  0  0  0  0
   -2.2840   -0.6140   -0.2010 N   0  0  0  0  0  0  0  0  0  0  0  0
   -1.1080    0.0860    0.1910 C   0  0  0  0  0  0  0  0  0  0  0  0
   -1.2170    0.9950    1.0450 O   0  0  0  0  0  0  0  0  0  0  0  0
    0.1530   -0.2830   -0.4130 C   0  0  0  0  0  0  0  0  0  0  0  0
    1.2090    0.4180    0.0040 C   0  0  0  0  0  0  0  0  0  0  0  0
    2.5320    0.2130   -0.4630 N   0  0  0  0  0  0  0  0  0  0  0  0
    3.1380   -1.0440   -0.7580 C   0  0  0  0  0  0  0  0  0  0  0  0
    4.5260   -1.2610   -0.4670 C   0  0  0  0  0  0  0  0  0  0  0  0
    5.5040   -0.6690    0.0800 C   0  0  0  0  0  0  0  0  0  0  0  0
    5.7950    0.5550    0.7310 C   0  0  0  0  0  0  0  0  0  0  0  0
    4.9710    1.7040    1.0810 C   0  0  0  0  0  0  0  0  0  0  0  0
    7.0540    0.7230    1.1180 O   0  0  0  0  0  0  0  0  0  0  0  0
    2.4900   -2.0730   -1.3510 C   0  0  0  0  0  0  0  0  0  0  0  0
    1.1040   -2.1020   -1.7840 C   0  0  0  0  0  0  0  0  0  0  0  0
    0.1150   -1.3370   -1.3790 N   0  0  0  0  0  0  0  0  0  0  0  0
  1  2  1  0
  2  3  1  0
  3  4  1  0
  4  5  1  0
  5  6  1  0
  6  7  2  0
  6  8  1  0
  8  9  2  0
  8 19  1  0
  9 10  1  0
 10 11  1  0
 11 12  1  0
 11 17  2  0
 12 13  2  3
 13 14  1  0
 14 15  1  0
 14 16  2  0
 17 18  1  0
 18 19  2  0
M  END
