
     RDKit          3D

 19 20  0  0  0  0  0  0  0  0999 V2000
   -4.2670    0.4950   -1.9280 C   0  0  0  0  0  0  0  0  0  0  0  0
   -4.6930   -0.4560   -0.8620 C   0  0  0  0  0  0  0  0  0  0  0  0
   -3.6610   -1.2240   -0.3480 O   0  0  0  0  0  0  0  0  0  0  0  0
   -2.6490   -0.4510    0.2430 C   0  0  2  0  0  0  0  0  0  0  0  0
   -1.3170   -0.7230   -0.4160 C   0  0  0  0  0  0  0  0  0  0  0  0
   -0.3180    0.1280    0.1780 N   0  0  0  0  0  0  0  0  0  0  0  0
    1.0630    0.0370   -0.1710 C   0  0  0  0  0  0  0  0  0  0  0  0
    1.4280   -0.8990   -1.1080 C   0  0  0  0  0  0  0  0  0  0  0  0
    2.7690   -0.9800   -1.4400 C   0  0  0  0  0  0  0  0  0  0  0  0
    3.6920   -0.1440   -0.8440 C   0  0  0  0  0  0  0  0  0  0  0  0
    5.0260   -0.2130   -1.1640 C   0  0  0  0  0  0  0  0  0  0  0  0
    5.9030    0.6080   -0.5740 N   0  0  0  0  0  0  0  0  0  0  0  0
    5.5390    1.5270    0.3460 C   0  0  0  0  0  0  0  0  0  0  0  0
    4.2110    1.6250    0.6930 C   0  0  0  0  0  0  0  0  0  0  0  0
    3.2990    0.7910    0.0960 C   0  0  0  0  0  0  0  0  0  0  0  0
    1.9630    0.8710    0.4280 C   0  0  0  0  0  0  0  0  0  0  0  0
   -2.4930   -0.8880    1.6780 C   0  0  0  0  0  0  0  0  0  0  0  0
   -1.5920   -0.3330    2.5840 N   0  0  0  0  0  0  0  0  0  0  0  0
   -3.2490   -1.8290    2.0560 O   0  0  0  0  0  0  0  0  0  0  0  0
  1  2  1  0
  2  3  1  0
  3  4  1  0
  4  5  1  6
  4 17  1  0
  5  6  1  0
  6  7  1  0
  7  8  2  0
  7 16  1  0
  8  9  1  0
  9 10  2  0
 10 11  1  0
 10 15  1  0
 11 12  2  0
 12 13  1  0
 13 14  2  0
 14 15  1  0
 15 16  2  0
 17 18  1  0
 17 19  2  0
M  END
