
     RDKit          3D

 16 16  0  0  0  0  0  0  0  0999 V2000
    5.2440   -0.3940    0.8070 C   0  0  0  0  0  0  0  0  0  0  0  0
    4.5390   -1.2400   -0.6170 S   0  0  0  0  0  0  0  0  0  0  0  0
    2.9670   -0.4900   -1.0220 C   0  0  0  0  0  0  0  0  0  0  0  0
    1.8110   -0.7480   -0.1990 C   0  0  0  0  0  0  0  0  0  0  0  0
    1.3620   -1.6160    0.4570 O   0  0  0  0  0  0  0  0  0  0  0  0
    0.7630    0.6330   -0.1340 N   0  0  0  0  0  0  0  0  0  0  0  0
   -0.3980   -0.1430    0.1830 C   0  0  0  0  0  0  0  0  0  0  0  0
   -0.6390   -1.2430    0.3060 O   0  0  0  0  0  0  0  0  0  0  0  0
   -1.4390    0.9400    0.3230 N   0  0  0  0  0  0  0  0  0  0  0  0
   -2.7930    0.6210    0.3270 C   0  0  0  0  0  0  0  0  0  0  0  0
   -3.3400   -0.5030    0.2730 C   0  0  0  0  0  0  0  0  0  0  0  0
   -2.8490   -1.7280    0.1630 F   0  0  0  0  0  0  0  0  0  0  0  0
   -4.8390   -0.3310   -0.0010 C   0  0  0  0  0  0  0  0  0  0  0  0
   -5.0620    1.0380    0.2440 O   0  0  0  0  0  0  0  0  0  0  0  0
   -3.8310    1.6800    0.3260 C   0  0  0  0  0  0  0  0  0  0  0  0
   -3.6510    2.9500    0.3890 O   0  0  0  0  0  0  0  0  0  0  0  0
  1  2  1  0
  2  3  1  0
  3  4  1  0
  4  5  2  0
  4  6  1  0
  6  7  1  0
  7  8  2  0
  7  9  1  0
  9 10  1  0
 10 11  2  0
 10 15  1  0
 11 12  1  0
 11 13  1  0
 13 14  1  0
 14 15  1  0
 15 16  2  0
M  END
