
     RDKit          3D

 16 16  0  0  0  0  0  0  0  0999 V2000
    4.9490    1.2370    0.3590 C   0  0  0  0  0  0  0  0  0  0  0  0
    4.4950   -0.0940    0.2480 O   0  0  0  0  0  0  0  0  0  0  0  0
    3.1670   -0.0190   -0.1680 C   0  0  0  0  0  0  0  0  0  0  0  0
    2.5400   -1.3950   -0.3510 C   0  0  0  0  0  0  0  0  0  0  0  0
    1.2150   -1.2680   -0.7670 N   0  0  0  0  0  0  0  0  0  0  0  0
    0.2260   -0.5890    0.1220 C   0  0  0  0  0  0  0  0  0  0  0  0
    0.5650   -0.1980    1.1780 O   0  0  0  0  0  0  0  0  0  0  0  0
   -1.0270   -0.5660   -0.5820 N   0  0  0  0  0  0  0  0  0  0  0  0
   -1.9520    0.1450    0.6850 C   0  0  0  0  0  0  0  0  0  0  0  0
   -1.3560    0.4200    1.6580 O   0  0  0  0  0  0  0  0  0  0  0  0
   -3.3250    0.2810    0.3340 C   0  0  0  0  0  0  0  0  0  0  0  0
   -4.0680    0.0090   -0.7000 C   0  0  0  0  0  0  0  0  0  0  0  0
   -3.6050   -0.5720   -1.8940 F   0  0  0  0  0  0  0  0  0  0  0  0
   -5.4960    0.3370   -0.5360 C   0  0  0  0  0  0  0  0  0  0  0  0
   -5.6400    1.4860    0.2250 O   0  0  0  0  0  0  0  0  0  0  0  0
   -4.5450    1.0270    1.5070 S   0  0  0  0  0  0  0  0  0  0  0  0
  1  2  1  0
  2  3  1  0
  3  4  1  0
  4  5  1  0
  5  6  1  0
  6  7  2  0
  6  8  1  0
  8  9  1  0
  9 10  2  0
  9 11  1  0
 11 12  2  0
 11 16  1  0
 12 13  1  0
 12 14  1  0
 14 15  1  0
 15 16  1  0
M  END
