
     RDKit          3D

 19 20  0  0  0  0  0  0  0  0999 V2000
   -5.1420   -1.7720    1.3580 C   0  0  0  0  0  0  0  0  0  0  0  0
   -4.4600   -0.8300    0.4340 C   0  0  0  0  0  0  0  0  0  0  0  0
   -3.2010   -0.5060    0.6900 C   0  0  0  0  0  0  0  0  0  0  0  0
   -2.5230    0.4360   -0.2380 C   0  0  1  0  0  0  0  0  0  0  0  0
   -1.0920    0.4050   -0.0330 N   0  0  0  0  0  0  0  0  0  0  0  0
   -0.3440    1.5410    0.3300 C   0  0  0  0  0  0  0  0  0  0  0  0
   -0.9470    2.6260    0.4800 O   0  0  0  0  0  0  0  0  0  0  0  0
    1.1120    1.4800    0.5320 C   0  0  0  0  0  0  0  0  0  0  0  0
    1.8800    0.3490    0.3950 C   0  0  0  0  0  0  0  0  0  0  0  0
    3.1680    0.7020    0.6640 C   0  0  0  0  0  0  0  0  0  0  0  0
    4.3900   -0.1430    0.6580 C   0  0  0  0  0  0  0  0  0  0  0  0
    5.0300   -0.1420   -0.7140 C   0  0  0  0  0  0  0  0  0  0  0  0
    6.2620   -0.9850   -0.7480 C   0  0  0  0  0  0  0  0  0  0  0  0
    7.2120   -0.5250    0.1540 O   0  0  0  0  0  0  0  0  0  0  0  0
    3.1480    2.0310    0.9550 N   0  0  0  0  0  0  0  0  0  0  0  0
    1.9050    2.4850    0.8720 N   0  0  0  0  0  0  0  0  0  0  0  0
   -2.9130    0.0280   -1.6430 C   0  0  0  0  0  0  0  0  0  0  0  0
   -4.3930    0.3120   -1.7870 C   0  0  0  0  0  0  0  0  0  0  0  0
   -5.2250   -0.3120   -0.7150 C   0  0  0  0  0  0  0  0  0  0  0  0
  1  2  1  0
  2  3  2  0
  2 19  1  0
  3  4  1  0
  4  5  1  6
  4 17  1  0
  5  6  1  0
  6  7  2  0
  6  8  1  0
  8  9  1  0
  8 16  2  0
  9 10  2  0
 10 11  1  0
 10 15  1  0
 11 12  1  0
 12 13  1  0
 13 14  1  0
 15 16  1  0
 17 18  1  0
 18 19  1  0
M  END
