
     RDKit          3D

 17 18  0  0  0  0  0  0  0  0999 V2000
   -4.4140    0.0100    0.4940 C   0  0  0  0  0  0  0  0  0  0  0  0
   -3.3200    0.3820   -0.1390 C   0  0  0  0  0  0  0  0  0  0  0  0
   -3.3640    1.5450   -1.0970 C   0  0  0  0  0  0  0  0  0  0  0  0
   -2.8510    0.9970   -2.8760 Br  0  0  0  0  0  0  0  0  0  0  0  0
   -2.0780   -0.2830    0.0480 N   0  0  0  0  0  0  0  0  0  0  0  0
   -2.0840   -1.6840    0.4090 C   0  0  0  0  0  0  0  0  0  0  0  0
   -0.6720   -2.2130    0.4920 C   0  0  0  0  0  0  0  0  0  0  0  0
    0.0510   -1.4160    1.3400 O   0  0  0  0  0  0  0  0  0  0  0  0
    0.1190   -0.0970    1.0050 C   0  0  1  0  0  0  0  0  0  0  0  0
    1.5320    0.1890    0.5690 C   0  0  0  0  0  0  0  0  0  0  0  0
    2.2740    1.2500    0.9380 N   0  0  0  0  0  0  0  0  0  0  0  0
    3.4820    1.1760    0.3560 C   0  0  0  0  0  0  0  0  0  0  0  0
    4.4840    2.0380    0.4800 C   0  0  0  0  0  0  0  0  0  0  0  0
    3.4830    0.0240   -0.4010 C   0  0  0  0  0  0  0  0  0  0  0  0
    4.5090   -0.3900   -1.1270 C   0  0  0  0  0  0  0  0  0  0  0  0
    2.2940   -0.5560   -0.2570 N   0  0  0  0  0  0  0  0  0  0  0  0
   -0.7820    0.3400   -0.0960 C   0  0  0  0  0  0  0  0  0  0  0  0
  1  2  2  0
  2  3  1  0
  2  5  1  0
  3  4  1  0
  5  6  1  0
  5 17  1  0
  6  7  1  0
  7  8  1  0
  8  9  1  0
  9 10  1  6
  9 17  1  0
 10 11  2  0
 10 16  1  0
 11 12  1  0
 12 13  2  0
 12 14  1  0
 14 15  2  0
 14 16  1  0
M  END
