
     RDKit          3D

 17 17  0  0  0  0  0  0  0  0999 V2000
   -3.6960    2.2870   -0.6170 C   0  0  0  0  0  0  0  0  0  0  0  0
   -2.4560    1.6970    0.0670 C   0  0  0  0  0  0  0  0  0  0  0  0
   -2.4350    0.2630   -0.1200 N   0  0  2  0  0  0  0  0  0  0  0  0
   -3.0410   -0.4660    0.9440 C   0  0  0  0  0  0  0  0  0  0  0  0
   -4.5210   -0.6720    0.7950 C   0  0  0  0  0  0  0  0  0  0  0  0
   -1.1000   -0.2270   -0.2850 C   0  0  0  0  0  0  0  0  0  0  0  0
   -0.1310    0.4380    0.3170 C   0  0  0  0  0  0  0  0  0  0  0  0
    1.1910   -0.0540    0.1480 N   0  0  0  0  0  0  0  0  0  0  0  0
    1.4370   -1.0890   -0.5500 C   0  0  0  0  0  0  0  0  0  0  0  0
    2.7900   -1.4750   -0.6390 O   0  0  0  0  0  0  0  0  0  0  0  0
    3.7980   -0.6610   -0.1500 C   0  0  0  0  0  0  0  0  0  0  0  0
    4.0690    0.6400   -0.8080 C   0  0  0  0  0  0  0  0  0  0  0  0
    4.5240   -1.0050    0.8810 C   0  0  0  0  0  0  0  0  0  0  0  0
    5.6100   -0.1880    1.4510 C   0  0  0  0  0  0  0  0  0  0  0  0
    5.2830    0.2790    3.2990 Br  0  0  0  0  0  0  0  0  0  0  0  0
    0.4150   -1.8990   -1.2620 C   0  0  0  0  0  0  0  0  0  0  0  0
   -0.9030   -1.3740   -1.0700 N   0  0  0  0  0  0  0  0  0  0  0  0
  1  2  1  0
  3  2  1  1
  3  4  1  0
  3  6  1  0
  4  5  1  0
  6  7  2  0
  6 17  1  0
  7  8  1  0
  8  9  2  0
  9 10  1  0
  9 16  1  0
 10 11  1  0
 11 12  1  0
 11 13  2  3
 13 14  1  0
 14 15  1  0
 16 17  1  0
M  CHG  1   3   1
M  END
