
     RDKit          3D

 17 18  0  0  0  0  0  0  0  0999 V2000
    3.1800   -0.1350    2.0550 C   0  0  0  0  0  0  0  0  0  0  0  0
    2.8350    0.4080    0.7160 C   0  0  0  0  0  0  0  0  0  0  0  0
    3.7040    1.1580   -0.0470 C   0  0  0  0  0  0  0  0  0  0  0  0
    3.3530    1.6330   -1.2570 N   0  0  0  0  0  0  0  0  0  0  0  0
    2.1420    1.3860   -1.7480 C   0  0  0  0  0  0  0  0  0  0  0  0
    1.8550    1.8560   -2.8960 O   0  0  0  0  0  0  0  0  0  0  0  0
    1.1840    0.6300   -1.0430 C   0  0  0  0  0  0  0  0  0  0  0  0
   -0.0420    0.3480   -1.7100 C   0  0  0  0  0  0  0  0  0  0  0  0
   -1.2350    0.0220   -1.3810 C   0  0  0  0  0  0  0  0  0  0  0  0
   -1.9320   -0.2080   -0.1280 C   0  0  0  0  0  0  0  0  0  0  0  0
   -1.6180    0.1670    1.1240 N   0  0  0  0  0  0  0  0  0  0  0  0
   -2.5210   -0.3300    1.9740 C   0  0  0  0  0  0  0  0  0  0  0  0
   -2.5880   -0.1300    3.8720 Br  0  0  0  0  0  0  0  0  0  0  0  0
   -3.4300   -1.0370    1.2420 C   0  0  0  0  0  0  0  0  0  0  0  0
   -3.0750   -0.9650   -0.0400 N   0  0  0  0  0  0  0  0  0  0  0  0
   -3.7860   -1.5910   -1.1530 C   0  0  0  0  0  0  0  0  0  0  0  0
    1.5780    0.1570    0.1940 C   0  0  0  0  0  0  0  0  0  0  0  0
  1  2  1  0
  2  3  2  0
  2 17  1  0
  3  4  1  0
  4  5  1  0
  5  6  2  0
  5  7  1  0
  7  8  1  0
  7 17  2  0
  8  9  2  3
  9 10  1  0
 10 11  2  0
 10 15  1  0
 11 12  1  0
 12 13  1  0
 12 14  2  0
 14 15  1  0
 15 16  1  0
M  CHG  1  11   1
M  END
