
     RDKit          3D

 17 17  0  0  0  0  0  0  0  0999 V2000
   -3.7090   -2.4060   -0.3440 C   0  0  0  0  0  0  0  0  0  0  0  0
   -2.6270   -1.4410   -0.6450 C   0  0  0  0  0  0  0  0  0  0  0  0
   -2.5220   -0.2750   -0.0510 C   0  0  0  0  0  0  0  0  0  0  0  0
   -3.4120    0.3180    1.0030 C   0  0  0  0  0  0  0  0  0  0  0  0
   -3.1860    1.7440    0.8010 N   0  0  0  0  0  0  0  0  0  0  0  0
   -4.0850    2.8300    1.1310 C   0  0  0  0  0  0  0  0  0  0  0  0
   -1.8890    1.8790    0.2050 C   0  0  0  0  0  0  0  0  0  0  0  0
   -0.9250    3.5430    0.1710 Br  0  0  0  0  0  0  0  0  0  0  0  0
   -1.4940    0.7230   -0.2900 C   0  0  0  0  0  0  0  0  0  0  0  0
   -0.1780    0.5530   -0.9750 C   0  0  0  0  0  0  0  0  0  0  0  0
    0.6660   -0.4110   -0.3300 N   0  0  0  0  0  0  0  0  0  0  0  0
    1.9680    0.0980    0.0090 C   0  0  0  0  0  0  0  0  0  0  0  0
    2.9610   -0.9940    0.1710 C   0  0  0  0  0  0  0  0  0  0  0  0
    2.5600   -2.1830   -0.0020 O   0  0  0  0  0  0  0  0  0  0  0  0
    4.2950   -0.6830    0.5040 N   0  0  0  0  0  0  0  0  0  0  0  0
    5.2520   -1.7480    0.6590 C   0  0  0  0  0  0  0  0  0  0  0  0
    4.6760    0.6910    0.6840 C   0  0  0  0  0  0  0  0  0  0  0  0
  1  2  1  0
  2  3  2  3
  3  4  1  0
  3  9  1  0
  4  5  1  0
  5  6  1  0
  5  7  1  0
  7  8  1  0
  7  9  2  0
  9 10  1  0
 10 11  1  0
 11 12  1  0
 12 13  1  0
 13 14  2  0
 13 15  1  0
 15 16  1  0
 15 17  1  0
M  CHG  1  11   1
M  END
