
     RDKit          3D

 17 17  0  0  0  0  0  0  0  0999 V2000
   -5.0840    0.5290   -0.7090 C   0  0  0  0  0  0  0  0  0  0  0  0
   -4.3700    0.4050    0.6180 C   0  0  0  0  0  0  0  0  0  0  0  0
   -2.8640    0.4650    0.4650 C   0  0  0  0  0  0  0  0  0  0  0  0
   -2.4360   -0.6610   -0.4150 C   0  0  0  0  0  0  0  0  0  0  0  0
   -0.9220   -0.6830   -0.6290 C   0  0  0  0  0  0  0  0  0  0  0  0
   -0.1770   -0.8330    0.6280 C   0  0  0  0  0  0  0  0  0  0  0  0
    1.2950   -0.9370    0.4830 C   0  0  0  0  0  0  0  0  0  0  0  0
    1.9930    0.1980   -0.1290 C   0  0  2  0  0  0  0  0  0  0  0  0
    1.7230    0.5850   -1.5240 C   0  0  0  0  0  0  0  0  0  0  0  0
    3.5050    0.0730    0.0380 C   0  0  0  0  0  0  0  0  0  0  0  0
    4.0760   -1.0440    0.4110 C   0  0  0  0  0  0  0  0  0  0  0  0
    3.6190   -2.2640    0.7240 F   0  0  0  0  0  0  0  0  0  0  0  0
    5.8400   -0.6730    0.4660 S   0  0  0  0  0  0  0  0  0  0  0  0
    5.5640    1.1510    0.4380 C   0  0  1  0  0  0  0  0  0  0  0  0
    5.5020    1.6320    1.7200 F   0  0  0  0  0  0  0  0  0  0  0  0
    6.5590    1.7100   -0.3100 F   0  0  0  0  0  0  0  0  0  0  0  0
    4.3120    1.1300   -0.1980 O   0  0  0  0  0  0  0  0  0  0  0  0
  1  2  1  0
  2  3  1  0
  3  4  1  0
  4  5  1  0
  5  6  1  0
  6  7  1  0
  7  8  1  0
  8  9  1  6
  8 10  1  0
 10 11  2  0
 10 17  1  0
 11 12  1  0
 11 13  1  0
 13 14  1  0
 14 15  1  1
 14 16  1  0
 14 17  1  0
M  END
