
     RDKit          3D

 15 15  0  0  0  0  0  0  0  0999 V2000
    1.6020    2.7550    0.6220 C   0  0  0  0  0  0  0  0  0  0  0  0
    1.4580    1.2400    0.7980 C   0  0  0  0  0  0  0  0  0  0  0  0
    2.0330    0.6100   -0.4300 C   0  0  0  0  0  0  0  0  0  0  0  0
    1.9820   -0.8840   -0.4480 C   0  0  1  0  0  0  0  0  0  0  0  0
    2.7340   -1.5400    0.6900 C   0  0  0  0  0  0  0  0  0  0  0  0
    2.1920   -2.9680    0.6670 C   0  0  0  0  0  0  0  0  0  0  0  0
    0.9210   -2.9430   -0.1410 C   0  0  0  0  0  0  0  0  0  0  0  0
    0.6060   -1.4470   -0.2390 C   0  0  2  0  0  0  0  0  0  0  0  0
   -0.2680   -1.1830   -1.2770 O   0  0  0  0  0  0  0  0  0  0  0  0
   -1.4080   -0.5930   -0.7400 C   0  0  2  0  0  0  0  0  0  0  0  0
   -2.6280   -1.4290   -1.0680 C   0  0  0  0  0  0  0  0  0  0  0  0
   -2.7460   -1.5080   -2.4450 F   0  0  0  0  0  0  0  0  0  0  0  0
   -1.6600    1.0910   -1.4070 S   0  0  0  0  0  0  0  0  0  0  0  0
   -3.1710    1.7360   -0.6270 C   0  0  0  0  0  0  0  0  0  0  0  0
   -3.4880    3.1410   -1.1040 C   0  0  0  0  0  0  0  0  0  0  0  0
  1  2  1  0
  2  3  1  0
  4  3  1  1
  4  5  1  0
  4  8  1  0
  5  6  1  0
  6  7  1  0
  7  8  1  0
  8  9  1  6
  9 10  1  0
 10 11  1  6
 10 13  1  0
 11 12  1  0
 13 14  1  0
 14 15  1  0
M  END
