
     RDKit          3D

 16 15  0  0  0  0  0  0  0  0999 V2000
    4.6570   -0.3680    0.6800 C   0  0  0  0  0  0  0  0  0  0  0  0
    3.7230    0.7660    0.5410 C   0  0  0  0  0  0  0  0  0  0  0  0
    2.2760    0.4880    0.3050 C   0  0  0  0  0  0  0  0  0  0  0  0
    1.9980   -0.2130   -0.9450 C   0  0  1  0  0  0  0  0  0  0  0  0
    2.6210   -1.5730   -1.0350 C   0  0  0  0  0  0  0  0  0  0  0  0
    0.5750   -0.2690   -1.3850 C   0  0  0  0  0  0  0  0  0  0  0  0
   -0.3700   -0.9120   -0.4980 C   0  0  0  0  0  0  0  0  0  0  0  0
   -0.0660   -1.6100    0.9340 S   0  0  0  0  0  0  0  0  0  0  0  0
   -1.7070   -0.9390   -0.9180 O   0  0  0  0  0  0  0  0  0  0  0  0
   -2.5640    0.1770   -0.6720 C   0  0  2  0  0  0  0  0  0  0  0  0
   -3.9420   -0.0490   -1.1950 C   0  0  0  0  0  0  0  0  0  0  0  0
   -2.0120    1.2330   -1.3780 F   0  0  0  0  0  0  0  0  0  0  0  0
   -2.5340    0.5610    0.7860 C   0  0  2  0  0  0  0  0  0  0  0  0
   -2.9760   -0.5210    1.7070 C   0  0  0  0  0  0  0  0  0  0  0  0
   -3.4040    1.7990    0.9420 C   0  0  0  0  0  0  0  0  0  0  0  0
   -1.2460    0.9260    1.1330 F   0  0  0  0  0  0  0  0  0  0  0  0
  1  2  1  0
  2  3  1  0
  3  4  1  0
  4  5  1  1
  4  6  1  0
  6  7  1  0
  7  8  2  0
  7  9  1  0
  9 10  1  0
 10 11  1  6
 10 12  1  0
 10 13  1  0
 13 14  1  1
 13 15  1  0
 13 16  1  0
M  END
