
     RDKit          3D

 15 15  0  0  0  0  0  0  0  0999 V2000
   -4.0670   -1.2250    0.6830 C   0  0  0  0  0  0  0  0  0  0  0  0
   -2.8680   -0.7430   -0.0720 C   0  0  2  0  0  0  0  0  0  0  0  0
   -1.6150   -0.6930    0.8050 C   0  0  0  0  0  0  0  0  0  0  0  0
   -1.0340    0.6610    0.5890 C   0  0  1  0  0  0  0  0  0  0  0  0
    0.4420    0.7460    0.7370 C   0  0  0  0  0  0  0  0  0  0  0  0
    1.2270   -0.1090   -0.1890 C   0  0  0  0  0  0  0  0  0  0  0  0
    2.7100    0.1410    0.1470 C   0  0  0  0  0  0  0  0  0  0  0  0
    3.6120   -0.6600   -0.7140 C   0  0  0  0  0  0  0  0  0  0  0  0
    5.0440   -0.4020   -0.3340 C   0  0  1  0  0  0  0  0  0  0  0  0
    5.9320   -1.1400   -1.1270 O   0  0  0  0  0  0  0  0  0  0  0  0
    5.4800    1.3270   -0.3560 S   0  0  0  0  0  0  0  0  0  0  0  0
    4.7090    2.2080    0.8710 F   0  0  0  0  0  0  0  0  0  0  0  0
   -1.5670    1.0790   -0.7390 C   0  0  0  0  0  0  0  0  0  0  0  0
   -3.0460    0.7040   -0.5500 C   0  0  1  0  0  0  0  0  0  0  0  0
   -3.8310    0.8100   -1.8030 C   0  0  0  0  0  0  0  0  0  0  0  0
  2  1  1  1
  2  3  1  0
  2 14  1  0
  3  4  1  0
  4  5  1  6
  4 13  1  0
  5  6  1  0
  6  7  1  0
  7  8  1  0
  8  9  1  0
  9 10  1  6
  9 11  1  0
 11 12  1  0
 13 14  1  0
 14 15  1  6
M  END
