
     RDKit          3D

 17 16  0  0  0  0  0  0  0  0999 V2000
    6.8440   -1.0170   -0.0990 C   0  0  0  0  0  0  0  0  0  0  0  0
    5.5140   -0.5370    0.3180 C   0  0  0  0  0  0  0  0  0  0  0  0
    4.4970   -1.6940    0.3670 C   0  0  0  0  0  0  0  0  0  0  0  0
    3.2020   -1.0820    0.8490 C   0  0  0  0  0  0  0  0  0  0  0  0
    2.5640   -0.1300   -0.1420 C   0  0  0  0  0  0  0  0  0  0  0  0
    1.4870    0.5310    0.6540 C   0  0  0  0  0  0  0  0  0  0  0  0
    0.5820    1.4600   -0.0190 C   0  0  0  0  0  0  0  0  0  0  0  0
   -0.4050    0.7890   -1.0250 C   0  0  0  0  0  0  0  0  0  0  0  0
   -1.2720    1.9880   -1.3730 C   0  0  0  0  0  0  0  0  0  0  0  0
   -2.7070    1.7160   -1.1660 C   0  0  0  0  0  0  0  0  0  0  0  0
   -2.9570    1.0440    0.1960 C   0  0  0  0  0  0  0  0  0  0  0  0
   -4.4990    0.9150    0.3170 C   0  0  0  0  0  0  0  0  0  0  0  0
   -4.6180   -0.2220    1.2210 O   0  0  0  0  0  0  0  0  0  0  0  0
   -5.4600   -1.2960    0.1560 S   0  0  2  0  0  0  0  0  0  0  0  0
   -6.0900   -0.2750   -1.0060 O   0  0  0  0  0  0  0  0  0  0  0  0
   -6.9210   -1.6460    1.1930 O   0  0  0  0  0  0  0  0  0  0  0  0
   -4.7410   -2.4120   -0.2840 O   0  0  0  0  0  0  0  0  0  0  0  0
  1  2  1  0
  2  3  1  0
  3  4  1  0
  4  5  1  0
  5  6  1  0
  6  7  1  0
  7  8  1  0
  8  9  1  0
  9 10  1  0
 10 11  1  0
 11 12  1  0
 12 13  1  0
 13 14  1  0
 14 15  1  6
 14 16  1  0
 14 17  1  0
M  END
