
     RDKit          3D

 15 15  0  0  0  0  0  0  0  0999 V2000
    4.4340   -1.2650    0.9400 C   0  0  0  0  0  0  0  0  0  0  0  0
    3.4150   -0.3540    0.6610 O   0  0  0  0  0  0  0  0  0  0  0  0
    3.2400   -0.2330   -0.7280 C   0  0  0  0  0  0  0  0  0  0  0  0
    2.1100    0.7800   -0.9350 C   0  0  0  0  0  0  0  0  0  0  0  0
    0.9960    0.2660   -0.3140 O   0  0  0  0  0  0  0  0  0  0  0  0
   -0.1270    1.0550   -0.4010 C   0  0  1  0  0  0  0  0  0  0  0  0
   -1.1930    0.3230   -1.1450 C   0  0  0  0  0  0  0  0  0  0  0  0
   -2.0080   -0.5930   -0.2940 C   0  0  2  0  0  0  0  0  0  0  0  0
   -1.2570   -1.8600    0.0520 C   0  0  0  0  0  0  0  0  0  0  0  0
   -3.2870   -0.9830   -1.0150 C   0  0  0  0  0  0  0  0  0  0  0  0
   -4.0340   -1.8540   -0.2070 O   0  0  0  0  0  0  0  0  0  0  0  0
   -2.3970    0.0390    0.8990 O   0  0  0  0  0  0  0  0  0  0  0  0
   -1.2940    0.4100    1.6530 C   0  0  0  0  0  0  0  0  0  0  0  0
   -0.5320    1.4990    0.9730 C   0  0  2  0  0  0  0  0  0  0  0  0
   -1.2340    2.7580    0.9680 N   0  0  0  0  0  0  0  0  0  0  0  0
  1  2  1  0
  2  3  1  0
  3  4  1  0
  4  5  1  0
  6  5  1  1
  6  7  1  0
  6 14  1  0
  7  8  1  0
  8  9  1  1
  8 10  1  0
  8 12  1  0
 10 11  1  0
 12 13  1  0
 13 14  1  0
 14 15  1  6
M  CHG  1  15   1
M  END
