
     RDKit          3D

 15 15  0  0  0  0  0  0  0  0999 V2000
    5.2710    1.4020   -0.0440 C   0  0  0  0  0  0  0  0  0  0  0  0
    4.7610    0.6870    1.0160 O   0  0  0  0  0  0  0  0  0  0  0  0
    3.4440    0.2520    0.7970 C   0  0  0  0  0  0  0  0  0  0  0  0
    3.3350   -0.6420   -0.3910 C   0  0  0  0  0  0  0  0  0  0  0  0
    2.0060   -1.0520   -0.5700 O   0  0  0  0  0  0  0  0  0  0  0  0
    0.9250   -0.2460   -0.8050 C   0  0  0  0  0  0  0  0  0  0  0  0
    1.1070    0.9890   -0.8760 O   0  0  0  0  0  0  0  0  0  0  0  0
   -0.4230   -0.8380   -0.9690 C   0  0  0  0  0  0  0  0  0  0  0  0
   -1.1830   -0.6590    0.3470 C   0  0  1  0  0  0  0  0  0  0  0  0
   -0.5200   -1.2940    1.3890 O   0  0  0  0  0  0  0  0  0  0  0  0
   -1.4370    0.8070    0.6190 C   0  0  0  0  0  0  0  0  0  0  0  0
   -2.9660    0.9330    0.6810 C   0  0  0  0  0  0  0  0  0  0  0  0
   -3.3400   -0.0920   -0.3960 C   0  0  2  0  0  0  0  0  0  0  0  0
   -4.7570   -0.3560   -0.4220 N   0  0  0  0  0  0  0  0  0  0  0  0
   -2.5530   -1.2970    0.1010 C   0  0  0  0  0  0  0  0  0  0  0  0
  1  2  1  0
  2  3  1  0
  3  4  1  0
  4  5  1  0
  5  6  1  0
  6  7  2  0
  6  8  1  0
  8  9  1  0
  9 10  1  1
  9 11  1  0
  9 15  1  0
 11 12  1  0
 12 13  1  0
 13 14  1  1
 13 15  1  0
M  CHG  1  14   1
M  END
