
     RDKit          3D

 15 15  0  0  0  0  0  0  0  0999 V2000
   -2.3160   -2.6640   -0.0960 C   0  0  0  0  0  0  0  0  0  0  0  0
   -2.8230   -1.6370    0.5160 C   0  0  0  0  0  0  0  0  0  0  0  0
   -4.0010   -1.7470    1.2760 O   0  0  0  0  0  0  0  0  0  0  0  0
   -2.1400   -0.3170    0.4110 C   0  0  0  0  0  0  0  0  0  0  0  0
   -2.7070    0.6810    1.0310 C   0  0  0  0  0  0  0  0  0  0  0  0
   -2.2900    2.0650    1.1080 C   0  0  0  0  0  0  0  0  0  0  0  0
   -1.1090    2.3610    0.3720 N   0  0  0  0  0  0  0  0  0  0  0  0
   -0.9740   -0.2830   -0.3270 O   0  0  0  0  0  0  0  0  0  0  0  0
    0.2200   -0.6790    0.2660 C   0  0  0  0  0  0  0  0  0  0  0  0
    1.4160   -0.6240   -0.6560 C   0  0  1  0  0  0  0  0  0  0  0  0
    1.6600    0.7670   -1.0860 C   0  0  0  0  0  0  0  0  0  0  0  0
    2.8150    0.9800   -1.7890 O   0  0  0  0  0  0  0  0  0  0  0  0
    3.9090    0.2670   -1.3970 C   0  0  0  0  0  0  0  0  0  0  0  0
    3.7020   -0.9420   -0.5890 C   0  0  0  0  0  0  0  0  0  0  0  0
    2.5060   -1.0550    0.0910 O   0  0  0  0  0  0  0  0  0  0  0  0
  1  2  2  0
  2  3  1  0
  2  4  1  0
  4  5  2  3
  4  8  1  0
  5  6  1  0
  6  7  1  0
  8  9  1  0
 10  9  1  1
 10 11  1  0
 10 15  1  0
 11 12  1  0
 12 13  1  0
 13 14  1  0
 14 15  1  0
M  CHG  1   7   1
M  END
