
     RDKit          3D

 14 13  0  0  0  0  0  0  0  0999 V2000
    1.8450    1.6090   -0.6650 C   0  0  0  0  0  0  0  0  0  0  0  0
    1.1200    0.4740   -0.0720 N   0  0  2  0  0  0  0  0  0  0  0  0
    2.0130   -0.6690   -0.0930 C   0  0  0  0  0  0  0  0  0  0  0  0
    3.4820   -0.2320   -0.1040 C   0  0  0  0  0  0  0  0  0  0  0  0
    4.2280   -1.4340   -0.1240 O   0  0  0  0  0  0  0  0  0  0  0  0
   -0.1070    0.2280   -0.7770 C   0  0  0  0  0  0  0  0  0  0  0  0
   -1.3010   -0.0240    0.1000 C   0  0  2  0  0  0  0  0  0  0  0  0
   -0.9910   -1.1740    1.0350 C   0  0  0  0  0  0  0  0  0  0  0  0
   -0.6680   -2.4050    0.4170 N   0  0  0  0  0  0  0  0  0  0  0  0
   -2.4410   -0.4720   -0.7730 C   0  0  0  0  0  0  0  0  0  0  0  0
   -3.5210   -0.8700    0.0260 O   0  0  0  0  0  0  0  0  0  0  0  0
   -1.5940    1.0370    0.9310 O   0  0  0  0  0  0  0  0  0  0  0  0
   -1.9000    2.2250    0.3550 C   0  0  0  0  0  0  0  0  0  0  0  0
   -3.0140    2.2140   -0.4830 O   0  0  0  0  0  0  0  0  0  0  0  0
  2  1  1  6
  2  3  1  0
  2  6  1  0
  3  4  1  0
  4  5  1  0
  7  6  1  6
  7  8  1  0
  7 10  1  0
  7 12  1  0
  8  9  1  0
 10 11  1  0
 12 13  1  0
 13 14  1  0
M  CHG  2   2   1   9   1
M  END
