
     RDKit          3D

 12 11  0  0  0  0  0  0  0  0999 V2000
    3.8150    1.5880   -0.2870 C   0  0  0  0  0  0  0  0  0  0  0  0
    3.9530    0.2880   -0.3170 C   0  0  0  0  0  0  0  0  0  0  0  0
    2.8640   -0.6410   -0.0840 C   0  0  0  0  0  0  0  0  0  0  0  0
    3.0690   -1.9260   -0.1290 C   0  0  0  0  0  0  0  0  0  0  0  0
    1.5180   -0.1110    0.2040 C   0  0  0  0  0  0  0  0  0  0  0  0
    0.5070   -1.1920    0.4200 C   0  0  0  0  0  0  0  0  0  0  0  0
   -0.7490   -0.6440    0.6960 O   0  0  0  0  0  0  0  0  0  0  0  0
   -1.4700    0.1640   -0.1500 C   0  0  0  0  0  0  0  0  0  0  0  0
   -0.9980    0.4530   -1.2740 O   0  0  0  0  0  0  0  0  0  0  0  0
   -2.7870    0.6590    0.3090 C   0  0  1  0  0  0  0  0  0  0  0  0
   -3.4680    1.5320   -0.7160 C   0  0  0  0  0  0  0  0  0  0  0  0
   -3.6770   -0.5640    0.5030 C   0  0  0  0  0  0  0  0  0  0  0  0
  1  2  2  0
  2  3  1  0
  3  4  2  0
  3  5  1  0
  5  6  1  0
  6  7  1  0
  7  8  1  0
  8  9  2  0
  8 10  1  0
 10 11  1  6
 10 12  1  0
M  END
