
     RDKit          3D

 12 11  0  0  0  0  0  0  0  0999 V2000
    5.1060   -0.2960    0.0880 C   0  0  0  0  0  0  0  0  0  0  0  0
    3.9810   -1.2770   -0.0150 C   0  0  0  0  0  0  0  0  0  0  0  0
    2.6600   -0.6410   -0.3760 C   0  0  0  0  0  0  0  0  0  0  0  0
    2.2090    0.3760    0.6160 C   0  0  0  0  0  0  0  0  0  0  0  0
    0.8860    0.9560    0.1730 C   0  0  0  0  0  0  0  0  0  0  0  0
   -0.0650   -0.0610    0.0860 O   0  0  0  0  0  0  0  0  0  0  0  0
   -1.2870    0.4550   -0.3200 C   0  0  0  0  0  0  0  0  0  0  0  0
   -2.2720   -0.7180   -0.3910 C   0  0  1  0  0  0  0  0  0  0  0  0
   -2.3490   -1.3100    0.9790 C   0  0  0  0  0  0  0  0  0  0  0  0
   -3.5950   -0.1940   -0.8770 C   0  0  2  0  0  0  0  0  0  0  0  0
   -4.1500    0.8640    0.0560 C   0  0  0  0  0  0  0  0  0  0  0  0
   -4.4910   -1.2620   -0.9390 O   0  0  0  0  0  0  0  0  0  0  0  0
  1  2  1  0
  2  3  1  0
  3  4  1  0
  4  5  1  0
  5  6  1  0
  6  7  1  0
  7  8  1  0
  8  9  1  1
  8 10  1  0
 10 11  1  1
 10 12  1  0
M  END
