
     RDKit          3D

 12 11  0  0  0  0  0  0  0  0999 V2000
   -4.4670    1.3810   -0.7110 C   0  0  0  0  0  0  0  0  0  0  0  0
   -2.9930    1.2630   -0.4520 C   0  0  0  0  0  0  0  0  0  0  0  0
   -2.6040   -0.1330    0.0140 C   0  0  0  0  0  0  0  0  0  0  0  0
   -1.1070   -0.1030    0.2330 C   0  0  0  0  0  0  0  0  0  0  0  0
   -0.5760   -1.4250    0.6980 C   0  0  0  0  0  0  0  0  0  0  0  0
    0.9100   -1.4460    0.9440 C   0  0  0  0  0  0  0  0  0  0  0  0
    1.6460   -1.1180   -0.3010 C   0  0  0  0  0  0  0  0  0  0  0  0
    3.1440   -1.1230   -0.1550 C   0  0  0  0  0  0  0  0  0  0  0  0
    3.6500   -0.1380    0.8560 C   0  0  0  0  0  0  0  0  0  0  0  0
    3.2740    1.2540    0.4990 C   0  0  0  0  0  0  0  0  0  0  0  0
    3.9250    1.9140   -0.3750 O   0  0  0  0  0  0  0  0  0  0  0  0
    2.2020    1.8960    1.0950 O   0  0  0  0  0  0  0  0  0  0  0  0
  1  2  1  0
  2  3  1  0
  3  4  1  0
  4  5  1  0
  5  6  1  0
  6  7  1  0
  7  8  1  0
  8  9  1  0
  9 10  1  0
 10 11  2  0
 10 12  1  0
M  END
