
     RDKit          3D

 12 11  0  0  0  0  0  0  0  0999 V2000
    4.0920   -0.2700    1.0060 C   0  0  0  0  0  0  0  0  0  0  0  0
    3.9530   -0.6560   -0.4420 C   0  0  0  0  0  0  0  0  0  0  0  0
    2.5190   -0.2650   -0.9020 C   0  0  0  0  0  0  0  0  0  0  0  0
    1.5850   -1.0260   -0.0340 C   0  0  0  0  0  0  0  0  0  0  0  0
    0.1390   -0.9190   -0.2330 C   0  0  0  0  0  0  0  0  0  0  0  0
   -0.5860    0.3520   -0.0720 C   0  0  1  0  0  0  0  0  0  0  0  0
   -0.2230    1.5010   -0.9540 C   0  0  0  0  0  0  0  0  0  0  0  0
   -0.2940    1.1120   -2.3030 O   0  0  0  0  0  0  0  0  0  0  0  0
   -1.9580    0.0780   -0.4210 O   0  0  0  0  0  0  0  0  0  0  0  0
   -2.8010    0.2650    0.6450 C   0  0  2  0  0  0  0  0  0  0  0  0
   -3.5630   -1.0170    0.9180 C   0  0  0  0  0  0  0  0  0  0  0  0
   -3.8610    1.3370    0.3660 C   0  0  0  0  0  0  0  0  0  0  0  0
  1  2  1  0
  2  3  1  0
  3  4  1  0
  4  5  1  0
  6  5  1  6
  6  7  1  0
  6  9  1  0
  7  8  1  0
  9 10  1  0
 10 11  1  6
 10 12  1  0
M  END
