
     RDKit          3D

 37 40  0  0  0  0  0  0  0  0999 V2000
    6.3550   -0.8050   -1.8960 C   0  0  0  0  0  0  0  0  0  0  0  0
    4.9720   -0.4020   -1.5890 C   0  0  0  0  0  0  0  0  0  0  0  0
    4.4900    0.5610   -2.2650 O   0  0  0  0  0  0  0  0  0  0  0  0
    4.1880   -1.0090   -0.6190 O   0  0  0  0  0  0  0  0  0  0  0  0
    2.8630   -0.5920   -0.3550 C   0  0  1  0  0  0  0  0  0  0  0  0
    1.9020   -1.7440   -0.5570 C   0  0  2  0  0  0  0  0  0  0  0  0
    1.5440   -1.9260   -2.0130 C   0  0  0  0  0  0  0  0  0  0  0  0
    0.8160   -1.6630    0.2710 O   0  0  0  0  0  0  0  0  0  0  0  0
    0.3260   -0.3380    0.4110 C   0  0  1  0  0  0  0  0  0  0  0  0
   -0.9100   -0.5000    1.1330 O   0  0  0  0  0  0  0  0  0  0  0  0
   -2.1110   -0.5570    0.4370 C   0  0  0  0  0  0  0  0  0  0  0  0
   -2.8810    0.5190    0.2240 C   0  0  0  0  0  0  0  0  0  0  0  0
   -2.5850    1.8550    0.6940 C   0  0  0  0  0  0  0  0  0  0  0  0
   -1.6730    2.2040    1.6390 C   0  0  0  0  0  0  0  0  0  0  0  0
   -1.4790    3.5480    1.9290 C   0  0  0  0  0  0  0  0  0  0  0  0
   -2.1840    4.5450    1.2900 C   0  0  0  0  0  0  0  0  0  0  0  0
   -2.0100    5.8910    1.5610 O   0  0  0  0  0  0  0  0  0  0  0  0
   -3.1200    4.2040    0.3240 C   0  0  0  0  0  0  0  0  0  0  0  0
   -3.2980    2.8840    0.0500 C   0  0  0  0  0  0  0  0  0  0  0  0
   -4.0060    0.3180   -0.4810 O   0  0  0  0  0  0  0  0  0  0  0  0
   -4.3580   -0.8480   -0.9430 C   0  0  0  0  0  0  0  0  0  0  0  0
   -5.5250   -0.9530   -1.6510 C   0  0  0  0  0  0  0  0  0  0  0  0
   -5.9180   -2.1920   -2.1530 C   0  0  0  0  0  0  0  0  0  0  0  0
   -7.1200   -2.2860   -2.8790 O   0  0  0  0  0  0  0  0  0  0  0  0
   -5.1560   -3.3060   -1.9480 C   0  0  0  0  0  0  0  0  0  0  0  0
   -3.9510   -3.2330   -1.2250 C   0  0  0  0  0  0  0  0  0  0  0  0
   -3.2480   -4.3920   -1.0660 O   0  0  0  0  0  0  0  0  0  0  0  0
   -3.6070   -1.9930   -0.7520 C   0  0  0  0  0  0  0  0  0  0  0  0
   -2.4430   -1.8480   -0.0390 C   0  0  0  0  0  0  0  0  0  0  0  0
   -1.6510   -2.7890    0.2200 O   0  0  0  0  0  0  0  0  0  0  0  0
    1.3120    0.4880    1.1690 C   0  0  2  0  0  0  0  0  0  0  0  0
    1.3610    1.7910    0.6760 O   0  0  0  0  0  0  0  0  0  0  0  0
    2.6970   -0.1560    1.0910 C   0  0  2  0  0  0  0  0  0  0  0  0
    3.7090    0.6860    1.5390 O   0  0  0  0  0  0  0  0  0  0  0  0
    4.5260    0.3330    2.6030 C   0  0  0  0  0  0  0  0  0  0  0  0
    5.5880    1.2610    3.0420 C   0  0  0  0  0  0  0  0  0  0  0  0
    4.3030   -0.7870    3.1420 O   0  0  0  0  0  0  0  0  0  0  0  0
  1  2  1  0
  2  3  2  0
  2  4  1  0
  5  4  1  1
  5  6  1  0
  5 33  1  0
  6  7  1  6
  6  8  1  0
  8  9  1  0
  9 10  1  1
  9 31  1  0
 10 11  1  0
 11 12  2  0
 11 29  1  0
 12 13  1  0
 12 20  1  0
 13 14  2  0
 13 19  1  0
 14 15  1  0
 15 16  2  0
 16 17  1  0
 16 18  1  0
 18 19  2  0
 20 21  1  0
 21 22  2  0
 21 28  1  0
 22 23  1  0
 23 24  1  0
 23 25  2  0
 25 26  1  0
 26 27  1  0
 26 28  2  0
 28 29  1  0
 29 30  2  0
 31 32  1  6
 31 33  1  0
 33 34  1  6
 34 35  1  0
 35 36  1  0
 35 37  2  0
M  END
