
     RDKit          3D

 36 38  0  0  0  0  0  0  0  0999 V2000
    6.7150    2.7310   -1.8630 C   0  0  0  0  0  0  0  0  0  0  0  0
    5.4530    2.0870   -1.9820 O   0  0  0  0  0  0  0  0  0  0  0  0
    5.3240    0.8060   -1.5170 C   0  0  0  0  0  0  0  0  0  0  0  0
    6.4200    0.1580   -0.9510 C   0  0  0  0  0  0  0  0  0  0  0  0
    6.2980   -1.1220   -0.4820 C   0  0  0  0  0  0  0  0  0  0  0  0
    7.3270   -1.8210    0.0830 O   0  0  0  0  0  0  0  0  0  0  0  0
    8.5960   -1.3200    0.2630 C   0  0  0  0  0  0  0  0  0  0  0  0
    8.6620   -0.1650    1.1990 C   0  0  0  0  0  0  0  0  0  0  0  0
    9.9050    0.4850    1.4630 N   0  0  0  0  0  0  0  0  0  0  0  0
    7.5900    0.2180    1.7490 O   0  0  0  0  0  0  0  0  0  0  0  0
    5.0350   -1.7210   -0.6040 C   0  0  0  0  0  0  0  0  0  0  0  0
    3.9430   -1.0940   -1.1650 C   0  0  0  0  0  0  0  0  0  0  0  0
    2.7080   -1.9020   -1.3210 C   0  0  0  0  0  0  0  0  0  0  0  0
    1.5230   -1.3880   -0.9480 O   0  0  0  0  0  0  0  0  0  0  0  0
    0.9790   -0.8360    0.1430 C   0  0  0  0  0  0  0  0  0  0  0  0
    1.6850   -0.6100    1.2940 C   0  0  0  0  0  0  0  0  0  0  0  0
    1.0190   -0.0380    2.3620 C   0  0  0  0  0  0  0  0  0  0  0  0
   -0.3090    0.3000    2.2950 C   0  0  0  0  0  0  0  0  0  0  0  0
   -0.9580    0.8930    3.4160 N   0  0  0  0  0  0  0  0  0  0  0  0
   -1.0710    0.0840    1.1330 C   0  0  0  0  0  0  0  0  0  0  0  0
   -2.4970    0.4470    1.1870 C   0  0  0  0  0  0  0  0  0  0  0  0
   -3.3080    0.2030    0.0480 N   0  0  1  0  0  0  0  0  0  0  0  0
   -3.1720    1.1180   -1.0300 C   0  0  0  0  0  0  0  0  0  0  0  0
   -3.6730    2.5000   -0.9080 C   0  0  0  0  0  0  0  0  0  0  0  0
   -5.0990    2.7780   -0.6760 C   0  0  1  0  0  0  0  0  0  0  0  0
   -5.7140    2.2750    0.5950 C   0  0  0  0  0  0  0  0  0  0  0  0
   -5.2790    4.3050   -0.7050 C   0  0  0  0  0  0  0  0  0  0  0  0
   -3.2470   -1.1610   -0.4670 C   0  0  0  0  0  0  0  0  0  0  0  0
   -4.6660   -1.7370   -0.5060 C   0  0  2  0  0  0  0  0  0  0  0  0
   -5.3130   -1.7970    0.8440 C   0  0  0  0  0  0  0  0  0  0  0  0
   -5.9840   -3.1690    0.8930 C   0  0  0  0  0  0  0  0  0  0  0  0
   -5.9080   -3.6850   -0.4670 N   0  0  0  0  0  0  0  0  0  0  0  0
   -4.6340   -3.1840   -0.9400 C   0  0  0  0  0  0  0  0  0  0  0  0
   -0.4030   -0.4720    0.1000 C   0  0  0  0  0  0  0  0  0  0  0  0
    4.0880    0.1880   -1.6270 C   0  0  0  0  0  0  0  0  0  0  0  0
    3.0090    0.8350   -2.1880 O   0  0  0  0  0  0  0  0  0  0  0  0
  1  2  1  0
  2  3  1  0
  3  4  2  0
  3 35  1  0
  4  5  1  0
  5  6  1  0
  5 11  2  0
  6  7  1  0
  7  8  1  0
  8  9  1  0
  8 10  2  0
 11 12  1  0
 12 13  1  0
 12 35  2  0
 13 14  1  0
 14 15  1  0
 15 16  2  0
 15 34  1  0
 16 17  1  0
 17 18  2  0
 18 19  1  0
 18 20  1  0
 20 21  1  0
 20 34  2  0
 22 21  1  1
 22 23  1  0
 22 28  1  0
 23 24  1  0
 24 25  1  0
 25 26  1  1
 25 27  1  0
 29 28  1  1
 29 30  1  0
 29 33  1  0
 30 31  1  0
 31 32  1  0
 32 33  1  0
 35 36  1  0
M  CHG  2  22   1  32   1
M  END
