
     RDKit          3D

 13 13  0  0  0  0  0  0  0  0999 V2000
    1.7090   -1.1890    0.2700 N   0  0  0  0  0  0  0  0  0  0  0  0
    2.3390   -0.0590   -0.2990 C   0  0  0  0  0  0  0  0  0  0  0  0
    3.8640    0.3250    0.0940 S   0  0  0  0  0  0  0  0  0  0  0  0
    1.5620    0.7570   -1.2640 C   0  0  0  0  0  0  0  0  0  0  0  0
    0.4000    1.2680   -0.5760 N   0  0  0  0  0  0  0  0  0  0  0  0
   -0.6650    0.3790   -0.1510 C   0  0  0  0  0  0  0  0  0  0  0  0
   -0.7880   -0.7490   -0.7170 N   0  0  0  0  0  0  0  0  0  0  0  0
   -2.1390   -1.5140    0.0380 S   0  0  1  0  0  0  0  0  0  0  0  0
   -3.2560   -1.8000   -0.8960 O   0  0  0  0  0  0  0  0  0  0  0  0
   -1.6710   -2.7140    0.7950 O   0  0  0  0  0  0  0  0  0  0  0  0
   -2.4730   -0.2130    1.1170 N   0  0  0  0  0  0  0  0  0  0  0  0
   -1.6020    0.6850    0.8730 C   0  0  0  0  0  0  0  0  0  0  0  0
   -1.6230    1.8900    1.6150 O   0  0  0  0  0  0  0  0  0  0  0  0
  1  2  1  0
  2  3  2  0
  2  4  1  0
  4  5  1  0
  5  6  1  0
  6  7  2  0
  6 12  1  0
  8  7  1  6
  8  9  2  0
  8 10  2  0
  8 11  1  0
 11 12  2  0
 12 13  1  0
M  END
