
     RDKit          3D

 12 12  0  0  0  0  0  0  0  0999 V2000
   -4.7120    0.2030    0.1320 C   0  0  0  0  0  0  0  0  0  0  0  0
   -3.3510    0.4190   -0.1840 O   0  0  0  0  0  0  0  0  0  0  0  0
   -2.3080   -0.3070    0.3190 C   0  0  0  0  0  0  0  0  0  0  0  0
   -2.5580   -1.2440    1.1250 O   0  0  0  0  0  0  0  0  0  0  0  0
   -0.9040   -0.0050   -0.0730 C   0  0  0  0  0  0  0  0  0  0  0  0
    0.2420   -1.1400    0.7600 S   0  0  0  0  0  0  0  0  0  0  0  0
    1.9020   -0.7270    0.2500 C   0  0  0  0  0  0  0  0  0  0  0  0
    2.9630   -1.3380    0.6550 N   0  0  0  0  0  0  0  0  0  0  0  0
    4.0840   -0.7410    0.0440 N   0  0  0  0  0  0  0  0  0  0  0  0
    3.6840    0.4920   -0.4580 N   0  0  0  0  0  0  0  0  0  0  0  0
    3.9000    1.5090    0.4090 O   0  0  0  0  0  0  0  0  0  0  0  0
    2.3070    0.2950   -0.6440 N   0  0  0  0  0  0  0  0  0  0  0  0
  1  2  1  0
  2  3  1  0
  3  4  2  0
  3  5  1  0
  5  6  1  0
  6  7  1  0
  7  8  2  0
  7 12  1  0
  8  9  1  0
  9 10  1  0
 10 11  1  0
 10 12  1  0
M  END
