
     RDKit          3D

 13 13  0  0  0  0  0  0  0  0999 V2000
   -4.1790   -0.7690   -0.7140 C   0  0  0  0  0  0  0  0  0  0  0  0
   -3.0650   -0.6300    0.6720 S   0  0  2  0  0  0  0  0  0  0  0  0
   -2.5160   -1.9760    1.0750 O   0  0  0  0  0  0  0  0  0  0  0  0
   -3.8070   -0.1240    1.8930 O   0  0  0  0  0  0  0  0  0  0  0  0
   -1.7760    0.4520    0.3590 N   0  0  0  0  0  0  0  0  0  0  0  0
   -0.4790   -0.1090    0.2060 C   0  0  0  0  0  0  0  0  0  0  0  0
   -0.2510   -1.3230    0.2920 O   0  0  0  0  0  0  0  0  0  0  0  0
    0.6380    0.6750   -0.0620 N   0  0  0  0  0  0  0  0  0  0  0  0
    1.8870    0.0700   -0.1490 C   0  0  0  0  0  0  0  0  0  0  0  0
    2.7690    0.7010   -0.7230 N   0  0  0  0  0  0  0  0  0  0  0  0
    3.9850    0.1360   -0.8450 N   0  0  0  0  0  0  0  0  0  0  0  0
    4.4540   -0.4040    0.4460 C   0  0  0  0  0  0  0  0  0  0  0  0
    2.8090   -1.2630    0.6690 S   0  0  0  0  0  0  0  0  0  0  0  0
  2  1  1  6
  2  3  2  0
  2  4  2  0
  2  5  1  0
  5  6  1  0
  6  7  2  0
  6  8  1  0
  8  9  1  0
  9 10  2  0
  9 13  1  0
 10 11  1  0
 11 12  1  0
 12 13  1  0
M  END
