
     RDKit          3D

 13 13  0  0  0  0  0  0  0  0999 V2000
    3.8350   -0.7930   -0.5750 O   0  0  0  0  0  0  0  0  0  0  0  0
    3.3960    0.0810    0.2190 C   0  0  0  0  0  0  0  0  0  0  0  0
    4.3000    0.8260    0.9640 O   0  0  0  0  0  0  0  0  0  0  0  0
    1.9820    0.2610    0.3110 N   0  0  0  0  0  0  0  0  0  0  0  0
    1.0800   -0.4820   -0.4320 N   0  0  0  0  0  0  0  0  0  0  0  0
   -0.1760   -0.2510   -0.3070 C   0  0  0  0  0  0  0  0  0  0  0  0
   -0.8880    0.9120    0.7110 S   0  0  0  0  0  0  0  0  0  0  0  0
   -2.5870    0.9210    0.6020 C   0  0  0  0  0  0  0  0  0  0  0  0
   -3.5430    1.9320    1.4640 S   0  0  0  0  0  0  0  0  0  0  0  0
   -3.0920    0.0190   -0.2590 N   0  0  0  0  0  0  0  0  0  0  0  0
   -2.4200   -0.8250   -0.9860 N   0  0  0  0  0  0  0  0  0  0  0  0
   -1.0950   -0.9870   -1.0440 C   0  0  0  0  0  0  0  0  0  0  0  0
   -0.6330   -1.8880   -1.8380 O   0  0  0  0  0  0  0  0  0  0  0  0
  1  2  2  0
  2  3  1  0
  2  4  1  0
  4  5  1  0
  5  6  2  3
  6  7  1  0
  6 12  1  0
  7  8  1  0
  8  9  2  0
  8 10  1  0
 10 11  1  0
 11 12  1  0
 12 13  2  0
M  END
