
     RDKit          3D

  7  6  0  0  0  0  0  0  0  0999 V2000
   -0.8880   -1.0330    1.9090 C   0  0  0  0  0  0  0  0  0  0  0  0
   -0.5740   -0.7610    0.6580 C   0  0  0  0  0  0  0  0  0  0  0  0
   -1.0410   -1.6780   -0.4050 C   0  0  0  0  0  0  0  0  0  0  0  0
    0.2080    0.3980    0.2960 C   0  0  0  0  0  0  0  0  0  0  0  0
    0.6770    1.2980    1.2460 O   0  0  0  0  0  0  0  0  0  0  0  0
    0.5000    0.6350   -0.9610 C   0  0  0  0  0  0  0  0  0  0  0  0
    1.2950    1.7930   -1.4370 C   0  0  0  0  0  0  0  0  0  0  0  0
  1  2  2  0
  2  3  1  0
  2  4  1  0
  4  5  1  0
  4  6  2  3
  6  7  1  0
M  END
