
     RDKit          3D

  7  7  0  0  0  0  0  0  0  0999 V2000
   -0.6500    1.3140   -0.5150 C   0  0  0  0  0  0  0  0  0  0  0  0
   -0.5470    0.0020    0.2100 C   0  0  1  0  0  0  0  0  0  0  0  0
   -1.9070   -0.5930    0.3810 C   0  0  0  0  0  0  0  0  0  0  0  0
    0.3010   -0.9680   -0.6120 C   0  0  0  0  0  0  0  0  0  0  0  0
    1.6960   -0.4190   -0.3070 C   0  0  0  0  0  0  0  0  0  0  0  0
    1.4910    0.2910    1.0030 C   0  0  0  0  0  0  0  0  0  0  0  0
    0.1740    0.0780    1.3890 O   0  0  0  0  0  0  0  0  0  0  0  0
  2  1  1  6
  2  3  1  0
  2  4  1  0
  2  7  1  0
  4  5  1  0
  5  6  1  0
  6  7  1  0
M  END
