
     RDKit          3D

  7  7  0  0  0  0  0  0  0  0999 V2000
    2.1120    0.0510   -0.0640 C   0  0  0  0  0  0  0  0  0  0  0  0
    0.6270    0.1190   -0.0710 C   0  0  0  0  0  0  0  0  0  0  0  0
   -0.0760    1.2180   -0.1960 C   0  0  0  0  0  0  0  0  0  0  0  0
   -1.5040    0.9460   -0.1650 C   0  0  0  0  0  0  0  0  0  0  0  0
   -2.4340    1.7530   -0.4190 O   0  0  0  0  0  0  0  0  0  0  0  0
   -1.6700   -0.4820    0.2280 C   0  0  0  0  0  0  0  0  0  0  0  0
   -0.2890   -1.0450    0.0600 C   0  0  0  0  0  0  0  0  0  0  0  0
  1  2  1  0
  2  3  2  0
  2  7  1  0
  3  4  1  0
  4  5  2  0
  4  6  1  0
  6  7  1  0
M  END
