
     RDKit          3D

  7  6  0  0  0  0  0  0  0  0999 V2000
    2.8470    0.0940    0.7640 C   0  0  0  0  0  0  0  0  0  0  0  0
    1.5510   -0.4730    0.3590 C   0  0  0  0  0  0  0  0  0  0  0  0
    0.4300    0.2120    0.4440 C   0  0  0  0  0  0  0  0  0  0  0  0
   -0.8560   -0.3140    0.0560 C   0  0  0  0  0  0  0  0  0  0  0  0
   -1.9360    0.4310    0.1690 C   0  0  0  0  0  0  0  0  0  0  0  0
   -3.2610   -0.0470   -0.2070 C   0  0  0  0  0  0  0  0  0  0  0  0
   -3.4290   -1.2070   -0.6620 O   0  0  0  0  0  0  0  0  0  0  0  0
  1  2  1  0
  2  3  2  3
  3  4  1  0
  4  5  2  3
  5  6  1  0
  6  7  2  0
M  END
