
     RDKit          3D

  7  7  0  0  0  0  0  0  0  0999 V2000
    2.1610    0.1620    0.1990 C   0  0  0  0  0  0  0  0  0  0  0  0
    0.7050    0.0220    0.0290 C   0  0  0  0  0  0  0  0  0  0  0  0
    0.0470   -1.1100   -0.0440 C   0  0  0  0  0  0  0  0  0  0  0  0
   -1.4090   -0.8820   -0.2150 C   0  0  0  0  0  0  0  0  0  0  0  0
   -1.6370    0.5760    0.0640 C   0  0  0  0  0  0  0  0  0  0  0  0
   -0.2390    1.1210   -0.0820 C   0  0  0  0  0  0  0  0  0  0  0  0
    0.0480    2.3210   -0.2690 O   0  0  0  0  0  0  0  0  0  0  0  0
  1  2  1  0
  2  3  2  0
  2  6  1  0
  3  4  1  0
  4  5  1  0
  5  6  1  0
  6  7  2  0
M  END
