
     RDKit          3D

  7  7  0  0  0  0  0  0  0  0999 V2000
    0.2460    1.5520   -0.0540 C   0  0  0  0  0  0  0  0  0  0  0  0
    0.4000    0.0640    0.0650 C   0  0  1  0  0  0  0  0  0  0  0  0
    1.7390   -0.3700    0.5480 C   0  0  0  0  0  0  0  0  0  0  0  0
   -0.7490   -0.4550    0.8950 C   0  0  0  0  0  0  0  0  0  0  0  0
   -1.8620   -0.4690   -0.1350 C   0  0  0  0  0  0  0  0  0  0  0  0
   -1.3030   -0.5670   -1.3700 O   0  0  0  0  0  0  0  0  0  0  0  0
    0.0560   -0.5780   -1.2850 C   0  0  0  0  0  0  0  0  0  0  0  0
  2  1  1  6
  2  3  1  0
  2  4  1  0
  2  7  1  0
  4  5  1  0
  5  6  1  0
  6  7  1  0
M  END
