
     RDKit          3D

 30 33  0  0  0  0  0  0  0  0999 V2000
   -4.6170    1.3640   -4.3790 C   0  0  0  0  0  0  0  0  0  0  0  0
   -3.5800    1.0610   -3.3410 C   0  0  0  0  0  0  0  0  0  0  0  0
   -4.1060    1.0600   -2.0300 O   0  0  0  0  0  0  0  0  0  0  0  0
   -3.2520    0.7930   -0.9750 C   0  0  0  0  0  0  0  0  0  0  0  0
   -1.9180    0.5340   -1.1840 C   0  0  0  0  0  0  0  0  0  0  0  0
   -1.0580    0.2670   -0.1320 C   0  0  0  0  0  0  0  0  0  0  0  0
    0.6580   -0.0610   -0.4720 S   0  0  0  0  0  0  0  0  0  0  0  0
    1.0080   -1.7800   -0.7270 C   0  0  0  0  0  0  0  0  0  0  0  0
    2.2200   -2.1200   -0.9760 N   0  0  0  0  0  0  0  0  0  0  0  0
    3.3100   -1.2280   -1.0660 C   0  0  0  0  0  0  0  0  0  0  0  0
    3.7970   -0.6120   -0.0150 C   0  0  0  0  0  0  0  0  0  0  0  0
    3.2910   -0.7680    1.3210 N   0  0  0  0  0  0  0  0  0  0  0  0
    4.0600    0.0460    2.1870 C   0  0  0  0  0  0  0  0  0  0  0  0
    3.9270    0.1860    3.4460 N   0  0  0  0  0  0  0  0  0  0  0  0
    5.0550    0.7060    1.3320 C   0  0  0  0  0  0  0  0  0  0  0  0
    6.0750    1.5680    1.3840 N   0  0  0  0  0  0  0  0  0  0  0  0
    6.5790    1.7410    0.1440 C   0  0  0  0  0  0  0  0  0  0  0  0
    7.7240    2.6340   -0.1700 C   0  0  0  0  0  0  0  0  0  0  0  0
    5.8600    0.9790   -0.6700 N   0  0  0  0  0  0  0  0  0  0  0  0
    4.9040    0.3210    0.0300 C   0  0  0  0  0  0  0  0  0  0  0  0
   -0.0290   -2.8290   -0.6640 C   0  0  1  0  0  0  0  0  0  0  0  0
   -1.0800   -2.6190   -1.7110 C   0  0  0  0  0  0  0  0  0  0  0  0
    0.5740   -4.2090   -0.8540 C   0  0  0  0  0  0  0  0  0  0  0  0
   -1.5530    0.2610    1.1510 C   0  0  0  0  0  0  0  0  0  0  0  0
   -2.9060    0.5200    1.4090 C   0  0  0  0  0  0  0  0  0  0  0  0
   -3.7240    0.7800    0.3420 C   0  0  0  0  0  0  0  0  0  0  0  0
   -4.9970    1.0040    0.8240 O   0  0  0  0  0  0  0  0  0  0  0  0
   -5.0950    0.6470    2.1920 C   0  0  2  0  0  0  0  0  0  0  0  0
   -5.8510    1.6540    3.0000 C   0  0  0  0  0  0  0  0  0  0  0  0
   -3.6750    0.5720    2.6940 C   0  0  0  0  0  0  0  0  0  0  0  0
  1  2  1  0
  2  3  1  0
  3  4  1  0
  4  5  2  0
  4 26  1  0
  5  6  1  0
  6  7  1  0
  6 24  2  0
  7  8  1  0
  8  9  2  3
  8 21  1  0
  9 10  1  0
 10 11  2  3
 11 12  1  0
 11 20  1  0
 12 13  1  0
 13 14  2  0
 13 15  1  0
 15 16  1  0
 15 20  2  0
 16 17  1  0
 17 18  1  0
 17 19  2  0
 19 20  1  0
 21 22  1  6
 21 23  1  0
 24 25  1  0
 25 26  2  0
 25 30  1  0
 26 27  1  0
 27 28  1  0
 28 29  1  1
 28 30  1  0
M  CHG  1  14   1
M  END
