
     RDKit          3D

 30 33  0  0  0  0  0  0  0  0999 V2000
   -6.1070   -1.4600   -1.6910 C   0  0  0  0  0  0  0  0  0  0  0  0
   -5.0250   -1.8640   -1.1280 C   0  0  0  0  0  0  0  0  0  0  0  0
   -4.5980   -3.3170   -1.1160 C   0  0  0  0  0  0  0  0  0  0  0  0
   -3.1960   -3.4120   -1.6680 C   0  0  0  0  0  0  0  0  0  0  0  0
   -2.2590   -2.3500   -1.2640 C   0  0  0  0  0  0  0  0  0  0  0  0
   -2.7710   -1.1720   -0.5780 C   0  0  0  0  0  0  0  0  0  0  0  0
   -1.8470   -0.2770    0.0120 C   0  0  0  0  0  0  0  0  0  0  0  0
   -0.4740   -0.5570   -0.1680 N   0  0  0  0  0  0  0  0  0  0  0  0
    0.6310    0.1300    0.3670 C   0  0  0  0  0  0  0  0  0  0  0  0
    0.3870    1.1120    1.0960 O   0  0  0  0  0  0  0  0  0  0  0  0
    2.0100   -0.2470    0.1120 C   0  0  0  0  0  0  0  0  0  0  0  0
    2.1400   -1.2750   -0.6520 O   0  0  0  0  0  0  0  0  0  0  0  0
    3.1980    0.3890    0.6090 C   0  0  0  0  0  0  0  0  0  0  0  0
    3.2120    1.4840    1.4270 C   0  0  0  0  0  0  0  0  0  0  0  0
    4.4240    2.0410    1.8660 C   0  0  0  0  0  0  0  0  0  0  0  0
    5.6190    1.4730    1.4640 C   0  0  0  0  0  0  0  0  0  0  0  0
    5.6500    0.3780    0.6460 C   0  0  0  0  0  0  0  0  0  0  0  0
    6.7750   -0.2480    0.1950 O   0  0  0  0  0  0  0  0  0  0  0  0
    8.1090   -0.0300    0.3550 C   0  0  0  0  0  0  0  0  0  0  0  0
    8.6400    1.2680   -0.1940 C   0  0  0  0  0  0  0  0  0  0  0  0
   10.0130    1.3410    0.0470 O   0  0  0  0  0  0  0  0  0  0  0  0
    4.4280   -0.1300    0.2440 C   0  0  0  0  0  0  0  0  0  0  0  0
   -2.3620    0.7930    0.6810 C   0  0  0  0  0  0  0  0  0  0  0  0
   -3.7270    1.0380    0.8040 C   0  0  0  0  0  0  0  0  0  0  0  0
   -4.5850    0.1470    0.2170 C   0  0  0  0  0  0  0  0  0  0  0  0
   -4.1200   -0.9330   -0.4610 C   0  0  0  0  0  0  0  0  0  0  0  0
   -6.3530    0.3590    0.3660 S   0  0  0  0  0  0  0  0  0  0  0  0
   -6.6080    1.9970    1.0400 C   0  0  0  0  0  0  0  0  0  0  0  0
   -5.5110    2.3550    2.0070 C   0  0  0  0  0  0  0  0  0  0  0  0
   -4.1890    2.1920    1.5240 N   0  0  0  0  0  0  0  0  0  0  0  0
  1  2  2  0
  2  3  1  0
  2 26  1  0
  3  4  1  0
  4  5  1  0
  5  6  1  0
  6  7  2  0
  6 26  1  0
  7  8  1  0
  7 23  1  0
  8  9  1  0
  9 10  2  0
  9 11  1  0
 11 12  2  0
 11 13  1  0
 13 14  2  0
 13 22  1  0
 14 15  1  0
 15 16  2  0
 16 17  1  0
 17 18  1  0
 17 22  2  0
 18 19  1  0
 19 20  1  0
 20 21  1  0
 23 24  2  0
 24 25  1  0
 24 30  1  0
 25 26  2  0
 25 27  1  0
 27 28  1  0
 28 29  1  0
 29 30  1  0
M  END
