
     RDKit          3D

 30 33  0  0  0  0  0  0  0  0999 V2000
    7.8240   -0.0830    0.9690 C   0  0  0  0  0  0  0  0  0  0  0  0
    6.4240    0.1520    0.4170 C   0  0  0  0  0  0  0  0  0  0  0  0
    5.4810   -0.8310    1.0690 C   0  0  0  0  0  0  0  0  0  0  0  0
    4.1300   -0.6960    0.6180 N   0  0  1  0  0  0  0  0  0  0  0  0
    3.5910    0.6300    0.8280 C   0  0  0  0  0  0  0  0  0  0  0  0
    2.1380    0.5890    0.3870 C   0  0  0  0  0  0  0  0  0  0  0  0
    2.0330    0.4430   -1.1240 C   0  0  2  0  0  0  0  0  0  0  0  0
    0.8810   -0.2840   -1.4370 N   0  0  0  0  0  0  0  0  0  0  0  0
   -0.4000    0.3480   -2.2510 S   0  0  2  0  0  0  0  0  0  0  0  0
   -0.8220   -0.5010   -3.4480 O   0  0  0  0  0  0  0  0  0  0  0  0
   -0.2280    1.7260   -2.8130 O   0  0  0  0  0  0  0  0  0  0  0  0
   -1.8140    0.4120   -1.2040 C   0  0  0  0  0  0  0  0  0  0  0  0
   -2.6470   -0.7160   -1.1500 C   0  0  0  0  0  0  0  0  0  0  0  0
   -2.2090   -1.9380   -1.9100 C   0  0  0  0  0  0  0  0  0  0  0  0
   -3.8010   -0.7190   -0.3960 C   0  0  0  0  0  0  0  0  0  0  0  0
   -4.6300   -1.8170   -0.3460 C   0  0  0  0  0  0  0  0  0  0  0  0
   -5.7790   -1.7740    0.4180 C   0  0  0  0  0  0  0  0  0  0  0  0
   -6.6810   -2.9470    0.4830 C   0  0  0  0  0  0  0  0  0  0  0  0
   -6.0840   -0.6320    1.1200 C   0  0  0  0  0  0  0  0  0  0  0  0
   -5.2730    0.4790    1.0850 C   0  0  0  0  0  0  0  0  0  0  0  0
   -5.6370    1.6750    1.8410 C   0  0  0  0  0  0  0  0  0  0  0  0
   -6.6870    1.7180    2.5400 O   0  0  0  0  0  0  0  0  0  0  0  0
   -4.7960    2.8040    1.7860 N   0  0  0  0  0  0  0  0  0  0  0  0
   -3.6370    2.7120    0.9950 N   0  0  0  0  0  0  0  0  0  0  0  0
   -3.2830    1.5570    0.2640 C   0  0  0  0  0  0  0  0  0  0  0  0
   -2.1370    1.5590   -0.4850 C   0  0  0  0  0  0  0  0  0  0  0  0
   -1.1860    2.7120   -0.5630 C   0  0  0  0  0  0  0  0  0  0  0  0
   -4.1130    0.4450    0.3190 C   0  0  0  0  0  0  0  0  0  0  0  0
    3.3440   -0.0710   -1.6110 C   0  0  0  0  0  0  0  0  0  0  0  0
    3.9390   -1.1500   -0.7430 C   0  0  0  0  0  0  0  0  0  0  0  0
  1  2  1  0
  2  3  1  0
  4  3  1  6
  4  5  1  0
  4 30  1  0
  5  6  1  0
  6  7  1  0
  7  8  1  1
  7 29  1  0
  9  8  1  1
  9 10  2  0
  9 11  2  0
  9 12  1  0
 12 13  2  0
 12 26  1  0
 13 14  1  0
 13 15  1  0
 15 16  2  0
 15 28  1  0
 16 17  1  0
 17 18  1  0
 17 19  2  0
 19 20  1  0
 20 21  1  0
 20 28  2  0
 21 22  2  0
 21 23  1  0
 23 24  1  0
 24 25  1  0
 25 26  2  0
 25 28  1  0
 26 27  1  0
 29 30  1  0
M  CHG  1   4   1
M  END
