
     RDKit          3D

 30 33  0  0  0  0  0  0  0  0999 V2000
   10.0660    1.7770    0.1610 C   0  0  0  0  0  0  0  0  0  0  0  0
    8.6060    2.0950    0.2130 C   0  0  0  0  0  0  0  0  0  0  0  0
    7.8030    0.8770    0.0310 N   0  0  0  0  0  0  0  0  0  0  0  0
    6.3900    0.9150    0.0400 C   0  0  0  0  0  0  0  0  0  0  0  0
    5.8650    2.0530    0.2130 O   0  0  0  0  0  0  0  0  0  0  0  0
    5.5620   -0.2820   -0.1390 C   0  0  0  0  0  0  0  0  0  0  0  0
    6.0780   -1.5370   -0.3250 C   0  0  0  0  0  0  0  0  0  0  0  0
    5.2410   -2.6210   -0.4870 C   0  0  0  0  0  0  0  0  0  0  0  0
    3.8600   -2.4270   -0.4600 C   0  0  0  0  0  0  0  0  0  0  0  0
    2.9770   -3.5930   -0.6340 C   0  0  0  0  0  0  0  0  0  0  0  0
    3.3000   -1.1810   -0.2750 C   0  0  0  0  0  0  0  0  0  0  0  0
    1.8860   -1.0610   -0.2590 N   0  0  0  0  0  0  0  0  0  0  0  0
    1.1210    0.0770   -0.0910 C   0  0  0  0  0  0  0  0  0  0  0  0
    1.7400    1.1810    0.0740 O   0  0  0  0  0  0  0  0  0  0  0  0
   -0.3370    0.0960   -0.0900 C   0  0  0  0  0  0  0  0  0  0  0  0
   -1.2310    1.6510    0.1430 S   0  0  0  0  0  0  0  0  0  0  0  0
   -2.8420    0.9900    0.0400 C   0  0  0  0  0  0  0  0  0  0  0  0
   -4.0690    1.7500    0.1780 N   0  0  0  0  0  0  0  0  0  0  0  0
   -5.3390    1.1490    0.0020 C   0  0  0  0  0  0  0  0  0  0  0  0
   -5.6010    0.3260   -0.9690 N   0  0  0  0  0  0  0  0  0  0  0  0
   -6.9750   -0.1340   -0.9060 C   0  0  0  0  0  0  0  0  0  0  0  0
   -7.3750    0.1810    0.5030 C   0  0  2  0  0  0  0  0  0  0  0  0
   -8.7230    0.8540    0.6280 C   0  0  0  0  0  0  0  0  0  0  0  0
   -8.5370    1.6780    1.8880 C   0  0  0  0  0  0  0  0  0  0  0  0
   -7.1190    2.1970    1.7330 C   0  0  0  0  0  0  0  0  0  0  0  0
   -6.5000    1.3300    0.7900 N   0  0  0  0  0  0  0  0  0  0  0  0
   -2.6240   -0.2960   -0.1530 C   0  0  0  0  0  0  0  0  0  0  0  0
   -1.3490   -0.7790   -0.2250 C   0  0  0  0  0  0  0  0  0  0  0  0
   -1.0480   -2.2660   -0.4510 C   0  0  0  0  0  0  0  0  0  0  0  0
    4.1590   -0.1380   -0.1190 C   0  0  0  0  0  0  0  0  0  0  0  0
  1  2  1  0
  2  3  1  0
  3  4  1  0
  4  5  2  0
  4  6  1  0
  6  7  2  0
  6 30  1  0
  7  8  1  0
  8  9  2  0
  9 10  1  0
  9 11  1  0
 11 12  1  0
 11 30  2  0
 12 13  1  0
 13 14  2  0
 13 15  1  0
 15 16  1  0
 15 28  2  0
 16 17  1  0
 17 18  1  0
 17 27  2  0
 18 19  1  0
 19 20  2  0
 19 26  1  0
 20 21  1  0
 22 21  1  6
 22 23  1  0
 22 26  1  0
 23 24  1  0
 24 25  1  0
 25 26  1  0
 27 28  1  0
 28 29  1  0
M  CHG  1  20   1
M  END
