
     RDKit          3D

 30 33  0  0  0  0  0  0  0  0999 V2000
   -4.3100    3.3170   -0.1850 C   0  0  0  0  0  0  0  0  0  0  0  0
   -4.7320    1.9550    0.2670 C   0  0  0  0  0  0  0  0  0  0  0  0
   -4.1900    0.9080   -0.5160 O   0  0  0  0  0  0  0  0  0  0  0  0
   -4.5240   -0.3940   -0.1770 C   0  0  0  0  0  0  0  0  0  0  0  0
   -5.3670   -0.6660    0.9040 C   0  0  0  0  0  0  0  0  0  0  0  0
   -5.6980   -1.9600    1.2410 C   0  0  0  0  0  0  0  0  0  0  0  0
   -6.5450   -2.2100    2.3280 O   0  0  0  0  0  0  0  0  0  0  0  0
   -5.1740   -2.9820    0.4800 C   0  0  0  0  0  0  0  0  0  0  0  0
   -4.3420   -2.7180   -0.5880 C   0  0  0  0  0  0  0  0  0  0  0  0
   -3.9980   -1.4140   -0.9390 C   0  0  0  0  0  0  0  0  0  0  0  0
   -3.1200   -1.1110   -2.0640 C   0  0  1  0  0  0  0  0  0  0  0  0
   -3.7170   -0.0860   -3.0150 C   0  0  0  0  0  0  0  0  0  0  0  0
   -1.7790   -0.6500   -1.6880 C   0  0  0  0  0  0  0  0  0  0  0  0
   -1.1630    0.5430   -1.5110 C   0  0  0  0  0  0  0  0  0  0  0  0
    0.1350    0.5680   -1.1510 C   0  0  0  0  0  0  0  0  0  0  0  0
    0.7940   -0.5770   -0.9750 C   0  0  0  0  0  0  0  0  0  0  0  0
    2.1490   -0.9140   -0.6040 C   0  0  0  0  0  0  0  0  0  0  0  0
    2.4690   -2.0980   -0.5230 O   0  0  0  0  0  0  0  0  0  0  0  0
    3.0540    0.1170   -0.3510 N   0  0  0  0  0  0  0  0  0  0  0  0
    4.4190   -0.0520    0.0160 C   0  0  0  0  0  0  0  0  0  0  0  0
    5.1000   -1.2410   -0.0670 C   0  0  0  0  0  0  0  0  0  0  0  0
    6.4230   -1.2820    0.3360 C   0  0  0  0  0  0  0  0  0  0  0  0
    7.0730   -0.1690    0.8150 C   0  0  0  0  0  0  0  0  0  0  0  0
    6.4020    1.0530    0.9080 C   0  0  0  0  0  0  0  0  0  0  0  0
    5.1000    1.0670    0.5060 C   0  0  0  0  0  0  0  0  0  0  0  0
    7.3030    2.0430    1.4350 N   0  0  0  0  0  0  0  0  0  0  0  0
    8.5460    1.4070    1.6650 C   0  0  0  0  0  0  0  0  0  0  0  0
    9.5620    2.0040    2.1290 O   0  0  0  0  0  0  0  0  0  0  0  0
    8.4660   -0.0060    1.2900 C   0  0  0  0  0  0  0  0  0  0  0  0
   -0.4850   -1.8330   -1.3370 S   0  0  0  0  0  0  0  0  0  0  0  0
  1  2  1  0
  2  3  1  0
  3  4  1  0
  4  5  2  0
  4 10  1  0
  5  6  1  0
  6  7  1  0
  6  8  2  0
  8  9  1  0
  9 10  2  0
 10 11  1  0
 11 12  1  1
 11 13  1  0
 13 14  2  0
 13 30  1  0
 14 15  1  0
 15 16  2  0
 16 17  1  0
 16 30  1  0
 17 18  2  0
 17 19  1  0
 19 20  1  0
 20 21  2  0
 20 25  1  0
 21 22  1  0
 22 23  2  0
 23 24  1  0
 23 29  1  0
 24 25  2  0
 24 26  1  0
 26 27  1  0
 27 28  2  0
 27 29  1  0
M  END
