
     RDKit          3D

 21 23  0  0  0  0  0  0  0  0999 V2000
   -3.5440    1.9440   -0.6290 C   0  0  0  0  0  0  0  0  0  0  0  0
   -2.1190    1.5570   -0.6060 C   0  0  0  0  0  0  0  0  0  0  0  0
   -1.2470    2.4970   -1.1760 C   0  0  0  0  0  0  0  0  0  0  0  0
    0.0850    2.1670   -1.2250 C   0  0  0  0  0  0  0  0  0  0  0  0
    1.1860    3.3430   -1.9400 Cl  0  0  0  0  0  0  0  0  0  0  0  0
    0.5680    0.9730   -0.7410 C   0  0  0  0  0  0  0  0  0  0  0  0
    1.9900    0.7100   -0.8340 C   0  0  0  0  0  0  0  0  0  0  0  0
    2.4310    0.1390   -1.8620 O   0  0  0  0  0  0  0  0  0  0  0  0
    2.9270    1.0610    0.1740 N   0  0  0  0  0  0  0  0  0  0  0  0
    4.3460    0.7930    0.0700 C   0  0  0  0  0  0  0  0  0  0  0  0
    4.6460   -0.6510   -0.0690 C   0  0  0  0  0  0  0  0  0  0  0  0
    5.3510   -1.4910    0.6670 C   0  0  0  0  0  0  0  0  0  0  0  0
    4.9990   -2.5260   -0.3040 C   0  0  0  0  0  0  0  0  0  0  0  0
    4.3220   -1.6820   -0.9960 N   0  0  0  0  0  0  0  0  0  0  0  0
   -0.3370    0.1010   -0.1960 C   0  0  0  0  0  0  0  0  0  0  0  0
   -1.7120    0.3660   -0.1100 C   0  0  0  0  0  0  0  0  0  0  0  0
   -2.5730   -0.6190    0.5590 C   0  0  0  0  0  0  0  0  0  0  0  0
   -3.8100   -0.5480    0.9800 C   0  0  0  0  0  0  0  0  0  0  0  0
   -4.2320   -1.8380    1.5960 C   0  0  0  0  0  0  0  0  0  0  0  0
   -3.0590   -2.6810    1.4690 C   0  0  0  0  0  0  0  0  0  0  0  0
   -2.1050   -1.9930    0.8790 C   0  0  0  0  0  0  0  0  0  0  0  0
  1  2  1  0
  2  3  2  0
  2 16  1  0
  3  4  1  0
  4  5  1  0
  4  6  2  0
  6  7  1  0
  6 15  1  0
  7  8  2  0
  7  9  1  0
  9 10  1  0
 10 11  1  0
 11 12  2  0
 11 14  1  0
 12 13  1  0
 13 14  2  0
 15 16  2  0
 16 17  1  0
 17 18  2  0
 17 21  1  0
 18 19  1  0
 19 20  1  0
 20 21  2  0
M  END
