
     RDKit          3D

 21 22  0  0  0  0  0  0  0  0999 V2000
   -4.9140   -0.9400    0.0440 N   0  0  0  0  0  0  0  0  0  0  0  0
   -4.2260    0.3250    0.0820 C   0  0  2  0  0  0  0  0  0  0  0  0
   -3.5040    0.6110   -1.2340 C   0  0  0  0  0  0  0  0  0  0  0  0
   -2.5390    1.5550   -0.9650 O   0  0  0  0  0  0  0  0  0  0  0  0
   -1.3840    1.0040   -0.3890 C   0  0  2  0  0  0  0  0  0  0  0  0
   -0.5390    0.4850   -1.5200 C   0  0  0  0  0  0  0  0  0  0  0  0
    0.6580   -0.1000   -1.1130 O   0  0  0  0  0  0  0  0  0  0  0  0
    1.6620    0.5090   -0.4140 C   0  0  0  0  0  0  0  0  0  0  0  0
    1.5000    1.7170   -0.1020 O   0  0  0  0  0  0  0  0  0  0  0  0
    2.8980   -0.1770   -0.0200 C   0  0  0  0  0  0  0  0  0  0  0  0
    3.1320   -1.4400   -0.3140 C   0  0  0  0  0  0  0  0  0  0  0  0
    4.3300   -2.2200    0.0300 C   0  0  1  0  0  0  0  0  0  0  0  0
    5.0000   -2.6750   -1.1260 O   0  0  0  0  0  0  0  0  0  0  0  0
    5.2370   -1.4400    0.7370 O   0  0  0  0  0  0  0  0  0  0  0  0
    5.0120   -0.1280    1.0510 C   0  0  0  0  0  0  0  0  0  0  0  0
    5.9820    0.5940    1.7700 O   0  0  0  0  0  0  0  0  0  0  0  0
    3.9210    0.5410    0.7240 C   0  0  0  0  0  0  0  0  0  0  0  0
    3.7640    1.8780    1.0810 O   0  0  0  0  0  0  0  0  0  0  0  0
   -1.8480   -0.1660    0.4860 C   0  0  0  0  0  0  0  0  0  0  0  0
   -3.1490    0.2630    1.1480 C   0  0  1  0  0  0  0  0  0  0  0  0
   -2.9570    1.5550    1.6250 O   0  0  0  0  0  0  0  0  0  0  0  0
  2  1  1  6
  2  3  1  0
  2 20  1  0
  3  4  1  0
  4  5  1  0
  5  6  1  6
  5 19  1  0
  6  7  1  0
  7  8  1  0
  8  9  2  0
  8 10  1  0
 10 11  2  0
 10 17  1  0
 11 12  1  0
 12 13  1  6
 12 14  1  0
 14 15  1  0
 15 16  1  0
 15 17  2  0
 17 18  1  0
 19 20  1  0
 20 21  1  6
M  CHG  1   1   1
M  END
