
     RDKit          3D

 21 21  0  0  0  0  0  0  0  0999 V2000
   -4.1440    1.6610   -0.6810 N   0  0  0  0  0  0  0  0  0  0  0  0
   -3.6070    1.2910    0.6000 C   0  0  1  0  0  0  0  0  0  0  0  0
   -4.5850    1.0860    1.5630 O   0  0  0  0  0  0  0  0  0  0  0  0
   -2.6470    0.1410    0.5300 C   0  0  1  0  0  0  0  0  0  0  0  0
   -3.3790   -1.0980    0.1010 C   0  0  0  0  0  0  0  0  0  0  0  0
   -2.5900   -2.2160    0.0070 O   0  0  0  0  0  0  0  0  0  0  0  0
   -1.6670   -2.1910   -1.0040 C   0  0  0  0  0  0  0  0  0  0  0  0
   -0.2970   -2.3230   -0.4210 C   0  0  0  0  0  0  0  0  0  0  0  0
    0.6520   -1.5120   -1.0180 O   0  0  0  0  0  0  0  0  0  0  0  0
    1.9240   -1.9330   -0.7270 C   0  0  0  0  0  0  0  0  0  0  0  0
    2.6180   -1.1130    0.3180 C   0  0  2  0  0  0  0  0  0  0  0  0
    2.0820   -1.2730    1.5910 O   0  0  0  0  0  0  0  0  0  0  0  0
    2.7070    0.3370    0.0120 C   0  0  1  0  0  0  0  0  0  0  0  0
    4.0330    0.8800    0.5640 C   0  0  0  0  0  0  0  0  0  0  0  0
    4.1670    2.2390    0.3030 O   0  0  0  0  0  0  0  0  0  0  0  0
    2.7050    0.6520   -1.4650 C   0  0  0  0  0  0  0  0  0  0  0  0
    2.7940    2.0470   -1.5770 O   0  0  0  0  0  0  0  0  0  0  0  0
    1.6190    1.1680    0.6510 C   0  0  0  0  0  0  0  0  0  0  0  0
    0.5380    1.3130   -0.2170 O   0  0  0  0  0  0  0  0  0  0  0  0
   -0.6150    1.0750    0.5190 C   0  0  0  0  0  0  0  0  0  0  0  0
   -1.5980    0.4880   -0.2800 O   0  0  0  0  0  0  0  0  0  0  0  0
  2  1  1  6
  2  3  1  0
  2  4  1  0
  4  5  1  6
  4 21  1  0
  5  6  1  0
  6  7  1  0
  7  8  1  0
  8  9  1  0
  9 10  1  0
 10 11  1  0
 11 12  1  1
 11 13  1  0
 13 14  1  1
 13 16  1  0
 13 18  1  0
 14 15  1  0
 16 17  1  0
 18 19  1  0
 19 20  1  0
 20 21  1  0
M  CHG  1   1   1
M  END
