
     RDKit          3D

 24 27  0  0  0  0  0  0  0  0999 V2000
    3.7460    2.5830   -1.3030 C   0  0  0  0  0  0  0  0  0  0  0  0
    3.9370    1.2320   -0.7320 C   0  0  0  0  0  0  0  0  0  0  0  0
    5.1550    0.7370   -0.3170 C   0  0  0  0  0  0  0  0  0  0  0  0
    5.2530   -0.5330    0.2050 C   0  0  0  0  0  0  0  0  0  0  0  0
    6.6000   -1.0270    0.6420 C   0  0  0  0  0  0  0  0  0  0  0  0
    4.1250   -1.3000    0.3080 C   0  0  0  0  0  0  0  0  0  0  0  0
    2.8670   -0.8460   -0.0960 C   0  0  0  0  0  0  0  0  0  0  0  0
    1.7640   -1.7490    0.0430 N   0  0  0  0  0  0  0  0  0  0  0  0
    0.4020   -1.3810    0.0460 C   0  0  0  0  0  0  0  0  0  0  0  0
    0.0430   -0.0630   -0.0340 N   0  0  0  0  0  0  0  0  0  0  0  0
   -1.2320    0.3450   -0.0100 C   0  0  0  0  0  0  0  0  0  0  0  0
   -1.8480    1.5460   -0.0700 N   0  0  0  0  0  0  0  0  0  0  0  0
   -3.1840    1.4060   -0.0030 C   0  0  0  0  0  0  0  0  0  0  0  0
   -3.4730    0.0800    0.1050 C   0  0  0  0  0  0  0  0  0  0  0  0
   -2.2490   -0.5860    0.1010 C   0  0  0  0  0  0  0  0  0  0  0  0
   -1.9510   -1.9030    0.1840 C   0  0  0  0  0  0  0  0  0  0  0  0
   -0.5940   -2.3050    0.1550 C   0  0  0  0  0  0  0  0  0  0  0  0
   -0.3670   -3.7200    0.2380 C   0  0  0  0  0  0  0  0  0  0  0  0
    0.7330   -4.2790    0.2180 O   0  0  0  0  0  0  0  0  0  0  0  0
   -4.8550   -0.4830    0.2050 C   0  0  0  0  0  0  0  0  0  0  0  0
   -5.7640    0.5810    0.7220 C   0  0  0  0  0  0  0  0  0  0  0  0
   -5.6090    1.7770   -0.2270 C   0  0  0  0  0  0  0  0  0  0  0  0
   -4.2790    2.4260   -0.0300 C   0  0  0  0  0  0  0  0  0  0  0  0
    2.7980    0.4190   -0.6130 C   0  0  0  0  0  0  0  0  0  0  0  0
  1  2  1  0
  2  3  2  0
  2 24  1  0
  3  4  1  0
  4  5  1  0
  4  6  2  0
  6  7  1  0
  7  8  1  0
  7 24  2  0
  8  9  1  0
  9 10  2  0
  9 17  1  0
 10 11  1  0
 11 12  1  0
 11 15  2  0
 12 13  1  0
 13 14  2  0
 13 23  1  0
 14 15  1  0
 14 20  1  0
 15 16  1  0
 16 17  2  0
 17 18  1  0
 18 19  2  0
 20 21  1  0
 21 22  1  0
 22 23  1  0
M  END
