
     RDKit          3D

 10  9  0  0  0  0  0  0  0  0999 V2000
   -0.5470    2.0590   -1.2650 N   0  0  0  0  0  0  0  0  0  0  0  0
   -1.0280    0.9870   -0.7590 C   0  0  0  0  0  0  0  0  0  0  0  0
   -2.3820    0.6920   -0.8040 O   0  0  0  0  0  0  0  0  0  0  0  0
   -0.0440    0.0610   -0.1120 C   0  0  0  0  0  0  0  0  0  0  0  0
    1.1940    0.4310   -0.1250 C   0  0  0  0  0  0  0  0  0  0  0  0
    2.4230   -0.1550    0.3760 C   0  0  0  0  0  0  0  0  0  0  0  0
    2.3730   -1.3590    1.0180 O   0  0  0  0  0  0  0  0  0  0  0  0
   -0.6390   -1.1300    0.4380 C   0  0  0  0  0  0  0  0  0  0  0  0
   -2.0360   -1.3730    0.3600 N   0  0  0  0  0  0  0  0  0  0  0  0
    0.0290   -2.0030    1.0060 O   0  0  0  0  0  0  0  0  0  0  0  0
  1  2  2  0
  2  3  1  0
  2  4  1  0
  4  5  2  3
  4  8  1  0
  5  6  1  0
  6  7  1  0
  8  9  1  0
  8 10  2  0
M  END
