
     RDKit          3D

 16 16  0  0  0  0  0  0  0  0999 V2000
    6.0770    0.0190   -0.3680 C   0  0  0  0  0  0  0  0  0  0  0  0
    5.2530    0.1240    0.6550 C   0  0  0  0  0  0  0  0  0  0  0  0
    3.8710   -0.4300    0.6310 C   0  0  0  0  0  0  0  0  0  0  0  0
    2.8590    0.6570    0.8330 C   0  0  0  0  0  0  0  0  0  0  0  0
    1.4290    0.1650    0.8240 C   0  0  2  0  0  0  0  0  0  0  0  0
    1.2710   -0.7710    1.8640 O   0  0  0  0  0  0  0  0  0  0  0  0
    1.0590   -0.5670   -0.4380 C   0  0  0  0  0  0  0  0  0  0  0  0
   -0.2320   -1.0070   -0.3680 O   0  0  0  0  0  0  0  0  0  0  0  0
   -1.4530   -0.5090   -0.2740 C   0  0  0  0  0  0  0  0  0  0  0  0
   -2.5290   -1.3950   -0.2060 C   0  0  0  0  0  0  0  0  0  0  0  0
   -3.8280   -0.9560   -0.1100 C   0  0  0  0  0  0  0  0  0  0  0  0
   -4.9090   -1.9890   -0.0430 C   0  0  0  0  0  0  0  0  0  0  0  0
   -4.1160    0.3900   -0.0770 C   0  0  0  0  0  0  0  0  0  0  0  0
   -3.0680    1.2800   -0.1430 C   0  0  0  0  0  0  0  0  0  0  0  0
   -3.3220    2.7420   -0.1110 C   0  0  0  0  0  0  0  0  0  0  0  0
   -1.7470    0.8240   -0.2420 C   0  0  0  0  0  0  0  0  0  0  0  0
  1  2  2  0
  2  3  1  0
  3  4  1  0
  4  5  1  0
  5  6  1  1
  5  7  1  0
  7  8  1  0
  8  9  1  0
  9 10  2  0
  9 16  1  0
 10 11  1  0
 11 12  1  0
 11 13  2  0
 13 14  1  0
 14 15  1  0
 14 16  2  0
M  END
