
     RDKit          3D

 16 16  0  0  0  0  0  0  0  0999 V2000
   -5.9260   -0.8030    0.7960 C   0  0  0  0  0  0  0  0  0  0  0  0
   -4.4120   -0.5640    0.8370 C   0  0  0  0  0  0  0  0  0  0  0  0
   -3.8920   -0.6110   -0.5660 C   0  0  0  0  0  0  0  0  0  0  0  0
   -2.4140   -0.3910   -0.5810 C   0  0  0  0  0  0  0  0  0  0  0  0
   -1.9940    0.9410   -0.0050 C   0  0  0  0  0  0  0  0  0  0  0  0
   -0.4900    1.0970   -0.0540 C   0  0  0  0  0  0  0  0  0  0  0  0
    0.0710    1.0310   -1.4570 C   0  0  0  0  0  0  0  0  0  0  0  0
    1.5850    1.2130   -1.2950 C   0  0  0  0  0  0  0  0  0  0  0  0
    2.0360    0.1510   -0.4750 O   0  0  0  0  0  0  0  0  0  0  0  0
    3.3710    0.0030   -0.1190 C   0  0  0  0  0  0  0  0  0  0  0  0
    4.3580    0.8730   -0.5330 C   0  0  0  0  0  0  0  0  0  0  0  0
    5.6700    0.6750   -0.1470 C   0  0  0  0  0  0  0  0  0  0  0  0
    5.9790   -0.4050    0.6580 C   0  0  0  0  0  0  0  0  0  0  0  0
    5.0150   -1.2980    1.0930 C   0  0  0  0  0  0  0  0  0  0  0  0
    3.7150   -1.0630    0.6830 C   0  0  0  0  0  0  0  0  0  0  0  0
    2.7350   -1.9510    1.1100 O   0  0  0  0  0  0  0  0  0  0  0  0
  1  2  1  0
  2  3  1  0
  3  4  1  0
  4  5  1  0
  5  6  1  0
  6  7  1  0
  7  8  1  0
  8  9  1  0
  9 10  1  0
 10 11  2  0
 10 15  1  0
 11 12  1  0
 12 13  2  0
 13 14  1  0
 14 15  2  0
 15 16  1  0
M  END
