
     RDKit          3D

 16 16  0  0  0  0  0  0  0  0999 V2000
    6.1370    0.1060    0.1970 C   0  0  0  0  0  0  0  0  0  0  0  0
    5.0570   -0.4450    1.0700 C   0  0  0  0  0  0  0  0  0  0  0  0
    3.7310    0.2850    0.7980 C   0  0  0  0  0  0  0  0  0  0  0  0
    3.4230    0.0470   -0.6530 C   0  0  0  0  0  0  0  0  0  0  0  0
    2.2800    0.6110   -1.1280 O   0  0  0  0  0  0  0  0  0  0  0  0
    1.1400    0.1820   -0.5190 C   0  0  1  0  0  0  0  0  0  0  0  0
    0.3990    1.2940    0.1930 C   0  0  0  0  0  0  0  0  0  0  0  0
   -1.0870    1.1840    0.0760 C   0  0  0  0  0  0  0  0  0  0  0  0
   -1.6160   -0.2100    0.2090 C   0  0  1  0  0  0  0  0  0  0  0  0
   -3.0340   -0.2530   -0.3170 C   0  0  1  0  0  0  0  0  0  0  0  0
   -3.6490   -1.6160   -0.2250 C   0  0  0  0  0  0  0  0  0  0  0  0
   -3.9310    0.7180    0.4240 C   0  0  1  0  0  0  0  0  0  0  0  0
   -5.3290    0.6280   -0.1460 C   0  0  0  0  0  0  0  0  0  0  0  0
   -4.0020    0.4590    1.7780 O   0  0  0  0  0  0  0  0  0  0  0  0
   -0.8180   -1.2210   -0.5800 C   0  0  0  0  0  0  0  0  0  0  0  0
    0.1380   -0.4440   -1.4610 C   0  0  0  0  0  0  0  0  0  0  0  0
  1  2  1  0
  2  3  1  0
  3  4  1  0
  4  5  1  0
  6  5  1  6
  6  7  1  0
  6 16  1  0
  7  8  1  0
  9  8  1  6
  9 10  1  0
  9 15  1  0
 10 11  1  1
 10 12  1  0
 12 13  1  6
 12 14  1  0
 15 16  1  0
M  END
