
     RDKit          3D

 16 16  0  0  0  0  0  0  0  0999 V2000
    5.7250    0.6060   -1.4050 C   0  0  0  0  0  0  0  0  0  0  0  0
    4.6980    0.9770   -0.3640 C   0  0  0  0  0  0  0  0  0  0  0  0
    4.1510    0.0450    0.4000 C   0  0  0  0  0  0  0  0  0  0  0  0
    3.1450    0.4300    1.4160 C   0  0  0  0  0  0  0  0  0  0  0  0
    1.8080   -0.2420    1.1870 C   0  0  1  0  0  0  0  0  0  0  0  0
    0.8680    0.2190    2.2730 C   0  0  0  0  0  0  0  0  0  0  0  0
   -0.5220    0.2820    1.6930 C   0  0  0  0  0  0  0  0  0  0  0  0
   -0.7610   -0.9260    0.7850 C   0  0  1  0  0  0  0  0  0  0  0  0
   -2.2010   -1.1290    0.5330 C   0  0  0  0  0  0  0  0  0  0  0  0
   -2.7260   -2.2180    0.8830 O   0  0  0  0  0  0  0  0  0  0  0  0
   -3.0190   -0.2010   -0.0640 O   0  0  0  0  0  0  0  0  0  0  0  0
   -4.3940   -0.3910   -0.3070 C   0  0  1  0  0  0  0  0  0  0  0  0
   -5.2680    0.5910    0.4010 C   0  0  0  0  0  0  0  0  0  0  0  0
   -4.7340   -0.3740   -1.7740 C   0  0  0  0  0  0  0  0  0  0  0  0
    0.0280   -0.6960   -0.4700 C   0  0  0  0  0  0  0  0  0  0  0  0
    1.2130    0.1900   -0.1480 C   0  0  0  0  0  0  0  0  0  0  0  0
  1  2  1  0
  2  3  2  3
  3  4  1  0
  5  4  1  1
  5  6  1  0
  5 16  1  0
  6  7  1  0
  7  8  1  0
  8  9  1  6
  8 15  1  0
  9 10  2  0
  9 11  1  0
 11 12  1  0
 12 13  1  1
 12 14  1  0
 15 16  1  0
M  END
