
     RDKit          3D

 16 15  0  0  0  0  0  0  0  0999 V2000
   -5.8510   -1.2960    1.0680 C   0  0  0  0  0  0  0  0  0  0  0  0
   -6.1710   -0.1430    0.1460 C   0  0  0  0  0  0  0  0  0  0  0  0
   -5.0620    0.8840    0.1230 C   0  0  0  0  0  0  0  0  0  0  0  0
   -3.7540    0.2780   -0.3540 C   0  0  0  0  0  0  0  0  0  0  0  0
   -2.7350    1.3890   -0.3340 C   0  0  0  0  0  0  0  0  0  0  0  0
   -1.3670    0.9780   -0.7810 C   0  0  0  0  0  0  0  0  0  0  0  0
   -0.7780   -0.1140    0.0820 C   0  0  0  0  0  0  0  0  0  0  0  0
    0.5910   -0.5260   -0.3630 C   0  0  0  0  0  0  0  0  0  0  0  0
    1.5840    0.5880   -0.3340 C   0  0  0  0  0  0  0  0  0  0  0  0
    2.9490    0.1850   -0.7740 C   0  0  0  0  0  0  0  0  0  0  0  0
    3.5730   -0.8980    0.0610 C   0  0  0  0  0  0  0  0  0  0  0  0
    4.9420   -1.2730   -0.4090 C   0  0  0  0  0  0  0  0  0  0  0  0
    5.9440   -0.1640   -0.4060 C   0  0  0  0  0  0  0  0  0  0  0  0
    6.1740    0.3950    0.9400 C   0  0  0  0  0  0  0  0  0  0  0  0
    6.9420    1.3920    1.0210 O   0  0  0  0  0  0  0  0  0  0  0  0
    5.5980   -0.1180    2.0860 O   0  0  0  0  0  0  0  0  0  0  0  0
  1  2  1  0
  2  3  1  0
  3  4  1  0
  4  5  1  0
  5  6  1  0
  6  7  1  0
  7  8  1  0
  8  9  1  0
  9 10  1  0
 10 11  1  0
 11 12  1  0
 12 13  1  0
 13 14  1  0
 14 15  2  0
 14 16  1  0
M  END
