
     RDKit          3D

 15 15  0  0  0  0  0  0  0  0999 V2000
   -3.4060   -0.7460   -1.9840 C   0  0  0  0  0  0  0  0  0  0  0  0
   -2.7360   -0.6690   -0.8050 C   0  0  0  0  0  0  0  0  0  0  0  0
   -3.4630   -0.8590    0.4400 C   0  0  0  0  0  0  0  0  0  0  0  0
   -3.4740    0.2310    1.4500 C   0  0  0  0  0  0  0  0  0  0  0  0
   -3.9670    1.4400    0.9860 O   0  0  0  0  0  0  0  0  0  0  0  0
   -1.2820   -0.4530   -0.9310 C   0  0  0  0  0  0  0  0  0  0  0  0
   -0.9180    0.9350   -0.4980 C   0  0  0  0  0  0  0  0  0  0  0  0
    0.5940    1.0650   -0.6840 C   0  0  0  0  0  0  0  0  0  0  0  0
    1.2090    0.0830    0.1270 O   0  0  0  0  0  0  0  0  0  0  0  0
    2.5860   -0.0710    0.1910 C   0  0  0  0  0  0  0  0  0  0  0  0
    3.4320    0.7330   -0.5390 C   0  0  0  0  0  0  0  0  0  0  0  0
    4.8190    0.5910   -0.4860 C   0  0  0  0  0  0  0  0  0  0  0  0
    5.3500   -0.3870    0.3260 C   0  0  0  0  0  0  0  0  0  0  0  0
    4.5320   -1.2070    1.0690 C   0  0  0  0  0  0  0  0  0  0  0  0
    3.1590   -1.0350    0.9900 C   0  0  0  0  0  0  0  0  0  0  0  0
  1  2  2  0
  2  3  1  0
  2  6  1  0
  3  4  1  0
  4  5  1  0
  6  7  1  0
  7  8  1  0
  8  9  1  0
  9 10  1  0
 10 11  2  0
 10 15  1  0
 11 12  1  0
 12 13  2  0
 13 14  1  0
 14 15  2  0
M  END
