
     RDKit          3D

 16 16  0  0  0  0  0  0  0  0999 V2000
    5.4240    0.1400    1.0890 C   0  0  0  0  0  0  0  0  0  0  0  0
    4.2000   -0.2110    0.1960 C   0  0  0  0  0  0  0  0  0  0  0  0
    3.8380    1.0330   -0.5700 C   0  0  0  0  0  0  0  0  0  0  0  0
    2.8760    0.9840   -1.4420 O   0  0  0  0  0  0  0  0  0  0  0  0
    1.6070    0.7150   -1.4290 C   0  0  0  0  0  0  0  0  0  0  0  0
    1.1890   -0.6730   -1.0630 C   0  0  0  0  0  0  0  0  0  0  0  0
   -0.1690   -0.9300   -1.0680 O   0  0  0  0  0  0  0  0  0  0  0  0
   -1.2170   -0.4720   -0.3570 C   0  0  0  0  0  0  0  0  0  0  0  0
   -1.1190    0.4480    0.6640 C   0  0  0  0  0  0  0  0  0  0  0  0
   -2.2110    0.9110    1.3920 C   0  0  0  0  0  0  0  0  0  0  0  0
   -2.0450    1.9060    2.4840 C   0  0  0  0  0  0  0  0  0  0  0  0
   -3.4360    0.3920    1.0370 C   0  0  0  0  0  0  0  0  0  0  0  0
   -3.5500   -0.5310    0.0170 C   0  0  0  0  0  0  0  0  0  0  0  0
   -4.8960   -1.0630   -0.3300 C   0  0  0  0  0  0  0  0  0  0  0  0
   -2.4790   -0.9880   -0.7020 C   0  0  0  0  0  0  0  0  0  0  0  0
   -2.6370   -1.9800   -1.7920 C   0  0  0  0  0  0  0  0  0  0  0  0
  1  2  1  0
  2  3  1  0
  3  4  1  0
  4  5  1  0
  5  6  1  0
  6  7  1  0
  7  8  1  0
  8  9  2  0
  8 15  1  0
  9 10  1  0
 10 11  1  0
 10 12  2  0
 12 13  1  0
 13 14  1  0
 13 15  2  0
 15 16  1  0
M  END
