
     RDKit          3D

 16 16  0  0  0  0  0  0  0  0999 V2000
    2.6370    1.9130   -1.0920 C   0  0  0  0  0  0  0  0  0  0  0  0
    2.6920    0.6180   -1.0630 C   0  0  0  0  0  0  0  0  0  0  0  0
    1.9200   -0.3840   -0.4040 C   0  0  0  0  0  0  0  0  0  0  0  0
    2.3640   -1.6640   -0.6180 C   0  0  0  0  0  0  0  0  0  0  0  0
    1.6580   -2.7850    0.0070 C   0  0  0  0  0  0  0  0  0  0  0  0
    0.7840   -0.2110    0.4730 C   0  0  0  0  0  0  0  0  0  0  0  0
   -0.5180    0.2860   -0.0380 C   0  0  1  0  0  0  0  0  0  0  0  0
   -0.4880    1.6320   -0.6090 C   0  0  0  0  0  0  0  0  0  0  0  0
   -0.4890    1.9000   -1.8380 O   0  0  0  0  0  0  0  0  0  0  0  0
   -0.4570    2.7450    0.2640 O   0  0  0  0  0  0  0  0  0  0  0  0
   -0.4310    4.0700   -0.1690 C   0  0  0  0  0  0  0  0  0  0  0  0
   -1.1600   -0.7040   -1.0060 C   0  0  0  0  0  0  0  0  0  0  0  0
   -2.1800   -1.5940   -0.4190 C   0  0  0  0  0  0  0  0  0  0  0  0
   -2.0330   -1.9830    1.0050 C   0  0  0  0  0  0  0  0  0  0  0  0
   -1.6240   -0.8720    1.9150 C   0  0  0  0  0  0  0  0  0  0  0  0
   -1.4250    0.4180    1.2050 C   0  0  0  0  0  0  0  0  0  0  0  0
  1  2  2  0
  2  3  1  0
  3  4  2  3
  3  6  1  0
  4  5  1  0
  7  6  1  1
  7  8  1  0
  7 12  1  0
  7 16  1  0
  8  9  2  0
  8 10  1  0
 10 11  1  0
 12 13  1  0
 13 14  1  0
 14 15  1  0
 15 16  1  0
M  END
