
     RDKit          3D

 16 16  0  0  0  0  0  0  0  0999 V2000
    5.1010    0.8710   -1.0360 C   0  0  0  0  0  0  0  0  0  0  0  0
    4.7310    0.3330    0.3280 C   0  0  0  0  0  0  0  0  0  0  0  0
    3.4560   -0.4460    0.2290 C   0  0  0  0  0  0  0  0  0  0  0  0
    2.3320    0.4110   -0.2670 C   0  0  2  0  0  0  0  0  0  0  0  0
    2.0660    1.4900    0.5460 O   0  0  0  0  0  0  0  0  0  0  0  0
    1.0610   -0.4400   -0.3440 C   0  0  0  0  0  0  0  0  0  0  0  0
    0.7520   -0.8450    0.9280 O   0  0  0  0  0  0  0  0  0  0  0  0
   -0.3820   -1.6180    0.9330 C   0  0  0  0  0  0  0  0  0  0  0  0
   -1.5810   -0.9120    0.4350 C   0  0  0  0  0  0  0  0  0  0  0  0
   -2.5790   -1.5980   -0.2440 C   0  0  0  0  0  0  0  0  0  0  0  0
   -3.6960   -0.9210   -0.6940 C   0  0  0  0  0  0  0  0  0  0  0  0
   -4.7620   -1.6620   -1.4210 C   0  0  0  0  0  0  0  0  0  0  0  0
   -3.8030    0.4390   -0.4600 C   0  0  0  0  0  0  0  0  0  0  0  0
   -2.8100    1.1170    0.2150 C   0  0  0  0  0  0  0  0  0  0  0  0
   -3.0050    2.5870    0.4260 C   0  0  0  0  0  0  0  0  0  0  0  0
   -1.7020    0.4420    0.6610 C   0  0  0  0  0  0  0  0  0  0  0  0
  1  2  1  0
  2  3  1  0
  3  4  1  0
  4  5  1  1
  4  6  1  0
  6  7  1  0
  7  8  1  0
  8  9  1  0
  9 10  2  0
  9 16  1  0
 10 11  1  0
 11 12  1  0
 11 13  2  0
 13 14  1  0
 14 15  1  0
 14 16  2  0
M  END
