
     RDKit          3D

 14 14  0  0  0  0  0  0  0  0999 V2000
    4.0560    0.2290    0.8520 C   0  0  0  0  0  0  0  0  0  0  0  0
    3.2270    0.6290   -0.3460 C   0  0  1  0  0  0  0  0  0  0  0  0
    3.7880   -0.0950   -1.5500 C   0  0  0  0  0  0  0  0  0  0  0  0
    1.8580    0.4060   -0.1700 O   0  0  0  0  0  0  0  0  0  0  0  0
    0.8870    1.3700   -0.2100 C   0  0  0  0  0  0  0  0  0  0  0  0
    1.2500    2.5550   -0.4210 O   0  0  0  0  0  0  0  0  0  0  0  0
   -0.5650    1.1180   -0.0220 C   0  0  0  0  0  0  0  0  0  0  0  0
   -0.8130   -0.2650    0.2060 O   0  0  0  0  0  0  0  0  0  0  0  0
   -2.1780   -0.5890    0.3950 C   0  0  0  0  0  0  0  0  0  0  0  0
   -2.8750   -1.1620   -0.5520 C   0  0  0  0  0  0  0  0  0  0  0  0
   -4.3020   -1.5180   -0.3990 C   0  0  0  0  0  0  0  0  0  0  0  0
   -4.8200   -1.1780    0.8530 O   0  0  0  0  0  0  0  0  0  0  0  0
   -4.0830   -0.5710    1.8560 C   0  0  0  0  0  0  0  0  0  0  0  0
   -2.8170   -0.2790    1.6600 C   0  0  0  0  0  0  0  0  0  0  0  0
  2  1  1  1
  2  3  1  0
  2  4  1  0
  4  5  1  0
  5  6  2  0
  5  7  1  0
  7  8  1  0
  8  9  1  0
  9 10  2  0
  9 14  1  0
 10 11  1  0
 11 12  1  0
 12 13  1  0
 13 14  2  0
M  END
