
     RDKit          3D

 18 18  0  0  0  0  0  0  0  0999 V2000
   -4.8250    0.3190    0.1430 C   0  0  0  0  0  0  0  0  0  0  0  0
   -4.6240   -0.5450    1.3850 C   0  0  0  0  0  0  0  0  0  0  0  0
   -3.4370   -1.4680    1.2220 C   0  0  0  0  0  0  0  0  0  0  0  0
   -2.1360   -0.6980    0.9850 C   0  0  2  0  0  0  0  0  0  0  0  0
   -1.9670    0.1540    2.2140 C   0  0  0  0  0  0  0  0  0  0  0  0
   -2.1090    0.0410   -0.1070 O   0  0  0  0  0  0  0  0  0  0  0  0
   -1.3900   -0.0790   -1.1900 C   0  0  0  0  0  0  0  0  0  0  0  0
    0.0770   -0.0270   -1.1860 C   0  0  0  0  0  0  0  0  0  0  0  0
    0.7110   -0.0260   -2.4420 C   0  0  0  0  0  0  0  0  0  0  0  0
    2.0580    0.0170   -2.5980 C   0  0  0  0  0  0  0  0  0  0  0  0
    2.7300    0.0180   -3.9400 C   0  0  0  0  0  0  0  0  0  0  0  0
    2.8380    0.0630   -1.4860 C   0  0  0  0  0  0  0  0  0  0  0  0
    4.2380    0.1090   -1.6380 O   0  0  0  0  0  0  0  0  0  0  0  0
    2.3110    0.0670   -0.2180 C   0  0  0  0  0  0  0  0  0  0  0  0
    3.1920    0.1170    0.9580 C   0  0  2  0  0  0  0  0  0  0  0  0
    2.3840    0.0680    2.2610 C   0  0  0  0  0  0  0  0  0  0  0  0
    4.0750    1.3630    0.9510 C   0  0  0  0  0  0  0  0  0  0  0  0
    0.9180    0.0210   -0.1130 C   0  0  0  0  0  0  0  0  0  0  0  0
  1  2  1  0
  2  3  1  0
  3  4  1  0
  4  5  1  1
  4  6  1  0
  6  7  1  0
  7  8  1  0
  8  9  2  0
  8 18  1  0
  9 10  1  0
 10 11  1  0
 10 12  2  0
 12 13  1  0
 12 14  1  0
 14 15  1  0
 14 18  2  0
 15 16  1  1
 15 17  1  0
M  END
