
     RDKit          3D

 19 21  0  0  0  0  0  0  0  0999 V2000
    4.0220   -3.5800   -0.0750 N   0  0  0  0  0  0  0  0  0  0  0  0
    3.6250   -2.3740   -0.2080 C   0  0  0  0  0  0  0  0  0  0  0  0
    2.4920   -1.8190    0.4750 N   0  0  0  0  0  0  0  0  0  0  0  0
    2.3940   -0.4570    0.0510 C   0  0  0  0  0  0  0  0  0  0  0  0
    1.3400    0.4600    0.5390 C   0  0  0  0  0  0  0  0  0  0  0  0
    0.0020   -0.0080    0.2250 N   0  0  1  0  0  0  0  0  0  0  0  0
   -0.6580   -0.2710    1.4780 C   0  0  0  0  0  0  0  0  0  0  0  0
   -2.0520   -0.8090    1.1170 C   0  0  0  0  0  0  0  0  0  0  0  0
   -2.7730    0.4190    0.6420 C   0  0  2  0  0  0  0  0  0  0  0  0
   -4.1040    0.1810    0.3300 O   0  0  0  0  0  0  0  0  0  0  0  0
   -4.5590    1.3060   -0.3570 C   0  0  0  0  0  0  0  0  0  0  0  0
   -3.7560    2.5430   -0.0060 C   0  0  0  0  0  0  0  0  0  0  0  0
   -2.4440    2.4590   -0.4090 O   0  0  0  0  0  0  0  0  0  0  0  0
   -2.1020    1.0850   -0.4960 C   0  0  1  0  0  0  0  0  0  0  0  0
   -0.6590    0.8690   -0.6550 C   0  0  0  0  0  0  0  0  0  0  0  0
    3.3340   -0.1760   -0.7880 N   0  0  0  0  0  0  0  0  0  0  0  0
    4.1550   -1.2880   -1.0210 C   0  0  0  0  0  0  0  0  0  0  0  0
    5.2130   -1.4040   -1.8070 C   0  0  0  0  0  0  0  0  0  0  0  0
    5.6180   -0.2820   -2.5360 O   0  0  0  0  0  0  0  0  0  0  0  0
  1  2  2  0
  2  3  1  0
  2 17  1  0
  3  4  1  0
  4  5  1  0
  4 16  2  0
  6  5  1  1
  6  7  1  0
  6 15  1  0
  7  8  1  0
  9  8  1  6
  9 10  1  0
  9 14  1  0
 10 11  1  0
 11 12  1  0
 12 13  1  0
 13 14  1  0
 14 15  1  1
 16 17  1  0
 17 18  2  3
 18 19  1  0
M  CHG  1   6   1
M  END
