
     RDKit          3D

 18 18  0  0  0  0  0  0  0  0999 V2000
   -3.3150   -2.8260   -0.3640 C   0  0  0  0  0  0  0  0  0  0  0  0
   -1.8620   -2.3950   -0.7440 C   0  0  2  0  0  0  0  0  0  0  0  0
   -1.0090   -3.4500   -0.0830 C   0  0  0  0  0  0  0  0  0  0  0  0
   -1.7140   -1.0340   -0.0880 C   0  0  0  0  0  0  0  0  0  0  0  0
   -0.4320   -0.3170   -0.3170 C   0  0  2  0  0  0  0  0  0  0  0  0
    0.8120   -1.0530    0.1370 C   0  0  0  0  0  0  0  0  0  0  0  0
    2.0660   -0.2940   -0.1690 C   0  0  0  0  0  0  0  0  0  0  0  0
    2.3180    0.7950   -0.9300 C   0  0  0  0  0  0  0  0  0  0  0  0
    3.6700    1.0370   -0.8260 C   0  0  0  0  0  0  0  0  0  0  0  0
    4.1720    0.0790   -0.0050 C   0  0  0  0  0  0  0  0  0  0  0  0
    5.6140   -0.0790    0.4160 C   0  0  0  0  0  0  0  0  0  0  0  0
    5.7410   -1.1740    1.2590 O   0  0  0  0  0  0  0  0  0  0  0  0
    3.2120   -0.6910    0.3670 O   0  0  0  0  0  0  0  0  0  0  0  0
   -0.4280    0.9670    0.4630 C   0  0  0  0  0  0  0  0  0  0  0  0
   -1.4040    2.0270    0.2050 C   0  0  2  0  0  0  0  0  0  0  0  0
   -1.0510    3.2460    1.1490 C   0  0  0  0  0  0  0  0  0  0  0  0
   -2.8360    1.7540    0.5820 C   0  0  0  0  0  0  0  0  0  0  0  0
   -1.3840    2.6040   -1.1710 C   0  0  0  0  0  0  0  0  0  0  0  0
  2  1  1  1
  2  3  1  0
  2  4  1  0
  5  4  1  1
  5  6  1  0
  5 14  1  0
  6  7  1  0
  7  8  2  0
  7 13  1  0
  8  9  1  0
  9 10  2  0
 10 11  1  0
 10 13  1  0
 11 12  1  0
 14 15  1  0
 15 16  1  1
 15 17  1  0
 15 18  1  0
M  END
