
     RDKit          3D

 18 18  0  0  0  0  0  0  0  0999 V2000
   -4.2620    1.2980   -2.3650 C   0  0  0  0  0  0  0  0  0  0  0  0
   -3.5450    0.3090   -1.8890 C   0  0  0  0  0  0  0  0  0  0  0  0
   -3.0570    0.1610   -0.5440 C   0  0  0  0  0  0  0  0  0  0  0  0
   -1.8120   -0.4630   -0.4040 C   0  0  0  0  0  0  0  0  0  0  0  0
   -1.2500   -0.6770    0.8260 C   0  0  0  0  0  0  0  0  0  0  0  0
    0.0770   -1.3450    0.9470 C   0  0  0  0  0  0  0  0  0  0  0  0
    1.1930   -0.2890    0.9140 C   0  0  0  0  0  0  0  0  0  0  0  0
    2.5350   -0.9700    1.0460 C   0  0  1  0  0  0  0  0  0  0  0  0
    2.6280   -1.7070    2.2160 O   0  0  0  0  0  0  0  0  0  0  0  0
    2.8940   -1.6870   -0.1930 C   0  0  0  0  0  0  0  0  0  0  0  0
    3.0800   -0.8460   -1.4040 C   0  0  0  0  0  0  0  0  0  0  0  0
    4.2400    0.0980   -1.3700 C   0  0  0  0  0  0  0  0  0  0  0  0
    4.2780    1.0870   -0.4720 O   0  0  0  0  0  0  0  0  0  0  0  0
    3.4010    2.1270   -0.5730 C   0  0  0  0  0  0  0  0  0  0  0  0
   -1.9230   -0.2690    1.9710 C   0  0  0  0  0  0  0  0  0  0  0  0
   -3.1450    0.3440    1.8390 C   0  0  0  0  0  0  0  0  0  0  0  0
   -3.6930    0.5500    0.6010 C   0  0  0  0  0  0  0  0  0  0  0  0
   -5.0410    1.1860    0.5340 C   0  0  0  0  0  0  0  0  0  0  0  0
  1  2  2  0
  2  3  1  0
  3  4  2  0
  3 17  1  0
  4  5  1  0
  5  6  1  0
  5 15  2  0
  6  7  1  0
  7  8  1  0
  8  9  1  1
  8 10  1  0
 10 11  1  0
 11 12  1  0
 12 13  1  0
 13 14  1  0
 15 16  1  0
 16 17  2  0
 17 18  1  0
M  END
