
     RDKit          3D

 18 18  0  0  0  0  0  0  0  0999 V2000
    3.4670    2.4460    1.2720 C   0  0  0  0  0  0  0  0  0  0  0  0
    2.8030    1.5370    0.1950 C   0  0  0  0  0  0  0  0  0  0  0  0
    3.5030    0.2400    0.1410 C   0  0  0  0  0  0  0  0  0  0  0  0
    3.0490   -0.7210   -0.8790 C   0  0  0  0  0  0  0  0  0  0  0  0
    1.6860   -1.2210   -0.9400 C   0  0  0  0  0  0  0  0  0  0  0  0
    0.5620   -0.3380   -1.2970 C   0  0  0  0  0  0  0  0  0  0  0  0
    0.7010    0.8170   -1.6990 O   0  0  0  0  0  0  0  0  0  0  0  0
   -0.7770   -0.9620   -1.1330 C   0  0  0  0  0  0  0  0  0  0  0  0
   -1.4290   -1.6590   -2.1550 C   0  0  0  0  0  0  0  0  0  0  0  0
   -0.8840   -1.7940   -3.5290 C   0  0  0  0  0  0  0  0  0  0  0  0
   -2.5410   -2.1230   -1.6480 O   0  0  0  0  0  0  0  0  0  0  0  0
   -2.6720   -1.7940   -0.3970 C   0  0  0  0  0  0  0  0  0  0  0  0
   -3.7990   -2.1300    0.5330 C   0  0  0  0  0  0  0  0  0  0  0  0
   -1.5570   -1.0430   -0.0230 C   0  0  0  0  0  0  0  0  0  0  0  0
   -1.3490   -0.4380    1.3140 C   0  0  0  0  0  0  0  0  0  0  0  0
   -1.9200    0.9220    1.3720 C   0  0  1  0  0  0  0  0  0  0  0  0
   -1.7240    1.6000    2.7170 C   0  0  0  0  0  0  0  0  0  0  0  0
   -1.4930    1.8740    0.3010 C   0  0  0  0  0  0  0  0  0  0  0  0
  1  2  1  0
  2  3  1  0
  3  4  1  0
  4  5  1  0
  5  6  1  0
  6  7  2  0
  6  8  1  0
  8  9  2  0
  8 14  1  0
  9 10  1  0
  9 11  1  0
 11 12  1  0
 12 13  1  0
 12 14  2  0
 14 15  1  0
 15 16  1  0
 16 17  1  1
 16 18  1  0
M  END
