
     RDKit          3D

 26 29  0  0  0  0  0  0  0  0999 V2000
    4.4660    1.3670    1.0870 C   0  0  0  0  0  0  0  0  0  0  0  0
    4.9610    1.0050   -0.2940 C   0  0  2  0  0  0  0  0  0  0  0  0
    6.4450    1.2970   -0.3870 C   0  0  0  0  0  0  0  0  0  0  0  0
    4.2130    1.8290   -1.2950 C   0  0  0  0  0  0  0  0  0  0  0  0
    4.7570   -0.4440   -0.5210 C   0  0  0  0  0  0  0  0  0  0  0  0
    5.6770   -1.3590   -0.7820 N   0  0  0  0  0  0  0  0  0  0  0  0
    5.0920   -2.5320   -0.9170 N   0  0  0  0  0  0  0  0  0  0  0  0
    3.7570   -2.4200   -0.7480 C   0  0  0  0  0  0  0  0  0  0  0  0
    2.8130   -3.4530   -0.8190 O   0  0  0  0  0  0  0  0  0  0  0  0
    3.5110   -1.0920   -0.4920 C   0  0  0  0  0  0  0  0  0  0  0  0
    2.2430   -0.4180   -0.2340 C   0  0  0  0  0  0  0  0  0  0  0  0
    1.1050   -1.0450   -0.2130 C   0  0  0  0  0  0  0  0  0  0  0  0
   -0.1460   -0.3230    0.0510 C   0  0  0  0  0  0  0  0  0  0  0  0
   -0.2300    1.0040    0.2870 N   0  0  0  0  0  0  0  0  0  0  0  0
   -1.4930    1.2850    0.4770 N   0  0  0  0  0  0  0  0  0  0  0  0
   -2.2220    0.1690    0.3690 C   0  0  0  0  0  0  0  0  0  0  0  0
   -1.3900   -0.8310    0.1050 N   0  0  0  0  0  0  0  0  0  0  0  0
   -1.8190   -2.2060   -0.0800 C   0  0  0  0  0  0  0  0  0  0  0  0
   -3.2050   -2.4670    0.4020 C   0  0  0  0  0  0  0  0  0  0  0  0
   -3.8230   -1.3940    1.1050 N   0  0  0  0  0  0  0  0  0  0  0  0
   -3.6710   -0.1090    0.4850 C   0  0  2  0  0  0  0  0  0  0  0  0
   -4.3680   -0.0930   -0.8520 C   0  0  0  0  0  0  0  0  0  0  0  0
   -4.6950    1.3140   -1.2890 C   0  0  0  0  0  0  0  0  0  0  0  0
   -5.7370    1.9550   -0.3920 C   0  0  0  0  0  0  0  0  0  0  0  0
   -5.7220    1.2580    0.9480 C   0  0  0  0  0  0  0  0  0  0  0  0
   -4.3210    0.9160    1.3890 C   0  0  0  0  0  0  0  0  0  0  0  0
  2  1  1  1
  2  3  1  0
  2  4  1  0
  2  5  1  0
  5  6  1  0
  5 10  2  0
  6  7  1  0
  7  8  2  0
  8  9  1  0
  8 10  1  0
 10 11  1  0
 11 12  2  3
 12 13  1  0
 13 14  2  0
 13 17  1  0
 14 15  1  0
 15 16  2  0
 16 17  1  0
 16 21  1  0
 17 18  1  0
 18 19  1  0
 19 20  1  0
 20 21  1  0
 21 22  1  6
 21 26  1  0
 22 23  1  0
 23 24  1  0
 24 25  1  0
 25 26  1  0
M  END
