
     RDKit          3D

 20 20  0  0  0  0  0  0  0  0999 V2000
    6.5150    0.2470    0.8420 C   0  0  0  0  0  0  0  0  0  0  0  0
    5.0320   -0.1100    0.5950 C   0  0  0  0  0  0  0  0  0  0  0  0
    4.2310    1.0530    1.0420 C   0  0  0  0  0  0  0  0  0  0  0  0
    2.7450    0.7830    0.8830 C   0  0  0  0  0  0  0  0  0  0  0  0
    2.4230    0.5290   -0.5480 C   0  0  0  0  0  0  0  0  0  0  0  0
    1.0930    0.2980   -0.7630 O   0  0  0  0  0  0  0  0  0  0  0  0
    0.2420   -0.6440   -0.3630 C   0  0  0  0  0  0  0  0  0  0  0  0
    0.4940   -1.7320    0.4240 C   0  0  0  0  0  0  0  0  0  0  0  0
   -0.5020   -2.6520    0.7710 C   0  0  0  0  0  0  0  0  0  0  0  0
   -1.7790   -2.4830    0.3220 C   0  0  0  0  0  0  0  0  0  0  0  0
   -2.8880   -3.4210    0.7160 C   0  0  1  0  0  0  0  0  0  0  0  0
   -3.7850   -2.7190    1.7260 C   0  0  0  0  0  0  0  0  0  0  0  0
   -3.6940   -3.7240   -0.3720 O   0  0  0  0  0  0  0  0  0  0  0  0
   -2.0620   -1.3880   -0.4790 C   0  0  0  0  0  0  0  0  0  0  0  0
   -1.0940   -0.4960   -0.8150 C   0  0  0  0  0  0  0  0  0  0  0  0
   -1.4540    0.7200   -1.6030 C   0  0  1  0  0  0  0  0  0  0  0  0
   -2.6550    0.4060   -2.4600 C   0  0  0  0  0  0  0  0  0  0  0  0
   -1.8800    1.7250   -0.5130 C   0  0  0  0  0  0  0  0  0  0  0  0
   -2.2980    3.0410   -1.0770 C   0  0  0  0  0  0  0  0  0  0  0  0
   -2.7320    3.8940    0.1300 C   0  0  0  0  0  0  0  0  0  0  0  0
  1  2  1  0
  2  3  1  0
  3  4  1  0
  4  5  1  0
  5  6  1  0
  6  7  1  0
  7  8  2  0
  7 15  1  0
  8  9  1  0
  9 10  2  0
 10 11  1  0
 10 14  1  0
 11 12  1  1
 11 13  1  0
 14 15  2  0
 15 16  1  0
 16 17  1  6
 16 18  1  0
 18 19  1  0
 19 20  1  0
M  END
