
     RDKit          3D

 20 20  0  0  0  0  0  0  0  0999 V2000
    5.6870    0.1970    0.1150 C   0  0  0  0  0  0  0  0  0  0  0  0
    4.5230    0.4150    1.0640 C   0  0  0  0  0  0  0  0  0  0  0  0
    3.6570    1.5270    0.6360 C   0  0  0  0  0  0  0  0  0  0  0  0
    4.3380    2.8850    0.5380 C   0  0  0  0  0  0  0  0  0  0  0  0
    2.3970    1.4720    0.3390 C   0  0  0  0  0  0  0  0  0  0  0  0
    1.5890    0.2710    0.3750 C   0  0  0  0  0  0  0  0  0  0  0  0
    1.0180   -0.0520   -0.9910 C   0  0  0  0  0  0  0  0  0  0  0  0
    0.1960   -1.2680   -0.9620 C   0  0  0  0  0  0  0  0  0  0  0  0
    0.7850   -2.4240   -1.4970 C   0  0  0  0  0  0  0  0  0  0  0  0
    0.0950   -3.6110   -1.5060 C   0  0  0  0  0  0  0  0  0  0  0  0
   -1.1730   -3.6900   -0.9980 C   0  0  0  0  0  0  0  0  0  0  0  0
   -1.7490   -2.5300   -0.4660 C   0  0  0  0  0  0  0  0  0  0  0  0
   -3.1090   -2.6190    0.0820 C   0  0  0  0  0  0  0  0  0  0  0  0
   -1.0760   -1.3360   -0.4480 C   0  0  0  0  0  0  0  0  0  0  0  0
   -1.6570   -0.2080    0.0760 O   0  0  0  0  0  0  0  0  0  0  0  0
   -2.4450    0.7300   -0.5980 C   0  0  0  0  0  0  0  0  0  0  0  0
   -2.8430    1.7980    0.3930 C   0  0  0  0  0  0  0  0  0  0  0  0
   -3.6360    1.2460    1.5480 C   0  0  0  0  0  0  0  0  0  0  0  0
   -4.9030    0.6200    1.0330 C   0  0  0  0  0  0  0  0  0  0  0  0
   -5.6440    1.5920    0.3680 O   0  0  0  0  0  0  0  0  0  0  0  0
  1  2  1  0
  2  3  1  0
  3  4  1  0
  3  5  2  3
  5  6  1  0
  6  7  1  0
  7  8  1  0
  8  9  2  0
  8 14  1  0
  9 10  1  0
 10 11  2  0
 11 12  1  0
 12 13  1  0
 12 14  2  0
 14 15  1  0
 15 16  1  0
 16 17  1  0
 17 18  1  0
 18 19  1  0
 19 20  1  0
M  END
