
     RDKit          3D

 20 20  0  0  0  0  0  0  0  0999 V2000
    4.6520    1.7760    0.9310 C   0  0  0  0  0  0  0  0  0  0  0  0
    5.3490    1.2400   -0.3030 C   0  0  0  0  0  0  0  0  0  0  0  0
    4.5560    0.1870   -1.0010 C   0  0  0  0  0  0  0  0  0  0  0  0
    4.2730   -1.0140   -0.1270 C   0  0  0  0  0  0  0  0  0  0  0  0
    3.4680   -2.0600   -0.8570 C   0  0  0  0  0  0  0  0  0  0  0  0
    2.1380   -1.5990   -1.3440 C   0  0  0  0  0  0  0  0  0  0  0  0
    1.2040   -1.1460   -0.2980 C   0  0  0  0  0  0  0  0  0  0  0  0
    1.4730   -1.1630    0.8840 O   0  0  0  0  0  0  0  0  0  0  0  0
   -0.1390   -0.6480   -0.7770 C   0  0  0  0  0  0  0  0  0  0  0  0
   -1.0900   -1.7980   -0.6180 C   0  0  1  0  0  0  0  0  0  0  0  0
   -1.1120   -2.1420    0.7320 O   0  0  0  0  0  0  0  0  0  0  0  0
   -2.4760   -1.5020   -1.1350 C   0  0  0  0  0  0  0  0  0  0  0  0
   -3.0980   -0.3520   -0.4310 C   0  0  0  0  0  0  0  0  0  0  0  0
   -2.9690    0.9520   -0.8570 C   0  0  0  0  0  0  0  0  0  0  0  0
   -3.5580    2.0120   -0.1850 C   0  0  0  0  0  0  0  0  0  0  0  0
   -3.4170    3.4270   -0.6510 C   0  0  0  0  0  0  0  0  0  0  0  0
   -4.2900    1.7020    0.9440 C   0  0  0  0  0  0  0  0  0  0  0  0
   -4.4540    0.4160    1.4190 C   0  0  0  0  0  0  0  0  0  0  0  0
   -5.2480    0.1160    2.6400 C   0  0  0  0  0  0  0  0  0  0  0  0
   -3.8380   -0.6140    0.7020 C   0  0  0  0  0  0  0  0  0  0  0  0
  1  2  1  0
  2  3  1  0
  3  4  1  0
  4  5  1  0
  5  6  1  0
  6  7  1  0
  7  8  2  0
  7  9  1  0
  9 10  1  0
 10 11  1  1
 10 12  1  0
 12 13  1  0
 13 14  2  0
 13 20  1  0
 14 15  1  0
 15 16  1  0
 15 17  2  0
 17 18  1  0
 18 19  1  0
 18 20  2  0
M  END
