
     RDKit          3D

 20 20  0  0  0  0  0  0  0  0999 V2000
   -4.4290    1.5550   -2.1540 C   0  0  0  0  0  0  0  0  0  0  0  0
   -4.7930    0.5390   -1.4030 C   0  0  0  0  0  0  0  0  0  0  0  0
   -3.7880   -0.2950   -0.7420 C   0  0  0  0  0  0  0  0  0  0  0  0
   -4.2420   -1.2910   -0.0080 C   0  0  0  0  0  0  0  0  0  0  0  0
   -5.6880   -1.5730    0.1560 C   0  0  0  0  0  0  0  0  0  0  0  0
   -2.3850    0.0610   -0.9360 C   0  0  0  0  0  0  0  0  0  0  0  0
   -1.3760   -0.7500   -0.2040 C   0  0  2  0  0  0  0  0  0  0  0  0
   -1.4140   -2.1010   -0.4840 O   0  0  0  0  0  0  0  0  0  0  0  0
   -1.2710   -0.4850    1.2570 C   0  0  0  0  0  0  0  0  0  0  0  0
   -0.2120   -1.3950    1.8510 C   0  0  0  0  0  0  0  0  0  0  0  0
    1.0950   -1.1180    1.1900 C   0  0  0  0  0  0  0  0  0  0  0  0
    1.5230    0.2250    1.3580 O   0  0  0  0  0  0  0  0  0  0  0  0
    2.7310    0.5900    0.7800 C   0  0  0  0  0  0  0  0  0  0  0  0
    3.5240   -0.2920    0.0560 C   0  0  0  0  0  0  0  0  0  0  0  0
    4.7200    0.0980   -0.5080 C   0  0  0  0  0  0  0  0  0  0  0  0
    5.5440   -0.8680   -1.2750 C   0  0  0  0  0  0  0  0  0  0  0  0
    5.1400    1.3980   -0.3480 C   0  0  0  0  0  0  0  0  0  0  0  0
    4.3600    2.3040    0.3760 C   0  0  0  0  0  0  0  0  0  0  0  0
    3.1650    1.8750    0.9270 C   0  0  0  0  0  0  0  0  0  0  0  0
    2.3620    2.8520    1.6850 C   0  0  0  0  0  0  0  0  0  0  0  0
  1  2  2  0
  2  3  1  0
  3  4  2  3
  3  6  1  0
  4  5  1  0
  6  7  1  0
  7  8  1  1
  7  9  1  0
  9 10  1  0
 10 11  1  0
 11 12  1  0
 12 13  1  0
 13 14  2  0
 13 19  1  0
 14 15  1  0
 15 16  1  0
 15 17  2  0
 17 18  1  0
 18 19  2  0
 19 20  1  0
M  END
