
     RDKit          3D

 29 30  0  0  0  0  0  0  0  0999 V2000
   -3.7670   -3.0420    1.8730 C   0  0  0  0  0  0  0  0  0  0  0  0
   -3.7820   -1.8380    2.7460 C   0  0  0  0  0  0  0  0  0  0  0  0
   -3.4170   -0.6030    2.1480 N   0  0  0  0  0  0  0  0  0  0  0  0
   -2.8570   -0.7010    0.8110 C   0  0  2  0  0  0  0  0  0  0  0  0
   -1.3810   -1.1170    0.9170 C   0  0  0  0  0  0  0  0  0  0  0  0
   -0.5770    0.0870    0.5590 C   0  0  1  0  0  0  0  0  0  0  0  0
    0.6420   -0.3420   -0.1090 N   0  0  0  0  0  0  0  0  0  0  0  0
    1.6630    0.6830   -0.1140 C   0  0  0  0  0  0  0  0  0  0  0  0
    3.0500    0.0760    0.0390 C   0  0  0  0  0  0  0  0  0  0  0  0
    3.2470   -0.7920   -1.0330 O   0  0  0  0  0  0  0  0  0  0  0  0
    4.5000   -1.3640   -0.9240 C   0  0  0  0  0  0  0  0  0  0  0  0
    5.5400   -0.2920   -0.9620 C   0  0  0  0  0  0  0  0  0  0  0  0
    5.5050    0.8980   -1.6380 C   0  0  0  0  0  0  0  0  0  0  0  0
    6.6840    1.5510   -1.3700 C   0  0  0  0  0  0  0  0  0  0  0  0
    7.4070    0.7380   -0.5360 C   0  0  0  0  0  0  0  0  0  0  0  0
    8.7710    1.0130    0.0380 C   0  0  0  0  0  0  0  0  0  0  0  0
    9.1770   -0.1430    0.9060 C   0  0  0  0  0  0  0  0  0  0  0  0
    6.6890   -0.3320   -0.3280 O   0  0  0  0  0  0  0  0  0  0  0  0
   -1.4410    0.9150   -0.3560 C   0  0  1  0  0  0  0  0  0  0  0  0
   -1.2180    0.5260   -1.6670 O   0  0  0  0  0  0  0  0  0  0  0  0
   -2.8840    0.6100    0.0910 C   0  0  2  0  0  0  0  0  0  0  0  0
   -3.1550    1.6620    0.9970 O   0  0  0  0  0  0  0  0  0  0  0  0
   -3.7640    0.6430   -1.0870 C   0  0  0  0  0  0  0  0  0  0  0  0
   -5.1970    0.4260   -1.0160 C   0  0  2  0  0  0  0  0  0  0  0  0
   -5.7120   -0.9020   -0.5220 C   0  0  0  0  0  0  0  0  0  0  0  0
   -5.7260    0.5370   -2.4110 C   0  0  0  0  0  0  0  0  0  0  0  0
   -6.1200    0.6230   -3.5050 N   0  0  0  0  0  0  0  0  0  0  0  0
   -5.8780    1.4360   -0.3250 O   0  0  0  0  0  0  0  0  0  0  0  0
   -5.6930    2.6510   -0.9520 C   0  0  0  0  0  0  0  0  0  0  0  0
  1  2  1  0
  2  3  1  0
  4  3  1  1
  4  5  1  0
  4 21  1  0
  5  6  1  0
  6  7  1  6
  6 19  1  0
  7  8  1  0
  8  9  1  0
  9 10  1  0
 10 11  1  0
 11 12  1  0
 12 13  2  0
 12 18  1  0
 13 14  1  0
 14 15  2  0
 15 16  1  0
 15 18  1  0
 16 17  1  0
 19 20  1  6
 19 21  1  0
 21 22  1  1
 21 23  1  0
 23 24  1  0
 24 25  1  1
 24 26  1  0
 24 28  1  0
 26 27  3  0
 28 29  1  0
M  CHG  2   3   1   7   1
M  END
