
     RDKit          3D

 28 29  0  0  0  0  0  0  0  0999 V2000
   -0.3660   -4.3740    1.2480 C   0  0  0  0  0  0  0  0  0  0  0  0
    0.6160   -3.4890    1.1560 C   0  0  0  0  0  0  0  0  0  0  0  0
    0.6470   -2.5350    0.0350 C   0  0  0  0  0  0  0  0  0  0  0  0
    0.6040   -1.1670    0.4370 N   0  0  0  0  0  0  0  0  0  0  0  0
    1.8920   -0.4950    0.6730 C   0  0  0  0  0  0  0  0  0  0  0  0
    2.3010    0.1090   -0.6600 C   0  0  0  0  0  0  0  0  0  0  0  0
    3.5850    0.8170   -0.5630 C   0  0  0  0  0  0  0  0  0  0  0  0
    3.6390    2.1070   -0.8430 C   0  0  0  0  0  0  0  0  0  0  0  0
    2.4970    2.7980   -1.2280 O   0  0  0  0  0  0  0  0  0  0  0  0
    4.9350    2.7780   -0.7350 C   0  0  0  0  0  0  0  0  0  0  0  0
    5.1430    3.8210   -1.4230 O   0  0  0  0  0  0  0  0  0  0  0  0
    5.9290    2.1890    0.1800 C   0  0  0  0  0  0  0  0  0  0  0  0
    5.9790    0.7980   -0.0780 O   0  0  0  0  0  0  0  0  0  0  0  0
    4.7740    0.0850   -0.1590 C   0  0  0  0  0  0  0  0  0  0  0  0
    4.7660   -1.1310    0.1150 O   0  0  0  0  0  0  0  0  0  0  0  0
   -0.5620   -0.3900    0.6320 C   0  0  0  0  0  0  0  0  0  0  0  0
   -0.5220    0.8230    0.9830 O   0  0  0  0  0  0  0  0  0  0  0  0
   -1.8270   -1.0010    0.4260 N   0  0  0  0  0  0  0  0  0  0  0  0
   -2.9890   -0.2150    0.6220 C   0  0  0  0  0  0  0  0  0  0  0  0
   -3.8630   -0.5860    1.5290 C   0  0  0  0  0  0  0  0  0  0  0  0
   -5.1180    0.1480    1.8320 C   0  0  2  0  0  0  0  0  0  0  0  0
   -6.2460   -0.6560    1.7280 O   0  0  0  0  0  0  0  0  0  0  0  0
   -5.2550    1.2810    1.0340 O   0  0  0  0  0  0  0  0  0  0  0  0
   -4.3330    1.6740    0.0780 C   0  0  0  0  0  0  0  0  0  0  0  0
   -4.5910    2.8320   -0.6530 O   0  0  0  0  0  0  0  0  0  0  0  0
   -3.2390    0.9870   -0.1490 C   0  0  0  0  0  0  0  0  0  0  0  0
   -2.3590    1.4450   -1.1270 O   0  0  0  0  0  0  0  0  0  0  0  0
   -2.2350    0.8170   -2.3880 C   0  0  0  0  0  0  0  0  0  0  0  0
  1  2  2  0
  2  3  1  0
  3  4  1  0
  4  5  1  0
  4 16  1  0
  5  6  1  0
  6  7  1  0
  7  8  2  0
  7 14  1  0
  8  9  1  0
  8 10  1  0
 10 11  2  0
 10 12  1  0
 12 13  1  0
 13 14  1  0
 14 15  2  0
 16 17  2  0
 16 18  1  0
 18 19  1  0
 19 20  2  0
 19 26  1  0
 20 21  1  0
 21 22  1  6
 21 23  1  0
 23 24  1  0
 24 25  1  0
 24 26  2  0
 26 27  1  0
 27 28  1  0
M  END
