
     RDKit          3D

 29 30  0  0  0  0  0  0  0  0999 V2000
    3.8710    0.8520   -2.3410 C   0  0  0  0  0  0  0  0  0  0  0  0
    3.0490   -0.2220   -2.6820 O   0  0  0  0  0  0  0  0  0  0  0  0
    3.2180   -1.3420   -1.9120 C   0  0  0  0  0  0  0  0  0  0  0  0
    2.8050   -1.1970   -0.4470 C   0  0  1  0  0  0  0  0  0  0  0  0
    1.3110   -1.1530   -0.3090 C   0  0  0  0  0  0  0  0  0  0  0  0
    0.6320   -0.0320   -0.8650 N   0  0  0  0  0  0  0  0  0  0  0  0
   -0.2220    0.6130    0.0620 C   0  0  2  0  0  0  0  0  0  0  0  0
   -1.3810   -0.0340    0.6570 C   0  0  0  0  0  0  0  0  0  0  0  0
   -2.5110   -0.5330   -0.1240 C   0  0  1  0  0  0  0  0  0  0  0  0
   -2.3290   -1.5910   -1.1320 C   0  0  0  0  0  0  0  0  0  0  0  0
   -1.8350   -2.9050   -0.6110 C   0  0  0  0  0  0  0  0  0  0  0  0
   -2.9430   -3.8570   -0.2480 C   0  0  0  0  0  0  0  0  0  0  0  0
   -4.1130   -3.1820    0.3940 C   0  0  0  0  0  0  0  0  0  0  0  0
   -3.5940   -2.1350    1.3410 C   0  0  0  0  0  0  0  0  0  0  0  0
   -3.6880   -0.8350    0.7240 N   0  0  0  0  0  0  0  0  0  0  0  0
   -0.6100    1.9990   -0.4270 C   0  0  0  0  0  0  0  0  0  0  0  0
   -0.9900    2.2130   -1.7300 C   0  0  0  0  0  0  0  0  0  0  0  0
   -1.3400    3.5050   -2.1390 C   0  0  0  0  0  0  0  0  0  0  0  0
   -1.3170    4.5760   -1.2780 C   0  0  0  0  0  0  0  0  0  0  0  0
   -1.6580    5.8600   -1.6570 O   0  0  0  0  0  0  0  0  0  0  0  0
   -0.9340    4.3590    0.0370 C   0  0  0  0  0  0  0  0  0  0  0  0
   -0.8910    5.4020    0.9530 O   0  0  0  0  0  0  0  0  0  0  0  0
   -0.4940    5.1260    2.2720 C   0  0  0  0  0  0  0  0  0  0  0  0
   -0.5970    3.0920    0.4120 C   0  0  0  0  0  0  0  0  0  0  0  0
    3.1830   -2.3830    0.2190 O   0  0  0  0  0  0  0  0  0  0  0  0
    4.1730   -2.2420    1.1360 C   0  0  0  0  0  0  0  0  0  0  0  0
    3.9580   -1.3270    2.2580 C   0  0  0  0  0  0  0  0  0  0  0  0
    4.9680   -1.1620    3.2440 N   0  0  0  0  0  0  0  0  0  0  0  0
    2.9110   -0.6760    2.3910 O   0  0  0  0  0  0  0  0  0  0  0  0
  1  2  1  0
  2  3  1  0
  4  3  1  6
  4  5  1  0
  4 25  1  0
  5  6  1  0
  6  7  1  0
  7  8  1  6
  7 16  1  0
  9  8  1  1
  9 10  1  0
  9 15  1  0
 10 11  1  0
 11 12  1  0
 12 13  1  0
 13 14  1  0
 14 15  1  0
 16 17  2  0
 16 24  1  0
 17 18  1  0
 18 19  2  0
 19 20  1  0
 19 21  1  0
 21 22  1  0
 21 24  2  0
 22 23  1  0
 25 26  1  0
 26 27  1  0
 27 28  1  0
 27 29  2  0
M  CHG  2   6   1  15   1
M  END
