
     RDKit          3D

 29 30  0  0  0  0  0  0  0  0999 V2000
    6.5680   -0.3390   -2.0360 C   0  0  0  0  0  0  0  0  0  0  0  0
    7.0410    0.5590   -1.0570 O   0  0  0  0  0  0  0  0  0  0  0  0
    6.2600    0.8360    0.0370 C   0  0  0  0  0  0  0  0  0  0  0  0
    5.0090    0.2740    0.2410 C   0  0  0  0  0  0  0  0  0  0  0  0
    4.2890    0.5990    1.3570 C   0  0  0  0  0  0  0  0  0  0  0  0
    3.0290    0.0930    1.6560 N   0  0  0  0  0  0  0  0  0  0  0  0
    2.3470   -0.8360    0.8080 C   0  0  0  0  0  0  0  0  0  0  0  0
    2.7860   -1.2850   -0.2600 O   0  0  0  0  0  0  0  0  0  0  0  0
    1.0900   -1.2770    1.2020 O   0  0  0  0  0  0  0  0  0  0  0  0
    0.2670   -2.1780    0.5030 C   0  0  0  0  0  0  0  0  0  0  0  0
   -0.0970   -1.5690   -0.8240 C   0  0  0  0  0  0  0  0  0  0  0  0
   -0.8010   -0.2690   -0.7510 C   0  0  2  0  0  0  0  0  0  0  0  0
   -0.0630    0.7110   -0.0740 O   0  0  0  0  0  0  0  0  0  0  0  0
   -2.2120   -0.2200   -0.3760 C   0  0  1  0  0  0  0  0  0  0  0  0
   -3.0610   -1.0140   -1.3590 C   0  0  0  0  0  0  0  0  0  0  0  0
   -4.4190   -1.1880   -0.7070 C   0  0  0  0  0  0  0  0  0  0  0  0
   -4.8590   -0.0370    0.1280 C   0  0  1  0  0  0  0  0  0  0  0  0
   -4.8520    1.1850   -0.5090 O   0  0  0  0  0  0  0  0  0  0  0  0
   -5.7140    1.2620   -1.5770 C   0  0  0  0  0  0  0  0  0  0  0  0
   -6.1210   -0.3600    0.6380 O   0  0  0  0  0  0  0  0  0  0  0  0
   -6.6920    0.9150    1.6090 S   0  0  0  0  0  0  0  0  0  0  0  0
   -7.1100    0.4420    2.9810 O   0  0  0  0  0  0  0  0  0  0  0  0
   -3.9230    0.0740    1.3370 C   0  0  0  0  0  0  0  0  0  0  0  0
   -2.5920   -0.6120    1.0100 C   0  0  0  0  0  0  0  0  0  0  0  0
    4.8200    1.5050    2.2970 C   0  0  0  0  0  0  0  0  0  0  0  0
    4.1880    1.8270    3.3340 O   0  0  0  0  0  0  0  0  0  0  0  0
    6.0280    2.0290    2.0720 N   0  0  0  0  0  0  0  0  0  0  0  0
    6.7480    1.7160    0.9750 C   0  0  0  0  0  0  0  0  0  0  0  0
    8.0140    2.2940    0.7820 O   0  0  0  0  0  0  0  0  0  0  0  0
  1  2  1  0
  2  3  1  0
  3  4  1  0
  3 28  2  0
  4  5  2  0
  5  6  1  0
  5 25  1  0
  6  7  1  0
  7  8  2  0
  7  9  1  0
  9 10  1  0
 10 11  1  0
 11 12  1  0
 12 13  1  1
 12 14  1  0
 14 15  1  6
 14 24  1  0
 15 16  1  0
 16 17  1  0
 17 18  1  6
 17 20  1  0
 17 23  1  0
 18 19  1  0
 20 21  1  0
 21 22  2  0
 23 24  1  0
 25 26  2  0
 25 27  1  0
 27 28  1  0
 28 29  1  0
M  END
