
     RDKit          3D

 29 30  0  0  0  0  0  0  0  0999 V2000
    5.7950   -1.0180   -0.0550 C   0  0  0  0  0  0  0  0  0  0  0  0
    4.5530   -1.5090    0.3670 O   0  0  0  0  0  0  0  0  0  0  0  0
    3.6320   -0.4840    0.1410 C   0  0  0  0  0  0  0  0  0  0  0  0
    2.2540   -0.7610    0.5060 C   0  0  0  0  0  0  0  0  0  0  0  0
    1.8500   -1.8980    1.0100 C   0  0  0  0  0  0  0  0  0  0  0  0
    2.5580   -3.1050    1.3290 C   0  0  0  0  0  0  0  0  0  0  0  0
    1.9490   -4.1750    1.8470 C   0  0  0  0  0  0  0  0  0  0  0  0
    0.5680   -4.2120    2.1220 N   0  0  0  0  0  0  0  0  0  0  0  0
    1.2320    0.3400    0.3390 C   0  0  0  0  0  0  0  0  0  0  0  0
    1.0180    0.8390   -1.0330 C   0  0  2  0  0  0  0  0  0  0  0  0
    2.1900    1.4800   -1.5890 N   0  0  0  0  0  0  0  0  0  0  0  0
   -0.1410    1.8160   -1.1000 C   0  0  1  0  0  0  0  0  0  0  0  0
   -1.3860    1.1800   -0.7130 N   0  0  0  0  0  0  0  0  0  0  0  0
   -1.7450   -0.2020   -0.5040 C   0  0  0  0  0  0  0  0  0  0  0  0
   -2.5940   -0.1280    0.7550 C   0  0  2  0  0  0  0  0  0  0  0  0
   -3.4450   -1.2160    0.7400 O   0  0  0  0  0  0  0  0  0  0  0  0
   -3.3270   -2.0750    1.7800 C   0  0  2  0  0  0  0  0  0  0  0  0
   -2.8840   -3.4520    1.2720 C   0  0  0  0  0  0  0  0  0  0  0  0
   -4.5770   -2.2980    2.5820 C   0  0  0  0  0  0  0  0  0  0  0  0
   -4.2460   -3.2120    3.6040 O   0  0  0  0  0  0  0  0  0  0  0  0
   -3.3840    1.1420    0.4980 C   0  0  0  0  0  0  0  0  0  0  0  0
   -2.6040    1.8980   -0.5370 C   0  0  0  0  0  0  0  0  0  0  0  0
   -3.0200    2.9480   -1.0880 O   0  0  0  0  0  0  0  0  0  0  0  0
    0.2540    2.9350   -0.1830 C   0  0  0  0  0  0  0  0  0  0  0  0
   -0.1080    4.3020   -0.5990 C   0  0  0  0  0  0  0  0  0  0  0  0
   -0.1110    4.5880   -1.9120 O   0  0  0  0  0  0  0  0  0  0  0  0
   -0.3240    3.6620   -2.8450 C   0  0  1  0  0  0  0  0  0  0  0  0
    0.6090    4.0100   -4.0280 C   0  0  0  0  0  0  0  0  0  0  0  0
   -0.2500    2.2330   -2.5510 C   0  0  0  0  0  0  0  0  0  0  0  0
  1  2  1  0
  2  3  1  0
  3  4  1  0
  4  5  2  3
  4  9  1  0
  5  6  1  0
  6  7  2  3
  7  8  1  0
  9 10  1  0
 10 11  1  1
 10 12  1  0
 12 13  1  1
 12 24  1  0
 12 29  1  0
 13 14  1  0
 13 22  1  0
 14 15  1  0
 15 16  1  6
 15 21  1  0
 16 17  1  0
 17 18  1  6
 17 19  1  0
 19 20  1  0
 21 22  1  0
 22 23  2  0
 24 25  1  0
 25 26  1  0
 26 27  1  0
 27 28  1  6
 27 29  1  0
M  CHG  2   8   1  11   1
M  END
