
     RDKit          3D

 24 27  0  0  0  0  0  0  0  0999 V2000
   -3.6690   -3.9420   -0.6370 C   0  0  0  0  0  0  0  0  0  0  0  0
   -2.4180   -3.3110   -0.6310 O   0  0  0  0  0  0  0  0  0  0  0  0
   -2.3980   -1.9490   -0.2600 C   0  0  0  0  0  0  0  0  0  0  0  0
   -3.5760   -1.3410    0.1350 C   0  0  0  0  0  0  0  0  0  0  0  0
   -3.5970   -0.0140    0.4670 C   0  0  0  0  0  0  0  0  0  0  0  0
   -4.8500    0.6860    0.8970 C   0  0  0  0  0  0  0  0  0  0  0  0
   -2.3860    0.6760    0.3790 C   0  0  0  0  0  0  0  0  0  0  0  0
   -2.5070    2.0060    0.5590 N   0  0  0  0  0  0  0  0  0  0  0  0
   -1.4010    2.7420    0.3220 C   0  0  0  0  0  0  0  0  0  0  0  0
   -1.2030    4.0920    0.4030 N   0  0  0  0  0  0  0  0  0  0  0  0
    0.0200    4.3810    0.0850 N   0  0  0  0  0  0  0  0  0  0  0  0
    0.7320    3.2380   -0.2390 C   0  0  0  0  0  0  0  0  0  0  0  0
    2.1450    3.2090   -0.6910 C   0  0  0  0  0  0  0  0  0  0  0  0
   -0.1910    2.2330   -0.0770 C   0  0  0  0  0  0  0  0  0  0  0  0
   -0.0710    0.8180   -0.2530 C   0  0  0  0  0  0  0  0  0  0  0  0
    1.1950    0.3950   -0.8300 C   0  0  0  0  0  0  0  0  0  0  0  0
    2.2220   -0.1270   -0.0380 N   0  0  2  0  0  0  0  0  0  0  0  0
    3.4090   -0.2460   -0.8820 C   0  0  0  0  0  0  0  0  0  0  0  0
    4.1830   -1.4880   -0.5910 C   0  0  0  0  0  0  0  0  0  0  0  0
    4.5340   -1.5120    0.7450 O   0  0  0  0  0  0  0  0  0  0  0  0
    3.4220   -1.4330    1.5530 C   0  0  0  0  0  0  0  0  0  0  0  0
    2.1100   -1.3210    0.7180 C   0  0  0  0  0  0  0  0  0  0  0  0
   -1.1940    0.0600   -0.0170 C   0  0  0  0  0  0  0  0  0  0  0  0
   -1.1870   -1.2920   -0.3400 C   0  0  0  0  0  0  0  0  0  0  0  0
  1  2  1  0
  2  3  1  0
  3  4  1  0
  3 24  2  0
  4  5  2  0
  5  6  1  0
  5  7  1  0
  7  8  2  0
  7 23  1  0
  8  9  1  0
  9 10  2  0
  9 14  1  0
 10 11  1  0
 11 12  1  0
 12 13  1  0
 12 14  2  0
 14 15  1  0
 15 16  1  0
 15 23  2  0
 17 16  1  6
 17 18  1  0
 17 22  1  0
 18 19  1  0
 19 20  1  0
 20 21  1  0
 21 22  1  0
 23 24  1  0
M  CHG  1  17   1
M  END
