
     RDKit          3D

 22 24  0  0  0  0  0  0  0  0999 V2000
    4.5920    0.7000   -0.6290 C   0  0  0  0  0  0  0  0  0  0  0  0
    3.4230   -0.1300   -0.3750 C   0  0  0  0  0  0  0  0  0  0  0  0
    2.0960    0.1790    0.0640 C   0  0  0  0  0  0  0  0  0  0  0  0
    1.4330    1.2480    0.3900 C   0  0  0  0  0  0  0  0  0  0  0  0
    1.7890    2.6480    0.4420 C   0  0  0  0  0  0  0  0  0  0  0  0
    3.3210    3.3960    0.0570 Cl  0  0  0  0  0  0  0  0  0  0  0  0
    0.7280    3.3080    0.8430 N   0  0  0  0  0  0  0  0  0  0  0  0
   -0.3420    2.4330    1.0700 C   0  0  0  0  0  0  0  0  0  0  0  0
   -1.9380    2.9360    1.6540 Cl  0  0  0  0  0  0  0  0  0  0  0  0
   -0.0030    1.1910    0.8230 C   0  0  0  0  0  0  0  0  0  0  0  0
   -0.7890   -0.0130    0.8940 C   0  0  0  0  0  0  0  0  0  0  0  0
   -0.4390   -1.1590    1.5490 N   0  0  0  0  0  0  0  0  0  0  0  0
   -1.3670   -2.0750    1.4030 N   0  0  0  0  0  0  0  0  0  0  0  0
   -2.3840   -1.6120    0.6520 C   0  0  0  0  0  0  0  0  0  0  0  0
   -3.5720   -2.1550    0.2000 C   0  0  0  0  0  0  0  0  0  0  0  0
   -4.4270   -1.3960   -0.5950 C   0  0  0  0  0  0  0  0  0  0  0  0
   -4.1010   -0.1020   -0.9390 C   0  0  0  0  0  0  0  0  0  0  0  0
   -4.9400    0.7080   -1.7510 N   0  0  0  0  0  0  0  0  0  0  0  0
   -2.8920    0.4140   -0.4630 C   0  0  0  0  0  0  0  0  0  0  0  0
   -2.0210   -0.3030    0.3250 C   0  0  0  0  0  0  0  0  0  0  0  0
    3.6250   -1.4500   -0.5960 N   0  0  0  0  0  0  0  0  0  0  0  0
    4.8560   -1.8810   -1.0200 N   0  0  0  0  0  0  0  0  0  0  0  0
  1  2  1  0
  2  3  1  0
  2 21  2  3
  3  4  2  3
  4  5  1  0
  4 10  1  0
  5  6  1  0
  5  7  2  0
  7  8  1  0
  8  9  1  0
  8 10  2  0
 10 11  1  0
 11 12  2  0
 11 20  1  0
 12 13  1  0
 13 14  1  0
 14 15  2  0
 14 20  1  0
 15 16  1  0
 16 17  2  0
 17 18  1  0
 17 19  1  0
 19 20  2  0
 21 22  1  0
M  END
