
     RDKit          3D

 22 24  0  0  0  0  0  0  0  0999 V2000
   -4.3460    3.2160    1.2670 N   0  0  0  0  0  0  0  0  0  0  0  0
   -3.1650    2.5610    0.8480 C   0  0  0  0  0  0  0  0  0  0  0  0
   -1.7790    3.5210    0.3840 Cl  0  0  0  0  0  0  0  0  0  0  0  0
   -3.1190    1.2580    0.8100 C   0  0  0  0  0  0  0  0  0  0  0  0
   -1.9450    0.5040    0.3930 C   0  0  0  0  0  0  0  0  0  0  0  0
   -0.7200    0.8980    0.7410 N   0  0  0  0  0  0  0  0  0  0  0  0
    0.4120    0.2150    0.3640 C   0  0  0  0  0  0  0  0  0  0  0  0
    1.6710    0.7070    0.7890 N   0  0  0  0  0  0  0  0  0  0  0  0
    2.9380    0.1980    0.5410 C   0  0  0  0  0  0  0  0  0  0  0  0
    3.1590   -0.9070   -0.2460 C   0  0  0  0  0  0  0  0  0  0  0  0
    4.4720   -1.3420   -0.4480 C   0  0  0  0  0  0  0  0  0  0  0  0
    5.5490   -0.7030    0.1130 C   0  0  0  0  0  0  0  0  0  0  0  0
    7.1910   -1.2770   -0.1590 Cl  0  0  0  0  0  0  0  0  0  0  0  0
    5.2910    0.3690    0.8740 N   0  0  0  0  0  0  0  0  0  0  0  0
    4.0550    0.8170    1.0920 C   0  0  0  0  0  0  0  0  0  0  0  0
    3.8440    1.9410    1.9230 N   0  0  0  0  0  0  0  0  0  0  0  0
    0.2590   -0.8760   -0.3750 N   0  0  0  0  0  0  0  0  0  0  0  0
   -0.9540   -1.3520   -0.7770 C   0  0  0  0  0  0  0  0  0  0  0  0
   -2.0580   -0.6270   -0.3700 C   0  0  0  0  0  0  0  0  0  0  0  0
   -3.2720   -1.3170   -0.9170 C   0  0  0  0  0  0  0  0  0  0  0  0
   -2.7550   -2.1810   -2.0210 C   0  0  0  0  0  0  0  0  0  0  0  0
   -1.3590   -2.5300   -1.5820 C   0  0  0  0  0  0  0  0  0  0  0  0
  1  2  1  0
  2  3  1  0
  2  4  2  3
  4  5  1  0
  5  6  2  0
  5 19  1  0
  6  7  1  0
  7  8  1  0
  7 17  2  0
  8  9  1  0
  9 10  2  0
  9 15  1  0
 10 11  1  0
 11 12  2  0
 12 13  1  0
 12 14  1  0
 14 15  2  0
 15 16  1  0
 17 18  1  0
 18 19  2  0
 18 22  1  0
 19 20  1  0
 20 21  1  0
 21 22  1  0
M  END
