
     RDKit          3D

 22 24  0  0  0  0  0  0  0  0999 V2000
    6.7810   -0.7200    1.6000 N   0  0  0  0  0  0  0  0  0  0  0  0
    6.2950   -0.6410    0.2370 C   0  0  0  0  0  0  0  0  0  0  0  0
    4.9990    0.0470    0.1390 C   0  0  0  0  0  0  0  0  0  0  0  0
    4.8710    1.3820   -0.0140 N   0  0  0  0  0  0  0  0  0  0  0  0
    3.5800    1.6670   -0.0670 N   0  0  0  0  0  0  0  0  0  0  0  0
    2.8450    0.5500    0.0470 C   0  0  0  0  0  0  0  0  0  0  0  0
    1.5660    0.3860    0.0460 N   0  0  0  0  0  0  0  0  0  0  0  0
    0.7000    1.4710   -0.0880 C   0  0  0  0  0  0  0  0  0  0  0  0
   -0.5950    1.3360   -0.1840 C   0  0  0  0  0  0  0  0  0  0  0  0
   -1.1980    0.0200   -0.1540 C   0  0  0  0  0  0  0  0  0  0  0  0
   -0.6880   -1.2390   -0.0480 C   0  0  0  0  0  0  0  0  0  0  0  0
   -1.7090   -2.1500   -0.0690 N   0  0  0  0  0  0  0  0  0  0  0  0
   -2.8740   -1.4940   -0.1880 C   0  0  0  0  0  0  0  0  0  0  0  0
   -4.2050   -1.9200   -0.2580 C   0  0  0  0  0  0  0  0  0  0  0  0
   -5.2600   -1.0420   -0.3810 C   0  0  0  0  0  0  0  0  0  0  0  0
   -6.9230   -1.6090   -0.4650 Cl  0  0  0  0  0  0  0  0  0  0  0  0
   -4.9650    0.3030   -0.4360 C   0  0  0  0  0  0  0  0  0  0  0  0
   -6.0910    1.2700   -0.5670 C   0  0  0  0  0  0  0  0  0  0  0  0
   -6.7610    1.3380   -2.1870 Cl  0  0  0  0  0  0  0  0  0  0  0  0
   -3.6500    0.7170   -0.3670 C   0  0  0  0  0  0  0  0  0  0  0  0
   -2.5860   -0.1550   -0.2430 C   0  0  0  0  0  0  0  0  0  0  0  0
    3.7510   -0.4460    0.1740 N   0  0  0  0  0  0  0  0  0  0  0  0
  1  2  1  0
  2  3  1  0
  3  4  2  0
  3 22  1  0
  4  5  1  0
  5  6  1  0
  6  7  2  3
  6 22  1  0
  7  8  1  0
  8  9  2  3
  9 10  1  0
 10 11  2  0
 10 21  1  0
 11 12  1  0
 12 13  1  0
 13 14  2  0
 13 21  1  0
 14 15  1  0
 15 16  1  0
 15 17  2  0
 17 18  1  0
 17 20  1  0
 18 19  1  0
 20 21  2  0
M  END
