
     RDKit          3D

 22 24  0  0  0  0  0  0  0  0999 V2000
    6.2570    0.7020   -0.1930 C   0  0  0  0  0  0  0  0  0  0  0  0
    5.6760   -0.4010    0.6420 C   0  0  0  0  0  0  0  0  0  0  0  0
    4.2210   -0.5170    0.3580 C   0  0  0  0  0  0  0  0  0  0  0  0
    3.6520   -1.3120   -0.6120 C   0  0  0  0  0  0  0  0  0  0  0  0
    2.3050   -1.1700   -0.5900 N   0  0  0  0  0  0  0  0  0  0  0  0
    2.0070   -0.3040    0.3710 C   0  0  0  0  0  0  0  0  0  0  0  0
    0.6850    0.1650    0.7710 C   0  0  0  0  0  0  0  0  0  0  0  0
    0.3250    1.0580    1.7570 C   0  0  0  0  0  0  0  0  0  0  0  0
   -1.0120    1.1680    1.7430 N   0  0  0  0  0  0  0  0  0  0  0  0
   -1.5480    0.3910    0.7960 N   0  0  0  0  0  0  0  0  0  0  0  0
   -2.9110    0.2310    0.4710 C   0  0  0  0  0  0  0  0  0  0  0  0
   -3.5770    1.2580   -0.1550 C   0  0  0  0  0  0  0  0  0  0  0  0
   -4.9270    1.1410   -0.4950 C   0  0  0  0  0  0  0  0  0  0  0  0
   -5.6630    2.1670   -1.1410 N   0  0  0  0  0  0  0  0  0  0  0  0
   -5.5780   -0.0270   -0.1880 C   0  0  0  0  0  0  0  0  0  0  0  0
   -4.9340   -1.0740    0.4400 C   0  0  0  0  0  0  0  0  0  0  0  0
   -5.7110   -2.5640    0.8460 Cl  0  0  0  0  0  0  0  0  0  0  0  0
   -3.5780   -0.9320    0.7710 C   0  0  0  0  0  0  0  0  0  0  0  0
   -2.7280   -2.2410    1.5690 Cl  0  0  0  0  0  0  0  0  0  0  0  0
   -0.4900   -0.2320    0.1930 C   0  0  0  0  0  0  0  0  0  0  0  0
   -0.6650   -1.1470   -0.8740 N   0  0  0  0  0  0  0  0  0  0  0  0
    3.1840    0.0960    0.9520 N   0  0  0  0  0  0  0  0  0  0  0  0
  1  2  1  0
  2  3  1  0
  3  4  2  0
  3 22  1  0
  4  5  1  0
  5  6  1  0
  6  7  1  0
  6 22  2  0
  7  8  1  0
  7 20  2  0
  8  9  2  0
  9 10  1  0
 10 11  1  0
 10 20  1  0
 11 12  2  0
 11 18  1  0
 12 13  1  0
 13 14  1  0
 13 15  2  0
 15 16  1  0
 16 17  1  0
 16 18  2  0
 18 19  1  0
 20 21  1  0
M  END
