
     RDKit          3D

 21 23  0  0  0  0  0  0  0  0999 V2000
   -1.0910    3.5620    1.4680 C   0  0  0  0  0  0  0  0  0  0  0  0
   -1.3920    2.1890    0.9390 C   0  0  0  0  0  0  0  0  0  0  0  0
   -0.3190    1.4040    0.5820 C   0  0  0  0  0  0  0  0  0  0  0  0
   -0.4670    0.1260    0.0790 C   0  0  0  0  0  0  0  0  0  0  0  0
    0.6340   -0.6120   -0.2110 C   0  0  0  0  0  0  0  0  0  0  0  0
    1.9960   -0.1490   -0.3230 C   0  0  0  0  0  0  0  0  0  0  0  0
    2.4010    1.0400   -0.6370 C   0  0  0  0  0  0  0  0  0  0  0  0
    3.8040    1.5210   -0.7420 C   0  0  0  0  0  0  0  0  0  0  0  0
    4.1750    2.0980   -2.3990 Cl  0  0  0  0  0  0  0  0  0  0  0  0
    3.0350   -1.2260   -0.0450 C   0  0  0  0  0  0  0  0  0  0  0  0
    2.9300   -1.7300    1.2930 N   0  0  0  0  0  0  0  0  0  0  0  0
    0.3630   -1.9030   -0.6350 N   0  0  0  0  0  0  0  0  0  0  0  0
   -0.8720   -2.3770   -0.7560 C   0  0  0  0  0  0  0  0  0  0  0  0
   -1.3220   -3.5810   -1.1480 N   0  0  0  0  0  0  0  0  0  0  0  0
   -2.6340   -3.6060   -1.1180 N   0  0  0  0  0  0  0  0  0  0  0  0
   -3.1000   -2.4030   -0.6990 C   0  0  0  0  0  0  0  0  0  0  0  0
   -1.9880   -1.6220   -0.4690 C   0  0  0  0  0  0  0  0  0  0  0  0
   -1.7850   -0.3100   -0.0310 C   0  0  0  0  0  0  0  0  0  0  0  0
   -2.8390    0.4700    0.3240 C   0  0  0  0  0  0  0  0  0  0  0  0
   -4.1730   -0.0010    0.1950 N   0  0  0  0  0  0  0  0  0  0  0  0
   -2.6210    1.7250    0.8090 N   0  0  0  0  0  0  0  0  0  0  0  0
  1  2  1  0
  2  3  2  0
  2 21  1  0
  3  4  1  0
  4  5  2  0
  4 18  1  0
  5  6  1  0
  5 12  1  0
  6  7  2  3
  6 10  1  0
  7  8  1  0
  8  9  1  0
 10 11  1  0
 12 13  2  0
 13 14  1  0
 13 17  1  0
 14 15  1  0
 15 16  2  0
 16 17  1  0
 17 18  2  0
 18 19  1  0
 19 20  1  0
 19 21  2  0
M  END
