
     RDKit          3D

 22 24  0  0  0  0  0  0  0  0999 V2000
   -2.8230   -2.8500    0.9800 N   0  0  0  0  0  0  0  0  0  0  0  0
   -2.8090   -1.4920    0.5500 C   0  0  0  0  0  0  0  0  0  0  0  0
   -3.9360   -0.7830    0.3590 N   0  0  0  0  0  0  0  0  0  0  0  0
   -3.9200    0.4980   -0.0480 C   0  0  0  0  0  0  0  0  0  0  0  0
   -5.1700    1.2790   -0.2580 C   0  0  2  0  0  0  0  0  0  0  0  0
   -5.2230    1.6650   -2.0130 Cl  0  0  0  0  0  0  0  0  0  0  0  0
   -5.1410    2.8320    0.5950 Cl  0  0  0  0  0  0  0  0  0  0  0  0
   -2.6890    1.0780   -0.2670 C   0  0  0  0  0  0  0  0  0  0  0  0
   -2.6170    2.4160   -0.6930 N   0  0  0  0  0  0  0  0  0  0  0  0
   -1.4800    0.3970   -0.0870 C   0  0  0  0  0  0  0  0  0  0  0  0
   -0.3020    0.9980   -0.3110 N   0  0  0  0  0  0  0  0  0  0  0  0
    0.8720    0.3180   -0.1300 C   0  0  0  0  0  0  0  0  0  0  0  0
    2.1130    0.9390   -0.4030 N   0  0  0  0  0  0  0  0  0  0  0  0
    3.3620    0.3730   -0.1350 C   0  0  0  0  0  0  0  0  0  0  0  0
    4.3640    0.4620   -1.0940 C   0  0  0  0  0  0  0  0  0  0  0  0
    5.5860   -0.0630   -0.7980 C   0  0  0  0  0  0  0  0  0  0  0  0
    5.8360   -0.6660    0.4030 C   0  0  0  0  0  0  0  0  0  0  0  0
    4.8800   -0.7510    1.3170 N   0  0  0  0  0  0  0  0  0  0  0  0
    3.6580   -0.2390    1.0560 C   0  0  0  0  0  0  0  0  0  0  0  0
    0.8240   -0.9890    0.2840 C   0  0  0  0  0  0  0  0  0  0  0  0
   -0.4050   -1.6230    0.5210 C   0  0  0  0  0  0  0  0  0  0  0  0
   -1.5730   -0.9170    0.3320 C   0  0  0  0  0  0  0  0  0  0  0  0
  1  2  1  0
  2  3  2  0
  2 22  1  0
  3  4  1  0
  4  5  1  0
  4  8  2  0
  5  6  1  6
  5  7  1  0
  8  9  1  0
  8 10  1  0
 10 11  2  0
 10 22  1  0
 11 12  1  0
 12 13  1  0
 12 20  2  0
 13 14  1  0
 14 15  2  0
 14 19  1  0
 15 16  1  0
 16 17  2  0
 17 18  1  0
 18 19  2  0
 20 21  1  0
 21 22  2  0
M  END
