
     RDKit          3D

 10  9  0  0  0  0  0  0  0  0999 V2000
   -1.9440    0.9630    0.5490 N   0  0  0  0  0  0  0  0  0  0  0  0
   -0.6660    0.8550    0.2170 C   0  0  0  0  0  0  0  0  0  0  0  0
   -0.0140    2.0630    0.1150 O   0  0  0  0  0  0  0  0  0  0  0  0
   -0.1320   -0.4580    0.0110 C   0  0  0  0  0  0  0  0  0  0  0  0
    1.0820   -0.7730   -0.3160 C   0  0  0  0  0  0  0  0  0  0  0  0
    2.2850   -0.0040   -0.5830 C   0  0  0  0  0  0  0  0  0  0  0  0
    2.2020    1.3570   -0.4890 O   0  0  0  0  0  0  0  0  0  0  0  0
   -1.0900   -1.5810    0.1960 C   0  0  0  0  0  0  0  0  0  0  0  0
   -2.4170   -1.2940    0.5500 N   0  0  0  0  0  0  0  0  0  0  0  0
   -0.7200   -2.7560    0.0390 O   0  0  0  0  0  0  0  0  0  0  0  0
  1  2  2  0
  2  3  1  0
  2  4  1  0
  4  5  2  3
  4  8  1  0
  5  6  1  0
  6  7  1  0
  8  9  1  0
  8 10  2  0
M  END
