
     RDKit          3D

 10  9  0  0  0  0  0  0  0  0999 V2000
   -2.5090   -1.2260   -0.0510 N   0  0  0  0  0  0  0  0  0  0  0  0
   -1.3070   -0.3560   -0.1250 C   0  0  0  0  0  0  0  0  0  0  0  0
   -0.2100   -0.9880   -0.0490 C   0  0  0  0  0  0  0  0  0  0  0  0
    1.1830   -0.7910   -0.0530 C   0  0  0  0  0  0  0  0  0  0  0  0
    1.9180   -1.8690    0.0650 O   0  0  0  0  0  0  0  0  0  0  0  0
    1.9220    0.3710   -0.1630 N   0  0  0  0  0  0  0  0  0  0  0  0
    3.3790    0.3500   -0.1440 C   0  0  0  0  0  0  0  0  0  0  0  0
    3.9780   -0.7360   -0.0260 O   0  0  0  0  0  0  0  0  0  0  0  0
   -1.6580    1.0360   -0.2670 C   0  0  0  0  0  0  0  0  0  0  0  0
   -0.7070    2.0030   -0.3520 O   0  0  0  0  0  0  0  0  0  0  0  0
  1  2  1  0
  2  3  2  3
  2  9  1  0
  3  4  1  0
  4  5  2  0
  4  6  1  0
  6  7  1  0
  7  8  2  0
  9 10  1  0
M  END
