
     RDKit          3D

 25 28  0  0  0  0  0  0  0  0999 V2000
    3.5920    0.8850    1.2730 C   0  0  0  0  0  0  0  0  0  0  0  0
    3.4230    0.5480    0.0070 C   0  0  0  0  0  0  0  0  0  0  0  0
    3.8810    1.4690   -1.0490 C   0  0  0  0  0  0  0  0  0  0  0  0
    2.6520    1.6850   -1.9470 C   0  0  0  0  0  0  0  0  0  0  0  0
    2.3570    0.3540   -2.5770 C   0  0  0  0  0  0  0  0  0  0  0  0
    1.9690   -0.7210   -1.5920 C   0  0  2  0  0  0  0  0  0  0  0  0
    0.5690   -0.6010   -1.2070 N   0  0  0  0  0  0  0  0  0  0  0  0
   -0.0140   -1.6690   -0.4660 C   0  0  0  0  0  0  0  0  0  0  0  0
    0.6680   -2.8300   -0.2200 C   0  0  0  0  0  0  0  0  0  0  0  0
    0.0750   -3.8590    0.4920 C   0  0  0  0  0  0  0  0  0  0  0  0
   -1.2070   -3.7650    0.9790 C   0  0  0  0  0  0  0  0  0  0  0  0
   -1.8750   -2.5890    0.7200 C   0  0  0  0  0  0  0  0  0  0  0  0
   -1.3140   -1.5460    0.0150 C   0  0  0  0  0  0  0  0  0  0  0  0
   -2.0440   -0.3160   -0.2630 C   0  0  0  0  0  0  0  0  0  0  0  0
   -2.2450    0.0920   -1.5220 N   0  0  0  0  0  0  0  0  0  0  0  0
   -2.9050    1.2150   -1.8150 N   0  0  0  0  0  0  0  0  0  0  0  0
   -3.4210    2.0280   -0.8620 C   0  0  0  0  0  0  0  0  0  0  0  0
   -4.0370    3.0780   -1.1810 O   0  0  0  0  0  0  0  0  0  0  0  0
   -3.2370    1.6450    0.4600 C   0  0  0  0  0  0  0  0  0  0  0  0
   -3.7550    2.4660    1.4500 C   0  0  0  0  0  0  0  0  0  0  0  0
   -3.5950    2.1320    2.7660 C   0  0  0  0  0  0  0  0  0  0  0  0
   -2.9120    0.9720    3.0560 C   0  0  0  0  0  0  0  0  0  0  0  0
   -2.3920    0.1470    2.0830 C   0  0  0  0  0  0  0  0  0  0  0  0
   -2.5470    0.4720    0.7500 C   0  0  0  0  0  0  0  0  0  0  0  0
    2.7880   -0.7350   -0.3500 C   0  0  0  0  0  0  0  0  0  0  0  0
  1  2  2  0
  2  3  1  0
  2 25  1  0
  3  4  1  0
  4  5  1  0
  5  6  1  0
  6  7  1  1
  6 25  1  0
  7  8  1  0
  8  9  2  0
  8 13  1  0
  9 10  1  0
 10 11  2  0
 11 12  1  0
 12 13  2  0
 13 14  1  0
 14 15  2  0
 14 24  1  0
 15 16  1  0
 16 17  1  0
 17 18  2  0
 17 19  1  0
 19 20  2  0
 19 24  1  0
 20 21  1  0
 21 22  2  0
 22 23  1  0
 23 24  2  0
M  END
