
     RDKit          3D

 25 28  0  0  0  0  0  0  0  0999 V2000
   -3.2330   -1.4040    2.2580 C   0  0  0  0  0  0  0  0  0  0  0  0
   -3.2300   -0.5490    1.0870 N   0  0  0  0  0  0  0  0  0  0  0  0
   -2.3570   -0.6000    0.0420 C   0  0  0  0  0  0  0  0  0  0  0  0
   -2.6780    0.3750   -0.8780 C   0  0  0  0  0  0  0  0  0  0  0  0
   -2.0500    0.7240   -2.1770 C   0  0  0  0  0  0  0  0  0  0  0  0
   -0.9020   -0.1010   -2.4760 N   0  0  0  0  0  0  0  0  0  0  0  0
    0.2640   -0.0750   -1.6150 C   0  0  0  0  0  0  0  0  0  0  0  0
    0.2170    0.6780   -0.6410 O   0  0  0  0  0  0  0  0  0  0  0  0
    1.3890   -0.8540   -1.8610 N   0  0  0  0  0  0  0  0  0  0  0  0
    2.5980   -0.9270   -1.1150 C   0  0  0  0  0  0  0  0  0  0  0  0
    3.5410   -1.8960   -1.4160 C   0  0  0  0  0  0  0  0  0  0  0  0
    4.7080   -1.9660   -0.7120 C   0  0  0  0  0  0  0  0  0  0  0  0
    4.9980   -1.0860    0.3170 C   0  0  0  0  0  0  0  0  0  0  0  0
    6.1860   -1.1520    1.0390 C   0  0  0  0  0  0  0  0  0  0  0  0
    6.4560   -0.2660    2.0610 C   0  0  0  0  0  0  0  0  0  0  0  0
    5.5130    0.6950    2.3540 C   0  0  0  0  0  0  0  0  0  0  0  0
    4.3340    0.7530    1.6310 C   0  0  0  0  0  0  0  0  0  0  0  0
    4.0470   -0.1340    0.5960 C   0  0  0  0  0  0  0  0  0  0  0  0
    2.8480   -0.0410   -0.1060 C   0  0  0  0  0  0  0  0  0  0  0  0
   -3.7930    1.0220   -0.3360 C   0  0  0  0  0  0  0  0  0  0  0  0
   -4.5340    2.0640   -0.8120 C   0  0  0  0  0  0  0  0  0  0  0  0
   -5.6060    2.5320   -0.0830 C   0  0  0  0  0  0  0  0  0  0  0  0
   -5.9300    1.9530    1.1220 C   0  0  0  0  0  0  0  0  0  0  0  0
   -5.1890    0.9000    1.6130 C   0  0  0  0  0  0  0  0  0  0  0  0
   -4.1190    0.4420    0.8700 C   0  0  0  0  0  0  0  0  0  0  0  0
  1  2  1  0
  2  3  1  0
  2 25  1  0
  3  4  2  0
  4  5  1  0
  4 20  1  0
  5  6  1  0
  6  7  1  0
  7  8  2  0
  7  9  1  0
  9 10  1  0
 10 11  2  0
 10 19  1  0
 11 12  1  0
 12 13  2  0
 13 14  1  0
 13 18  1  0
 14 15  2  0
 15 16  1  0
 16 17  2  0
 17 18  1  0
 18 19  2  0
 20 21  2  0
 20 25  1  0
 21 22  1  0
 22 23  2  0
 23 24  1  0
 24 25  2  0
M  END
