
     RDKit          3D

 25 28  0  0  0  0  0  0  0  0999 V2000
    7.2130   -1.3710    1.1840 C   0  0  0  0  0  0  0  0  0  0  0  0
    5.7730   -1.6340    1.2190 C   0  0  0  0  0  0  0  0  0  0  0  0
    4.8900   -0.7340    0.7830 C   0  0  0  0  0  0  0  0  0  0  0  0
    5.3020    0.5530    0.2520 C   0  0  0  0  0  0  0  0  0  0  0  0
    4.4260    1.4620   -0.2110 C   0  0  0  0  0  0  0  0  0  0  0  0
    4.9000    2.7700   -0.7480 C   0  0  0  0  0  0  0  0  0  0  0  0
    3.0500    1.1280   -0.1670 C   0  0  0  0  0  0  0  0  0  0  0  0
    1.9980    1.9120   -0.6060 C   0  0  0  0  0  0  0  0  0  0  0  0
    0.7550    1.5840   -0.5710 C   0  0  0  0  0  0  0  0  0  0  0  0
    0.1710    0.0900    0.0370 C   0  0  0  0  0  0  0  0  0  0  0  0
   -1.1780    0.4640   -0.2480 C   0  0  0  0  0  0  0  0  0  0  0  0
   -2.0490   -0.6270    0.2010 C   0  0  0  0  0  0  0  0  0  0  0  0
   -3.3930   -0.5490    0.0710 C   0  0  0  0  0  0  0  0  0  0  0  0
   -4.2290   -1.5870    0.5000 O   0  0  0  0  0  0  0  0  0  0  0  0
   -5.5820   -1.5010    0.3660 C   0  0  0  0  0  0  0  0  0  0  0  0
   -6.3800   -0.5860    0.9200 C   0  0  0  0  0  0  0  0  0  0  0  0
   -7.7840   -0.8400    0.5300 C   0  0  0  0  0  0  0  0  0  0  0  0
   -7.6810   -2.0420   -0.3300 C   0  0  0  0  0  0  0  0  0  0  0  0
   -6.4110   -2.4120   -0.4180 C   0  0  0  0  0  0  0  0  0  0  0  0
   -3.9680    0.5560   -0.4860 C   0  0  0  0  0  0  0  0  0  0  0  0
   -3.1510    1.5810   -0.9090 C   0  0  0  0  0  0  0  0  0  0  0  0
   -1.8400    1.4410   -0.7520 N   0  0  0  0  0  0  0  0  0  0  0  0
    1.2940   -0.2200    0.2740 N   0  0  0  0  0  0  0  0  0  0  0  0
    2.5580   -0.1010    0.3330 C   0  0  0  0  0  0  0  0  0  0  0  0
    3.4950   -1.0370    0.8130 N   0  0  0  0  0  0  0  0  0  0  0  0
  1  2  1  0
  2  3  2  3
  3  4  1  0
  3 25  1  0
  4  5  2  0
  5  6  1  0
  5  7  1  0
  7  8  2  0
  7 24  1  0
  8  9  1  0
  9 10  2  0
 10 11  1  0
 10 23  1  0
 11 12  2  0
 11 22  1  0
 12 13  1  0
 13 14  1  0
 13 20  2  0
 14 15  1  0
 15 16  2  0
 15 19  1  0
 16 17  1  0
 17 18  1  0
 18 19  2  0
 20 21  1  0
 21 22  2  0
 23 24  2  0
 24 25  1  0
M  END
