
     RDKit          3D

 10  9  0  0  0  0  0  0  0  0999 V2000
   -3.3120    1.2410   -0.6390 N   0  0  0  0  0  0  0  0  0  0  0  0
   -1.9050    1.1780   -0.7790 C   0  0  0  0  0  0  0  0  0  0  0  0
   -1.3280    1.9990   -1.5210 O   0  0  0  0  0  0  0  0  0  0  0  0
   -1.1450    0.1830   -0.0760 C   0  0  0  0  0  0  0  0  0  0  0  0
   -1.7760   -0.7250    0.7460 O   0  0  0  0  0  0  0  0  0  0  0  0
    0.1630    0.1380   -0.2160 C   0  0  0  0  0  0  0  0  0  0  0  0
    0.9410   -0.8660    0.4920 C   0  0  0  0  0  0  0  0  0  0  0  0
    2.2400   -0.8950    0.3400 C   0  0  0  0  0  0  0  0  0  0  0  0
    2.8540    0.0560   -0.5140 N   0  0  0  0  0  0  0  0  0  0  0  0
    2.9610   -1.8610    1.0240 O   0  0  0  0  0  0  0  0  0  0  0  0
  1  2  1  0
  2  3  2  0
  2  4  1  0
  4  5  1  0
  4  6  2  3
  6  7  1  0
  7  8  2  3
  8  9  1  0
  8 10  1  0
M  END
