
     RDKit          3D

 27 29  0  0  0  0  0  0  0  0999 V2000
   -0.4980    1.8670    1.5030 O   0  0  0  0  0  0  0  0  0  0  0  0
    0.1400    0.9610    0.8800 C   0  0  0  0  0  0  0  0  0  0  0  0
    1.4190    0.5960    1.2330 O   0  0  0  0  0  0  0  0  0  0  0  0
    2.0060   -0.5130    0.6620 C   0  0  1  0  0  0  0  0  0  0  0  0
    2.8740   -0.2230   -0.4910 C   0  0  0  0  0  0  0  0  0  0  0  0
    3.4860   -1.1450   -1.1100 O   0  0  0  0  0  0  0  0  0  0  0  0
    3.0640    1.0930   -0.9580 N   0  0  0  0  0  0  0  0  0  0  0  0
    3.8600    1.3940   -2.0220 O   0  0  0  0  0  0  0  0  0  0  0  0
    4.6950    0.4020   -2.2420 O   0  0  0  0  0  0  0  0  0  0  0  0
    5.7220    0.5500   -1.4110 O   0  0  0  0  0  0  0  0  0  0  0  0
    6.5220   -0.4810   -1.4490 O   0  0  0  0  0  0  0  0  0  0  0  0
    2.7510   -1.4030    1.6580 C   0  0  0  0  0  0  0  0  0  0  0  0
    2.6380   -2.7310    0.9330 C   0  0  0  0  0  0  0  0  0  0  0  0
    1.6710   -2.5950   -0.0570 O   0  0  0  0  0  0  0  0  0  0  0  0
    0.8910   -1.5100    0.3090 C   0  0  2  0  0  0  0  0  0  0  0  0
   -0.0040   -0.9640   -0.7340 C   0  0  0  0  0  0  0  0  0  0  0  0
   -0.5050    0.3210   -0.2090 N   0  0  0  0  0  0  0  0  0  0  0  0
   -1.6690    0.8810   -0.8480 C   0  0  0  0  0  0  0  0  0  0  0  0
   -2.9660    0.4040   -0.2010 C   0  0  1  0  0  0  0  0  0  0  0  0
   -4.0920    1.0380   -0.8950 C   0  0  0  0  0  0  0  0  0  0  0  0
   -4.9900    0.3740   -1.4370 O   0  0  0  0  0  0  0  0  0  0  0  0
   -4.1840    2.4200   -0.9650 O   0  0  0  0  0  0  0  0  0  0  0  0
   -5.2150    3.0240   -1.6010 O   0  0  0  0  0  0  0  0  0  0  0  0
   -3.1100   -0.9670   -0.2560 O   0  0  0  0  0  0  0  0  0  0  0  0
   -3.9670   -1.2760    0.7990 C   0  0  0  0  0  0  0  0  0  0  0  0
   -3.6820   -0.1930    1.8230 C   0  0  0  0  0  0  0  0  0  0  0  0
   -2.8960    0.7360    1.1450 O   0  0  0  0  0  0  0  0  0  0  0  0
  1  2  2  0
  2  3  1  0
  2 17  1  0
  3  4  1  0
  4  5  1  6
  4 12  1  0
  4 15  1  0
  5  6  2  0
  5  7  1  0
  7  8  1  0
  8  9  1  0
  9 10  1  0
 10 11  1  0
 12 13  1  0
 13 14  1  0
 14 15  1  0
 15 16  1  6
 16 17  1  0
 17 18  1  0
 19 18  1  6
 19 20  1  0
 19 24  1  0
 19 27  1  0
 20 21  2  0
 20 22  1  0
 22 23  1  0
 24 25  1  0
 25 26  1  0
 26 27  1  0
M  END
