
     RDKit          3D

 27 28  0  0  0  0  0  0  0  0999 V2000
   -5.6000    1.2270   -0.9040 O   0  0  0  0  0  0  0  0  0  0  0  0
   -4.7450    2.1220   -0.6970 C   0  0  0  0  0  0  0  0  0  0  0  0
   -5.0510    3.4840   -0.8330 O   0  0  0  0  0  0  0  0  0  0  0  0
   -3.4790    1.7100   -0.3280 O   0  0  0  0  0  0  0  0  0  0  0  0
   -3.1430    0.3650   -0.1840 C   0  0  1  0  0  0  0  0  0  0  0  0
   -1.6870    0.3400    0.2200 C   0  0  0  0  0  0  0  0  0  0  0  0
   -1.0100    1.3900    0.3680 O   0  0  0  0  0  0  0  0  0  0  0  0
   -1.0310   -0.8600    0.4470 O   0  0  0  0  0  0  0  0  0  0  0  0
    0.3190   -0.9580    0.8240 C   0  0  0  0  0  0  0  0  0  0  0  0
    1.2800   -0.3660   -0.1610 C   0  0  2  0  0  0  0  0  0  0  0  0
    1.3280   -1.2160   -1.3770 C   0  0  0  0  0  0  0  0  0  0  0  0
    0.7720   -1.0700   -2.4880 O   0  0  0  0  0  0  0  0  0  0  0  0
    2.1800   -2.2970   -1.0150 N   0  0  0  0  0  0  0  0  0  0  0  0
    2.9980   -1.8830    0.0880 C   0  0  0  0  0  0  0  0  0  0  0  0
    3.8760   -2.6000    0.6680 O   0  0  0  0  0  0  0  0  0  0  0  0
    2.6160   -0.5470    0.3700 N   0  0  0  0  0  0  0  0  0  0  0  0
    3.4520    0.4160    1.0640 C   0  0  0  0  0  0  0  0  0  0  0  0
    4.2670    1.1310   -0.0130 C   0  0  0  0  0  0  0  0  0  0  0  0
    5.0520    0.2060   -0.7140 O   0  0  0  0  0  0  0  0  0  0  0  0
    5.7630    0.7990   -1.6470 O   0  0  0  0  0  0  0  0  0  0  0  0
    6.0840    1.9980   -1.2090 O   0  0  0  0  0  0  0  0  0  0  0  0
    7.2900    2.0020   -0.6590 O   0  0  0  0  0  0  0  0  0  0  0  0
   -3.9780   -0.3550    0.8570 C   0  0  0  0  0  0  0  0  0  0  0  0
   -4.2640   -1.7810    0.5150 C   0  0  0  0  0  0  0  0  0  0  0  0
   -4.6910   -1.9870   -0.7750 O   0  0  0  0  0  0  0  0  0  0  0  0
   -4.4470   -1.0270   -1.5960 O   0  0  0  0  0  0  0  0  0  0  0  0
   -3.2260   -0.4240   -1.4560 C   0  0  0  0  0  0  0  0  0  0  0  0
  1  2  2  0
  2  3  1  0
  2  4  1  0
  5  4  1  6
  5  6  1  0
  5 23  1  0
  5 27  1  0
  6  7  2  0
  6  8  1  0
  8  9  1  0
 10  9  1  1
 10 11  1  0
 10 16  1  0
 11 12  2  0
 11 13  1  0
 13 14  1  0
 14 15  2  0
 14 16  1  0
 16 17  1  0
 17 18  1  0
 18 19  1  0
 19 20  1  0
 20 21  1  0
 21 22  1  0
 23 24  1  0
 24 25  1  0
 25 26  1  0
 26 27  1  0
M  END
