
     RDKit          3D

 27 28  0  0  0  0  0  0  0  0999 V2000
    3.8840   -2.8260   -1.4210 N   0  0  0  0  0  0  0  0  0  0  0  0
    3.0060   -1.8870   -0.6870 C   0  0  1  0  0  0  0  0  0  0  0  0
    3.8940   -1.2990    0.4190 C   0  0  0  0  0  0  0  0  0  0  0  0
    4.9880   -0.6620   -0.1990 O   0  0  0  0  0  0  0  0  0  0  0  0
    5.7920   -0.1360    0.6710 O   0  0  0  0  0  0  0  0  0  0  0  0
    6.4430    0.9110    0.2220 O   0  0  0  0  0  0  0  0  0  0  0  0
    6.4940    1.7870    1.2020 O   0  0  0  0  0  0  0  0  0  0  0  0
    6.9970    2.9420    0.8140 O   0  0  0  0  0  0  0  0  0  0  0  0
    2.5360   -0.9100   -1.4570 O   0  0  0  0  0  0  0  0  0  0  0  0
    1.2630   -0.6420   -1.7080 C   0  0  0  0  0  0  0  0  0  0  0  0
    0.3480   -0.1880   -0.6480 C   0  0  1  0  0  0  0  0  0  0  0  0
   -1.0150    0.2260   -1.2490 C   0  0  0  0  0  0  0  0  0  0  0  0
   -1.8560    0.6920   -0.2490 O   0  0  0  0  0  0  0  0  0  0  0  0
   -3.0890    1.0740   -0.7360 C   0  0  0  0  0  0  0  0  0  0  0  0
   -3.9130    1.5610    0.4380 C   0  0  2  0  0  0  0  0  0  0  0  0
   -4.0450    0.5050    1.3630 O   0  0  0  0  0  0  0  0  0  0  0  0
   -5.1630   -0.3110    1.2730 C   0  0  0  0  0  0  0  0  0  0  0  0
   -5.5000   -0.9910    2.2700 O   0  0  0  0  0  0  0  0  0  0  0  0
   -5.9700   -0.3990    0.0320 C   0  0  0  0  0  0  0  0  0  0  0  0
   -6.0540    0.9010   -0.5510 O   0  0  0  0  0  0  0  0  0  0  0  0
   -5.2520    1.9290   -0.0670 C   0  0  0  0  0  0  0  0  0  0  0  0
   -5.7020    3.1040   -0.0850 O   0  0  0  0  0  0  0  0  0  0  0  0
    0.1460   -1.0150    0.5670 C   0  0  0  0  0  0  0  0  0  0  0  0
   -0.6180   -0.0480    1.3950 N   0  0  0  0  0  0  0  0  0  0  0  0
   -0.0070    1.1990    1.0710 C   0  0  0  0  0  0  0  0  0  0  0  0
   -0.1500    2.2920    1.6690 O   0  0  0  0  0  0  0  0  0  0  0  0
    0.8180    1.0400   -0.0570 O   0  0  0  0  0  0  0  0  0  0  0  0
  2  1  1  6
  2  3  1  0
  2  9  1  0
  3  4  1  0
  4  5  1  0
  5  6  1  0
  6  7  1  0
  7  8  1  0
  9 10  1  0
 11 10  1  6
 11 12  1  0
 11 23  1  0
 11 27  1  0
 12 13  1  0
 13 14  1  0
 15 14  1  6
 15 16  1  0
 15 21  1  0
 16 17  1  0
 17 18  2  0
 17 19  1  0
 19 20  1  0
 20 21  1  0
 21 22  2  0
 23 24  1  0
 24 25  1  0
 25 26  2  0
 25 27  1  0
M  END
