
     RDKit          3D

 27 27  0  0  0  0  0  0  0  0999 V2000
   -1.3120   -2.8270    2.4120 O   0  0  0  0  0  0  0  0  0  0  0  0
   -1.3360   -1.9030    1.5430 C   0  0  0  0  0  0  0  0  0  0  0  0
   -0.4020   -1.0310    1.1990 O   0  0  0  0  0  0  0  0  0  0  0  0
    0.5200   -0.7010    0.2780 C   0  0  0  0  0  0  0  0  0  0  0  0
    1.6760    0.1470    0.7390 C   0  0  1  0  0  0  0  0  0  0  0  0
    2.4840    0.6140   -0.4140 C   0  0  0  0  0  0  0  0  0  0  0  0
    2.7760    1.8510   -0.5470 O   0  0  0  0  0  0  0  0  0  0  0  0
    2.9340   -0.3190   -1.3770 N   0  0  0  0  0  0  0  0  0  0  0  0
    3.7220    0.0470   -2.5240 C   0  0  0  0  0  0  0  0  0  0  0  0
    5.0400    0.6930   -2.1100 C   0  0  0  0  0  0  0  0  0  0  0  0
    5.7790   -0.2210   -1.3250 O   0  0  0  0  0  0  0  0  0  0  0  0
    6.9160    0.3240   -0.9610 O   0  0  0  0  0  0  0  0  0  0  0  0
    7.6570   -0.6400   -0.4400 O   0  0  0  0  0  0  0  0  0  0  0  0
    1.3310    1.1830    1.5660 O   0  0  0  0  0  0  0  0  0  0  0  0
    0.4100    0.9180    2.4390 O   0  0  0  0  0  0  0  0  0  0  0  0
   -0.4740    1.8120    2.6620 O   0  0  0  0  0  0  0  0  0  0  0  0
   -1.4270    2.0310    1.7190 C   0  0  2  0  0  0  0  0  0  0  0  0
   -1.9510    3.4730    1.7880 C   0  0  0  0  0  0  0  0  0  0  0  0
   -2.9300    3.6950    0.8220 O   0  0  0  0  0  0  0  0  0  0  0  0
   -2.5810    1.0640    1.7060 C   0  0  0  0  0  0  0  0  0  0  0  0
   -2.7650    0.5170    0.3760 N   0  0  0  0  0  0  0  0  0  0  0  0
   -3.0940   -0.8410    0.1510 C   0  0  0  0  0  0  0  0  0  0  0  0
   -3.9600   -1.1300   -0.8160 C   0  0  0  0  0  0  0  0  0  0  0  0
   -4.3480   -2.5560   -1.1030 C   0  0  0  0  0  0  0  0  0  0  0  0
   -3.6510   -3.3970   -0.2020 O   0  0  0  0  0  0  0  0  0  0  0  0
   -3.9490   -4.6430   -0.4080 O   0  0  0  0  0  0  0  0  0  0  0  0
   -2.5590   -1.8480    0.8850 O   0  0  0  0  0  0  0  0  0  0  0  0
  1  2  2  0
  2  3  1  0
  2 27  1  0
  3  4  1  0
  4  5  1  0
  5  6  1  6
  5 14  1  0
  6  7  2  0
  6  8  1  0
  8  9  1  0
  9 10  1  0
 10 11  1  0
 11 12  1  0
 12 13  1  0
 14 15  1  0
 15 16  1  0
 16 17  1  0
 17 18  1  1
 17 20  1  0
 18 19  1  0
 20 21  1  0
 21 22  1  0
 22 23  2  3
 22 27  1  0
 23 24  1  0
 24 25  1  0
 25 26  1  0
M  END
