
     RDKit          3D

 28 28  0  0  0  0  0  0  0  0999 V2000
   -2.7190    3.8420    3.2160 C   0  0  0  0  0  0  0  0  0  0  0  0
   -2.0440    2.9660    2.3460 O   0  0  0  0  0  0  0  0  0  0  0  0
   -2.7610    1.9860    1.6920 C   0  0  0  0  0  0  0  0  0  0  0  0
   -3.9930    1.9020    1.8890 O   0  0  0  0  0  0  0  0  0  0  0  0
   -2.0880    1.0360    0.7630 C   0  0  1  0  0  0  0  0  0  0  0  0
   -0.9760    0.3310    1.5160 C   0  0  0  0  0  0  0  0  0  0  0  0
   -0.2810   -0.5330    0.6400 O   0  0  0  0  0  0  0  0  0  0  0  0
    0.7780   -1.2970    1.0700 C   0  0  0  0  0  0  0  0  0  0  0  0
    0.9120   -1.4650    2.3620 N   0  0  0  0  0  0  0  0  0  0  0  0
    1.9850   -2.2480    2.8600 C   0  0  0  0  0  0  0  0  0  0  0  0
    2.1430   -2.4270    4.1170 O   0  0  0  0  0  0  0  0  0  0  0  0
    2.9130   -2.8550    1.9740 N   0  0  0  0  0  0  0  0  0  0  0  0
    2.3770   -3.2230    0.6480 C   0  0  1  0  0  0  0  0  0  0  0  0
    1.4120   -4.1950    0.8510 O   0  0  0  0  0  0  0  0  0  0  0  0
    1.7360   -1.9120    0.1870 C   0  0  0  0  0  0  0  0  0  0  0  0
    2.1210   -1.4230   -0.9470 C   0  0  0  0  0  0  0  0  0  0  0  0
    1.6930   -0.1990   -1.5450 C   0  0  0  0  0  0  0  0  0  0  0  0
    0.8950    0.6070   -1.0810 O   0  0  0  0  0  0  0  0  0  0  0  0
    2.2360    0.1410   -2.8100 O   0  0  0  0  0  0  0  0  0  0  0  0
    1.8560    1.3180   -3.4380 C   0  0  0  0  0  0  0  0  0  0  0  0
    1.0270    2.1020   -2.8980 O   0  0  0  0  0  0  0  0  0  0  0  0
    2.3940    1.6400   -4.6750 O   0  0  0  0  0  0  0  0  0  0  0  0
    2.0430    2.7760   -5.3080 O   0  0  0  0  0  0  0  0  0  0  0  0
   -2.9980    0.1510    0.2280 O   0  0  0  0  0  0  0  0  0  0  0  0
   -3.0400    0.3000   -1.0950 O   0  0  0  0  0  0  0  0  0  0  0  0
   -2.6290   -0.7120   -1.9370 C   0  0  0  0  0  0  0  0  0  0  0  0
   -2.2110   -1.7840   -1.4520 O   0  0  0  0  0  0  0  0  0  0  0  0
   -2.6530   -0.6040   -3.3200 O   0  0  0  0  0  0  0  0  0  0  0  0
  1  2  1  0
  2  3  1  0
  3  4  2  0
  3  5  1  0
  5  6  1  1
  5 24  1  0
  6  7  1  0
  7  8  1  0
  8  9  2  0
  8 15  1  0
  9 10  1  0
 10 11  2  0
 10 12  1  0
 12 13  1  0
 13 14  1  1
 13 15  1  0
 15 16  2  3
 16 17  1  0
 17 18  2  0
 17 19  1  0
 19 20  1  0
 20 21  2  0
 20 22  1  0
 22 23  1  0
 24 25  1  0
 25 26  1  0
 26 27  2  0
 26 28  1  0
M  END
