
     RDKit          3D

 28 28  0  0  0  0  0  0  0  0999 V2000
   -0.1040    4.7200    1.1890 O   0  0  0  0  0  0  0  0  0  0  0  0
    0.9940    4.1260    1.2230 C   0  0  0  0  0  0  0  0  0  0  0  0
    2.0700    4.6700    1.9430 O   0  0  0  0  0  0  0  0  0  0  0  0
    1.1350    2.9250    0.5430 O   0  0  0  0  0  0  0  0  0  0  0  0
    0.1220    2.3210   -0.1900 C   0  0  0  0  0  0  0  0  0  0  0  0
   -0.9920    2.9290   -0.2130 O   0  0  0  0  0  0  0  0  0  0  0  0
    0.3420    1.0390   -0.9010 C   0  0  2  0  0  0  0  0  0  0  0  0
   -0.7550    0.5470   -1.5810 O   0  0  0  0  0  0  0  0  0  0  0  0
   -1.9810    1.0530   -1.8500 C   0  0  0  0  0  0  0  0  0  0  0  0
   -2.3850    1.5950   -2.9120 O   0  0  0  0  0  0  0  0  0  0  0  0
   -3.0220    0.9790   -0.7690 C   0  0  0  0  0  0  0  0  0  0  0  0
   -3.9480   -0.0350   -1.1100 O   0  0  0  0  0  0  0  0  0  0  0  0
   -4.3850   -0.6360    0.0510 C   0  0  0  0  0  0  0  0  0  0  0  0
   -4.3510   -2.1540   -0.0160 C   0  0  0  0  0  0  0  0  0  0  0  0
   -2.9580   -2.6430   -0.3550 C   0  0  0  0  0  0  0  0  0  0  0  0
   -2.2990   -3.0870    0.7850 O   0  0  0  0  0  0  0  0  0  0  0  0
   -0.9150   -2.8620    0.6550 C   0  0  0  0  0  0  0  0  0  0  0  0
   -0.7550   -1.6530   -0.0090 O   0  0  0  0  0  0  0  0  0  0  0  0
   -0.0090   -0.7960    0.7950 C   0  0  0  0  0  0  0  0  0  0  0  0
    0.9760   -0.0340   -0.0780 C   0  0  2  0  0  0  0  0  0  0  0  0
    2.1260    0.3900    0.6800 N   0  0  0  0  0  0  0  0  0  0  0  0
    3.1910    0.8050   -0.0960 N   0  0  0  0  0  0  0  0  0  0  0  0
    4.4710    0.1680    0.0880 C   0  0  0  0  0  0  0  0  0  0  0  0
    4.5810   -0.7430    0.9480 O   0  0  0  0  0  0  0  0  0  0  0  0
    5.5720    0.5320   -0.6520 O   0  0  0  0  0  0  0  0  0  0  0  0
    6.7560   -0.0880   -0.4520 O   0  0  0  0  0  0  0  0  0  0  0  0
    6.8290   -1.1090   -1.2910 O   0  0  0  0  0  0  0  0  0  0  0  0
    5.8480   -1.9290   -1.0330 O   0  0  0  0  0  0  0  0  0  0  0  0
  1  2  2  0
  2  3  1  0
  2  4  1  0
  4  5  1  0
  5  6  2  0
  7  5  1  1
  7  8  1  0
  7 20  1  0
  8  9  1  0
  9 10  2  0
  9 11  1  0
 11 12  1  0
 12 13  1  0
 13 14  1  0
 14 15  1  0
 15 16  1  0
 16 17  1  0
 17 18  1  0
 18 19  1  0
 19 20  1  0
 20 21  1  1
 21 22  1  0
 22 23  1  0
 23 24  2  0
 23 25  1  0
 25 26  1  0
 26 27  1  0
 27 28  1  0
M  END
