
     RDKit          3D

 27 27  0  0  0  0  0  0  0  0999 V2000
   -3.4220    2.6710    1.7000 O   0  0  0  0  0  0  0  0  0  0  0  0
   -3.6360    1.4290    1.4780 C   0  0  0  0  0  0  0  0  0  0  0  0
   -4.3620    1.0570    0.2990 N   0  0  0  0  0  0  0  0  0  0  0  0
   -5.3850    0.0480    0.2790 C   0  0  0  0  0  0  0  0  0  0  0  0
   -5.2250   -0.8030   -0.9520 C   0  0  0  0  0  0  0  0  0  0  0  0
   -4.3140   -0.2280   -1.8250 O   0  0  0  0  0  0  0  0  0  0  0  0
   -3.4780   -1.1320   -2.2920 O   0  0  0  0  0  0  0  0  0  0  0  0
   -2.1940   -0.6380   -2.3650 C   0  0  0  0  0  0  0  0  0  0  0  0
   -1.3140   -1.2280   -1.2900 C   0  0  0  0  0  0  0  0  0  0  0  0
   -2.0590   -1.3600   -0.1370 O   0  0  0  0  0  0  0  0  0  0  0  0
   -1.4180   -0.7790    0.9800 C   0  0  2  0  0  0  0  0  0  0  0  0
   -0.4590   -1.6900    1.3850 O   0  0  0  0  0  0  0  0  0  0  0  0
    0.8300   -1.2320    1.4040 C   0  0  0  0  0  0  0  0  0  0  0  0
    1.0530   -0.0630    2.3360 C   0  0  0  0  0  0  0  0  0  0  0  0
    2.3990    0.3720    2.3190 O   0  0  0  0  0  0  0  0  0  0  0  0
    3.0690    0.8390    1.2240 C   0  0  0  0  0  0  0  0  0  0  0  0
    2.4830    0.9060    0.1290 O   0  0  0  0  0  0  0  0  0  0  0  0
    4.3960    1.2600    1.2370 O   0  0  0  0  0  0  0  0  0  0  0  0
    5.0330    1.7280    0.0950 C   0  0  0  0  0  0  0  0  0  0  0  0
    5.1000    0.7390   -1.0330 C   0  0  0  0  0  0  0  0  0  0  0  0
    5.7840   -0.4200   -0.6860 O   0  0  0  0  0  0  0  0  0  0  0  0
    5.7990   -1.2210   -1.7080 O   0  0  0  0  0  0  0  0  0  0  0  0
    7.0080   -1.6360   -2.0190 O   0  0  0  0  0  0  0  0  0  0  0  0
    7.6070   -0.8380   -2.8640 O   0  0  0  0  0  0  0  0  0  0  0  0
   -2.4370   -0.7030    2.0580 C   0  0  0  0  0  0  0  0  0  0  0  0
   -2.6880   -1.7610    2.6860 O   0  0  0  0  0  0  0  0  0  0  0  0
   -3.1390    0.4850    2.4210 N   0  0  0  0  0  0  0  0  0  0  0  0
  1  2  2  0
  2  3  1  0
  2 27  1  0
  3  4  1  0
  4  5  1  0
  5  6  1  0
  6  7  1  0
  7  8  1  0
  8  9  1  0
  9 10  1  0
 10 11  1  0
 11 12  1  1
 11 25  1  0
 12 13  1  0
 13 14  1  0
 14 15  1  0
 15 16  1  0
 16 17  2  0
 16 18  1  0
 18 19  1  0
 19 20  1  0
 20 21  1  0
 21 22  1  0
 22 23  1  0
 23 24  1  0
 25 26  2  0
 25 27  1  0
M  END
