
     RDKit          3D

 27 28  0  0  0  0  0  0  0  0999 V2000
   -2.5250   -2.5450   -0.4640 O   0  0  0  0  0  0  0  0  0  0  0  0
   -2.6340   -2.4740    0.7900 C   0  0  0  0  0  0  0  0  0  0  0  0
   -2.4870   -3.6490    1.5260 O   0  0  0  0  0  0  0  0  0  0  0  0
   -2.8950   -1.1950    1.3530 O   0  0  0  0  0  0  0  0  0  0  0  0
   -2.9800   -0.1530    0.3860 C   0  0  1  0  0  0  0  0  0  0  0  0
   -1.7790   -0.1170   -0.4530 C   0  0  0  0  0  0  0  0  0  0  0  0
   -1.7000    0.5880   -1.4940 O   0  0  0  0  0  0  0  0  0  0  0  0
   -0.6420   -0.8880   -0.0940 O   0  0  0  0  0  0  0  0  0  0  0  0
    0.5360   -0.7320   -0.9160 C   0  0  0  0  0  0  0  0  0  0  0  0
    1.5540    0.1280   -0.1590 C   0  0  2  0  0  0  0  0  0  0  0  0
    1.0330    1.4750    0.0400 C   0  0  0  0  0  0  0  0  0  0  0  0
    0.8990    2.0480    1.1340 O   0  0  0  0  0  0  0  0  0  0  0  0
    0.7630    1.9330   -1.3070 N   0  0  0  0  0  0  0  0  0  0  0  0
    1.7850    1.2580   -2.0840 C   0  0  0  0  0  0  0  0  0  0  0  0
    1.9650    1.3020   -3.3040 O   0  0  0  0  0  0  0  0  0  0  0  0
    2.6100    0.4730   -1.1520 N   0  0  0  0  0  0  0  0  0  0  0  0
    3.9230    0.1850   -1.4170 C   0  0  0  0  0  0  0  0  0  0  0  0
    4.4330   -1.1870   -0.9820 C   0  0  0  0  0  0  0  0  0  0  0  0
    4.2430   -1.0190    0.4820 O   0  0  0  0  0  0  0  0  0  0  0  0
    5.5350   -1.0950    0.9270 O   0  0  0  0  0  0  0  0  0  0  0  0
    5.5340   -0.7850    2.1690 O   0  0  0  0  0  0  0  0  0  0  0  0
    5.2540    0.3930    2.6130 O   0  0  0  0  0  0  0  0  0  0  0  0
   -4.2720   -0.0120   -0.3230 C   0  0  0  0  0  0  0  0  0  0  0  0
   -5.4350    0.0340    0.6330 C   0  0  0  0  0  0  0  0  0  0  0  0
   -5.1620    1.0710    1.5400 O   0  0  0  0  0  0  0  0  0  0  0  0
   -4.0220    0.9810    2.1150 O   0  0  0  0  0  0  0  0  0  0  0  0
   -2.9110    1.1240    1.3140 C   0  0  0  0  0  0  0  0  0  0  0  0
  1  2  2  0
  2  3  1  0
  2  4  1  0
  5  4  1  1
  5  6  1  0
  5 23  1  0
  5 27  1  0
  6  7  2  0
  6  8  1  0
  8  9  1  0
 10  9  1  6
 10 11  1  0
 10 16  1  0
 11 12  2  0
 11 13  1  0
 13 14  1  0
 14 15  2  0
 14 16  1  0
 16 17  1  0
 17 18  1  0
 18 19  1  0
 19 20  1  0
 20 21  1  0
 21 22  1  0
 23 24  1  0
 24 25  1  0
 25 26  1  0
 26 27  1  0
M  END
