
     RDKit          3D

 11 10  0  0  0  0  0  0  0  0999 V2000
   -2.0920    0.6330    1.1950 C   0  0  0  0  0  0  0  0  0  0  0  0
   -1.8120   -0.1590    0.0320 N   0  0  2  0  0  0  0  0  0  0  0  0
   -1.9240    0.6710   -1.1290 C   0  0  0  0  0  0  0  0  0  0  0  0
   -2.8750   -1.1690   -0.0590 C   0  0  0  0  0  0  0  0  0  0  0  0
   -0.5720   -0.8800    0.1000 C   0  0  0  0  0  0  0  0  0  0  0  0
    0.6350    0.0140    0.1730 C   0  0  0  0  0  0  0  0  0  0  0  0
    1.7410   -0.8160    0.2340 O   0  0  0  0  0  0  0  0  0  0  0  0
    3.0920    0.1570    0.3170 P   0  0  0  0  0  0  0  0  0  0  0  0
    2.8570    1.8260    0.1350 O   0  0  0  0  0  0  0  0  0  0  0  0
    3.2400    0.0590   -1.2060 O   0  0  0  0  0  0  0  0  0  0  0  0
    4.5170   -0.4150    0.7680 O   0  0  0  0  0  0  0  0  0  0  0  0
  2  1  1  1
  2  3  1  0
  2  4  1  0
  2  5  1  0
  5  6  1  0
  6  7  1  0
  7  8  1  0
  8  9  1  0
  8 10  1  0
  8 11  1  0
M  CHG  1   2   1
M  END
