
     RDKit          3D

 27 27  0  0  0  0  0  0  0  0999 V2000
   -3.1420   -4.0210   -0.7170 O   0  0  0  0  0  0  0  0  0  0  0  0
   -3.2010   -2.7910   -1.0600 C   0  0  0  0  0  0  0  0  0  0  0  0
   -4.1470   -1.9850   -0.3860 N   0  0  0  0  0  0  0  0  0  0  0  0
   -4.9080   -0.9270   -1.0010 C   0  0  0  0  0  0  0  0  0  0  0  0
   -4.9610    0.2340   -0.0210 C   0  0  0  0  0  0  0  0  0  0  0  0
   -3.8390    1.0100   -0.2430 O   0  0  0  0  0  0  0  0  0  0  0  0
   -3.5240    1.8410    0.8070 C   0  0  0  0  0  0  0  0  0  0  0  0
   -2.1560    1.4150    1.3460 C   0  0  0  0  0  0  0  0  0  0  0  0
   -2.1280   -0.0490    1.3980 C   0  0  0  0  0  0  0  0  0  0  0  0
   -2.4060   -0.6100    2.4900 O   0  0  0  0  0  0  0  0  0  0  0  0
   -1.8180   -0.8770    0.3320 O   0  0  0  0  0  0  0  0  0  0  0  0
   -1.1400   -0.4380   -0.8250 C   0  0  1  0  0  0  0  0  0  0  0  0
    0.2560   -0.7400   -0.7060 O   0  0  0  0  0  0  0  0  0  0  0  0
    1.2330    0.2420   -0.7760 C   0  0  0  0  0  0  0  0  0  0  0  0
    0.8400    1.4350   -0.9510 O   0  0  0  0  0  0  0  0  0  0  0  0
    2.5740    0.0050   -0.6680 O   0  0  0  0  0  0  0  0  0  0  0  0
    3.5480    1.0100   -0.7410 C   0  0  0  0  0  0  0  0  0  0  0  0
    4.9070    0.4400   -0.5900 C   0  0  0  0  0  0  0  0  0  0  0  0
    5.0130   -0.8000   -0.4260 O   0  0  0  0  0  0  0  0  0  0  0  0
    6.0420    1.2270   -0.6260 O   0  0  0  0  0  0  0  0  0  0  0  0
    7.3170    0.6090   -0.4740 C   0  0  0  0  0  0  0  0  0  0  0  0
    7.3390   -0.0200    0.7650 O   0  0  0  0  0  0  0  0  0  0  0  0
    7.1470    0.8900    1.6930 O   0  0  0  0  0  0  0  0  0  0  0  0
    6.8300    0.2910    2.8360 O   0  0  0  0  0  0  0  0  0  0  0  0
   -1.6510   -1.0930   -2.0530 C   0  0  0  0  0  0  0  0  0  0  0  0
   -1.4690   -0.5080   -3.1520 O   0  0  0  0  0  0  0  0  0  0  0  0
   -2.3300   -2.3290   -2.0730 N   0  0  0  0  0  0  0  0  0  0  0  0
  1  2  2  0
  2  3  1  0
  2 27  1  0
  3  4  1  0
  4  5  1  0
  5  6  1  0
  6  7  1  0
  7  8  1  0
  8  9  1  0
  9 10  2  0
  9 11  1  0
 11 12  1  0
 12 13  1  1
 12 25  1  0
 13 14  1  0
 14 15  2  0
 14 16  1  0
 16 17  1  0
 17 18  1  0
 18 19  2  0
 18 20  1  0
 20 21  1  0
 21 22  1  0
 22 23  1  0
 23 24  1  0
 25 26  2  0
 25 27  1  0
M  END
