
     RDKit          3D

 27 29  0  0  0  0  0  0  0  0999 V2000
   -1.0540   -2.4710   -0.7450 O   0  0  0  0  0  0  0  0  0  0  0  0
   -0.3520   -1.4310   -0.9090 C   0  0  0  0  0  0  0  0  0  0  0  0
    1.0110   -1.5180   -1.2790 O   0  0  0  0  0  0  0  0  0  0  0  0
    1.8350   -0.4640   -0.7910 C   0  0  1  0  0  0  0  0  0  0  0  0
    2.5770   -0.8410    0.3910 C   0  0  0  0  0  0  0  0  0  0  0  0
    2.4570   -2.0830    0.7440 O   0  0  0  0  0  0  0  0  0  0  0  0
    3.3960   -0.0110    1.1710 N   0  0  0  0  0  0  0  0  0  0  0  0
    4.0270   -0.5610    2.2550 O   0  0  0  0  0  0  0  0  0  0  0  0
    5.3230   -0.3360    2.1240 O   0  0  0  0  0  0  0  0  0  0  0  0
    5.5290    0.6820    1.2970 O   0  0  0  0  0  0  0  0  0  0  0  0
    6.7970    0.9440    1.1650 O   0  0  0  0  0  0  0  0  0  0  0  0
    2.9320   -0.1470   -1.8300 C   0  0  0  0  0  0  0  0  0  0  0  0
    3.0710    1.3500   -1.6360 C   0  0  0  0  0  0  0  0  0  0  0  0
    2.1010    1.7360   -0.7100 O   0  0  0  0  0  0  0  0  0  0  0  0
    1.1280    0.8120   -0.8970 C   0  0  2  0  0  0  0  0  0  0  0  0
   -0.1820    0.9580   -0.2310 C   0  0  0  0  0  0  0  0  0  0  0  0
   -0.9880   -0.1810   -0.7090 N   0  0  0  0  0  0  0  0  0  0  0  0
   -2.3920   -0.0300   -0.9820 C   0  0  0  0  0  0  0  0  0  0  0  0
   -3.3020   -0.2810    0.1880 C   0  0  2  0  0  0  0  0  0  0  0  0
   -3.1590    0.7730    1.2280 C   0  0  0  0  0  0  0  0  0  0  0  0
   -2.9850    0.4180    2.4130 O   0  0  0  0  0  0  0  0  0  0  0  0
   -3.2150    2.1110    0.9210 O   0  0  0  0  0  0  0  0  0  0  0  0
   -3.0990    3.1150    1.7930 O   0  0  0  0  0  0  0  0  0  0  0  0
   -3.2080   -1.5450    0.7230 O   0  0  0  0  0  0  0  0  0  0  0  0
   -4.2490   -2.3310    0.2480 C   0  0  0  0  0  0  0  0  0  0  0  0
   -4.9180   -1.4770   -0.8210 C   0  0  0  0  0  0  0  0  0  0  0  0
   -4.6040   -0.2100   -0.3130 O   0  0  0  0  0  0  0  0  0  0  0  0
  1  2  2  0
  2  3  1  0
  2 17  1  0
  3  4  1  0
  4  5  1  1
  4 12  1  0
  4 15  1  0
  5  6  2  0
  5  7  1  0
  7  8  1  0
  8  9  1  0
  9 10  1  0
 10 11  1  0
 12 13  1  0
 13 14  1  0
 14 15  1  0
 15 16  1  1
 16 17  1  0
 17 18  1  0
 19 18  1  6
 19 20  1  0
 19 24  1  0
 19 27  1  0
 20 21  2  0
 20 22  1  0
 22 23  1  0
 24 25  1  0
 25 26  1  0
 26 27  1  0
M  END
