
     RDKit          3D

 28 28  0  0  0  0  0  0  0  0999 V2000
   -6.3270    1.1560   -0.3720 C   0  0  0  0  0  0  0  0  0  0  0  0
   -4.9710    1.1110    0.0740 O   0  0  0  0  0  0  0  0  0  0  0  0
   -3.9520    0.8500   -0.8320 C   0  0  0  0  0  0  0  0  0  0  0  0
   -4.2840    0.6600   -2.0300 O   0  0  0  0  0  0  0  0  0  0  0  0
   -2.5220    0.7890   -0.4320 C   0  0  1  0  0  0  0  0  0  0  0  0
   -1.7010    1.7110   -1.3060 C   0  0  0  0  0  0  0  0  0  0  0  0
   -0.3160    1.5680   -1.0690 O   0  0  0  0  0  0  0  0  0  0  0  0
    0.3470    0.3430   -1.2590 C   0  0  0  0  0  0  0  0  0  0  0  0
   -0.2550   -0.4890   -2.0230 N   0  0  0  0  0  0  0  0  0  0  0  0
    0.3690   -1.7420   -2.2510 C   0  0  0  0  0  0  0  0  0  0  0  0
   -0.1700   -2.6250   -3.0020 O   0  0  0  0  0  0  0  0  0  0  0  0
    1.6080   -2.0940   -1.6730 N   0  0  0  0  0  0  0  0  0  0  0  0
    2.3520   -1.2000   -0.8320 C   0  0  1  0  0  0  0  0  0  0  0  0
    3.5020   -0.8490   -1.5830 O   0  0  0  0  0  0  0  0  0  0  0  0
    1.6160    0.0560   -0.6310 C   0  0  0  0  0  0  0  0  0  0  0  0
    2.1380    0.9810    0.1670 C   0  0  0  0  0  0  0  0  0  0  0  0
    3.3930    0.8420    0.8620 C   0  0  0  0  0  0  0  0  0  0  0  0
    3.7680    1.8200    1.5990 O   0  0  0  0  0  0  0  0  0  0  0  0
    4.2470   -0.2400    0.8230 O   0  0  0  0  0  0  0  0  0  0  0  0
    5.4350   -0.2510    1.5440 C   0  0  0  0  0  0  0  0  0  0  0  0
    5.7280    0.7530    2.2440 O   0  0  0  0  0  0  0  0  0  0  0  0
    6.3080   -1.3330    1.5170 O   0  0  0  0  0  0  0  0  0  0  0  0
    7.4230   -1.2530    2.2400 O   0  0  0  0  0  0  0  0  0  0  0  0
   -2.3350    1.0180    0.9080 O   0  0  0  0  0  0  0  0  0  0  0  0
   -1.8170   -0.0490    1.5330 O   0  0  0  0  0  0  0  0  0  0  0  0
   -2.5900   -0.7360    2.4750 C   0  0  0  0  0  0  0  0  0  0  0  0
   -3.7470   -0.3130    2.6890 O   0  0  0  0  0  0  0  0  0  0  0  0
   -2.1330   -1.8420    3.1620 O   0  0  0  0  0  0  0  0  0  0  0  0
  1  2  1  0
  2  3  1  0
  3  4  2  0
  3  5  1  0
  5  6  1  6
  5 24  1  0
  6  7  1  0
  7  8  1  0
  8  9  2  0
  8 15  1  0
  9 10  1  0
 10 11  2  0
 10 12  1  0
 12 13  1  0
 13 14  1  6
 13 15  1  0
 15 16  2  3
 16 17  1  0
 17 18  2  0
 17 19  1  0
 19 20  1  0
 20 21  2  0
 20 22  1  0
 22 23  1  0
 24 25  1  0
 25 26  1  0
 26 27  2  0
 26 28  1  0
M  END
