
     RDKit          3D

 27 28  0  0  0  0  0  0  0  0999 V2000
   -2.4100   -2.6210    0.5770 O   0  0  0  0  0  0  0  0  0  0  0  0
   -2.8870   -2.5090   -0.5810 C   0  0  0  0  0  0  0  0  0  0  0  0
   -2.9330   -3.6030   -1.4450 O   0  0  0  0  0  0  0  0  0  0  0  0
   -3.3580   -1.2570   -0.9480 O   0  0  0  0  0  0  0  0  0  0  0  0
   -3.3130   -0.1620   -0.0890 C   0  0  1  0  0  0  0  0  0  0  0  0
   -1.8760    0.1130    0.2760 C   0  0  0  0  0  0  0  0  0  0  0  0
   -1.5820    1.0450    1.0430 O   0  0  0  0  0  0  0  0  0  0  0  0
   -0.8560   -0.6670   -0.2370 O   0  0  0  0  0  0  0  0  0  0  0  0
    0.5160   -0.5150    0.0210 C   0  0  0  0  0  0  0  0  0  0  0  0
    0.9800    0.8160   -0.4370 C   0  0  2  0  0  0  0  0  0  0  0  0
    0.9540    0.7980   -1.9450 C   0  0  0  0  0  0  0  0  0  0  0  0
    0.2490    0.0690   -2.6900 O   0  0  0  0  0  0  0  0  0  0  0  0
    1.8990    1.7850   -2.3370 N   0  0  0  0  0  0  0  0  0  0  0  0
    2.8100    1.9530   -1.2460 C   0  0  0  0  0  0  0  0  0  0  0  0
    3.8010    2.7410   -1.1950 O   0  0  0  0  0  0  0  0  0  0  0  0
    2.3910    1.0540   -0.2070 N   0  0  0  0  0  0  0  0  0  0  0  0
    3.2550    0.5430    0.8110 C   0  0  0  0  0  0  0  0  0  0  0  0
    3.9370   -0.7510    0.4410 C   0  0  0  0  0  0  0  0  0  0  0  0
    4.7410   -1.1050    1.5460 O   0  0  0  0  0  0  0  0  0  0  0  0
    5.3730   -2.2440    1.2840 O   0  0  0  0  0  0  0  0  0  0  0  0
    6.3450   -2.0310    0.4030 O   0  0  0  0  0  0  0  0  0  0  0  0
    6.7750   -0.7940    0.6650 O   0  0  0  0  0  0  0  0  0  0  0  0
   -3.7810    1.0670   -0.8670 C   0  0  0  0  0  0  0  0  0  0  0  0
   -4.6060    1.9130    0.0560 C   0  0  0  0  0  0  0  0  0  0  0  0
   -4.0410    1.9720    1.3040 O   0  0  0  0  0  0  0  0  0  0  0  0
   -3.9440    0.8460    1.9250 O   0  0  0  0  0  0  0  0  0  0  0  0
   -4.1630   -0.2720    1.1280 C   0  0  0  0  0  0  0  0  0  0  0  0
  1  2  2  0
  2  3  1  0
  2  4  1  0
  5  4  1  6
  5  6  1  0
  5 23  1  0
  5 27  1  0
  6  7  2  0
  6  8  1  0
  8  9  1  0
 10  9  1  1
 10 11  1  0
 10 16  1  0
 11 12  2  0
 11 13  1  0
 13 14  1  0
 14 15  2  0
 14 16  1  0
 16 17  1  0
 17 18  1  0
 18 19  1  0
 19 20  1  0
 20 21  1  0
 21 22  1  0
 23 24  1  0
 24 25  1  0
 25 26  1  0
 26 27  1  0
M  END
