
     RDKit          3D

 27 29  0  0  0  0  0  0  0  0999 V2000
   -0.9180   -1.5790    2.3230 O   0  0  0  0  0  0  0  0  0  0  0  0
   -0.1960   -1.1130    1.3870 C   0  0  0  0  0  0  0  0  0  0  0  0
    0.8850   -1.9220    0.9760 O   0  0  0  0  0  0  0  0  0  0  0  0
    1.6900   -1.5140   -0.0630 C   0  0  1  0  0  0  0  0  0  0  0  0
    2.8390   -0.6660    0.2670 C   0  0  0  0  0  0  0  0  0  0  0  0
    3.5360   -0.2850   -0.7350 O   0  0  0  0  0  0  0  0  0  0  0  0
    3.2500   -0.2340    1.5270 N   0  0  0  0  0  0  0  0  0  0  0  0
    4.3480    0.5660    1.7040 O   0  0  0  0  0  0  0  0  0  0  0  0
    4.8350    0.9560    0.5650 O   0  0  0  0  0  0  0  0  0  0  0  0
    5.7080    1.9070    0.7830 O   0  0  0  0  0  0  0  0  0  0  0  0
    6.9130    1.4950    0.5230 O   0  0  0  0  0  0  0  0  0  0  0  0
    2.1130   -2.5660   -1.0310 C   0  0  0  0  0  0  0  0  0  0  0  0
    1.9180   -1.8700   -2.3730 C   0  0  0  0  0  0  0  0  0  0  0  0
    1.6340   -0.5220   -2.0590 O   0  0  0  0  0  0  0  0  0  0  0  0
    0.7970   -0.6610   -0.9900 C   0  0  2  0  0  0  0  0  0  0  0  0
    0.5150    0.5720   -0.1970 C   0  0  0  0  0  0  0  0  0  0  0  0
   -0.4910    0.1490    0.8060 N   0  0  0  0  0  0  0  0  0  0  0  0
   -1.6230    0.9440    1.1140 C   0  0  0  0  0  0  0  0  0  0  0  0
   -2.8380    0.7510    0.2730 C   0  0  1  0  0  0  0  0  0  0  0  0
   -3.4410   -0.5850    0.3000 C   0  0  0  0  0  0  0  0  0  0  0  0
   -2.9210   -1.6620   -0.0070 O   0  0  0  0  0  0  0  0  0  0  0  0
   -4.7990   -0.6690    0.7270 O   0  0  0  0  0  0  0  0  0  0  0  0
   -5.4180   -1.8550    0.7670 O   0  0  0  0  0  0  0  0  0  0  0  0
   -3.7990    1.6640    0.7500 O   0  0  0  0  0  0  0  0  0  0  0  0
   -4.1960    2.4520   -0.3060 C   0  0  0  0  0  0  0  0  0  0  0  0
   -3.0330    2.3740   -1.2460 C   0  0  0  0  0  0  0  0  0  0  0  0
   -2.6200    1.0550   -1.0710 O   0  0  0  0  0  0  0  0  0  0  0  0
  1  2  2  0
  2  3  1  0
  2 17  1  0
  3  4  1  0
  4  5  1  1
  4 12  1  0
  4 15  1  0
  5  6  2  0
  5  7  1  0
  7  8  1  0
  8  9  1  0
  9 10  1  0
 10 11  1  0
 12 13  1  0
 13 14  1  0
 14 15  1  0
 15 16  1  1
 16 17  1  0
 17 18  1  0
 19 18  1  1
 19 20  1  0
 19 24  1  0
 19 27  1  0
 20 21  2  0
 20 22  1  0
 22 23  1  0
 24 25  1  0
 25 26  1  0
 26 27  1  0
M  END
