
     RDKit          3D

 28 28  0  0  0  0  0  0  0  0999 V2000
    0.2210   -5.1320    1.5930 O   0  0  0  0  0  0  0  0  0  0  0  0
   -0.2310   -4.8600    0.4510 C   0  0  0  0  0  0  0  0  0  0  0  0
   -0.5720   -5.9200   -0.3830 O   0  0  0  0  0  0  0  0  0  0  0  0
   -0.3800   -3.5410    0.0430 O   0  0  0  0  0  0  0  0  0  0  0  0
   -0.0530   -2.4830    0.8390 C   0  0  0  0  0  0  0  0  0  0  0  0
    0.4030   -2.7060    1.9940 O   0  0  0  0  0  0  0  0  0  0  0  0
   -0.1980   -1.0430    0.4390 C   0  0  2  0  0  0  0  0  0  0  0  0
   -0.6940   -0.8870   -0.8510 O   0  0  0  0  0  0  0  0  0  0  0  0
   -1.9610   -1.2700   -1.2140 C   0  0  0  0  0  0  0  0  0  0  0  0
   -2.1920   -1.8710   -2.3200 O   0  0  0  0  0  0  0  0  0  0  0  0
   -3.1830   -1.0290   -0.3700 C   0  0  0  0  0  0  0  0  0  0  0  0
   -3.9170    0.0730   -0.8240 O   0  0  0  0  0  0  0  0  0  0  0  0
   -4.0860    0.9920    0.2140 C   0  0  0  0  0  0  0  0  0  0  0  0
   -4.3070    2.3980   -0.3020 C   0  0  0  0  0  0  0  0  0  0  0  0
   -2.9620    3.0920   -0.2910 C   0  0  0  0  0  0  0  0  0  0  0  0
   -2.0070    2.1340   -0.5810 O   0  0  0  0  0  0  0  0  0  0  0  0
   -0.8270    2.2880    0.1350 C   0  0  0  0  0  0  0  0  0  0  0  0
    0.1170    1.4520   -0.4710 O   0  0  0  0  0  0  0  0  0  0  0  0
    1.1410    1.0780    0.3940 C   0  0  0  0  0  0  0  0  0  0  0  0
    1.1160   -0.3960    0.7050 C   0  0  2  0  0  0  0  0  0  0  0  0
    2.2160   -0.9970   -0.0450 N   0  0  0  0  0  0  0  0  0  0  0  0
    3.3770   -0.3070    0.3700 N   0  0  0  0  0  0  0  0  0  0  0  0
    4.5640   -0.2760   -0.3990 C   0  0  0  0  0  0  0  0  0  0  0  0
    4.6180   -0.8740   -1.4980 O   0  0  0  0  0  0  0  0  0  0  0  0
    5.6730    0.4350    0.0940 O   0  0  0  0  0  0  0  0  0  0  0  0
    6.8090    0.4840   -0.6070 O   0  0  0  0  0  0  0  0  0  0  0  0
    6.9030    1.6700   -1.1520 O   0  0  0  0  0  0  0  0  0  0  0  0
    7.3520    2.5970   -0.3480 O   0  0  0  0  0  0  0  0  0  0  0  0
  1  2  2  0
  2  3  1  0
  2  4  1  0
  4  5  1  0
  5  6  2  0
  7  5  1  6
  7  8  1  0
  7 20  1  0
  8  9  1  0
  9 10  2  0
  9 11  1  0
 11 12  1  0
 12 13  1  0
 13 14  1  0
 14 15  1  0
 15 16  1  0
 16 17  1  0
 17 18  1  0
 18 19  1  0
 19 20  1  0
 20 21  1  6
 21 22  1  0
 22 23  1  0
 23 24  2  0
 23 25  1  0
 25 26  1  0
 26 27  1  0
 27 28  1  0
M  END
