
     RDKit          3D

 11 10  0  0  0  0  0  0  0  0999 V2000
   -2.3260    1.5250   -0.4370 C   0  0  0  0  0  0  0  0  0  0  0  0
   -1.7930    0.2220   -0.0590 N   0  0  1  0  0  0  0  0  0  0  0  0
   -1.5980    0.2540    1.3750 C   0  0  0  0  0  0  0  0  0  0  0  0
   -2.8330   -0.7520   -0.3300 C   0  0  0  0  0  0  0  0  0  0  0  0
   -0.5820   -0.0320   -0.7860 C   0  0  0  0  0  0  0  0  0  0  0  0
    0.6370   -0.1330    0.0460 C   0  0  0  0  0  0  0  0  0  0  0  0
    1.7160   -0.3830   -0.8380 O   0  0  0  0  0  0  0  0  0  0  0  0
    3.0750   -0.5150   -0.1290 P   0  0  0  0  0  0  0  0  0  0  0  0
    2.9090    1.0510    0.3690 O   0  0  0  0  0  0  0  0  0  0  0  0
    4.4860   -0.6080    0.4770 O   0  0  0  0  0  0  0  0  0  0  0  0
    2.5180   -1.6920    0.8770 O   0  0  0  0  0  0  0  0  0  0  0  0
  2  1  1  6
  2  3  1  0
  2  4  1  0
  2  5  1  0
  5  6  1  0
  6  7  1  0
  7  8  1  0
  8  9  1  0
  8 10  1  0
  8 11  1  0
M  CHG  1   2   1
M  END
