
     RDKit          3D

 22 24  0  0  0  0  0  0  0  0999 V2000
   -2.3210   -3.0680   -1.2800 C   0  0  0  0  0  0  0  0  0  0  0  0
   -2.8180   -1.7460   -0.8500 C   0  0  0  0  0  0  0  0  0  0  0  0
   -4.1300   -1.4070   -0.6230 N   0  0  0  0  0  0  0  0  0  0  0  0
   -4.1960   -0.1150   -0.2600 C   0  0  0  0  0  0  0  0  0  0  0  0
   -5.2840    0.6820    0.0710 C   0  0  0  0  0  0  0  0  0  0  0  0
   -5.0440    2.0040    0.4120 C   0  0  0  0  0  0  0  0  0  0  0  0
   -3.7550    2.5080    0.4200 C   0  0  0  0  0  0  0  0  0  0  0  0
   -2.6750    1.7020    0.0870 C   0  0  0  0  0  0  0  0  0  0  0  0
   -2.8940    0.3870   -0.2540 C   0  0  0  0  0  0  0  0  0  0  0  0
   -2.0310   -0.6440   -0.6260 C   0  0  0  0  0  0  0  0  0  0  0  0
   -0.5550   -0.5150   -0.7220 C   0  0  0  0  0  0  0  0  0  0  0  0
    0.1480   -1.0740    0.4760 C   0  0  0  0  0  0  0  0  0  0  0  0
    1.5980   -0.9610    0.3900 N   0  0  0  0  0  0  0  0  0  0  0  0
    2.2190    0.3060    0.2980 C   0  0  0  0  0  0  0  0  0  0  0  0
    1.4760    1.3580    0.2990 O   0  0  0  0  0  0  0  0  0  0  0  0
    3.6440    0.5350    0.2020 C   0  0  0  0  0  0  0  0  0  0  0  0
    4.1100    1.8430    0.3680 C   0  0  0  0  0  0  0  0  0  0  0  0
    5.4540    2.1290    0.3070 C   0  0  0  0  0  0  0  0  0  0  0  0
    6.3790    1.1260    0.0800 C   0  0  0  0  0  0  0  0  0  0  0  0
    5.9440   -0.1580   -0.0840 C   0  0  0  0  0  0  0  0  0  0  0  0
    4.5790   -0.4420   -0.0210 C   0  0  0  0  0  0  0  0  0  0  0  0
    4.2210   -1.7300   -0.2040 F   0  0  0  0  0  0  0  0  0  0  0  0
  1  2  1  0
  2  3  1  0
  2 10  2  0
  3  4  1  0
  4  5  2  0
  4  9  1  0
  5  6  1  0
  6  7  2  0
  7  8  1  0
  8  9  2  0
  9 10  1  0
 10 11  1  0
 11 12  1  0
 12 13  1  0
 13 14  1  0
 14 15  2  0
 14 16  1  0
 16 17  2  0
 16 21  1  0
 17 18  1  0
 18 19  2  0
 19 20  1  0
 20 21  2  0
 21 22  1  0
M  END
