
     RDKit          3D

 21 24  0  0  0  0  0  0  0  0999 V2000
    5.2660    1.1730   -2.3300 O   0  0  0  0  0  0  0  0  0  0  0  0
    4.3780    0.6330   -1.4140 C   0  0  0  0  0  0  0  0  0  0  0  0
    4.8970   -0.0600   -0.3420 C   0  0  0  0  0  0  0  0  0  0  0  0
    4.0600   -0.6130    0.5900 C   0  0  0  0  0  0  0  0  0  0  0  0
    4.6000   -1.3060    1.6610 O   0  0  0  0  0  0  0  0  0  0  0  0
    2.6540   -0.4830    0.4720 C   0  0  0  0  0  0  0  0  0  0  0  0
    2.1490    0.2030   -0.5870 C   0  0  0  0  0  0  0  0  0  0  0  0
    3.0090    0.7480   -1.5110 C   0  0  0  0  0  0  0  0  0  0  0  0
    0.6910    0.3600   -0.7060 C   0  0  0  0  0  0  0  0  0  0  0  0
   -0.1070   -0.1520    0.1970 C   0  0  0  0  0  0  0  0  0  0  0  0
   -1.5700    0.0190    0.0530 C   0  0  0  0  0  0  0  0  0  0  0  0
   -2.5610   -0.4380    0.8840 C   0  0  0  0  0  0  0  0  0  0  0  0
   -3.7900   -0.0530    0.3700 C   0  0  0  0  0  0  0  0  0  0  0  0
   -5.0980   -0.2250    0.7670 C   0  0  0  0  0  0  0  0  0  0  0  0
   -6.1450    0.2860    0.0330 C   0  0  0  0  0  0  0  0  0  0  0  0
   -5.8440    0.9600   -1.0910 N   0  0  0  0  0  0  0  0  0  0  0  0
   -4.5880    1.1560   -1.5230 C   0  0  0  0  0  0  0  0  0  0  0  0
   -3.5160    0.6420   -0.7840 C   0  0  0  0  0  0  0  0  0  0  0  0
   -2.1830    0.6730   -0.9560 N   0  0  0  0  0  0  0  0  0  0  0  0
    0.3730   -0.8770    1.3680 C   0  0  0  0  0  0  0  0  0  0  0  0
    1.8010   -1.1100    1.4850 C   0  0  0  0  0  0  0  0  0  0  0  0
  1  2  1  0
  2  3  2  0
  2  8  1  0
  3  4  1  0
  4  5  1  0
  4  6  2  0
  6  7  1  0
  6 21  1  0
  7  8  2  0
  7  9  1  0
  9 10  2  0
 10 11  1  0
 10 20  1  0
 11 12  2  0
 11 19  1  0
 12 13  1  0
 13 14  2  0
 13 18  1  0
 14 15  1  0
 15 16  2  0
 16 17  1  0
 17 18  2  0
 18 19  1  0
 20 21  1  0
M  END
