
     RDKit          3D

 11 12  0  0  0  0  0  0  0  0999 V2000
    3.6330    0.4590   -0.2610 C   0  0  0  0  0  0  0  0  0  0  0  0
    2.2180    0.1500   -0.0940 N   0  0  0  0  0  0  0  0  0  0  0  0
    1.7130   -1.0380    0.2710 C   0  0  0  0  0  0  0  0  0  0  0  0
    0.3400   -0.9690    0.3290 C   0  0  0  0  0  0  0  0  0  0  0  0
   -0.8070   -1.6660    0.5910 N   0  0  0  0  0  0  0  0  0  0  0  0
   -1.8210   -0.8070    0.4050 C   0  0  0  0  0  0  0  0  0  0  0  0
   -3.1860   -1.1570    0.5810 N   0  0  0  0  0  0  0  0  0  0  0  0
   -1.3220    0.3860    0.0390 N   0  0  0  0  0  0  0  0  0  0  0  0
   -2.1510    1.5360   -0.2410 C   0  0  0  0  0  0  0  0  0  0  0  0
    0.0160    0.3210   -0.0180 C   0  0  0  0  0  0  0  0  0  0  0  0
    1.1900    0.9950   -0.2750 C   0  0  0  0  0  0  0  0  0  0  0  0
  1  2  1  0
  2  3  1  0
  2 11  1  0
  3  4  2  0
  4  5  1  0
  4 10  1  0
  5  6  2  0
  6  7  1  0
  6  8  1  0
  8  9  1  0
  8 10  1  0
 10 11  2  0
M  CHG  1   5   1
M  END
