
     RDKit          3D

 12 13  0  0  0  0  0  0  0  0999 V2000
   -0.1340    2.1290    0.6470 N   0  0  0  0  0  0  0  0  0  0  0  0
   -0.7910    0.9460    0.2180 C   0  0  0  0  0  0  0  0  0  0  0  0
   -2.1680    0.9120    0.1850 C   0  0  0  0  0  0  0  0  0  0  0  0
   -2.8270   -0.2080   -0.2210 N   0  0  0  0  0  0  0  0  0  0  0  0
   -2.1790   -1.3260   -0.6070 C   0  0  0  0  0  0  0  0  0  0  0  0
   -0.8030   -1.3350   -0.5900 C   0  0  0  0  0  0  0  0  0  0  0  0
   -0.1190   -0.1970   -0.1760 C   0  0  0  0  0  0  0  0  0  0  0  0
    1.2960   -0.1450   -0.1360 N   0  0  0  0  0  0  0  0  0  0  0  0
    2.1430   -1.0730    0.2910 C   0  0  0  0  0  0  0  0  0  0  0  0
    3.4250   -0.5600    0.1310 C   0  0  0  0  0  0  0  0  0  0  0  0
    3.2890    0.6580   -0.3860 N   0  0  0  0  0  0  0  0  0  0  0  0
    1.9990    0.8930   -0.5420 N   0  0  0  0  0  0  0  0  0  0  0  0
  1  2  1  0
  2  3  2  0
  2  7  1  0
  3  4  1  0
  4  5  2  0
  5  6  1  0
  6  7  2  0
  7  8  1  0
  8  9  1  0
  8 12  1  0
  9 10  2  0
 10 11  1  0
 11 12  2  0
M  CHG  1   4   1
M  END
