
     RDKit          3D

 12 13  0  0  0  0  0  0  0  0999 V2000
   -2.1290    1.4150   -1.0320 C   0  0  0  0  0  0  0  0  0  0  0  0
   -0.7700    1.0260   -0.6930 C   0  0  0  0  0  0  0  0  0  0  0  0
   -0.3350   -0.1230   -0.2270 C   0  0  0  0  0  0  0  0  0  0  0  0
   -1.0130   -1.2740    0.0730 C   0  0  0  0  0  0  0  0  0  0  0  0
   -2.2750   -1.4900   -0.0430 N   0  0  0  0  0  0  0  0  0  0  0  0
   -0.1330   -2.2330    0.5410 N   0  0  0  0  0  0  0  0  0  0  0  0
    1.0580   -1.6480    0.5170 C   0  0  0  0  0  0  0  0  0  0  0  0
    2.3590   -1.8820    0.7950 N   0  0  0  0  0  0  0  0  0  0  0  0
    3.0470   -0.7880    0.5160 N   0  0  0  0  0  0  0  0  0  0  0  0
    2.2020    0.1600    0.0570 C   0  0  0  0  0  0  0  0  0  0  0  0
    2.5410    1.5240   -0.3690 C   0  0  0  0  0  0  0  0  0  0  0  0
    0.9800   -0.3900    0.0650 N   0  0  0  0  0  0  0  0  0  0  0  0
  1  2  1  0
  2  3  2  3
  3  4  1  0
  3 12  1  0
  4  5  2  0
  4  6  1  0
  6  7  1  0
  7  8  2  0
  7 12  1  0
  8  9  1  0
  9 10  2  0
 10 11  1  0
 10 12  1  0
M  CHG  1   5   1
M  END
