
     RDKit          3D

  6  5  0  0  0  0  0  0  0  0999 V2000
   -1.6450    0.3580   -0.2620 C   0  0  0  0  0  0  0  0  0  0  0  0
   -0.7650   -0.8540   -0.0620 C   0  0  0  0  0  0  0  0  0  0  0  0
    0.4710   -0.5310    0.7370 C   0  0  0  0  0  0  0  0  0  0  0  0
    1.3170    0.4940    0.0940 C   0  0  0  0  0  0  0  0  0  0  0  0
    1.0610    1.0520   -0.9930 O   0  0  0  0  0  0  0  0  0  0  0  0
    2.4760    0.8590    0.7510 O   0  0  0  0  0  0  0  0  0  0  0  0
  1  2  1  0
  2  3  1  0
  3  4  1  0
  4  5  2  0
  4  6  1  0
M  END
