
     RDKit          3D

 12 12  0  0  0  0  0  0  0  0999 V2000
    4.0310   -0.6960   -0.3700 C   0  0  0  0  0  0  0  0  0  0  0  0
    2.5390   -0.5690   -0.4110 C   0  0  0  0  0  0  0  0  0  0  0  0
    1.8950    0.3310    0.2990 C   0  0  0  0  0  0  0  0  0  0  0  0
    2.6150    1.2650    1.1750 C   0  0  0  0  0  0  0  0  0  0  0  0
    2.2860    2.9430    0.6540 Cl  0  0  0  0  0  0  0  0  0  0  0  0
    0.5170    0.3830    0.2060 O   0  0  0  0  0  0  0  0  0  0  0  0
   -0.2090   -0.8030    0.4040 C   0  0  0  0  0  0  0  0  0  0  0  0
   -1.6810   -0.6040    0.2750 C   0  0  2  0  0  0  0  0  0  0  0  0
   -2.0990   -0.0000   -1.0430 C   0  0  0  0  0  0  0  0  0  0  0  0
   -3.5670    0.2470   -0.7110 C   0  0  0  0  0  0  0  0  0  0  0  0
   -3.4890    0.5550    0.7560 C   0  0  0  0  0  0  0  0  0  0  0  0
   -2.2030    0.3020    1.1780 O   0  0  0  0  0  0  0  0  0  0  0  0
  1  2  1  0
  2  3  2  3
  3  4  1  0
  3  6  1  0
  4  5  1  0
  6  7  1  0
  8  7  1  6
  8  9  1  0
  8 12  1  0
  9 10  1  0
 10 11  1  0
 11 12  1  0
M  END
