
     RDKit          3D

 31 32  0  0  0  0  0  0  0  0999 V2000
    6.2190    1.8740    2.2000 C   0  0  0  0  0  0  0  0  0  0  0  0
    6.8200    1.5040    0.8810 C   0  0  0  0  0  0  0  0  0  0  0  0
    6.0240    0.4030    0.1830 C   0  0  0  0  0  0  0  0  0  0  0  0
    4.5840    0.8930   -0.0560 C   0  0  0  0  0  0  0  0  0  0  0  0
    3.7810   -0.1590   -0.7510 C   0  0  2  0  0  0  0  0  0  0  0  0
    3.7430   -1.4040    0.0940 C   0  0  0  0  0  0  0  0  0  0  0  0
    4.5500   -0.5700   -2.0480 C   0  0  0  0  0  0  0  0  0  0  0  0
    2.4350    0.2820   -1.2510 C   0  0  2  0  0  0  0  0  0  0  0  0
    2.7230    1.4000   -2.2700 C   0  0  0  0  0  0  0  0  0  0  0  0
    1.5700    0.9710   -0.2070 C   0  0  2  0  0  0  0  0  0  0  0  0
    1.3280    0.1230    1.0100 C   0  0  0  0  0  0  0  0  0  0  0  0
    0.2360    1.3610   -0.8000 C   0  0  0  0  0  0  0  0  0  0  0  0
   -0.6560    0.3270   -1.2740 C   0  0  0  0  0  0  0  0  0  0  0  0
   -0.4610   -0.1740   -2.5660 C   0  0  0  0  0  0  0  0  0  0  0  0
   -1.2810   -1.1830   -3.0150 C   0  0  0  0  0  0  0  0  0  0  0  0
   -2.3000   -1.7280   -2.2380 C   0  0  0  0  0  0  0  0  0  0  0  0
   -2.4740   -1.2190   -0.9730 C   0  0  0  0  0  0  0  0  0  0  0  0
   -1.6710   -0.2040   -0.4830 C   0  0  0  0  0  0  0  0  0  0  0  0
   -2.0160    0.2430    0.8410 C   0  0  0  0  0  0  0  0  0  0  0  0
   -1.6470   -0.1550    1.9420 O   0  0  0  0  0  0  0  0  0  0  0  0
   -2.9390    1.3310    0.9430 O   0  0  0  0  0  0  0  0  0  0  0  0
   -3.3480    1.8500    2.1680 C   0  0  2  0  0  0  0  0  0  0  0  0
   -2.1570    2.3700    2.9520 C   0  0  0  0  0  0  0  0  0  0  0  0
   -4.0970    0.8770    3.0280 C   0  0  0  0  0  0  0  0  0  0  0  0
   -4.2360    3.0400    1.8920 C   0  0  0  0  0  0  0  0  0  0  0  0
   -3.5450   -1.7680   -0.1210 C   0  0  1  0  0  0  0  0  0  0  0  0
   -4.8980   -1.2150   -0.4550 C   0  0  0  0  0  0  0  0  0  0  0  0
   -6.0060   -1.7390    0.3770 C   0  0  0  0  0  0  0  0  0  0  0  0
   -3.4610   -3.2740   -0.3050 C   0  0  0  0  0  0  0  0  0  0  0  0
   -3.7290   -3.6990   -1.7130 C   0  0  0  0  0  0  0  0  0  0  0  0
   -3.1610   -2.8170   -2.7700 C   0  0  0  0  0  0  0  0  0  0  0  0
  1  2  1  0
  2  3  1  0
  3  4  1  0
  4  5  1  0
  5  6  1  1
  5  7  1  0
  5  8  1  0
  8  9  1  6
  8 10  1  0
 10 11  1  1
 10 12  1  0
 12 13  1  0
 13 14  2  0
 13 18  1  0
 14 15  1  0
 15 16  2  0
 16 17  1  0
 16 31  1  0
 17 18  2  0
 17 26  1  0
 18 19  1  0
 19 20  2  0
 19 21  1  0
 21 22  1  0
 22 23  1  1
 22 24  1  0
 22 25  1  0
 26 27  1  6
 26 29  1  0
 27 28  1  0
 29 30  1  0
 30 31  1  0
M  END
