
     RDKit          3D

 31 32  0  0  0  0  0  0  0  0999 V2000
   -2.6950    6.8250   -0.0850 C   0  0  0  0  0  0  0  0  0  0  0  0
   -1.7770    5.6750   -0.0210 C   0  0  0  0  0  0  0  0  0  0  0  0
   -2.1050    4.5810    0.6160 C   0  0  0  0  0  0  0  0  0  0  0  0
   -3.4250    4.4950    1.2850 C   0  0  0  0  0  0  0  0  0  0  0  0
   -1.1950    3.4000    0.7120 C   0  0  0  0  0  0  0  0  0  0  0  0
   -1.8910    2.2630    0.0640 C   0  0  1  0  0  0  0  0  0  0  0  0
   -2.2070    2.6140   -1.4280 C   0  0  0  0  0  0  0  0  0  0  0  0
   -1.1140    1.0090   -0.0410 C   0  0  0  0  0  0  0  0  0  0  0  0
   -1.7660   -0.1060   -0.5120 C   0  0  0  0  0  0  0  0  0  0  0  0
   -1.1160   -1.3080   -0.6770 C   0  0  0  0  0  0  0  0  0  0  0  0
   -1.7980   -2.3960   -1.1440 O   0  0  0  0  0  0  0  0  0  0  0  0
   -2.3870   -3.4140   -0.2880 C   0  0  2  0  0  0  0  0  0  0  0  0
   -3.3660   -2.7500    0.6620 C   0  0  0  0  0  0  0  0  0  0  0  0
   -1.2890   -3.9840    0.5230 C   0  0  0  0  0  0  0  0  0  0  0  0
   -3.0970   -4.3160   -1.2120 C   0  0  0  0  0  0  0  0  0  0  0  0
   -3.7760   -5.5200   -0.7150 C   0  0  0  0  0  0  0  0  0  0  0  0
   -4.8560   -5.3900    0.2980 C   0  0  0  0  0  0  0  0  0  0  0  0
    0.2330   -1.3490   -0.3450 C   0  0  0  0  0  0  0  0  0  0  0  0
    0.9240   -0.2530    0.1340 C   0  0  0  0  0  0  0  0  0  0  0  0
    2.3210   -0.4650    0.4590 C   0  0  1  0  0  0  0  0  0  0  0  0
    2.2970   -1.3500    1.7330 C   0  0  0  0  0  0  0  0  0  0  0  0
    2.8970   -1.3910   -0.6300 C   0  0  0  0  0  0  0  0  0  0  0  0
    4.2200   -0.7780   -1.0580 C   0  0  1  0  0  0  0  0  0  0  0  0
    4.0170   -0.1410   -2.3890 C   0  0  0  0  0  0  0  0  0  0  0  0
    4.5740    0.0910    0.0780 C   0  0  1  0  0  0  0  0  0  0  0  0
    5.1360   -0.7780    1.1870 C   0  0  0  0  0  0  0  0  0  0  0  0
    5.6010    1.1580   -0.1670 C   0  0  0  0  0  0  0  0  0  0  0  0
    3.2450    0.6650    0.5730 C   0  0  1  0  0  0  0  0  0  0  0  0
    2.9340    1.9030   -0.2140 C   0  0  0  0  0  0  0  0  0  0  0  0
    3.4650    0.9700    1.9230 O   0  0  0  0  0  0  0  0  0  0  0  0
    0.2440    0.9160    0.2830 C   0  0  0  0  0  0  0  0  0  0  0  0
  1  2  1  0
  2  3  2  3
  3  4  1  0
  3  5  1  0
  5  6  1  0
  6  7  1  6
  6  8  1  0
  8  9  2  0
  8 31  1  0
  9 10  1  0
 10 11  1  0
 10 18  2  0
 11 12  1  0
 12 13  1  1
 12 14  1  0
 12 15  1  0
 15 16  1  0
 16 17  1  0
 18 19  1  0
 19 20  1  0
 19 31  2  0
 20 21  1  1
 20 22  1  0
 20 28  1  0
 22 23  1  0
 23 24  1  6
 23 25  1  0
 25 26  1  1
 25 27  1  0
 25 28  1  0
 28 29  1  6
 28 30  1  0
M  END
