
     RDKit          3D

 31 34  0  0  0  0  0  0  0  0999 V2000
    0.7370    4.9690    0.8210 C   0  0  0  0  0  0  0  0  0  0  0  0
   -0.2720    4.2580    1.6850 C   0  0  0  0  0  0  0  0  0  0  0  0
   -1.4800    3.8210    0.9990 C   0  0  0  0  0  0  0  0  0  0  0  0
   -2.6180    4.6220    1.1230 C   0  0  0  0  0  0  0  0  0  0  0  0
   -3.8010    4.3090    0.4910 C   0  0  0  0  0  0  0  0  0  0  0  0
   -3.9080    3.2170   -0.2720 N   0  0  0  0  0  0  0  0  0  0  0  0
   -2.8070    2.4310   -0.3980 C   0  0  0  0  0  0  0  0  0  0  0  0
   -3.0130    1.4210   -1.1530 O   0  0  0  0  0  0  0  0  0  0  0  0
   -1.6030    2.6880    0.2040 C   0  0  0  0  0  0  0  0  0  0  0  0
   -0.5000    1.8310   -0.0130 N   0  0  0  0  0  0  0  0  0  0  0  0
   -0.4940    0.4780   -0.3550 C   0  0  0  0  0  0  0  0  0  0  0  0
   -1.5330   -0.3620   -0.4470 N   0  0  0  0  0  0  0  0  0  0  0  0
   -1.4280   -1.6620   -0.7440 C   0  0  0  0  0  0  0  0  0  0  0  0
   -2.5090   -2.5750   -0.7630 N   0  0  0  0  0  0  0  0  0  0  0  0
   -2.4560   -4.0570   -0.7120 C   0  0  0  0  0  0  0  0  0  0  0  0
   -3.5740   -4.2630    0.3290 C   0  0  0  0  0  0  0  0  0  0  0  0
   -4.5510   -3.3170   -0.1510 N   0  0  0  0  0  0  0  0  0  0  0  0
   -5.8560   -3.0360   -0.2090 C   0  0  0  0  0  0  0  0  0  0  0  0
   -6.0860   -1.8750   -0.9100 C   0  0  0  0  0  0  0  0  0  0  0  0
   -4.8370   -1.4140   -1.3040 C   0  0  0  0  0  0  0  0  0  0  0  0
   -3.9120   -2.3330   -0.8150 C   0  0  0  0  0  0  0  0  0  0  0  0
   -0.1840   -2.1820   -0.9780 N   0  0  0  0  0  0  0  0  0  0  0  0
    0.8910   -1.4170   -0.9050 N   0  0  0  0  0  0  0  0  0  0  0  0
    0.7580   -0.1260   -0.6030 C   0  0  0  0  0  0  0  0  0  0  0  0
    1.9730    0.6710   -0.3690 C   0  0  0  0  0  0  0  0  0  0  0  0
    3.1600   -0.0590   -0.7200 N   0  0  0  0  0  0  0  0  0  0  0  0
    3.5390   -1.0520    0.2310 C   0  0  0  0  0  0  0  0  0  0  0  0
    5.0160   -1.3480    0.1600 C   0  0  2  0  0  0  0  0  0  0  0  0
    5.4150   -1.7480   -1.2340 C   0  0  0  0  0  0  0  0  0  0  0  0
    5.1870   -2.6200    1.0550 C   0  0  0  0  0  0  0  0  0  0  0  0
    5.8280   -0.2870    0.6820 N   0  0  0  0  0  0  0  0  0  0  0  0
  1  2  1  0
  2  3  1  0
  3  4  1  0
  3  9  2  0
  4  5  2  0
  5  6  1  0
  6  7  1  0
  7  8  2  0
  7  9  1  0
  9 10  1  0
 10 11  1  0
 11 12  2  0
 11 24  1  0
 12 13  1  0
 13 14  1  0
 13 22  2  0
 14 15  1  0
 14 21  1  0
 15 16  1  0
 16 17  1  0
 17 18  1  0
 17 21  1  0
 18 19  2  0
 19 20  1  0
 20 21  2  0
 22 23  1  0
 23 24  2  0
 24 25  1  0
 25 26  1  0
 26 27  1  0
 27 28  1  0
 28 29  1  6
 28 30  1  0
 28 31  1  0
M  CHG  1  31   1
M  END
