
     RDKit          3D

 29 32  0  0  0  0  0  0  0  0999 V2000
    8.6850    0.2260   -1.1120 O   0  0  0  0  0  0  0  0  0  0  0  0
    8.2020    0.5930   -0.0160 C   0  0  0  0  0  0  0  0  0  0  0  0
    9.1040    0.9720    0.9720 O   0  0  0  0  0  0  0  0  0  0  0  0
    6.7760    0.6130    0.1890 C   0  0  0  0  0  0  0  0  0  0  0  0
    5.9240    0.2330   -0.8080 C   0  0  0  0  0  0  0  0  0  0  0  0
    4.5340    0.2370   -0.6520 C   0  0  0  0  0  0  0  0  0  0  0  0
    3.9770    0.6330    0.5360 C   0  0  0  0  0  0  0  0  0  0  0  0
    2.5980    0.6630    0.8390 N   0  0  0  0  0  0  0  0  0  0  0  0
    1.6370   -0.0840    0.1280 C   0  0  0  0  0  0  0  0  0  0  0  0
    1.9810   -0.8860   -0.8750 N   0  0  0  0  0  0  0  0  0  0  0  0
    1.0920   -1.6020   -1.5630 C   0  0  0  0  0  0  0  0  0  0  0  0
   -0.2420   -1.5310   -1.2480 C   0  0  0  0  0  0  0  0  0  0  0  0
   -0.6550   -0.7210   -0.2200 C   0  0  0  0  0  0  0  0  0  0  0  0
   -1.9910   -0.6110    0.2500 N   0  0  0  0  0  0  0  0  0  0  0  0
   -3.0930   -1.4110   -0.0180 C   0  0  0  0  0  0  0  0  0  0  0  0
   -2.9930   -2.7470   -0.3550 C   0  0  0  0  0  0  0  0  0  0  0  0
   -4.1440   -3.4890   -0.5200 C   0  0  0  0  0  0  0  0  0  0  0  0
   -5.3830   -2.9210   -0.3520 C   0  0  0  0  0  0  0  0  0  0  0  0
   -5.4670   -1.5870   -0.0140 C   0  0  0  0  0  0  0  0  0  0  0  0
   -4.3480   -0.8120    0.1580 C   0  0  0  0  0  0  0  0  0  0  0  0
   -4.4970    0.5970    0.4960 C   0  0  0  0  0  0  0  0  0  0  0  0
   -3.7980    1.5420   -0.2190 C   0  0  0  0  0  0  0  0  0  0  0  0
   -3.9130    2.9020    0.0730 C   0  0  0  0  0  0  0  0  0  0  0  0
   -4.7310    3.3490    1.0890 C   0  0  0  0  0  0  0  0  0  0  0  0
   -5.4310    2.4030    1.8050 C   0  0  0  0  0  0  0  0  0  0  0  0
   -5.3120    1.0630    1.5110 C   0  0  0  0  0  0  0  0  0  0  0  0
    0.3270   -0.0210    0.4320 N   0  0  0  0  0  0  0  0  0  0  0  0
    4.8490    1.0280    1.5730 C   0  0  0  0  0  0  0  0  0  0  0  0
    6.2070    1.0080    1.3740 C   0  0  0  0  0  0  0  0  0  0  0  0
  1  2  2  0
  2  3  1  0
  2  4  1  0
  4  5  2  0
  4 29  1  0
  5  6  1  0
  6  7  2  0
  7  8  1  0
  7 28  1  0
  8  9  1  0
  9 10  2  0
  9 27  1  0
 10 11  1  0
 11 12  2  0
 12 13  1  0
 13 14  1  0
 13 27  2  0
 14 15  1  0
 15 16  2  0
 15 20  1  0
 16 17  1  0
 17 18  2  0
 18 19  1  0
 19 20  2  0
 20 21  1  0
 21 22  2  0
 21 26  1  0
 22 23  1  0
 23 24  2  0
 24 25  1  0
 25 26  2  0
 28 29  2  0
M  END
