
     RDKit          3D

  8  7  0  0  0  0  0  0  0  0999 V2000
    3.6340   -0.0960   -0.4560 C   0  0  0  0  0  0  0  0  0  0  0  0
    2.4150   -0.6030    0.3120 C   0  0  0  0  0  0  0  0  0  0  0  0
    1.3290    0.1890   -0.1340 O   0  0  0  0  0  0  0  0  0  0  0  0
    0.0500    0.0030    0.3570 C   0  0  0  0  0  0  0  0  0  0  0  0
   -0.1120   -0.9000    1.2190 O   0  0  0  0  0  0  0  0  0  0  0  0
   -1.0990    0.8500   -0.1230 C   0  0  0  0  0  0  0  0  0  0  0  0
   -2.2960    0.4480    0.5430 N   0  0  0  0  0  0  0  0  0  0  0  0
   -3.1840   -0.2760   -0.3410 C   0  0  0  0  0  0  0  0  0  0  0  0
  1  2  1  0
  2  3  1  0
  3  4  1  0
  4  5  2  0
  4  6  1  0
  6  7  1  0
  7  8  1  0
M  CHG  1   7   1
M  END
