
     RDKit          3D

 27 29  0  0  0  0  0  0  0  0999 V2000
   -7.1500   -2.0910    1.0580 O   0  0  0  0  0  0  0  0  0  0  0  0
   -5.9270   -2.3270    0.8970 C   0  0  0  0  0  0  0  0  0  0  0  0
   -5.4990   -3.6270    0.7820 O   0  0  0  0  0  0  0  0  0  0  0  0
   -5.0020   -1.2020    0.8370 C   0  0  0  0  0  0  0  0  0  0  0  0
   -3.6470   -1.3660    0.6620 C   0  0  0  0  0  0  0  0  0  0  0  0
   -2.7450   -0.3130    0.6010 C   0  0  0  0  0  0  0  0  0  0  0  0
   -3.1930    0.9780    0.7180 C   0  0  0  0  0  0  0  0  0  0  0  0
   -2.3890    2.1360    0.6740 N   0  0  0  0  0  0  0  0  0  0  0  0
   -0.9810    2.1800    0.4980 C   0  0  0  0  0  0  0  0  0  0  0  0
   -0.3940    3.4140    0.4850 N   0  0  0  0  0  0  0  0  0  0  0  0
    0.9220    3.5670    0.3260 C   0  0  0  0  0  0  0  0  0  0  0  0
    1.7610    2.4530    0.1640 C   0  0  0  0  0  0  0  0  0  0  0  0
    1.1860    1.2120    0.1720 C   0  0  0  0  0  0  0  0  0  0  0  0
    1.9110    0.0240   -0.0570 N   0  0  0  0  0  0  0  0  0  0  0  0
    3.2110   -0.1030   -0.5900 C   0  0  0  0  0  0  0  0  0  0  0  0
    3.7900    0.8240   -1.4290 C   0  0  0  0  0  0  0  0  0  0  0  0
    5.0570    0.6480   -1.9890 C   0  0  0  0  0  0  0  0  0  0  0  0
    5.7650   -0.4970   -1.7010 C   0  0  0  0  0  0  0  0  0  0  0  0
    5.2190   -1.4470   -0.8690 C   0  0  0  0  0  0  0  0  0  0  0  0
    3.9750   -1.2480   -0.3330 C   0  0  0  0  0  0  0  0  0  0  0  0
    3.3850   -2.2960    0.5410 C   0  0  2  0  0  0  0  0  0  0  0  0
    2.2610   -2.8190   -0.0510 F   0  0  0  0  0  0  0  0  0  0  0  0
    3.0300   -1.7530    1.7600 F   0  0  0  0  0  0  0  0  0  0  0  0
    4.2860   -3.3120    0.7660 F   0  0  0  0  0  0  0  0  0  0  0  0
   -0.1740    1.1470    0.3420 N   0  0  0  0  0  0  0  0  0  0  0  0
   -4.5730    1.1470    0.8960 C   0  0  0  0  0  0  0  0  0  0  0  0
   -5.4560    0.0920    0.9540 C   0  0  0  0  0  0  0  0  0  0  0  0
  1  2  2  0
  2  3  1  0
  2  4  1  0
  4  5  2  0
  4 27  1  0
  5  6  1  0
  6  7  2  0
  7  8  1  0
  7 26  1  0
  8  9  1  0
  9 10  2  0
  9 25  1  0
 10 11  1  0
 11 12  2  0
 12 13  1  0
 13 14  1  0
 13 25  2  0
 14 15  1  0
 15 16  2  0
 15 20  1  0
 16 17  1  0
 17 18  2  0
 18 19  1  0
 19 20  2  0
 20 21  1  0
 21 22  1  6
 21 23  1  0
 21 24  1  0
 26 27  2  0
M  END
