
     RDKit          3D

  8  7  0  0  0  0  0  0  0  0999 V2000
    1.1310   -1.4430   -0.6320 C   0  0  0  0  0  0  0  0  0  0  0  0
    0.2450   -0.3830   -0.2680 N   0  0  0  0  0  0  0  0  0  0  0  0
    0.8400    0.5170    0.6320 C   0  0  0  0  0  0  0  0  0  0  0  0
    1.9220    1.3010   -0.0570 C   0  0  0  0  0  0  0  0  0  0  0  0
    2.5750    2.1140    0.5560 O   0  0  0  0  0  0  0  0  0  0  0  0
   -1.0950   -0.7830   -0.1030 C   0  0  0  0  0  0  0  0  0  0  0  0
   -2.0480    0.3130    0.2760 C   0  0  0  0  0  0  0  0  0  0  0  0
   -2.0530    1.3080   -0.7140 O   0  0  0  0  0  0  0  0  0  0  0  0
  1  2  1  0
  2  3  1  0
  2  6  1  0
  3  4  1  0
  4  5  2  0
  6  7  1  0
  7  8  1  0
M  END
