
     RDKit          3D

 28 30  0  0  0  0  0  0  0  0999 V2000
    3.1920   -1.8450   -0.5710 O   0  0  0  0  0  0  0  0  0  0  0  0
    3.3260   -0.6670   -0.2360 C   0  0  0  0  0  0  0  0  0  0  0  0
    4.6620   -0.1300   -0.2230 N   0  0  0  0  0  0  0  0  0  0  0  0
    5.8050   -0.9370   -0.5870 C   0  0  0  0  0  0  0  0  0  0  0  0
    7.0670   -0.1940   -0.5040 C   0  0  0  0  0  0  0  0  0  0  0  0
    7.6500    0.5320   -1.5150 C   0  0  0  0  0  0  0  0  0  0  0  0
    8.8120    1.0540   -0.9960 C   0  0  0  0  0  0  0  0  0  0  0  0
    8.8930    0.6290    0.3100 C   0  0  0  0  0  0  0  0  0  0  0  0
    7.8470   -0.1070    0.5690 O   0  0  0  0  0  0  0  0  0  0  0  0
    2.2070    0.1170    0.1190 N   0  0  0  0  0  0  0  0  0  0  0  0
    0.8620   -0.2760    0.1490 C   0  0  0  0  0  0  0  0  0  0  0  0
    0.4290   -1.5270   -0.1750 C   0  0  0  0  0  0  0  0  0  0  0  0
   -0.9360   -1.8340   -0.1180 C   0  0  0  0  0  0  0  0  0  0  0  0
   -1.8330   -0.8720    0.2650 C   0  0  0  0  0  0  0  0  0  0  0  0
   -3.2080   -1.2130    0.3470 N   0  0  0  0  0  0  0  0  0  0  0  0
   -4.3020   -0.3330    0.1990 C   0  0  0  0  0  0  0  0  0  0  0  0
   -4.1760    0.8200   -0.5400 C   0  0  0  0  0  0  0  0  0  0  0  0
   -5.1990    1.6970   -0.6790 N   0  0  0  0  0  0  0  0  0  0  0  0
   -6.4070    1.4630   -0.0840 C   0  0  0  0  0  0  0  0  0  0  0  0
   -6.5690    0.3220    0.6600 C   0  0  0  0  0  0  0  0  0  0  0  0
   -7.7400    0.0140    1.2850 O   0  0  0  0  0  0  0  0  0  0  0  0
   -8.9420    0.7080    1.3230 C   0  0  1  0  0  0  0  0  0  0  0  0
   -9.9950   -0.0720    0.8190 F   0  0  0  0  0  0  0  0  0  0  0  0
   -9.3400    1.0050    2.6280 F   0  0  0  0  0  0  0  0  0  0  0  0
   -5.5160   -0.5950    0.8120 C   0  0  0  0  0  0  0  0  0  0  0  0
   -1.4010    0.4060    0.5990 C   0  0  0  0  0  0  0  0  0  0  0  0
   -0.0680    0.6900    0.5370 C   0  0  0  0  0  0  0  0  0  0  0  0
    0.3210    1.9580    0.8710 F   0  0  0  0  0  0  0  0  0  0  0  0
  1  2  2  0
  2  3  1  0
  2 10  1  0
  3  4  1  0
  4  5  1  0
  5  6  2  0
  5  9  1  0
  6  7  1  0
  7  8  2  0
  8  9  1  0
 10 11  1  0
 11 12  2  0
 11 27  1  0
 12 13  1  0
 13 14  2  0
 14 15  1  0
 14 26  1  0
 15 16  1  0
 16 17  2  0
 16 25  1  0
 17 18  1  0
 18 19  2  0
 19 20  1  0
 20 21  1  0
 20 25  2  0
 21 22  1  0
 22 23  1  1
 22 24  1  0
 26 27  2  0
 27 28  1  0
M  END
