
     RDKit          3D

 27 29  0  0  0  0  0  0  0  0999 V2000
   -7.6950   -1.6370    1.0110 C   0  0  0  0  0  0  0  0  0  0  0  0
   -6.6780   -1.5330    0.0600 O   0  0  0  0  0  0  0  0  0  0  0  0
   -5.3700   -1.1780    0.3600 C   0  0  0  0  0  0  0  0  0  0  0  0
   -4.9930   -0.9000    1.6550 C   0  0  0  0  0  0  0  0  0  0  0  0
   -3.6940   -0.5500    1.9410 C   0  0  0  0  0  0  0  0  0  0  0  0
   -2.7060   -0.4590    0.9510 C   0  0  0  0  0  0  0  0  0  0  0  0
   -1.3930   -0.0930    1.3200 N   0  0  0  0  0  0  0  0  0  0  0  0
   -0.2750    0.0500    0.4870 C   0  0  0  0  0  0  0  0  0  0  0  0
   -0.3840   -0.1570   -0.7370 O   0  0  0  0  0  0  0  0  0  0  0  0
    1.0490    0.4420    1.0100 C   0  0  0  0  0  0  0  0  0  0  0  0
    2.2250    0.6180    0.3100 C   0  0  0  0  0  0  0  0  0  0  0  0
    3.2140    0.9820    1.1920 C   0  0  0  0  0  0  0  0  0  0  0  0
    4.5830    1.2580    1.0160 N   0  0  0  0  0  0  0  0  0  0  0  0
    5.4100    1.2540   -0.1090 C   0  0  0  0  0  0  0  0  0  0  0  0
    5.0840    0.6630   -1.2950 C   0  0  0  0  0  0  0  0  0  0  0  0
    5.9730    0.6620   -2.3570 C   0  0  0  0  0  0  0  0  0  0  0  0
    7.1930    1.2620   -2.2050 C   0  0  0  0  0  0  0  0  0  0  0  0
    8.0410    1.2360   -3.2860 F   0  0  0  0  0  0  0  0  0  0  0  0
    7.5370    1.8590   -1.0210 C   0  0  0  0  0  0  0  0  0  0  0  0
    6.6750    1.8730    0.0400 C   0  0  0  0  0  0  0  0  0  0  0  0
    7.0160    2.4740    1.2280 F   0  0  0  0  0  0  0  0  0  0  0  0
    2.5940    1.0150    2.4120 N   0  0  0  0  0  0  0  0  0  0  0  0
    1.3360    0.6970    2.2780 N   0  0  0  0  0  0  0  0  0  0  0  0
   -3.1290   -0.7430   -0.3160 C   0  0  0  0  0  0  0  0  0  0  0  0
   -4.4330   -1.1010   -0.6400 C   0  0  0  0  0  0  0  0  0  0  0  0
   -4.8030   -1.3790   -1.9520 O   0  0  0  0  0  0  0  0  0  0  0  0
   -3.8090   -1.2900   -2.9620 C   0  0  0  0  0  0  0  0  0  0  0  0
  1  2  1  0
  2  3  1  0
  3  4  2  0
  3 25  1  0
  4  5  1  0
  5  6  2  0
  6  7  1  0
  6 24  1  0
  7  8  1  0
  8  9  2  0
  8 10  1  0
 10 11  1  0
 10 23  2  0
 11 12  2  0
 12 13  1  0
 12 22  1  0
 13 14  1  0
 14 15  2  0
 14 20  1  0
 15 16  1  0
 16 17  2  0
 17 18  1  0
 17 19  1  0
 19 20  2  0
 20 21  1  0
 22 23  1  0
 24 25  2  0
 25 26  1  0
 26 27  1  0
M  END
