
     RDKit          3D

 28 30  0  0  0  0  0  0  0  0999 V2000
    2.2570   -0.6220   -0.7040 O   0  0  0  0  0  0  0  0  0  0  0  0
    2.1770    0.6170   -0.5900 C   0  0  0  0  0  0  0  0  0  0  0  0
    3.4060    1.3310   -0.7680 N   0  0  0  0  0  0  0  0  0  0  0  0
    4.6640    0.6930   -1.0590 C   0  0  0  0  0  0  0  0  0  0  0  0
    5.0910   -0.2640   -0.0050 C   0  0  0  0  0  0  0  0  0  0  0  0
    5.6990    0.0130    1.1720 N   0  0  0  0  0  0  0  0  0  0  0  0
    5.9390   -1.1040    1.8700 C   0  0  0  0  0  0  0  0  0  0  0  0
    5.4680   -2.1430    1.1140 C   0  0  0  0  0  0  0  0  0  0  0  0
    4.9540   -1.6010   -0.0290 N   0  0  0  0  0  0  0  0  0  0  0  0
    0.9630    1.2870   -0.3050 N   0  0  0  0  0  0  0  0  0  0  0  0
   -0.2830    0.6480   -0.1180 C   0  0  0  0  0  0  0  0  0  0  0  0
   -0.4840   -0.7010   -0.1880 C   0  0  0  0  0  0  0  0  0  0  0  0
   -1.7490   -1.2790    0.0070 C   0  0  0  0  0  0  0  0  0  0  0  0
   -1.8990   -2.6540   -0.0740 O   0  0  0  0  0  0  0  0  0  0  0  0
   -3.1600   -3.1850    0.1240 C   0  0  0  0  0  0  0  0  0  0  0  0
   -3.7490   -3.5350    1.2620 C   0  0  0  0  0  0  0  0  0  0  0  0
   -5.0770   -4.0400    0.9260 C   0  0  0  0  0  0  0  0  0  0  0  0
   -5.1180   -4.0290   -0.3960 C   0  0  0  0  0  0  0  0  0  0  0  0
   -4.0880   -3.4540   -0.9680 C   0  0  0  0  0  0  0  0  0  0  0  0
   -2.8060   -0.4560    0.2750 C   0  0  0  0  0  0  0  0  0  0  0  0
   -2.5860    0.9050    0.3420 C   0  0  0  0  0  0  0  0  0  0  0  0
   -1.3720    1.5180    0.1590 C   0  0  0  0  0  0  0  0  0  0  0  0
   -1.1810    2.8440    0.2310 O   0  0  0  0  0  0  0  0  0  0  0  0
   -1.8260    3.9990    0.4340 C   0  0  0  0  0  0  0  0  0  0  0  0
   -2.8830    4.4520   -0.5150 C   0  0  2  0  0  0  0  0  0  0  0  0
   -2.3910    4.6040   -1.8010 F   0  0  0  0  0  0  0  0  0  0  0  0
   -3.2060    5.7700   -0.1150 F   0  0  0  0  0  0  0  0  0  0  0  0
   -4.0310    3.7560   -0.4760 F   0  0  0  0  0  0  0  0  0  0  0  0
  1  2  2  0
  2  3  1  0
  2 10  1  0
  3  4  1  0
  4  5  1  0
  5  6  2  0
  5  9  1  0
  6  7  1  0
  7  8  2  0
  8  9  1  0
 10 11  1  0
 11 12  2  0
 11 22  1  0
 12 13  1  0
 13 14  1  0
 13 20  2  0
 14 15  1  0
 15 16  2  0
 15 19  1  0
 16 17  1  0
 17 18  2  0
 18 19  2  0
 20 21  1  0
 21 22  2  0
 22 23  1  0
 23 24  1  0
 24 25  1  0
 25 26  1  6
 25 27  1  0
 25 28  1  0
M  END
