
     RDKit          3D

 28 30  0  0  0  0  0  0  0  0999 V2000
   -5.4230   -0.9390    2.5830 C   0  0  0  0  0  0  0  0  0  0  0  0
   -5.9590    0.1420    1.8170 O   0  0  0  0  0  0  0  0  0  0  0  0
   -5.1100    0.7850    0.9120 C   0  0  0  0  0  0  0  0  0  0  0  0
   -3.7920    0.3930    0.7570 C   0  0  0  0  0  0  0  0  0  0  0  0
   -2.9360    1.0110   -0.1290 C   0  0  0  0  0  0  0  0  0  0  0  0
   -1.6190    0.5990   -0.2660 O   0  0  0  0  0  0  0  0  0  0  0  0
   -1.3000   -0.3770   -1.1930 C   0  0  0  0  0  0  0  0  0  0  0  0
   -2.2910   -0.9270   -1.9690 C   0  0  0  0  0  0  0  0  0  0  0  0
   -1.9950   -1.8930   -2.8910 C   0  0  0  0  0  0  0  0  0  0  0  0
   -3.0220   -2.4050   -3.6350 F   0  0  0  0  0  0  0  0  0  0  0  0
   -0.7110   -2.2990   -3.0280 C   0  0  0  0  0  0  0  0  0  0  0  0
    0.2900   -1.7280   -2.2290 C   0  0  0  0  0  0  0  0  0  0  0  0
    0.0440   -0.7670   -1.3010 C   0  0  0  0  0  0  0  0  0  0  0  0
    0.9850   -0.1420   -0.4600 N   0  0  0  0  0  0  0  0  0  0  0  0
    2.3650   -0.4000   -0.4260 C   0  0  0  0  0  0  0  0  0  0  0  0
    2.8570   -1.2570   -1.1950 O   0  0  0  0  0  0  0  0  0  0  0  0
    3.1820    0.3260    0.4920 N   0  0  0  0  0  0  0  0  0  0  0  0
    4.5790    0.0880    0.5510 C   0  0  0  0  0  0  0  0  0  0  0  0
    5.4180    0.7810    1.4390 C   0  0  0  0  0  0  0  0  0  0  0  0
    6.6900    0.3220    1.2450 C   0  0  0  0  0  0  0  0  0  0  0  0
    7.8880    0.8100    2.0020 C   0  0  0  0  0  0  0  0  0  0  0  0
    8.3900    1.8770    1.2670 F   0  0  0  0  0  0  0  0  0  0  0  0
    6.6370   -0.6010    0.2910 N   0  0  0  0  0  0  0  0  0  0  0  0
    5.3730   -0.7480   -0.1310 N   0  0  0  0  0  0  0  0  0  0  0  0
   -3.4480    2.0630   -0.8760 C   0  0  0  0  0  0  0  0  0  0  0  0
   -4.7630    2.4490   -0.7170 C   0  0  0  0  0  0  0  0  0  0  0  0
   -5.6190    1.8310    0.1690 C   0  0  0  0  0  0  0  0  0  0  0  0
   -6.9120    2.2020    0.3330 F   0  0  0  0  0  0  0  0  0  0  0  0
  1  2  1  0
  2  3  1  0
  3  4  2  0
  3 27  1  0
  4  5  1  0
  5  6  1  0
  5 25  2  0
  6  7  1  0
  7  8  2  0
  7 13  1  0
  8  9  1  0
  9 10  1  0
  9 11  2  0
 11 12  1  0
 12 13  2  0
 13 14  1  0
 14 15  1  0
 15 16  2  0
 15 17  1  0
 17 18  1  0
 18 19  2  0
 18 24  1  0
 19 20  1  0
 20 21  1  0
 20 23  2  0
 21 22  1  0
 23 24  1  0
 25 26  1  0
 26 27  2  0
 27 28  1  0
M  END
