
     RDKit          3D

 28 30  0  0  0  0  0  0  0  0999 V2000
    8.0870   -0.6810   -0.0840 O   0  0  0  0  0  0  0  0  0  0  0  0
    7.4290    0.0200    0.7270 C   0  0  0  0  0  0  0  0  0  0  0  0
    8.1000    0.7340    1.6810 O   0  0  0  0  0  0  0  0  0  0  0  0
    5.9750    0.0490    0.6220 C   0  0  0  0  0  0  0  0  0  0  0  0
    5.2130    0.8040    1.4900 C   0  0  0  0  0  0  0  0  0  0  0  0
    3.8400    0.8210    1.3770 C   0  0  0  0  0  0  0  0  0  0  0  0
    3.1640    0.0830    0.3930 C   0  0  0  0  0  0  0  0  0  0  0  0
    1.7690    0.1550    0.3480 N   0  0  0  0  0  0  0  0  0  0  0  0
    0.8930   -0.5110   -0.5670 C   0  0  0  0  0  0  0  0  0  0  0  0
    1.3020   -1.3200   -1.5370 N   0  0  0  0  0  0  0  0  0  0  0  0
    0.4420   -1.9140   -2.3600 C   0  0  0  0  0  0  0  0  0  0  0  0
   -0.9090   -1.7130   -2.2400 C   0  0  0  0  0  0  0  0  0  0  0  0
   -1.3620   -0.8570   -1.2170 C   0  0  0  0  0  0  0  0  0  0  0  0
   -2.7340   -0.6310   -1.0670 N   0  0  0  0  0  0  0  0  0  0  0  0
   -3.3370    0.1780   -0.1170 C   0  0  0  0  0  0  0  0  0  0  0  0
   -2.6700    0.8880    0.8330 C   0  0  0  0  0  0  0  0  0  0  0  0
   -3.3560    1.6880    1.7630 C   0  0  0  0  0  0  0  0  0  0  0  0
   -4.7210    1.7760    1.7410 C   0  0  0  0  0  0  0  0  0  0  0  0
   -5.3740    1.0530    0.7770 C   0  0  0  0  0  0  0  0  0  0  0  0
   -4.7360    0.2690   -0.1380 C   0  0  0  0  0  0  0  0  0  0  0  0
   -5.4470   -0.4260   -1.0740 O   0  0  0  0  0  0  0  0  0  0  0  0
   -6.8420   -0.3810   -1.1530 C   0  0  2  0  0  0  0  0  0  0  0  0
   -7.2260   -1.2010   -2.2120 F   0  0  0  0  0  0  0  0  0  0  0  0
   -7.2490    0.9090   -1.4210 F   0  0  0  0  0  0  0  0  0  0  0  0
   -7.4400   -0.7980    0.0200 F   0  0  0  0  0  0  0  0  0  0  0  0
   -0.4300   -0.3180   -0.4550 N   0  0  0  0  0  0  0  0  0  0  0  0
    3.9110   -0.6550   -0.4540 C   0  0  0  0  0  0  0  0  0  0  0  0
    5.3120   -0.6720   -0.3400 C   0  0  0  0  0  0  0  0  0  0  0  0
  1  2  2  0
  2  3  1  0
  2  4  1  0
  4  5  2  0
  4 28  1  0
  5  6  1  0
  6  7  2  0
  7  8  1  0
  7 27  1  0
  8  9  1  0
  9 10  2  0
  9 26  1  0
 10 11  1  0
 11 12  2  0
 12 13  1  0
 13 14  1  0
 13 26  2  0
 14 15  1  0
 15 16  2  0
 15 20  1  0
 16 17  1  0
 17 18  2  0
 18 19  1  0
 19 20  2  0
 20 21  1  0
 21 22  1  0
 22 23  1  6
 22 24  1  0
 22 25  1  0
 27 28  2  0
M  END
