
     RDKit          3D

 28 30  0  0  0  0  0  0  0  0999 V2000
   -7.3590    2.5910   -1.1460 C   0  0  0  0  0  0  0  0  0  0  0  0
   -6.0530    1.9040   -0.8440 C   0  0  0  0  0  0  0  0  0  0  0  0
   -4.9670    2.4810   -1.3450 F   0  0  0  0  0  0  0  0  0  0  0  0
   -6.0840    0.8320   -0.1360 C   0  0  0  0  0  0  0  0  0  0  0  0
   -4.9410    0.0080    0.2750 C   0  0  0  0  0  0  0  0  0  0  0  0
   -5.2240   -1.0580    1.0070 C   0  0  0  0  0  0  0  0  0  0  0  0
   -6.6410   -1.3860    1.3830 C   0  0  2  0  0  0  0  0  0  0  0  0
   -6.6590   -2.4700    2.2650 F   0  0  0  0  0  0  0  0  0  0  0  0
   -7.3130   -1.7680    0.2670 F   0  0  0  0  0  0  0  0  0  0  0  0
   -3.6440    0.3600   -0.1030 N   0  0  0  0  0  0  0  0  0  0  0  0
   -2.4700   -0.3940    0.2590 C   0  0  0  0  0  0  0  0  0  0  0  0
   -2.5510   -1.4150    0.9380 O   0  0  0  0  0  0  0  0  0  0  0  0
   -1.2300    0.0780   -0.1910 N   0  0  0  0  0  0  0  0  0  0  0  0
    0.0080   -0.5450    0.0920 C   0  0  0  0  0  0  0  0  0  0  0  0
    0.2100   -1.5180    1.0340 C   0  0  0  0  0  0  0  0  0  0  0  0
    1.4830   -2.0830    1.2200 C   0  0  0  0  0  0  0  0  0  0  0  0
    2.5720   -1.6890    0.4740 C   0  0  0  0  0  0  0  0  0  0  0  0
    3.8710   -2.0300    0.4200 N   0  0  0  0  0  0  0  0  0  0  0  0
    4.5190   -1.3160   -0.5190 C   0  0  0  0  0  0  0  0  0  0  0  0
    5.9750   -1.4210   -0.8720 C   0  0  0  0  0  0  0  0  0  0  0  0
    6.7010   -0.7020    0.0540 O   0  0  0  0  0  0  0  0  0  0  0  0
    6.3720    0.6320    0.0920 C   0  0  1  0  0  0  0  0  0  0  0  0
    6.2060    1.2150    1.4810 C   0  0  0  0  0  0  0  0  0  0  0  0
    6.8990    2.3450    1.0510 O   0  0  0  0  0  0  0  0  0  0  0  0
    7.6070    1.5140    0.1850 C   0  0  0  0  0  0  0  0  0  0  0  0
    3.5990   -0.5080   -1.0670 N   0  0  0  0  0  0  0  0  0  0  0  0
    2.3830   -0.7110   -0.4770 C   0  0  0  0  0  0  0  0  0  0  0  0
    1.1420   -0.1650   -0.6550 C   0  0  0  0  0  0  0  0  0  0  0  0
  1  2  1  0
  2  3  1  0
  2  4  2  3
  4  5  1  0
  5  6  2  3
  5 10  1  0
  6  7  1  0
  7  8  1  1
  7  9  1  0
 10 11  1  0
 11 12  2  0
 11 13  1  0
 13 14  1  0
 14 15  2  0
 14 28  1  0
 15 16  1  0
 16 17  2  0
 17 18  1  0
 17 27  1  0
 18 19  2  0
 19 20  1  0
 19 26  1  0
 20 21  1  0
 22 21  1  1
 22 23  1  0
 22 25  1  0
 23 24  1  0
 24 25  1  0
 26 27  1  0
 27 28  2  0
M  END
