
     RDKit          3D

 34 34  0  0  0  0  0  0  0  0999 V2000
    1.5720   -4.7910    1.8400 C   0  0  0  0  0  0  0  0  0  0  0  0
    0.8260   -3.7790    0.9760 C   0  0  0  0  0  0  0  0  0  0  0  0
    0.2220   -2.6940    1.8230 C   0  0  0  0  0  0  0  0  0  0  0  0
   -0.5510   -1.6770    1.0230 C   0  0  1  0  0  0  0  0  0  0  0  0
   -1.1250   -0.6370    1.9230 C   0  0  0  0  0  0  0  0  0  0  0  0
   -0.4460   -0.3720    2.9790 O   0  0  0  0  0  0  0  0  0  0  0  0
   -2.3250    0.0460    1.6930 N   0  0  0  0  0  0  0  0  0  0  0  0
   -2.3530    1.4920    1.9600 C   0  0  0  0  0  0  0  0  0  0  0  0
   -3.5560   -0.5500    1.2210 C   0  0  0  0  0  0  0  0  0  0  0  0
   -4.7160    0.5750    0.4100 P   0  0  0  0  0  0  0  0  0  0  0  0
   -4.6190    2.2230    0.8100 O   0  0  0  0  0  0  0  0  0  0  0  0
   -5.7990    2.8590    0.4200 C   0  0  0  0  0  0  0  0  0  0  0  0
   -5.7800    4.3340    0.7460 C   0  0  0  0  0  0  0  0  0  0  0  0
   -4.9930    0.2710   -1.2540 O   0  0  0  0  0  0  0  0  0  0  0  0
   -3.8470   -0.1650   -1.9200 C   0  0  0  0  0  0  0  0  0  0  0  0
   -2.8160    0.8970   -2.0590 C   0  0  0  0  0  0  0  0  0  0  0  0
   -1.3950    0.4510   -1.8070 C   0  0  0  0  0  0  0  0  0  0  0  0
   -1.0920   -0.9060   -2.3220 C   0  0  0  0  0  0  0  0  0  0  0  0
   -0.2600   -1.7880   -1.4400 C   0  0  1  0  0  0  0  0  0  0  0  0
    0.8970   -2.2590   -2.2210 C   0  0  0  0  0  0  0  0  0  0  0  0
    0.5750   -2.8440   -3.3200 O   0  0  0  0  0  0  0  0  0  0  0  0
    2.2190   -2.1630   -1.9530 O   0  0  0  0  0  0  0  0  0  0  0  0
    3.1600   -2.6930   -2.8610 C   0  0  0  0  0  0  0  0  0  0  0  0
    0.0900   -1.1900   -0.1540 N   0  0  0  0  0  0  0  0  0  0  0  0
    1.0560   -0.1500   -0.1960 C   0  0  0  0  0  0  0  0  0  0  0  0
    1.5590    0.2260   -1.3130 O   0  0  0  0  0  0  0  0  0  0  0  0
    1.5780    0.5940    0.9720 C   0  0  0  0  0  0  0  0  0  0  0  0
    2.7870    1.4620    0.5810 C   0  0  0  0  0  0  0  0  0  0  0  0
    3.8120    0.6180    0.0840 N   0  0  0  0  0  0  0  0  0  0  0  0
    5.0100    1.2390   -0.3570 C   0  0  0  0  0  0  0  0  0  0  0  0
    5.8130    1.8500    0.6970 C   0  0  0  0  0  0  0  0  0  0  0  0
    6.0810    3.1400    0.6770 C   0  0  0  0  0  0  0  0  0  0  0  0
    6.8760    3.7910    1.7020 C   0  0  0  0  0  0  0  0  0  0  0  0
    7.3290    3.1120    2.6480 O   0  0  0  0  0  0  0  0  0  0  0  0
  1  2  1  0
  2  3  1  0
  4  3  1  1
  4  5  1  0
  4 24  1  0
  5  6  2  0
  5  7  1  0
  7  8  1  0
  7  9  1  0
  9 10  1  0
 10 11  1  0
 10 14  1  0
 11 12  1  0
 12 13  1  0
 14 15  1  0
 15 16  1  0
 16 17  1  0
 17 18  1  0
 18 19  1  0
 19 20  1  6
 19 24  1  0
 20 21  2  0
 20 22  1  0
 22 23  1  0
 24 25  1  0
 25 26  2  0
 25 27  1  0
 27 28  1  0
 28 29  1  0
 29 30  1  0
 30 31  1  0
 31 32  2  3
 32 33  1  0
 33 34  2  0
M  END
