
     RDKit          3D

 34 34  0  0  0  0  0  0  0  0999 V2000
   10.3180    3.0240    1.0910 C   0  0  0  0  0  0  0  0  0  0  0  0
   10.0610    1.6120    0.6700 C   0  0  0  0  0  0  0  0  0  0  0  0
    9.1200    0.9760    1.4780 O   0  0  0  0  0  0  0  0  0  0  0  0
    8.8210   -0.6410    1.0020 P   0  0  0  0  0  0  0  0  0  0  0  0
   10.0010   -1.2600   -0.2640 C   0  0  0  0  0  0  0  0  0  0  0  0
    7.1120   -0.7720    0.3750 C   0  0  0  0  0  0  0  0  0  0  0  0
    6.8470   -1.3750   -0.8300 C   0  0  0  0  0  0  0  0  0  0  0  0
    5.5340   -1.4430   -1.2500 C   0  0  0  0  0  0  0  0  0  0  0  0
    4.4900   -0.9370   -0.5170 C   0  0  0  0  0  0  0  0  0  0  0  0
    3.1330   -1.0310   -0.9950 C   0  0  0  0  0  0  0  0  0  0  0  0
    2.9270   -1.5940   -2.1100 O   0  0  0  0  0  0  0  0  0  0  0  0
    1.9980   -0.5400   -0.3120 N   0  0  0  0  0  0  0  0  0  0  0  0
    0.6220   -0.6640   -0.8510 C   0  0  1  0  0  0  0  0  0  0  0  0
   -0.1020   -1.5440    0.0990 C   0  0  0  0  0  0  0  0  0  0  0  0
    0.0330    0.6590   -1.0760 C   0  0  0  0  0  0  0  0  0  0  0  0
   -1.3310    0.6940   -1.6450 C   0  0  0  0  0  0  0  0  0  0  0  0
   -2.4800    0.1900   -0.8380 C   0  0  1  0  0  0  0  0  0  0  0  0
   -2.6200    1.0050    0.4300 C   0  0  0  0  0  0  0  0  0  0  0  0
   -3.6790    0.6040    1.2920 N   0  0  0  0  0  0  0  0  0  0  0  0
   -3.4650   -0.3910    2.3000 C   0  0  0  0  0  0  0  0  0  0  0  0
   -4.9890    1.2060    1.1550 C   0  0  0  0  0  0  0  0  0  0  0  0
   -5.2040    2.0680    0.2700 O   0  0  0  0  0  0  0  0  0  0  0  0
   -6.0190    0.8690    1.9660 O   0  0  0  0  0  0  0  0  0  0  0  0
   -7.3310    1.2360    2.0750 C   0  0  0  0  0  0  0  0  0  0  0  0
   -8.2200    0.8030    0.9710 C   0  0  1  0  0  0  0  0  0  0  0  0
   -7.9390    1.2850   -0.4020 C   0  0  0  0  0  0  0  0  0  0  0  0
   -8.2850   -0.7370    0.8850 C   0  0  0  0  0  0  0  0  0  0  0  0
   -3.6400    0.3020   -1.6310 O   0  0  0  0  0  0  0  0  0  0  0  0
   -4.2130   -0.9500   -1.8250 C   0  0  0  0  0  0  0  0  0  0  0  0
   -5.3960   -0.8780   -2.6900 C   0  0  0  0  0  0  0  0  0  0  0  0
   -6.1840   -2.0000   -3.0120 N   0  0  0  0  0  0  0  0  0  0  0  0
   -5.7610    0.2340   -3.1930 O   0  0  0  0  0  0  0  0  0  0  0  0
    4.7700   -0.3370    0.6860 C   0  0  0  0  0  0  0  0  0  0  0  0
    6.0890   -0.2420    1.1570 C   0  0  0  0  0  0  0  0  0  0  0  0
  1  2  1  0
  2  3  1  0
  3  4  1  0
  4  5  1  0
  4  6  1  0
  6  7  2  0
  6 34  1  0
  7  8  1  0
  8  9  2  0
  9 10  1  0
  9 33  1  0
 10 11  2  0
 10 12  1  0
 12 13  1  0
 13 14  1  1
 13 15  1  0
 15 16  1  0
 17 16  1  6
 17 18  1  0
 17 28  1  0
 18 19  1  0
 19 20  1  0
 19 21  1  0
 21 22  2  0
 21 23  1  0
 23 24  1  0
 24 25  1  0
 25 26  1  6
 25 27  1  0
 28 29  1  0
 29 30  1  0
 30 31  1  0
 30 32  2  0
 33 34  2  0
M  END
