
     RDKit          3D

 33 34  0  0  0  0  0  0  0  0999 V2000
    0.5700   -0.4640    1.6260 N   0  0  0  0  0  0  0  0  0  0  0  0
   -0.0600   -1.5150    0.7960 C   0  0  2  0  0  0  0  0  0  0  0  0
    0.8620   -1.7450   -0.3380 C   0  0  0  0  0  0  0  0  0  0  0  0
    0.5530   -2.4100   -1.3420 O   0  0  0  0  0  0  0  0  0  0  0  0
    2.1720   -1.1980   -0.3350 O   0  0  0  0  0  0  0  0  0  0  0  0
    3.0810   -1.4950   -1.3530 C   0  0  0  0  0  0  0  0  0  0  0  0
    4.0730   -0.4790   -1.6450 C   0  0  0  0  0  0  0  0  0  0  0  0
    5.0150   -0.7560   -2.4840 O   0  0  0  0  0  0  0  0  0  0  0  0
    4.0910    0.7820   -1.1140 O   0  0  0  0  0  0  0  0  0  0  0  0
    4.9880    1.7140   -1.4810 C   0  0  0  0  0  0  0  0  0  0  0  0
    6.4640    1.6810   -1.2460 C   0  0  0  0  0  0  0  0  0  0  0  0
    6.5240    1.6580    0.1830 O   0  0  0  0  0  0  0  0  0  0  0  0
    7.2640    2.8180    0.4500 O   0  0  0  0  0  0  0  0  0  0  0  0
    6.9610    2.9310    1.7910 O   0  0  0  0  0  0  0  0  0  0  0  0
   -1.4580   -1.1700    0.5890 C   0  0  1  0  0  0  0  0  0  0  0  0
   -1.9600   -0.9440    1.9340 O   0  0  0  0  0  0  0  0  0  0  0  0
   -1.7460    0.0470   -0.1840 C   0  0  0  0  0  0  0  0  0  0  0  0
   -3.1570    0.3560   -0.1900 N   0  0  0  0  0  0  0  0  0  0  0  0
   -3.6770    1.5990   -0.6370 C   0  0  0  0  0  0  0  0  0  0  0  0
   -4.4450    2.4430    0.2930 C   0  0  0  0  0  0  0  0  0  0  0  0
   -3.9970    2.9090    1.4930 O   0  0  0  0  0  0  0  0  0  0  0  0
   -4.1520    4.3050    1.7570 C   0  0  0  0  0  0  0  0  0  0  0  0
   -4.6410    5.0180    0.8620 O   0  0  0  0  0  0  0  0  0  0  0  0
   -3.7810    4.8780    2.9570 O   0  0  0  0  0  0  0  0  0  0  0  0
   -4.1100   -0.6840    0.0940 C   0  0  0  0  0  0  0  0  0  0  0  0
   -5.3400   -0.4960   -0.0730 O   0  0  0  0  0  0  0  0  0  0  0  0
   -3.6880   -1.9280    0.5730 O   0  0  0  0  0  0  0  0  0  0  0  0
   -2.3510   -2.3170    0.1540 C   0  0  2  0  0  0  0  0  0  0  0  0
   -2.0910   -3.6100    0.8650 C   0  0  0  0  0  0  0  0  0  0  0  0
   -1.5960   -4.4950   -0.2460 C   0  0  0  0  0  0  0  0  0  0  0  0
   -2.1120   -3.9350   -1.4350 O   0  0  0  0  0  0  0  0  0  0  0  0
   -2.4520   -2.5930   -1.2560 C   0  0  0  0  0  0  0  0  0  0  0  0
   -2.7820   -1.8380   -2.2010 O   0  0  0  0  0  0  0  0  0  0  0  0
  2  1  1  6
  2  3  1  0
  2 15  1  0
  3  4  2  0
  3  5  1  0
  5  6  1  0
  6  7  1  0
  7  8  2  0
  7  9  1  0
  9 10  1  0
 10 11  1  0
 11 12  1  0
 12 13  1  0
 13 14  1  0
 15 16  1  1
 15 17  1  0
 15 28  1  0
 17 18  1  0
 18 19  1  0
 18 25  1  0
 19 20  1  0
 20 21  1  0
 21 22  1  0
 22 23  2  0
 22 24  1  0
 25 26  2  0
 25 27  1  0
 27 28  1  0
 28 29  1  1
 28 32  1  0
 29 30  1  0
 30 31  1  0
 31 32  1  0
 32 33  2  0
M  END
