
     RDKit          3D

 35 36  0  0  0  0  0  0  0  0999 V2000
    7.3580   -3.3240    0.0680 C   0  0  0  0  0  0  0  0  0  0  0  0
    6.2720   -2.6520    0.8790 C   0  0  0  0  0  0  0  0  0  0  0  0
    6.3200   -1.2990    0.6470 O   0  0  0  0  0  0  0  0  0  0  0  0
    5.1390   -0.3990    1.5040 P   0  0  0  0  0  0  0  0  0  0  0  0
    5.4690   -0.1660    3.1550 O   0  0  0  0  0  0  0  0  0  0  0  0
    3.4070   -1.0710    1.1890 C   0  0  0  0  0  0  0  0  0  0  0  0
    2.9090   -0.3510   -0.0220 C   0  0  0  0  0  0  0  0  0  0  0  0
    1.6490   -0.6410   -0.5040 N   0  0  0  0  0  0  0  0  0  0  0  0
    0.5010   -0.2430    0.3280 C   0  0  2  0  0  0  0  0  0  0  0  0
   -0.5970   -1.1110   -0.1220 C   0  0  0  0  0  0  0  0  0  0  0  0
   -1.9380   -1.0600    0.4720 C   0  0  2  0  0  0  0  0  0  0  0  0
   -1.9690   -1.3290    1.9660 C   0  0  0  0  0  0  0  0  0  0  0  0
   -2.7220   -2.1900   -0.0510 O   0  0  0  0  0  0  0  0  0  0  0  0
   -3.9440   -2.0310   -0.6330 C   0  0  0  0  0  0  0  0  0  0  0  0
   -4.4280   -0.8740   -0.7310 O   0  0  0  0  0  0  0  0  0  0  0  0
   -4.7080   -3.1640   -1.1450 C   0  0  0  0  0  0  0  0  0  0  0  0
   -5.8780   -3.0510   -1.7050 C   0  0  0  0  0  0  0  0  0  0  0  0
   -6.6700   -4.2000   -2.2320 C   0  0  0  0  0  0  0  0  0  0  0  0
   -6.0160   -5.4260   -2.0510 O   0  0  0  0  0  0  0  0  0  0  0  0
   -4.7790   -5.5840   -1.4640 C   0  0  0  0  0  0  0  0  0  0  0  0
   -4.1340   -4.5160   -1.0220 C   0  0  0  0  0  0  0  0  0  0  0  0
    0.3900    1.2230    0.3900 C   0  0  2  0  0  0  0  0  0  0  0  0
   -0.7080    1.8500    1.1850 C   0  0  0  0  0  0  0  0  0  0  0  0
   -0.4980    3.3810    1.0590 C   0  0  0  0  0  0  0  0  0  0  0  0
   -1.5370    4.1410    1.7950 C   0  0  0  0  0  0  0  0  0  0  0  0
   -1.5620    3.8870    3.2410 C   0  0  0  0  0  0  0  0  0  0  0  0
   -2.6390    4.3780    4.0470 N   0  0  0  0  0  0  0  0  0  0  0  0
   -0.6590    3.2420    3.8280 O   0  0  0  0  0  0  0  0  0  0  0  0
    0.4770    1.9010   -0.9050 N   0  0  0  0  0  0  0  0  0  0  0  0
    1.5870    2.7860   -1.2450 C   0  0  0  0  0  0  0  0  0  0  0  0
    1.2680    3.8070   -2.2720 C   0  0  0  0  0  0  0  0  0  0  0  0
    0.3830    3.4100   -3.3900 C   0  0  0  0  0  0  0  0  0  0  0  0
    0.0160    1.9440   -3.3410 C   0  0  0  0  0  0  0  0  0  0  0  0
   -0.4920    1.7410   -1.9300 C   0  0  0  0  0  0  0  0  0  0  0  0
   -1.6590    1.4570   -1.6500 O   0  0  0  0  0  0  0  0  0  0  0  0
  1  2  1  0
  2  3  1  0
  3  4  1  0
  4  5  1  0
  4  6  1  0
  6  7  1  0
  7  8  1  0
  8  9  1  0
  9 10  1  6
  9 22  1  0
 10 11  1  0
 11 12  1  1
 11 13  1  0
 13 14  1  0
 14 15  2  0
 14 16  1  0
 16 17  2  0
 16 21  1  0
 17 18  1  0
 18 19  1  0
 19 20  1  0
 20 21  2  0
 22 23  1  6
 22 29  1  0
 23 24  1  0
 24 25  1  0
 25 26  1  0
 26 27  1  0
 26 28  2  0
 29 30  1  0
 29 34  1  0
 30 31  1  0
 31 32  1  0
 32 33  1  0
 33 34  1  0
 34 35  2  0
M  END
