
     RDKit          3D

 33 35  0  0  0  0  0  0  0  0999 V2000
    4.1790   -1.4430    0.1000 C   0  0  0  0  0  0  0  0  0  0  0  0
    3.7330   -0.7440   -1.1530 C   0  0  1  0  0  0  0  0  0  0  0  0
    2.4060   -1.0820   -1.5230 O   0  0  0  0  0  0  0  0  0  0  0  0
    1.1860   -0.4360   -1.2450 C   0  0  0  0  0  0  0  0  0  0  0  0
    0.3170   -0.4570   -2.1430 O   0  0  0  0  0  0  0  0  0  0  0  0
    0.8810    0.2610    0.0430 C   0  0  1  0  0  0  0  0  0  0  0  0
   -0.2280    1.2820   -0.1440 C   0  0  0  0  0  0  0  0  0  0  0  0
   -1.0430    1.0110   -1.2460 O   0  0  0  0  0  0  0  0  0  0  0  0
   -2.4090    1.0440   -1.2780 C   0  0  0  0  0  0  0  0  0  0  0  0
   -2.9710    0.6520   -2.3540 O   0  0  0  0  0  0  0  0  0  0  0  0
   -3.2930    1.4890   -0.1900 C   0  0  2  0  0  0  0  0  0  0  0  0
   -3.6280    0.4260    0.8030 C   0  0  0  0  0  0  0  0  0  0  0  0
   -4.1240   -0.7930    0.2220 N   0  0  0  0  0  0  0  0  0  0  0  0
   -3.8150   -2.1050    0.6950 C   0  0  0  0  0  0  0  0  0  0  0  0
   -4.7190   -3.0160    0.7210 O   0  0  0  0  0  0  0  0  0  0  0  0
   -2.5190   -2.4750    1.1570 N   0  0  0  0  0  0  0  0  0  0  0  0
   -1.2780   -2.0840    0.5210 C   0  0  2  0  0  0  0  0  0  0  0  0
   -0.5430   -3.3720    0.1240 C   0  0  0  0  0  0  0  0  0  0  0  0
   -0.2790   -4.1520    1.2440 O   0  0  0  0  0  0  0  0  0  0  0  0
   -0.3810   -1.3610    1.4370 C   0  0  0  0  0  0  0  0  0  0  0  0
   -0.6510   -1.4800    2.6810 O   0  0  0  0  0  0  0  0  0  0  0  0
    0.6820   -0.5980    1.1070 O   0  0  0  0  0  0  0  0  0  0  0  0
   -4.5490    2.1380   -0.7560 C   0  0  0  0  0  0  0  0  0  0  0  0
   -4.1900    3.4520   -0.9260 O   0  0  0  0  0  0  0  0  0  0  0  0
   -3.0480    3.7050   -0.2130 C   0  0  0  0  0  0  0  0  0  0  0  0
   -2.7330    2.5620    0.5090 O   0  0  0  0  0  0  0  0  0  0  0  0
    2.1490    1.0680    0.3700 C   0  0  0  0  0  0  0  0  0  0  0  0
    2.7590    1.4290   -0.8060 O   0  0  0  0  0  0  0  0  0  0  0  0
    3.9520    0.7370   -1.0480 C   0  0  1  0  0  0  0  0  0  0  0  0
    4.9520    1.0780   -0.1610 O   0  0  0  0  0  0  0  0  0  0  0  0
    5.9650    1.6980   -0.7450 O   0  0  0  0  0  0  0  0  0  0  0  0
    7.1260    1.2510   -0.3620 O   0  0  0  0  0  0  0  0  0  0  0  0
    7.2970    1.6390    0.9020 O   0  0  0  0  0  0  0  0  0  0  0  0
  2  1  1  1
  2  3  1  0
  2 29  1  0
  3  4  1  0
  4  5  2  0
  4  6  1  0
  6  7  1  6
  6 22  1  0
  6 27  1  0
  7  8  1  0
  8  9  1  0
  9 10  2  0
  9 11  1  0
 11 12  1  1
 11 23  1  0
 11 26  1  0
 12 13  1  0
 13 14  1  0
 14 15  2  0
 14 16  1  0
 16 17  1  0
 17 18  1  1
 17 20  1  0
 18 19  1  0
 20 21  2  0
 20 22  1  0
 23 24  1  0
 24 25  1  0
 25 26  1  0
 27 28  1  0
 28 29  1  0
 29 30  1  1
 30 31  1  0
 31 32  1  0
 32 33  1  0
M  END
