
     RDKit          3D

 34 34  0  0  0  0  0  0  0  0999 V2000
    6.7950   -3.5810   -0.9630 C   0  0  0  0  0  0  0  0  0  0  0  0
    5.9000   -2.6050   -1.6450 C   0  0  0  0  0  0  0  0  0  0  0  0
    4.7590   -2.2930   -0.8920 O   0  0  0  0  0  0  0  0  0  0  0  0
    3.8110   -1.1820   -1.7530 P   0  0  0  0  0  0  0  0  0  0  0  0
    4.5150   -0.4710   -3.1150 O   0  0  0  0  0  0  0  0  0  0  0  0
    5.3860    0.5620   -2.8770 C   0  0  0  0  0  0  0  0  0  0  0  0
    2.8200   -0.1680   -0.8120 O   0  0  0  0  0  0  0  0  0  0  0  0
    2.2290   -0.8600    0.2890 C   0  0  0  0  0  0  0  0  0  0  0  0
    1.3790   -0.0380    1.1130 C   0  0  1  0  0  0  0  0  0  0  0  0
    2.3290    1.0490    1.5950 C   0  0  0  0  0  0  0  0  0  0  0  0
    0.1160    0.6150    0.7550 C   0  0  1  0  0  0  0  0  0  0  0  0
   -0.2560    1.3660    2.0340 C   0  0  0  0  0  0  0  0  0  0  0  0
    0.3940    1.4740   -0.4150 C   0  0  0  0  0  0  0  0  0  0  0  0
    0.4540    0.6900   -1.4650 O   0  0  0  0  0  0  0  0  0  0  0  0
    0.5940    2.8150   -0.6310 N   0  0  0  0  0  0  0  0  0  0  0  0
   -0.2100    3.9950   -0.6800 C   0  0  0  0  0  0  0  0  0  0  0  0
   -0.3690    4.7780    0.5740 C   0  0  0  0  0  0  0  0  0  0  0  0
   -1.8380    5.2110    0.7160 C   0  0  0  0  0  0  0  0  0  0  0  0
   -2.5740    4.5570    1.8050 C   0  0  0  0  0  0  0  0  0  0  0  0
   -3.4660    3.4210    1.5010 C   0  0  0  0  0  0  0  0  0  0  0  0
   -3.4360    2.8500    0.2000 N   0  0  0  0  0  0  0  0  0  0  0  0
   -4.1850    3.5560   -0.8610 C   0  0  0  0  0  0  0  0  0  0  0  0
   -2.7460    1.6500   -0.1340 C   0  0  0  0  0  0  0  0  0  0  0  0
   -2.5020    1.4990   -1.3800 O   0  0  0  0  0  0  0  0  0  0  0  0
   -2.3020    0.6020    0.7650 C   0  0  0  0  0  0  0  0  0  0  0  0
   -1.0960   -0.0810    0.5190 N   0  0  0  0  0  0  0  0  0  0  0  0
   -1.1040   -1.4700    0.4140 C   0  0  0  0  0  0  0  0  0  0  0  0
   -1.6890   -2.1920   -0.7200 C   0  0  2  0  0  0  0  0  0  0  0  0
   -3.1130   -2.1070   -1.0540 C   0  0  0  0  0  0  0  0  0  0  0  0
   -4.1440   -2.5430   -0.1010 C   0  0  0  0  0  0  0  0  0  0  0  0
   -1.2050   -3.6260   -0.6790 C   0  0  0  0  0  0  0  0  0  0  0  0
   -1.5300   -4.4130    0.5270 C   0  0  0  0  0  0  0  0  0  0  0  0
   -0.9540   -5.8350    0.3880 C   0  0  0  0  0  0  0  0  0  0  0  0
   -1.2470   -6.5910    1.5090 O   0  0  0  0  0  0  0  0  0  0  0  0
  1  2  1  0
  2  3  1  0
  3  4  1  0
  4  5  1  0
  4  7  1  0
  5  6  1  0
  7  8  1  0
  8  9  1  0
  9 10  1  6
  9 11  1  0
 11 12  1  1
 11 13  1  0
 11 26  1  0
 13 14  2  0
 13 15  1  0
 15 16  1  0
 16 17  1  0
 17 18  1  0
 18 19  1  0
 19 20  1  0
 20 21  1  0
 21 22  1  0
 21 23  1  0
 23 24  2  0
 23 25  1  0
 25 26  1  0
 26 27  1  0
 28 27  1  1
 28 29  1  0
 28 31  1  0
 29 30  1  0
 31 32  1  0
 32 33  1  0
 33 34  1  0
M  END
