
     RDKit          3D

 16 16  0  0  0  0  0  0  0  0999 V2000
    5.0810   -0.6900    1.5480 C   0  0  0  0  0  0  0  0  0  0  0  0
    4.0940   -1.0040    0.4290 C   0  0  0  0  0  0  0  0  0  0  0  0
    3.3180    0.2470    0.1580 C   0  0  0  0  0  0  0  0  0  0  0  0
    2.3750    0.1050   -0.8460 O   0  0  0  0  0  0  0  0  0  0  0  0
    1.7440    1.3670   -0.9680 C   0  0  0  0  0  0  0  0  0  0  0  0
    0.6960    1.3530   -2.0270 C   0  0  0  0  0  0  0  0  0  0  0  0
   -0.3170    0.4450   -1.8100 O   0  0  0  0  0  0  0  0  0  0  0  0
   -1.2610    0.3210   -0.8450 C   0  0  0  0  0  0  0  0  0  0  0  0
   -1.4340    1.1750    0.2170 C   0  0  0  0  0  0  0  0  0  0  0  0
   -2.4220    1.0120    1.1900 C   0  0  0  0  0  0  0  0  0  0  0  0
   -2.5570    1.9730    2.3190 C   0  0  0  0  0  0  0  0  0  0  0  0
   -3.2540   -0.0710    1.0520 C   0  0  0  0  0  0  0  0  0  0  0  0
   -3.0920   -0.9380   -0.0120 C   0  0  0  0  0  0  0  0  0  0  0  0
   -4.0040   -2.1310   -0.1700 C   0  0  0  0  0  0  0  0  0  0  0  0
   -2.1230   -0.7820   -0.9700 C   0  0  0  0  0  0  0  0  0  0  0  0
   -1.9850   -1.7360   -2.0950 C   0  0  0  0  0  0  0  0  0  0  0  0
  1  2  1  0
  2  3  1  0
  3  4  1  0
  4  5  1  0
  5  6  1  0
  6  7  1  0
  7  8  1  0
  8  9  2  0
  8 15  1  0
  9 10  1  0
 10 11  1  0
 10 12  2  0
 12 13  1  0
 13 14  1  0
 13 15  2  0
 15 16  1  0
M  END
