
     RDKit          3D

 16 16  0  0  0  0  0  0  0  0999 V2000
    5.3830   -0.4710   -1.3150 C   0  0  0  0  0  0  0  0  0  0  0  0
    5.3300    0.5680   -0.2260 C   0  0  0  0  0  0  0  0  0  0  0  0
    4.0910    0.3850    0.6300 C   0  0  0  0  0  0  0  0  0  0  0  0
    2.8280    0.5080   -0.1760 C   0  0  2  0  0  0  0  0  0  0  0  0
    2.6880    1.7280   -0.7910 O   0  0  0  0  0  0  0  0  0  0  0  0
    1.6600    0.1920    0.7450 C   0  0  0  0  0  0  0  0  0  0  0  0
    0.4490    0.1610    0.0540 O   0  0  0  0  0  0  0  0  0  0  0  0
   -0.5400   -0.1330    0.9840 C   0  0  0  0  0  0  0  0  0  0  0  0
   -1.8940   -0.1980    0.3740 C   0  0  0  0  0  0  0  0  0  0  0  0
   -2.7040    0.9240    0.2800 C   0  0  0  0  0  0  0  0  0  0  0  0
   -3.9600    0.8940   -0.2790 C   0  0  0  0  0  0  0  0  0  0  0  0
   -4.8390    2.0890   -0.3850 C   0  0  0  0  0  0  0  0  0  0  0  0
   -4.4270   -0.3270   -0.7700 C   0  0  0  0  0  0  0  0  0  0  0  0
   -3.6550   -1.4700   -0.6980 C   0  0  0  0  0  0  0  0  0  0  0  0
   -4.2180   -2.7420   -1.2440 C   0  0  0  0  0  0  0  0  0  0  0  0
   -2.4190   -1.3750   -0.1330 C   0  0  0  0  0  0  0  0  0  0  0  0
  1  2  1  0
  2  3  1  0
  3  4  1  0
  4  5  1  1
  4  6  1  0
  6  7  1  0
  7  8  1  0
  8  9  1  0
  9 10  2  0
  9 16  1  0
 10 11  1  0
 11 12  1  0
 11 13  2  0
 13 14  1  0
 14 15  1  0
 14 16  2  0
M  END
