
     RDKit          3D

 27 26  0  0  0  0  0  0  0  0999 V2000
   -2.3440   -2.1120   -1.4570 C   0  0  0  0  0  0  0  0  0  0  0  0
   -3.0830   -0.8720   -1.1940 C   0  0  0  0  0  0  0  0  0  0  0  0
   -4.4880   -0.9060   -1.6240 N   0  0  0  0  0  0  0  0  0  0  0  0
   -2.6590    0.2460   -0.7070 C   0  0  0  0  0  0  0  0  0  0  0  0
   -3.7870    1.6460   -0.4630 S   0  0  0  0  0  0  0  0  0  0  0  0
   -5.4500    1.1860   -0.0930 C   0  0  0  0  0  0  0  0  0  0  0  0
   -5.6050    0.4990    1.2580 C   0  0  2  0  0  0  0  0  0  0  0  0
   -4.8920   -0.6420    1.3920 F   0  0  0  0  0  0  0  0  0  0  0  0
   -6.9400    0.2040    1.4800 F   0  0  0  0  0  0  0  0  0  0  0  0
   -5.2420    1.3700    2.2880 F   0  0  0  0  0  0  0  0  0  0  0  0
   -1.2730    0.5690   -0.3980 C   0  0  0  0  0  0  0  0  0  0  0  0
   -1.0080    1.7490    0.0940 O   0  0  0  0  0  0  0  0  0  0  0  0
   -0.1320   -0.2330   -0.5570 N   0  0  0  0  0  0  0  0  0  0  0  0
    1.1880    0.2270   -0.2070 C   0  0  0  0  0  0  0  0  0  0  0  0
    1.3030    1.3800    0.2470 O   0  0  0  0  0  0  0  0  0  0  0  0
    2.3780   -0.6690   -0.3880 C   0  0  0  0  0  0  0  0  0  0  0  0
    3.5370   -0.1650   -0.0560 O   0  0  0  0  0  0  0  0  0  0  0  0
    4.6260    0.3490    0.4060 C   0  0  0  0  0  0  0  0  0  0  0  0
    5.1520   -0.0570    1.5490 C   0  0  0  0  0  0  0  0  0  0  0  0
    4.4510   -1.0550    2.1980 F   0  0  0  0  0  0  0  0  0  0  0  0
    6.3720    0.4100    2.2000 C   0  0  1  0  0  0  0  0  0  0  0  0
    6.2160    1.6760    2.7600 F   0  0  0  0  0  0  0  0  0  0  0  0
    6.6830   -0.4300    3.3100 F   0  0  0  0  0  0  0  0  0  0  0  0
    7.5110    0.3350    1.4290 F   0  0  0  0  0  0  0  0  0  0  0  0
    5.3100    1.4410   -0.3810 C   0  0  2  0  0  0  0  0  0  0  0  0
    6.3010    2.0750    0.2690 F   0  0  0  0  0  0  0  0  0  0  0  0
    4.3520    2.3900   -0.7610 F   0  0  0  0  0  0  0  0  0  0  0  0
  1  2  1  0
  2  3  1  0
  2  4  2  3
  4  5  1  0
  4 11  1  0
  5  6  1  0
  6  7  1  0
  7  8  1  6
  7  9  1  0
  7 10  1  0
 11 12  2  0
 11 13  1  0
 13 14  1  0
 14 15  2  0
 14 16  1  0
 16 17  1  0
 17 18  1  0
 18 19  2  3
 18 25  1  0
 19 20  1  0
 19 21  1  0
 21 22  1  1
 21 23  1  0
 21 24  1  0
 25 26  1  1
 25 27  1  0
M  END
