
     RDKit          3D

 27 26  0  0  0  0  0  0  0  0999 V2000
   -3.1140   -2.0550    3.9710 N   0  0  0  0  0  0  0  0  0  0  0  0
   -3.5830   -2.0830    2.9160 C   0  0  0  0  0  0  0  0  0  0  0  0
   -4.2040   -2.1230    1.5790 C   0  0  0  0  0  0  0  0  0  0  0  0
   -3.6520   -0.7690    0.5800 S   0  0  0  0  0  0  0  0  0  0  0  0
   -1.8750   -0.8190    0.2060 C   0  0  0  0  0  0  0  0  0  0  0  0
   -1.4140    0.1450   -0.5430 C   0  0  0  0  0  0  0  0  0  0  0  0
   -0.1090    0.4220   -1.0190 C   0  0  0  0  0  0  0  0  0  0  0  0
    0.9680   -0.3990   -0.6500 O   0  0  0  0  0  0  0  0  0  0  0  0
    1.7050   -0.0430    0.5060 C   0  0  0  0  0  0  0  0  0  0  0  0
    1.3680    0.9780    1.1460 O   0  0  0  0  0  0  0  0  0  0  0  0
    2.8560   -0.8390    0.9770 C   0  0  0  0  0  0  0  0  0  0  0  0
    3.4160   -0.2120    2.2190 C   0  0  2  0  0  0  0  0  0  0  0  0
    4.5010   -0.9080    2.7160 F   0  0  0  0  0  0  0  0  0  0  0  0
    2.3910   -0.1440    3.1640 F   0  0  0  0  0  0  0  0  0  0  0  0
    3.7490    1.0950    1.9270 F   0  0  0  0  0  0  0  0  0  0  0  0
    0.1820    1.4310   -1.8020 C   0  0  0  0  0  0  0  0  0  0  0  0
    1.5860    1.6510   -2.2550 C   0  0  0  0  0  0  0  0  0  0  0  0
    1.9360    2.7370   -3.0970 N   0  0  0  0  0  0  0  0  0  0  0  0
    2.4910    0.8800   -1.9000 O   0  0  0  0  0  0  0  0  0  0  0  0
   -0.7980    2.4060   -2.2930 C   0  0  2  0  0  0  0  0  0  0  0  0
   -0.8340    3.4530   -1.3700 F   0  0  0  0  0  0  0  0  0  0  0  0
   -2.0120    1.9260   -2.6300 F   0  0  0  0  0  0  0  0  0  0  0  0
   -0.2040    3.0330   -3.4260 F   0  0  0  0  0  0  0  0  0  0  0  0
   -1.1470   -1.9490    0.7830 C   0  0  1  0  0  0  0  0  0  0  0  0
   -2.0130   -3.0660    0.9350 F   0  0  0  0  0  0  0  0  0  0  0  0
   -0.1560   -2.4710   -0.0650 F   0  0  0  0  0  0  0  0  0  0  0  0
   -0.6130   -1.6190    1.9990 F   0  0  0  0  0  0  0  0  0  0  0  0
  1  2  3  0
  2  3  1  0
  3  4  1  0
  4  5  1  0
  5  6  2  3
  5 24  1  0
  6  7  1  0
  7  8  1  0
  7 16  2  3
  8  9  1  0
  9 10  2  0
  9 11  1  0
 11 12  1  0
 12 13  1  1
 12 14  1  0
 12 15  1  0
 16 17  1  0
 16 20  1  0
 17 18  1  0
 17 19  2  0
 20 21  1  1
 20 22  1  0
 20 23  1  0
 24 25  1  1
 24 26  1  0
 24 27  1  0
M  END
