
     RDKit          3D

 12 12  0  0  0  0  0  0  0  0999 V2000
   -2.1560   -2.4560    0.2980 C   0  0  0  0  0  0  0  0  0  0  0  0
   -1.1860   -1.3360    0.1590 C   0  0  0  0  0  0  0  0  0  0  0  0
   -1.5480   -0.0380    0.4540 C   0  0  0  0  0  0  0  0  0  0  0  0
   -0.6680    1.0240    0.3340 C   0  0  0  0  0  0  0  0  0  0  0  0
   -1.0960    2.4180    0.6630 C   0  0  0  0  0  0  0  0  0  0  0  0
    0.6150    0.7530   -0.0990 C   0  0  0  0  0  0  0  0  0  0  0  0
    1.5430    1.8300   -0.2320 N   0  0  0  0  0  0  0  0  0  0  0  0
    1.0220   -0.5250   -0.4050 C   0  0  0  0  0  0  0  0  0  0  0  0
    2.3730   -0.8100   -0.8620 C   0  0  0  0  0  0  0  0  0  0  0  0
    2.7670   -1.9480   -1.1440 O   0  0  0  0  0  0  0  0  0  0  0  0
    3.2500    0.2540   -0.9810 O   0  0  0  0  0  0  0  0  0  0  0  0
    0.1050   -1.5650   -0.2710 C   0  0  0  0  0  0  0  0  0  0  0  0
  1  2  1  0
  2  3  2  0
  2 12  1  0
  3  4  1  0
  4  5  1  0
  4  6  2  0
  6  7  1  0
  6  8  1  0
  8  9  1  0
  8 12  2  0
  9 10  2  0
  9 11  1  0
M  END
