
     RDKit          3D

 27 30  0  0  0  0  0  0  0  0999 V2000
    0.8750    3.6880   -0.3500 O   0  0  0  0  0  0  0  0  0  0  0  0
   -0.3500    3.6390   -0.2350 C   0  0  0  0  0  0  0  0  0  0  0  0
   -1.0800    2.3990   -0.0760 C   0  0  0  0  0  0  0  0  0  0  0  0
   -0.4900    1.1850   -0.0380 C   0  0  0  0  0  0  0  0  0  0  0  0
    0.9940    1.1570   -0.1710 C   0  0  0  0  0  0  0  0  0  0  0  0
    1.5750   -0.1870   -0.1630 C   0  0  0  0  0  0  0  0  0  0  0  0
    0.8120   -1.3130   -0.0140 C   0  0  0  0  0  0  0  0  0  0  0  0
    1.4340   -2.5390   -0.0100 C   0  0  0  0  0  0  0  0  0  0  0  0
    2.8020   -2.6390   -0.1530 C   0  0  0  0  0  0  0  0  0  0  0  0
    3.5940   -4.1930   -0.1480 Cl  0  0  0  0  0  0  0  0  0  0  0  0
    3.5990   -1.5150   -0.3060 C   0  0  0  0  0  0  0  0  0  0  0  0
    2.9560   -0.3020   -0.3070 C   0  0  0  0  0  0  0  0  0  0  0  0
    3.7370    0.8940   -0.4620 N   0  0  0  0  0  0  0  0  0  0  0  0
    5.1700    0.8080   -0.2180 C   0  0  0  0  0  0  0  0  0  0  0  0
    5.6820   -0.3970   -0.9780 C   0  0  0  0  0  0  0  0  0  0  0  0
    5.0690   -1.6570   -0.4580 C   0  0  0  0  0  0  0  0  0  0  0  0
   -0.6430   -1.2380    0.1320 C   0  0  0  0  0  0  0  0  0  0  0  0
   -1.2750   -2.2920    0.2640 O   0  0  0  0  0  0  0  0  0  0  0  0
   -1.3090    0.0510    0.1200 N   0  0  0  0  0  0  0  0  0  0  0  0
   -2.7440    0.0290    0.2740 C   0  0  1  0  0  0  0  0  0  0  0  0
   -3.3610   -0.7310   -0.8750 C   0  0  0  0  0  0  0  0  0  0  0  0
   -4.7260   -1.2520   -0.5930 C   0  0  0  0  0  0  0  0  0  0  0  0
   -4.6580   -2.1790    0.6070 C   0  0  0  0  0  0  0  0  0  0  0  0
   -4.2800   -1.3200    1.7750 C   0  0  0  0  0  0  0  0  0  0  0  0
   -3.0140   -0.5670    1.6320 C   0  0  0  0  0  0  0  0  0  0  0  0
   -1.0930    4.9500   -0.2660 C   0  0  0  0  0  0  0  0  0  0  0  0
   -1.5500    5.3740   -1.9100 Cl  0  0  0  0  0  0  0  0  0  0  0  0
  1  2  2  0
  2  3  1  0
  2 26  1  0
  3  4  2  3
  4  5  1  0
  4 19  1  0
  5  6  1  0
  6  7  2  0
  6 12  1  0
  7  8  1  0
  7 17  1  0
  8  9  2  0
  9 10  1  0
  9 11  1  0
 11 12  2  0
 11 16  1  0
 12 13  1  0
 13 14  1  0
 14 15  1  0
 15 16  1  0
 17 18  2  0
 17 19  1  0
 20 19  1  6
 20 21  1  0
 20 25  1  0
 21 22  1  0
 22 23  1  0
 23 24  1  0
 24 25  1  0
 26 27  1  0
M  END
