
     RDKit          3D

 27 30  0  0  0  0  0  0  0  0999 V2000
    4.0900    2.4360   -0.1680 C   0  0  0  0  0  0  0  0  0  0  0  0
    3.4640    1.8660   -1.4130 C   0  0  0  0  0  0  0  0  0  0  0  0
    2.5350    0.8700   -1.1890 O   0  0  0  0  0  0  0  0  0  0  0  0
    1.3760    0.9440   -0.4800 C   0  0  0  0  0  0  0  0  0  0  0  0
    1.1520    2.0980    0.0300 O   0  0  0  0  0  0  0  0  0  0  0  0
    0.3880   -0.0810   -0.2330 C   0  0  0  0  0  0  0  0  0  0  0  0
    0.4950   -1.3860   -0.7110 C   0  0  0  0  0  0  0  0  0  0  0  0
   -0.5100   -2.3470   -0.4830 C   0  0  0  0  0  0  0  0  0  0  0  0
   -1.6320   -1.9870    0.2400 C   0  0  0  0  0  0  0  0  0  0  0  0
   -2.6160   -2.8850    0.4890 C   0  0  0  0  0  0  0  0  0  0  0  0
   -2.6220   -4.5240   -0.0090 Cl  0  0  0  0  0  0  0  0  0  0  0  0
   -3.7320   -2.4780    1.2300 C   0  0  0  0  0  0  0  0  0  0  0  0
   -3.8260   -1.1890    1.6970 C   0  0  0  0  0  0  0  0  0  0  0  0
   -2.8300   -0.2690    1.4500 C   0  0  0  0  0  0  0  0  0  0  0  0
   -1.7380   -0.6670    0.7250 C   0  0  0  0  0  0  0  0  0  0  0  0
   -0.7380    0.2380    0.4770 C   0  0  0  0  0  0  0  0  0  0  0  0
   -0.8840    1.5870    0.9900 C   0  0  0  0  0  0  0  0  0  0  0  0
   -1.5360    2.4950    0.1430 C   0  0  0  0  0  0  0  0  0  0  0  0
   -1.7270    3.7790    0.5460 C   0  0  0  0  0  0  0  0  0  0  0  0
   -1.2670    4.1450    1.7940 C   0  0  0  0  0  0  0  0  0  0  0  0
   -0.6410    3.2540    2.5980 N   0  0  0  0  0  0  0  0  0  0  0  0
   -0.4310    1.9790    2.2380 C   0  0  0  0  0  0  0  0  0  0  0  0
    0.3700    0.7880    3.2320 Cl  0  0  0  0  0  0  0  0  0  0  0  0
   -0.3970   -3.6540   -1.0880 C   0  0  0  0  0  0  0  0  0  0  0  0
    0.6480   -3.9260   -1.8550 C   0  0  0  0  0  0  0  0  0  0  0  0
    1.7230   -2.9890   -2.1510 C   0  0  0  0  0  0  0  0  0  0  0  0
    1.6640   -1.7920   -1.3590 N   0  0  0  0  0  0  0  0  0  0  0  0
  1  2  1  0
  2  3  1  0
  3  4  1  0
  4  5  2  0
  4  6  1  0
  6  7  2  0
  6 16  1  0
  7  8  1  0
  7 27  1  0
  8  9  2  0
  8 24  1  0
  9 10  1  0
  9 15  1  0
 10 11  1  0
 10 12  2  0
 12 13  1  0
 13 14  2  0
 14 15  1  0
 15 16  2  0
 16 17  1  0
 17 18  2  0
 17 22  1  0
 18 19  1  0
 19 20  2  0
 20 21  1  0
 21 22  2  0
 22 23  1  0
 24 25  2  0
 25 26  1  0
 26 27  1  0
M  END
