
     RDKit          3D

  8  8  0  0  0  0  0  0  0  0999 V2000
   -2.4370    0.0480   -0.0630 C   0  0  0  0  0  0  0  0  0  0  0  0
   -0.9640    0.0380   -0.0520 C   0  0  0  0  0  0  0  0  0  0  0  0
   -0.3560    1.2160    0.0300 C   0  0  0  0  0  0  0  0  0  0  0  0
    1.0780    1.5360    0.0620 C   0  0  0  0  0  0  0  0  0  0  0  0
    2.1220    0.7240    0.1010 C   0  0  0  0  0  0  0  0  0  0  0  0
    2.0450   -0.6970    0.1200 N   0  0  0  0  0  0  0  0  0  0  0  0
    0.9330   -1.5750   -0.0570 C   0  0  0  0  0  0  0  0  0  0  0  0
   -0.3550   -1.2840   -0.1330 C   0  0  0  0  0  0  0  0  0  0  0  0
  1  2  1  0
  2  3  2  0
  2  8  1  0
  3  4  1  0
  4  5  2  0
  5  6  1  0
  6  7  1  0
  7  8  2  0
M  END
