
     RDKit          3D

  8  8  0  0  0  0  0  0  0  0999 V2000
    2.8350   -0.5280    0.0050 N   0  0  0  0  0  0  0  0  0  0  0  0
    1.8550    0.5020    0.0680 C   0  0  0  0  0  0  0  0  0  0  0  0
    0.6030    0.3620   -0.2820 C   0  0  0  0  0  0  0  0  0  0  0  0
    0.0010   -0.8920   -0.8000 C   0  0  0  0  0  0  0  0  0  0  0  0
   -1.2270   -1.3000   -0.0340 C   0  0  0  0  0  0  0  0  0  0  0  0
   -2.1190   -0.1680    0.3370 C   0  0  0  0  0  0  0  0  0  0  0  0
   -1.4370    1.0760    0.7660 C   0  0  0  0  0  0  0  0  0  0  0  0
   -0.3420    1.5090   -0.1760 C   0  0  0  0  0  0  0  0  0  0  0  0
  1  2  1  0
  2  3  2  3
  3  4  1  0
  3  8  1  0
  4  5  1  0
  5  6  1  0
  6  7  1  0
  7  8  1  0
M  CHG  1   1   1
M  END
