
     RDKit          3D

 23 26  0  0  0  0  0  0  0  0999 V2000
   -3.7350    3.4800   -1.2920 C   0  0  0  0  0  0  0  0  0  0  0  0
   -2.5010    2.8670   -1.0310 O   0  0  0  0  0  0  0  0  0  0  0  0
   -2.3940    1.5550   -0.5850 C   0  0  0  0  0  0  0  0  0  0  0  0
   -3.4890    0.7520   -0.3650 C   0  0  0  0  0  0  0  0  0  0  0  0
   -3.3610   -0.5510    0.0790 C   0  0  0  0  0  0  0  0  0  0  0  0
   -4.5140   -1.4300    0.3220 C   0  0  0  0  0  0  0  0  0  0  0  0
   -2.0840   -1.0510    0.3040 C   0  0  0  0  0  0  0  0  0  0  0  0
   -1.9250   -2.2900    0.7280 N   0  0  0  0  0  0  0  0  0  0  0  0
   -0.7160   -2.7990    0.9540 C   0  0  0  0  0  0  0  0  0  0  0  0
   -0.3240   -4.0110    1.3840 N   0  0  0  0  0  0  0  0  0  0  0  0
    0.9860   -4.0530    1.4620 N   0  0  0  0  0  0  0  0  0  0  0  0
    1.4750   -2.8380    1.0730 C   0  0  0  0  0  0  0  0  0  0  0  0
    2.8980   -2.4360    1.0170 C   0  0  0  0  0  0  0  0  0  0  0  0
    0.4300   -2.0180    0.7440 C   0  0  0  0  0  0  0  0  0  0  0  0
    0.3150   -0.7250    0.3030 C   0  0  0  0  0  0  0  0  0  0  0  0
    1.4280    0.0940    0.0570 N   0  0  0  0  0  0  0  0  0  0  0  0
    2.0590    0.9320    1.0580 C   0  0  0  0  0  0  0  0  0  0  0  0
    3.4980    1.1460    0.6430 C   0  0  0  0  0  0  0  0  0  0  0  0
    3.5960    1.8960   -0.5900 N   0  0  0  0  0  0  0  0  0  0  0  0
    2.5750    1.5300   -1.5460 C   0  0  0  0  0  0  0  0  0  0  0  0
    1.9910    0.1650   -1.2780 C   0  0  0  0  0  0  0  0  0  0  0  0
   -0.9640   -0.2550    0.0880 C   0  0  0  0  0  0  0  0  0  0  0  0
   -1.1480    1.0150   -0.3480 C   0  0  0  0  0  0  0  0  0  0  0  0
  1  2  1  0
  2  3  1  0
  3  4  2  0
  3 23  1  0
  4  5  1  0
  5  6  1  0
  5  7  2  0
  7  8  1  0
  7 22  1  0
  8  9  2  0
  9 10  1  0
  9 14  1  0
 10 11  1  0
 11 12  2  0
 12 13  1  0
 12 14  1  0
 14 15  2  0
 15 16  1  0
 15 22  1  0
 16 17  1  0
 16 21  1  0
 17 18  1  0
 18 19  1  0
 19 20  1  0
 20 21  1  0
 22 23  2  0
M  CHG  1  19   1
M  END
