
     RDKit          3D

 24 25  0  0  0  0  0  0  0  0999 V2000
    6.1110   -2.2280    0.5220 C   0  0  0  0  0  0  0  0  0  0  0  0
    4.6990   -2.2630   -0.0230 C   0  0  0  0  0  0  0  0  0  0  0  0
    3.9140   -1.2310    0.7430 C   0  0  0  0  0  0  0  0  0  0  0  0
    2.4990   -1.1700    0.2940 N   0  0  0  0  0  0  0  0  0  0  0  0
    2.2670    0.0300   -0.3460 C   0  0  1  0  0  0  0  0  0  0  0  0
    2.6190    0.2340   -1.7750 C   0  0  0  0  0  0  0  0  0  0  0  0
    2.5800    1.7700   -1.8120 C   0  0  0  0  0  0  0  0  0  0  0  0
    1.8110    2.1910   -0.5400 C   0  0  0  0  0  0  0  0  0  0  0  0
    1.0990    0.8820   -0.1830 C   0  0  0  0  0  0  0  0  0  0  0  0
   -0.1990    0.8540    0.0880 C   0  0  0  0  0  0  0  0  0  0  0  0
   -0.8900    2.2050    0.1280 C   0  0  0  0  0  0  0  0  0  0  0  0
   -0.6360    2.9730    1.3710 C   0  0  0  0  0  0  0  0  0  0  0  0
   -1.3490    4.2640    1.3670 N   0  0  0  0  0  0  0  0  0  0  0  0
   -0.6410    5.2050    2.2150 C   0  0  0  0  0  0  0  0  0  0  0  0
   -1.0130   -0.3460    0.0840 C   0  0  0  0  0  0  0  0  0  0  0  0
   -2.2670   -0.4250    0.4460 C   0  0  0  0  0  0  0  0  0  0  0  0
   -3.1030    0.7010    0.9520 C   0  0  0  0  0  0  0  0  0  0  0  0
   -3.0990   -1.6980    0.3770 C   0  0  1  0  0  0  0  0  0  0  0  0
   -4.3600   -1.3190   -0.3870 C   0  0  0  0  0  0  0  0  0  0  0  0
   -5.2770   -2.5210   -0.5380 C   0  0  0  0  0  0  0  0  0  0  0  0
   -2.4370   -2.8790   -0.1920 C   0  0  0  0  0  0  0  0  0  0  0  0
   -1.3480   -2.5110   -1.1660 C   0  0  1  0  0  0  0  0  0  0  0  0
   -1.8370   -1.8750   -2.4350 C   0  0  0  0  0  0  0  0  0  0  0  0
   -0.3490   -1.5870   -0.4600 C   0  0  0  0  0  0  0  0  0  0  0  0
  1  2  1  0
  2  3  1  0
  3  4  1  0
  5  4  1  6
  5  6  1  0
  5  9  1  0
  6  7  1  0
  7  8  1  0
  8  9  1  0
  9 10  2  3
 10 11  1  0
 10 15  1  0
 11 12  1  0
 12 13  1  0
 13 14  1  0
 15 16  2  0
 15 24  1  0
 16 17  1  0
 16 18  1  0
 18 19  1  6
 18 21  1  0
 19 20  1  0
 21 22  1  0
 22 23  1  6
 22 24  1  0
M  CHG  2   4   1  13   1
M  END
