
     RDKit          3D

 24 26  0  0  0  0  0  0  0  0999 V2000
   -6.3440    0.3920   -1.3520 C   0  0  0  0  0  0  0  0  0  0  0  0
   -5.2130   -0.2100   -0.4970 C   0  0  2  0  0  0  0  0  0  0  0  0
   -5.1450   -1.6560   -0.8500 C   0  0  0  0  0  0  0  0  0  0  0  0
   -5.6120    0.0400    0.9340 C   0  0  0  0  0  0  0  0  0  0  0  0
   -4.5030   -0.0270    1.9090 C   0  0  0  0  0  0  0  0  0  0  0  0
   -3.1710   -0.3850    1.3730 C   0  0  0  0  0  0  0  0  0  0  0  0
   -2.8110    0.3300    0.0820 C   0  0  1  0  0  0  0  0  0  0  0  0
   -2.2570    1.6760    0.4810 C   0  0  0  0  0  0  0  0  0  0  0  0
   -1.3470    2.2910   -0.5140 C   0  0  0  0  0  0  0  0  0  0  0  0
   -0.6740    1.3180   -1.4340 C   0  0  0  0  0  0  0  0  0  0  0  0
   -0.5590   -0.0040   -0.8920 N   0  0  1  0  0  0  0  0  0  0  0  0
    0.3640   -0.1070    0.2110 C   0  0  0  0  0  0  0  0  0  0  0  0
    1.7700   -0.1620   -0.3640 C   0  0  0  0  0  0  0  0  0  0  0  0
    2.8270   -0.2750    0.6800 C   0  0  2  0  0  0  0  0  0  0  0  0
    2.8150    0.8790    1.6540 C   0  0  0  0  0  0  0  0  0  0  0  0
    3.0230    2.1570    1.0650 N   0  0  0  0  0  0  0  0  0  0  0  0
    4.1710   -0.3940   -0.0150 C   0  0  1  0  0  0  0  0  0  0  0  0
    5.2990   -0.5140    0.9480 C   0  0  0  0  0  0  0  0  0  0  0  0
    6.6020   -0.5620    0.1790 C   0  0  0  0  0  0  0  0  0  0  0  0
    6.6330   -1.8890   -0.5580 C   0  0  0  0  0  0  0  0  0  0  0  0
    5.5060   -1.9090   -1.5260 C   0  0  0  0  0  0  0  0  0  0  0  0
    4.1730   -1.5220   -0.9900 C   0  0  0  0  0  0  0  0  0  0  0  0
   -1.8500   -0.5460   -0.6460 C   0  0  0  0  0  0  0  0  0  0  0  0
   -3.9950    0.5780   -0.8000 C   0  0  0  0  0  0  0  0  0  0  0  0
  2  1  1  6
  2  3  1  0
  2  4  1  0
  2 24  1  0
  4  5  1  0
  5  6  1  0
  7  6  1  1
  7  8  1  0
  7 23  1  0
  7 24  1  0
  8  9  1  0
  9 10  1  0
 10 11  1  0
 11 12  1  1
 11 23  1  0
 12 13  1  0
 14 13  1  6
 14 15  1  0
 14 17  1  0
 15 16  1  0
 17 18  1  1
 17 22  1  0
 18 19  1  0
 19 20  1  0
 20 21  1  0
 21 22  1  0
M  CHG  2  11   1  16   1
M  END
