
     RDKit          3D

 24 26  0  0  0  0  0  0  0  0999 V2000
    3.3770    1.9120   -1.9920 C   0  0  0  0  0  0  0  0  0  0  0  0
    3.8840    1.1760   -0.8040 C   0  0  0  0  0  0  0  0  0  0  0  0
    3.5350   -0.2310   -0.6060 C   0  0  1  0  0  0  0  0  0  0  0  0
    4.1750   -0.8050    0.6640 C   0  0  2  0  0  0  0  0  0  0  0  0
    5.7310   -0.7370    0.6260 C   0  0  0  0  0  0  0  0  0  0  0  0
    4.9960   -2.0320    0.5300 C   0  0  0  0  0  0  0  0  0  0  0  0
    2.0840   -0.6550   -0.6910 C   0  0  2  0  0  0  0  0  0  0  0  0
    1.5660   -0.3710   -2.0330 C   0  0  0  0  0  0  0  0  0  0  0  0
    1.3050   -0.2600    0.5120 C   0  0  0  0  0  0  0  0  0  0  0  0
   -0.1160   -0.5900    0.6200 C   0  0  2  0  0  0  0  0  0  0  0  0
   -0.1290   -2.1070    0.4940 C   0  0  0  0  0  0  0  0  0  0  0  0
   -1.3070   -2.7240    1.2080 C   0  0  0  0  0  0  0  0  0  0  0  0
   -2.5100   -2.0850    0.4940 C   0  0  2  0  0  0  0  0  0  0  0  0
   -2.8500   -2.7800   -0.7630 C   0  0  0  0  0  0  0  0  0  0  0  0
   -4.0320   -2.1860   -1.4940 C   0  0  0  0  0  0  0  0  0  0  0  0
   -5.1840   -2.2310   -0.6320 N   0  0  0  0  0  0  0  0  0  0  0  0
   -2.4190   -0.6160    0.4930 C   0  0  0  0  0  0  0  0  0  0  0  0
   -1.1680   -0.0350   -0.0560 N   0  0  1  0  0  0  0  0  0  0  0  0
   -1.4680    1.3590    0.0140 C   0  0  1  0  0  0  0  0  0  0  0  0
   -2.3960    1.8090    1.1080 C   0  0  0  0  0  0  0  0  0  0  0  0
   -2.8270    3.2480    0.7580 C   0  0  0  0  0  0  0  0  0  0  0  0
   -1.6840    4.1990    0.7130 C   0  0  0  0  0  0  0  0  0  0  0  0
   -0.7770    3.7100   -0.4080 C   0  0  0  0  0  0  0  0  0  0  0  0
   -0.3250    2.3130    0.0680 C   0  0  0  0  0  0  0  0  0  0  0  0
  1  2  1  0
  3  2  1  1
  3  4  1  0
  3  7  1  0
  4  5  1  6
  4  6  1  0
  5  6  1  0
  7  8  1  6
  7  9  1  0
 10  9  1  6
 10 11  1  0
 10 18  1  0
 11 12  1  0
 12 13  1  0
 13 14  1  6
 13 17  1  0
 14 15  1  0
 15 16  1  0
 18 17  1  1
 18 19  1  0
 19 20  1  1
 19 24  1  0
 20 21  1  0
 21 22  1  0
 22 23  1  0
 23 24  1  0
M  CHG  2  16   1  18   1
M  END
