
     RDKit          3D

 24 26  0  0  0  0  0  0  0  0999 V2000
   -2.6200    3.7650   -1.4750 C   0  0  0  0  0  0  0  0  0  0  0  0
   -2.0720    2.3350   -1.2890 C   0  0  0  0  0  0  0  0  0  0  0  0
   -2.1290    2.0730    0.1790 C   0  0  2  0  0  0  0  0  0  0  0  0
   -1.3010    3.0740    0.9120 C   0  0  0  0  0  0  0  0  0  0  0  0
   -1.8410    0.6460    0.5890 C   0  0  2  0  0  0  0  0  0  0  0  0
   -1.9130    0.6100    2.0370 N   0  0  0  0  0  0  0  0  0  0  0  0
   -0.5990    0.0650    0.0350 C   0  0  0  0  0  0  0  0  0  0  0  0
    0.6860    0.7320    0.3600 C   0  0  0  0  0  0  0  0  0  0  0  0
    1.8500    0.0180   -0.2810 C   0  0  2  0  0  0  0  0  0  0  0  0
    1.9880   -1.4090    0.1600 C   0  0  0  0  0  0  0  0  0  0  0  0
    3.2610   -2.0240   -0.3870 C   0  0  2  0  0  0  0  0  0  0  0  0
    4.3170   -1.9760    0.6970 C   0  0  0  0  0  0  0  0  0  0  0  0
    5.1290   -0.7240    0.4460 C   0  0  0  0  0  0  0  0  0  0  0  0
    4.3070    0.0180   -0.6220 C   0  0  1  0  0  0  0  0  0  0  0  0
    3.8920   -1.1900   -1.4520 C   0  0  0  0  0  0  0  0  0  0  0  0
    3.1530    0.7360   -0.0270 C   0  0  2  0  0  0  0  0  0  0  0  0
    3.3710    1.0720    1.4180 C   0  0  0  0  0  0  0  0  0  0  0  0
    3.0390    2.0810   -0.7600 C   0  0  0  0  0  0  0  0  0  0  0  0
   -2.9950   -0.1970    0.0050 C   0  0  0  0  0  0  0  0  0  0  0  0
   -2.8720   -1.6000    0.3270 N   0  0  2  0  0  0  0  0  0  0  0  0
   -2.4530   -2.3010   -0.8680 C   0  0  0  0  0  0  0  0  0  0  0  0
   -3.5260   -3.2880   -1.2350 C   0  0  0  0  0  0  0  0  0  0  0  0
   -4.2570   -3.5000    0.0520 C   0  0  0  0  0  0  0  0  0  0  0  0
   -4.1680   -2.1440    0.6950 C   0  0  0  0  0  0  0  0  0  0  0  0
  1  2  1  0
  2  3  1  0
  3  4  1  1
  3  5  1  0
  5  6  1  1
  5  7  1  0
  5 19  1  0
  7  8  1  0
  9  8  1  1
  9 10  1  0
  9 16  1  0
 11 10  1  1
 11 12  1  0
 11 15  1  0
 12 13  1  0
 14 13  1  1
 14 15  1  0
 14 16  1  0
 16 17  1  1
 16 18  1  0
 20 19  1  6
 20 21  1  0
 20 24  1  0
 21 22  1  0
 22 23  1  0
 23 24  1  0
M  CHG  2   6   1  20   1
M  END
