
     RDKit          3D

 21 23  0  0  0  0  0  0  0  0999 V2000
   -1.2170    1.6340   -0.8170 O   0  0  0  0  0  0  0  0  0  0  0  0
   -0.4480    1.0610   -0.0060 C   0  0  0  0  0  0  0  0  0  0  0  0
   -0.9190    0.7790    1.2490 O   0  0  0  0  0  0  0  0  0  0  0  0
   -2.2100    1.0820    1.7110 C   0  0  0  0  0  0  0  0  0  0  0  0
   -3.1940    0.3640    0.8260 C   0  0  0  0  0  0  0  0  0  0  0  0
   -4.0900    1.0250    0.1380 C   0  0  0  0  0  0  0  0  0  0  0  0
   -5.0830    0.3990   -0.7470 C   0  0  0  0  0  0  0  0  0  0  0  0
   -4.9480   -1.0070   -0.7600 O   0  0  0  0  0  0  0  0  0  0  0  0
   -4.0060   -1.6990   -0.0370 C   0  0  0  0  0  0  0  0  0  0  0  0
   -3.9420   -3.4480   -0.1400 Cl  0  0  0  0  0  0  0  0  0  0  0  0
   -3.1350   -1.0890    0.7440 C   0  0  0  0  0  0  0  0  0  0  0  0
    0.9130    0.7020   -0.3800 C   0  0  0  0  0  0  0  0  0  0  0  0
    1.4350    0.9640   -1.6300 C   0  0  0  0  0  0  0  0  0  0  0  0
    2.7040    0.6340   -1.9950 C   0  0  0  0  0  0  0  0  0  0  0  0
    3.5370    0.0050   -1.0920 C   0  0  0  0  0  0  0  0  0  0  0  0
    3.0310   -0.2650    0.1630 C   0  0  0  0  0  0  0  0  0  0  0  0
    1.7440    0.0720    0.5250 C   0  0  0  0  0  0  0  0  0  0  0  0
    1.2180   -0.1920    1.7850 O   0  0  0  0  0  0  0  0  0  0  0  0
    4.0470   -0.8970    0.8900 O   0  0  0  0  0  0  0  0  0  0  0  0
    4.9600   -1.4950   -0.0440 C   0  0  0  0  0  0  0  0  0  0  0  0
    4.9450   -0.4820   -1.1550 C   0  0  0  0  0  0  0  0  0  0  0  0
  1  2  2  0
  2  3  1  0
  2 12  1  0
  3  4  1  0
  4  5  1  0
  5  6  2  0
  5 11  1  0
  6  7  1  0
  7  8  1  0
  8  9  1  0
  9 10  1  0
  9 11  2  0
 12 13  2  0
 12 17  1  0
 13 14  1  0
 14 15  2  0
 15 16  1  0
 15 21  1  0
 16 17  2  0
 16 19  1  0
 17 18  1  0
 19 20  1  0
 20 21  1  0
M  END
