
     RDKit          3D

 21 23  0  0  0  0  0  0  0  0999 V2000
    0.3640    2.7680    1.3540 C   0  0  0  0  0  0  0  0  0  0  0  0
    0.0040    1.5250    0.7780 O   0  0  0  0  0  0  0  0  0  0  0  0
    1.0300    0.6700    0.4110 C   0  0  0  0  0  0  0  0  0  0  0  0
    2.3710    0.9930    0.5880 C   0  0  0  0  0  0  0  0  0  0  0  0
    3.3610    0.0990    0.2020 C   0  0  0  0  0  0  0  0  0  0  0  0
    3.0570   -1.1220   -0.3620 C   0  0  0  0  0  0  0  0  0  0  0  0
    1.7010   -1.4240   -0.5310 C   0  0  0  0  0  0  0  0  0  0  0  0
    0.7190   -0.5440   -0.1510 C   0  0  0  0  0  0  0  0  0  0  0  0
   -0.7260   -0.8630   -0.3290 C   0  0  0  0  0  0  0  0  0  0  0  0
   -0.9520   -1.9730   -0.8410 O   0  0  0  0  0  0  0  0  0  0  0  0
   -1.7020   -0.0610    0.0160 O   0  0  0  0  0  0  0  0  0  0  0  0
   -3.0350   -0.0880   -0.0260 C   0  0  0  0  0  0  0  0  0  0  0  0
   -3.6420    1.0340    0.4720 C   0  0  0  0  0  0  0  0  0  0  0  0
   -5.0780    1.2340    0.5320 C   0  0  0  0  0  0  0  0  0  0  0  0
   -5.8250    0.1540    0.0220 O   0  0  0  0  0  0  0  0  0  0  0  0
   -5.2410   -0.9710   -0.4790 C   0  0  0  0  0  0  0  0  0  0  0  0
   -3.9090   -1.1230   -0.5190 C   0  0  0  0  0  0  0  0  0  0  0  0
   -3.3130   -2.6160   -1.1870 Cl  0  0  0  0  0  0  0  0  0  0  0  0
    4.3130   -1.8210   -0.6540 C   0  0  0  0  0  0  0  0  0  0  0  0
    5.3170   -1.1010    0.2250 C   0  0  0  0  0  0  0  0  0  0  0  0
    4.7610    0.2090    0.2840 O   0  0  0  0  0  0  0  0  0  0  0  0
  1  2  1  0
  2  3  1  0
  3  4  2  0
  3  8  1  0
  4  5  1  0
  5  6  2  0
  5 21  1  0
  6  7  1  0
  6 19  1  0
  7  8  2  0
  8  9  1  0
  9 10  2  0
  9 11  1  0
 11 12  1  0
 12 13  2  0
 12 17  1  0
 13 14  1  0
 14 15  1  0
 15 16  1  0
 16 17  2  0
 17 18  1  0
 19 20  1  0
 20 21  1  0
M  END
