
     RDKit          3D

 21 22  0  0  0  0  0  0  0  0999 V2000
   -5.1690    1.2900   -0.1240 C   0  0  0  0  0  0  0  0  0  0  0  0
   -4.5070   -0.0670   -0.2510 C   0  0  2  0  0  0  0  0  0  0  0  0
   -5.2360   -1.1430    0.4850 C   0  0  0  0  0  0  0  0  0  0  0  0
   -3.1900    0.0430    0.2210 O   0  0  0  0  0  0  0  0  0  0  0  0
   -2.0570   -0.1230   -0.5210 C   0  0  0  0  0  0  0  0  0  0  0  0
   -2.2320   -0.4060   -1.7570 O   0  0  0  0  0  0  0  0  0  0  0  0
   -0.6870   -0.0150   -0.0610 C   0  0  0  0  0  0  0  0  0  0  0  0
    0.3570   -0.2230   -0.9790 C   0  0  0  0  0  0  0  0  0  0  0  0
    1.6760   -0.1390   -0.6280 C   0  0  0  0  0  0  0  0  0  0  0  0
    2.7090   -0.3410   -1.5210 C   0  0  0  0  0  0  0  0  0  0  0  0
    4.0400   -0.2590   -1.1730 C   0  0  0  0  0  0  0  0  0  0  0  0
    5.1230   -0.4860   -2.1770 C   0  0  0  0  0  0  0  0  0  0  0  0
    4.3980   -0.8450   -3.7390 Cl  0  0  0  0  0  0  0  0  0  0  0  0
    4.3240    0.0430    0.1420 C   0  0  0  0  0  0  0  0  0  0  0  0
    5.6620    0.1260    0.4940 O   0  0  0  0  0  0  0  0  0  0  0  0
    3.3040    0.2470    1.0470 C   0  0  0  0  0  0  0  0  0  0  0  0
    3.5820    0.5480    2.3620 O   0  0  0  0  0  0  0  0  0  0  0  0
    1.9640    0.1610    0.6850 C   0  0  0  0  0  0  0  0  0  0  0  0
    0.9540    0.3660    1.5920 C   0  0  0  0  0  0  0  0  0  0  0  0
   -0.4090    0.2850    1.2490 C   0  0  0  0  0  0  0  0  0  0  0  0
   -1.3520    0.5040    2.2200 O   0  0  0  0  0  0  0  0  0  0  0  0
  2  1  1  1
  2  3  1  0
  2  4  1  0
  4  5  1  0
  5  6  2  0
  5  7  1  0
  7  8  2  0
  7 20  1  0
  8  9  1  0
  9 10  2  0
  9 18  1  0
 10 11  1  0
 11 12  1  0
 11 14  2  0
 12 13  1  0
 14 15  1  0
 14 16  1  0
 16 17  1  0
 16 18  2  0
 18 19  1  0
 19 20  2  0
 20 21  1  0
M  END
