
     RDKit          3D

 11 12  0  0  0  0  0  0  0  0999 V2000
   -3.0960   -1.5460   -0.1190 Cl  0  0  0  0  0  0  0  0  0  0  0  0
   -1.5950   -0.6190   -0.0390 C   0  0  0  0  0  0  0  0  0  0  0  0
   -1.7050    0.7470    0.1320 C   0  0  0  0  0  0  0  0  0  0  0  0
   -0.5340    1.4630    0.1930 C   0  0  0  0  0  0  0  0  0  0  0  0
   -0.5620    3.1830    0.4070 Cl  0  0  0  0  0  0  0  0  0  0  0  0
    0.7030    0.8350    0.0870 C   0  0  0  0  0  0  0  0  0  0  0  0
    1.9750    1.2820    0.1120 N   0  0  0  0  0  0  0  0  0  0  0  0
    2.7870    0.2650   -0.0330 N   0  0  0  0  0  0  0  0  0  0  0  0
    2.1030   -0.8720   -0.1570 N   0  0  0  0  0  0  0  0  0  0  0  0
    0.7930   -0.5330   -0.0850 C   0  0  0  0  0  0  0  0  0  0  0  0
   -0.3840   -1.2520   -0.1460 C   0  0  0  0  0  0  0  0  0  0  0  0
  1  2  1  0
  2  3  2  0
  2 11  1  0
  3  4  1  0
  4  5  1  0
  4  6  2  0
  6  7  1  0
  6 10  1  0
  7  8  2  0
  8  9  1  0
  9 10  1  0
 10 11  2  0
M  END
