
     RDKit          3D

 10 10  0  0  0  0  0  0  0  0999 V2000
    2.1710   -1.3240    0.0430 C   0  0  0  0  0  0  0  0  0  0  0  0
    1.1120   -0.2780    0.1030 C   0  0  0  0  0  0  0  0  0  0  0  0
   -0.2370   -0.6060    0.0200 C   0  0  0  0  0  0  0  0  0  0  0  0
   -1.1880    0.3910    0.0800 C   0  0  0  0  0  0  0  0  0  0  0  0
   -2.6520    0.1050   -0.0040 C   0  0  0  0  0  0  0  0  0  0  0  0
   -2.8390   -1.2650   -0.1450 O   0  0  0  0  0  0  0  0  0  0  0  0
   -0.7320    1.6840    0.2230 C   0  0  0  0  0  0  0  0  0  0  0  0
    0.5910    1.9790    0.3020 N   0  0  0  0  0  0  0  0  0  0  0  0
    1.5410    1.0280    0.2470 C   0  0  0  0  0  0  0  0  0  0  0  0
    2.8910    1.3410    0.3290 O   0  0  0  0  0  0  0  0  0  0  0  0
  1  2  1  0
  2  3  2  0
  2  9  1  0
  3  4  1  0
  4  5  1  0
  4  7  2  0
  5  6  1  0
  7  8  1  0
  8  9  2  0
  9 10  1  0
M  END
