
     RDKit          3D

 10 10  0  0  0  0  0  0  0  0999 V2000
    1.9390    1.4670    0.9000 O   0  0  0  0  0  0  0  0  0  0  0  0
    1.5560    0.3790    0.4020 C   0  0  0  0  0  0  0  0  0  0  0  0
    2.5390   -0.6020    0.1360 N   0  0  0  0  0  0  0  0  0  0  0  0
    3.8650   -0.3590    0.4190 O   0  0  0  0  0  0  0  0  0  0  0  0
    0.1480    0.1630    0.1190 C   0  0  0  0  0  0  0  0  0  0  0  0
   -0.7700    1.1780    0.4090 C   0  0  0  0  0  0  0  0  0  0  0  0
   -2.1220    1.0500    0.1690 C   0  0  0  0  0  0  0  0  0  0  0  0
   -2.6290   -0.1090   -0.3760 C   0  0  0  0  0  0  0  0  0  0  0  0
   -1.7410   -1.1220   -0.6690 C   0  0  0  0  0  0  0  0  0  0  0  0
   -0.3670   -0.9920   -0.4260 C   0  0  0  0  0  0  0  0  0  0  0  0
  1  2  2  0
  2  3  1  0
  2  5  1  0
  3  4  1  0
  5  6  2  0
  5 10  1  0
  6  7  1  0
  7  8  2  0
  8  9  1  0
  9 10  2  0
M  END
