
     RDKit          3D

 28 29  0  0  0  0  0  0  0  0999 V2000
    5.4440   -1.1670   -0.3070 O   0  0  0  0  0  0  0  0  0  0  0  0
    4.6900   -0.2740    0.1320 C   0  0  0  0  0  0  0  0  0  0  0  0
    5.2490    0.8450    0.6500 O   0  0  0  0  0  0  0  0  0  0  0  0
    6.5900    1.2050    0.7790 C   0  0  0  0  0  0  0  0  0  0  0  0
    7.2730    1.3560   -0.5360 C   0  0  0  0  0  0  0  0  0  0  0  0
    7.3020    0.2310   -1.3180 O   0  0  0  0  0  0  0  0  0  0  0  0
    3.2380   -0.4950    0.0570 C   0  0  0  0  0  0  0  0  0  0  0  0
    2.3680    0.4220    0.5930 C   0  0  0  0  0  0  0  0  0  0  0  0
    0.9770    0.2160    0.5010 C   0  0  0  0  0  0  0  0  0  0  0  0
    0.4650   -0.8980   -0.1230 C   0  0  0  0  0  0  0  0  0  0  0  0
   -0.9530   -1.0250   -0.3200 C   0  0  0  0  0  0  0  0  0  0  0  0
   -1.2800   -1.6520   -1.3950 O   0  0  0  0  0  0  0  0  0  0  0  0
   -2.0050   -0.5540    0.5260 N   0  0  0  0  0  0  0  0  0  0  0  0
   -1.8480    0.1410    1.7700 C   0  0  0  0  0  0  0  0  0  0  0  0
   -3.1080   -0.1180    2.5430 C   0  0  0  0  0  0  0  0  0  0  0  0
   -4.1030   -0.6460    1.5870 C   0  0  0  0  0  0  0  0  0  0  0  0
   -3.4180   -0.7620    0.2690 C   0  0  1  0  0  0  0  0  0  0  0  0
   -4.0420   -0.0900   -0.8440 C   0  0  0  0  0  0  0  0  0  0  0  0
   -4.3610   -0.8840   -1.9080 C   0  0  0  0  0  0  0  0  0  0  0  0
   -4.1140   -2.2340   -1.9250 O   0  0  0  0  0  0  0  0  0  0  0  0
   -4.4060    1.2950   -1.0390 C   0  0  0  0  0  0  0  0  0  0  0  0
   -5.0030    1.5650   -2.3310 O   0  0  0  0  0  0  0  0  0  0  0  0
   -4.3040    2.3290   -0.2870 C   0  0  0  0  0  0  0  0  0  0  0  0
   -3.8280    2.5550    0.9590 O   0  0  0  0  0  0  0  0  0  0  0  0
    1.3610   -1.7960   -0.6460 C   0  0  0  0  0  0  0  0  0  0  0  0
    0.9820   -2.9510   -1.2840 O   0  0  0  0  0  0  0  0  0  0  0  0
    2.7400   -1.6060   -0.5630 C   0  0  0  0  0  0  0  0  0  0  0  0
    3.8740   -2.7860   -1.2360 Cl  0  0  0  0  0  0  0  0  0  0  0  0
  1  2  2  0
  2  3  1  0
  2  7  1  0
  3  4  1  0
  4  5  1  0
  5  6  1  0
  7  8  2  0
  7 27  1  0
  8  9  1  0
  9 10  2  0
 10 11  1  0
 10 25  1  0
 11 12  2  0
 11 13  1  0
 13 14  1  0
 13 17  1  0
 14 15  1  0
 15 16  1  0
 16 17  1  0
 17 18  1  6
 18 19  2  3
 18 21  1  0
 19 20  1  0
 21 22  1  0
 21 23  2  3
 23 24  1  0
 25 26  1  0
 25 27  2  0
 27 28  1  0
M  END
