
     RDKit          3D

 27 28  0  0  0  0  0  0  0  0999 V2000
   -4.7260   -2.4430    0.9090 C   0  0  0  0  0  0  0  0  0  0  0  0
   -5.2980   -1.1100    0.5540 C   0  0  0  0  0  0  0  0  0  0  0  0
   -6.5230   -0.9890    0.6240 O   0  0  0  0  0  0  0  0  0  0  0  0
   -4.4000   -0.0410    0.1510 C   0  0  0  0  0  0  0  0  0  0  0  0
   -3.0270   -0.2720    0.1170 C   0  0  0  0  0  0  0  0  0  0  0  0
   -2.1000    0.6790   -0.2480 C   0  0  0  0  0  0  0  0  0  0  0  0
   -0.7390    0.4150   -0.2710 O   0  0  0  0  0  0  0  0  0  0  0  0
    0.0060    0.5940    0.8560 C   0  0  0  0  0  0  0  0  0  0  0  0
   -0.6560    1.0120    1.8860 O   0  0  0  0  0  0  0  0  0  0  0  0
    1.4180    0.3750    1.0290 C   0  0  0  0  0  0  0  0  0  0  0  0
    2.1470   -0.0300   -0.1680 C   0  0  0  0  0  0  0  0  0  0  0  0
    1.7240   -0.2040   -1.3870 C   0  0  0  0  0  0  0  0  0  0  0  0
    2.6570   -0.6060   -2.3760 O   0  0  0  0  0  0  0  0  0  0  0  0
    3.6180   -0.2870    0.0380 C   0  0  0  0  0  0  0  0  0  0  0  0
    4.3020   -0.1770    1.2150 C   0  0  0  0  0  0  0  0  0  0  0  0
    5.6090   -0.5040    0.9390 C   0  0  0  0  0  0  0  0  0  0  0  0
    5.6660   -0.8010   -0.4050 C   0  0  0  0  0  0  0  0  0  0  0  0
    6.8860   -1.2040   -1.1250 C   0  0  0  0  0  0  0  0  0  0  0  0
    8.1160   -1.3040   -0.4240 N   0  0  0  0  0  0  0  0  0  0  0  0
    6.7950   -1.4500   -2.3510 O   0  0  0  0  0  0  0  0  0  0  0  0
    4.4660   -0.6560   -0.8810 O   0  0  0  0  0  0  0  0  0  0  0  0
   -2.5900    1.9270   -0.5950 C   0  0  0  0  0  0  0  0  0  0  0  0
   -1.7050    2.9240   -0.9710 O   0  0  0  0  0  0  0  0  0  0  0  0
   -3.9360    2.2140   -0.5800 C   0  0  0  0  0  0  0  0  0  0  0  0
   -4.8250    1.2280   -0.2080 C   0  0  0  0  0  0  0  0  0  0  0  0
   -6.2900    1.4860   -0.1770 C   0  0  0  0  0  0  0  0  0  0  0  0
   -6.9100    1.6920    1.4700 Cl  0  0  0  0  0  0  0  0  0  0  0  0
  1  2  1  0
  2  3  2  0
  2  4  1  0
  4  5  2  0
  4 25  1  0
  5  6  1  0
  6  7  1  0
  6 22  2  0
  7  8  1  0
  8  9  2  0
  8 10  1  0
 10 11  1  0
 11 12  2  3
 11 14  1  0
 12 13  1  0
 14 15  2  0
 14 21  1  0
 15 16  1  0
 16 17  2  0
 17 18  1  0
 17 21  1  0
 18 19  1  0
 18 20  2  0
 22 23  1  0
 22 24  1  0
 24 25  2  0
 25 26  1  0
 26 27  1  0
M  END
