
     RDKit          3D

 24 26  0  0  0  0  0  0  0  0999 V2000
   -2.5160    1.8010    2.2270 C   0  0  0  0  0  0  0  0  0  0  0  0
   -3.3800    0.9120    1.3170 C   0  0  0  0  0  0  0  0  0  0  0  0
   -2.3940    0.3240    0.3120 C   0  0  0  0  0  0  0  0  0  0  0  0
   -3.0440   -0.5350   -0.6200 N   0  0  2  0  0  0  0  0  0  0  0  0
   -4.3090   -1.0360   -0.0320 C   0  0  0  0  0  0  0  0  0  0  0  0
   -5.0760   -1.7710   -1.0910 C   0  0  0  0  0  0  0  0  0  0  0  0
   -4.2360   -2.4340   -2.0310 N   0  0  0  0  0  0  0  0  0  0  0  0
   -2.8250   -2.5610   -1.7760 C   0  0  0  0  0  0  0  0  0  0  0  0
   -2.2360   -1.6300   -1.0880 C   0  0  0  0  0  0  0  0  0  0  0  0
   -0.7780   -1.8180   -0.9140 C   0  0  0  0  0  0  0  0  0  0  0  0
    0.1920   -0.9670   -0.7530 C   0  0  0  0  0  0  0  0  0  0  0  0
    1.5620   -1.3760   -0.5950 C   0  0  0  0  0  0  0  0  0  0  0  0
    2.5960   -0.5610   -0.4320 C   0  0  0  0  0  0  0  0  0  0  0  0
    4.3240   -1.3870   -0.2450 Br  0  0  0  0  0  0  0  0  0  0  0  0
    2.4630    0.8510   -0.3760 C   0  0  0  0  0  0  0  0  0  0  0  0
    3.3170    1.7960   -0.2340 C   0  0  0  0  0  0  0  0  0  0  0  0
    4.7630    1.7080   -0.0790 C   0  0  1  0  0  0  0  0  0  0  0  0
    5.4950    2.9200   -0.7450 C   0  0  0  0  0  0  0  0  0  0  0  0
    6.4360    2.9380    0.4410 C   0  0  0  0  0  0  0  0  0  0  0  0
    5.2980    2.2780    1.2300 C   0  0  0  0  0  0  0  0  0  0  0  0
   -0.6480   -3.5920   -1.0690 S   0  0  1  0  0  0  0  0  0  0  0  0
    0.6100   -3.9510   -1.7550 O   0  0  0  0  0  0  0  0  0  0  0  0
   -0.9230   -4.2820    0.2000 O   0  0  0  0  0  0  0  0  0  0  0  0
   -2.0000   -3.6500   -2.1830 N   0  0  0  0  0  0  0  0  0  0  0  0
  1  2  1  0
  2  3  1  0
  4  3  1  1
  4  5  1  0
  4  9  1  0
  5  6  1  0
  6  7  1  0
  7  8  1  0
  8  9  2  0
  8 24  1  0
  9 10  1  0
 10 11  2  3
 10 21  1  0
 11 12  1  0
 12 13  2  3
 13 14  1  0
 13 15  1  0
 15 16  2  3
 17 16  1  1
 17 18  1  0
 17 20  1  0
 18 19  1  0
 19 20  1  0
 21 22  2  0
 21 23  2  0
 21 24  1  6
M  CHG  1   4   1
M  END
