
     RDKit          3D

 24 27  0  0  0  0  0  0  0  0999 V2000
    0.6180   -3.9210   -0.7060 C   0  0  0  0  0  0  0  0  0  0  0  0
   -0.2740   -2.9030   -0.3430 O   0  0  0  0  0  0  0  0  0  0  0  0
    0.2670   -1.6250   -0.0950 C   0  0  0  0  0  0  0  0  0  0  0  0
    1.5830   -1.4060   -0.2040 N   0  0  0  0  0  0  0  0  0  0  0  0
    2.0930   -0.2020    0.0310 C   0  0  0  0  0  0  0  0  0  0  0  0
    3.4600    0.0590   -0.0720 C   0  0  0  0  0  0  0  0  0  0  0  0
    4.3230   -1.0750   -0.4630 C   0  0  0  0  0  0  0  0  0  0  0  0
    3.9940    1.3310    0.1790 C   0  0  0  0  0  0  0  0  0  0  0  0
    5.3630    1.6220    0.0850 C   0  0  0  0  0  0  0  0  0  0  0  0
    6.8330    0.4540   -0.3870 Br  0  0  0  0  0  0  0  0  0  0  0  0
    5.4460    3.3250    0.5000 S   0  0  0  0  0  0  0  0  0  0  0  0
    3.6990    3.5890    0.7790 C   0  0  0  0  0  0  0  0  0  0  0  0
    3.1550    2.2910    0.5220 C   0  0  0  0  0  0  0  0  0  0  0  0
    1.7980    2.0100    0.6180 N   0  0  0  0  0  0  0  0  0  0  0  0
    1.2660    0.8240    0.3880 C   0  0  0  0  0  0  0  0  0  0  0  0
   -0.1180    0.6370    0.5130 C   0  0  0  0  0  0  0  0  0  0  0  0
   -0.6310   -0.6110    0.2670 C   0  0  0  0  0  0  0  0  0  0  0  0
   -2.0670   -0.9110    0.3770 C   0  0  2  0  0  0  0  0  0  0  0  0
   -2.5020   -1.7010   -0.7290 N   0  0  0  0  0  0  0  0  0  0  0  0
   -2.8720    0.3120    0.6140 C   0  0  1  0  0  0  0  0  0  0  0  0
   -3.0910    1.1710   -0.6130 C   0  0  0  0  0  0  0  0  0  0  0  0
   -4.1650    2.1210   -0.0590 C   0  0  0  0  0  0  0  0  0  0  0  0
   -4.9030    1.1870    0.8770 C   0  0  0  0  0  0  0  0  0  0  0  0
   -4.2120   -0.0190    0.9000 O   0  0  0  0  0  0  0  0  0  0  0  0
  1  2  1  0
  2  3  1  0
  3  4  2  0
  3 17  1  0
  4  5  1  0
  5  6  2  0
  5 15  1  0
  6  7  1  0
  6  8  1  0
  8  9  2  0
  8 13  1  0
  9 10  1  0
  9 11  1  0
 11 12  1  0
 12 13  2  0
 13 14  1  0
 14 15  2  0
 15 16  1  0
 16 17  2  0
 17 18  1  0
 18 19  1  6
 18 20  1  0
 20 21  1  6
 20 24  1  0
 21 22  1  0
 22 23  1  0
 23 24  1  0
M  CHG  1  19   1
M  END
