
     RDKit          3D

 19 20  0  0  0  0  0  0  0  0999 V2000
   -4.5420   -0.1170    0.7090 N   0  0  0  0  0  0  0  0  0  0  0  0
   -3.2700    0.4950    0.6350 C   0  0  0  0  0  0  0  0  0  0  0  0
   -2.9900    1.5240    1.3520 N   0  0  0  0  0  0  0  0  0  0  0  0
   -3.9520    2.0170    2.1920 O   0  0  0  0  0  0  0  0  0  0  0  0
   -5.6010    1.9430    1.6990 Cl  0  0  0  0  0  0  0  0  0  0  0  0
   -2.2180   -0.0120   -0.2590 C   0  0  0  0  0  0  0  0  0  0  0  0
   -1.0740    0.5630   -0.3060 N   0  0  0  0  0  0  0  0  0  0  0  0
   -0.0180    0.1300   -1.1360 N   0  0  0  0  0  0  0  0  0  0  0  0
    1.2640    0.8020   -1.1790 C   0  0  0  0  0  0  0  0  0  0  0  0
    2.2390    0.2330   -0.1750 C   0  0  1  0  0  0  0  0  0  0  0  0
    3.5770    0.8900   -0.3140 C   0  0  0  0  0  0  0  0  0  0  0  0
    4.4990    0.2150    0.4960 O   0  0  0  0  0  0  0  0  0  0  0  0
    3.9170   -0.3580    1.6060 C   0  0  0  0  0  0  0  0  0  0  0  0
    2.7690    0.5200    2.0400 C   0  0  0  0  0  0  0  0  0  0  0  0
    1.7520    0.3590    1.1040 O   0  0  0  0  0  0  0  0  0  0  0  0
   -0.3000   -1.0100   -1.9360 C   0  0  0  0  0  0  0  0  0  0  0  0
    0.2580   -1.2190   -3.0230 O   0  0  0  0  0  0  0  0  0  0  0  0
   -1.3040   -1.9510   -1.4070 C   0  0  0  0  0  0  0  0  0  0  0  0
   -2.5570   -1.1760   -1.0940 C   0  0  0  0  0  0  0  0  0  0  0  0
  1  2  1  0
  2  3  2  3
  2  6  1  0
  3  4  1  0
  4  5  1  0
  6  7  2  0
  6 19  1  0
  7  8  1  0
  8  9  1  0
  8 16  1  0
 10  9  1  6
 10 11  1  0
 10 15  1  0
 11 12  1  0
 12 13  1  0
 13 14  1  0
 14 15  1  0
 16 17  2  0
 16 18  1  0
 18 19  1  0
M  END
