
     RDKit          3D

 11 12  0  0  0  0  0  0  0  0999 V2000
    3.6060   -0.3900   -0.1110 Cl  0  0  0  0  0  0  0  0  0  0  0  0
    1.8550   -0.1960   -0.0570 C   0  0  0  0  0  0  0  0  0  0  0  0
    1.3220    1.0750   -0.0120 C   0  0  0  0  0  0  0  0  0  0  0  0
   -0.0490    1.2860    0.0310 C   0  0  0  0  0  0  0  0  0  0  0  0
   -0.7440    2.8700    0.0870 Cl  0  0  0  0  0  0  0  0  0  0  0  0
   -0.9080    0.1990    0.0300 C   0  0  0  0  0  0  0  0  0  0  0  0
   -2.2470    0.0870    0.0650 N   0  0  0  0  0  0  0  0  0  0  0  0
   -2.5350   -1.2120    0.0430 N   0  0  0  0  0  0  0  0  0  0  0  0
   -1.4140   -1.9120   -0.0040 N   0  0  0  0  0  0  0  0  0  0  0  0
   -0.3510   -1.0560   -0.0140 C   0  0  0  0  0  0  0  0  0  0  0  0
    1.0040   -1.2810   -0.0580 C   0  0  0  0  0  0  0  0  0  0  0  0
  1  2  1  0
  2  3  2  0
  2 11  1  0
  3  4  1  0
  4  5  1  0
  4  6  2  0
  6  7  1  0
  6 10  1  0
  7  8  1  0
  8  9  2  0
  9 10  1  0
 10 11  2  0
M  END
