
     RDKit          3D

 19 20  0  0  0  0  0  0  0  0999 V2000
    5.0050    0.2100   -0.1660 C   0  0  0  0  0  0  0  0  0  0  0  0
    4.2240   -0.5060   -1.2220 C   0  0  0  0  0  0  0  0  0  0  0  0
    3.1680   -1.2530   -0.7330 O   0  0  0  0  0  0  0  0  0  0  0  0
    2.2390   -0.4690   -0.0480 C   0  0  1  0  0  0  0  0  0  0  0  0
    0.9120   -0.5020   -0.6610 C   0  0  0  0  0  0  0  0  0  0  0  0
   -0.1870   -0.2050    0.0390 C   0  0  0  0  0  0  0  0  0  0  0  0
   -1.4790   -0.2450   -0.5990 C   0  0  0  0  0  0  0  0  0  0  0  0
   -2.6700   -0.0080   -0.1670 C   0  0  0  0  0  0  0  0  0  0  0  0
   -3.0210    0.3780    1.1420 N   0  0  0  0  0  0  0  0  0  0  0  0
   -4.2120    0.6120    1.5670 C   0  0  0  0  0  0  0  0  0  0  0  0
   -4.5190    1.0910    3.2360 Cl  0  0  0  0  0  0  0  0  0  0  0  0
   -5.3750    0.4930    0.6830 C   0  0  0  0  0  0  0  0  0  0  0  0
   -6.5460    0.7250    1.1060 O   0  0  0  0  0  0  0  0  0  0  0  0
   -5.1160    0.1100   -0.6490 N   0  0  0  0  0  0  0  0  0  0  0  0
   -3.8110   -0.1330   -1.0610 N   0  0  0  0  0  0  0  0  0  0  0  0
    0.0230    0.1250    1.4440 C   0  0  0  0  0  0  0  0  0  0  0  0
   -0.8970    0.4240    2.2170 O   0  0  0  0  0  0  0  0  0  0  0  0
    1.3890    0.0870    1.9110 N   0  0  0  0  0  0  0  0  0  0  0  0
    2.1790   -0.8090    1.2960 O   0  0  0  0  0  0  0  0  0  0  0  0
  1  2  1  0
  2  3  1  0
  4  3  1  6
  4  5  1  0
  4 19  1  0
  5  6  2  0
  6  7  1  0
  6 16  1  0
  7  8  2  3
  8  9  1  0
  8 15  1  0
  9 10  2  0
 10 11  1  0
 10 12  1  0
 12 13  2  0
 12 14  1  0
 14 15  1  0
 16 17  2  0
 16 18  1  0
 18 19  1  0
M  END
