
     RDKit          3D

 19 20  0  0  0  0  0  0  0  0999 V2000
   -0.3450   -2.7950   -0.6310 C   0  0  0  0  0  0  0  0  0  0  0  0
   -0.1620   -1.3740   -0.0630 C   0  0  2  0  0  0  0  0  0  0  0  0
   -0.9480   -0.4530   -0.7140 O   0  0  0  0  0  0  0  0  0  0  0  0
   -1.9310    0.3160   -0.1680 C   0  0  0  0  0  0  0  0  0  0  0  0
   -2.2950    0.2860    1.1490 C   0  0  0  0  0  0  0  0  0  0  0  0
   -3.2930    1.0860    1.6390 N   0  0  0  0  0  0  0  0  0  0  0  0
   -3.9530    1.9320    0.8360 C   0  0  0  0  0  0  0  0  0  0  0  0
   -4.8790    2.6920    1.2260 O   0  0  0  0  0  0  0  0  0  0  0  0
   -3.6150    1.9780   -0.4520 N   0  0  0  0  0  0  0  0  0  0  0  0
   -2.6500    1.2170   -0.9680 C   0  0  0  0  0  0  0  0  0  0  0  0
   -2.2210    1.2920   -2.6630 Cl  0  0  0  0  0  0  0  0  0  0  0  0
    1.2990   -1.0410   -0.1460 C   0  0  0  0  0  0  0  0  0  0  0  0
    1.8370   -0.0810   -0.7840 N   0  0  0  0  0  0  0  0  0  0  0  0
    3.2850   -0.1040   -0.6090 C   0  0  1  0  0  0  0  0  0  0  0  0
    3.7230    1.1690    0.1160 C   0  0  0  0  0  0  0  0  0  0  0  0
    3.0710    1.2340    1.4230 C   0  0  0  0  0  0  0  0  0  0  0  0
    2.5660    1.3010    2.4650 N   0  0  0  0  0  0  0  0  0  0  0  0
    3.4960   -1.1950    0.2190 O   0  0  0  0  0  0  0  0  0  0  0  0
    2.3090   -1.7500    0.4800 O   0  0  0  0  0  0  0  0  0  0  0  0
  2  1  1  6
  2  3  1  0
  2 12  1  0
  3  4  1  0
  4  5  1  0
  4 10  2  0
  5  6  2  0
  6  7  1  0
  7  8  2  0
  7  9  1  0
  9 10  1  0
 10 11  1  0
 12 13  2  0
 12 19  1  0
 13 14  1  0
 14 15  1  1
 14 18  1  0
 15 16  1  0
 16 17  3  0
 18 19  1  0
M  END
