
     RDKit          3D

 20 21  0  0  0  0  0  0  0  0999 V2000
   -6.2320   -1.1230   -1.4990 C   0  0  0  0  0  0  0  0  0  0  0  0
   -6.7070   -0.3570   -0.4570 O   0  0  0  0  0  0  0  0  0  0  0  0
   -6.0470   -0.5480    0.7310 C   0  0  0  0  0  0  0  0  0  0  0  0
   -4.6040   -0.2370    0.6740 C   0  0  0  0  0  0  0  0  0  0  0  0
   -3.9540    0.9480    0.9150 C   0  0  0  0  0  0  0  0  0  0  0  0
   -2.6360    0.9900    0.8010 C   0  0  0  0  0  0  0  0  0  0  0  0
   -1.9660   -0.1600    0.4440 C   0  0  0  0  0  0  0  0  0  0  0  0
   -0.5410   -0.4130    0.2450 C   0  0  0  0  0  0  0  0  0  0  0  0
   -0.2140   -1.5660   -0.0800 O   0  0  0  0  0  0  0  0  0  0  0  0
    0.4410    0.5820    0.4060 N   0  0  0  0  0  0  0  0  0  0  0  0
    1.8340    0.4330    0.2380 C   0  0  0  0  0  0  0  0  0  0  0  0
    2.6250    1.5670    0.3750 C   0  0  0  0  0  0  0  0  0  0  0  0
    3.9810    1.5910    0.2470 C   0  0  0  0  0  0  0  0  0  0  0  0
    4.6970    2.8110    0.4070 N   0  0  0  0  0  0  0  0  0  0  0  0
    4.6280    0.4120   -0.0390 C   0  0  0  0  0  0  0  0  0  0  0  0
    3.8930   -0.7410   -0.1850 C   0  0  0  0  0  0  0  0  0  0  0  0
    4.5460   -1.9130   -0.4710 O   0  0  0  0  0  0  0  0  0  0  0  0
    5.9500   -1.9530   -0.6160 C   0  0  0  0  0  0  0  0  0  0  0  0
    2.4970   -0.7290   -0.0460 C   0  0  0  0  0  0  0  0  0  0  0  0
   -3.2780   -1.3200    0.2720 S   0  0  0  0  0  0  0  0  0  0  0  0
  1  2  1  0
  2  3  1  0
  3  4  1  0
  4  5  2  0
  4 20  1  0
  5  6  1  0
  6  7  2  0
  7  8  1  0
  7 20  1  0
  8  9  2  0
  8 10  1  0
 10 11  1  0
 11 12  2  0
 11 19  1  0
 12 13  1  0
 13 14  1  0
 13 15  2  0
 15 16  1  0
 16 17  1  0
 16 19  2  0
 17 18  1  0
M  END
