
     RDKit          3D

  9 10  0  0  0  0  0  0  0  0999 V2000
   -1.8170   -0.4590    0.0180 C   0  0  0  0  0  0  0  0  0  0  0  0
   -1.5260    0.8920    0.0260 C   0  0  0  0  0  0  0  0  0  0  0  0
   -0.1980    1.2880    0.0130 C   0  0  0  0  0  0  0  0  0  0  0  0
    0.8310    0.3760   -0.0070 C   0  0  0  0  0  0  0  0  0  0  0  0
    2.1780    0.5020   -0.0220 N   0  0  0  0  0  0  0  0  0  0  0  0
    2.6510   -0.7150   -0.0380 N   0  0  0  0  0  0  0  0  0  0  0  0
    1.6790   -1.6160   -0.0340 N   0  0  0  0  0  0  0  0  0  0  0  0
    0.4930   -0.9800   -0.0140 C   0  0  0  0  0  0  0  0  0  0  0  0
   -0.8190   -1.4080   -0.0020 C   0  0  0  0  0  0  0  0  0  0  0  0
  1  2  2  0
  1  9  1  0
  2  3  1  0
  3  4  2  0
  4  5  1  0
  4  8  1  0
  5  6  1  0
  6  7  2  0
  7  8  1  0
  8  9  2  0
M  END
