
     RDKit          3D

 21 22  0  0  0  0  0  0  0  0999 V2000
    3.4300    2.3700   -2.0360 N   0  0  0  0  0  0  0  0  0  0  0  0
    2.5910    1.4310   -1.3030 C   0  0  0  0  0  0  0  0  0  0  0  0
    1.3880    1.5870   -1.5130 O   0  0  0  0  0  0  0  0  0  0  0  0
    3.2120    0.4510   -0.4390 C   0  0  0  0  0  0  0  0  0  0  0  0
    4.6160    0.4590   -0.3940 C   0  0  0  0  0  0  0  0  0  0  0  0
    5.3160   -0.4310    0.3730 C   0  0  0  0  0  0  0  0  0  0  0  0
    6.6830   -0.4340    0.4260 F   0  0  0  0  0  0  0  0  0  0  0  0
    4.5970   -1.3430    1.1040 C   0  0  0  0  0  0  0  0  0  0  0  0
    3.1990   -1.3650    1.0710 C   0  0  0  0  0  0  0  0  0  0  0  0
    2.4860   -0.4770    0.3070 C   0  0  0  0  0  0  0  0  0  0  0  0
    1.0710   -0.4720    0.2900 N   0  0  0  0  0  0  0  0  0  0  0  0
    0.2760   -1.4580    0.9220 C   0  0  0  0  0  0  0  0  0  0  0  0
    0.7210   -2.4330    1.5530 O   0  0  0  0  0  0  0  0  0  0  0  0
   -1.2340   -1.3230    0.8280 C   0  0  0  0  0  0  0  0  0  0  0  0
   -1.6950    0.1290   -0.1100 S   0  0  0  0  0  0  0  0  0  0  0  0
   -3.4740    0.2210   -0.1770 C   0  0  0  0  0  0  0  0  0  0  0  0
   -4.0760    1.2080   -0.8160 C   0  0  0  0  0  0  0  0  0  0  0  0
   -5.5520    1.3460   -0.9120 C   0  0  0  0  0  0  0  0  0  0  0  0
   -6.2330    0.3260   -0.2570 O   0  0  0  0  0  0  0  0  0  0  0  0
   -5.6290   -0.7160    0.4170 C   0  0  0  0  0  0  0  0  0  0  0  0
   -4.3070   -0.7840    0.4660 C   0  0  0  0  0  0  0  0  0  0  0  0
  1  2  1  0
  2  3  2  0
  2  4  1  0
  4  5  2  0
  4 10  1  0
  5  6  1  0
  6  7  1  0
  6  8  2  0
  8  9  1  0
  9 10  2  0
 10 11  1  0
 11 12  1  0
 12 13  2  0
 12 14  1  0
 14 15  1  0
 15 16  1  0
 16 17  2  0
 16 21  1  0
 17 18  1  0
 18 19  1  0
 19 20  1  0
 20 21  2  0
M  END
