
     RDKit          3D

 21 22  0  0  0  0  0  0  0  0999 V2000
   -2.9080   -1.4990   -2.2840 C   0  0  0  0  0  0  0  0  0  0  0  0
   -3.7130   -1.1070   -1.1020 C   0  0  0  0  0  0  0  0  0  0  0  0
   -4.9210   -1.3230   -1.1320 O   0  0  0  0  0  0  0  0  0  0  0  0
   -3.1060   -0.4730    0.0910 C   0  0  0  0  0  0  0  0  0  0  0  0
   -3.7900   -0.1270    1.1270 C   0  0  0  0  0  0  0  0  0  0  0  0
   -5.2360   -0.2480    1.4030 C   0  0  0  0  0  0  0  0  0  0  0  0
   -5.6860    1.0840    1.6080 O   0  0  0  0  0  0  0  0  0  0  0  0
   -1.7070   -0.2850   -0.0170 N   0  0  0  0  0  0  0  0  0  0  0  0
   -0.8560    0.2800    0.9320 C   0  0  0  0  0  0  0  0  0  0  0  0
   -1.2420    0.7040    2.0360 O   0  0  0  0  0  0  0  0  0  0  0  0
    0.5940    0.3760    0.5990 C   0  0  0  0  0  0  0  0  0  0  0  0
    1.2800    0.0130   -0.4800 C   0  0  0  0  0  0  0  0  0  0  0  0
    2.6150    0.2340   -0.4880 C   0  0  0  0  0  0  0  0  0  0  0  0
    3.5250   -0.0690   -1.5170 C   0  0  0  0  0  0  0  0  0  0  0  0
    4.8450    0.2060   -1.3990 C   0  0  0  0  0  0  0  0  0  0  0  0
    5.4120    0.7890   -0.3000 C   0  0  0  0  0  0  0  0  0  0  0  0
    6.7890    1.0810   -0.1670 N   0  0  0  0  0  0  0  0  0  0  0  0
    4.5310    1.0980    0.7300 C   0  0  0  0  0  0  0  0  0  0  0  0
    4.9750    1.6790    1.8690 F   0  0  0  0  0  0  0  0  0  0  0  0
    3.1550    0.8050    0.5930 C   0  0  0  0  0  0  0  0  0  0  0  0
    1.8160    1.0580    1.6710 S   0  0  0  0  0  0  0  0  0  0  0  0
  1  2  1  0
  2  3  2  0
  2  4  1  0
  4  5  2  3
  4  8  1  0
  5  6  1  0
  6  7  1  0
  8  9  1  0
  9 10  2  0
  9 11  1  0
 11 12  2  0
 11 21  1  0
 12 13  1  0
 13 14  2  0
 13 20  1  0
 14 15  1  0
 15 16  2  0
 16 17  1  0
 16 18  1  0
 18 19  1  0
 18 20  2  0
 20 21  1  0
M  END
