
     RDKit          3D

 16 16  0  0  0  0  0  0  0  0999 V2000
    4.7390   -1.5020    1.1650 C   0  0  0  0  0  0  0  0  0  0  0  0
    4.2270   -0.5480    0.0670 C   0  0  0  0  0  0  0  0  0  0  0  0
    3.7520    0.6770    0.8020 C   0  0  0  0  0  0  0  0  0  0  0  0
    3.2850    1.6200   -0.0600 O   0  0  0  0  0  0  0  0  0  0  0  0
    2.2470    1.2000   -0.8320 C   0  0  0  0  0  0  0  0  0  0  0  0
    1.0720    0.7710    0.0040 C   0  0  0  0  0  0  0  0  0  0  0  0
    0.0630    0.3660   -0.9440 O   0  0  0  0  0  0  0  0  0  0  0  0
   -1.1410   -0.0800   -0.4220 C   0  0  0  0  0  0  0  0  0  0  0  0
   -1.3800   -0.1410    0.9400 C   0  0  0  0  0  0  0  0  0  0  0  0
   -2.5880   -0.5890    1.4300 C   0  0  0  0  0  0  0  0  0  0  0  0
   -2.8310   -0.6490    2.9020 C   0  0  0  0  0  0  0  0  0  0  0  0
   -3.5520   -0.9760    0.5220 C   0  0  0  0  0  0  0  0  0  0  0  0
   -3.3460   -0.9280   -0.8540 C   0  0  0  0  0  0  0  0  0  0  0  0
   -4.3970   -1.3480   -1.8070 C   0  0  0  0  0  0  0  0  0  0  0  0
   -2.1240   -0.4730   -1.3000 C   0  0  0  0  0  0  0  0  0  0  0  0
   -1.8410   -0.3970   -2.7530 C   0  0  0  0  0  0  0  0  0  0  0  0
  1  2  1  0
  2  3  1  0
  3  4  1  0
  4  5  1  0
  5  6  1  0
  6  7  1  0
  7  8  1  0
  8  9  2  0
  8 15  1  0
  9 10  1  0
 10 11  1  0
 10 12  2  0
 12 13  1  0
 13 14  1  0
 13 15  2  0
 15 16  1  0
M  END
