
     RDKit          3D

 16 16  0  0  0  0  0  0  0  0999 V2000
   -5.8580   -0.4410    0.5260 C   0  0  0  0  0  0  0  0  0  0  0  0
   -5.0330    0.8150    0.4150 C   0  0  0  0  0  0  0  0  0  0  0  0
   -3.5480    0.4470    0.4060 C   0  0  0  0  0  0  0  0  0  0  0  0
   -3.2380   -0.4470   -0.7570 C   0  0  0  0  0  0  0  0  0  0  0  0
   -1.9350   -0.8250   -0.8070 O   0  0  0  0  0  0  0  0  0  0  0  0
   -1.0740    0.2400   -0.9250 C   0  0  0  0  0  0  0  0  0  0  0  0
    0.3570   -0.2620   -1.0130 C   0  0  0  0  0  0  0  0  0  0  0  0
    0.8920   -0.5410   -2.2510 C   0  0  0  0  0  0  0  0  0  0  0  0
    2.2100   -1.0020   -2.3160 C   0  0  0  0  0  0  0  0  0  0  0  0
    2.9500   -1.1720   -1.1670 C   0  0  0  0  0  0  0  0  0  0  0  0
    2.4190   -0.8960    0.0690 C   0  0  0  0  0  0  0  0  0  0  0  0
    3.1540   -1.0550    1.3340 C   0  0  0  0  0  0  0  0  0  0  0  0
    3.9000    0.1940    1.7370 C   0  0  0  0  0  0  0  0  0  0  0  0
    4.8980    0.5270    0.6350 C   0  0  0  0  0  0  0  0  0  0  0  0
    5.5690    1.6920    1.0460 O   0  0  0  0  0  0  0  0  0  0  0  0
    1.1100   -0.4390    0.1100 C   0  0  0  0  0  0  0  0  0  0  0  0
  1  2  1  0
  2  3  1  0
  3  4  1  0
  4  5  1  0
  5  6  1  0
  6  7  1  0
  7  8  2  0
  7 16  1  0
  8  9  1  0
  9 10  2  0
 10 11  1  0
 11 12  1  0
 11 16  2  0
 12 13  1  0
 13 14  1  0
 14 15  1  0
M  END
