
     RDKit          3D

 14 14  0  0  0  0  0  0  0  0999 V2000
   -4.2620    0.2510   -0.9700 C   0  0  0  0  0  0  0  0  0  0  0  0
   -3.4970   -0.4730    0.1200 C   0  0  2  0  0  0  0  0  0  0  0  0
   -4.1250   -0.2260    1.4780 C   0  0  0  0  0  0  0  0  0  0  0  0
   -2.1930    0.0420    0.1440 O   0  0  0  0  0  0  0  0  0  0  0  0
   -1.0440   -0.6990   -0.0150 C   0  0  0  0  0  0  0  0  0  0  0  0
   -1.1450   -1.9260   -0.1960 O   0  0  0  0  0  0  0  0  0  0  0  0
    0.2550    0.0250    0.0410 C   0  0  0  0  0  0  0  0  0  0  0  0
    1.3450   -0.8390   -0.1340 O   0  0  0  0  0  0  0  0  0  0  0  0
    2.6160   -0.3020   -0.1050 C   0  0  0  0  0  0  0  0  0  0  0  0
    2.8660    0.9870   -0.0290 C   0  0  0  0  0  0  0  0  0  0  0  0
    4.2290    1.5580    0.0010 C   0  0  0  0  0  0  0  0  0  0  0  0
    5.2390    0.6010   -0.0580 O   0  0  0  0  0  0  0  0  0  0  0  0
    5.0170   -0.7490   -0.1380 C   0  0  0  0  0  0  0  0  0  0  0  0
    3.7550   -1.2100   -0.1620 C   0  0  0  0  0  0  0  0  0  0  0  0
  2  1  1  6
  2  3  1  0
  2  4  1  0
  4  5  1  0
  5  6  2  0
  5  7  1  0
  7  8  1  0
  8  9  1  0
  9 10  2  0
  9 14  1  0
 10 11  1  0
 11 12  1  0
 12 13  1  0
 13 14  2  0
M  END
