
     RDKit          3D

 16 16  0  0  0  0  0  0  0  0999 V2000
    3.3800    1.8720    0.1020 C   0  0  0  0  0  0  0  0  0  0  0  0
    3.3780    0.6100   -0.2070 C   0  0  0  0  0  0  0  0  0  0  0  0
    2.1220   -0.1530   -0.1720 C   0  0  0  0  0  0  0  0  0  0  0  0
    2.2160   -1.4060   -0.5010 C   0  0  0  0  0  0  0  0  0  0  0  0
    3.5330   -1.9820   -0.8780 C   0  0  0  0  0  0  0  0  0  0  0  0
    0.9460    0.5960    0.2320 C   0  0  0  0  0  0  0  0  0  0  0  0
   -0.3870   -0.0360    0.3340 C   0  0  2  0  0  0  0  0  0  0  0  0
   -1.2970    1.1210    0.7610 C   0  0  0  0  0  0  0  0  0  0  0  0
   -1.8970    1.0460    1.8110 O   0  0  0  0  0  0  0  0  0  0  0  0
   -1.4060    2.2210   -0.0690 O   0  0  0  0  0  0  0  0  0  0  0  0
   -2.2380    3.3290    0.2790 C   0  0  0  0  0  0  0  0  0  0  0  0
   -0.5570   -1.0680    1.3940 C   0  0  0  0  0  0  0  0  0  0  0  0
   -1.9630   -1.5680    1.4910 C   0  0  0  0  0  0  0  0  0  0  0  0
   -2.7490   -1.6130    0.2330 C   0  0  0  0  0  0  0  0  0  0  0  0
   -2.5050   -0.4940   -0.7290 C   0  0  0  0  0  0  0  0  0  0  0  0
   -0.9820   -0.4800   -0.9730 C   0  0  0  0  0  0  0  0  0  0  0  0
  1  2  2  0
  2  3  1  0
  3  4  2  3
  3  6  1  0
  4  5  1  0
  7  6  1  6
  7  8  1  0
  7 12  1  0
  7 16  1  0
  8  9  2  0
  8 10  1  0
 10 11  1  0
 12 13  1  0
 13 14  1  0
 14 15  1  0
 15 16  1  0
M  END
