
     RDKit          3D

 16 16  0  0  0  0  0  0  0  0999 V2000
    5.4980    1.2950   -0.3900 C   0  0  0  0  0  0  0  0  0  0  0  0
    5.2920    0.0000   -0.5990 C   0  0  0  0  0  0  0  0  0  0  0  0
    3.9690   -0.6360   -0.3710 C   0  0  0  0  0  0  0  0  0  0  0  0
    3.0200    0.4280    0.1150 C   0  0  0  0  0  0  0  0  0  0  0  0
    1.6300   -0.1070    0.3830 C   0  0  2  0  0  0  0  0  0  0  0  0
    1.6450   -1.1060    1.3570 O   0  0  0  0  0  0  0  0  0  0  0  0
    1.0200   -0.6290   -0.8950 C   0  0  0  0  0  0  0  0  0  0  0  0
   -0.2510   -1.0390   -0.6890 O   0  0  0  0  0  0  0  0  0  0  0  0
   -1.4370   -0.5270   -0.3220 C   0  0  0  0  0  0  0  0  0  0  0  0
   -1.7340    0.7710   -0.0210 C   0  0  0  0  0  0  0  0  0  0  0  0
   -3.0170    1.1490    0.3500 C   0  0  0  0  0  0  0  0  0  0  0  0
   -3.2960    2.5910    0.6720 C   0  0  0  0  0  0  0  0  0  0  0  0
   -4.0270    0.2170    0.4220 C   0  0  0  0  0  0  0  0  0  0  0  0
   -3.7730   -1.1190    0.1240 C   0  0  0  0  0  0  0  0  0  0  0  0
   -4.8760   -2.1300    0.2040 C   0  0  0  0  0  0  0  0  0  0  0  0
   -2.4970   -1.4550   -0.2370 C   0  0  0  0  0  0  0  0  0  0  0  0
  1  2  2  0
  2  3  1  0
  3  4  1  0
  4  5  1  0
  5  6  1  1
  5  7  1  0
  7  8  1  0
  8  9  1  0
  9 10  2  0
  9 16  1  0
 10 11  1  0
 11 12  1  0
 11 13  2  0
 13 14  1  0
 14 15  1  0
 14 16  2  0
M  END
