
     RDKit          3D

 20 20  0  0  0  0  0  0  0  0999 V2000
   -5.6870   -0.9440    0.4860 C   0  0  0  0  0  0  0  0  0  0  0  0
   -4.8540   -1.1490    1.7100 C   0  0  0  0  0  0  0  0  0  0  0  0
   -3.7240   -0.1660    1.8440 C   0  0  0  0  0  0  0  0  0  0  0  0
   -2.7780   -0.2150    0.7190 C   0  0  0  0  0  0  0  0  0  0  0  0
   -3.0140    0.5990   -0.3710 C   0  0  0  0  0  0  0  0  0  0  0  0
   -2.1700    0.5950   -1.4410 C   0  0  0  0  0  0  0  0  0  0  0  0
   -2.4900    1.5040   -2.5870 C   0  0  0  0  0  0  0  0  0  0  0  0
   -1.8050    2.8270   -2.3210 C   0  0  0  0  0  0  0  0  0  0  0  0
   -1.0710   -0.2260   -1.4410 C   0  0  0  0  0  0  0  0  0  0  0  0
   -0.7950   -1.0510   -0.3830 C   0  0  0  0  0  0  0  0  0  0  0  0
    0.3900   -1.9580   -0.3330 C   0  0  0  0  0  0  0  0  0  0  0  0
    1.3610   -1.4580    0.4900 O   0  0  0  0  0  0  0  0  0  0  0  0
    1.8780   -0.2340    0.1590 C   0  0  1  0  0  0  0  0  0  0  0  0
    1.5940    0.8220    1.2230 C   0  0  0  0  0  0  0  0  0  0  0  0
    3.3590   -0.2800   -0.1450 C   0  0  1  0  0  0  0  0  0  0  0  0
    3.8490    0.9810   -0.4770 O   0  0  0  0  0  0  0  0  0  0  0  0
    4.1660   -0.8290    0.9800 C   0  0  0  0  0  0  0  0  0  0  0  0
    5.6350   -0.8570    0.6300 C   0  0  0  0  0  0  0  0  0  0  0  0
    6.2000    0.5120    0.3230 C   0  0  0  0  0  0  0  0  0  0  0  0
   -1.6690   -1.0270    0.6930 C   0  0  0  0  0  0  0  0  0  0  0  0
  1  2  1  0
  2  3  1  0
  3  4  1  0
  4  5  2  0
  4 20  1  0
  5  6  1  0
  6  7  1  0
  6  9  2  0
  7  8  1  0
  9 10  1  0
 10 11  1  0
 10 20  2  0
 11 12  1  0
 12 13  1  0
 13 14  1  1
 13 15  1  0
 15 16  1  1
 15 17  1  0
 17 18  1  0
 18 19  1  0
M  END
