
     RDKit          3D

 20 20  0  0  0  0  0  0  0  0999 V2000
   -6.3890   -1.9160    0.9680 C   0  0  0  0  0  0  0  0  0  0  0  0
   -6.3220   -0.4350    1.0950 C   0  0  0  0  0  0  0  0  0  0  0  0
   -6.2430    0.2840   -0.2260 C   0  0  0  0  0  0  0  0  0  0  0  0
   -5.0350   -0.0970   -1.0310 C   0  0  0  0  0  0  0  0  0  0  0  0
   -3.7580    0.2300   -0.2630 C   0  0  0  0  0  0  0  0  0  0  0  0
   -2.6030   -0.1900   -1.1540 C   0  0  0  0  0  0  0  0  0  0  0  0
   -1.3410    0.1130   -0.4400 C   0  0  0  0  0  0  0  0  0  0  0  0
   -1.3570    0.6070    0.6580 O   0  0  0  0  0  0  0  0  0  0  0  0
   -0.0570   -0.1980   -1.0850 C   0  0  0  0  0  0  0  0  0  0  0  0
    1.1140    0.1830   -0.1970 C   0  0  1  0  0  0  0  0  0  0  0  0
    1.0590   -0.5040    0.9930 O   0  0  0  0  0  0  0  0  0  0  0  0
    2.3750   -0.1490   -0.9980 C   0  0  0  0  0  0  0  0  0  0  0  0
    3.5850    0.1910   -0.2080 C   0  0  0  0  0  0  0  0  0  0  0  0
    4.1720    1.4250   -0.2730 C   0  0  0  0  0  0  0  0  0  0  0  0
    5.2930    1.7080    0.4720 C   0  0  0  0  0  0  0  0  0  0  0  0
    5.9210    3.0520    0.3920 C   0  0  0  0  0  0  0  0  0  0  0  0
    5.8160    0.7310    1.2840 C   0  0  0  0  0  0  0  0  0  0  0  0
    5.2310   -0.5270    1.3600 C   0  0  0  0  0  0  0  0  0  0  0  0
    5.7560   -1.6090    2.2180 C   0  0  0  0  0  0  0  0  0  0  0  0
    4.1040   -0.8040    0.6080 C   0  0  0  0  0  0  0  0  0  0  0  0
  1  2  1  0
  2  3  1  0
  3  4  1  0
  4  5  1  0
  5  6  1  0
  6  7  1  0
  7  8  2  0
  7  9  1  0
  9 10  1  0
 10 11  1  1
 10 12  1  0
 12 13  1  0
 13 14  2  0
 13 20  1  0
 14 15  1  0
 15 16  1  0
 15 17  2  0
 17 18  1  0
 18 19  1  0
 18 20  2  0
M  END
