
     RDKit          3D

 20 19  0  0  0  0  0  0  0  0999 V2000
   -6.5420   -0.9330   -1.7250 C   0  0  0  0  0  0  0  0  0  0  0  0
   -5.8910    0.2820   -1.1160 C   0  0  0  0  0  0  0  0  0  0  0  0
   -6.0940    0.3790    0.3790 C   0  0  0  0  0  0  0  0  0  0  0  0
   -5.5660   -0.7420    1.1680 C   0  0  0  0  0  0  0  0  0  0  0  0
   -4.1680   -1.1530    1.1230 C   0  0  0  0  0  0  0  0  0  0  0  0
   -3.1360   -0.1900    1.5330 C   0  0  0  0  0  0  0  0  0  0  0  0
   -2.9360    1.0490    0.7280 C   0  0  0  0  0  0  0  0  0  0  0  0
   -1.8280    1.9220    1.2900 C   0  0  0  0  0  0  0  0  0  0  0  0
   -0.5120    1.2220    1.3390 C   0  0  0  0  0  0  0  0  0  0  0  0
   -0.1060    0.7900   -0.0410 C   0  0  0  0  0  0  0  0  0  0  0  0
    1.2820    0.0850    0.0380 C   0  0  0  0  0  0  0  0  0  0  0  0
    1.6330   -0.3230   -1.3470 C   0  0  0  0  0  0  0  0  0  0  0  0
    2.8520   -1.0630   -1.6380 C   0  0  0  0  0  0  0  0  0  0  0  0
    4.2120   -0.5490   -1.4210 C   0  0  0  0  0  0  0  0  0  0  0  0
    4.5530   -0.2160   -0.0360 C   0  0  0  0  0  0  0  0  0  0  0  0
    6.0010    0.2270    0.1490 C   0  0  0  0  0  0  0  0  0  0  0  0
    6.9910   -0.8040   -0.2560 C   0  0  0  0  0  0  0  0  0  0  0  0
    8.3460   -0.2450   -0.0280 C   0  0  0  0  0  0  0  0  0  0  0  0
    8.8540    0.5570   -0.8490 O   0  0  0  0  0  0  0  0  0  0  0  0
    9.0930   -0.5830    1.0870 O   0  0  0  0  0  0  0  0  0  0  0  0
  1  2  1  0
  2  3  1  0
  3  4  1  0
  4  5  1  0
  5  6  1  0
  6  7  1  0
  7  8  1  0
  8  9  1  0
  9 10  1  0
 10 11  1  0
 11 12  1  0
 12 13  1  0
 13 14  1  0
 14 15  1  0
 15 16  1  0
 16 17  1  0
 17 18  1  0
 18 19  2  0
 18 20  1  0
M  END
