
     RDKit          3D

 20 20  0  0  0  0  0  0  0  0999 V2000
    4.9640    2.2710    0.6520 C   0  0  0  0  0  0  0  0  0  0  0  0
    3.7580    2.0600   -0.2270 C   0  0  0  0  0  0  0  0  0  0  0  0
    3.5980    0.5930   -0.4840 C   0  0  0  0  0  0  0  0  0  0  0  0
    3.4070   -0.1340    0.8470 C   0  0  0  0  0  0  0  0  0  0  0  0
    2.1800    0.3850    1.5390 C   0  0  0  0  0  0  0  0  0  0  0  0
    0.9950    0.2630    0.8970 O   0  0  0  0  0  0  0  0  0  0  0  0
    0.2270   -0.7900    0.4860 C   0  0  0  0  0  0  0  0  0  0  0  0
    0.6330   -2.0760    0.7490 C   0  0  0  0  0  0  0  0  0  0  0  0
   -0.1520   -3.1590    0.3320 C   0  0  0  0  0  0  0  0  0  0  0  0
   -1.3280   -2.9090   -0.3410 C   0  0  0  0  0  0  0  0  0  0  0  0
   -2.1260   -4.0810   -0.7670 C   0  0  1  0  0  0  0  0  0  0  0  0
   -3.2640   -3.7340   -1.6810 C   0  0  0  0  0  0  0  0  0  0  0  0
   -1.2890   -5.0140   -1.3370 O   0  0  0  0  0  0  0  0  0  0  0  0
   -1.7250   -1.6020   -0.5980 C   0  0  0  0  0  0  0  0  0  0  0  0
   -0.9770   -0.5500   -0.2010 C   0  0  0  0  0  0  0  0  0  0  0  0
   -1.3250    0.8930   -0.4260 C   0  0  1  0  0  0  0  0  0  0  0  0
   -2.4680    0.8920   -1.4350 C   0  0  0  0  0  0  0  0  0  0  0  0
   -1.6630    1.5780    0.8460 C   0  0  0  0  0  0  0  0  0  0  0  0
   -1.9990    3.0250    0.7580 C   0  0  0  0  0  0  0  0  0  0  0  0
   -3.1830    3.4270   -0.0300 C   0  0  0  0  0  0  0  0  0  0  0  0
  1  2  1  0
  2  3  1  0
  3  4  1  0
  4  5  1  0
  5  6  1  0
  6  7  1  0
  7  8  2  0
  7 15  1  0
  8  9  1  0
  9 10  2  0
 10 11  1  0
 10 14  1  0
 11 12  1  6
 11 13  1  0
 14 15  2  0
 15 16  1  0
 16 17  1  6
 16 18  1  0
 18 19  1  0
 19 20  1  0
M  END
