
     RDKit          3D

 18 18  0  0  0  0  0  0  0  0999 V2000
    5.0850   -0.1660    2.9760 C   0  0  0  0  0  0  0  0  0  0  0  0
    4.0390   -0.9560    2.8380 C   0  0  0  0  0  0  0  0  0  0  0  0
    2.7730   -0.5580    2.1350 C   0  0  0  0  0  0  0  0  0  0  0  0
    2.8280    0.8330    1.6180 C   0  0  0  0  0  0  0  0  0  0  0  0
    1.5390    1.1770    0.8860 C   0  0  0  0  0  0  0  0  0  0  0  0
    0.3190    1.0940    1.7190 C   0  0  0  0  0  0  0  0  0  0  0  0
   -0.9760    1.4510    1.0930 C   0  0  0  0  0  0  0  0  0  0  0  0
   -1.3810    0.6700   -0.0870 C   0  0  0  0  0  0  0  0  0  0  0  0
   -2.2420   -0.4250    0.0700 C   0  0  0  0  0  0  0  0  0  0  0  0
   -2.6280   -1.2060   -0.9890 C   0  0  0  0  0  0  0  0  0  0  0  0
   -3.5500   -2.3770   -0.8180 C   0  0  0  0  0  0  0  0  0  0  0  0
   -3.9060   -2.5000    0.5110 O   0  0  0  0  0  0  0  0  0  0  0  0
   -2.1910   -0.9610   -2.2720 C   0  0  0  0  0  0  0  0  0  0  0  0
   -2.6220   -1.8240   -3.4060 C   0  0  0  0  0  0  0  0  0  0  0  0
   -1.3450    0.1110   -2.4420 C   0  0  0  0  0  0  0  0  0  0  0  0
   -0.9470    0.9120   -1.3730 C   0  0  0  0  0  0  0  0  0  0  0  0
   -0.0890    1.9970   -1.5890 O   0  0  0  0  0  0  0  0  0  0  0  0
    0.4310    2.3640   -2.8350 C   0  0  0  0  0  0  0  0  0  0  0  0
  1  2  2  0
  2  3  1  0
  3  4  1  0
  4  5  1  0
  5  6  1  0
  6  7  1  0
  7  8  1  0
  8  9  2  0
  8 16  1  0
  9 10  1  0
 10 11  1  0
 10 13  2  0
 11 12  1  0
 13 14  1  0
 13 15  1  0
 15 16  2  0
 16 17  1  0
 17 18  1  0
M  END
