
     RDKit          3D

 18 18  0  0  0  0  0  0  0  0999 V2000
   -4.0270   -1.7430   -2.6540 C   0  0  0  0  0  0  0  0  0  0  0  0
   -4.5290   -1.2320   -1.5600 C   0  0  0  0  0  0  0  0  0  0  0  0
   -3.7250   -0.4990   -0.6090 C   0  0  0  0  0  0  0  0  0  0  0  0
   -2.3770   -0.2510   -0.7240 C   0  0  0  0  0  0  0  0  0  0  0  0
   -1.6260    0.4520    0.1960 C   0  0  0  0  0  0  0  0  0  0  0  0
   -0.1620    0.6720   -0.0140 C   0  0  0  0  0  0  0  0  0  0  0  0
    0.5970   -0.4550    0.6050 C   0  0  0  0  0  0  0  0  0  0  0  0
    2.1150   -0.2910    0.4220 C   0  0  1  0  0  0  0  0  0  0  0  0
    2.3520   -0.2610   -0.9640 O   0  0  0  0  0  0  0  0  0  0  0  0
    2.6130    0.9460    1.0360 C   0  0  0  0  0  0  0  0  0  0  0  0
    4.0790    1.1440    0.9550 C   0  0  0  0  0  0  0  0  0  0  0  0
    4.7580    1.2010   -0.3490 C   0  0  0  0  0  0  0  0  0  0  0  0
    4.7650    0.0880   -1.1370 O   0  0  0  0  0  0  0  0  0  0  0  0
    5.4200   -0.9980   -0.5230 C   0  0  0  0  0  0  0  0  0  0  0  0
   -2.2850    0.9370    1.3100 C   0  0  0  0  0  0  0  0  0  0  0  0
   -3.6360    0.7170    1.4750 C   0  0  0  0  0  0  0  0  0  0  0  0
   -4.3440    0.0200    0.5480 C   0  0  0  0  0  0  0  0  0  0  0  0
   -5.8090   -0.2300    0.7070 C   0  0  0  0  0  0  0  0  0  0  0  0
  1  2  2  0
  2  3  1  0
  3  4  2  0
  3 17  1  0
  4  5  1  0
  5  6  1  0
  5 15  2  0
  6  7  1  0
  7  8  1  0
  8  9  1  6
  8 10  1  0
 10 11  1  0
 11 12  1  0
 12 13  1  0
 13 14  1  0
 15 16  1  0
 16 17  2  0
 17 18  1  0
M  END
