
     RDKit          3D

 18 18  0  0  0  0  0  0  0  0999 V2000
    5.0150    1.6080   -0.3370 C   0  0  0  0  0  0  0  0  0  0  0  0
    4.4610    0.2250   -0.1630 C   0  0  0  0  0  0  0  0  0  0  0  0
    3.1630    0.2350    0.6280 C   0  0  0  0  0  0  0  0  0  0  0  0
    2.6840   -1.2120    0.7390 C   0  0  0  0  0  0  0  0  0  0  0  0
    1.3710   -1.2630    1.5300 C   0  0  0  0  0  0  0  0  0  0  0  0
    0.3500   -0.4690    0.8480 C   0  0  0  0  0  0  0  0  0  0  0  0
    0.3830    0.7900    1.1180 O   0  0  0  0  0  0  0  0  0  0  0  0
   -0.6650   -0.9620   -0.0790 C   0  0  0  0  0  0  0  0  0  0  0  0
   -0.8080   -2.2690   -0.4730 C   0  0  0  0  0  0  0  0  0  0  0  0
   -0.0750   -3.4990   -0.0920 C   0  0  0  0  0  0  0  0  0  0  0  0
   -1.7990   -2.2980   -1.3370 O   0  0  0  0  0  0  0  0  0  0  0  0
   -2.3150   -1.1400   -1.5420 C   0  0  0  0  0  0  0  0  0  0  0  0
   -3.4450   -0.8570   -2.4630 C   0  0  0  0  0  0  0  0  0  0  0  0
   -1.6190   -0.2350   -0.7500 C   0  0  0  0  0  0  0  0  0  0  0  0
   -1.9460    1.1720   -0.6550 C   0  0  0  0  0  0  0  0  0  0  0  0
   -2.9100    1.5860    0.4000 C   0  0  2  0  0  0  0  0  0  0  0  0
   -3.1380    3.1010    0.3840 C   0  0  0  0  0  0  0  0  0  0  0  0
   -2.6420    1.1640    1.7910 C   0  0  0  0  0  0  0  0  0  0  0  0
  1  2  1  0
  2  3  1  0
  3  4  1  0
  4  5  1  0
  5  6  1  0
  6  7  2  0
  6  8  1  0
  8  9  2  0
  8 14  1  0
  9 10  1  0
  9 11  1  0
 11 12  1  0
 12 13  1  0
 12 14  2  0
 14 15  1  0
 15 16  1  0
 16 17  1  1
 16 18  1  0
M  END
