
     RDKit          3D

 18 18  0  0  0  0  0  0  0  0999 V2000
    6.0740    1.4040    1.0030 C   0  0  0  0  0  0  0  0  0  0  0  0
    4.8980    1.8720    0.6280 C   0  0  0  0  0  0  0  0  0  0  0  0
    3.8530    0.9430    0.1690 C   0  0  0  0  0  0  0  0  0  0  0  0
    3.4120    1.2190   -1.2500 C   0  0  0  0  0  0  0  0  0  0  0  0
    2.3460    0.2200   -1.6350 C   0  0  0  0  0  0  0  0  0  0  0  0
    1.1210    0.2750   -0.7730 C   0  0  0  0  0  0  0  0  0  0  0  0
    0.1530   -0.7400   -1.2400 C   0  0  0  0  0  0  0  0  0  0  0  0
    0.4490   -1.4760   -2.2110 O   0  0  0  0  0  0  0  0  0  0  0  0
   -1.1490   -0.9280   -0.6140 C   0  0  0  0  0  0  0  0  0  0  0  0
   -1.4860   -0.0830    0.4520 C   0  0  0  0  0  0  0  0  0  0  0  0
   -2.7140   -0.2370    1.0550 C   0  0  0  0  0  0  0  0  0  0  0  0
   -3.0730    0.6600    2.1830 C   0  0  0  0  0  0  0  0  0  0  0  0
   -4.0480    1.7150    1.6750 C   0  0  0  0  0  0  0  0  0  0  0  0
   -3.5810   -1.2090    0.6050 C   0  0  0  0  0  0  0  0  0  0  0  0
   -4.8160   -1.3290    1.2470 O   0  0  0  0  0  0  0  0  0  0  0  0
   -3.2590   -2.0500   -0.4480 C   0  0  0  0  0  0  0  0  0  0  0  0
   -2.0180   -1.8950   -1.0570 C   0  0  0  0  0  0  0  0  0  0  0  0
   -1.6610   -2.8010   -2.1850 C   0  0  0  0  0  0  0  0  0  0  0  0
  1  2  2  0
  2  3  1  0
  3  4  1  0
  4  5  1  0
  5  6  1  0
  6  7  1  0
  7  8  2  0
  7  9  1  0
  9 10  2  0
  9 17  1  0
 10 11  1  0
 11 12  1  0
 11 14  2  0
 12 13  1  0
 14 15  1  0
 14 16  1  0
 16 17  2  0
 17 18  1  0
M  END
