
     RDKit          3D

 19 21  0  0  0  0  0  0  0  0999 V2000
    5.2460   -2.0720   -0.3560 N   0  0  0  0  0  0  0  0  0  0  0  0
    4.3110   -1.2100   -0.3250 C   0  0  0  0  0  0  0  0  0  0  0  0
    2.9510   -1.4270   -0.6760 N   0  0  0  0  0  0  0  0  0  0  0  0
    2.2520   -0.2140   -0.5010 C   0  0  0  0  0  0  0  0  0  0  0  0
    0.8030    0.0550   -0.7400 C   0  0  0  0  0  0  0  0  0  0  0  0
   -0.0570   -0.7600    0.0690 N   0  0  1  0  0  0  0  0  0  0  0  0
   -0.3080   -0.2130    1.3670 C   0  0  0  0  0  0  0  0  0  0  0  0
   -1.2020    0.9820    1.3640 C   0  0  0  0  0  0  0  0  0  0  0  0
   -2.4460    0.7740    0.5450 C   0  0  2  0  0  0  0  0  0  0  0  0
   -3.6090    0.9300    1.3310 O   0  0  0  0  0  0  0  0  0  0  0  0
   -4.6800    0.9150    0.4770 C   0  0  0  0  0  0  0  0  0  0  0  0
   -4.3750    0.4470   -0.9040 C   0  0  0  0  0  0  0  0  0  0  0  0
   -3.5310   -0.6440   -0.9670 O   0  0  0  0  0  0  0  0  0  0  0  0
   -2.5110   -0.6110   -0.0240 C   0  0  1  0  0  0  0  0  0  0  0  0
   -1.2450   -1.0540   -0.6800 C   0  0  0  0  0  0  0  0  0  0  0  0
    3.0650    0.6870   -0.0850 N   0  0  0  0  0  0  0  0  0  0  0  0
    4.3790    0.1920    0.0640 C   0  0  0  0  0  0  0  0  0  0  0  0
    5.4670    0.8420    0.4720 C   0  0  0  0  0  0  0  0  0  0  0  0
    5.3770    2.1850    0.8130 O   0  0  0  0  0  0  0  0  0  0  0  0
  1  2  2  0
  2  3  1  0
  2 17  1  0
  3  4  1  0
  4  5  1  0
  4 16  2  0
  6  5  1  6
  6  7  1  0
  6 15  1  0
  7  8  1  0
  9  8  1  1
  9 10  1  0
  9 14  1  0
 10 11  1  0
 11 12  1  0
 12 13  1  0
 13 14  1  0
 14 15  1  6
 16 17  1  0
 17 18  2  3
 18 19  1  0
M  CHG  1   6   1
M  END
