
     RDKit          3D

 18 18  0  0  0  0  0  0  0  0999 V2000
   -2.9140    3.1860   -1.4310 C   0  0  0  0  0  0  0  0  0  0  0  0
   -1.5800    2.6410   -0.9410 C   0  0  1  0  0  0  0  0  0  0  0  0
   -0.9310    3.5920    0.0300 C   0  0  0  0  0  0  0  0  0  0  0  0
   -1.7480    1.2440   -0.3830 C   0  0  0  0  0  0  0  0  0  0  0  0
   -0.4320    0.6690    0.1210 C   0  0  2  0  0  0  0  0  0  0  0  0
    0.5040    0.6140   -1.0160 C   0  0  0  0  0  0  0  0  0  0  0  0
    1.8400    0.0760   -0.6690 C   0  0  0  0  0  0  0  0  0  0  0  0
    2.8520   -0.0830   -1.6190 C   0  0  0  0  0  0  0  0  0  0  0  0
    3.9330   -0.5960   -0.9530 C   0  0  0  0  0  0  0  0  0  0  0  0
    3.5540   -0.7350    0.3730 C   0  0  0  0  0  0  0  0  0  0  0  0
    4.3600   -1.2460    1.4980 C   0  0  0  0  0  0  0  0  0  0  0  0
    3.6110   -1.2190    2.6530 O   0  0  0  0  0  0  0  0  0  0  0  0
    2.3050   -0.3220    0.4820 O   0  0  0  0  0  0  0  0  0  0  0  0
   -0.6060   -0.5320    0.9590 C   0  0  0  0  0  0  0  0  0  0  0  0
   -1.2340   -1.7490    0.4410 C   0  0  1  0  0  0  0  0  0  0  0  0
   -2.6360   -1.6630   -0.0520 C   0  0  0  0  0  0  0  0  0  0  0  0
   -0.3870   -2.5050   -0.5700 C   0  0  0  0  0  0  0  0  0  0  0  0
   -1.2740   -2.7050    1.6580 C   0  0  0  0  0  0  0  0  0  0  0  0
  2  1  1  1
  2  3  1  0
  2  4  1  0
  5  4  1  6
  5  6  1  0
  5 14  1  0
  6  7  1  0
  7  8  2  0
  7 13  1  0
  8  9  1  0
  9 10  2  0
 10 11  1  0
 10 13  1  0
 11 12  1  0
 14 15  1  0
 15 16  1  6
 15 17  1  0
 15 18  1  0
M  END
