
     RDKit          3D

 28 31  0  0  0  0  0  0  0  0999 V2000
   -4.9110   -0.2620    1.7360 C   0  0  0  0  0  0  0  0  0  0  0  0
   -3.5670   -0.7740    1.3290 C   0  0  0  0  0  0  0  0  0  0  0  0
   -2.8740    0.1480    0.3460 C   0  0  2  0  0  0  0  0  0  0  0  0
   -3.6750    0.3000   -0.8770 C   0  0  0  0  0  0  0  0  0  0  0  0
   -4.6200    1.1300   -1.1680 N   0  0  0  0  0  0  0  0  0  0  0  0
   -3.2110   -0.7020   -1.7920 N   0  0  0  0  0  0  0  0  0  0  0  0
   -1.9560   -1.1370   -1.2970 C   0  0  0  0  0  0  0  0  0  0  0  0
   -1.2290   -2.0180   -1.8310 O   0  0  0  0  0  0  0  0  0  0  0  0
   -1.6030   -0.4430   -0.0950 N   0  0  0  0  0  0  0  0  0  0  0  0
   -0.3860   -0.3840    0.6110 C   0  0  0  0  0  0  0  0  0  0  0  0
    0.6750    0.5350    0.2730 C   0  0  0  0  0  0  0  0  0  0  0  0
    1.8900    0.0090   -0.0260 C   0  0  0  0  0  0  0  0  0  0  0  0
    2.0540   -1.3970   -0.0000 O   0  0  0  0  0  0  0  0  0  0  0  0
    3.2910   -1.9520   -0.3020 C   0  0  0  0  0  0  0  0  0  0  0  0
    3.4850   -3.3360   -0.2850 C   0  0  0  0  0  0  0  0  0  0  0  0
    4.7120   -3.8730   -0.5860 C   0  0  0  0  0  0  0  0  0  0  0  0
    5.7970   -3.0840   -0.9140 C   0  0  0  0  0  0  0  0  0  0  0  0
    5.6000   -1.7210   -0.9290 C   0  0  0  0  0  0  0  0  0  0  0  0
    4.3740   -1.1540   -0.6310 C   0  0  0  0  0  0  0  0  0  0  0  0
    4.1600    0.2460   -0.6420 N   0  0  0  0  0  0  0  0  0  0  0  0
    3.0380    0.8010   -0.3700 C   0  0  0  0  0  0  0  0  0  0  0  0
    2.9570    2.5770   -0.3770 S   0  0  0  0  0  0  0  0  0  0  0  0
    1.5310    2.9160    0.7640 C   0  0  0  0  0  0  0  0  0  0  0  0
    0.5000    1.9570    0.2100 C   0  0  0  0  0  0  0  0  0  0  0  0
   -0.5360    2.4740   -0.3990 C   0  0  0  0  0  0  0  0  0  0  0  0
   -0.7330    3.9550   -0.4660 C   0  0  2  0  0  0  0  0  0  0  0  0
   -1.0040    4.4980    0.7810 F   0  0  0  0  0  0  0  0  0  0  0  0
   -1.8550    4.2400   -1.2370 F   0  0  0  0  0  0  0  0  0  0  0  0
  1  2  1  0
  3  2  1  1
  3  4  1  0
  3  9  1  0
  4  5  2  0
  4  6  1  0
  6  7  1  0
  7  8  2  0
  7  9  1  0
  9 10  1  0
 10 11  1  0
 11 12  2  0
 11 24  1  0
 12 13  1  0
 12 21  1  0
 13 14  1  0
 14 15  2  0
 14 19  1  0
 15 16  1  0
 16 17  2  0
 17 18  1  0
 18 19  2  0
 19 20  1  0
 20 21  2  0
 21 22  1  0
 22 23  1  0
 23 24  1  0
 24 25  2  3
 25 26  1  0
 26 27  1  1
 26 28  1  0
M  END
