
     RDKit          3D

 27 27  0  0  0  0  0  0  0  0999 V2000
    7.0140    1.3730   -2.1790 C   0  0  0  0  0  0  0  0  0  0  0  0
    5.8820    0.7610   -1.3710 C   0  0  0  0  0  0  0  0  0  0  0  0
    5.1220    1.8390   -0.6100 C   0  0  0  0  0  0  0  0  0  0  0  0
    4.0150    1.1080    0.1580 C   0  0  0  0  0  0  0  0  0  0  0  0
    3.2100    2.0970    0.9410 C   0  0  0  0  0  0  0  0  0  0  0  0
    2.1120    1.4480    1.7160 C   0  0  0  0  0  0  0  0  0  0  0  0
    1.1310    0.7050    0.7830 C   0  0  0  0  0  0  0  0  0  0  0  0
    0.0860    0.1090    1.6390 C   0  0  0  0  0  0  0  0  0  0  0  0
    0.1410    0.4200    2.9090 O   0  0  0  0  0  0  0  0  0  0  0  0
   -0.9880   -0.7740    1.3030 C   0  0  0  0  0  0  0  0  0  0  0  0
   -1.5160   -1.5550    2.3240 C   0  0  0  0  0  0  0  0  0  0  0  0
   -2.5070   -2.4740    2.0920 C   0  0  0  0  0  0  0  0  0  0  0  0
   -3.0560   -3.2680    3.0870 O   0  0  0  0  0  0  0  0  0  0  0  0
   -2.5520   -3.1040    4.4000 C   0  0  0  0  0  0  0  0  0  0  0  0
   -3.0050   -2.6390    0.8130 C   0  0  0  0  0  0  0  0  0  0  0  0
   -4.0020   -3.5590    0.5560 O   0  0  0  0  0  0  0  0  0  0  0  0
   -3.6110   -4.8770    0.2110 C   0  0  0  0  0  0  0  0  0  0  0  0
   -2.5160   -1.8920   -0.2200 C   0  0  0  0  0  0  0  0  0  0  0  0
   -3.0080   -2.0580   -1.4740 O   0  0  0  0  0  0  0  0  0  0  0  0
   -4.0750   -1.4090   -2.0830 C   0  0  0  0  0  0  0  0  0  0  0  0
   -1.4950   -0.9520    0.0510 C   0  0  0  0  0  0  0  0  0  0  0  0
   -1.0640   -0.1420   -1.1160 C   0  0  0  0  0  0  0  0  0  0  0  0
   -1.7390    1.2040   -1.0600 C   0  0  0  0  0  0  0  0  0  0  0  0
   -2.5370    1.5330   -0.1580 O   0  0  0  0  0  0  0  0  0  0  0  0
   -1.4650    2.1330   -2.0640 O   0  0  0  0  0  0  0  0  0  0  0  0
   -2.0790    3.4150   -2.0540 C   0  0  0  0  0  0  0  0  0  0  0  0
   -3.5700    3.2340   -2.1270 C   0  0  0  0  0  0  0  0  0  0  0  0
  1  2  1  0
  2  3  1  0
  3  4  1  0
  4  5  1  0
  5  6  1  0
  6  7  1  0
  7  8  1  0
  8  9  2  0
  8 10  1  0
 10 11  2  0
 10 21  1  0
 11 12  1  0
 12 13  1  0
 12 15  2  0
 13 14  1  0
 15 16  1  0
 15 18  1  0
 16 17  1  0
 18 19  1  0
 18 21  2  0
 19 20  1  0
 21 22  1  0
 22 23  1  0
 23 24  2  0
 23 25  1  0
 25 26  1  0
 26 27  1  0
M  END
