
     RDKit          3D

 28 31  0  0  0  0  0  0  0  0999 V2000
    7.5860    1.9950    2.2110 O   0  0  0  0  0  0  0  0  0  0  0  0
    7.1030    1.1630    1.4120 C   0  0  0  0  0  0  0  0  0  0  0  0
    8.0250    0.3660    0.5840 C   0  0  0  0  0  0  0  0  0  0  0  0
    7.4360   -0.0770   -0.7110 C   0  0  0  0  0  0  0  0  0  0  0  0
    5.9740   -0.1760   -0.7150 C   0  0  0  0  0  0  0  0  0  0  0  0
    5.3640   -0.8410   -1.7660 C   0  0  0  0  0  0  0  0  0  0  0  0
    4.0290   -0.9730   -1.8400 N   0  0  0  0  0  0  0  0  0  0  0  0
    3.2040   -0.4690   -0.9020 C   0  0  0  0  0  0  0  0  0  0  0  0
    1.7330   -0.6620   -1.0640 C   0  0  0  0  0  0  0  0  0  0  0  0
    0.9190   -1.1240   -1.7500 N   0  0  0  0  0  0  0  0  0  0  0  0
   -0.3800   -1.1310   -1.6200 C   0  0  0  0  0  0  0  0  0  0  0  0
   -0.8680   -0.4970   -0.5000 C   0  0  0  0  0  0  0  0  0  0  0  0
   -2.2410   -0.3120   -0.0380 C   0  0  0  0  0  0  0  0  0  0  0  0
   -2.4790    0.3180    1.0490 O   0  0  0  0  0  0  0  0  0  0  0  0
   -3.3430   -0.8200   -0.7700 N   0  0  0  0  0  0  0  0  0  0  0  0
   -4.6850   -0.6570   -0.3480 C   0  0  0  0  0  0  0  0  0  0  0  0
   -5.4210   -1.6940   -0.0990 C   0  0  0  0  0  0  0  0  0  0  0  0
   -6.8040   -1.5660    0.3360 C   0  0  0  0  0  0  0  0  0  0  0  0
   -7.3390   -0.3700    0.4850 C   0  0  0  0  0  0  0  0  0  0  0  0
   -6.6000    0.8680    0.2320 C   0  0  1  0  0  0  0  0  0  0  0  0
   -6.6810    1.8130    1.4470 C   0  0  2  0  0  0  0  0  0  0  0  0
   -5.9620    2.9390    1.1130 F   0  0  0  0  0  0  0  0  0  0  0  0
   -6.2130    1.2010    2.5780 F   0  0  0  0  0  0  0  0  0  0  0  0
   -5.1940    0.7210   -0.2120 C   0  0  0  0  0  0  0  0  0  0  0  0
    0.6300    0.0700    0.2870 S   0  0  0  0  0  0  0  0  0  0  0  0
    3.7510    0.1950    0.1530 C   0  0  0  0  0  0  0  0  0  0  0  0
    5.1290    0.3370    0.2390 C   0  0  0  0  0  0  0  0  0  0  0  0
    5.6990    1.0290    1.3410 N   0  0  0  0  0  0  0  0  0  0  0  0
  1  2  2  0
  2  3  1  0
  2 28  1  0
  3  4  1  0
  4  5  1  0
  5  6  2  0
  5 27  1  0
  6  7  1  0
  7  8  2  0
  8  9  1  0
  8 26  1  0
  9 10  2  0
  9 25  1  0
 10 11  1  0
 11 12  2  0
 12 13  1  0
 12 25  1  0
 13 14  2  0
 13 15  1  0
 15 16  1  0
 16 17  2  0
 16 24  1  0
 17 18  1  0
 18 19  2  0
 19 20  1  0
 20 21  1  0
 20 24  1  1
 21 22  1  6
 21 23  1  0
 26 27  2  0
 27 28  1  0
M  END
