
     RDKit          3D

 35 36  0  0  0  0  0  0  0  0999 V2000
   -4.5590    6.4200    0.7420 C   0  0  0  0  0  0  0  0  0  0  0  0
   -3.3390    5.6190    0.4070 C   0  0  0  0  0  0  0  0  0  0  0  0
   -2.3650    5.7080    1.4240 O   0  0  0  0  0  0  0  0  0  0  0  0
   -0.9740    4.7650    0.9900 P   0  0  0  0  0  0  0  0  0  0  0  0
   -0.4180    5.1840   -0.5990 O   0  0  0  0  0  0  0  0  0  0  0  0
   -1.3750    2.9310    1.0980 C   0  0  0  0  0  0  0  0  0  0  0  0
   -0.9450    2.3240   -0.2140 C   0  0  0  0  0  0  0  0  0  0  0  0
   -1.1860    0.9160   -0.3310 N   0  0  0  0  0  0  0  0  0  0  0  0
   -0.3390    0.0960    0.5880 C   0  0  2  0  0  0  0  0  0  0  0  0
    1.0400    0.3060    0.1950 C   0  0  0  0  0  0  0  0  0  0  0  0
    2.1740   -0.3670    0.9020 C   0  0  2  0  0  0  0  0  0  0  0  0
    2.1880   -0.0350    2.3890 C   0  0  0  0  0  0  0  0  0  0  0  0
    3.4270    0.1730    0.3770 O   0  0  0  0  0  0  0  0  0  0  0  0
    4.4190   -0.6130   -0.1280 C   0  0  0  0  0  0  0  0  0  0  0  0
    4.2230   -1.8750   -0.1340 O   0  0  0  0  0  0  0  0  0  0  0  0
    5.6780   -0.1050   -0.6570 C   0  0  0  0  0  0  0  0  0  0  0  0
    5.9450    1.1870   -0.6810 C   0  0  0  0  0  0  0  0  0  0  0  0
    7.2040    1.7770   -1.2040 C   0  0  0  0  0  0  0  0  0  0  0  0
    8.0960    0.7900   -1.6660 O   0  0  0  0  0  0  0  0  0  0  0  0
    7.8560   -0.5590   -1.6600 C   0  0  0  0  0  0  0  0  0  0  0  0
    6.6940   -1.0100   -1.1760 C   0  0  0  0  0  0  0  0  0  0  0  0
   -1.0000   -1.2300    0.6490 C   0  0  2  0  0  0  0  0  0  0  0  0
   -0.4350   -2.2680    1.5230 C   0  0  0  0  0  0  0  0  0  0  0  0
   -1.2710   -3.5400    1.4680 C   0  0  0  0  0  0  0  0  0  0  0  0
   -2.6750   -3.3390    1.9650 C   0  0  0  0  0  0  0  0  0  0  0  0
   -3.4150   -4.6250    1.8760 C   0  0  0  0  0  0  0  0  0  0  0  0
   -4.7720   -4.7150    2.2900 N   0  0  0  0  0  0  0  0  0  0  0  0
   -2.8730   -5.6700    1.4360 O   0  0  0  0  0  0  0  0  0  0  0  0
   -1.3230   -1.7250   -0.6940 N   0  0  0  0  0  0  0  0  0  0  0  0
   -2.6930   -1.7540   -1.1400 C   0  0  0  0  0  0  0  0  0  0  0  0
   -2.8240   -1.7020   -2.6400 C   0  0  0  0  0  0  0  0  0  0  0  0
   -1.8980   -2.7180   -3.3080 C   0  0  0  0  0  0  0  0  0  0  0  0
   -0.4870   -2.1580   -3.0800 C   0  0  0  0  0  0  0  0  0  0  0  0
   -0.3110   -2.1710   -1.5920 C   0  0  0  0  0  0  0  0  0  0  0  0
    0.7650   -2.5920   -1.1590 O   0  0  0  0  0  0  0  0  0  0  0  0
  1  2  1  0
  2  3  1  0
  3  4  1  0
  4  5  1  0
  4  6  1  0
  6  7  1  0
  7  8  1  0
  8  9  1  0
  9 10  1  6
  9 22  1  0
 10 11  1  0
 11 12  1  1
 11 13  1  0
 13 14  1  0
 14 15  2  0
 14 16  1  0
 16 17  2  0
 16 21  1  0
 17 18  1  0
 18 19  1  0
 19 20  1  0
 20 21  2  0
 22 23  1  6
 22 29  1  0
 23 24  1  0
 24 25  1  0
 25 26  1  0
 26 27  1  0
 26 28  2  0
 29 30  1  0
 29 34  1  0
 30 31  1  0
 31 32  1  0
 32 33  1  0
 33 34  1  0
 34 35  2  0
M  END
