
     RDKit          3D

 35 35  0  0  0  0  0  0  0  0999 V2000
    2.2520   -3.5560   -3.3910 C   0  0  0  0  0  0  0  0  0  0  0  0
    2.3000   -2.6110   -2.4480 C   0  0  0  0  0  0  0  0  0  0  0  0
    3.5750   -2.2980   -1.8270 C   0  0  0  0  0  0  0  0  0  0  0  0
    3.6280   -1.3750   -0.9060 C   0  0  0  0  0  0  0  0  0  0  0  0
    2.4190   -0.6960   -0.5350 N   0  0  0  0  0  0  0  0  0  0  0  0
    1.6530   -1.1510    0.5830 C   0  0  0  0  0  0  0  0  0  0  0  0
    0.4430   -0.4380    0.9200 C   0  0  0  0  0  0  0  0  0  0  0  0
   -0.2110   -0.8800    1.9300 O   0  0  0  0  0  0  0  0  0  0  0  0
   -0.0490    0.6840    0.2230 N   0  0  0  0  0  0  0  0  0  0  0  0
   -1.3090    1.3230    0.6790 C   0  0  0  0  0  0  0  0  0  0  0  0
   -1.0860    2.4940    1.2350 C   0  0  0  0  0  0  0  0  0  0  0  0
   -1.9410    3.4690    1.8130 C   0  0  0  0  0  0  0  0  0  0  0  0
   -3.1760    3.3960    1.9130 O   0  0  0  0  0  0  0  0  0  0  0  0
   -1.3530    4.6880    2.3520 N   0  0  0  0  0  0  0  0  0  0  0  0
    0.0710    4.8610    2.2810 C   0  0  0  0  0  0  0  0  0  0  0  0
   -2.1860    5.6940    2.9410 C   0  0  0  0  0  0  0  0  0  0  0  0
   -2.5760    0.7410    0.4330 C   0  0  0  0  0  0  0  0  0  0  0  0
   -3.5790    1.3580    0.9930 O   0  0  0  0  0  0  0  0  0  0  0  0
   -2.9690   -0.4350   -0.3430 C   0  0  0  0  0  0  0  0  0  0  0  0
   -2.1540   -1.1460   -1.0430 C   0  0  0  0  0  0  0  0  0  0  0  0
   -2.4540   -2.3370   -1.8370 C   0  0  0  0  0  0  0  0  0  0  0  0
   -1.9970   -2.5430   -3.1160 C   0  0  0  0  0  0  0  0  0  0  0  0
   -2.4760   -3.7630   -3.5330 C   0  0  0  0  0  0  0  0  0  0  0  0
   -3.2200   -4.2570   -2.4670 C   0  0  0  0  0  0  0  0  0  0  0  0
   -3.1620   -3.3690   -1.5100 O   0  0  0  0  0  0  0  0  0  0  0  0
   -4.4140   -0.7750   -0.3250 C   0  0  0  0  0  0  0  0  0  0  0  0
   -4.9010   -1.7140   -0.9640 O   0  0  0  0  0  0  0  0  0  0  0  0
   -5.2960   -0.0150    0.4430 O   0  0  0  0  0  0  0  0  0  0  0  0
   -6.6680   -0.2680    0.5140 C   0  0  0  0  0  0  0  0  0  0  0  0
    4.9080   -1.0620   -0.2850 C   0  0  0  0  0  0  0  0  0  0  0  0
    5.0170   -0.1360    0.6520 C   0  0  0  0  0  0  0  0  0  0  0  0
    6.2760    0.1850    1.2750 C   0  0  0  0  0  0  0  0  0  0  0  0
    6.4240    1.0980    2.2100 C   0  0  0  0  0  0  0  0  0  0  0  0
    6.4470   -1.9420   -0.7730 P   0  0  0  0  0  0  0  0  0  0  0  0
    6.4210   -3.4820   -0.9990 O   0  0  0  0  0  0  0  0  0  0  0  0
  1  2  2  0
  2  3  1  0
  3  4  2  3
  4  5  1  0
  4 30  1  0
  5  6  1  0
  6  7  1  0
  7  8  2  0
  7  9  1  0
  9 10  1  0
 10 11  2  3
 10 17  1  0
 11 12  1  0
 12 13  2  0
 12 14  1  0
 14 15  1  0
 14 16  1  0
 17 18  2  0
 17 19  1  0
 19 20  2  3
 19 26  1  0
 20 21  1  0
 21 22  2  0
 21 25  1  0
 22 23  1  0
 23 24  2  0
 24 25  1  0
 26 27  2  0
 26 28  1  0
 28 29  1  0
 30 31  2  3
 30 34  1  0
 31 32  1  0
 32 33  2  0
 34 35  2  0
M  END
