
     RDKit          3D

 34 34  0  0  0  0  0  0  0  0999 V2000
    3.1300   -3.6210   -1.7400 C   0  0  0  0  0  0  0  0  0  0  0  0
    1.7350   -3.3920   -2.2110 C   0  0  0  0  0  0  0  0  0  0  0  0
    1.0880   -2.1010   -1.7550 C   0  0  0  0  0  0  0  0  0  0  0  0
    0.9500   -2.0530   -0.2940 C   0  0  1  0  0  0  0  0  0  0  0  0
    2.1130   -2.1240    0.5580 C   0  0  0  0  0  0  0  0  0  0  0  0
    2.0720   -3.1080    1.4630 O   0  0  0  0  0  0  0  0  0  0  0  0
    3.3100   -1.4220    0.7010 N   0  0  0  0  0  0  0  0  0  0  0  0
    4.5560   -2.2420    0.9640 C   0  0  0  0  0  0  0  0  0  0  0  0
    3.6230   -0.0200    0.6940 C   0  0  0  0  0  0  0  0  0  0  0  0
    2.4910    1.0630   -0.1510 P   0  0  0  0  0  0  0  0  0  0  0  0
    2.9460    1.6880   -1.6550 O   0  0  0  0  0  0  0  0  0  0  0  0
    4.3210    1.8410   -1.8190 C   0  0  0  0  0  0  0  0  0  0  0  0
    4.5600    2.3970   -3.1950 C   0  0  0  0  0  0  0  0  0  0  0  0
    1.3390    1.9010    0.7340 O   0  0  0  0  0  0  0  0  0  0  0  0
    1.4790    1.9670    2.1010 C   0  0  0  0  0  0  0  0  0  0  0  0
    0.1420    2.0080    2.7780 C   0  0  0  0  0  0  0  0  0  0  0  0
   -0.5700    0.7310    2.9950 C   0  0  0  0  0  0  0  0  0  0  0  0
    0.0940   -0.5130    2.6070 C   0  0  0  0  0  0  0  0  0  0  0  0
   -0.5200   -1.4170    1.6140 C   0  0  1  0  0  0  0  0  0  0  0  0
   -1.9430   -1.7440    1.7600 C   0  0  0  0  0  0  0  0  0  0  0  0
   -2.6020   -1.6470    2.8010 O   0  0  0  0  0  0  0  0  0  0  0  0
   -2.6100   -2.2130    0.6150 O   0  0  0  0  0  0  0  0  0  0  0  0
   -3.9680   -2.5650    0.6200 C   0  0  0  0  0  0  0  0  0  0  0  0
   -0.1310   -1.1800    0.2190 N   0  0  0  0  0  0  0  0  0  0  0  0
   -0.7060   -0.2260   -0.5950 C   0  0  0  0  0  0  0  0  0  0  0  0
   -0.2740   -0.1140   -1.7990 O   0  0  0  0  0  0  0  0  0  0  0  0
   -1.7910    0.7380   -0.2870 C   0  0  0  0  0  0  0  0  0  0  0  0
   -2.2810    1.4740   -1.5300 C   0  0  0  0  0  0  0  0  0  0  0  0
   -3.3250    2.3930   -1.2140 N   0  0  0  0  0  0  0  0  0  0  0  0
   -4.5660    1.7650   -0.8170 C   0  0  0  0  0  0  0  0  0  0  0  0
   -5.5920    2.7990   -0.5230 C   0  0  0  0  0  0  0  0  0  0  0  0
   -6.1650    2.9020    0.6640 C   0  0  0  0  0  0  0  0  0  0  0  0
   -7.1580    3.9100    0.9350 C   0  0  0  0  0  0  0  0  0  0  0  0
   -7.6950    3.9930    2.0700 O   0  0  0  0  0  0  0  0  0  0  0  0
  1  2  1  0
  2  3  1  0
  4  3  1  6
  4  5  1  0
  4 24  1  0
  5  6  2  0
  5  7  1  0
  7  8  1  0
  7  9  1  0
  9 10  1  0
 10 11  1  0
 10 14  1  0
 11 12  1  0
 12 13  1  0
 14 15  1  0
 15 16  1  0
 16 17  1  0
 17 18  1  0
 18 19  1  0
 19 20  1  6
 19 24  1  0
 20 21  2  0
 20 22  1  0
 22 23  1  0
 24 25  1  0
 25 26  2  0
 25 27  1  0
 27 28  1  0
 28 29  1  0
 29 30  1  0
 30 31  1  0
 31 32  2  3
 32 33  1  0
 33 34  2  0
M  END
