
     RDKit          3D

 35 35  0  0  0  0  0  0  0  0999 V2000
   -5.4460    5.4950   -2.4670 C   0  0  0  0  0  0  0  0  0  0  0  0
   -5.9290    5.1370   -1.0840 C   0  0  0  0  0  0  0  0  0  0  0  0
   -5.0560    4.2090   -0.4460 O   0  0  0  0  0  0  0  0  0  0  0  0
   -4.8450    2.9860   -1.0280 C   0  0  0  0  0  0  0  0  0  0  0  0
   -5.4290    2.7210   -2.1090 O   0  0  0  0  0  0  0  0  0  0  0  0
   -3.9810    1.9800   -0.4620 N   0  0  0  0  0  0  0  0  0  0  0  0
   -3.7970    0.7190   -1.1140 C   0  0  0  0  0  0  0  0  0  0  0  0
   -2.8550   -0.1400   -0.2640 C   0  0  1  0  0  0  0  0  0  0  0  0
   -3.4960   -0.3610    1.0580 C   0  0  0  0  0  0  0  0  0  0  0  0
   -2.3450   -1.2920   -1.0270 C   0  0  0  0  0  0  0  0  0  0  0  0
   -1.4580   -2.1670   -0.3420 N   0  0  0  0  0  0  0  0  0  0  0  0
   -1.6240   -3.5030    0.0890 C   0  0  0  0  0  0  0  0  0  0  0  0
   -1.9070   -3.8930    1.4770 C   0  0  2  0  0  0  0  0  0  0  0  0
   -1.9120   -5.4790    1.5230 C   0  0  0  0  0  0  0  0  0  0  0  0
   -3.2760   -3.5200    1.9640 C   0  0  0  0  0  0  0  0  0  0  0  0
   -3.4140   -2.9200    3.0490 O   0  0  0  0  0  0  0  0  0  0  0  0
   -4.4160   -3.8490    1.1980 N   0  0  0  0  0  0  0  0  0  0  0  0
   -5.7760   -3.5120    1.6280 C   0  0  0  0  0  0  0  0  0  0  0  0
   -0.0770   -1.6710   -0.2490 C   0  0  0  0  0  0  0  0  0  0  0  0
    0.7350   -2.4040    0.3700 O   0  0  0  0  0  0  0  0  0  0  0  0
    0.4350   -0.1480   -0.9560 P   0  0  0  0  0  0  0  0  0  0  0  0
    0.3050    0.0430   -2.6320 O   0  0  0  0  0  0  0  0  0  0  0  0
    1.1020   -0.9080   -3.2670 C   0  0  0  0  0  0  0  0  0  0  0  0
    1.6340    0.7420   -0.1710 O   0  0  0  0  0  0  0  0  0  0  0  0
    2.8900    0.2610   -0.5690 C   0  0  0  0  0  0  0  0  0  0  0  0
    3.9900    1.0370    0.1170 C   0  0  0  0  0  0  0  0  0  0  0  0
    5.3040    0.5130   -0.3200 C   0  0  0  0  0  0  0  0  0  0  0  0
    5.3290   -0.4350   -1.1400 O   0  0  0  0  0  0  0  0  0  0  0  0
    6.5290    1.0930    0.1990 C   0  0  0  0  0  0  0  0  0  0  0  0
    6.4840    2.1310    1.0990 C   0  0  0  0  0  0  0  0  0  0  0  0
    7.6530    2.6510    1.5640 C   0  0  0  0  0  0  0  0  0  0  0  0
    8.8810    2.1760    1.1680 C   0  0  0  0  0  0  0  0  0  0  0  0
   10.1450    2.7630    1.6930 C   0  0  0  0  0  0  0  0  0  0  0  0
    8.9100    1.1250    0.2570 C   0  0  0  0  0  0  0  0  0  0  0  0
    7.7490    0.5770   -0.2330 C   0  0  0  0  0  0  0  0  0  0  0  0
  1  2  1  0
  2  3  1  0
  3  4  1  0
  4  5  2  0
  4  6  1  0
  6  7  1  0
  7  8  1  0
  8  9  1  1
  8 10  1  0
 10 11  1  0
 11 12  1  0
 11 19  1  0
 12 13  1  0
 13 14  1  6
 13 15  1  0
 15 16  2  0
 15 17  1  0
 17 18  1  0
 19 20  2  0
 19 21  1  0
 21 22  1  0
 21 24  1  0
 22 23  1  0
 24 25  1  0
 25 26  1  0
 26 27  1  0
 27 28  2  0
 27 29  1  0
 29 30  2  0
 29 35  1  0
 30 31  1  0
 31 32  2  0
 32 33  1  0
 32 34  1  0
 34 35  2  0
M  END
