
     RDKit          3D

 32 34  0  0  0  0  0  0  0  0999 V2000
   -1.7160   -0.7470   -3.3520 C   0  0  0  0  0  0  0  0  0  0  0  0
   -1.9320   -1.0670   -1.9310 C   0  0  0  0  0  0  0  0  0  0  0  0
   -1.2370   -1.9560   -1.4100 O   0  0  0  0  0  0  0  0  0  0  0  0
   -2.9310   -0.3580   -1.1620 C   0  0  0  0  0  0  0  0  0  0  0  0
   -4.1060    0.1570   -1.6960 C   0  0  0  0  0  0  0  0  0  0  0  0
   -5.0710    0.7260   -0.9100 C   0  0  0  0  0  0  0  0  0  0  0  0
   -6.3280    1.2740   -1.4990 C   0  0  0  0  0  0  0  0  0  0  0  0
   -4.9030    0.8090    0.4800 C   0  0  0  0  0  0  0  0  0  0  0  0
   -3.7640    0.3170    1.0360 C   0  0  0  0  0  0  0  0  0  0  0  0
   -2.7950   -0.2580    0.1980 C   0  0  0  0  0  0  0  0  0  0  0  0
   -1.6030   -0.6850    0.8370 N   0  0  0  0  0  0  0  0  0  0  0  0
   -0.3530   -0.2640    0.3780 C   0  0  0  0  0  0  0  0  0  0  0  0
    0.6510   -0.9580    0.7880 O   0  0  0  0  0  0  0  0  0  0  0  0
   -0.0580    0.8580   -0.4840 C   0  0  0  0  0  0  0  0  0  0  0  0
    1.3220    0.7710   -1.1240 C   0  0  0  0  0  0  0  0  0  0  0  0
    2.3650    0.7440   -0.1420 N   0  0  0  0  0  0  0  0  0  0  0  0
    3.7310    0.6570   -0.5870 C   0  0  0  0  0  0  0  0  0  0  0  0
    3.9550    0.6090   -1.8140 O   0  0  0  0  0  0  0  0  0  0  0  0
    4.8020    0.6260    0.3270 N   0  0  0  0  0  0  0  0  0  0  0  0
    6.1850    0.5430    0.0200 C   0  0  0  0  0  0  0  0  0  0  0  0
    6.7160    0.4780   -1.2350 C   0  0  0  0  0  0  0  0  0  0  0  0
    8.0930    0.3970   -1.4660 C   0  0  0  0  0  0  0  0  0  0  0  0
    8.5700    0.3340   -2.7270 F   0  0  0  0  0  0  0  0  0  0  0  0
    8.9850    0.3800   -0.4250 C   0  0  0  0  0  0  0  0  0  0  0  0
   10.3110    0.3020   -0.6360 F   0  0  0  0  0  0  0  0  0  0  0  0
    8.4590    0.4450    0.8390 C   0  0  0  0  0  0  0  0  0  0  0  0
    7.1060    0.5240    1.0670 C   0  0  0  0  0  0  0  0  0  0  0  0
    6.6160    0.5880    2.3340 F   0  0  0  0  0  0  0  0  0  0  0  0
   -1.7560   -1.5210    2.0360 C   0  0  0  0  0  0  0  0  0  0  0  0
   -2.8610   -1.0020    2.8840 C   0  0  0  0  0  0  0  0  0  0  0  0
   -3.4650    0.3240    2.4810 C   0  0  2  0  0  0  0  0  0  0  0  0
   -4.8060    0.4240    3.2060 C   0  0  0  0  0  0  0  0  0  0  0  0
  1  2  1  0
  2  3  2  0
  2  4  1  0
  4  5  2  0
  4 10  1  0
  5  6  1  0
  6  7  1  0
  6  8  2  0
  8  9  1  0
  9 10  2  0
  9 31  1  0
 10 11  1  0
 11 12  1  0
 11 29  1  0
 12 13  2  0
 12 14  1  0
 14 15  1  0
 15 16  1  0
 16 17  1  0
 17 18  2  0
 17 19  1  0
 19 20  1  0
 20 21  2  0
 20 27  1  0
 21 22  1  0
 22 23  1  0
 22 24  2  0
 24 25  1  0
 24 26  1  0
 26 27  2  0
 27 28  1  0
 29 30  1  0
 30 31  1  0
 31 32  1  1
M  END
