
     RDKit          3D

 32 35  0  0  0  0  0  0  0  0999 V2000
   -6.6140    2.7960    0.0360 C   0  0  0  0  0  0  0  0  0  0  0  0
   -5.2350    2.5980    0.3830 N   0  0  0  0  0  0  0  0  0  0  0  0
   -4.6640    1.3140    0.2820 C   0  0  0  0  0  0  0  0  0  0  0  0
   -5.3830    0.2040   -0.1460 C   0  0  0  0  0  0  0  0  0  0  0  0
   -4.8050   -1.0450   -0.2380 C   0  0  0  0  0  0  0  0  0  0  0  0
   -5.5740   -2.2220   -0.6930 C   0  0  0  0  0  0  0  0  0  0  0  0
   -6.8630   -1.8360   -0.9770 F   0  0  0  0  0  0  0  0  0  0  0  0
   -3.4640   -1.2260    0.1020 C   0  0  0  0  0  0  0  0  0  0  0  0
   -2.8770   -2.5880   -0.0100 C   0  0  0  0  0  0  0  0  0  0  0  0
   -2.7360   -0.1350    0.5290 C   0  0  0  0  0  0  0  0  0  0  0  0
   -1.3740   -0.3080    0.8760 N   0  0  0  0  0  0  0  0  0  0  0  0
   -1.0610   -1.0550    1.9590 C   0  0  0  0  0  0  0  0  0  0  0  0
   -2.0080   -1.5670    2.6150 O   0  0  0  0  0  0  0  0  0  0  0  0
    0.2010   -1.2140    2.2800 O   0  0  0  0  0  0  0  0  0  0  0  0
    1.1960   -0.6850    1.6050 C   0  0  0  0  0  0  0  0  0  0  0  0
    2.5150   -0.8660    1.9600 C   0  0  0  0  0  0  0  0  0  0  0  0
    3.5580   -0.2900    1.2210 C   0  0  0  0  0  0  0  0  0  0  0  0
    3.3170    0.4800    0.1090 C   0  0  0  0  0  0  0  0  0  0  0  0
    4.3150    1.0740   -0.7040 N   0  0  0  0  0  0  0  0  0  0  0  0
    5.6510    0.6820   -0.8470 C   0  0  0  0  0  0  0  0  0  0  0  0
    6.6040    1.5960   -1.2450 C   0  0  0  0  0  0  0  0  0  0  0  0
    7.9230    1.2780   -1.4340 C   0  0  0  0  0  0  0  0  0  0  0  0
    8.3160   -0.0200   -1.2150 C   0  0  0  0  0  0  0  0  0  0  0  0
    9.6110   -0.4250   -1.3790 F   0  0  0  0  0  0  0  0  0  0  0  0
    7.3940   -0.9490   -0.8200 C   0  0  0  0  0  0  0  0  0  0  0  0
    7.7690   -2.2370   -0.6000 F   0  0  0  0  0  0  0  0  0  0  0  0
    6.0640   -0.6130   -0.6330 C   0  0  0  0  0  0  0  0  0  0  0  0
    1.9680    0.6510   -0.2350 C   0  0  0  0  0  0  0  0  0  0  0  0
    0.9410    0.0870    0.4900 C   0  0  0  0  0  0  0  0  0  0  0  0
   -0.3910    0.2560    0.1500 C   0  0  0  0  0  0  0  0  0  0  0  0
   -0.6380    0.9590   -0.8650 O   0  0  0  0  0  0  0  0  0  0  0  0
   -3.3410    1.1030    0.6110 C   0  0  0  0  0  0  0  0  0  0  0  0
  1  2  1  0
  2  3  1  0
  3  4  2  0
  3 32  1  0
  4  5  1  0
  5  6  1  0
  5  8  2  0
  6  7  1  0
  8  9  1  0
  8 10  1  0
 10 11  1  0
 10 32  2  0
 11 12  1  0
 11 30  1  0
 12 13  2  0
 12 14  1  0
 14 15  1  0
 15 16  2  0
 15 29  1  0
 16 17  1  0
 17 18  2  0
 18 19  1  0
 18 28  1  0
 19 20  1  0
 20 21  2  0
 20 27  1  0
 21 22  1  0
 22 23  2  0
 23 24  1  0
 23 25  1  0
 25 26  1  0
 25 27  2  0
 28 29  2  0
 29 30  1  0
 30 31  2  0
M  END
