
     RDKit          3D

 33 35  0  0  0  0  0  0  0  0999 V2000
    6.4750    0.7570    0.2480 C   0  0  0  0  0  0  0  0  0  0  0  0
    4.8630    1.4210   -0.1650 S   0  0  0  0  0  0  0  0  0  0  0  0
    3.5360    0.4010    0.3760 C   0  0  0  0  0  0  0  0  0  0  0  0
    2.3530    0.8030   -0.0970 C   0  0  0  0  0  0  0  0  0  0  0  0
    1.0500    0.2310    0.1180 C   0  0  0  0  0  0  0  0  0  0  0  0
    0.7190   -1.0180    0.6470 C   0  0  0  0  0  0  0  0  0  0  0  0
   -0.5630   -1.3730    0.7480 N   0  0  0  0  0  0  0  0  0  0  0  0
   -1.5920   -0.5580    0.3510 C   0  0  0  0  0  0  0  0  0  0  0  0
   -2.9590   -1.0220    0.4840 C   0  0  0  0  0  0  0  0  0  0  0  0
   -3.3630   -2.2330    0.9920 C   0  0  0  0  0  0  0  0  0  0  0  0
   -4.7140   -2.3170    0.9380 N   0  0  0  0  0  0  0  0  0  0  0  0
   -5.1380   -1.1990    0.4150 N   0  0  0  0  0  0  0  0  0  0  0  0
   -4.0900   -0.3680    0.1190 C   0  0  0  0  0  0  0  0  0  0  0  0
   -4.2990    0.9560   -0.4650 C   0  0  2  0  0  0  0  0  0  0  0  0
   -3.7620    2.0070    0.4880 C   0  0  0  0  0  0  0  0  0  0  0  0
   -5.7820    1.2430   -0.6650 C   0  0  0  0  0  0  0  0  0  0  0  0
   -3.6160    1.1300   -1.7990 C   0  0  0  0  0  0  0  0  0  0  0  0
   -1.2170    0.6260   -0.1480 N   0  0  0  0  0  0  0  0  0  0  0  0
    0.0320    1.0630   -0.2850 C   0  0  0  0  0  0  0  0  0  0  0  0
    0.4000    2.3280   -0.8180 N   0  0  0  0  0  0  0  0  0  0  0  0
    0.4000    2.4690   -2.2580 C   0  0  0  0  0  0  0  0  0  0  0  0
    0.7570    3.4260   -0.0140 C   0  0  0  0  0  0  0  0  0  0  0  0
    1.1380    4.7080   -0.6120 C   0  0  0  0  0  0  0  0  0  0  0  0
    0.7470    3.2990    1.2320 O   0  0  0  0  0  0  0  0  0  0  0  0
    1.6350   -2.0090    1.1140 N   0  0  0  0  0  0  0  0  0  0  0  0
    1.0930   -3.3140    1.1240 C   0  0  0  0  0  0  0  0  0  0  0  0
    1.4020   -4.1950    0.1940 C   0  0  0  0  0  0  0  0  0  0  0  0
    0.8150   -5.5430    0.2420 C   0  0  0  0  0  0  0  0  0  0  0  0
    2.3010   -3.8840   -0.8750 C   0  0  0  0  0  0  0  0  0  0  0  0
    3.0350   -3.6400   -1.7570 N   0  0  0  0  0  0  0  0  0  0  0  0
    2.9510   -1.7630    1.5360 C   0  0  0  0  0  0  0  0  0  0  0  0
    3.7750   -0.7420    1.2330 C   0  0  0  0  0  0  0  0  0  0  0  0
    5.0260   -0.8200    1.8890 N   0  0  0  0  0  0  0  0  0  0  0  0
  1  2  1  0
  2  3  1  0
  3  4  2  0
  3 32  1  0
  4  5  1  0
  5  6  2  0
  5 19  1  0
  6  7  1  0
  6 25  1  0
  7  8  2  0
  8  9  1  0
  8 18  1  0
  9 10  2  0
  9 13  1  0
 10 11  1  0
 11 12  1  0
 12 13  2  0
 13 14  1  0
 14 15  1  1
 14 16  1  0
 14 17  1  0
 18 19  2  0
 19 20  1  0
 20 21  1  0
 20 22  1  0
 22 23  1  0
 22 24  2  0
 25 26  1  0
 25 31  1  0
 26 27  2  3
 27 28  1  0
 27 29  1  0
 29 30  3  0
 31 32  2  0
 32 33  1  0
M  END
