
     RDKit          3D

 33 36  0  0  0  0  0  0  0  0999 V2000
   -6.2040   -3.4850   -1.1360 C   0  0  0  0  0  0  0  0  0  0  0  0
   -5.0460   -2.5270   -1.4450 C   0  0  0  0  0  0  0  0  0  0  0  0
   -4.7890   -1.7980   -0.2430 N   0  0  0  0  0  0  0  0  0  0  0  0
   -3.5280   -2.1180    0.3940 C   0  0  0  0  0  0  0  0  0  0  0  0
   -2.6980   -1.3480    1.0020 N   0  0  0  0  0  0  0  0  0  0  0  0
   -2.8020    0.0700    1.2150 C   0  0  0  0  0  0  0  0  0  0  0  0
   -1.6370    0.7200    1.6820 N   0  0  0  0  0  0  0  0  0  0  0  0
   -0.4220    0.5680    0.9280 C   0  0  0  0  0  0  0  0  0  0  0  0
   -0.4100    1.1920   -0.4290 C   0  0  0  0  0  0  0  0  0  0  0  0
    1.1660    0.9140   -1.2890 S   0  0  0  0  0  0  0  0  0  0  0  0
    2.4450    1.7720   -0.4080 C   0  0  0  0  0  0  0  0  0  0  0  0
    2.7980    3.0760   -0.5980 N   0  0  0  0  0  0  0  0  0  0  0  0
    3.8120    3.3630    0.2360 C   0  0  0  0  0  0  0  0  0  0  0  0
    4.5050    4.6840    0.3580 C   0  0  0  0  0  0  0  0  0  0  0  0
    4.0520    2.2360    0.9100 N   0  0  0  0  0  0  0  0  0  0  0  0
    3.2320    1.2570    0.5330 N   0  0  0  0  0  0  0  0  0  0  0  0
    3.2040   -0.1050    1.0140 C   0  0  0  0  0  0  0  0  0  0  0  0
    4.1690   -0.8640    0.1440 C   0  0  0  0  0  0  0  0  0  0  0  0
    3.7190   -1.4000   -0.8930 O   0  0  0  0  0  0  0  0  0  0  0  0
    5.5390   -0.9610    0.4970 N   0  0  0  0  0  0  0  0  0  0  0  0
    6.5080   -1.6750   -0.3030 C   0  0  2  0  0  0  0  0  0  0  0  0
    7.8610   -1.5610    0.3820 C   0  0  0  0  0  0  0  0  0  0  0  0
    6.6760   -1.0030   -1.6680 C   0  0  0  0  0  0  0  0  0  0  0  0
    6.1520   -3.1130   -0.5360 C   0  0  0  0  0  0  0  0  0  0  0  0
   -3.8390    0.8300    1.0320 C   0  0  0  0  0  0  0  0  0  0  0  0
   -3.9950    2.2520    1.2240 C   0  0  0  0  0  0  0  0  0  0  0  0
   -2.9650    3.1750    1.7150 C   0  0  0  0  0  0  0  0  0  0  0  0
   -5.2260    2.5410    0.8760 N   0  0  0  0  0  0  0  0  0  0  0  0
   -5.9380    1.4190    0.4570 C   0  0  0  0  0  0  0  0  0  0  0  0
   -5.1420    0.4040    0.5460 C   0  0  0  0  0  0  0  0  0  0  0  0
   -5.7650   -0.8860    0.1990 C   0  0  1  0  0  0  0  0  0  0  0  0
   -6.8070   -0.4070   -0.7770 C   0  0  0  0  0  0  0  0  0  0  0  0
   -7.2590    0.9290   -0.0990 C   0  0  0  0  0  0  0  0  0  0  0  0
  1  2  1  0
  2  3  1  0
  3  4  1  0
  3 31  1  0
  4  5  2  0
  5  6  1  0
  6  7  1  0
  6 25  2  0
  7  8  1  0
  8  9  1  0
  9 10  1  0
 10 11  1  0
 11 12  2  0
 11 16  1  0
 12 13  1  0
 13 14  1  0
 13 15  2  0
 15 16  1  0
 16 17  1  0
 17 18  1  0
 18 19  2  0
 18 20  1  0
 20 21  1  0
 21 22  1  1
 21 23  1  0
 21 24  1  0
 25 26  1  0
 25 30  1  0
 26 27  1  0
 26 28  2  0
 28 29  1  0
 29 30  2  0
 29 33  1  0
 30 31  1  0
 31 32  1  6
 32 33  1  0
M  END
