
     RDKit          3D

 33 36  0  0  0  0  0  0  0  0999 V2000
   -5.5870    2.6310   -0.7710 C   0  0  0  0  0  0  0  0  0  0  0  0
   -6.3300    1.8520    0.1810 N   0  0  0  0  0  0  0  0  0  0  0  0
   -6.6330    0.5280   -0.2480 C   0  0  0  0  0  0  0  0  0  0  0  0
   -5.4100   -0.3740   -0.2600 C   0  0  0  0  0  0  0  0  0  0  0  0
   -4.3260    0.2100    0.3950 N   0  0  0  0  0  0  0  0  0  0  0  0
   -3.0090    0.0000    0.0260 C   0  0  0  0  0  0  0  0  0  0  0  0
   -2.4650   -1.3300    0.4420 C   0  0  0  0  0  0  0  0  0  0  0  0
   -3.1310   -2.1220    1.4060 C   0  0  0  0  0  0  0  0  0  0  0  0
   -2.4590   -3.1920    1.9290 C   0  0  0  0  0  0  0  0  0  0  0  0
   -1.1730   -3.4850    1.5350 C   0  0  0  0  0  0  0  0  0  0  0  0
   -0.5600   -2.7340    0.6390 N   0  0  0  0  0  0  0  0  0  0  0  0
   -1.2170   -1.6830    0.1070 C   0  0  0  0  0  0  0  0  0  0  0  0
   -0.5870   -1.1400   -1.0630 N   0  0  0  0  0  0  0  0  0  0  0  0
    0.7650   -1.3190   -1.3390 C   0  0  0  0  0  0  0  0  0  0  0  0
    1.7990   -1.6060   -0.3700 N   0  0  0  0  0  0  0  0  0  0  0  0
    2.8940   -1.7890   -0.8370 C   0  0  0  0  0  0  0  0  0  0  0  0
    4.1340   -1.5320    0.1940 C   0  0  0  0  0  0  0  0  0  0  0  0
    4.3310   -2.1200    1.1720 O   0  0  0  0  0  0  0  0  0  0  0  0
    4.9620   -0.4990   -0.2260 N   0  0  0  0  0  0  0  0  0  0  0  0
    6.0840    0.2370    0.0710 C   0  0  0  0  0  0  0  0  0  0  0  0
    6.7190    0.4730    1.2810 C   0  0  0  0  0  0  0  0  0  0  0  0
    7.7790    1.3340    1.3030 C   0  0  0  0  0  0  0  0  0  0  0  0
    8.2610    1.9700    0.2390 C   0  0  0  0  0  0  0  0  0  0  0  0
    9.3280    2.8850    0.1540 C   0  0  0  0  0  0  0  0  0  0  0  0
   10.2410    3.6620    0.1010 N   0  0  0  0  0  0  0  0  0  0  0  0
    7.6510    1.7480   -1.0490 C   0  0  0  0  0  0  0  0  0  0  0  0
    6.6100    0.9040   -1.0580 C   0  0  0  0  0  0  0  0  0  0  0  0
    5.9990    0.5650   -2.3910 C   0  0  0  0  0  0  0  0  0  0  0  0
    5.5480    0.3290   -3.3940 N   0  0  0  0  0  0  0  0  0  0  0  0
    3.3340   -1.8000   -2.1220 C   0  0  0  0  0  0  0  0  0  0  0  0
    1.6450   -1.4060   -2.8600 S   0  0  0  0  0  0  0  0  0  0  0  0
   -4.6080    0.9310    1.6220 C   0  0  0  0  0  0  0  0  0  0  0  0
   -5.6990    1.9610    1.4850 C   0  0  0  0  0  0  0  0  0  0  0  0
  1  2  1  0
  2  3  1  0
  2 33  1  0
  3  4  1  0
  4  5  1  0
  5  6  1  0
  5 32  1  0
  6  7  1  0
  7  8  2  0
  7 12  1  0
  8  9  1  0
  9 10  2  0
 10 11  1  0
 11 12  2  0
 12 13  1  0
 13 14  1  0
 14 15  2  0
 14 31  1  0
 15 16  1  0
 16 17  1  0
 16 30  2  0
 17 18  2  0
 17 19  1  0
 19 20  1  0
 20 21  2  0
 20 27  1  0
 21 22  1  0
 22 23  2  0
 23 24  1  0
 23 26  1  0
 24 25  3  0
 26 27  2  0
 27 28  1  0
 28 29  3  0
 30 31  1  0
 32 33  1  0
M  END
