
     RDKit          3D

 32 36  0  0  0  0  0  0  0  0999 V2000
   -7.3450   -1.0260    1.4570 C   0  0  0  0  0  0  0  0  0  0  0  0
   -6.5660    0.2690    1.3940 C   0  0  2  0  0  0  0  0  0  0  0  0
   -7.4120    1.3800    0.8080 C   0  0  0  0  0  0  0  0  0  0  0  0
   -5.3180    0.1120    0.6480 N   0  0  0  0  0  0  0  0  0  0  0  0
   -4.1070    0.4580    1.0110 N   0  0  0  0  0  0  0  0  0  0  0  0
   -3.1970    0.1580    0.0650 C   0  0  0  0  0  0  0  0  0  0  0  0
   -1.7580    0.4140    0.1150 C   0  0  0  0  0  0  0  0  0  0  0  0
   -1.2800    1.6990    0.4000 C   0  0  0  0  0  0  0  0  0  0  0  0
    0.0650    1.9810    0.4890 C   0  0  0  0  0  0  0  0  0  0  0  0
    0.9910    0.9770    0.2920 C   0  0  0  0  0  0  0  0  0  0  0  0
    2.3460    1.2380    0.3760 C   0  0  0  0  0  0  0  0  0  0  0  0
    3.2890    0.2340    0.1800 C   0  0  0  0  0  0  0  0  0  0  0  0
    4.6420    0.5280    0.2710 O   0  0  0  0  0  0  0  0  0  0  0  0
    5.5640   -0.5370    0.0610 C   0  0  0  0  0  0  0  0  0  0  0  0
    6.9560   -0.1030    0.1830 C   0  0  0  0  0  0  0  0  0  0  0  0
    7.6280    0.3510   -0.9340 C   0  0  0  0  0  0  0  0  0  0  0  0
    8.9360    0.7700   -0.8700 C   0  0  0  0  0  0  0  0  0  0  0  0
    9.5620    0.7220    0.3540 C   0  0  0  0  0  0  0  0  0  0  0  0
    8.8890    0.2640    1.4890 C   0  0  0  0  0  0  0  0  0  0  0  0
    9.7410    0.2280    3.0160 Cl  0  0  0  0  0  0  0  0  0  0  0  0
    7.5820   -0.1500    1.4060 C   0  0  0  0  0  0  0  0  0  0  0  0
    2.8280   -1.0340   -0.1010 C   0  0  0  0  0  0  0  0  0  0  0  0
    1.4810   -1.3430   -0.1950 C   0  0  0  0  0  0  0  0  0  0  0  0
    0.5690   -0.3030    0.0090 C   0  0  0  0  0  0  0  0  0  0  0  0
   -0.7910   -0.5450   -0.0710 C   0  0  0  0  0  0  0  0  0  0  0  0
   -3.8980   -0.4170   -0.9650 C   0  0  0  0  0  0  0  0  0  0  0  0
   -3.5380   -0.9240   -2.2140 C   0  0  0  0  0  0  0  0  0  0  0  0
   -2.1810   -0.8780   -2.6180 N   0  0  0  0  0  0  0  0  0  0  0  0
   -4.5010   -1.4260   -3.0180 N   0  0  0  0  0  0  0  0  0  0  0  0
   -5.7850   -1.4400   -2.6260 C   0  0  0  0  0  0  0  0  0  0  0  0
   -6.1380   -0.9530   -1.4290 N   0  0  0  0  0  0  0  0  0  0  0  0
   -5.2230   -0.4330   -0.5730 C   0  0  0  0  0  0  0  0  0  0  0  0
  2  1  1  6
  2  3  1  0
  2  4  1  0
  4  5  1  0
  4 32  1  0
  5  6  2  0
  6  7  1  0
  6 26  1  0
  7  8  2  0
  7 25  1  0
  8  9  1  0
  9 10  2  0
 10 11  1  0
 10 24  1  0
 11 12  2  0
 12 13  1  0
 12 22  1  0
 13 14  1  0
 14 15  1  0
 15 16  2  0
 15 21  1  0
 16 17  1  0
 17 18  2  0
 18 19  1  0
 19 20  1  0
 19 21  2  0
 22 23  2  0
 23 24  1  0
 24 25  2  0
 26 27  2  0
 26 32  1  0
 27 28  1  0
 27 29  1  0
 29 30  2  0
 30 31  1  0
 31 32  2  0
M  END
