
     RDKit          3D

 26 29  0  0  0  0  0  0  0  0999 V2000
    6.9460    0.2910   -1.3690 C   0  0  0  0  0  0  0  0  0  0  0  0
    5.6660    0.1690   -1.0250 C   0  0  0  0  0  0  0  0  0  0  0  0
    4.7760   -0.6300   -1.6390 N   0  0  0  0  0  0  0  0  0  0  0  0
    3.5750   -0.5310   -1.0610 C   0  0  0  0  0  0  0  0  0  0  0  0
    2.3420   -1.2650   -1.4590 C   0  0  0  0  0  0  0  0  0  0  0  0
    3.7080    0.3880   -0.0150 C   0  0  0  0  0  0  0  0  0  0  0  0
    5.0310    0.8390    0.0180 C   0  0  0  0  0  0  0  0  0  0  0  0
    5.6120    1.7020    0.8300 C   0  0  0  0  0  0  0  0  0  0  0  0
    5.0930    2.4830    1.9630 C   0  0  0  0  0  0  0  0  0  0  0  0
    3.8100    1.9410    2.5340 C   0  0  0  0  0  0  0  0  0  0  0  0
    2.7600    2.1260    1.4570 C   0  0  0  0  0  0  0  0  0  0  0  0
    2.5740    0.7380    0.8380 C   0  0  1  0  0  0  0  0  0  0  0  0
    1.2970    0.8150    0.1420 N   0  0  0  0  0  0  0  0  0  0  0  0
    0.1870    0.0570    0.5970 C   0  0  0  0  0  0  0  0  0  0  0  0
    0.3260   -0.6690    1.5940 O   0  0  0  0  0  0  0  0  0  0  0  0
   -1.0850    0.0990   -0.0530 N   0  0  0  0  0  0  0  0  0  0  0  0
   -2.2090   -0.6680    0.4070 C   0  0  0  0  0  0  0  0  0  0  0  0
   -3.4000   -0.4200   -0.4670 C   0  0  0  0  0  0  0  0  0  0  0  0
   -3.5380    0.3680   -1.5410 N   0  0  0  0  0  0  0  0  0  0  0  0
   -4.7910    0.2580   -1.9850 N   0  0  0  0  0  0  0  0  0  0  0  0
   -5.4680   -0.5700   -1.2400 N   0  0  0  0  0  0  0  0  0  0  0  0
   -4.6570   -1.0150   -0.2910 C   0  0  0  0  0  0  0  0  0  0  0  0
   -5.1740   -1.9770    0.7010 C   0  0  0  0  0  0  0  0  0  0  0  0
   -6.5720   -1.4880    1.0830 C   0  0  0  0  0  0  0  0  0  0  0  0
   -7.4240   -1.5580   -0.1350 C   0  0  0  0  0  0  0  0  0  0  0  0
   -6.8560   -0.9700   -1.3730 C   0  0  0  0  0  0  0  0  0  0  0  0
  1  2  2  0
  2  3  1  0
  2  7  1  0
  3  4  1  0
  4  5  1  0
  4  6  2  0
  6  7  1  0
  6 12  1  0
  7  8  2  0
  8  9  1  0
  9 10  1  0
 10 11  1  0
 11 12  1  0
 12 13  1  6
 13 14  1  0
 14 15  2  0
 14 16  1  0
 16 17  1  0
 17 18  1  0
 18 19  1  0
 18 22  2  0
 19 20  2  0
 20 21  1  0
 21 22  1  0
 21 26  1  0
 22 23  1  0
 23 24  1  0
 24 25  1  0
 25 26  1  0
M  CHG  1  19   1
M  END
