
     RDKit          3D

 26 28  0  0  0  0  0  0  0  0999 V2000
   -1.3490    4.3150   -2.5710 C   0  0  0  0  0  0  0  0  0  0  0  0
   -0.9250    3.0150   -1.9830 C   0  0  0  0  0  0  0  0  0  0  0  0
   -1.9840    2.3220   -1.2410 C   0  0  0  0  0  0  0  0  0  0  0  0
   -3.1020    2.8950   -1.1870 O   0  0  0  0  0  0  0  0  0  0  0  0
   -1.7820    1.0180   -0.5780 C   0  0  0  0  0  0  0  0  0  0  0  0
   -2.7550    0.4190    0.0830 C   0  0  0  0  0  0  0  0  0  0  0  0
   -3.9960    1.1980    0.0640 N   0  0  0  0  0  0  0  0  0  0  0  0
   -2.7400   -0.8460    0.7860 C   0  0  0  0  0  0  0  0  0  0  0  0
   -2.9610   -1.3450    2.0110 C   0  0  0  0  0  0  0  0  0  0  0  0
   -2.6540   -2.6880    1.5330 C   0  0  0  0  0  0  0  0  0  0  0  0
   -2.4550   -2.1390    0.3670 N   0  0  0  0  0  0  0  0  0  0  0  0
   -2.0820   -2.5720   -0.9790 C   0  0  0  0  0  0  0  0  0  0  0  0
   -0.7050   -3.1860   -1.0300 C   0  0  0  0  0  0  0  0  0  0  0  0
   -0.0240   -3.2650    0.2670 C   0  0  0  0  0  0  0  0  0  0  0  0
    1.0680   -2.6120    0.6250 C   0  0  0  0  0  0  0  0  0  0  0  0
    1.8230   -1.6640   -0.2260 C   0  0  0  0  0  0  0  0  0  0  0  0
    1.5940   -0.3190    0.2680 N   0  0  0  0  0  0  0  0  0  0  0  0
    2.7050    0.5430    0.4050 C   0  0  0  0  0  0  0  0  0  0  0  0
    2.8120    1.7090   -0.2690 N   0  0  0  0  0  0  0  0  0  0  0  0
    3.8650    2.4910   -0.1190 N   0  0  0  0  0  0  0  0  0  0  0  0
    4.9010    2.2160    0.6910 C   0  0  0  0  0  0  0  0  0  0  0  0
    4.8630    1.0470    1.4100 C   0  0  0  0  0  0  0  0  0  0  0  0
    3.7490    0.2270    1.2460 C   0  0  0  0  0  0  0  0  0  0  0  0
    3.6510   -1.0130    1.9750 N   0  0  0  0  0  0  0  0  0  0  0  0
    0.2350    0.1180    0.6090 C   0  0  0  0  0  0  0  0  0  0  0  0
   -0.4100    0.4680   -0.7150 C   0  0  0  0  0  0  0  0  0  0  0  0
  1  2  1  0
  2  3  1  0
  3  4  2  0
  3  5  1  0
  5  6  2  0
  5 26  1  0
  6  7  1  0
  6  8  1  0
  8  9  2  0
  8 11  1  0
  9 10  1  0
 10 11  2  0
 11 12  1  0
 12 13  1  0
 13 14  1  0
 14 15  2  0
 15 16  1  0
 16 17  1  0
 17 18  1  0
 17 25  1  0
 18 19  2  0
 18 23  1  0
 19 20  1  0
 20 21  2  0
 21 22  1  0
 22 23  2  0
 23 24  1  0
 25 26  1  0
M  CHG  1  11   1
M  END
