
     RDKit          3D

 26 29  0  0  0  0  0  0  0  0999 V2000
   -6.0220    0.1850    1.2890 C   0  0  0  0  0  0  0  0  0  0  0  0
   -4.7740    0.5860    0.7030 N   0  0  2  0  0  0  0  0  0  0  0  0
   -4.9110    1.9690    0.2750 C   0  0  0  0  0  0  0  0  0  0  0  0
   -4.3920   -0.1950   -0.4420 C   0  0  0  0  0  0  0  0  0  0  0  0
   -3.9200   -1.5760   -0.0890 C   0  0  1  0  0  0  0  0  0  0  0  0
   -3.5470   -2.3030   -1.3540 C   0  0  0  0  0  0  0  0  0  0  0  0
   -2.3630   -1.7070   -2.0450 C   0  0  0  0  0  0  0  0  0  0  0  0
   -1.1520   -1.5730   -1.1480 C   0  0  1  0  0  0  0  0  0  0  0  0
   -0.1850   -0.6440   -1.8550 C   0  0  0  0  0  0  0  0  0  0  0  0
    1.0280   -0.4590   -1.0440 N   0  0  0  0  0  0  0  0  0  0  0  0
    2.0910    0.3610   -1.4730 C   0  0  0  0  0  0  0  0  0  0  0  0
    1.9720    0.9400   -2.5830 O   0  0  0  0  0  0  0  0  0  0  0  0
    3.3100    0.5550   -0.6740 C   0  0  0  0  0  0  0  0  0  0  0  0
    3.6110    0.0100    0.5480 C   0  0  0  0  0  0  0  0  0  0  0  0
    4.8670    0.4450    0.9660 C   0  0  0  0  0  0  0  0  0  0  0  0
    5.6420    0.2210    2.0730 C   0  0  0  0  0  0  0  0  0  0  0  0
    6.8670    0.8190    2.1800 C   0  0  0  0  0  0  0  0  0  0  0  0
    7.8580    0.8240    3.0940 N   0  0  0  0  0  0  0  0  0  0  0  0
    8.8360    1.6000    2.6640 N   0  0  0  0  0  0  0  0  0  0  0  0
    8.5510    2.1260    1.4910 N   0  0  0  0  0  0  0  0  0  0  0  0
    7.3290    1.6550    1.1660 C   0  0  0  0  0  0  0  0  0  0  0  0
    6.5450    1.8750    0.0560 C   0  0  0  0  0  0  0  0  0  0  0  0
    5.3040    1.2760   -0.0630 C   0  0  0  0  0  0  0  0  0  0  0  0
    4.3540    1.3150   -1.0140 N   0  0  0  0  0  0  0  0  0  0  0  0
   -1.5130   -0.9300    0.1750 C   0  0  0  0  0  0  0  0  0  0  0  0
   -2.7220   -1.5760    0.8150 C   0  0  0  0  0  0  0  0  0  0  0  0
  2  1  1  6
  2  3  1  0
  2  4  1  0
  5  4  1  6
  5  6  1  0
  5 26  1  0
  6  7  1  0
  7  8  1  0
  8  9  1  6
  8 25  1  0
  9 10  1  0
 10 11  1  0
 11 12  2  0
 11 13  1  0
 13 14  2  0
 13 24  1  0
 14 15  1  0
 15 16  2  0
 15 23  1  0
 16 17  1  0
 17 18  1  0
 17 21  2  0
 18 19  2  0
 19 20  1  0
 20 21  1  0
 21 22  1  0
 22 23  2  0
 23 24  1  0
 25 26  1  0
M  CHG  1   2   1
M  END
