
     RDKit          3D

 31 34  0  0  0  0  0  0  0  0999 V2000
    9.6380   -0.7620    1.3990 C   0  0  0  0  0  0  0  0  0  0  0  0
    8.2640   -0.9460    0.8370 C   0  0  0  0  0  0  0  0  0  0  0  0
    7.3830    0.1060    1.2240 O   0  0  0  0  0  0  0  0  0  0  0  0
    6.0780    0.0420    0.7610 C   0  0  0  0  0  0  0  0  0  0  0  0
    5.6210   -0.9900   -0.0470 C   0  0  0  0  0  0  0  0  0  0  0  0
    4.3330   -1.0490   -0.5010 C   0  0  0  0  0  0  0  0  0  0  0  0
    3.4290   -0.0410   -0.1490 C   0  0  0  0  0  0  0  0  0  0  0  0
    2.1320   -0.0570   -0.5800 C   0  0  0  0  0  0  0  0  0  0  0  0
    1.2260    0.9260   -0.2450 C   0  0  0  0  0  0  0  0  0  0  0  0
   -0.1770    0.8310   -0.7160 C   0  0  0  0  0  0  0  0  0  0  0  0
   -0.9820   -0.2330   -0.5380 N   0  0  0  0  0  0  0  0  0  0  0  0
   -2.1610   -0.0290   -1.0810 N   0  0  0  0  0  0  0  0  0  0  0  0
   -3.2670   -0.9340   -1.1140 C   0  0  0  0  0  0  0  0  0  0  0  0
   -4.2620   -0.8220   -0.0310 C   0  0  2  0  0  0  0  0  0  0  0  0
   -3.8220   -1.0200    1.3690 C   0  0  1  0  0  0  0  0  0  0  0  0
   -2.7860   -0.0750    1.8880 C   0  0  0  0  0  0  0  0  0  0  0  0
   -5.0770   -0.8360    2.2420 C   0  0  0  0  0  0  0  0  0  0  0  0
   -5.4290   -1.6550   -0.2520 N   0  0  2  0  0  0  0  0  0  0  0  0
   -5.1290   -3.0430   -0.4180 C   0  0  0  0  0  0  0  0  0  0  0  0
   -6.1300   -1.2210   -1.4710 C   0  0  0  0  0  0  0  0  0  0  0  0
   -2.1540    1.1920   -1.6370 C   0  0  0  0  0  0  0  0  0  0  0  0
   -3.0580    1.9070   -2.3190 N   0  0  0  0  0  0  0  0  0  0  0  0
   -2.7530    3.1340   -2.7740 C   0  0  0  0  0  0  0  0  0  0  0  0
   -1.5490    3.6880   -2.5700 N   0  0  0  0  0  0  0  0  0  0  0  0
   -0.5850    3.0130   -1.8840 C   0  0  0  0  0  0  0  0  0  0  0  0
    0.6990    3.5740   -1.6840 N   0  0  0  0  0  0  0  0  0  0  0  0
   -0.9050    1.7570   -1.4190 C   0  0  0  0  0  0  0  0  0  0  0  0
    1.6510    1.9500    0.5480 C   0  0  0  0  0  0  0  0  0  0  0  0
    2.9680    1.9820    0.9950 C   0  0  0  0  0  0  0  0  0  0  0  0
    3.8560    0.9930    0.6500 C   0  0  0  0  0  0  0  0  0  0  0  0
    5.1810    1.0200    1.0960 C   0  0  0  0  0  0  0  0  0  0  0  0
  1  2  1  0
  2  3  1  0
  3  4  1  0
  4  5  2  0
  4 31  1  0
  5  6  1  0
  6  7  2  0
  7  8  1  0
  7 30  1  0
  8  9  2  0
  9 10  1  0
  9 28  1  0
 10 11  2  0
 10 27  1  0
 11 12  1  0
 12 13  1  0
 12 21  1  0
 14 13  1  6
 14 15  1  0
 14 18  1  0
 15 16  1  1
 15 17  1  0
 18 19  1  6
 18 20  1  0
 21 22  2  0
 21 27  1  0
 22 23  1  0
 23 24  2  0
 24 25  1  0
 25 26  1  0
 25 27  2  0
 28 29  2  0
 29 30  1  0
 30 31  2  0
M  CHG  1  18   1
M  END
