
     RDKit          3D

 31 34  0  0  0  0  0  0  0  0999 V2000
   -4.5810    3.2520    0.1320 C   0  0  0  0  0  0  0  0  0  0  0  0
   -4.8750    1.9520   -0.2420 N   0  0  0  0  0  0  0  0  0  0  0  0
   -4.7740    0.7840    0.5380 C   0  0  0  0  0  0  0  0  0  0  0  0
   -3.9600   -0.2230   -0.2880 C   0  0  0  0  0  0  0  0  0  0  0  0
   -2.6440    0.0400   -0.4830 C   0  0  0  0  0  0  0  0  0  0  0  0
   -1.8690   -0.7880   -1.1600 C   0  0  0  0  0  0  0  0  0  0  0  0
   -0.3990   -0.9750   -1.4810 C   0  0  0  0  0  0  0  0  0  0  0  0
    0.0830   -1.6850   -2.3110 O   0  0  0  0  0  0  0  0  0  0  0  0
    0.5380   -0.1950   -0.6380 N   0  0  0  0  0  0  0  0  0  0  0  0
    1.9570   -0.4410   -0.7640 C   0  0  0  0  0  0  0  0  0  0  0  0
    2.6340    0.0970    0.4630 C   0  0  0  0  0  0  0  0  0  0  0  0
    2.0140   -0.0650    1.6950 C   0  0  0  0  0  0  0  0  0  0  0  0
    0.7370   -0.7100    2.0580 C   0  0  0  0  0  0  0  0  0  0  0  0
    2.9030    0.4750    2.5900 N   0  0  0  0  0  0  0  0  0  0  0  0
    3.9750    0.9370    1.9060 N   0  0  0  0  0  0  0  0  0  0  0  0
    3.8380    0.7080    0.6120 C   0  0  0  0  0  0  0  0  0  0  0  0
    4.9760    1.0110   -0.2370 N   0  0  0  0  0  0  0  0  0  0  0  0
    4.7570    0.8870   -1.6970 C   0  0  0  0  0  0  0  0  0  0  0  0
    5.5760    0.1530   -2.4030 C   0  0  0  0  0  0  0  0  0  0  0  0
    6.7090   -0.5510   -1.8810 C   0  0  0  0  0  0  0  0  0  0  0  0
    5.1440    0.0780   -4.1280 Cl  0  0  0  0  0  0  0  0  0  0  0  0
    6.2130    1.3700    0.3590 C   0  0  0  0  0  0  0  0  0  0  0  0
    6.0350    2.1750    1.5760 C   0  0  0  0  0  0  0  0  0  0  0  0
    5.0330    1.6680    2.5350 C   0  0  0  0  0  0  0  0  0  0  0  0
   -3.0560   -2.1190   -1.6160 S   0  0  0  0  0  0  0  0  0  0  0  0
   -4.4150   -1.3450   -0.7800 C   0  0  0  0  0  0  0  0  0  0  0  0
   -5.6430   -2.1360   -0.4420 C   0  0  0  0  0  0  0  0  0  0  0  0
   -5.9870   -2.2550    0.8850 C   0  0  0  0  0  0  0  0  0  0  0  0
   -7.2120   -3.0660    0.9930 C   0  0  0  0  0  0  0  0  0  0  0  0
   -7.5910   -3.3110   -0.4020 C   0  0  0  0  0  0  0  0  0  0  0  0
   -6.6360   -2.7800   -1.2250 C   0  0  0  0  0  0  0  0  0  0  0  0
  1  2  1  0
  2  3  1  0
  3  4  1  0
  4  5  1  0
  4 26  2  0
  5  6  2  0
  6  7  1  0
  6 25  1  0
  7  8  2  0
  7  9  1  0
  9 10  1  0
 10 11  1  0
 11 12  1  0
 11 16  2  0
 12 13  1  0
 12 14  2  0
 14 15  1  0
 15 16  1  0
 15 24  1  0
 16 17  1  0
 17 18  1  0
 17 22  1  0
 18 19  2  3
 19 20  1  0
 19 21  1  0
 22 23  1  0
 23 24  1  0
 25 26  1  0
 26 27  1  0
 27 28  2  0
 27 31  1  0
 28 29  1  0
 29 30  1  0
 30 31  2  0
M  END
