
     RDKit          3D

 30 31  0  0  0  0  0  0  0  0999 V2000
    0.6370   -4.4150    1.4990 C   0  0  0  0  0  0  0  0  0  0  0  0
   -0.6870   -4.3890    0.9390 O   0  0  0  0  0  0  0  0  0  0  0  0
   -1.2090   -3.1310    0.5600 C   0  0  0  0  0  0  0  0  0  0  0  0
   -0.3750   -1.9870    0.6000 C   0  0  0  0  0  0  0  0  0  0  0  0
   -0.6890   -0.7740    0.2440 C   0  0  0  0  0  0  0  0  0  0  0  0
   -0.1840    0.4810   -0.2630 C   0  0  0  0  0  0  0  0  0  0  0  0
    0.8720    0.7210   -0.9740 C   0  0  0  0  0  0  0  0  0  0  0  0
    1.9170   -0.1080   -1.4590 C   0  0  0  0  0  0  0  0  0  0  0  0
    1.9900   -1.4610   -0.6910 O   0  0  0  0  0  0  0  0  0  0  0  0
    2.8030   -1.0590    0.4450 C   0  0  0  0  0  0  0  0  0  0  0  0
    3.1420   -1.8090    1.6030 C   0  0  0  0  0  0  0  0  0  0  0  0
    3.9400   -3.0700    1.5590 C   0  0  0  0  0  0  0  0  0  0  0  0
    4.0330   -3.6070    2.8670 O   0  0  0  0  0  0  0  0  0  0  0  0
    2.8660   -0.1190   -2.2750 C   0  0  0  0  0  0  0  0  0  0  0  0
    3.2010    1.0850   -3.1590 C   0  0  0  0  0  0  0  0  0  0  0  0
    3.7520   -1.3130   -2.5100 C   0  0  0  0  0  0  0  0  0  0  0  0
   -0.6130    1.6840    0.6130 C   0  0  1  0  0  0  0  0  0  0  0  0
    0.6950    2.3290    0.8250 O   0  0  0  0  0  0  0  0  0  0  0  0
   -1.3780    2.7690    0.0410 C   0  0  0  0  0  0  0  0  0  0  0  0
   -1.5360    3.1550   -1.2210 C   0  0  0  0  0  0  0  0  0  0  0  0
   -2.5200    4.0640   -1.6690 C   0  0  0  0  0  0  0  0  0  0  0  0
   -3.3830    4.5860   -0.7320 C   0  0  0  0  0  0  0  0  0  0  0  0
   -4.5140    5.4850   -1.0500 C   0  0  0  0  0  0  0  0  0  0  0  0
   -3.2320    4.2020    0.6040 C   0  0  0  0  0  0  0  0  0  0  0  0
   -2.2680    3.3250    1.0100 C   0  0  0  0  0  0  0  0  0  0  0  0
   -2.1300    2.9940    2.4340 C   0  0  0  0  0  0  0  0  0  0  0  0
   -2.1100   -0.7100   -0.2100 C   0  0  0  0  0  0  0  0  0  0  0  0
   -2.9150   -1.7790   -0.2490 C   0  0  0  0  0  0  0  0  0  0  0  0
   -2.4990   -3.0180    0.1280 C   0  0  0  0  0  0  0  0  0  0  0  0
   -3.4320   -4.1680    0.0090 C   0  0  0  0  0  0  0  0  0  0  0  0
  1  2  1  0
  2  3  1  0
  3  4  2  0
  3 29  1  0
  4  5  1  0
  5  6  1  0
  5 27  2  0
  6  7  2  3
  6 17  1  0
  7  8  1  0
  8  9  1  0
  8 14  2  3
  9 10  1  0
 10 11  1  0
 11 12  1  0
 12 13  1  0
 14 15  1  0
 14 16  1  0
 17 18  1  6
 17 19  1  0
 19 20  2  0
 19 25  1  0
 20 21  1  0
 21 22  2  0
 22 23  1  0
 22 24  1  0
 24 25  2  0
 25 26  1  0
 27 28  1  0
 28 29  2  0
 29 30  1  0
M  END
