
     RDKit          3D

 31 34  0  0  0  0  0  0  0  0999 V2000
   -7.0190    2.0240    0.7200 C   0  0  0  0  0  0  0  0  0  0  0  0
   -5.6040    1.5140    0.7850 C   0  0  0  0  0  0  0  0  0  0  0  0
   -4.9710    1.5710    2.1240 C   0  0  0  0  0  0  0  0  0  0  0  0
   -5.0140    1.0230   -0.2800 C   0  0  0  0  0  0  0  0  0  0  0  0
   -3.6640    0.5030   -0.3650 C   0  0  0  0  0  0  0  0  0  0  0  0
   -3.4670   -0.7940   -0.8730 C   0  0  0  0  0  0  0  0  0  0  0  0
   -4.6250   -1.6240   -1.2840 C   0  0  0  0  0  0  0  0  0  0  0  0
   -5.3500   -2.1930   -0.0790 C   0  0  0  0  0  0  0  0  0  0  0  0
   -6.7340   -3.1870   -0.5730 Cl  0  0  0  0  0  0  0  0  0  0  0  0
   -2.1920   -1.2970   -0.9890 C   0  0  0  0  0  0  0  0  0  0  0  0
   -1.0730   -0.5680   -0.6200 C   0  0  0  0  0  0  0  0  0  0  0  0
    0.2890   -1.1490   -0.7640 C   0  0  1  0  0  0  0  0  0  0  0  0
    0.9490   -0.6110   -2.0070 C   0  0  0  0  0  0  0  0  0  0  0  0
    2.3400   -0.1560   -1.7970 C   0  0  0  0  0  0  0  0  0  0  0  0
    2.8330    0.7420   -2.5460 O   0  0  0  0  0  0  0  0  0  0  0  0
    3.1600   -0.6980   -0.7690 N   0  0  0  0  0  0  0  0  0  0  0  0
    4.4570   -0.9200   -0.6400 N   0  0  0  0  0  0  0  0  0  0  0  0
    4.6640   -1.4590    0.5620 C   0  0  0  0  0  0  0  0  0  0  0  0
    5.8910   -1.9000    1.2140 C   0  0  0  0  0  0  0  0  0  0  0  0
    7.1410   -1.7000    0.4300 C   0  0  0  0  0  0  0  0  0  0  0  0
    7.3770   -0.2730    0.1520 C   0  0  0  0  0  0  0  0  0  0  0  0
    7.1120    0.5340   -0.8690 C   0  0  0  0  0  0  0  0  0  0  0  0
    7.4370    1.8390   -0.8280 C   0  0  0  0  0  0  0  0  0  0  0  0
    8.0510    2.3120    0.2990 C   0  0  0  0  0  0  0  0  0  0  0  0
    8.1710    0.8410    1.3440 S   0  0  0  0  0  0  0  0  0  0  0  0
    3.4420   -1.5680    1.1870 N   0  0  0  0  0  0  0  0  0  0  0  0
    2.5270   -1.0990    0.3620 C   0  0  0  0  0  0  0  0  0  0  0  0
    1.1010   -0.9310    0.3940 N   0  0  0  0  0  0  0  0  0  0  0  0
   -1.2950    0.6600   -0.1430 N   0  0  0  0  0  0  0  0  0  0  0  0
   -2.5430    1.2040   -0.0100 C   0  0  0  0  0  0  0  0  0  0  0  0
   -2.6470    2.6150    0.4930 C   0  0  0  0  0  0  0  0  0  0  0  0
  1  2  1  0
  2  3  1  0
  2  4  2  3
  4  5  1  0
  5  6  2  0
  5 30  1  0
  6  7  1  0
  6 10  1  0
  7  8  1  0
  8  9  1  0
 10 11  2  0
 12 11  1  1
 11 29  1  0
 12 13  1  0
 12 28  1  0
 13 14  1  0
 14 15  2  0
 14 16  1  0
 16 17  1  0
 16 27  1  0
 17 18  2  0
 18 19  1  0
 18 26  1  0
 19 20  1  0
 20 21  1  0
 21 22  2  0
 21 25  1  0
 22 23  1  0
 23 24  2  0
 24 25  1  0
 26 27  2  0
 27 28  1  0
 29 30  2  0
 30 31  1  0
M  END
