
     RDKit          3D

 30 31  0  0  0  0  0  0  0  0999 V2000
   -7.3770    1.1950   -2.2600 C   0  0  0  0  0  0  0  0  0  0  0  0
   -6.5260    0.1110   -1.7050 C   0  0  0  0  0  0  0  0  0  0  0  0
   -6.4530   -1.1230   -2.3180 C   0  0  0  0  0  0  0  0  0  0  0  0
   -5.6540   -2.1370   -1.7960 C   0  0  0  0  0  0  0  0  0  0  0  0
   -5.5950   -3.4520   -2.4740 C   0  0  0  0  0  0  0  0  0  0  0  0
   -4.9270   -1.9010   -0.6470 C   0  0  0  0  0  0  0  0  0  0  0  0
   -4.1160   -2.9220   -0.1120 O   0  0  0  0  0  0  0  0  0  0  0  0
   -4.9830   -0.6770   -0.0160 C   0  0  0  0  0  0  0  0  0  0  0  0
   -4.2340   -0.4900    1.1360 O   0  0  0  0  0  0  0  0  0  0  0  0
   -4.2990    0.7610    1.7710 C   0  0  0  0  0  0  0  0  0  0  0  0
   -3.4540    0.8490    2.9970 C   0  0  0  0  0  0  0  0  0  0  0  0
   -2.0090    0.5890    2.6350 C   0  0  0  0  0  0  0  0  0  0  0  0
   -1.4700    1.5700    1.6490 C   0  0  0  0  0  0  0  0  0  0  0  0
   -0.0370    1.3480    1.2760 C   0  0  0  0  0  0  0  0  0  0  0  0
    0.8960    1.4440    2.4240 C   0  0  0  0  0  0  0  0  0  0  0  0
    0.5220    1.7130    3.5980 O   0  0  0  0  0  0  0  0  0  0  0  0
    2.2620    1.2380    2.2720 O   0  0  0  0  0  0  0  0  0  0  0  0
    3.1390    1.3320    3.3720 C   0  0  0  0  0  0  0  0  0  0  0  0
    4.5720    1.0680    2.9470 C   0  0  0  0  0  0  0  0  0  0  0  0
    5.0750    1.9850    1.9520 C   0  0  0  0  0  0  0  0  0  0  0  0
    5.3980    1.8620    0.7050 C   0  0  0  0  0  0  0  0  0  0  0  0
    5.3640    0.7250   -0.1820 C   0  0  0  0  0  0  0  0  0  0  0  0
    4.7460   -0.4720    0.0800 C   0  0  0  0  0  0  0  0  0  0  0  0
    4.8240   -1.5120   -0.8150 C   0  0  0  0  0  0  0  0  0  0  0  0
    5.5040   -1.4410   -2.0080 C   0  0  0  0  0  0  0  0  0  0  0  0
    5.5580   -2.5970   -2.9440 C   0  0  0  0  0  0  0  0  0  0  0  0
    6.1250   -0.2450   -2.2780 C   0  0  0  0  0  0  0  0  0  0  0  0
    6.8790   -0.1100   -3.5630 C   0  0  0  0  0  0  0  0  0  0  0  0
    6.0630    0.8050   -1.4040 C   0  0  0  0  0  0  0  0  0  0  0  0
   -5.7780    0.2950   -0.5560 C   0  0  0  0  0  0  0  0  0  0  0  0
  1  2  1  0
  2  3  2  0
  2 30  1  0
  3  4  1  0
  4  5  1  0
  4  6  2  0
  6  7  1  0
  6  8  1  0
  8  9  1  0
  8 30  2  0
  9 10  1  0
 10 11  1  0
 11 12  1  0
 12 13  1  0
 13 14  1  0
 14 15  1  0
 15 16  2  0
 15 17  1  0
 17 18  1  0
 18 19  1  0
 19 20  1  0
 20 21  2  3
 21 22  1  0
 22 23  2  0
 22 29  1  0
 23 24  1  0
 24 25  2  0
 25 26  1  0
 25 27  1  0
 27 28  1  0
 27 29  2  0
M  END
