
     RDKit          3D

 30 31  0  0  0  0  0  0  0  0999 V2000
   -1.6390    3.0310    1.8310 C   0  0  0  0  0  0  0  0  0  0  0  0
   -1.8950    3.4060    0.4130 C   0  0  0  0  0  0  0  0  0  0  0  0
   -0.7240    3.1190   -0.5230 C   0  0  1  0  0  0  0  0  0  0  0  0
    0.4490    3.9520   -0.0430 C   0  0  0  0  0  0  0  0  0  0  0  0
    0.9980    3.5170    1.1450 O   0  0  0  0  0  0  0  0  0  0  0  0
    2.0580    4.2850    1.5630 C   0  0  0  0  0  0  0  0  0  0  0  0
   -0.4760    1.8200   -0.8420 O   0  0  0  0  0  0  0  0  0  0  0  0
   -0.1800    0.6680   -0.2320 C   0  0  0  0  0  0  0  0  0  0  0  0
    1.0600    0.3280    0.0850 C   0  0  0  0  0  0  0  0  0  0  0  0
    2.2720    1.0840   -0.1650 C   0  0  0  0  0  0  0  0  0  0  0  0
    3.3040    0.2330   -0.8760 C   0  0  0  0  0  0  0  0  0  0  0  0
    3.3320    0.1970   -2.2460 C   0  0  0  0  0  0  0  0  0  0  0  0
    4.2750   -0.5790   -2.9280 C   0  0  0  0  0  0  0  0  0  0  0  0
    5.1830   -1.3140   -2.1920 C   0  0  0  0  0  0  0  0  0  0  0  0
    6.2040   -2.1540   -2.8830 C   0  0  0  0  0  0  0  0  0  0  0  0
    5.1630   -1.2850   -0.8120 C   0  0  0  0  0  0  0  0  0  0  0  0
    6.1590   -2.0910   -0.0670 C   0  0  0  0  0  0  0  0  0  0  0  0
    4.2100   -0.5000   -0.1660 C   0  0  0  0  0  0  0  0  0  0  0  0
   -1.1730   -0.3470    0.1570 C   0  0  0  0  0  0  0  0  0  0  0  0
   -2.4380   -0.4370   -0.0490 C   0  0  0  0  0  0  0  0  0  0  0  0
   -3.2670    0.5550   -0.8210 C   0  0  0  0  0  0  0  0  0  0  0  0
   -3.8530   -0.1700   -1.9020 O   0  0  0  0  0  0  0  0  0  0  0  0
   -3.2490   -1.5720    0.4630 C   0  0  0  0  0  0  0  0  0  0  0  0
   -2.6590   -2.6180    1.1040 C   0  0  0  0  0  0  0  0  0  0  0  0
   -3.4040   -3.6950    1.6200 C   0  0  0  0  0  0  0  0  0  0  0  0
   -4.7680   -3.6860    1.4690 C   0  0  0  0  0  0  0  0  0  0  0  0
   -5.5930   -4.7990    1.9950 C   0  0  0  0  0  0  0  0  0  0  0  0
   -5.3810   -2.6430    0.8260 C   0  0  0  0  0  0  0  0  0  0  0  0
   -6.7510   -2.6110    0.6610 O   0  0  0  0  0  0  0  0  0  0  0  0
   -4.6220   -1.6080    0.3350 C   0  0  0  0  0  0  0  0  0  0  0  0
  1  2  1  0
  3  2  1  1
  3  4  1  0
  3  7  1  0
  4  5  1  0
  5  6  1  0
  7  8  1  0
  8  9  2  3
  8 19  1  0
  9 10  1  0
 10 11  1  0
 11 12  2  0
 11 18  1  0
 12 13  1  0
 13 14  2  0
 14 15  1  0
 14 16  1  0
 16 17  1  0
 16 18  2  0
 19 20  2  3
 20 21  1  0
 20 23  1  0
 21 22  1  0
 23 24  2  0
 23 30  1  0
 24 25  1  0
 25 26  2  0
 26 27  1  0
 26 28  1  0
 28 29  1  0
 28 30  2  0
M  END
