
     RDKit          3D

 38 42  0  0  0  0  0  0  0  0999 V2000
   -7.0500    3.2050    1.3940 C   0  0  0  0  0  0  0  0  0  0  0  0
   -6.0810    2.1770    1.3820 O   0  0  0  0  0  0  0  0  0  0  0  0
   -4.8330    2.4070    0.8160 C   0  0  0  0  0  0  0  0  0  0  0  0
   -4.5440    3.6370    0.2690 C   0  0  0  0  0  0  0  0  0  0  0  0
   -3.3090    3.8510   -0.2850 C   0  0  0  0  0  0  0  0  0  0  0  0
   -2.4000    2.8290   -0.2770 C   0  0  0  0  0  0  0  0  0  0  0  0
   -2.6610    1.5920    0.2620 C   0  0  0  0  0  0  0  0  0  0  0  0
   -1.5880    0.5590    0.2110 C   0  0  1  0  0  0  0  0  0  0  0  0
   -1.2130    0.1170    1.4230 O   0  0  0  0  0  0  0  0  0  0  0  0
   -0.0760   -0.6840    1.5060 C   0  0  2  0  0  0  0  0  0  0  0  0
    0.9230   -0.4020    0.4400 C   0  0  0  0  0  0  0  0  0  0  0  0
    2.1110   -1.2760    0.5940 C   0  0  0  0  0  0  0  0  0  0  0  0
    2.2140   -2.1110    1.5060 O   0  0  0  0  0  0  0  0  0  0  0  0
    3.1620   -1.1420   -0.3450 N   0  0  0  0  0  0  0  0  0  0  0  0
    3.1290   -0.1910   -1.4470 C   0  0  0  0  0  0  0  0  0  0  0  0
    4.0940    0.9330   -1.0700 C   0  0  0  0  0  0  0  0  0  0  0  0
    5.1650    0.3880   -0.1750 C   0  0  2  0  0  0  0  0  0  0  0  0
    6.4190    1.1980   -0.1860 C   0  0  0  0  0  0  0  0  0  0  0  0
    7.0570    1.3080   -1.5090 C   0  0  0  0  0  0  0  0  0  0  0  0
    6.6090    0.7770   -2.5360 O   0  0  0  0  0  0  0  0  0  0  0  0
    8.2290    2.0440   -1.6370 O   0  0  0  0  0  0  0  0  0  0  0  0
    5.5230   -1.0500   -0.5050 C   0  0  0  0  0  0  0  0  0  0  0  0
    4.3350   -1.9680   -0.2340 C   0  0  0  0  0  0  0  0  0  0  0  0
   -0.5300   -2.1240    1.4670 C   0  0  0  0  0  0  0  0  0  0  0  0
   -0.2310   -3.0640    2.3710 C   0  0  0  0  0  0  0  0  0  0  0  0
   -0.8980   -4.2250    1.9500 C   0  0  0  0  0  0  0  0  0  0  0  0
   -1.5900   -3.9150    0.7690 C   0  0  0  0  0  0  0  0  0  0  0  0
   -1.3460   -2.6530    0.5110 N   0  0  0  0  0  0  0  0  0  0  0  0
   -1.8360   -1.8900   -0.5890 C   0  0  0  0  0  0  0  0  0  0  0  0
   -2.2270   -2.7620   -1.6070 C   0  0  0  0  0  0  0  0  0  0  0  0
   -2.7410   -2.2320   -2.7730 C   0  0  0  0  0  0  0  0  0  0  0  0
   -2.8610   -0.8600   -2.9170 C   0  0  0  0  0  0  0  0  0  0  0  0
   -3.5190   -0.1720   -4.4050 Cl  0  0  0  0  0  0  0  0  0  0  0  0
   -2.4790    0.0050   -1.9230 C   0  0  0  0  0  0  0  0  0  0  0  0
   -1.9500   -0.5240   -0.7220 C   0  0  0  0  0  0  0  0  0  0  0  0
   -3.8870    1.3890    0.8090 C   0  0  0  0  0  0  0  0  0  0  0  0
   -4.1700    0.1470    1.3570 O   0  0  0  0  0  0  0  0  0  0  0  0
   -3.9120   -0.1550    2.7150 C   0  0  0  0  0  0  0  0  0  0  0  0
  1  2  1  0
  2  3  1  0
  3  4  2  0
  3 36  1  0
  4  5  1  0
  5  6  2  0
  6  7  1  0
  8  7  1  1
  7 36  2  0
  8  9  1  0
  8 35  1  0
  9 10  1  0
 10 11  1  6
 10 24  1  0
 11 12  1  0
 12 13  2  0
 12 14  1  0
 14 15  1  0
 14 23  1  0
 15 16  1  0
 16 17  1  0
 17 18  1  6
 17 22  1  0
 18 19  1  0
 19 20  2  0
 19 21  1  0
 22 23  1  0
 24 25  2  0
 24 28  1  0
 25 26  1  0
 26 27  2  0
 27 28  1  0
 28 29  1  0
 29 30  2  0
 29 35  1  0
 30 31  1  0
 31 32  2  0
 32 33  1  0
 32 34  1  0
 34 35  2  0
 36 37  1  0
 37 38  1  0
M  END
