
     RDKit          3D

 38 42  0  0  0  0  0  0  0  0999 V2000
    8.8630   -2.7500   -0.9310 C   0  0  0  0  0  0  0  0  0  0  0  0
    7.4750   -2.7230   -0.4350 C   0  0  0  0  0  0  0  0  0  0  0  0
    7.0230   -1.6340    0.1400 N   0  0  0  0  0  0  0  0  0  0  0  0
    5.7120   -1.5570    0.6280 C   0  0  0  0  0  0  0  0  0  0  0  0
    5.0260   -0.4570    0.7390 C   0  0  0  0  0  0  0  0  0  0  0  0
    3.6310   -0.6420    1.3100 C   0  0  0  0  0  0  0  0  0  0  0  0
    2.5900   -0.3370    0.4400 N   0  0  0  0  0  0  0  0  0  0  0  0
    2.3170    0.9700    0.0330 C   0  0  0  0  0  0  0  0  0  0  0  0
    0.9130    1.1440   -0.5410 C   0  0  0  0  0  0  0  0  0  0  0  0
    0.3910   -0.0660   -1.0210 N   0  0  0  0  0  0  0  0  0  0  0  0
   -0.9800   -0.3410   -0.8700 C   0  0  0  0  0  0  0  0  0  0  0  0
   -1.4290   -0.5530    0.5510 C   0  0  0  0  0  0  0  0  0  0  0  0
   -2.8570   -0.8160    0.5470 N   0  0  0  0  0  0  0  0  0  0  0  0
   -3.8440    0.1770    0.3660 C   0  0  0  0  0  0  0  0  0  0  0  0
   -3.4570    1.4790    0.2830 N   0  0  0  0  0  0  0  0  0  0  0  0
   -4.3600    2.4740    0.1550 C   0  0  0  0  0  0  0  0  0  0  0  0
   -3.9660    3.7910    0.0700 C   0  0  0  0  0  0  0  0  0  0  0  0
   -4.8990    4.8140   -0.0610 C   0  0  0  0  0  0  0  0  0  0  0  0
   -6.2250    4.4490   -0.1020 C   0  0  0  0  0  0  0  0  0  0  0  0
   -6.6180    3.1260   -0.0170 C   0  0  0  0  0  0  0  0  0  0  0  0
   -5.6870    2.1090    0.1140 C   0  0  0  0  0  0  0  0  0  0  0  0
   -6.0760    0.8320    0.1950 N   0  0  0  0  0  0  0  0  0  0  0  0
   -5.1740   -0.1890    0.3240 C   0  0  0  0  0  0  0  0  0  0  0  0
   -5.6390   -1.5310    0.3850 N   0  0  0  0  0  0  0  0  0  0  0  0
   -5.4030   -2.5290   -0.6480 C   0  0  0  0  0  0  0  0  0  0  0  0
   -6.7340   -3.1710   -1.0490 C   0  0  0  0  0  0  0  0  0  0  0  0
   -7.4520   -3.5430    0.0870 O   0  0  0  0  0  0  0  0  0  0  0  0
   -7.7390   -2.4810    0.9210 C   0  0  0  0  0  0  0  0  0  0  0  0
   -6.4160   -1.9950    1.5190 C   0  0  0  0  0  0  0  0  0  0  0  0
    1.2620   -1.0730   -1.4730 C   0  0  0  0  0  0  0  0  0  0  0  0
    2.4130   -1.3660   -0.5710 C   0  0  0  0  0  0  0  0  0  0  0  0
    5.4370    0.8510    0.2800 C   0  0  0  0  0  0  0  0  0  0  0  0
    5.1250    1.9370    1.1230 C   0  0  0  0  0  0  0  0  0  0  0  0
    5.4020    3.2100    0.7440 C   0  0  0  0  0  0  0  0  0  0  0  0
    5.9910    3.4610   -0.4680 C   0  0  0  0  0  0  0  0  0  0  0  0
    6.2930    2.4240   -1.2880 C   0  0  0  0  0  0  0  0  0  0  0  0
    6.0180    1.1190   -0.9230 C   0  0  0  0  0  0  0  0  0  0  0  0
    6.3400   -0.1110   -2.1510 Cl  0  0  0  0  0  0  0  0  0  0  0  0
  1  2  1  0
  2  3  2  3
  3  4  1  0
  4  5  2  3
  5  6  1  0
  5 32  1  0
  6  7  1  0
  7  8  1  0
  7 31  1  0
  8  9  1  0
  9 10  1  0
 10 11  1  0
 10 30  1  0
 11 12  1  0
 12 13  1  0
 13 14  1  0
 14 15  2  0
 14 23  1  0
 15 16  1  0
 16 17  2  0
 16 21  1  0
 17 18  1  0
 18 19  2  0
 19 20  1  0
 20 21  2  0
 21 22  1  0
 22 23  2  0
 23 24  1  0
 24 25  1  0
 24 29  1  0
 25 26  1  0
 26 27  1  0
 27 28  1  0
 28 29  1  0
 30 31  1  0
 32 33  2  0
 32 37  1  0
 33 34  1  0
 34 35  2  0
 35 36  1  0
 36 37  2  0
 37 38  1  0
M  CHG  2   3   1  15   1
M  END
