
     RDKit          3D

 38 42  0  0  0  0  0  0  0  0999 V2000
    6.2930   -4.0130   -0.3290 C   0  0  0  0  0  0  0  0  0  0  0  0
    6.1400   -2.5580   -0.0550 C   0  0  0  0  0  0  0  0  0  0  0  0
    4.9590   -2.1270    0.5130 C   0  0  0  0  0  0  0  0  0  0  0  0
    4.7950   -0.7740    0.7760 C   0  0  0  0  0  0  0  0  0  0  0  0
    3.5370   -0.3150    1.3820 C   0  0  0  0  0  0  0  0  0  0  0  0
    2.6030   -0.0200    0.2910 N   0  0  0  0  0  0  0  0  0  0  0  0
    1.3120    0.3270    0.9050 C   0  0  0  0  0  0  0  0  0  0  0  0
    0.2730    0.2610   -0.1720 C   0  0  0  0  0  0  0  0  0  0  0  0
   -1.0270    0.5830    0.3220 N   0  0  0  0  0  0  0  0  0  0  0  0
   -1.5660   -0.3850    1.2250 C   0  0  0  0  0  0  0  0  0  0  0  0
   -2.3970   -1.3710    0.4620 C   0  0  0  0  0  0  0  0  0  0  0  0
   -3.5690   -0.8010   -0.1630 N   0  0  1  0  0  0  0  0  0  0  0  0
   -4.7770   -1.2680    0.4480 C   0  0  0  0  0  0  0  0  0  0  0  0
   -5.4860   -0.2730    1.2740 C   0  0  0  0  0  0  0  0  0  0  0  0
   -5.0680   -0.0010    2.5650 C   0  0  0  0  0  0  0  0  0  0  0  0
   -5.6950    0.9150    3.3790 C   0  0  0  0  0  0  0  0  0  0  0  0
   -6.7820    1.5700    2.8520 C   0  0  0  0  0  0  0  0  0  0  0  0
   -7.6200    2.7500    3.8470 Cl  0  0  0  0  0  0  0  0  0  0  0  0
   -7.1600    1.2750    1.5830 C   0  0  0  0  0  0  0  0  0  0  0  0
   -8.1680    1.8910    1.1120 O   0  0  0  0  0  0  0  0  0  0  0  0
   -6.5410    0.3700    0.7770 N   0  0  0  0  0  0  0  0  0  0  0  0
   -7.0560    0.1640   -0.5310 C   0  0  0  0  0  0  0  0  0  0  0  0
   -7.7100   -0.9740   -0.9460 C   0  0  0  0  0  0  0  0  0  0  0  0
   -8.1890   -1.1110   -2.2360 C   0  0  0  0  0  0  0  0  0  0  0  0
   -8.0260   -0.1000   -3.1600 C   0  0  0  0  0  0  0  0  0  0  0  0
   -7.3770    1.0430   -2.7640 C   0  0  0  0  0  0  0  0  0  0  0  0
   -6.9090    1.1570   -1.4750 C   0  0  0  0  0  0  0  0  0  0  0  0
   -3.4170    0.6180   -0.2250 C   0  0  0  0  0  0  0  0  0  0  0  0
   -1.9940    0.9220   -0.6710 C   0  0  0  0  0  0  0  0  0  0  0  0
    5.8230    0.1240    0.4620 C   0  0  0  0  0  0  0  0  0  0  0  0
    6.9970   -0.3070   -0.1030 C   0  0  0  0  0  0  0  0  0  0  0  0
    8.0620    0.6290   -0.4270 C   0  0  0  0  0  0  0  0  0  0  0  0
    9.2480    0.3140   -0.9820 N   0  0  0  0  0  0  0  0  0  0  0  0
    9.9770    1.4340   -1.1330 C   0  0  0  0  0  0  0  0  0  0  0  0
    9.2500    2.4660   -0.6720 N   0  0  0  0  0  0  0  0  0  0  0  0
    9.6630    3.8770   -0.6460 C   0  0  0  0  0  0  0  0  0  0  0  0
    8.1070    1.9590   -0.2540 N   0  0  0  0  0  0  0  0  0  0  0  0
    7.1550   -1.6520   -0.3630 C   0  0  0  0  0  0  0  0  0  0  0  0
  1  2  1  0
  2  3  2  0
  2 38  1  0
  3  4  1  0
  4  5  1  0
  4 30  2  0
  5  6  1  0
  6  7  1  0
  7  8  1  0
  8  9  1  0
  9 10  1  0
  9 29  1  0
 10 11  1  0
 11 12  1  0
 12 13  1  1
 12 28  1  0
 13 14  1  0
 14 15  2  0
 14 21  1  0
 15 16  1  0
 16 17  2  0
 17 18  1  0
 17 19  1  0
 19 20  2  0
 19 21  1  0
 21 22  1  0
 22 23  2  0
 22 27  1  0
 23 24  1  0
 24 25  2  0
 25 26  1  0
 26 27  2  0
 28 29  1  0
 30 31  1  0
 31 32  1  0
 31 38  2  0
 32 33  1  0
 32 37  2  0
 33 34  2  0
 34 35  1  0
 35 36  1  0
 35 37  1  0
M  CHG  2   6   1  12   1
M  END
