
     RDKit          3D

 21 21  0  0  0  0  0  0  0  0999 V2000
   -5.9140    0.3570   -0.1130 C   0  0  0  0  0  0  0  0  0  0  0  0
   -4.8160   -0.4710   -0.6680 C   0  0  0  0  0  0  0  0  0  0  0  0
   -3.4650   -0.0930   -0.2720 C   0  0  0  0  0  0  0  0  0  0  0  0
   -2.7450    0.9770   -0.6990 C   0  0  0  0  0  0  0  0  0  0  0  0
   -3.3200    1.8840   -1.6090 N   0  0  0  0  0  0  0  0  0  0  0  0
   -2.9410    3.0580   -1.5840 O   0  0  0  0  0  0  0  0  0  0  0  0
   -4.2580    1.5110   -2.4910 O   0  0  0  0  0  0  0  0  0  0  0  0
   -1.4350    1.2000   -0.2260 C   0  0  0  0  0  0  0  0  0  0  0  0
   -0.8310    0.3630    0.6740 C   0  0  0  0  0  0  0  0  0  0  0  0
    0.4710    0.6110    1.1250 O   0  0  0  0  0  0  0  0  0  0  0  0
    1.5720    0.0880    0.4520 C   0  0  0  0  0  0  0  0  0  0  0  0
    1.2900   -0.6140   -0.5790 O   0  0  0  0  0  0  0  0  0  0  0  0
    2.9610    0.3070    0.8690 C   0  0  0  0  0  0  0  0  0  0  0  0
    3.8410   -0.3710   -0.0570 N   0  0  0  0  0  0  0  0  0  0  0  0
    4.9240    0.4890   -0.5040 C   0  0  0  0  0  0  0  0  0  0  0  0
    6.2070   -0.3460   -0.4790 C   0  0  0  0  0  0  0  0  0  0  0  0
    5.9820   -1.4150   -1.3560 O   0  0  0  0  0  0  0  0  0  0  0  0
   -1.5550   -0.7240    1.1120 C   0  0  0  0  0  0  0  0  0  0  0  0
   -0.7820   -1.7950    2.2640 Cl  0  0  0  0  0  0  0  0  0  0  0  0
   -2.8350   -0.9420    0.6490 C   0  0  0  0  0  0  0  0  0  0  0  0
   -3.5140   -2.0570    1.1300 O   0  0  0  0  0  0  0  0  0  0  0  0
  1  2  1  0
  2  3  1  0
  3  4  2  0
  3 20  1  0
  4  5  1  0
  4  8  1  0
  5  6  2  0
  5  7  1  0
  8  9  2  0
  9 10  1  0
  9 18  1  0
 10 11  1  0
 11 12  2  0
 11 13  1  0
 13 14  1  0
 14 15  1  0
 15 16  1  0
 16 17  1  0
 18 19  1  0
 18 20  2  0
 20 21  1  0
M  CHG  3   5   1   7  -1  14   1
M  END
