
     RDKit          3D

 21 22  0  0  0  0  0  0  0  0999 V2000
    0.1210   -3.1410   -0.2870 N   0  0  0  0  0  0  0  0  0  0  0  0
   -0.9270   -2.2070   -0.2840 C   0  0  0  0  0  0  0  0  0  0  0  0
   -1.9940   -2.6550   -0.8490 O   0  0  0  0  0  0  0  0  0  0  0  0
   -0.9670   -0.8790    0.2520 C   0  0  0  0  0  0  0  0  0  0  0  0
    0.0660   -0.2860    0.7940 C   0  0  0  0  0  0  0  0  0  0  0  0
    1.2850   -0.9290    0.8550 O   0  0  0  0  0  0  0  0  0  0  0  0
    2.1310   -0.9730   -0.2470 C   0  0  0  0  0  0  0  0  0  0  0  0
    2.6090    0.3290   -0.8360 C   0  0  2  0  0  0  0  0  0  0  0  0
    1.5390    1.1250   -1.2310 O   0  0  0  0  0  0  0  0  0  0  0  0
    3.3610    0.0330   -2.1610 C   0  0  0  0  0  0  0  0  0  0  0  0
    2.2950   -0.7680   -3.3090 Cl  0  0  0  0  0  0  0  0  0  0  0  0
    0.0260    1.0540    1.3600 C   0  0  0  0  0  0  0  0  0  0  0  0
    1.0480    1.6120    1.9210 C   0  0  0  0  0  0  0  0  0  0  0  0
    2.3150    1.1330    2.1200 O   0  0  0  0  0  0  0  0  0  0  0  0
    0.8520    2.9390    2.4220 O   0  0  0  0  0  0  0  0  0  0  0  0
   -1.1830    1.7420    1.3040 O   0  0  0  0  0  0  0  0  0  0  0  0
   -2.3220    1.2030    0.7460 C   0  0  0  0  0  0  0  0  0  0  0  0
   -3.5070    1.6860    0.6090 N   0  0  0  0  0  0  0  0  0  0  0  0
   -4.3540    0.7340   -0.0380 C   0  0  0  0  0  0  0  0  0  0  0  0
   -3.4470   -0.4430   -0.2760 C   0  0  0  0  0  0  0  0  0  0  0  0
   -2.2620   -0.1450    0.1920 C   0  0  0  0  0  0  0  0  0  0  0  0
  1  2  1  0
  2  3  2  0
  2  4  1  0
  4  5  2  0
  4 21  1  0
  5  6  1  0
  5 12  1  0
  6  7  1  0
  7  8  1  0
  8  9  1  6
  8 10  1  0
 10 11  1  0
 12 13  2  3
 12 16  1  0
 13 14  1  0
 13 15  1  0
 16 17  1  0
 17 18  2  0
 17 21  1  0
 18 19  1  0
 19 20  1  0
 20 21  2  0
M  CHG  1  18   1
M  END
