
     RDKit          3D

 18 19  0  0  0  0  0  0  0  0999 V2000
    0.2850   -2.5590   -0.0790 C   0  0  0  0  0  0  0  0  0  0  0  0
    0.1920   -1.0870   -0.5280 C   0  0  1  0  0  0  0  0  0  0  0  0
   -0.0960   -1.0860   -2.2300 Cl  0  0  0  0  0  0  0  0  0  0  0  0
   -0.6890   -0.4660    0.3450 N   0  0  0  0  0  0  0  0  0  0  0  0
    0.0270   -0.0360    1.5210 C   0  0  2  0  0  0  0  0  0  0  0  0
   -0.9320    0.8730    2.1210 C   0  0  0  0  0  0  0  0  0  0  0  0
   -1.9290    1.1290    1.2990 C   0  0  0  0  0  0  0  0  0  0  0  0
   -1.6990    0.3790    0.0340 C   0  0  1  0  0  0  0  0  0  0  0  0
   -1.5270    1.3790   -0.9780 N   0  0  0  0  0  0  0  0  0  0  0  0
   -2.9070   -0.4090   -0.2960 N   0  0  0  0  0  0  0  0  0  0  0  0
   -3.9380    0.4000   -0.6130 O   0  0  0  0  0  0  0  0  0  0  0  0
    1.1980    0.5190    0.9300 N   0  0  0  0  0  0  0  0  0  0  0  0
    0.9880    1.7450    0.4640 O   0  0  0  0  0  0  0  0  0  0  0  0
    1.5250   -0.4380   -0.1260 C   0  0  2  0  0  0  0  0  0  0  0  0
    2.1780    0.1760   -1.3140 C   0  0  0  0  0  0  0  0  0  0  0  0
    2.4000   -1.3800    0.4180 O   0  0  0  0  0  0  0  0  0  0  0  0
    3.4930   -0.7690    0.7320 O   0  0  0  0  0  0  0  0  0  0  0  0
    3.3600    0.0960    1.7140 O   0  0  0  0  0  0  0  0  0  0  0  0
  2  1  1  1
  2  3  1  0
  2  4  1  0
  2 14  1  0
  4  5  1  0
  4  8  1  0
  5  6  1  0
  5 12  1  6
  6  7  2  0
  7  8  1  0
  8  9  1  6
  8 10  1  0
 10 11  1  0
 12 13  1  0
 12 14  1  0
 14 15  1  6
 14 16  1  0
 16 17  1  0
 17 18  1  0
M  CHG  1   9   1
M  END
