
     RDKit          3D

 18 20  0  0  0  0  0  0  0  0999 V2000
   -1.0040   -2.8920   -0.1800 C   0  0  0  0  0  0  0  0  0  0  0  0
   -0.9300   -1.5790    0.3840 N   0  0  0  0  0  0  0  0  0  0  0  0
   -0.1730   -0.9540    1.2020 C   0  0  0  0  0  0  0  0  0  0  0  0
   -0.8360    0.3430    1.1990 C   0  0  1  0  0  0  0  0  0  0  0  0
   -1.4110    0.5880    2.4680 O   0  0  0  0  0  0  0  0  0  0  0  0
   -0.2210    1.4910    0.6910 N   0  0  0  0  0  0  0  0  0  0  0  0
    1.1800    1.6150    0.6940 C   0  0  0  0  0  0  0  0  0  0  0  0
    1.9640    0.7370   -0.2000 C   0  0  1  0  0  0  0  0  0  0  0  0
    1.6530    0.8920   -1.5640 O   0  0  0  0  0  0  0  0  0  0  0  0
    2.7730    0.2160   -2.1010 C   0  0  0  0  0  0  0  0  0  0  0  0
    3.8040    0.7780   -1.3580 O   0  0  0  0  0  0  0  0  0  0  0  0
    3.2940    1.2340   -0.2360 O   0  0  0  0  0  0  0  0  0  0  0  0
   -0.8530    2.0830   -0.3630 O   0  0  0  0  0  0  0  0  0  0  0  0
   -1.3860    1.3020   -1.3770 C   0  0  0  0  0  0  0  0  0  0  0  0
   -1.4860    1.9260   -3.0310 Cl  0  0  0  0  0  0  0  0  0  0  0  0
   -1.7980    0.1310   -1.0760 N   0  0  0  0  0  0  0  0  0  0  0  0
   -1.7290   -0.3870    0.2400 C   0  0  1  0  0  0  0  0  0  0  0  0
   -3.0860   -0.5730    0.7760 N   0  0  0  0  0  0  0  0  0  0  0  0
  1  2  1  0
  2  3  2  0
  2 17  1  0
  3  4  1  0
  4  5  1  1
  4  6  1  0
  4 17  1  0
  6  7  1  0
  6 13  1  0
  8  7  1  1
  8  9  1  0
  8 12  1  0
  9 10  1  0
 10 11  1  0
 11 12  1  0
 13 14  1  0
 14 15  1  0
 14 16  2  0
 16 17  1  0
 17 18  1  1
M  CHG  1   2   1
M  END
