
     RDKit          3D

 21 23  0  0  0  0  0  0  0  0999 V2000
    0.3300    0.1530    0.3010 O   0  0  0  0  0  0  0  0  0  0  0  0
    0.4540    0.8260   -0.7450 C   0  0  0  0  0  0  0  0  0  0  0  0
   -0.7170    1.2300   -1.4690 N   0  0  0  0  0  0  0  0  0  0  0  0
   -2.0250    0.8560   -0.9870 C   0  0  0  0  0  0  0  0  0  0  0  0
   -2.2650   -0.6120   -0.8930 C   0  0  0  0  0  0  0  0  0  0  0  0
   -3.6710   -0.7820   -0.3800 C   0  0  0  0  0  0  0  0  0  0  0  0
   -3.9560   -0.8600    0.9680 C   0  0  0  0  0  0  0  0  0  0  0  0
   -5.2550   -1.0160    1.4330 C   0  0  0  0  0  0  0  0  0  0  0  0
   -6.3030   -1.0980    0.5320 C   0  0  0  0  0  0  0  0  0  0  0  0
   -6.0480   -1.0230   -0.8210 C   0  0  0  0  0  0  0  0  0  0  0  0
   -4.7290   -0.8650   -1.2600 C   0  0  0  0  0  0  0  0  0  0  0  0
    1.7300    1.1950   -1.2250 N   0  0  0  0  0  0  0  0  0  0  0  0
    2.9770    0.8700   -0.6360 C   0  0  0  0  0  0  0  0  0  0  0  0
    4.1200    1.5250   -1.1040 C   0  0  0  0  0  0  0  0  0  0  0  0
    5.3660    1.2740   -0.6130 C   0  0  0  0  0  0  0  0  0  0  0  0
    5.5180    0.3460    0.3790 C   0  0  0  0  0  0  0  0  0  0  0  0
    6.5640   -0.1290    1.0680 N   0  0  0  0  0  0  0  0  0  0  0  0
    6.1810   -1.0340    1.9370 N   0  0  0  0  0  0  0  0  0  0  0  0
    4.8500   -1.1790    1.8400 C   0  0  0  0  0  0  0  0  0  0  0  0
    4.4180   -0.3190    0.8660 C   0  0  0  0  0  0  0  0  0  0  0  0
    3.1420   -0.0620    0.3630 C   0  0  0  0  0  0  0  0  0  0  0  0
  1  2  2  0
  2  3  1  0
  2 12  1  0
  3  4  1  0
  4  5  1  0
  5  6  1  0
  6  7  2  0
  6 11  1  0
  7  8  1  0
  8  9  2  0
  9 10  1  0
 10 11  2  0
 12 13  1  0
 13 14  2  0
 13 21  1  0
 14 15  1  0
 15 16  2  0
 16 17  1  0
 16 20  1  0
 17 18  1  0
 18 19  2  0
 19 20  1  0
 20 21  2  0
M  END
