
     RDKit          3D

 21 23  0  0  0  0  0  0  0  0999 V2000
   -5.2430    2.3340    0.1900 C   0  0  0  0  0  0  0  0  0  0  0  0
   -4.4020    1.0980    0.2080 C   0  0  0  0  0  0  0  0  0  0  0  0
   -4.6650    0.0650    1.0820 C   0  0  0  0  0  0  0  0  0  0  0  0
   -3.8850   -1.0640    1.0880 C   0  0  0  0  0  0  0  0  0  0  0  0
   -2.8090   -1.2280    0.2360 C   0  0  0  0  0  0  0  0  0  0  0  0
   -2.0150   -2.4060    0.2520 N   0  0  0  0  0  0  0  0  0  0  0  0
   -0.8420   -2.5920   -0.5460 C   0  0  0  0  0  0  0  0  0  0  0  0
    0.2280   -1.5830   -0.1710 C   0  0  0  0  0  0  0  0  0  0  0  0
    0.0090   -0.7490    0.7340 O   0  0  0  0  0  0  0  0  0  0  0  0
    1.4690   -1.5700   -0.8280 N   0  0  0  0  0  0  0  0  0  0  0  0
    2.5650   -0.7060   -0.5980 C   0  0  0  0  0  0  0  0  0  0  0  0
    3.6400   -0.7070   -1.4990 C   0  0  0  0  0  0  0  0  0  0  0  0
    4.7430    0.0810   -1.3590 C   0  0  0  0  0  0  0  0  0  0  0  0
    4.8290    0.9330   -0.2800 C   0  0  0  0  0  0  0  0  0  0  0  0
    5.7470    1.8110    0.1370 N   0  0  0  0  0  0  0  0  0  0  0  0
    5.3110    2.3690    1.2540 C   0  0  0  0  0  0  0  0  0  0  0  0
    4.1200    1.8610    1.5660 N   0  0  0  0  0  0  0  0  0  0  0  0
    3.7990    0.9620    0.6210 C   0  0  0  0  0  0  0  0  0  0  0  0
    2.6690    0.1410    0.4580 C   0  0  0  0  0  0  0  0  0  0  0  0
   -2.5320   -0.2020   -0.6450 C   0  0  0  0  0  0  0  0  0  0  0  0
   -3.3270    0.9270   -0.6380 C   0  0  0  0  0  0  0  0  0  0  0  0
  1  2  1  0
  2  3  2  0
  2 21  1  0
  3  4  1  0
  4  5  2  0
  5  6  1  0
  5 20  1  0
  6  7  1  0
  7  8  1  0
  8  9  2  0
  8 10  1  0
 10 11  1  0
 11 12  2  0
 11 19  1  0
 12 13  1  0
 13 14  2  0
 14 15  1  0
 14 18  1  0
 15 16  1  0
 16 17  2  0
 17 18  1  0
 18 19  2  0
 20 21  2  0
M  END
