
     RDKit          3D

 21 23  0  0  0  0  0  0  0  0999 V2000
    2.7250    1.2000   -2.6540 C   0  0  0  0  0  0  0  0  0  0  0  0
    2.9290    0.7940   -1.2070 C   0  0  0  0  0  0  0  0  0  0  0  0
    4.0960    0.9170   -0.6850 N   0  0  0  0  0  0  0  0  0  0  0  0
    4.3150    0.5530    0.6390 N   0  0  0  0  0  0  0  0  0  0  0  0
    3.2830    0.0230    1.5120 C   0  0  0  0  0  0  0  0  0  0  0  0
    1.9860   -0.0730    0.8000 C   0  0  0  0  0  0  0  0  0  0  0  0
    1.8050    0.2730   -0.4380 C   0  0  0  0  0  0  0  0  0  0  0  0
    0.5130    0.1790   -1.1590 C   0  0  0  0  0  0  0  0  0  0  0  0
   -0.5820   -0.3260   -0.4420 N   0  0  0  0  0  0  0  0  0  0  0  0
   -1.4550    0.4100    0.3440 C   0  0  0  0  0  0  0  0  0  0  0  0
   -2.4200   -0.2740    0.8850 O   0  0  0  0  0  0  0  0  0  0  0  0
   -1.4280    1.8310    0.6390 C   0  0  0  0  0  0  0  0  0  0  0  0
   -0.5120    2.7780    0.2750 C   0  0  0  0  0  0  0  0  0  0  0  0
   -0.9430    3.9760    0.8430 C   0  0  0  0  0  0  0  0  0  0  0  0
   -2.0990    3.7440    1.5350 C   0  0  0  0  0  0  0  0  0  0  0  0
   -2.3840    2.4540    1.4080 N   0  0  0  0  0  0  0  0  0  0  0  0
   -0.8220   -1.7870   -0.5470 C   0  0  2  0  0  0  0  0  0  0  0  0
   -2.1620   -2.0480   -1.1980 C   0  0  0  0  0  0  0  0  0  0  0  0
   -2.9620   -2.9160   -0.2860 C   0  0  0  0  0  0  0  0  0  0  0  0
   -2.1110   -3.2670    0.8870 C   0  0  0  0  0  0  0  0  0  0  0  0
   -0.8440   -2.4640    0.7790 C   0  0  0  0  0  0  0  0  0  0  0  0
  1  2  1  0
  2  3  2  0
  2  7  1  0
  3  4  1  0
  4  5  1  0
  5  6  1  0
  6  7  2  0
  7  8  1  0
  8  9  1  0
  9 10  1  0
 17  9  1  1
 10 11  2  0
 10 12  1  0
 12 13  2  0
 12 16  1  0
 13 14  1  0
 14 15  2  0
 15 16  1  0
 17 18  1  0
 17 21  1  0
 18 19  1  0
 19 20  1  0
 20 21  1  0
M  END
