
     RDKit          3D

 25 28  0  0  0  0  0  0  0  0999 V2000
   -4.9190   -1.7820   -2.4970 O   0  0  0  0  0  0  0  0  0  0  0  0
   -5.0940   -1.0360   -1.5210 C   0  0  0  0  0  0  0  0  0  0  0  0
   -5.5470    0.3430   -1.4600 C   0  0  0  0  0  0  0  0  0  0  0  0
   -5.2430    0.9180   -0.3180 C   0  0  0  0  0  0  0  0  0  0  0  0
   -5.5730    2.2630   -0.0050 O   0  0  0  0  0  0  0  0  0  0  0  0
   -4.5310   -0.0380    0.5370 C   0  0  2  0  0  0  0  0  0  0  0  0
   -3.0740    0.1590    0.4130 C   0  0  0  0  0  0  0  0  0  0  0  0
   -2.6440    1.0530   -0.3520 O   0  0  0  0  0  0  0  0  0  0  0  0
   -2.2130   -0.6460    1.1420 O   0  0  0  0  0  0  0  0  0  0  0  0
   -0.8440   -0.3940    0.9670 C   0  0  0  0  0  0  0  0  0  0  0  0
   -0.1930    0.5050    1.7700 C   0  0  0  0  0  0  0  0  0  0  0  0
    1.1740    0.7210    1.5550 C   0  0  0  0  0  0  0  0  0  0  0  0
    1.8290    0.0430    0.5640 C   0  0  0  0  0  0  0  0  0  0  0  0
    1.1500   -0.8660   -0.2390 C   0  0  0  0  0  0  0  0  0  0  0  0
    1.8180   -1.5400   -1.2300 C   0  0  0  0  0  0  0  0  0  0  0  0
    3.1460   -1.3270   -1.4350 C   0  0  0  0  0  0  0  0  0  0  0  0
    3.8170   -0.4410   -0.6550 C   0  0  0  0  0  0  0  0  0  0  0  0
    5.1630   -0.2450   -0.8840 C   0  0  0  0  0  0  0  0  0  0  0  0
    5.8870    0.6400   -0.1220 C   0  0  0  0  0  0  0  0  0  0  0  0
    7.2520    0.8380   -0.3570 O   0  0  0  0  0  0  0  0  0  0  0  0
    5.2610    1.3270    0.8690 C   0  0  0  0  0  0  0  0  0  0  0  0
    3.8950    1.1490    1.1260 C   0  0  0  0  0  0  0  0  0  0  0  0
    3.1910    0.2610    0.3540 C   0  0  0  0  0  0  0  0  0  0  0  0
   -0.2040   -1.0870   -0.0350 C   0  0  0  0  0  0  0  0  0  0  0  0
   -4.8660   -1.3960   -0.0750 C   0  0  0  0  0  0  0  0  0  0  0  0
  1  2  2  0
  2  3  1  0
  2 25  1  0
  3  4  2  0
  4  5  1  0
  4  6  1  0
  6  7  1  6
  6 25  1  0
  7  8  2  0
  7  9  1  0
  9 10  1  0
 10 11  2  0
 10 24  1  0
 11 12  1  0
 12 13  2  0
 13 14  1  0
 13 23  1  0
 14 15  1  0
 14 24  2  0
 15 16  2  0
 16 17  1  0
 17 18  2  0
 17 23  1  0
 18 19  1  0
 19 20  1  0
 19 21  2  0
 21 22  1  0
 22 23  2  0
M  END
