
     RDKit          3D

 22 24  0  0  0  0  0  0  0  0999 V2000
    6.7450    0.5320   -0.0990 C   0  0  0  0  0  0  0  0  0  0  0  0
    5.4980    0.5930   -0.8670 C   0  0  0  0  0  0  0  0  0  0  0  0
    5.5550    1.0770   -2.0530 O   0  0  0  0  0  0  0  0  0  0  0  0
    4.2270    0.1310   -0.3350 C   0  0  0  0  0  0  0  0  0  0  0  0
    3.1300    0.2520   -1.1910 C   0  0  0  0  0  0  0  0  0  0  0  0
    1.9090   -0.1700   -0.7350 C   0  0  0  0  0  0  0  0  0  0  0  0
    1.7440   -0.7000    0.5240 C   0  0  0  0  0  0  0  0  0  0  0  0
    2.8060   -0.8080    1.3290 N   0  0  0  0  0  0  0  0  0  0  0  0
    4.0490   -0.3990    0.9180 C   0  0  0  0  0  0  0  0  0  0  0  0
    5.3270   -0.5440    1.9280 S   0  0  0  0  0  0  0  0  0  0  0  0
    0.4300   -1.1320    0.9570 C   0  0  0  0  0  0  0  0  0  0  0  0
   -0.6940   -0.1950    0.4750 C   0  0  2  0  0  0  0  0  0  0  0  0
   -1.8810   -0.7490    1.0270 N   0  0  0  0  0  0  0  0  0  0  0  0
   -3.1000   -0.0950    0.8340 C   0  0  1  0  0  0  0  0  0  0  0  0
   -3.0950    1.3610    0.5840 C   0  0  0  0  0  0  0  0  0  0  0  0
   -4.0770    1.7150   -0.5370 C   0  0  0  0  0  0  0  0  0  0  0  0
   -5.3140    1.1600   -0.1400 O   0  0  0  0  0  0  0  0  0  0  0  0
   -5.2980   -0.2130   -0.3660 C   0  0  0  0  0  0  0  0  0  0  0  0
   -3.9050   -0.7860   -0.2780 C   0  0  0  0  0  0  0  0  0  0  0  0
   -0.6530   -0.2180   -1.0310 C   0  0  0  0  0  0  0  0  0  0  0  0
    0.7150   -0.0760   -1.5720 C   0  0  0  0  0  0  0  0  0  0  0  0
    0.8240    0.1340   -2.8070 O   0  0  0  0  0  0  0  0  0  0  0  0
  1  2  1  0
  2  3  2  0
  2  4  1  0
  4  5  2  0
  4  9  1  0
  5  6  1  0
  6  7  2  0
  6 21  1  0
  7  8  1  0
  7 11  1  0
  8  9  1  0
  9 10  2  0
 11 12  1  0
 12 13  1  6
 12 20  1  0
 14 13  1  6
 14 15  1  0
 14 19  1  0
 15 16  1  0
 16 17  1  0
 17 18  1  0
 18 19  1  0
 20 21  1  0
 21 22  2  0
M  CHG  1  13   1
M  END
