
     RDKit          3D

 15 16  0  0  0  0  0  0  0  0999 V2000
    4.1840    0.1820    1.1040 O   0  0  0  0  0  0  0  0  0  0  0  0
    3.9110    0.6240   -0.1950 C   0  0  0  0  0  0  0  0  0  0  0  0
    2.8640   -0.0770   -0.7670 O   0  0  0  0  0  0  0  0  0  0  0  0
    1.7060    0.0830   -0.0070 C   0  0  2  0  0  0  0  0  0  0  0  0
    1.0850   -1.2210    0.4010 C   0  0  0  0  0  0  0  0  0  0  0  0
   -0.0920   -1.6200   -0.4220 C   0  0  0  0  0  0  0  0  0  0  0  0
   -1.3060   -0.7780   -0.3090 C   0  0  1  0  0  0  0  0  0  0  0  0
   -2.2910   -1.2750   -1.1710 O   0  0  0  0  0  0  0  0  0  0  0  0
   -1.8740   -0.5680    1.0560 C   0  0  2  0  0  0  0  0  0  0  0  0
   -3.2710   -0.4280    1.0350 O   0  0  0  0  0  0  0  0  0  0  0  0
   -1.2380    0.7900    1.0850 C   0  0  0  0  0  0  0  0  0  0  0  0
   -1.0950    0.6910   -0.4200 C   0  0  2  0  0  0  0  0  0  0  0  0
   -2.1710    1.4880   -1.0940 C   0  0  0  0  0  0  0  0  0  0  0  0
   -1.7680    2.8320   -1.0870 O   0  0  0  0  0  0  0  0  0  0  0  0
    0.5520    1.0630   -1.0440 S   0  0  0  0  0  0  0  0  0  0  0  0
  1  2  1  0
  2  3  1  0
  4  3  1  6
  4  5  1  0
  4 15  1  0
  5  6  1  0
  6  7  1  0
  7  8  1  6
  7  9  1  0
  7 12  1  0
  9 10  1  6
  9 11  1  0
 11 12  1  0
 12 13  1  6
 12 15  1  0
 13 14  1  0
M  END
