
     RDKit          3D

 15 15  0  0  0  0  0  0  0  0999 V2000
    3.7170    0.5250    1.0580 C   0  0  0  0  0  0  0  0  0  0  0  0
    2.6960    0.2510   -0.0000 C   0  0  2  0  0  0  0  0  0  0  0  0
    3.2700   -0.6690   -0.8920 O   0  0  0  0  0  0  0  0  0  0  0  0
    2.3390    1.3580   -0.7430 O   0  0  0  0  0  0  0  0  0  0  0  0
    1.2060    1.1350   -1.4920 C   0  0  0  0  0  0  0  0  0  0  0  0
    0.9240   -0.3100   -1.7820 C   0  0  0  0  0  0  0  0  0  0  0  0
    0.8210   -1.1580   -0.5380 C   0  0  2  0  0  0  0  0  0  0  0  0
   -0.8540   -1.7030   -0.1850 S   0  0  0  0  0  0  0  0  0  0  0  0
   -1.9590   -0.2650   -0.2160 C   0  0  0  0  0  0  0  0  0  0  0  0
   -3.2280   -0.6430    0.5020 C   0  0  2  0  0  0  0  0  0  0  0  0
   -3.9370   -1.5900   -0.2210 O   0  0  0  0  0  0  0  0  0  0  0  0
   -4.0780    0.6000    0.6230 C   0  0  0  0  0  0  0  0  0  0  0  0
   -3.9160    1.3480   -0.5300 O   0  0  0  0  0  0  0  0  0  0  0  0
    1.4070   -0.3120    0.5870 C   0  0  1  0  0  0  0  0  0  0  0  0
    1.6600   -1.0520    1.7240 O   0  0  0  0  0  0  0  0  0  0  0  0
  2  1  1  1
  2  3  1  0
  2  4  1  0
  2 14  1  0
  4  5  1  0
  5  6  1  0
  6  7  1  0
  7  8  1  1
  7 14  1  0
  8  9  1  0
  9 10  1  0
 10 11  1  6
 10 12  1  0
 12 13  1  0
 14 15  1  1
M  END
