
     RDKit          3D

 15 15  0  0  0  0  0  0  0  0999 V2000
    0.0070   -2.7420    0.6160 O   0  0  0  0  0  0  0  0  0  0  0  0
   -0.2400   -1.5150    1.2410 C   0  0  0  0  0  0  0  0  0  0  0  0
    0.0410   -0.3630    0.2620 C   0  0  2  0  0  0  0  0  0  0  0  0
    1.5070   -0.5260   -0.1030 C   0  0  0  0  0  0  0  0  0  0  0  0
    2.4530   -0.4450    1.0350 C   0  0  0  0  0  0  0  0  0  0  0  0
    4.1350   -0.6680    0.3310 S   0  0  0  0  0  0  0  0  0  0  0  0
    4.5530    0.6380   -0.6840 O   0  0  0  0  0  0  0  0  0  0  0  0
   -0.2170    0.9000    1.0150 C   0  0  1  0  0  0  0  0  0  0  0  0
    0.3750    2.0330    0.4750 O   0  0  0  0  0  0  0  0  0  0  0  0
   -1.7120    1.0870    1.1620 C   0  0  0  0  0  0  0  0  0  0  0  0
   -2.1780    2.0840    0.1070 C   0  0  0  0  0  0  0  0  0  0  0  0
   -1.4900    1.7360   -1.0610 O   0  0  0  0  0  0  0  0  0  0  0  0
   -1.7800    0.4230   -1.3250 C   0  0  0  0  0  0  0  0  0  0  0  0
   -0.7570   -0.5790   -0.9660 C   0  0  2  0  0  0  0  0  0  0  0  0
   -1.4330   -1.8230   -0.8860 O   0  0  0  0  0  0  0  0  0  0  0  0
  1  2  1  0
  3  2  1  1
  3  4  1  0
  3  8  1  0
  3 14  1  0
  4  5  1  0
  5  6  1  0
  6  7  1  0
  8  9  1  6
  8 10  1  0
 10 11  1  0
 11 12  1  0
 12 13  1  0
 13 14  1  0
 14 15  1  1
M  END
