
     RDKit          3D

 15 15  0  0  0  0  0  0  0  0999 V2000
    2.7720    0.5280   -1.3110 C   0  0  0  0  0  0  0  0  0  0  0  0
    1.4480    0.2190   -1.2290 O   0  0  0  0  0  0  0  0  0  0  0  0
    0.9830   -0.2600   -0.0340 C   0  0  1  0  0  0  0  0  0  0  0  0
    1.6300   -1.5390    0.4240 C   0  0  0  0  0  0  0  0  0  0  0  0
    1.2640    0.7490    1.0920 C   0  0  0  0  0  0  0  0  0  0  0  0
    0.3990    2.2870    0.8740 S   0  0  0  0  0  0  0  0  0  0  0  0
   -1.1340    2.0720   -0.0550 C   0  0  2  0  0  0  0  0  0  0  0  0
   -2.2600    2.0630    0.7330 O   0  0  0  0  0  0  0  0  0  0  0  0
   -0.9730    0.8710   -0.9280 C   0  0  2  0  0  0  0  0  0  0  0  0
   -2.1370    0.6070   -1.6410 O   0  0  0  0  0  0  0  0  0  0  0  0
   -0.5140   -0.3660   -0.1500 C   0  0  2  0  0  0  0  0  0  0  0  0
   -1.2140   -0.4530    1.1830 C   0  0  0  0  0  0  0  0  0  0  0  0
   -0.7560   -1.5770    1.8440 O   0  0  0  0  0  0  0  0  0  0  0  0
   -0.9750   -1.5490   -0.9700 C   0  0  0  0  0  0  0  0  0  0  0  0
   -2.3900   -1.4760   -0.9640 O   0  0  0  0  0  0  0  0  0  0  0  0
  1  2  1  0
  2  3  1  0
  3  4  1  1
  3  5  1  0
  3 11  1  0
  5  6  1  0
  6  7  1  0
  7  8  1  1
  7  9  1  0
  9 10  1  1
  9 11  1  0
 11 12  1  1
 11 14  1  0
 12 13  1  0
 14 15  1  0
M  END
