
     RDKit          3D

 15 15  0  0  0  0  0  0  0  0999 V2000
    4.1620    0.6490   -1.1460 O   0  0  0  0  0  0  0  0  0  0  0  0
    3.9440   -0.5230   -0.3910 C   0  0  0  0  0  0  0  0  0  0  0  0
    2.4350   -0.7750   -0.3700 C   0  0  1  0  0  0  0  0  0  0  0  0
    2.2650   -1.9440    0.3870 O   0  0  0  0  0  0  0  0  0  0  0  0
    1.8160    0.3980    0.3400 C   0  0  0  0  0  0  0  0  0  0  0  0
    0.4690    0.2790    0.5730 O   0  0  0  0  0  0  0  0  0  0  0  0
   -0.3150    0.1390   -0.5470 C   0  0  2  0  0  0  0  0  0  0  0  0
   -1.3160    1.2590   -0.7040 C   0  0  0  0  0  0  0  0  0  0  0  0
   -2.1510    1.4870    0.5140 C   0  0  2  0  0  0  0  0  0  0  0  0
   -1.6670    0.8630    1.6490 O   0  0  0  0  0  0  0  0  0  0  0  0
   -3.5670    1.0540    0.1940 C   0  0  0  0  0  0  0  0  0  0  0  0
   -3.6670   -0.7030   -0.1510 S   0  0  0  0  0  0  0  0  0  0  0  0
   -2.2870   -1.2790   -1.1940 C   0  0  0  0  0  0  0  0  0  0  0  0
   -0.9740   -1.2150   -0.4930 C   0  0  2  0  0  0  0  0  0  0  0  0
   -1.1420   -1.5880    0.8350 O   0  0  0  0  0  0  0  0  0  0  0  0
  1  2  1  0
  2  3  1  0
  3  4  1  1
  3  5  1  0
  5  6  1  0
  7  6  1  1
  7  8  1  0
  7 14  1  0
  8  9  1  0
  9 10  1  1
  9 11  1  0
 11 12  1  0
 12 13  1  0
 13 14  1  0
 14 15  1  1
M  END
