
     RDKit          3D

 15 15  0  0  0  0  0  0  0  0999 V2000
   -1.0390   -1.8800   -0.9870 C   0  0  0  0  0  0  0  0  0  0  0  0
   -0.6360   -0.7410   -0.0620 C   0  0  2  0  0  0  0  0  0  0  0  0
    0.0980   -1.3540    1.1090 C   0  0  0  0  0  0  0  0  0  0  0  0
   -1.8720   -0.0560    0.4240 C   0  0  2  0  0  0  0  0  0  0  0  0
   -2.9590   -0.9550    0.2910 O   0  0  0  0  0  0  0  0  0  0  0  0
   -2.2280    1.2430   -0.1640 C   0  0  1  0  0  0  0  0  0  0  0  0
   -2.3790    2.2400    0.8110 O   0  0  0  0  0  0  0  0  0  0  0  0
   -1.2910    1.7840   -1.2000 C   0  0  0  0  0  0  0  0  0  0  0  0
   -0.5000    0.8090   -1.7860 O   0  0  0  0  0  0  0  0  0  0  0  0
    0.2580    0.1970   -0.7840 C   0  0  1  0  0  0  0  0  0  0  0  0
    0.6400    1.1940    0.1440 O   0  0  0  0  0  0  0  0  0  0  0  0
    1.4960   -0.3580   -1.3760 C   0  0  0  0  0  0  0  0  0  0  0  0
    2.6580   -1.0910   -0.2140 S   0  0  0  0  0  0  0  0  0  0  0  0
    3.4220    0.1580    0.8400 C   0  0  0  0  0  0  0  0  0  0  0  0
    4.2940   -0.4430    1.7350 O   0  0  0  0  0  0  0  0  0  0  0  0
  2  1  1  6
  2  3  1  0
  2  4  1  0
  2 10  1  0
  4  5  1  6
  4  6  1  0
  6  7  1  1
  6  8  1  0
  8  9  1  0
  9 10  1  0
 10 11  1  1
 10 12  1  0
 12 13  1  0
 13 14  1  0
 14 15  1  0
M  END
