
     RDKit          3D

 12 12  0  0  0  0  0  0  0  0999 V2000
    0.6440    1.5840    0.5480 C   0  0  0  0  0  0  0  0  0  0  0  0
    0.7280    0.2120   -0.0770 C   0  0  2  0  0  0  0  0  0  0  0  0
    2.1330   -0.2330    0.0110 C   0  0  0  0  0  0  0  0  0  0  0  0
    2.7110   -0.2900    1.1150 O   0  0  0  0  0  0  0  0  0  0  0  0
    2.8030   -0.5850   -1.1380 O   0  0  0  0  0  0  0  0  0  0  0  0
    0.2520    0.2150   -1.3560 O   0  0  0  0  0  0  0  0  0  0  0  0
   -1.0280   -0.2550   -1.3880 C   0  0  2  0  0  0  0  0  0  0  0  0
   -1.9150    0.6410   -1.9740 O   0  0  0  0  0  0  0  0  0  0  0  0
   -1.4500   -0.6030    0.0170 C   0  0  2  0  0  0  0  0  0  0  0  0
   -2.1380    0.4410    0.6270 O   0  0  0  0  0  0  0  0  0  0  0  0
   -0.1060   -0.8030    0.6790 C   0  0  2  0  0  0  0  0  0  0  0  0
   -0.1140   -0.6210    2.0290 O   0  0  0  0  0  0  0  0  0  0  0  0
  2  1  1  1
  2  3  1  0
  2  6  1  0
  2 11  1  0
  3  4  2  0
  3  5  1  0
  6  7  1  0
  7  8  1  1
  7  9  1  0
  9 10  1  1
  9 11  1  0
 11 12  1  1
M  END
