
     RDKit          3D

 12 12  0  0  0  0  0  0  0  0999 V2000
    2.4210   -0.8720   -0.3860 C   0  0  0  0  0  0  0  0  0  0  0  0
    1.0950   -0.4180    0.0710 C   0  0  2  0  0  0  0  0  0  0  0  0
    0.5660   -1.3000    0.9890 O   0  0  0  0  0  0  0  0  0  0  0  0
    0.1280   -0.1190   -1.0730 C   0  0  0  0  0  0  0  0  0  0  0  0
   -0.8670    0.7360   -0.3410 C   0  0  1  0  0  0  0  0  0  0  0  0
   -1.3240    1.8100   -1.1000 O   0  0  0  0  0  0  0  0  0  0  0  0
   -2.0870   -0.1410   -0.0670 C   0  0  1  0  0  0  0  0  0  0  0  0
   -3.0710    0.5430    0.6260 O   0  0  0  0  0  0  0  0  0  0  0  0
   -2.5530   -0.5420   -1.3300 O   0  0  0  0  0  0  0  0  0  0  0  0
   -0.2860    1.1980    0.8090 O   0  0  0  0  0  0  0  0  0  0  0  0
    1.0950    0.9590    0.7140 C   0  0  1  0  0  0  0  0  0  0  0  0
    1.6400    0.9340    1.9760 O   0  0  0  0  0  0  0  0  0  0  0  0
  2  1  1  6
  2  3  1  0
  2  4  1  0
  2 11  1  0
  4  5  1  0
  5  6  1  6
  5  7  1  0
  5 10  1  0
  7  8  1  6
  7  9  1  0
 10 11  1  0
 11 12  1  1
M  END
