
     RDKit          3D

 17 17  0  0  0  0  0  0  0  0999 V2000
   -2.6190    2.6840   -0.0940 C   0  0  0  0  0  0  0  0  0  0  0  0
   -1.9120    1.7390    0.7160 O   0  0  0  0  0  0  0  0  0  0  0  0
   -1.9870    0.4100    0.2800 C   0  0  0  0  0  0  0  0  0  0  0  0
   -3.0870   -0.2910    0.3610 C   0  0  0  0  0  0  0  0  0  0  0  0
   -4.2200    0.3420    0.9110 O   0  0  0  0  0  0  0  0  0  0  0  0
   -3.2600   -1.6920   -0.0710 C   0  0  0  0  0  0  0  0  0  0  0  0
   -2.0050   -2.1770   -0.7640 C   0  0  0  0  0  0  0  0  0  0  0  0
   -0.8350   -1.6640    0.0610 C   0  0  0  0  0  0  0  0  0  0  0  0
   -0.7190   -0.1750   -0.2930 C   0  0  1  0  0  0  0  0  0  0  0  0
   -0.7010    0.0220   -1.6720 O   0  0  0  0  0  0  0  0  0  0  0  0
    0.4850    0.4480    0.3420 C   0  0  0  0  0  0  0  0  0  0  0  0
    1.7510   -0.0880   -0.1970 C   0  0  0  0  0  0  0  0  0  0  0  0
    1.7040   -0.9470   -1.1070 O   0  0  0  0  0  0  0  0  0  0  0  0
    2.9980    0.3120    0.2530 O   0  0  0  0  0  0  0  0  0  0  0  0
    4.1700   -0.2490   -0.3140 C   0  0  0  0  0  0  0  0  0  0  0  0
    5.3710    0.3900    0.3890 C   0  0  0  0  0  0  0  0  0  0  0  0
    5.3470    1.7520    0.1950 O   0  0  0  0  0  0  0  0  0  0  0  0
  1  2  1  0
  2  3  1  0
  3  4  2  0
  3  9  1  0
  4  5  1  0
  4  6  1  0
  6  7  1  0
  7  8  1  0
  8  9  1  0
  9 10  1  6
  9 11  1  0
 11 12  1  0
 12 13  2  0
 12 14  1  0
 14 15  1  0
 15 16  1  0
 16 17  1  0
M  END
