
     RDKit          3D

 17 17  0  0  0  0  0  0  0  0999 V2000
   -3.6800    1.2340   -0.0390 C   0  0  0  0  0  0  0  0  0  0  0  0
   -3.2440   -0.1590    0.0700 C   0  0  0  0  0  0  0  0  0  0  0  0
   -1.8420   -0.5010    0.0060 C   0  0  0  0  0  0  0  0  0  0  0  0
   -0.7160    0.1840   -0.1310 C   0  0  0  0  0  0  0  0  0  0  0  0
   -0.7280    1.6630   -0.2620 C   0  0  0  0  0  0  0  0  0  0  0  0
    0.4450   -0.6840   -0.1340 C   0  0  0  0  0  0  0  0  0  0  0  0
    1.8320   -0.2870   -0.2700 C   0  0  0  0  0  0  0  0  0  0  0  0
    2.7660   -1.1650   -0.2540 O   0  0  0  0  0  0  0  0  0  0  0  0
    2.2720    1.0050   -0.4250 O   0  0  0  0  0  0  0  0  0  0  0  0
    3.5920    1.4180   -0.5580 C   0  0  0  0  0  0  0  0  0  0  0  0
    4.3880    1.0320    0.6260 C   0  0  0  0  0  0  0  0  0  0  0  0
    5.6090    1.3070    0.7140 O   0  0  0  0  0  0  0  0  0  0  0  0
    3.7680    0.3550    1.6510 O   0  0  0  0  0  0  0  0  0  0  0  0
    0.0490   -1.9360    0.0040 C   0  0  0  0  0  0  0  0  0  0  0  0
    0.7930   -3.1000    0.0560 O   0  0  0  0  0  0  0  0  0  0  0  0
   -1.4240   -1.9490    0.1070 C   0  0  1  0  0  0  0  0  0  0  0  0
   -1.8910   -2.5320    1.2650 O   0  0  0  0  0  0  0  0  0  0  0  0
  1  2  1  0
  2  3  1  0
  3  4  2  0
  3 16  1  0
  4  5  1  0
  4  6  1  0
  6  7  1  0
  6 14  2  0
  7  8  2  0
  7  9  1  0
  9 10  1  0
 10 11  1  0
 11 12  2  0
 11 13  1  0
 14 15  1  0
 14 16  1  0
 16 17  1  1
M  END
