
     RDKit          3D

 17 17  0  0  0  0  0  0  0  0999 V2000
    4.9310    0.8360   -0.4490 C   0  0  0  0  0  0  0  0  0  0  0  0
    3.6310    1.3530    0.1160 C   0  0  0  0  0  0  0  0  0  0  0  0
    2.6030    0.3560    0.0040 O   0  0  0  0  0  0  0  0  0  0  0  0
    1.3170    0.5930    0.4530 C   0  0  0  0  0  0  0  0  0  0  0  0
    1.1290    1.7490    0.9640 O   0  0  0  0  0  0  0  0  0  0  0  0
    0.2520   -0.3790    0.3600 C   0  0  0  0  0  0  0  0  0  0  0  0
    0.4910   -1.5630   -0.1710 C   0  0  0  0  0  0  0  0  0  0  0  0
    1.7830   -1.8870   -0.6520 O   0  0  0  0  0  0  0  0  0  0  0  0
   -0.5240   -2.6110   -0.3060 C   0  0  0  0  0  0  0  0  0  0  0  0
   -1.7000   -2.3740    0.3780 O   0  0  0  0  0  0  0  0  0  0  0  0
   -1.5770   -1.4690    1.4000 C   0  0  0  0  0  0  0  0  0  0  0  0
   -1.1210   -0.1080    0.8460 C   0  0  2  0  0  0  0  0  0  0  0  0
   -1.9690    0.2800   -0.3440 C   0  0  2  0  0  0  0  0  0  0  0  0
   -1.3620    1.5140   -0.9710 C   0  0  0  0  0  0  0  0  0  0  0  0
   -2.1760    1.8550   -2.0730 O   0  0  0  0  0  0  0  0  0  0  0  0
   -3.3840    0.6390    0.0480 C   0  0  0  0  0  0  0  0  0  0  0  0
   -4.0700   -0.3730    0.6660 O   0  0  0  0  0  0  0  0  0  0  0  0
  1  2  1  0
  2  3  1  0
  3  4  1  0
  4  5  2  0
  4  6  1  0
  6  7  2  0
  6 12  1  0
  7  8  1  0
  7  9  1  0
  9 10  1  0
 10 11  1  0
 12 11  1  6
 12 13  1  0
 13 14  1  1
 13 16  1  0
 14 15  1  0
 16 17  1  0
M  END
