
     RDKit          3D

 17 18  0  0  0  0  0  0  0  0999 V2000
   -1.5150    1.5400    1.7800 O   0  0  0  0  0  0  0  0  0  0  0  0
   -1.8370    1.5570    0.4230 C   0  0  0  0  0  0  0  0  0  0  0  0
   -1.5730    0.1700   -0.1230 C   0  0  2  0  0  0  0  0  0  0  0  0
   -0.1540   -0.2220    0.1660 C   0  0  0  0  0  0  0  0  0  0  0  0
    0.7930    0.5920   -0.4840 O   0  0  0  0  0  0  0  0  0  0  0  0
    2.1330    0.2970   -0.2710 C   0  0  0  0  0  0  0  0  0  0  0  0
    2.8410    1.0320    0.5740 C   0  0  0  0  0  0  0  0  0  0  0  0
    4.2710    0.7940    0.8650 C   0  0  0  0  0  0  0  0  0  0  0  0
    4.8120   -0.2840    0.1620 O   0  0  0  0  0  0  0  0  0  0  0  0
    4.1120   -1.0650   -0.7190 C   0  0  0  0  0  0  0  0  0  0  0  0
    4.7680   -2.1090   -1.3540 O   0  0  0  0  0  0  0  0  0  0  0  0
    2.8280   -0.7990   -0.9360 C   0  0  0  0  0  0  0  0  0  0  0  0
   -1.9230    0.1640   -1.5710 C   0  0  0  0  0  0  0  0  0  0  0  0
   -3.2750    0.4980   -1.6870 O   0  0  0  0  0  0  0  0  0  0  0  0
   -4.1020   -0.3070   -0.9450 C   0  0  0  0  0  0  0  0  0  0  0  0
   -3.2660   -1.3820   -0.2640 C   0  0  0  0  0  0  0  0  0  0  0  0
   -2.3920   -0.7250    0.5890 O   0  0  0  0  0  0  0  0  0  0  0  0
  1  2  1  0
  3  2  1  1
  3  4  1  0
  3 13  1  0
  3 17  1  0
  4  5  1  0
  5  6  1  0
  6  7  2  0
  6 12  1  0
  7  8  1  0
  8  9  1  0
  9 10  1  0
 10 11  1  0
 10 12  2  0
 13 14  1  0
 14 15  1  0
 15 16  1  0
 16 17  1  0
M  END
