
     RDKit          3D

 17 18  0  0  0  0  0  0  0  0999 V2000
    4.2030    0.1740   -0.7970 C   0  0  0  0  0  0  0  0  0  0  0  0
    3.2560    0.4190    0.3350 C   0  0  0  0  0  0  0  0  0  0  0  0
    1.8730   -0.2820   -0.0310 C   0  0  0  0  0  0  0  0  0  0  0  0
    1.0270    0.0180    1.1270 C   0  0  0  0  0  0  0  0  0  0  0  0
   -0.2420    0.2030    1.1680 C   0  0  0  0  0  0  0  0  0  0  0  0
   -1.3580    0.2000    0.2520 C   0  0  0  0  0  0  0  0  0  0  0  0
   -2.5910    0.5210    0.6400 C   0  0  0  0  0  0  0  0  0  0  0  0
   -3.7910    0.5480   -0.2090 C   0  0  2  0  0  0  0  0  0  0  0  0
   -4.8460   -0.1670    0.4090 O   0  0  0  0  0  0  0  0  0  0  0  0
   -3.6300    0.0350   -1.4830 O   0  0  0  0  0  0  0  0  0  0  0  0
   -2.3970   -0.3110   -1.9200 C   0  0  0  0  0  0  0  0  0  0  0  0
   -2.2310   -0.7560   -3.2380 O   0  0  0  0  0  0  0  0  0  0  0  0
   -1.3190   -0.2430   -1.1280 C   0  0  0  0  0  0  0  0  0  0  0  0
   -0.1530   -0.6490   -1.7560 O   0  0  0  0  0  0  0  0  0  0  0  0
   -0.5440    0.4860    2.5570 O   0  0  0  0  0  0  0  0  0  0  0  0
    0.4910   -0.0740    3.3580 C   0  0  0  0  0  0  0  0  0  0  0  0
    1.5530    0.1510    2.4530 O   0  0  0  0  0  0  0  0  0  0  0  0
  1  2  1  0
  2  3  1  0
  3  4  1  0
  4  5  2  0
  4 17  1  0
  5  6  1  0
  5 15  1  0
  6  7  2  0
  6 13  1  0
  7  8  1  0
  8  9  1  1
  8 10  1  0
 10 11  1  0
 11 12  1  0
 11 13  2  0
 13 14  1  0
 15 16  1  0
 16 17  1  0
M  END
