
     RDKit          3D

 17 18  0  0  0  0  0  0  0  0999 V2000
   -1.4880   -3.0100    0.4290 O   0  0  0  0  0  0  0  0  0  0  0  0
   -2.4190   -2.0660    0.1080 C   0  0  0  0  0  0  0  0  0  0  0  0
   -2.1440   -0.6980    0.5960 C   0  0  0  0  0  0  0  0  0  0  0  0
   -0.8930   -0.0220    0.0880 C   0  0  2  0  0  0  0  0  0  0  0  0
    0.2890   -0.8170    0.4770 C   0  0  2  0  0  0  0  0  0  0  0  0
    0.1470   -1.0800    1.8640 O   0  0  0  0  0  0  0  0  0  0  0  0
    1.5930   -0.2010    0.2010 C   0  0  0  0  0  0  0  0  0  0  0  0
    2.4080    0.1350    1.1790 C   0  0  0  0  0  0  0  0  0  0  0  0
    3.7370    0.7610    0.9630 C   0  0  0  0  0  0  0  0  0  0  0  0
    4.0670    1.0020   -0.3640 O   0  0  0  0  0  0  0  0  0  0  0  0
    3.2190    0.6510   -1.3920 C   0  0  0  0  0  0  0  0  0  0  0  0
    2.0240    0.0720   -1.1470 C   0  0  0  0  0  0  0  0  0  0  0  0
    1.2710   -0.2310   -2.2650 O   0  0  0  0  0  0  0  0  0  0  0  0
   -0.9030    1.2330    0.7890 O   0  0  0  0  0  0  0  0  0  0  0  0
   -1.8480    1.9930    0.1500 C   0  0  0  0  0  0  0  0  0  0  0  0
   -1.8630    1.4720   -1.2480 C   0  0  0  0  0  0  0  0  0  0  0  0
   -0.9880    0.3920   -1.2050 O   0  0  0  0  0  0  0  0  0  0  0  0
  1  2  1  0
  2  3  1  0
  4  3  1  1
  4  5  1  0
  4 14  1  0
  4 17  1  0
  5  6  1  1
  5  7  1  0
  7  8  2  0
  7 12  1  0
  8  9  1  0
  9 10  1  0
 10 11  1  0
 11 12  2  0
 12 13  1  0
 14 15  1  0
 15 16  1  0
 16 17  1  0
M  END
