
     RDKit          3D

 42 46  0  0  0  0  0  0  0  0999 V2000
   -2.5160    5.5720   -3.5370 C   0  0  0  0  0  0  0  0  0  0  0  0
   -3.4640    4.6790   -3.0590 O   0  0  0  0  0  0  0  0  0  0  0  0
   -3.2150    3.5970   -2.2220 C   0  0  0  0  0  0  0  0  0  0  0  0
   -4.3000    2.8030   -1.8350 C   0  0  0  0  0  0  0  0  0  0  0  0
   -4.0780    1.7260   -1.0080 C   0  0  0  0  0  0  0  0  0  0  0  0
   -2.8290    1.3900   -0.5390 C   0  0  0  0  0  0  0  0  0  0  0  0
   -2.6260    0.0090    0.4930 S   0  0  1  0  0  0  0  0  0  0  0  0
   -1.7670    0.4070    1.6230 O   0  0  0  0  0  0  0  0  0  0  0  0
   -4.0450   -0.3180    1.0080 O   0  0  0  0  0  0  0  0  0  0  0  0
   -2.1350   -1.4000   -0.3540 N   0  0  0  0  0  0  0  0  0  0  0  0
   -3.2050   -1.6750   -1.2940 C   0  0  0  0  0  0  0  0  0  0  0  0
   -4.1500   -2.7100   -0.7200 C   0  0  1  0  0  0  0  0  0  0  0  0
   -5.2820   -2.9830   -1.6810 C   0  0  0  0  0  0  0  0  0  0  0  0
   -5.6110   -4.4380   -1.5270 C   0  0  0  0  0  0  0  0  0  0  0  0
   -4.2260   -4.9990   -1.3170 C   0  0  0  0  0  0  0  0  0  0  0  0
   -3.8820   -6.1260   -1.7220 O   0  0  0  0  0  0  0  0  0  0  0  0
   -3.5010   -4.0060   -0.6120 N   0  0  0  0  0  0  0  0  0  0  0  0
   -0.8590   -1.4360   -0.9220 C   0  0  0  0  0  0  0  0  0  0  0  0
    0.2830   -2.1310   -0.2910 C   0  0  1  0  0  0  0  0  0  0  0  0
    1.3800   -2.0000   -1.2660 O   0  0  0  0  0  0  0  0  0  0  0  0
    0.9140   -1.5640    0.9210 C   0  0  2  0  0  0  0  0  0  0  0  0
    0.4230   -1.9560    2.2630 C   0  0  0  0  0  0  0  0  0  0  0  0
    0.6020   -3.4460    2.4700 C   0  0  0  0  0  0  0  0  0  0  0  0
    1.7790   -3.9620    2.9200 C   0  0  0  0  0  0  0  0  0  0  0  0
    1.9010   -5.3150    3.1120 C   0  0  0  0  0  0  0  0  0  0  0  0
    0.8530   -6.1930    2.8610 C   0  0  0  0  0  0  0  0  0  0  0  0
   -0.3120   -5.6260    2.4080 C   0  0  0  0  0  0  0  0  0  0  0  0
   -0.4470   -4.2760    2.2130 C   0  0  0  0  0  0  0  0  0  0  0  0
    1.3230   -0.1920    0.7930 N   0  0  0  0  0  0  0  0  0  0  0  0
    2.7110    0.2010    0.8490 C   0  0  0  0  0  0  0  0  0  0  0  0
    3.6230   -0.6360    1.0150 O   0  0  0  0  0  0  0  0  0  0  0  0
    3.0960    1.5390    0.7190 O   0  0  0  0  0  0  0  0  0  0  0  0
    4.4210    1.9750    0.7710 C   0  0  2  0  0  0  0  0  0  0  0  0
    4.5100    2.9940    1.8870 C   0  0  0  0  0  0  0  0  0  0  0  0
    5.3520    4.1200    1.3800 C   0  0  2  0  0  0  0  0  0  0  0  0
    4.5530    5.2790    0.8100 C   0  0  0  0  0  0  0  0  0  0  0  0
    5.3940    5.6740   -0.3610 C   0  0  0  0  0  0  0  0  0  0  0  0
    6.3080    4.6730   -0.6160 O   0  0  0  0  0  0  0  0  0  0  0  0
    6.0080    3.5740    0.1440 C   0  0  2  0  0  0  0  0  0  0  0  0
    4.9070    2.7050   -0.4480 C   0  0  0  0  0  0  0  0  0  0  0  0
   -1.7860    2.1740   -0.9260 C   0  0  0  0  0  0  0  0  0  0  0  0
   -1.9690    3.2740   -1.7640 C   0  0  0  0  0  0  0  0  0  0  0  0
  1  2  1  0
  2  3  1  0
  3  4  2  0
  3 42  1  0
  4  5  1  0
  5  6  2  0
  6  7  1  0
  6 41  1  0
  7  8  2  0
  7  9  2  0
  7 10  1  6
 10 11  1  0
 10 18  1  0
 12 11  1  6
 12 13  1  0
 12 17  1  0
 13 14  1  0
 14 15  1  0
 15 16  2  0
 15 17  1  0
 18 19  1  0
 19 20  1  6
 19 21  1  0
 21 22  1  1
 21 29  1  0
 22 23  1  0
 23 24  2  0
 23 28  1  0
 24 25  1  0
 25 26  2  0
 26 27  1  0
 27 28  2  0
 29 30  1  0
 30 31  2  0
 30 32  1  0
 33 32  1  6
 33 34  1  0
 33 40  1  0
 35 34  1  6
 35 36  1  0
 35 39  1  0
 36 37  1  0
 37 38  1  0
 38 39  1  0
 39 40  1  6
 41 42  2  0
M  END
