
     RDKit          3D

 42 45  0  0  0  0  0  0  0  0999 V2000
    8.2780   -1.4990    2.8980 C   0  0  0  0  0  0  0  0  0  0  0  0
    8.9280   -0.4340    2.0560 C   0  0  0  0  0  0  0  0  0  0  0  0
    7.9920    0.2500    1.1010 C   0  0  0  0  0  0  0  0  0  0  0  0
    7.4190   -0.8010    0.1720 C   0  0  2  0  0  0  0  0  0  0  0  0
    8.5120   -1.4730   -0.5920 C   0  0  0  0  0  0  0  0  0  0  0  0
    6.3870   -0.2160   -0.6900 N   0  0  0  0  0  0  0  0  0  0  0  0
    5.0570   -0.5750   -0.5500 C   0  0  0  0  0  0  0  0  0  0  0  0
    4.8270   -1.4430    0.4010 O   0  0  0  0  0  0  0  0  0  0  0  0
    3.9050   -0.1140   -1.3040 C   0  0  0  0  0  0  0  0  0  0  0  0
    2.6400   -0.1120   -0.6740 C   0  0  0  0  0  0  0  0  0  0  0  0
    1.5110    0.3580   -1.2910 C   0  0  0  0  0  0  0  0  0  0  0  0
    0.2840    0.3580   -0.6690 O   0  0  0  0  0  0  0  0  0  0  0  0
    0.0420   -0.1090    0.6220 C   0  0  0  0  0  0  0  0  0  0  0  0
   -1.2970    0.0260    1.0330 O   0  0  0  0  0  0  0  0  0  0  0  0
   -1.9200    1.2830    1.1230 C   0  0  0  0  0  0  0  0  0  0  0  0
   -1.2170    2.4140    0.8090 C   0  0  0  0  0  0  0  0  0  0  0  0
   -1.7630    3.6560    0.8800 C   0  0  0  0  0  0  0  0  0  0  0  0
   -3.0740    3.7510    1.2860 C   0  0  0  0  0  0  0  0  0  0  0  0
   -3.7960    2.6350    1.6050 C   0  0  0  0  0  0  0  0  0  0  0  0
   -3.2220    1.3340    1.5290 C   0  0  0  0  0  0  0  0  0  0  0  0
   -4.0330    0.2780    1.8720 O   0  0  0  0  0  0  0  0  0  0  0  0
   -3.8290   -1.0740    1.8730 C   0  0  1  0  0  0  0  0  0  0  0  0
   -3.5810   -1.6090    3.2980 C   0  0  0  0  0  0  0  0  0  0  0  0
   -4.9610   -1.8560    1.2730 C   0  0  0  0  0  0  0  0  0  0  0  0
   -4.7880   -3.1100    1.2220 O   0  0  0  0  0  0  0  0  0  0  0  0
   -6.1530   -1.3050    0.7850 N   0  0  0  0  0  0  0  0  0  0  0  0
   -7.2310   -2.1190    0.2070 C   0  0  0  0  0  0  0  0  0  0  0  0
   -8.3250   -1.1760   -0.1710 C   0  0  2  0  0  0  0  0  0  0  0  0
   -8.6330   -1.0950   -1.6550 C   0  0  0  0  0  0  0  0  0  0  0  0
   -7.1930   -0.0480   -1.8940 S   0  0  0  0  0  0  0  0  0  0  0  0
   -5.9290   -0.8800   -2.0200 O   0  0  0  0  0  0  0  0  0  0  0  0
   -7.7010    0.1960   -0.1990 C   0  0  2  0  0  0  0  0  0  0  0  0
   -6.5480    0.0690    0.7550 C   0  0  1  0  0  0  0  0  0  0  0  0
   -6.9160    0.4920    2.1310 C   0  0  0  0  0  0  0  0  0  0  0  0
   -7.2960    1.6550    2.3780 O   0  0  0  0  0  0  0  0  0  0  0  0
   -6.8400   -0.4060    3.1620 O   0  0  0  0  0  0  0  0  0  0  0  0
    1.5510    0.8620   -2.5860 C   0  0  0  0  0  0  0  0  0  0  0  0
    0.4020    1.3350   -3.1990 O   0  0  0  0  0  0  0  0  0  0  0  0
    0.2420    1.8750   -4.4510 C   0  0  0  0  0  0  0  0  0  0  0  0
    2.7730    0.8610   -3.2020 C   0  0  0  0  0  0  0  0  0  0  0  0
    3.9350    0.3750   -2.5610 C   0  0  0  0  0  0  0  0  0  0  0  0
    5.1810    0.3740   -3.3540 C   0  0  0  0  0  0  0  0  0  0  0  0
  1  2  1  0
  2  3  1  0
  3  4  1  0
  4  5  1  6
  4  6  1  0
  6  7  1  0
  7  8  2  0
  7  9  1  0
  9 10  2  0
  9 41  1  0
 10 11  1  0
 11 12  1  0
 11 37  2  0
 12 13  1  0
 13 14  1  0
 14 15  1  0
 15 16  2  0
 15 20  1  0
 16 17  1  0
 17 18  2  0
 18 19  1  0
 19 20  2  0
 20 21  1  0
 21 22  1  0
 22 23  1  1
 22 24  1  0
 24 25  2  0
 24 26  1  0
 26 27  1  0
 26 33  1  0
 28 27  1  6
 28 29  1  0
 28 32  1  0
 30 29  1  6
 30 31  2  0
 30 32  1  0
 32 33  1  1
 33 34  1  1
 34 35  2  0
 34 36  1  0
 37 38  1  0
 37 40  1  0
 38 39  1  0
 40 41  2  0
 41 42  1  0
M  END
