
     RDKit          3D

 41 45  0  0  0  0  0  0  0  0999 V2000
    0.0160    4.9900    5.2980 C   0  0  0  0  0  0  0  0  0  0  0  0
   -0.4560    3.7250    4.6880 C   0  0  0  0  0  0  0  0  0  0  0  0
   -0.0700    3.4180    3.4720 C   0  0  0  0  0  0  0  0  0  0  0  0
   -0.4900    2.1960    2.8060 C   0  0  0  0  0  0  0  0  0  0  0  0
   -0.1340    1.8370    1.5840 C   0  0  0  0  0  0  0  0  0  0  0  0
   -0.5160    0.6730    0.9110 O   0  0  0  0  0  0  0  0  0  0  0  0
    0.0470    0.6360   -0.3370 C   0  0  0  0  0  0  0  0  0  0  0  0
   -0.1940   -0.4990   -1.2870 C   0  0  0  0  0  0  0  0  0  0  0  0
   -1.5710   -0.6280   -1.5790 O   0  0  0  0  0  0  0  0  0  0  0  0
   -2.3140    0.3750   -2.1610 C   0  0  0  0  0  0  0  0  0  0  0  0
   -1.7840    1.4720   -2.4640 O   0  0  0  0  0  0  0  0  0  0  0  0
   -3.7430    0.1530   -2.4290 C   0  0  0  0  0  0  0  0  0  0  0  0
   -4.5980    1.0800   -3.0090 C   0  0  0  0  0  0  0  0  0  0  0  0
   -5.8300    0.4760   -3.0760 C   0  0  0  0  0  0  0  0  0  0  0  0
   -5.6930   -0.7800   -2.5450 C   0  0  0  0  0  0  0  0  0  0  0  0
   -6.7750   -1.8150   -2.4030 C   0  0  0  0  0  0  0  0  0  0  0  0
   -7.2460   -1.8080   -1.1110 O   0  0  0  0  0  0  0  0  0  0  0  0
   -7.7870   -0.6150   -0.7050 C   0  0  2  0  0  0  0  0  0  0  0  0
   -7.0560   -0.2030    0.5800 C   0  0  0  0  0  0  0  0  0  0  0  0
   -7.6090   -1.2670    1.5370 C   0  0  0  0  0  0  0  0  0  0  0  0
   -8.9590   -1.5350    0.9560 C   0  0  0  0  0  0  0  0  0  0  0  0
   -9.0770   -0.7880   -0.2120 O   0  0  0  0  0  0  0  0  0  0  0  0
   -4.4520   -0.9150   -2.1830 O   0  0  0  0  0  0  0  0  0  0  0  0
    0.7820    1.6860   -0.5640 C   0  0  0  0  0  0  0  0  0  0  0  0
    1.5900    2.0970   -1.7520 C   0  0  0  0  0  0  0  0  0  0  0  0
    3.2750    2.3970   -1.2370 S   0  0  0  0  0  0  0  0  0  0  0  0
    4.0890    0.8930   -0.7810 C   0  0  0  0  0  0  0  0  0  0  0  0
    5.3400    0.9230   -0.2170 N   0  0  0  0  0  0  0  0  0  0  0  0
    5.9420   -0.2270    0.1440 C   0  0  0  0  0  0  0  0  0  0  0  0
    5.3310   -1.4530   -0.0390 C   0  0  0  0  0  0  0  0  0  0  0  0
    4.0860   -1.4720   -0.6010 C   0  0  0  0  0  0  0  0  0  0  0  0
    3.5090   -2.5750   -0.7770 O   0  0  0  0  0  0  0  0  0  0  0  0
    3.4850   -0.2920   -0.9640 N   0  0  0  0  0  0  0  0  0  0  0  0
    6.0880   -2.6430    0.3850 C   0  0  0  0  0  0  0  0  0  0  0  0
    7.4490   -2.4830   -0.3090 C   0  0  2  0  0  0  0  0  0  0  0  0
    8.1390   -3.6730   -0.3280 O   0  0  0  0  0  0  0  0  0  0  0  0
    8.2900   -4.0740   -1.6520 C   0  0  0  0  0  0  0  0  0  0  0  0
    8.1850   -1.3520    0.3030 C   0  0  0  0  0  0  0  0  0  0  0  0
    7.2840   -0.2660    0.7670 C   0  0  0  0  0  0  0  0  0  0  0  0
    0.7230    2.5300    0.6410 C   0  0  0  0  0  0  0  0  0  0  0  0
    1.3110    3.6430    0.8090 O   0  0  0  0  0  0  0  0  0  0  0  0
  1  2  1  0
  2  3  2  3
  3  4  1  0
  4  5  2  3
  5  6  1  0
  5 40  1  0
  6  7  1  0
  7  8  1  0
  7 24  2  0
  8  9  1  0
  9 10  1  0
 10 11  2  0
 10 12  1  0
 12 13  2  0
 12 23  1  0
 13 14  1  0
 14 15  2  0
 15 16  1  0
 15 23  1  0
 16 17  1  0
 18 17  1  1
 18 19  1  0
 18 22  1  0
 19 20  1  0
 20 21  1  0
 21 22  1  0
 24 25  1  0
 24 40  1  0
 25 26  1  0
 26 27  1  0
 27 28  2  0
 27 33  1  0
 28 29  1  0
 29 30  2  0
 29 39  1  0
 30 31  1  0
 30 34  1  0
 31 32  2  0
 31 33  1  0
 34 35  1  0
 35 36  1  1
 35 38  1  0
 36 37  1  0
 38 39  1  0
 40 41  2  0
M  END
