
     RDKit          3D

 42 45  0  0  0  0  0  0  0  0999 V2000
    9.9580    2.1180   -1.7990 C   0  0  0  0  0  0  0  0  0  0  0  0
   10.0370    0.9750   -1.0380 O   0  0  0  0  0  0  0  0  0  0  0  0
    9.8290    1.1490    0.3080 C   0  0  0  0  0  0  0  0  0  0  0  0
    8.4640    1.7120    0.6560 C   0  0  0  0  0  0  0  0  0  0  0  0
    8.3770    1.8400    2.0330 O   0  0  0  0  0  0  0  0  0  0  0  0
    7.1390    2.3250    2.3940 C   0  0  0  0  0  0  0  0  0  0  0  0
    5.9910    1.4470    2.0510 C   0  0  0  0  0  0  0  0  0  0  0  0
    5.9870    0.0930    2.6920 C   0  0  2  0  0  0  0  0  0  0  0  0
    7.1680   -0.7720    2.3570 C   0  0  0  0  0  0  0  0  0  0  0  0
    4.7000   -0.5920    2.3300 C   0  0  0  0  0  0  0  0  0  0  0  0
    3.7700   -1.0230    3.2690 C   0  0  0  0  0  0  0  0  0  0  0  0
    2.7520   -1.5880    2.5360 C   0  0  0  0  0  0  0  0  0  0  0  0
    3.0880   -1.4880    1.1910 C   0  0  0  0  0  0  0  0  0  0  0  0
    2.2200   -1.9950    0.1360 C   0  0  0  0  0  0  0  0  0  0  0  0
    1.1370   -2.5600    0.3740 O   0  0  0  0  0  0  0  0  0  0  0  0
    2.5530   -1.8760   -1.2270 O   0  0  0  0  0  0  0  0  0  0  0  0
    1.6800   -2.3840   -2.2200 C   0  0  0  0  0  0  0  0  0  0  0  0
    0.3370   -1.7650   -2.1660 C   0  0  0  0  0  0  0  0  0  0  0  0
   -0.0560   -0.6020   -2.7330 C   0  0  0  0  0  0  0  0  0  0  0  0
   -1.4140   -0.4420   -2.4020 C   0  0  0  0  0  0  0  0  0  0  0  0
   -1.7800   -1.5180   -1.6490 C   0  0  0  0  0  0  0  0  0  0  0  0
   -2.9960   -1.9490   -1.0150 C   0  0  0  0  0  0  0  0  0  0  0  0
   -2.7820   -3.1080   -0.3530 O   0  0  0  0  0  0  0  0  0  0  0  0
   -4.2990   -1.4850   -0.9130 N   0  0  0  0  0  0  0  0  0  0  0  0
   -5.1470   -2.3800   -0.0770 C   0  0  0  0  0  0  0  0  0  0  0  0
   -5.7820   -1.6530    1.0790 C   0  0  2  0  0  0  0  0  0  0  0  0
   -6.3570   -2.6820    2.0150 C   0  0  0  0  0  0  0  0  0  0  0  0
   -6.9350   -0.8090    0.5590 C   0  0  1  0  0  0  0  0  0  0  0  0
   -6.9840    0.4490    1.3090 C   0  0  0  0  0  0  0  0  0  0  0  0
   -6.2240    0.7530    2.2680 O   0  0  0  0  0  0  0  0  0  0  0  0
   -7.9660    1.4420    0.9540 N   0  0  0  0  0  0  0  0  0  0  0  0
   -8.0700    2.6750    1.6400 C   0  0  0  0  0  0  0  0  0  0  0  0
   -7.2920    2.9290    2.5820 O   0  0  0  0  0  0  0  0  0  0  0  0
   -6.7350   -0.4930   -1.1880 S   0  0  0  0  0  0  0  0  0  0  0  0
   -4.8800   -0.3340   -1.4910 C   0  0  1  0  0  0  0  0  0  0  0  0
   -4.4670    0.9990   -0.9830 C   0  0  0  0  0  0  0  0  0  0  0  0
   -5.2460    2.0790   -1.6310 C   0  0  0  0  0  0  0  0  0  0  0  0
   -6.2350    1.7500   -2.6720 C   0  0  0  0  0  0  0  0  0  0  0  0
   -6.1020    0.4750   -3.4130 C   0  0  0  0  0  0  0  0  0  0  0  0
   -4.8290   -0.2850   -3.0020 C   0  0  0  0  0  0  0  0  0  0  0  0
   -0.6650   -2.2660   -1.5540 O   0  0  0  0  0  0  0  0  0  0  0  0
    4.2380   -0.8960    1.1420 O   0  0  0  0  0  0  0  0  0  0  0  0
  1  2  1  0
  2  3  1  0
  3  4  1  0
  4  5  1  0
  5  6  1  0
  6  7  1  0
  7  8  1  0
  8  9  1  6
  8 10  1  0
 10 11  2  0
 10 42  1  0
 11 12  1  0
 12 13  2  0
 13 14  1  0
 13 42  1  0
 14 15  2  0
 14 16  1  0
 16 17  1  0
 17 18  1  0
 18 19  2  0
 18 41  1  0
 19 20  1  0
 20 21  2  0
 21 22  1  0
 21 41  1  0
 22 23  2  0
 22 24  1  0
 24 25  1  0
 24 35  1  0
 25 26  1  0
 26 27  1  1
 26 28  1  0
 28 29  1  1
 28 34  1  0
 29 30  2  0
 29 31  1  0
 31 32  1  0
 32 33  2  0
 34 35  1  0
 35 36  1  1
 35 40  1  0
 36 37  1  0
 37 38  1  0
 38 39  1  0
 39 40  1  0
M  END
