
     RDKit          3D

 42 45  0  0  0  0  0  0  0  0999 V2000
   -2.4800   -2.7430   -4.7910 C   0  0  0  0  0  0  0  0  0  0  0  0
   -2.8280   -2.4080   -3.4610 O   0  0  0  0  0  0  0  0  0  0  0  0
   -1.8400   -2.2320   -2.5030 C   0  0  0  0  0  0  0  0  0  0  0  0
   -0.6550   -2.3860   -2.8880 O   0  0  0  0  0  0  0  0  0  0  0  0
   -2.1060   -1.8850   -1.1060 C   0  0  2  0  0  0  0  0  0  0  0  0
   -0.8030   -1.7630   -0.3960 N   0  0  0  0  0  0  0  0  0  0  0  0
    0.1350   -0.8110   -0.7890 C   0  0  0  0  0  0  0  0  0  0  0  0
   -0.2120   -0.0690   -1.7760 O   0  0  0  0  0  0  0  0  0  0  0  0
    1.4260   -0.5690   -0.2160 C   0  0  0  0  0  0  0  0  0  0  0  0
    2.1750    0.5620   -0.4510 N   0  0  0  0  0  0  0  0  0  0  0  0
    3.3330    0.5050    0.1900 C   0  0  0  0  0  0  0  0  0  0  0  0
    4.3860    1.5720    0.1570 C   0  0  0  0  0  0  0  0  0  0  0  0
    5.5500    1.0910    1.0080 C   0  0  0  0  0  0  0  0  0  0  0  0
    6.6400    2.0770    1.0480 C   0  0  0  0  0  0  0  0  0  0  0  0
    6.5570    3.0000    1.8870 O   0  0  0  0  0  0  0  0  0  0  0  0
    7.7120    2.0010    0.2060 O   0  0  0  0  0  0  0  0  0  0  0  0
    8.7540    2.9310    0.2290 C   0  0  0  0  0  0  0  0  0  0  0  0
    8.2850    4.3250   -0.0870 C   0  0  0  0  0  0  0  0  0  0  0  0
    9.6840    5.4740   -0.0480 S   0  0  0  0  0  0  0  0  0  0  0  0
    9.1380    6.8340   -0.4840 O   0  0  0  0  0  0  0  0  0  0  0  0
    3.3700   -0.6730    0.8630 C   0  0  0  0  0  0  0  0  0  0  0  0
    2.1770   -1.3460    0.6090 C   0  0  0  0  0  0  0  0  0  0  0  0
    1.9310   -2.6930    1.1910 C   0  0  2  0  0  0  0  0  0  0  0  0
    3.0310   -3.0170    2.2220 C   0  0  0  0  0  0  0  0  0  0  0  0
    4.2170   -3.5930    1.5440 C   0  0  0  0  0  0  0  0  0  0  0  0
    4.2710   -3.3860    0.1700 O   0  0  0  0  0  0  0  0  0  0  0  0
    3.2260   -4.0330   -0.4830 C   0  0  0  0  0  0  0  0  0  0  0  0
    1.8880   -3.7960    0.1870 C   0  0  0  0  0  0  0  0  0  0  0  0
   -2.8360   -3.0200   -0.4640 C   0  0  0  0  0  0  0  0  0  0  0  0
   -4.2840   -3.0990   -0.8540 C   0  0  0  0  0  0  0  0  0  0  0  0
   -4.9230   -1.7300   -0.9700 C   0  0  0  0  0  0  0  0  0  0  0  0
   -4.0780   -0.7690   -0.1940 C   0  0  2  0  0  0  0  0  0  0  0  0
   -4.7450    0.4420    0.0910 O   0  0  0  0  0  0  0  0  0  0  0  0
   -5.0000    0.9180    1.3590 C   0  0  0  0  0  0  0  0  0  0  0  0
   -4.6110    0.2260    2.3330 O   0  0  0  0  0  0  0  0  0  0  0  0
   -5.7040    2.1950    1.6270 C   0  0  2  0  0  0  0  0  0  0  0  0
   -5.8480    2.4880    3.0830 C   0  0  0  0  0  0  0  0  0  0  0  0
   -7.0940    2.0880    1.0180 C   0  0  0  0  0  0  0  0  0  0  0  0
   -7.4980    3.4830    0.6500 C   0  0  0  0  0  0  0  0  0  0  0  0
   -6.2780    4.3360    0.8110 C   0  0  0  0  0  0  0  0  0  0  0  0
   -5.1150    3.3540    0.8730 C   0  0  0  0  0  0  0  0  0  0  0  0
   -2.7890   -0.5560   -0.9400 C   0  0  0  0  0  0  0  0  0  0  0  0
  1  2  1  0
  2  3  1  0
  3  4  2  0
  3  5  1  0
  5  6  1  1
  5 29  1  0
  5 42  1  0
  6  7  1  0
  7  8  2  0
  7  9  1  0
  9 10  1  0
  9 22  2  0
 10 11  1  0
 11 12  1  0
 11 21  2  0
 12 13  1  0
 13 14  1  0
 14 15  2  0
 14 16  1  0
 16 17  1  0
 17 18  1  0
 18 19  1  0
 19 20  2  0
 21 22  1  0
 23 22  1  6
 23 24  1  0
 23 28  1  0
 24 25  1  0
 25 26  1  0
 26 27  1  0
 27 28  1  0
 29 30  1  0
 30 31  1  0
 31 32  1  0
 32 33  1  6
 32 42  1  0
 33 34  1  0
 34 35  2  0
 34 36  1  0
 36 37  1  1
 36 38  1  0
 36 41  1  0
 38 39  1  0
 39 40  1  0
 40 41  1  0
M  END
