
     RDKit          3D

 41 44  0  0  0  0  0  0  0  0999 V2000
    0.7380   -2.5170    2.4410 C   0  0  0  0  0  0  0  0  0  0  0  0
    0.3000   -1.7640    1.4470 C   0  0  0  0  0  0  0  0  0  0  0  0
    0.8240   -1.8130    0.0810 C   0  0  0  0  0  0  0  0  0  0  0  0
    1.3270   -0.6100   -0.4910 N   0  0  0  0  0  0  0  0  0  0  0  0
    0.3150    0.1940   -1.1870 C   0  0  0  0  0  0  0  0  0  0  0  0
    0.7340    1.2670   -1.7140 O   0  0  0  0  0  0  0  0  0  0  0  0
   -1.0740   -0.2040   -1.2730 C   0  0  0  0  0  0  0  0  0  0  0  0
   -1.4770   -1.0900   -2.2790 C   0  0  0  0  0  0  0  0  0  0  0  0
   -2.7990   -1.4460   -2.2970 C   0  0  0  0  0  0  0  0  0  0  0  0
   -3.7020   -0.9800   -1.3980 N   0  0  0  0  0  0  0  0  0  0  0  0
   -3.3270   -0.1270   -0.4250 C   0  0  0  0  0  0  0  0  0  0  0  0
   -4.2520    0.3600    0.5100 O   0  0  0  0  0  0  0  0  0  0  0  0
   -5.6060   -0.0450    0.4460 C   0  0  1  0  0  0  0  0  0  0  0  0
   -6.0290   -0.6450    1.7580 C   0  0  0  0  0  0  0  0  0  0  0  0
   -7.4850   -1.0420    1.6460 C   0  0  0  0  0  0  0  0  0  0  0  0
   -8.3110    0.0270    1.3330 O   0  0  0  0  0  0  0  0  0  0  0  0
   -7.9390    0.6510    0.1470 C   0  0  1  0  0  0  0  0  0  0  0  0
   -8.1490   -0.2630   -1.0530 C   0  0  0  0  0  0  0  0  0  0  0  0
   -7.7590    0.4210   -2.1910 O   0  0  0  0  0  0  0  0  0  0  0  0
   -8.8910    1.8240   -0.0530 C   0  0  0  0  0  0  0  0  0  0  0  0
  -10.1860    1.2820   -0.1230 O   0  0  0  0  0  0  0  0  0  0  0  0
   -6.5220    1.1390    0.1690 C   0  0  0  0  0  0  0  0  0  0  0  0
   -1.9970    0.2610   -0.3680 C   0  0  0  0  0  0  0  0  0  0  0  0
   -1.5800    1.1390    0.6190 O   0  0  0  0  0  0  0  0  0  0  0  0
   -1.6440    2.5310    0.3140 C   0  0  0  0  0  0  0  0  0  0  0  0
    2.6260   -0.1510   -0.5190 C   0  0  2  0  0  0  0  0  0  0  0  0
    3.7090   -0.9960   -1.2230 C   0  0  0  0  0  0  0  0  0  0  0  0
    4.6510   -0.0260   -0.5100 C   0  0  2  0  0  0  0  0  0  0  0  0
    5.9130   -0.4440   -0.2160 O   0  0  0  0  0  0  0  0  0  0  0  0
    7.0300    0.2960   -0.5970 C   0  0  0  0  0  0  0  0  0  0  0  0
    6.8930    1.3650   -1.2210 O   0  0  0  0  0  0  0  0  0  0  0  0
    8.3870   -0.1850   -0.2630 C   0  0  0  0  0  0  0  0  0  0  0  0
    9.3590    0.8610   -0.8340 C   0  0  0  0  0  0  0  0  0  0  0  0
    9.7850    1.9080   -0.1370 C   0  0  0  0  0  0  0  0  0  0  0  0
   10.6450    2.8200   -0.6560 C   0  0  0  0  0  0  0  0  0  0  0  0
   10.8860    2.1090   -2.3550 S   0  0  0  0  0  0  0  0  0  0  0  0
    9.8240    0.7050   -2.1570 C   0  0  0  0  0  0  0  0  0  0  0  0
    3.5890   -0.0200    0.5900 C   0  0  1  0  0  0  0  0  0  0  0  0
    3.5120    1.4420    1.1150 C   0  0  0  0  0  0  0  0  0  0  0  0
    3.7930   -0.9000    1.7050 C   0  0  0  0  0  0  0  0  0  0  0  0
    4.2060   -2.2970    1.5830 C   0  0  0  0  0  0  0  0  0  0  0  0
  1  2  2  0
  2  3  1  0
  3  4  1  0
  4  5  1  0
 26  4  1  1
  5  6  2  0
  5  7  1  0
  7  8  2  0
  7 23  1  0
  8  9  1  0
  9 10  2  0
 10 11  1  0
 11 12  1  0
 11 23  2  0
 13 12  1  1
 13 14  1  0
 13 22  1  0
 14 15  1  0
 15 16  1  0
 16 17  1  0
 17 18  1  6
 17 20  1  0
 17 22  1  0
 18 19  1  0
 20 21  1  0
 23 24  1  0
 24 25  1  0
 26 27  1  0
 26 38  1  0
 27 28  1  0
 28 29  1  1
 28 38  1  0
 29 30  1  0
 30 31  2  0
 30 32  1  0
 32 33  1  0
 33 34  1  0
 33 37  2  0
 34 35  2  0
 35 36  1  0
 36 37  1  0
 38 39  1  1
 38 40  1  0
 40 41  1  0
M  END
