
     RDKit          3D

 41 44  0  0  0  0  0  0  0  0999 V2000
    0.9480    0.9160   -2.4040 C   0  0  0  0  0  0  0  0  0  0  0  0
    0.3580    0.4040   -1.3340 C   0  0  0  0  0  0  0  0  0  0  0  0
    1.0220   -0.7450   -0.6470 C   0  0  0  0  0  0  0  0  0  0  0  0
    1.3670   -0.5070    0.7190 N   0  0  0  0  0  0  0  0  0  0  0  0
    0.3390   -0.8460    1.6860 C   0  0  0  0  0  0  0  0  0  0  0  0
    0.5470   -0.6850    2.9200 O   0  0  0  0  0  0  0  0  0  0  0  0
   -0.9570   -1.3820    1.3060 C   0  0  0  0  0  0  0  0  0  0  0  0
   -1.1350   -2.7460    1.0820 C   0  0  0  0  0  0  0  0  0  0  0  0
   -2.3630   -3.2410    0.7070 C   0  0  0  0  0  0  0  0  0  0  0  0
   -3.4380   -2.4270    0.5440 N   0  0  0  0  0  0  0  0  0  0  0  0
   -3.3060   -1.1100    0.7510 C   0  0  0  0  0  0  0  0  0  0  0  0
   -4.3810   -0.2570    0.5930 O   0  0  0  0  0  0  0  0  0  0  0  0
   -5.6760   -0.6370    0.2240 C   0  0  1  0  0  0  0  0  0  0  0  0
   -6.6830   -0.2340    1.2830 C   0  0  0  0  0  0  0  0  0  0  0  0
   -8.0910   -0.4540    0.8340 C   0  0  0  0  0  0  0  0  0  0  0  0
   -8.2490   -0.7680   -0.4880 O   0  0  0  0  0  0  0  0  0  0  0  0
   -7.5060   -0.0470   -1.3870 C   0  0  2  0  0  0  0  0  0  0  0  0
   -8.0780    1.3500   -1.5590 C   0  0  0  0  0  0  0  0  0  0  0  0
   -8.0880    2.0690   -0.3720 O   0  0  0  0  0  0  0  0  0  0  0  0
   -7.7030   -0.7260   -2.7460 C   0  0  0  0  0  0  0  0  0  0  0  0
   -6.9880   -0.0720   -3.7390 O   0  0  0  0  0  0  0  0  0  0  0  0
   -6.0430    0.0570   -1.0600 C   0  0  0  0  0  0  0  0  0  0  0  0
   -2.0880   -0.5920    1.1260 C   0  0  0  0  0  0  0  0  0  0  0  0
   -2.0050    0.7760    1.3310 O   0  0  0  0  0  0  0  0  0  0  0  0
   -2.2470    1.3850    2.5840 C   0  0  0  0  0  0  0  0  0  0  0  0
    2.5600    0.0670    1.2470 C   0  0  2  0  0  0  0  0  0  0  0  0
    3.1150    1.2770    0.6380 C   0  0  0  0  0  0  0  0  0  0  0  0
    4.4900    0.7260    0.8920 C   0  0  2  0  0  0  0  0  0  0  0  0
    5.3580    0.7940   -0.2260 O   0  0  0  0  0  0  0  0  0  0  0  0
    6.5980    1.3830   -0.0370 C   0  0  0  0  0  0  0  0  0  0  0  0
    6.8880    1.8270    1.1240 O   0  0  0  0  0  0  0  0  0  0  0  0
    7.5910    1.5170   -1.1230 C   0  0  0  0  0  0  0  0  0  0  0  0
    8.8330    2.2050   -0.5610 C   0  0  0  0  0  0  0  0  0  0  0  0
    9.8560    1.5040   -0.0770 C   0  0  0  0  0  0  0  0  0  0  0  0
   10.9650    2.0900    0.4310 C   0  0  0  0  0  0  0  0  0  0  0  0
   10.5450    3.8930    0.2140 S   0  0  0  0  0  0  0  0  0  0  0  0
    8.9520    3.6050   -0.5230 C   0  0  0  0  0  0  0  0  0  0  0  0
    3.8710   -0.6060    1.1530 C   0  0  1  0  0  0  0  0  0  0  0  0
    4.3950   -1.1110    2.5320 C   0  0  0  0  0  0  0  0  0  0  0  0
    4.1710   -1.6440    0.1490 C   0  0  0  0  0  0  0  0  0  0  0  0
    3.3360   -2.8900    0.2250 C   0  0  0  0  0  0  0  0  0  0  0  0
  1  2  2  0
  2  3  1  0
  3  4  1  0
  4  5  1  0
 26  4  1  6
  5  6  2  0
  5  7  1  0
  7  8  2  0
  7 23  1  0
  8  9  1  0
  9 10  2  0
 10 11  1  0
 11 12  1  0
 11 23  2  0
 13 12  1  1
 13 14  1  0
 13 22  1  0
 14 15  1  0
 15 16  1  0
 16 17  1  0
 17 18  1  6
 17 20  1  0
 17 22  1  0
 18 19  1  0
 20 21  1  0
 23 24  1  0
 24 25  1  0
 26 27  1  0
 26 38  1  0
 27 28  1  0
 28 29  1  6
 28 38  1  0
 29 30  1  0
 30 31  2  0
 30 32  1  0
 32 33  1  0
 33 34  1  0
 33 37  2  0
 34 35  2  0
 35 36  1  0
 36 37  1  0
 38 39  1  1
 38 40  1  0
 40 41  1  0
M  END
