
     RDKit          3D

 42 45  0  0  0  0  0  0  0  0999 V2000
    9.4650    1.0400   -3.4840 C   0  0  0  0  0  0  0  0  0  0  0  0
    9.5580   -0.2660   -3.1190 O   0  0  0  0  0  0  0  0  0  0  0  0
    9.8590   -0.5450   -1.8270 C   0  0  0  0  0  0  0  0  0  0  0  0
    8.9080   -0.0630   -0.7720 C   0  0  2  0  0  0  0  0  0  0  0  0
    7.6090   -0.8390   -0.7570 C   0  0  0  0  0  0  0  0  0  0  0  0
    6.6150   -0.2280    0.0630 N   0  0  0  0  0  0  0  0  0  0  0  0
    5.7800   -1.0250    0.8780 C   0  0  0  0  0  0  0  0  0  0  0  0
    5.9520   -2.2750    0.8530 O   0  0  0  0  0  0  0  0  0  0  0  0
    4.7220   -0.4440    1.7480 C   0  0  0  0  0  0  0  0  0  0  0  0
    3.9380   -1.4410    2.5150 C   0  0  0  0  0  0  0  0  0  0  0  0
    3.1970   -2.4610    1.7300 C   0  0  0  0  0  0  0  0  0  0  0  0
    2.1830   -1.9140    0.7780 C   0  0  1  0  0  0  0  0  0  0  0  0
    1.1030   -1.0970    1.4550 C   0  0  0  0  0  0  0  0  0  0  0  0
   -0.0810   -0.9120    0.5190 C   0  0  1  0  0  0  0  0  0  0  0  0
   -0.7710    0.3800    0.6900 C   0  0  0  0  0  0  0  0  0  0  0  0
   -1.0590    1.0670   -0.3400 O   0  0  0  0  0  0  0  0  0  0  0  0
   -1.1530    0.9350    1.9070 O   0  0  0  0  0  0  0  0  0  0  0  0
   -1.8250    2.1700    2.0020 C   0  0  0  0  0  0  0  0  0  0  0  0
   -3.1920    1.9930    1.3700 C   0  0  0  0  0  0  0  0  0  0  0  0
   -3.8810    3.0250    1.1760 O   0  0  0  0  0  0  0  0  0  0  0  0
   -3.7040    0.7440    1.0070 N   0  0  0  0  0  0  0  0  0  0  0  0
   -4.9370    0.3640    0.4750 C   0  0  0  0  0  0  0  0  0  0  0  0
   -4.9940   -1.0810   -0.6710 S   0  0  0  0  0  0  0  0  0  0  0  0
   -6.7370   -1.0380   -0.9280 C   0  0  0  0  0  0  0  0  0  0  0  0
   -7.1570    0.0000   -0.1740 C   0  0  0  0  0  0  0  0  0  0  0  0
   -6.2490    0.7190    0.5480 C   0  0  0  0  0  0  0  0  0  0  0  0
   -6.6800    1.7040    1.6080 C   0  0  0  0  0  0  0  0  0  0  0  0
   -7.8610    2.1310    1.6750 O   0  0  0  0  0  0  0  0  0  0  0  0
   -5.8290    2.1800    2.5640 O   0  0  0  0  0  0  0  0  0  0  0  0
   -6.1620    3.0770    3.5780 C   0  0  0  0  0  0  0  0  0  0  0  0
   -8.5880    0.4970   -0.0090 C   0  0  0  0  0  0  0  0  0  0  0  0
   -9.5250   -0.3770   -0.8440 C   0  0  0  0  0  0  0  0  0  0  0  0
   -9.3760    0.0530   -2.2730 C   0  0  0  0  0  0  0  0  0  0  0  0
   -9.2880   -1.1790   -3.1090 C   0  0  0  0  0  0  0  0  0  0  0  0
   -8.2460   -2.1160   -2.6770 C   0  0  0  0  0  0  0  0  0  0  0  0
   -7.2530   -2.0630   -1.8290 C   0  0  0  0  0  0  0  0  0  0  0  0
    0.4890   -0.9670   -0.8890 C   0  0  0  0  0  0  0  0  0  0  0  0
    1.9070   -0.4410   -0.9630 C   0  0  0  0  0  0  0  0  0  0  0  0
    2.8130   -1.2110   -0.2260 O   0  0  0  0  0  0  0  0  0  0  0  0
    6.5170    1.2170    0.0280 C   0  0  0  0  0  0  0  0  0  0  0  0
    7.9410    1.7030    0.3430 C   0  0  0  0  0  0  0  0  0  0  0  0
    8.7330    1.2890   -0.7120 O   0  0  0  0  0  0  0  0  0  0  0  0
  1  2  1  0
  2  3  1  0
  4  3  1  6
  4  5  1  0
  4 42  1  0
  5  6  1  0
  6  7  1  0
  6 40  1  0
  7  8  2  0
  7  9  1  0
  9 10  1  0
 10 11  1  0
 12 11  1  1
 12 13  1  0
 12 39  1  0
 13 14  1  0
 14 15  1  1
 14 37  1  0
 15 16  2  0
 15 17  1  0
 17 18  1  0
 18 19  1  0
 19 20  2  0
 19 21  1  0
 21 22  1  0
 22 23  1  0
 22 26  2  0
 23 24  1  0
 24 25  2  0
 24 36  1  0
 25 26  1  0
 25 31  1  0
 26 27  1  0
 27 28  2  0
 27 29  1  0
 29 30  1  0
 31 32  1  0
 32 33  1  0
 33 34  1  0
 34 35  1  0
 35 36  2  0
 37 38  1  0
 38 39  1  0
 40 41  1  0
 41 42  1  0
M  END
