
     RDKit          3D

 41 45  0  0  0  0  0  0  0  0999 V2000
   -1.6750    9.4330   -0.5800 C   0  0  0  0  0  0  0  0  0  0  0  0
   -1.7580    8.5250    0.5860 C   0  0  0  0  0  0  0  0  0  0  0  0
   -1.4120    7.2550    0.5210 C   0  0  0  0  0  0  0  0  0  0  0  0
   -1.5010    6.3940    1.6590 C   0  0  0  0  0  0  0  0  0  0  0  0
   -1.1340    5.1040    1.5540 C   0  0  0  0  0  0  0  0  0  0  0  0
   -0.6640    4.4620    0.4670 O   0  0  0  0  0  0  0  0  0  0  0  0
   -0.3870    3.0640    0.7930 C   0  0  0  0  0  0  0  0  0  0  0  0
    0.1490    2.3210   -0.3340 C   0  0  0  0  0  0  0  0  0  0  0  0
    0.5720    1.0530   -0.3690 O   0  0  0  0  0  0  0  0  0  0  0  0
    1.7490    0.5350    0.1660 C   0  0  0  0  0  0  0  0  0  0  0  0
    2.5170    1.3140    0.7610 O   0  0  0  0  0  0  0  0  0  0  0  0
    2.1220   -0.8720    0.0610 C   0  0  0  0  0  0  0  0  0  0  0  0
    1.4350   -1.8910   -0.5600 C   0  0  0  0  0  0  0  0  0  0  0  0
    2.1480   -3.0490   -0.4140 C   0  0  0  0  0  0  0  0  0  0  0  0
    3.2720   -2.7040    0.3050 C   0  0  0  0  0  0  0  0  0  0  0  0
    4.3450   -3.6440    0.7050 C   0  0  0  0  0  0  0  0  0  0  0  0
    5.3150   -3.6620   -0.2620 O   0  0  0  0  0  0  0  0  0  0  0  0
    5.9270   -2.4320   -0.4760 C   0  0  2  0  0  0  0  0  0  0  0  0
    5.7920   -2.0940   -1.9280 C   0  0  0  0  0  0  0  0  0  0  0  0
    7.1400   -2.5040   -2.4820 C   0  0  0  0  0  0  0  0  0  0  0  0
    8.0260   -2.2640   -1.2760 C   0  0  0  0  0  0  0  0  0  0  0  0
    7.2760   -2.5140   -0.1630 O   0  0  0  0  0  0  0  0  0  0  0  0
    3.2130   -1.4390    0.5560 O   0  0  0  0  0  0  0  0  0  0  0  0
   -0.6740    2.8440    2.0260 C   0  0  0  0  0  0  0  0  0  0  0  0
   -0.6400    1.6810    2.9340 C   0  0  0  0  0  0  0  0  0  0  0  0
   -0.3180    0.0820    2.3410 S   0  0  0  0  0  0  0  0  0  0  0  0
   -1.6390   -0.5540    1.3050 C   0  0  0  0  0  0  0  0  0  0  0  0
   -1.5910   -1.7750    0.7700 N   0  0  0  0  0  0  0  0  0  0  0  0
   -2.5780   -2.3010   -0.0250 C   0  0  0  0  0  0  0  0  0  0  0  0
   -3.6870   -1.5540   -0.3000 C   0  0  0  0  0  0  0  0  0  0  0  0
   -3.7310   -0.2670    0.2690 C   0  0  0  0  0  0  0  0  0  0  0  0
   -4.7370    0.4420    0.0340 O   0  0  0  0  0  0  0  0  0  0  0  0
   -2.7330    0.1900    1.0370 N   0  0  0  0  0  0  0  0  0  0  0  0
   -4.8170   -2.0090   -1.1460 C   0  0  0  0  0  0  0  0  0  0  0  0
   -4.7650   -3.4890   -1.3070 C   0  0  2  0  0  0  0  0  0  0  0  0
   -5.1010   -4.0820   -0.1080 O   0  0  0  0  0  0  0  0  0  0  0  0
   -6.2220   -4.8970   -0.2300 C   0  0  0  0  0  0  0  0  0  0  0  0
   -3.3520   -3.8650   -1.7130 C   0  0  0  0  0  0  0  0  0  0  0  0
   -2.4080   -3.6820   -0.5620 C   0  0  0  0  0  0  0  0  0  0  0  0
   -1.1750    4.1430    2.6080 C   0  0  0  0  0  0  0  0  0  0  0  0
   -1.5410    4.2870    3.7900 O   0  0  0  0  0  0  0  0  0  0  0  0
  1  2  1  0
  2  3  2  3
  3  4  1  0
  4  5  2  3
  5  6  1  0
  5 40  1  0
  6  7  1  0
  7  8  1  0
  7 24  2  0
  8  9  1  0
  9 10  1  0
 10 11  2  0
 10 12  1  0
 12 13  2  0
 12 23  1  0
 13 14  1  0
 14 15  2  0
 15 16  1  0
 15 23  1  0
 16 17  1  0
 18 17  1  6
 18 19  1  0
 18 22  1  0
 19 20  1  0
 20 21  1  0
 21 22  1  0
 24 25  1  0
 24 40  1  0
 25 26  1  0
 26 27  1  0
 27 28  2  0
 27 33  1  0
 28 29  1  0
 29 30  2  0
 29 39  1  0
 30 31  1  0
 30 34  1  0
 31 32  2  0
 31 33  1  0
 34 35  1  0
 35 36  1  1
 35 38  1  0
 36 37  1  0
 38 39  1  0
 40 41  2  0
M  END
