
     RDKit          3D

 42 45  0  0  0  0  0  0  0  0999 V2000
    7.2200    2.5610    2.3080 C   0  0  0  0  0  0  0  0  0  0  0  0
    6.5720    2.1780    1.0920 O   0  0  0  0  0  0  0  0  0  0  0  0
    5.3310    1.5670    1.0740 C   0  0  0  0  0  0  0  0  0  0  0  0
    4.7680    1.3490    2.1760 O   0  0  0  0  0  0  0  0  0  0  0  0
    4.6670    1.1760   -0.1700 C   0  0  1  0  0  0  0  0  0  0  0  0
    5.6140    0.2450   -0.9370 C   0  0  0  0  0  0  0  0  0  0  0  0
    3.4260    0.5750    0.0000 O   0  0  0  0  0  0  0  0  0  0  0  0
    2.2480    0.9910   -0.5830 C   0  0  0  0  0  0  0  0  0  0  0  0
    2.2690    1.9840   -1.3270 O   0  0  0  0  0  0  0  0  0  0  0  0
    1.0240    0.1900   -0.2570 C   0  0  1  0  0  0  0  0  0  0  0  0
    0.0870    1.1790    0.4100 C   0  0  0  0  0  0  0  0  0  0  0  0
    0.4600   -0.2110   -1.6090 C   0  0  0  0  0  0  0  0  0  0  0  0
   -0.7720   -1.0500   -1.5450 C   0  0  2  0  0  0  0  0  0  0  0  0
   -1.2180   -1.4020   -2.9320 C   0  0  0  0  0  0  0  0  0  0  0  0
   -1.5320   -0.2760   -3.8230 C   0  0  0  0  0  0  0  0  0  0  0  0
   -2.7680    0.0330   -4.2440 C   0  0  0  0  0  0  0  0  0  0  0  0
   -2.7600    1.1690   -5.0900 N   0  0  0  0  0  0  0  0  0  0  0  0
   -1.4880    1.8710   -4.9090 C   0  0  0  0  0  0  0  0  0  0  0  0
   -0.6580    0.6850   -4.4850 C   0  0  0  0  0  0  0  0  0  0  0  0
    0.5680    0.6070   -4.7020 O   0  0  0  0  0  0  0  0  0  0  0  0
   -1.7580   -0.5590   -0.7260 O   0  0  0  0  0  0  0  0  0  0  0  0
   -2.3640   -1.0600    0.3850 C   0  0  0  0  0  0  0  0  0  0  0  0
   -2.0660   -2.2780    0.9520 C   0  0  0  0  0  0  0  0  0  0  0  0
   -2.7460   -2.6680    2.0700 C   0  0  0  0  0  0  0  0  0  0  0  0
   -3.7220   -1.8780    2.6460 C   0  0  0  0  0  0  0  0  0  0  0  0
   -4.0270   -0.6510    2.0820 C   0  0  0  0  0  0  0  0  0  0  0  0
   -5.0050    0.1750    2.6330 C   0  0  0  0  0  0  0  0  0  0  0  0
   -5.2970    1.3920    2.0590 C   0  0  0  0  0  0  0  0  0  0  0  0
   -6.3350    2.2480    2.6590 C   0  0  0  0  0  0  0  0  0  0  0  0
   -4.6340    1.8210    0.9330 C   0  0  0  0  0  0  0  0  0  0  0  0
   -4.9520    3.1380    0.3140 C   0  0  0  0  0  0  0  0  0  0  0  0
   -3.6730    0.9800    0.4140 C   0  0  0  0  0  0  0  0  0  0  0  0
   -3.3480   -0.2530    0.9600 C   0  0  0  0  0  0  0  0  0  0  0  0
    1.2830   -0.8670    0.5980 O   0  0  0  0  0  0  0  0  0  0  0  0
    2.1480   -1.9110    0.3510 C   0  0  0  0  0  0  0  0  0  0  0  0
    2.7680   -1.9280   -0.7420 O   0  0  0  0  0  0  0  0  0  0  0  0
    2.3230   -2.9590    1.3460 C   0  0  2  0  0  0  0  0  0  0  0  0
    2.8390   -2.4240    2.6900 C   0  0  0  0  0  0  0  0  0  0  0  0
    3.2460   -4.0480    3.4620 S   0  0  0  0  0  0  0  0  0  0  0  0
    3.4090   -4.9700    1.9080 C   0  0  0  0  0  0  0  0  0  0  0  0
    3.5980   -6.1910    1.7500 O   0  0  0  0  0  0  0  0  0  0  0  0
    3.2680   -3.9650    0.9120 N   0  0  0  0  0  0  0  0  0  0  0  0
  1  2  1  0
  2  3  1  0
  3  4  2  0
  3  5  1  0
  5  6  1  1
  5  7  1  0
  7  8  1  0
  8  9  2  0
  8 10  1  0
 10 11  1  1
 10 12  1  0
 10 34  1  0
 13 12  1  6
 13 14  1  0
 13 21  1  0
 14 15  1  0
 15 16  2  0
 15 19  1  0
 16 17  1  0
 17 18  1  0
 18 19  1  0
 19 20  2  0
 21 22  1  0
 22 23  2  0
 22 33  1  0
 23 24  1  0
 24 25  2  0
 25 26  1  0
 26 27  2  0
 26 33  1  0
 27 28  1  0
 28 29  1  0
 28 30  2  0
 30 31  1  0
 30 32  1  0
 32 33  2  0
 34 35  1  0
 35 36  2  0
 37 35  1  6
 37 38  1  0
 37 42  1  0
 38 39  1  0
 39 40  1  0
 40 41  2  0
 40 42  1  0
M  END
