
     RDKit          3D

 42 45  0  0  0  0  0  0  0  0999 V2000
   -5.0630   -1.1060   -1.8170 C   0  0  0  0  0  0  0  0  0  0  0  0
   -3.9260   -1.2780   -0.9920 O   0  0  0  0  0  0  0  0  0  0  0  0
   -2.6610   -0.8940   -1.3310 C   0  0  0  0  0  0  0  0  0  0  0  0
   -2.4480   -0.3500   -2.4340 O   0  0  0  0  0  0  0  0  0  0  0  0
   -1.5620   -1.1630   -0.3160 C   0  0  2  0  0  0  0  0  0  0  0  0
   -0.3460   -0.6480   -0.9610 N   0  0  0  0  0  0  0  0  0  0  0  0
    0.9040   -0.7150   -0.3450 C   0  0  0  0  0  0  0  0  0  0  0  0
    0.8700   -1.2580    0.8240 O   0  0  0  0  0  0  0  0  0  0  0  0
    2.1810   -0.2520   -0.8710 C   0  0  0  0  0  0  0  0  0  0  0  0
    3.2750   -0.1700   -0.0560 N   0  0  0  0  0  0  0  0  0  0  0  0
    4.3440    0.2510   -0.7120 C   0  0  0  0  0  0  0  0  0  0  0  0
    5.7210    0.4720   -0.2030 C   0  0  0  0  0  0  0  0  0  0  0  0
    5.9310    1.8810    0.3120 C   0  0  0  0  0  0  0  0  0  0  0  0
    7.3390    1.9570    0.7820 C   0  0  0  0  0  0  0  0  0  0  0  0
    8.2350    2.0740   -0.1020 O   0  0  0  0  0  0  0  0  0  0  0  0
    7.7370    1.9110    2.0980 O   0  0  0  0  0  0  0  0  0  0  0  0
    9.0950    1.9890    2.5000 C   0  0  0  0  0  0  0  0  0  0  0  0
    9.1280    1.9090    4.0100 C   0  0  0  0  0  0  0  0  0  0  0  0
   10.7970    2.0040    4.6440 S   0  0  0  0  0  0  0  0  0  0  0  0
   11.0730    0.7610    5.4690 O   0  0  0  0  0  0  0  0  0  0  0  0
    3.9360    0.4530   -2.0040 C   0  0  0  0  0  0  0  0  0  0  0  0
    2.5820    0.1410   -2.1160 C   0  0  0  0  0  0  0  0  0  0  0  0
    1.7930    0.2120   -3.3690 C   0  0  1  0  0  0  0  0  0  0  0  0
    2.6470    0.8130   -4.4900 C   0  0  0  0  0  0  0  0  0  0  0  0
    1.8410    0.5540   -5.7660 C   0  0  0  0  0  0  0  0  0  0  0  0
    2.0060   -0.7570   -6.1150 O   0  0  0  0  0  0  0  0  0  0  0  0
    2.0650   -1.6110   -5.0520 C   0  0  0  0  0  0  0  0  0  0  0  0
    1.3060   -1.1510   -3.8210 C   0  0  0  0  0  0  0  0  0  0  0  0
   -1.4980   -2.6110   -0.0470 C   0  0  0  0  0  0  0  0  0  0  0  0
   -2.6270   -3.0720    0.8150 C   0  0  0  0  0  0  0  0  0  0  0  0
   -2.8180   -2.2360    2.0320 C   0  0  0  0  0  0  0  0  0  0  0  0
   -2.9400   -0.7610    1.7280 C   0  0  2  0  0  0  0  0  0  0  0  0
   -4.2800   -0.5040    1.4800 O   0  0  0  0  0  0  0  0  0  0  0  0
   -5.1530    0.1540    2.2920 C   0  0  0  0  0  0  0  0  0  0  0  0
   -4.6460    0.5420    3.3550 O   0  0  0  0  0  0  0  0  0  0  0  0
   -6.5760    0.4230    2.0160 C   0  0  1  0  0  0  0  0  0  0  0  0
   -7.4010   -0.7880    1.7510 C   0  0  0  0  0  0  0  0  0  0  0  0
   -7.2360    1.1960    3.1380 C   0  0  0  0  0  0  0  0  0  0  0  0
   -7.7040    2.5110    2.5270 C   0  0  0  0  0  0  0  0  0  0  0  0
   -6.7860    2.7330    1.3350 C   0  0  0  0  0  0  0  0  0  0  0  0
   -6.6410    1.3230    0.7990 C   0  0  0  0  0  0  0  0  0  0  0  0
   -1.9090   -0.2660    0.8460 C   0  0  0  0  0  0  0  0  0  0  0  0
  1  2  1  0
  2  3  1  0
  3  4  2  0
  3  5  1  0
  5  6  1  6
  5 29  1  0
  5 42  1  0
  6  7  1  0
  7  8  2  0
  7  9  1  0
  9 10  1  0
  9 22  2  0
 10 11  1  0
 11 12  1  0
 11 21  2  0
 12 13  1  0
 13 14  1  0
 14 15  2  0
 14 16  1  0
 16 17  1  0
 17 18  1  0
 18 19  1  0
 19 20  2  0
 21 22  1  0
 23 22  1  1
 23 24  1  0
 23 28  1  0
 24 25  1  0
 25 26  1  0
 26 27  1  0
 27 28  1  0
 29 30  1  0
 30 31  1  0
 31 32  1  0
 32 33  1  6
 32 42  1  0
 33 34  1  0
 34 35  2  0
 34 36  1  0
 36 37  1  6
 36 38  1  0
 36 41  1  0
 38 39  1  0
 39 40  1  0
 40 41  1  0
M  END
