
     RDKit          3D

 42 45  0  0  0  0  0  0  0  0999 V2000
    8.9580    3.6720   -2.3520 C   0  0  0  0  0  0  0  0  0  0  0  0
    7.9020    3.7180   -1.2780 C   0  0  0  0  0  0  0  0  0  0  0  0
    7.3470    2.3330   -1.0480 C   0  0  0  0  0  0  0  0  0  0  0  0
    6.2760    2.3380    0.0300 C   0  0  2  0  0  0  0  0  0  0  0  0
    6.8950    2.8380    1.2890 C   0  0  0  0  0  0  0  0  0  0  0  0
    5.6910    1.0090    0.1620 N   0  0  0  0  0  0  0  0  0  0  0  0
    4.3380    0.7560   -0.1320 C   0  0  0  0  0  0  0  0  0  0  0  0
    3.6770    1.8040   -0.4990 O   0  0  0  0  0  0  0  0  0  0  0  0
    3.6440   -0.5250   -0.0580 C   0  0  0  0  0  0  0  0  0  0  0  0
    2.2710   -0.5070    0.2710 C   0  0  0  0  0  0  0  0  0  0  0  0
    1.5700   -1.6670    0.4090 C   0  0  0  0  0  0  0  0  0  0  0  0
    0.2230   -1.7060    0.7280 O   0  0  0  0  0  0  0  0  0  0  0  0
   -0.5160   -0.5260    0.9280 C   0  0  0  0  0  0  0  0  0  0  0  0
   -1.8810   -0.8770    1.2390 O   0  0  0  0  0  0  0  0  0  0  0  0
   -2.1410   -1.6490    2.3880 C   0  0  0  0  0  0  0  0  0  0  0  0
   -1.1050   -2.0250    3.2130 C   0  0  0  0  0  0  0  0  0  0  0  0
   -1.3550   -2.7780    4.3230 C   0  0  0  0  0  0  0  0  0  0  0  0
   -2.6560   -3.1510    4.5980 C   0  0  0  0  0  0  0  0  0  0  0  0
   -3.6940   -2.7800    3.7790 C   0  0  0  0  0  0  0  0  0  0  0  0
   -3.4520   -2.0010    2.6280 C   0  0  0  0  0  0  0  0  0  0  0  0
   -4.5280   -1.6710    1.8550 O   0  0  0  0  0  0  0  0  0  0  0  0
   -4.7090   -0.9020    0.7450 C   0  0  1  0  0  0  0  0  0  0  0  0
   -4.7460   -1.8290   -0.4990 C   0  0  0  0  0  0  0  0  0  0  0  0
   -6.0080   -0.1590    0.8220 C   0  0  0  0  0  0  0  0  0  0  0  0
   -6.7670   -0.3040    1.8300 O   0  0  0  0  0  0  0  0  0  0  0  0
   -6.3900    0.7020   -0.2250 N   0  0  0  0  0  0  0  0  0  0  0  0
   -5.6550    1.0020   -1.4150 C   0  0  0  0  0  0  0  0  0  0  0  0
   -6.3260    2.2000   -2.0480 C   0  0  2  0  0  0  0  0  0  0  0  0
   -5.5820    3.4990   -1.9890 C   0  0  0  0  0  0  0  0  0  0  0  0
   -6.0080    3.6840   -0.2340 S   0  0  0  0  0  0  0  0  0  0  0  0
   -5.0780    2.8540    0.6410 O   0  0  0  0  0  0  0  0  0  0  0  0
   -7.2940    2.6840   -1.0200 C   0  0  2  0  0  0  0  0  0  0  0  0
   -7.6490    1.4390   -0.2760 C   0  0  1  0  0  0  0  0  0  0  0  0
   -8.5780    0.6310   -1.1300 C   0  0  0  0  0  0  0  0  0  0  0  0
   -9.7430    1.0410   -1.3580 O   0  0  0  0  0  0  0  0  0  0  0  0
   -8.2000   -0.5680   -1.6870 O   0  0  0  0  0  0  0  0  0  0  0  0
    2.2620   -2.8770    0.2150 C   0  0  0  0  0  0  0  0  0  0  0  0
    1.5240   -4.0200    0.3640 O   0  0  0  0  0  0  0  0  0  0  0  0
    1.9470   -5.3380    0.2290 C   0  0  0  0  0  0  0  0  0  0  0  0
    3.5840   -2.8950   -0.1010 C   0  0  0  0  0  0  0  0  0  0  0  0
    4.3080   -1.6980   -0.2470 C   0  0  0  0  0  0  0  0  0  0  0  0
    5.7200   -1.8610   -0.6540 C   0  0  0  0  0  0  0  0  0  0  0  0
  1  2  1  0
  2  3  1  0
  3  4  1  0
  4  5  1  1
  4  6  1  0
  6  7  1  0
  7  8  2  0
  7  9  1  0
  9 10  2  0
  9 41  1  0
 10 11  1  0
 11 12  1  0
 11 37  2  0
 12 13  1  0
 13 14  1  0
 14 15  1  0
 15 16  2  0
 15 20  1  0
 16 17  1  0
 17 18  2  0
 18 19  1  0
 19 20  2  0
 20 21  1  0
 21 22  1  0
 22 23  1  6
 22 24  1  0
 24 25  2  0
 24 26  1  0
 26 27  1  0
 26 33  1  0
 28 27  1  1
 28 29  1  0
 28 32  1  0
 30 29  1  6
 30 31  2  0
 30 32  1  0
 32 33  1  1
 33 34  1  6
 34 35  2  0
 34 36  1  0
 37 38  1  0
 37 40  1  0
 38 39  1  0
 40 41  2  0
 41 42  1  0
M  END
