
     RDKit          3D

 42 45  0  0  0  0  0  0  0  0999 V2000
    7.8660    2.2250   -2.5310 C   0  0  0  0  0  0  0  0  0  0  0  0
    6.4700    2.4710   -2.5700 O   0  0  0  0  0  0  0  0  0  0  0  0
    5.5550    1.6600   -1.9150 C   0  0  0  0  0  0  0  0  0  0  0  0
    6.0150    0.6880   -1.2770 O   0  0  0  0  0  0  0  0  0  0  0  0
    4.0990    1.9060   -1.9510 C   0  0  1  0  0  0  0  0  0  0  0  0
    3.6690    2.0280   -3.3930 C   0  0  0  0  0  0  0  0  0  0  0  0
    3.3310    0.9850   -1.2290 O   0  0  0  0  0  0  0  0  0  0  0  0
    2.4870    1.2980   -0.2020 C   0  0  0  0  0  0  0  0  0  0  0  0
    2.3830    2.5030    0.1380 O   0  0  0  0  0  0  0  0  0  0  0  0
    1.6580    0.3090    0.5680 C   0  0  1  0  0  0  0  0  0  0  0  0
    1.9660    0.3630    2.0480 C   0  0  0  0  0  0  0  0  0  0  0  0
    0.2050    0.6470    0.3820 C   0  0  0  0  0  0  0  0  0  0  0  0
   -0.7300   -0.2560    1.1200 C   0  0  2  0  0  0  0  0  0  0  0  0
   -0.6630   -1.6730    0.6820 C   0  0  0  0  0  0  0  0  0  0  0  0
   -1.0260   -1.9630   -0.7050 C   0  0  0  0  0  0  0  0  0  0  0  0
   -1.5620   -1.1670   -1.6000 C   0  0  0  0  0  0  0  0  0  0  0  0
   -1.7420   -1.8830   -2.8440 N   0  0  0  0  0  0  0  0  0  0  0  0
   -0.9190   -3.0640   -2.8040 C   0  0  0  0  0  0  0  0  0  0  0  0
   -0.8550   -3.2880   -1.3210 C   0  0  0  0  0  0  0  0  0  0  0  0
   -0.6880   -4.4110   -0.7890 O   0  0  0  0  0  0  0  0  0  0  0  0
   -2.0430    0.2460    1.1470 O   0  0  0  0  0  0  0  0  0  0  0  0
   -2.7970    0.6120    2.2090 C   0  0  0  0  0  0  0  0  0  0  0  0
   -2.4100    0.5610    3.5060 C   0  0  0  0  0  0  0  0  0  0  0  0
   -3.2640    0.9620    4.5290 C   0  0  0  0  0  0  0  0  0  0  0  0
   -4.5330    1.4250    4.2450 C   0  0  0  0  0  0  0  0  0  0  0  0
   -4.9440    1.4840    2.9170 C   0  0  0  0  0  0  0  0  0  0  0  0
   -6.2160    1.9470    2.6090 C   0  0  0  0  0  0  0  0  0  0  0  0
   -6.6450    2.0130    1.2890 C   0  0  0  0  0  0  0  0  0  0  0  0
   -8.0250    2.5210    1.0300 C   0  0  0  0  0  0  0  0  0  0  0  0
   -5.7950    1.6140    0.2790 C   0  0  0  0  0  0  0  0  0  0  0  0
   -6.2620    1.6890   -1.1290 C   0  0  0  0  0  0  0  0  0  0  0  0
   -4.5190    1.1510    0.6120 C   0  0  0  0  0  0  0  0  0  0  0  0
   -4.0900    1.0830    1.9140 C   0  0  0  0  0  0  0  0  0  0  0  0
    1.9020   -1.0020    0.0640 O   0  0  0  0  0  0  0  0  0  0  0  0
    3.1790   -1.5440    0.0940 C   0  0  0  0  0  0  0  0  0  0  0  0
    4.0820   -0.8160    0.5810 O   0  0  0  0  0  0  0  0  0  0  0  0
    3.5600   -2.8830   -0.3900 C   0  0  2  0  0  0  0  0  0  0  0  0
    2.8660   -3.9750    0.4290 C   0  0  0  0  0  0  0  0  0  0  0  0
    3.8890   -5.4150   -0.1000 S   0  0  0  0  0  0  0  0  0  0  0  0
    5.3370   -4.4570   -0.5440 C   0  0  0  0  0  0  0  0  0  0  0  0
    6.3840   -4.9560   -0.9940 O   0  0  0  0  0  0  0  0  0  0  0  0
    4.9810   -3.1200   -0.2640 N   0  0  0  0  0  0  0  0  0  0  0  0
  1  2  1  0
  2  3  1  0
  3  4  2  0
  3  5  1  0
  5  6  1  6
  5  7  1  0
  7  8  1  0
  8  9  2  0
  8 10  1  0
 10 11  1  1
 10 12  1  0
 10 34  1  0
 13 12  1  6
 13 14  1  0
 13 21  1  0
 14 15  1  0
 15 16  2  0
 15 19  1  0
 16 17  1  0
 17 18  1  0
 18 19  1  0
 19 20  2  0
 21 22  1  0
 22 23  2  0
 22 33  1  0
 23 24  1  0
 24 25  2  0
 25 26  1  0
 26 27  2  0
 26 33  1  0
 27 28  1  0
 28 29  1  0
 28 30  2  0
 30 31  1  0
 30 32  1  0
 32 33  2  0
 34 35  1  0
 35 36  2  0
 37 35  1  1
 37 38  1  0
 37 42  1  0
 38 39  1  0
 39 40  1  0
 40 41  2  0
 40 42  1  0
M  END
