
     RDKit          3D

 41 44  0  0  0  0  0  0  0  0999 V2000
   -2.0460   -2.5080   -3.8290 C   0  0  0  0  0  0  0  0  0  0  0  0
   -2.2100   -3.5630   -3.0580 C   0  0  0  0  0  0  0  0  0  0  0  0
   -1.6530   -3.5550   -1.6840 C   0  0  0  0  0  0  0  0  0  0  0  0
   -1.0570   -2.2690   -1.4440 N   0  0  0  0  0  0  0  0  0  0  0  0
    0.3130   -2.1930   -1.9310 C   0  0  0  0  0  0  0  0  0  0  0  0
    0.7510   -3.2340   -2.5040 O   0  0  0  0  0  0  0  0  0  0  0  0
    1.1520   -1.0400   -1.7990 C   0  0  0  0  0  0  0  0  0  0  0  0
    1.0310   -0.0040   -2.6970 C   0  0  0  0  0  0  0  0  0  0  0  0
    1.8230    1.1440   -2.5690 C   0  0  0  0  0  0  0  0  0  0  0  0
    2.6990    1.2320   -1.5720 N   0  0  0  0  0  0  0  0  0  0  0  0
    2.8520    0.2690   -0.6890 C   0  0  0  0  0  0  0  0  0  0  0  0
    3.7590    0.3680    0.3350 O   0  0  0  0  0  0  0  0  0  0  0  0
    4.6340    1.4160    0.6080 C   0  0  1  0  0  0  0  0  0  0  0  0
    4.2910    1.9240    1.9920 C   0  0  0  0  0  0  0  0  0  0  0  0
    5.2340    3.0670    2.3110 C   0  0  0  0  0  0  0  0  0  0  0  0
    6.4940    2.5100    2.4480 O   0  0  0  0  0  0  0  0  0  0  0  0
    6.9700    1.9350    1.2990 C   0  0  1  0  0  0  0  0  0  0  0  0
    7.4890    2.9820    0.3060 C   0  0  0  0  0  0  0  0  0  0  0  0
    8.5310    3.7280    0.8450 O   0  0  0  0  0  0  0  0  0  0  0  0
    8.2250    1.1460    1.7090 C   0  0  0  0  0  0  0  0  0  0  0  0
    7.8770    0.1760    2.6490 O   0  0  0  0  0  0  0  0  0  0  0  0
    6.0720    0.9680    0.6190 C   0  0  0  0  0  0  0  0  0  0  0  0
    2.0720   -0.9030   -0.7860 C   0  0  0  0  0  0  0  0  0  0  0  0
    2.2960   -1.8640    0.1740 O   0  0  0  0  0  0  0  0  0  0  0  0
    1.6250   -1.9100    1.3990 C   0  0  0  0  0  0  0  0  0  0  0  0
   -1.6120   -1.1330   -0.8030 C   0  0  2  0  0  0  0  0  0  0  0  0
   -1.8900   -1.3210    0.7060 C   0  0  0  0  0  0  0  0  0  0  0  0
   -3.0070   -0.3050    0.5840 C   0  0  2  0  0  0  0  0  0  0  0  0
   -4.2170   -0.6610    1.1640 O   0  0  0  0  0  0  0  0  0  0  0  0
   -4.9840    0.1480    1.9790 C   0  0  0  0  0  0  0  0  0  0  0  0
   -4.5730    1.3030    2.2230 O   0  0  0  0  0  0  0  0  0  0  0  0
   -6.2670   -0.2840    2.5770 C   0  0  0  0  0  0  0  0  0  0  0  0
   -7.4000    0.5900    2.0210 C   0  0  0  0  0  0  0  0  0  0  0  0
   -7.7750    1.7300    2.5520 C   0  0  0  0  0  0  0  0  0  0  0  0
   -8.8060    2.4580    2.0010 C   0  0  0  0  0  0  0  0  0  0  0  0
   -9.2890    1.4310    0.5950 S   0  0  0  0  0  0  0  0  0  0  0  0
   -8.0720    0.1230    0.8710 C   0  0  0  0  0  0  0  0  0  0  0  0
   -2.9310   -0.5730   -0.9350 C   0  0  1  0  0  0  0  0  0  0  0  0
   -2.8230    0.8560   -1.5770 C   0  0  0  0  0  0  0  0  0  0  0  0
   -4.1500   -1.1280   -1.5040 C   0  0  0  0  0  0  0  0  0  0  0  0
   -4.7820   -2.3420   -1.0040 C   0  0  0  0  0  0  0  0  0  0  0  0
  1  2  2  0
  2  3  1  0
  3  4  1  0
  4  5  1  0
 26  4  1  6
  5  6  2  0
  5  7  1  0
  7  8  2  0
  7 23  1  0
  8  9  1  0
  9 10  2  0
 10 11  1  0
 11 12  1  0
 11 23  2  0
 13 12  1  1
 13 14  1  0
 13 22  1  0
 14 15  1  0
 15 16  1  0
 16 17  1  0
 17 18  1  6
 17 20  1  0
 17 22  1  0
 18 19  1  0
 20 21  1  0
 23 24  1  0
 24 25  1  0
 26 27  1  0
 26 38  1  0
 27 28  1  0
 28 29  1  1
 28 38  1  0
 29 30  1  0
 30 31  2  0
 30 32  1  0
 32 33  1  0
 33 34  1  0
 33 37  2  0
 34 35  2  0
 35 36  1  0
 36 37  1  0
 38 39  1  6
 38 40  1  0
 40 41  1  0
M  END
