
     RDKit          3D

 41 45  0  0  0  0  0  0  0  0999 V2000
   -0.3350    6.3580    5.1550 C   0  0  0  0  0  0  0  0  0  0  0  0
    1.0090    6.1560    4.5320 C   0  0  0  0  0  0  0  0  0  0  0  0
    1.2650    5.0610    3.8080 C   0  0  0  0  0  0  0  0  0  0  0  0
    0.2250    4.0880    3.6440 C   0  0  0  0  0  0  0  0  0  0  0  0
    0.3790    2.9810    2.9510 C   0  0  0  0  0  0  0  0  0  0  0  0
   -0.5630    1.9810    2.7340 O   0  0  0  0  0  0  0  0  0  0  0  0
   -0.0190    0.9560    1.9410 C   0  0  0  0  0  0  0  0  0  0  0  0
   -0.8690   -0.2180    1.5900 C   0  0  0  0  0  0  0  0  0  0  0  0
   -2.0210    0.1090    0.8720 O   0  0  0  0  0  0  0  0  0  0  0  0
   -3.0700    0.8970    1.2780 C   0  0  0  0  0  0  0  0  0  0  0  0
   -3.0440    1.4040    2.4200 O   0  0  0  0  0  0  0  0  0  0  0  0
   -4.1780    1.1100    0.3520 C   0  0  0  0  0  0  0  0  0  0  0  0
   -5.2840    1.8860    0.6620 C   0  0  0  0  0  0  0  0  0  0  0  0
   -6.1070    1.8560   -0.4370 C   0  0  0  0  0  0  0  0  0  0  0  0
   -5.4910    1.0730   -1.3810 C   0  0  0  0  0  0  0  0  0  0  0  0
   -5.9640    0.7120   -2.7650 C   0  0  0  0  0  0  0  0  0  0  0  0
   -6.5530   -0.5430   -2.7760 O   0  0  0  0  0  0  0  0  0  0  0  0
   -7.6430   -0.6200   -1.9500 C   0  0  2  0  0  0  0  0  0  0  0  0
   -7.4630   -1.8240   -1.0270 C   0  0  0  0  0  0  0  0  0  0  0  0
   -8.8930   -2.2060   -0.7420 C   0  0  0  0  0  0  0  0  0  0  0  0
   -9.6810   -1.2440   -1.6040 C   0  0  0  0  0  0  0  0  0  0  0  0
   -8.7840   -1.0180   -2.6710 O   0  0  0  0  0  0  0  0  0  0  0  0
   -4.3590    0.6670   -0.8460 O   0  0  0  0  0  0  0  0  0  0  0  0
    1.2040    1.2170    1.6280 C   0  0  0  0  0  0  0  0  0  0  0  0
    2.2110    0.5150    0.8450 C   0  0  0  0  0  0  0  0  0  0  0  0
    1.8100   -1.0350    0.1080 S   0  0  0  0  0  0  0  0  0  0  0  0
    3.2370   -1.6430   -0.7790 C   0  0  0  0  0  0  0  0  0  0  0  0
    4.4000   -0.9670   -0.8310 N   0  0  0  0  0  0  0  0  0  0  0  0
    5.4720   -1.4360   -1.5040 C   0  0  0  0  0  0  0  0  0  0  0  0
    5.3270   -2.6480   -2.1430 C   0  0  0  0  0  0  0  0  0  0  0  0
    4.1450   -3.3660   -2.1090 C   0  0  0  0  0  0  0  0  0  0  0  0
    4.0100   -4.4710   -2.6900 O   0  0  0  0  0  0  0  0  0  0  0  0
    3.1190   -2.8360   -1.4170 N   0  0  0  0  0  0  0  0  0  0  0  0
    6.5050   -3.1650   -2.8850 C   0  0  0  0  0  0  0  0  0  0  0  0
    7.7850   -2.9970   -2.0900 C   0  0  2  0  0  0  0  0  0  0  0  0
    7.8310   -4.0240   -1.1660 O   0  0  0  0  0  0  0  0  0  0  0  0
    8.8280   -4.9510   -1.4160 C   0  0  0  0  0  0  0  0  0  0  0  0
    7.9580   -1.6370   -1.5050 C   0  0  0  0  0  0  0  0  0  0  0  0
    6.7610   -0.7460   -1.5950 C   0  0  0  0  0  0  0  0  0  0  0  0
    1.5640    2.5370    2.2480 C   0  0  0  0  0  0  0  0  0  0  0  0
    2.6840    3.1050    2.1500 O   0  0  0  0  0  0  0  0  0  0  0  0
  1  2  1  0
  2  3  2  3
  3  4  1  0
  4  5  2  3
  5  6  1  0
  5 40  1  0
  6  7  1  0
  7  8  1  0
  7 24  2  0
  8  9  1  0
  9 10  1  0
 10 11  2  0
 10 12  1  0
 12 13  2  0
 12 23  1  0
 13 14  1  0
 14 15  2  0
 15 16  1  0
 15 23  1  0
 16 17  1  0
 18 17  1  6
 18 19  1  0
 18 22  1  0
 19 20  1  0
 20 21  1  0
 21 22  1  0
 24 25  1  0
 24 40  1  0
 25 26  1  0
 26 27  1  0
 27 28  2  0
 27 33  1  0
 28 29  1  0
 29 30  2  0
 29 39  1  0
 30 31  1  0
 30 34  1  0
 31 32  2  0
 31 33  1  0
 34 35  1  0
 35 36  1  1
 35 38  1  0
 36 37  1  0
 38 39  1  0
 40 41  2  0
M  END
