
     RDKit          3D

 42 46  0  0  0  0  0  0  0  0999 V2000
   -7.2020    2.9570    3.9290 C   0  0  0  0  0  0  0  0  0  0  0  0
   -6.5010    1.7680    4.2360 O   0  0  0  0  0  0  0  0  0  0  0  0
   -5.2880    1.5290    3.5870 C   0  0  0  0  0  0  0  0  0  0  0  0
   -4.5680    0.3830    3.8540 C   0  0  0  0  0  0  0  0  0  0  0  0
   -3.3640    0.1210    3.2260 C   0  0  0  0  0  0  0  0  0  0  0  0
   -2.8740    1.0270    2.3110 C   0  0  0  0  0  0  0  0  0  0  0  0
   -1.3250    0.6850    1.5060 S   0  0  2  0  0  0  0  0  0  0  0  0
   -0.5480   -0.1870    2.4620 O   0  0  0  0  0  0  0  0  0  0  0  0
   -0.6090    1.9920    1.2730 O   0  0  0  0  0  0  0  0  0  0  0  0
   -1.6730   -0.1670    0.0680 N   0  0  0  0  0  0  0  0  0  0  0  0
   -2.3260   -1.3830    0.3630 C   0  0  0  0  0  0  0  0  0  0  0  0
   -1.4290   -2.5460    0.7090 C   0  0  1  0  0  0  0  0  0  0  0  0
   -2.3090   -3.7370    0.9970 C   0  0  0  0  0  0  0  0  0  0  0  0
   -2.4920   -4.3730   -0.3550 C   0  0  0  0  0  0  0  0  0  0  0  0
   -1.2230   -4.1160   -1.0530 C   0  0  0  0  0  0  0  0  0  0  0  0
   -0.7070   -4.7200   -2.0220 O   0  0  0  0  0  0  0  0  0  0  0  0
   -0.6360   -3.0020   -0.4100 N   0  0  0  0  0  0  0  0  0  0  0  0
   -2.1720    0.6790   -0.9280 C   0  0  0  0  0  0  0  0  0  0  0  0
   -1.3760    0.9120   -2.1640 C   0  0  1  0  0  0  0  0  0  0  0  0
   -2.1640    1.8500   -2.9080 O   0  0  0  0  0  0  0  0  0  0  0  0
   -0.0190    1.4980   -2.0290 C   0  0  2  0  0  0  0  0  0  0  0  0
    0.5290    1.8030   -3.4420 C   0  0  0  0  0  0  0  0  0  0  0  0
    0.6330    0.5770   -4.2660 C   0  0  0  0  0  0  0  0  0  0  0  0
   -0.3820    0.1730   -5.0860 C   0  0  0  0  0  0  0  0  0  0  0  0
   -0.2530   -0.9840   -5.8410 C   0  0  0  0  0  0  0  0  0  0  0  0
    0.8800   -1.7400   -5.7830 C   0  0  0  0  0  0  0  0  0  0  0  0
    1.8910   -1.3010   -4.9410 C   0  0  0  0  0  0  0  0  0  0  0  0
    1.7760   -0.1640   -4.1920 C   0  0  0  0  0  0  0  0  0  0  0  0
    0.9450    0.6540   -1.3440 N   0  0  0  0  0  0  0  0  0  0  0  0
    1.9160    1.1920   -0.4840 C   0  0  0  0  0  0  0  0  0  0  0  0
    1.9910    2.4170   -0.2720 O   0  0  0  0  0  0  0  0  0  0  0  0
    2.8550    0.4040    0.1870 O   0  0  0  0  0  0  0  0  0  0  0  0
    3.8250    0.9060    1.0460 C   0  0  2  0  0  0  0  0  0  0  0  0
    5.2400    0.5840    0.6090 C   0  0  0  0  0  0  0  0  0  0  0  0
    6.0100    1.0570    1.8520 C   0  0  2  0  0  0  0  0  0  0  0  0
    7.2770    0.2600    2.0540 C   0  0  0  0  0  0  0  0  0  0  0  0
    6.7880   -0.9010    2.8770 C   0  0  0  0  0  0  0  0  0  0  0  0
    5.7370   -0.4470    3.6270 O   0  0  0  0  0  0  0  0  0  0  0  0
    5.1430    0.6270    3.0090 C   0  0  2  0  0  0  0  0  0  0  0  0
    3.7820    0.2580    2.4080 C   0  0  0  0  0  0  0  0  0  0  0  0
   -3.5580    2.1850    2.0150 C   0  0  0  0  0  0  0  0  0  0  0  0
   -4.7660    2.4270    2.6590 C   0  0  0  0  0  0  0  0  0  0  0  0
  1  2  1  0
  2  3  1  0
  3  4  2  0
  3 42  1  0
  4  5  1  0
  5  6  2  0
  6  7  1  0
  6 41  1  0
  7  8  2  0
  7  9  2  0
  7 10  1  6
 10 11  1  0
 10 18  1  0
 12 11  1  6
 12 13  1  0
 12 17  1  0
 13 14  1  0
 14 15  1  0
 15 16  2  0
 15 17  1  0
 18 19  1  0
 19 20  1  6
 19 21  1  0
 21 22  1  6
 21 29  1  0
 22 23  1  0
 23 24  2  0
 23 28  1  0
 24 25  1  0
 25 26  2  0
 26 27  1  0
 27 28  2  0
 29 30  1  0
 30 31  2  0
 30 32  1  0
 33 32  1  6
 33 34  1  0
 33 40  1  0
 35 34  1  6
 35 36  1  0
 35 39  1  0
 36 37  1  0
 37 38  1  0
 38 39  1  0
 39 40  1  6
 41 42  2  0
M  END
