
     RDKit          3D

 42 46  0  0  0  0  0  0  0  0999 V2000
   -3.4270    1.3510    3.3770 C   0  0  0  0  0  0  0  0  0  0  0  0
   -3.7000    0.0780    2.8220 O   0  0  0  0  0  0  0  0  0  0  0  0
   -4.9660   -0.1350    2.3000 C   0  0  0  0  0  0  0  0  0  0  0  0
   -6.0350   -0.6210    3.0220 C   0  0  0  0  0  0  0  0  0  0  0  0
   -5.8370   -0.9180    4.3600 O   0  0  0  0  0  0  0  0  0  0  0  0
   -7.2730   -0.8110    2.4420 C   0  0  0  0  0  0  0  0  0  0  0  0
   -7.4530   -0.5040    1.0880 C   0  0  0  0  0  0  0  0  0  0  0  0
   -6.3620   -0.0130    0.3720 C   0  0  0  0  0  0  0  0  0  0  0  0
   -5.1590    0.1600    0.9760 C   0  0  0  0  0  0  0  0  0  0  0  0
   -4.1770    0.6700   -0.0920 C   0  0  1  0  0  0  0  0  0  0  0  0
   -3.6890   -0.5680   -0.7050 C   0  0  0  0  0  0  0  0  0  0  0  0
   -2.6780   -0.6450   -1.6930 N   0  0  0  0  0  0  0  0  0  0  0  0
   -2.9410   -0.7220   -3.0840 C   0  0  0  0  0  0  0  0  0  0  0  0
   -2.6360    0.3640   -4.0080 C   0  0  1  0  0  0  0  0  0  0  0  0
   -3.1060    0.1130   -5.3210 O   0  0  0  0  0  0  0  0  0  0  0  0
   -2.8640    1.7810   -3.6660 C   0  0  0  0  0  0  0  0  0  0  0  0
   -2.3990    2.1120   -2.3780 O   0  0  0  0  0  0  0  0  0  0  0  0
   -1.3500   -0.8340   -1.2060 C   0  0  0  0  0  0  0  0  0  0  0  0
   -1.1990   -0.9360    0.0470 O   0  0  0  0  0  0  0  0  0  0  0  0
   -0.1480   -0.9220   -2.0390 C   0  0  0  0  0  0  0  0  0  0  0  0
    1.0670   -1.1840   -1.2590 N   0  0  0  0  0  0  0  0  0  0  0  0
    1.7830   -0.0650   -0.7360 C   0  0  0  0  0  0  0  0  0  0  0  0
    1.3990    1.1170   -0.9300 O   0  0  0  0  0  0  0  0  0  0  0  0
    3.0180   -0.2590    0.0620 C   0  0  0  0  0  0  0  0  0  0  0  0
    3.6060    1.0570    0.4460 C   0  0  0  0  0  0  0  0  0  0  0  0
    4.8610    0.9370    1.2610 C   0  0  1  0  0  0  0  0  0  0  0  0
    5.9610    0.1940    0.5340 C   0  0  0  0  0  0  0  0  0  0  0  0
    7.0420    0.1130    1.4760 O   0  0  0  0  0  0  0  0  0  0  0  0
    7.4720    1.3360    1.9860 C   0  0  0  0  0  0  0  0  0  0  0  0
    8.7640    1.4470    2.5070 C   0  0  0  0  0  0  0  0  0  0  0  0
    9.1990    2.6520    3.0130 C   0  0  0  0  0  0  0  0  0  0  0  0
    8.3540    3.7440    3.0030 C   0  0  0  0  0  0  0  0  0  0  0  0
    7.0800    3.6120    2.4820 C   0  0  0  0  0  0  0  0  0  0  0  0
    6.6220    2.4200    1.9710 C   0  0  0  0  0  0  0  0  0  0  0  0
    5.3550    2.2630    1.4460 O   0  0  0  0  0  0  0  0  0  0  0  0
    1.5480   -2.5040   -1.0580 C   0  0  1  0  0  0  0  0  0  0  0  0
    0.6210   -3.4280   -0.3130 C   0  0  0  0  0  0  0  0  0  0  0  0
    1.4330   -4.7220   -0.1320 C   0  0  0  0  0  0  0  0  0  0  0  0
    2.1270   -4.9000   -1.8010 S   0  0  0  0  0  0  0  0  0  0  0  0
    1.8460   -3.2050   -2.3930 C   0  0  0  0  0  0  0  0  0  0  0  0
   -5.2070    1.4540   -0.8790 C   0  0  0  0  0  0  0  0  0  0  0  0
   -6.2090    0.3910   -0.9790 O   0  0  0  0  0  0  0  0  0  0  0  0
  1  2  1  0
  2  3  1  0
  3  4  2  0
  3  9  1  0
  4  5  1  0
  4  6  1  0
  6  7  2  0
  7  8  1  0
  8  9  2  0
  8 42  1  0
  9 10  1  0
 10 11  1  6
 10 41  1  0
 11 12  1  0
 12 13  1  0
 12 18  1  0
 13 14  1  0
 14 15  1  6
 14 16  1  0
 16 17  1  0
 18 19  2  0
 18 20  1  0
 20 21  1  0
 21 22  1  0
 36 21  1  6
 22 23  2  0
 22 24  1  0
 24 25  1  0
 26 25  1  6
 26 27  1  0
 26 35  1  0
 27 28  1  0
 28 29  1  0
 29 30  2  0
 29 34  1  0
 30 31  1  0
 31 32  2  0
 32 33  1  0
 33 34  2  0
 34 35  1  0
 36 37  1  0
 36 40  1  0
 37 38  1  0
 38 39  1  0
 39 40  1  0
 41 42  1  0
M  END
