
     RDKit          3D

 42 45  0  0  0  0  0  0  0  0999 V2000
    8.9290   -0.3220   -0.0050 C   0  0  0  0  0  0  0  0  0  0  0  0
    8.6120    0.4660    1.2360 C   0  0  0  0  0  0  0  0  0  0  0  0
    7.6560    1.6030    0.9690 C   0  0  1  0  0  0  0  0  0  0  0  0
    8.2130    2.5900   -0.0380 C   0  0  0  0  0  0  0  0  0  0  0  0
    7.5920    2.1750   -1.3330 C   0  0  0  0  0  0  0  0  0  0  0  0
    6.3430    1.4700   -0.9320 C   0  0  0  0  0  0  0  0  0  0  0  0
    5.2590    1.1570   -1.7190 C   0  0  0  0  0  0  0  0  0  0  0  0
    4.1910    0.4970   -1.1630 C   0  0  0  0  0  0  0  0  0  0  0  0
    4.1490    0.1180    0.1970 C   0  0  0  0  0  0  0  0  0  0  0  0
    2.9390   -0.5120    0.6760 C   0  0  0  0  0  0  0  0  0  0  0  0
    2.7990   -1.1880    1.7560 C   0  0  0  0  0  0  0  0  0  0  0  0
    3.8270   -1.4860    2.7640 C   0  0  2  0  0  0  0  0  0  0  0  0
    4.9270   -2.1740    2.2430 F   0  0  0  0  0  0  0  0  0  0  0  0
    3.2640   -2.4300    3.7010 F   0  0  0  0  0  0  0  0  0  0  0  0
    1.7300   -0.2560   -0.1570 C   0  0  0  0  0  0  0  0  0  0  0  0
    0.4090   -0.4640    0.4320 C   0  0  0  0  0  0  0  0  0  0  0  0
    0.2270   -0.5190    1.6420 O   0  0  0  0  0  0  0  0  0  0  0  0
   -0.6710   -0.6010   -0.4750 N   0  0  0  0  0  0  0  0  0  0  0  0
   -1.9970   -0.7990   -0.0990 C   0  0  0  0  0  0  0  0  0  0  0  0
   -2.4370   -0.7120    1.2000 C   0  0  0  0  0  0  0  0  0  0  0  0
   -3.7900   -0.8820    1.4600 C   0  0  0  0  0  0  0  0  0  0  0  0
   -4.7290   -1.1360    0.4740 C   0  0  0  0  0  0  0  0  0  0  0  0
   -6.0710   -1.2980    0.8040 O   0  0  0  0  0  0  0  0  0  0  0  0
   -6.9020   -0.2340    1.0250 C   0  0  0  0  0  0  0  0  0  0  0  0
   -7.5340   -0.0870    2.2720 C   0  0  0  0  0  0  0  0  0  0  0  0
   -8.3790    0.9600    2.5560 C   0  0  0  0  0  0  0  0  0  0  0  0
   -9.0060    1.0610    3.8680 C   0  0  0  0  0  0  0  0  0  0  0  0
   -8.8050    0.2140    4.7730 O   0  0  0  0  0  0  0  0  0  0  0  0
   -8.6190    1.9030    1.5850 C   0  0  0  0  0  0  0  0  0  0  0  0
   -8.0100    1.7710    0.3680 C   0  0  0  0  0  0  0  0  0  0  0  0
   -7.1480    0.7090    0.0700 C   0  0  0  0  0  0  0  0  0  0  0  0
   -6.5740    0.6430   -1.1730 O   0  0  0  0  0  0  0  0  0  0  0  0
   -6.8550    1.6380   -2.1300 C   0  0  0  0  0  0  0  0  0  0  0  0
   -4.2310   -1.2130   -0.8040 C   0  0  0  0  0  0  0  0  0  0  0  0
   -2.9040   -1.0560   -1.1390 C   0  0  0  0  0  0  0  0  0  0  0  0
   -2.4770   -1.1960   -2.5620 C   0  0  2  0  0  0  0  0  0  0  0  0
   -3.7380   -1.1730   -3.4590 C   0  0  0  0  0  0  0  0  0  0  0  0
   -1.7450   -2.4650   -2.8150 C   0  0  0  0  0  0  0  0  0  0  0  0
   -2.3490   -3.7160   -2.4740 N   0  0  0  0  0  0  0  0  0  0  0  0
   -0.6040   -2.4560   -3.3250 O   0  0  0  0  0  0  0  0  0  0  0  0
    5.2540    0.4640    0.9070 C   0  0  0  0  0  0  0  0  0  0  0  0
    6.3700    1.1340    0.3970 C   0  0  0  0  0  0  0  0  0  0  0  0
  1  2  1  0
  3  2  1  6
  3  4  1  0
  3 42  1  0
  4  5  1  0
  5  6  1  0
  6  7  2  0
  6 42  1  0
  7  8  1  0
  8  9  2  0
  9 10  1  0
  9 41  1  0
 10 11  2  3
 10 15  1  0
 11 12  1  0
 12 13  1  6
 12 14  1  0
 15 16  1  0
 16 17  2  0
 16 18  1  0
 18 19  1  0
 19 20  2  0
 19 35  1  0
 20 21  1  0
 21 22  2  0
 22 23  1  0
 22 34  1  0
 23 24  1  0
 24 25  2  0
 24 31  1  0
 25 26  1  0
 26 27  1  0
 26 29  2  0
 27 28  2  0
 29 30  1  0
 30 31  2  0
 31 32  1  0
 32 33  1  0
 34 35  2  0
 35 36  1  0
 36 37  1  6
 36 38  1  0
 38 39  1  0
 38 40  2  0
 41 42  2  0
M  END
