
     RDKit          3D

 12 12  0  0  0  0  0  0  0  0999 V2000
    4.7350    0.4160   -0.8250 N   0  0  0  0  0  0  0  0  0  0  0  0
    3.4310   -0.1530   -0.9370 C   0  0  0  0  0  0  0  0  0  0  0  0
    3.1020   -0.9020   -1.8880 O   0  0  0  0  0  0  0  0  0  0  0  0
    2.4820    0.1200    0.0300 O   0  0  0  0  0  0  0  0  0  0  0  0
    1.1660   -0.3680    0.0470 C   0  0  0  0  0  0  0  0  0  0  0  0
    0.3540    0.0410   -1.1470 C   0  0  0  0  0  0  0  0  0  0  0  0
   -0.9500   -0.4440   -1.1280 O   0  0  0  0  0  0  0  0  0  0  0  0
   -1.8910   -0.1700   -0.1440 C   0  0  0  0  0  0  0  0  0  0  0  0
   -1.9840   -0.7440    1.0420 C   0  0  0  0  0  0  0  0  0  0  0  0
   -3.1420   -0.1670    1.8170 C   0  0  0  0  0  0  0  0  0  0  0  0
   -3.8940    0.4280    0.8030 O   0  0  0  0  0  0  0  0  0  0  0  0
   -3.0010    0.8140   -0.1760 C   0  0  0  0  0  0  0  0  0  0  0  0
  1  2  1  0
  2  3  2  0
  2  4  1  0
  4  5  1  0
  5  6  1  0
  6  7  1  0
  7  8  1  0
  8  9  2  0
  8 12  1  0
  9 10  1  0
 10 11  1  0
 11 12  1  0
M  END
