
     RDKit          3D

 12 12  0  0  0  0  0  0  0  0999 V2000
    3.6340    0.4120    0.5350 C   0  0  0  0  0  0  0  0  0  0  0  0
    3.0890    0.8820   -0.6690 O   0  0  0  0  0  0  0  0  0  0  0  0
    1.7050    0.8390   -0.5990 C   0  0  0  0  0  0  0  0  0  0  0  0
    1.2360   -0.4900   -0.3790 O   0  0  0  0  0  0  0  0  0  0  0  0
   -0.1180   -0.7540   -0.2770 C   0  0  0  0  0  0  0  0  0  0  0  0
   -0.7150   -1.9270   -0.4510 C   0  0  0  0  0  0  0  0  0  0  0  0
   -2.1530   -1.7680   -0.2510 C   0  0  0  0  0  0  0  0  0  0  0  0
   -3.0490   -2.6740   -0.3350 O   0  0  0  0  0  0  0  0  0  0  0  0
   -2.3390   -0.3540    0.0640 C   0  0  0  0  0  0  0  0  0  0  0  0
   -3.6100    0.2430    0.3360 N   0  0  0  0  0  0  0  0  0  0  0  0
   -1.1420    0.2410    0.0490 C   0  0  0  0  0  0  0  0  0  0  0  0
   -1.0000    1.5930    0.3130 O   0  0  0  0  0  0  0  0  0  0  0  0
  1  2  1  0
  2  3  1  0
  3  4  1  0
  4  5  1  0
  5  6  2  0
  5 11  1  0
  6  7  1  0
  7  8  2  0
  7  9  1  0
  9 10  1  0
  9 11  2  0
 11 12  1  0
M  END
