
     RDKit          3D

 12 12  0  0  0  0  0  0  0  0999 V2000
   -1.7670   -0.6800    1.9390 N   0  0  0  0  0  0  0  0  0  0  0  0
   -1.6190   -0.1900    0.6080 C   0  0  0  0  0  0  0  0  0  0  0  0
   -0.4760    0.0540   -0.0900 C   0  0  0  0  0  0  0  0  0  0  0  0
    0.8030   -0.1790    0.4930 C   0  0  0  0  0  0  0  0  0  0  0  0
    2.0320   -0.1000    0.2350 C   0  0  0  0  0  0  0  0  0  0  0  0
    2.8130    0.3020   -0.8760 C   0  0  0  0  0  0  0  0  0  0  0  0
    2.4190    0.7110   -1.9660 O   0  0  0  0  0  0  0  0  0  0  0  0
    4.2580    0.2540   -0.8020 O   0  0  0  0  0  0  0  0  0  0  0  0
   -0.8970    0.5400   -1.3880 C   0  0  0  0  0  0  0  0  0  0  0  0
   -0.1790    0.8980   -2.3830 O   0  0  0  0  0  0  0  0  0  0  0  0
   -2.2890    0.5660   -1.4110 O   0  0  0  0  0  0  0  0  0  0  0  0
   -2.7970    0.1290   -0.2120 C   0  0  0  0  0  0  0  0  0  0  0  0
  1  2  1  0
  2  3  2  0
  2 12  1  0
  3  4  1  0
  3  9  1  0
  4  5  2  3
  5  6  1  0
  6  7  2  0
  6  8  1  0
  9 10  2  0
  9 11  1  0
 11 12  1  0
M  END
