
     RDKit          3D

 12 12  0  0  0  0  0  0  0  0999 V2000
    3.5280    1.2570    0.3450 C   0  0  0  0  0  0  0  0  0  0  0  0
    2.1690    0.9020    0.2440 O   0  0  0  0  0  0  0  0  0  0  0  0
    1.7410   -0.3810   -0.0700 C   0  0  0  0  0  0  0  0  0  0  0  0
    2.6110   -1.2450   -0.2670 O   0  0  0  0  0  0  0  0  0  0  0  0
    0.2990   -0.6720   -0.1570 C   0  0  0  0  0  0  0  0  0  0  0  0
   -0.2610   -1.8930   -0.4560 C   0  0  0  0  0  0  0  0  0  0  0  0
   -1.6200   -1.6830   -0.4220 C   0  0  0  0  0  0  0  0  0  0  0  0
   -1.8950   -0.3470   -0.1040 C   0  0  0  0  0  0  0  0  0  0  0  0
   -3.2110    0.2660    0.0280 C   0  0  0  0  0  0  0  0  0  0  0  0
   -4.2540   -0.4030   -0.1450 O   0  0  0  0  0  0  0  0  0  0  0  0
   -3.3080    1.6040    0.3480 O   0  0  0  0  0  0  0  0  0  0  0  0
   -0.6840    0.2200    0.0460 N   0  0  0  0  0  0  0  0  0  0  0  0
  1  2  1  0
  2  3  1  0
  3  4  2  0
  3  5  1  0
  5  6  2  0
  5 12  1  0
  6  7  1  0
  7  8  2  0
  8  9  1  0
  8 12  1  0
  9 10  2  0
  9 11  1  0
M  END
