
     RDKit          3D

 27 30  0  0  0  0  0  0  0  0999 V2000
    4.3990    0.6710    0.4950 C   0  0  0  0  0  0  0  0  0  0  0  0
    3.3310   -0.3740    0.7360 C   0  0  0  0  0  0  0  0  0  0  0  0
    3.7600   -1.6860    0.7170 C   0  0  0  0  0  0  0  0  0  0  0  0
    2.7730   -2.6280    0.9350 C   0  0  0  0  0  0  0  0  0  0  0  0
    1.4480   -2.2840    1.1640 C   0  0  0  0  0  0  0  0  0  0  0  0
    1.0510   -0.9780    1.1920 C   0  0  0  0  0  0  0  0  0  0  0  0
    2.0120    0.0040    0.9610 C   0  0  0  0  0  0  0  0  0  0  0  0
    1.7270    1.4610    0.6100 C   0  0  0  0  0  0  0  0  0  0  0  0
    0.6940    2.2780    1.0140 C   0  0  0  0  0  0  0  0  0  0  0  0
    0.4400    3.3150    0.1690 C   0  0  0  0  0  0  0  0  0  0  0  0
    1.1170    3.6090   -0.9550 N   0  0  0  0  0  0  0  0  0  0  0  0
    2.1590    2.8190   -1.3480 C   0  0  0  0  0  0  0  0  0  0  0  0
    2.9020    3.1010   -2.5120 N   0  0  0  0  0  0  0  0  0  0  0  0
    2.4060    1.7890   -0.5510 N   0  0  0  0  0  0  0  0  0  0  0  0
   -1.2530    4.1210   -0.0020 S   0  0  0  0  0  0  0  0  0  0  0  0
   -2.4550    2.7030   -0.1200 C   0  0  0  0  0  0  0  0  0  0  0  0
   -3.2210    2.7240    1.0380 C   0  0  0  0  0  0  0  0  0  0  0  0
   -4.0450    1.6760    1.3800 C   0  0  0  0  0  0  0  0  0  0  0  0
   -4.0380    0.6260    0.4900 C   0  0  0  0  0  0  0  0  0  0  0  0
   -3.2700    0.5870   -0.6880 C   0  0  0  0  0  0  0  0  0  0  0  0
   -2.4490    1.6850   -1.0050 C   0  0  0  0  0  0  0  0  0  0  0  0
   -3.4480   -0.6000   -1.3790 O   0  0  0  0  0  0  0  0  0  0  0  0
   -2.5980   -1.6340   -1.7840 C   0  0  0  0  0  0  0  0  0  0  0  0
   -2.3930   -2.7830   -0.8560 C   0  0  0  0  0  0  0  0  0  0  0  0
   -1.2800   -2.5040    0.1290 C   0  0  0  0  0  0  0  0  0  0  0  0
   -0.5500   -3.7390    0.5400 C   0  0  0  0  0  0  0  0  0  0  0  0
    0.6130   -3.4230    1.3330 O   0  0  0  0  0  0  0  0  0  0  0  0
  1  2  1  0
  2  3  2  0
  2  7  1  0
  3  4  1  0
  4  5  2  0
  5  6  1  0
  5 27  1  0
  6  7  2  0
  7  8  1  0
  8  9  2  0
  8 14  1  0
  9 10  1  0
 10 11  2  0
 10 15  1  0
 11 12  1  0
 12 13  1  0
 12 14  2  0
 15 16  1  0
 16 17  2  0
 16 21  1  0
 17 18  1  0
 18 19  2  0
 19 20  1  0
 20 21  2  0
 20 22  1  0
 22 23  1  0
 23 24  1  0
 24 25  1  0
 25 26  1  0
 26 27  1  0
M  END
