
     RDKit          3D

 12 12  0  0  0  0  0  0  0  0999 V2000
   -2.0300    1.6930   -2.2310 C   0  0  0  0  0  0  0  0  0  0  0  0
   -1.2360    1.1340   -1.2050 O   0  0  0  0  0  0  0  0  0  0  0  0
   -0.6110   -0.0870   -1.2980 C   0  0  0  0  0  0  0  0  0  0  0  0
   -0.7570   -0.7400   -2.3620 O   0  0  0  0  0  0  0  0  0  0  0  0
    0.2090   -0.6610   -0.2340 C   0  0  0  0  0  0  0  0  0  0  0  0
    0.8650   -1.8760   -0.2560 C   0  0  0  0  0  0  0  0  0  0  0  0
    1.5150   -2.0540    0.9090 N   0  0  0  0  0  0  0  0  0  0  0  0
    1.3240   -1.0070    1.7160 C   0  0  0  0  0  0  0  0  0  0  0  0
    1.8480   -0.8610    2.9890 O   0  0  0  0  0  0  0  0  0  0  0  0
    0.5070   -0.1240    1.0140 C   0  0  0  0  0  0  0  0  0  0  0  0
    0.0580    1.1390    1.5290 C   0  0  0  0  0  0  0  0  0  0  0  0
    0.3790    1.5360    2.6630 O   0  0  0  0  0  0  0  0  0  0  0  0
  1  2  1  0
  2  3  1  0
  3  4  2  0
  3  5  1  0
  5  6  2  0
  5 10  1  0
  6  7  1  0
  7  8  1  0
  8  9  1  0
  8 10  2  0
 10 11  1  0
 11 12  2  0
M  END
