
     RDKit          3D

 28 31  0  0  0  0  0  0  0  0999 V2000
   -4.8180    1.1940    1.6710 C   0  0  0  0  0  0  0  0  0  0  0  0
   -4.4660    0.7770    0.3290 N   0  0  1  0  0  0  0  0  0  0  0  0
   -5.0920    1.6190   -0.6750 C   0  0  0  0  0  0  0  0  0  0  0  0
   -6.3130    0.8440   -1.1840 C   0  0  0  0  0  0  0  0  0  0  0  0
   -5.8370   -0.3550   -1.7220 O   0  0  0  0  0  0  0  0  0  0  0  0
   -3.0470    0.9000    0.1810 C   0  0  0  0  0  0  0  0  0  0  0  0
   -2.4180   -0.4380    0.2700 C   0  0  0  0  0  0  0  0  0  0  0  0
   -3.1450   -1.5650    0.4630 N   0  0  0  0  0  0  0  0  0  0  0  0
   -2.5830   -2.7860    0.5450 C   0  0  0  0  0  0  0  0  0  0  0  0
   -3.3990   -3.9350    0.7490 N   0  0  0  0  0  0  0  0  0  0  0  0
   -1.2520   -2.9530    0.4380 N   0  0  0  0  0  0  0  0  0  0  0  0
   -0.5050   -1.8660    0.2470 C   0  0  0  0  0  0  0  0  0  0  0  0
   -1.0490   -0.5980    0.1590 C   0  0  0  0  0  0  0  0  0  0  0  0
   -0.0730    0.3080   -0.0340 N   0  0  0  0  0  0  0  0  0  0  0  0
    1.1230   -0.3350   -0.0750 C   0  0  0  0  0  0  0  0  0  0  0  0
    2.4090    0.1520   -0.2510 C   0  0  0  0  0  0  0  0  0  0  0  0
    3.4790   -0.6990   -0.2570 C   0  0  0  0  0  0  0  0  0  0  0  0
    4.8150   -0.3060   -0.4080 N   0  0  0  0  0  0  0  0  0  0  0  0
    5.2570    1.0210   -0.2760 C   0  0  0  0  0  0  0  0  0  0  0  0
    4.4810    1.9790   -0.0030 O   0  0  0  0  0  0  0  0  0  0  0  0
    6.6850    1.3150   -0.4640 C   0  0  0  0  0  0  0  0  0  0  0  0
    7.2380    2.5620   -0.3630 C   0  0  0  0  0  0  0  0  0  0  0  0
    8.5990    2.3740   -0.6140 C   0  0  0  0  0  0  0  0  0  0  0  0
    8.7660    1.0160   -0.8490 C   0  0  0  0  0  0  0  0  0  0  0  0
    7.5910    0.4240   -0.7480 O   0  0  0  0  0  0  0  0  0  0  0  0
    3.1920   -2.0660   -0.0790 C   0  0  0  0  0  0  0  0  0  0  0  0
    1.9210   -2.5340    0.0920 C   0  0  0  0  0  0  0  0  0  0  0  0
    0.8730   -1.6720    0.0960 C   0  0  0  0  0  0  0  0  0  0  0  0
  2  1  1  1
  2  3  1  0
  2  6  1  0
  3  4  1  0
  4  5  1  0
  6  7  1  0
  7  8  2  0
  7 13  1  0
  8  9  1  0
  9 10  1  0
  9 11  2  0
 11 12  1  0
 12 13  2  0
 12 28  1  0
 13 14  1  0
 14 15  1  0
 15 16  2  0
 15 28  1  0
 16 17  1  0
 17 18  1  0
 17 26  2  0
 18 19  1  0
 19 20  2  0
 19 21  1  0
 21 22  2  0
 21 25  1  0
 22 23  1  0
 23 24  2  0
 24 25  1  0
 26 27  1  0
 27 28  2  0
M  CHG  1   2   1
M  END
