
     RDKit          3D

 41 43  0  0  0  0  0  0  0  0999 V2000
   -3.4040    2.3890    4.9970 C   0  0  0  0  0  0  0  0  0  0  0  0
   -2.4550    2.1020    3.9720 O   0  0  0  0  0  0  0  0  0  0  0  0
   -2.1820    3.0420    3.0040 C   0  0  0  0  0  0  0  0  0  0  0  0
   -2.8080    4.1490    3.0740 O   0  0  0  0  0  0  0  0  0  0  0  0
   -1.2220    2.8460    1.9080 C   0  0  0  0  0  0  0  0  0  0  0  0
   -1.2590    1.4870    1.2820 C   0  0  2  0  0  0  0  0  0  0  0  0
   -0.9960    0.5810    2.3360 O   0  0  0  0  0  0  0  0  0  0  0  0
   -0.0740    1.3230    0.3660 C   0  0  0  0  0  0  0  0  0  0  0  0
   -0.0740    1.9160   -0.7520 O   0  0  0  0  0  0  0  0  0  0  0  0
    1.0370    0.5250    0.7320 N   0  0  0  0  0  0  0  0  0  0  0  0
    2.2070    0.3690   -0.1550 C   0  0  1  0  0  0  0  0  0  0  0  0
    3.3130    1.1700    0.4990 C   0  0  0  0  0  0  0  0  0  0  0  0
    4.1120    0.3840    1.4620 C   0  0  0  0  0  0  0  0  0  0  0  0
    4.7980    0.9590    2.3490 O   0  0  0  0  0  0  0  0  0  0  0  0
    4.0840   -0.9970    1.3590 O   0  0  0  0  0  0  0  0  0  0  0  0
    3.8600   -1.5430    0.0530 C   0  0  2  0  0  0  0  0  0  0  0  0
    3.7720   -3.0570    0.1940 C   0  0  0  0  0  0  0  0  0  0  0  0
    5.0370   -1.1920   -0.7490 C   0  0  0  0  0  0  0  0  0  0  0  0
    4.9310   -0.4450   -1.8200 C   0  0  0  0  0  0  0  0  0  0  0  0
    6.3550   -0.0120   -2.8020 S   0  0  0  0  0  0  0  0  0  0  0  0
    7.7230   -1.0650   -2.3120 C   0  0  0  0  0  0  0  0  0  0  0  0
    7.3120   -2.0590   -1.2770 C   0  0  0  0  0  0  0  0  0  0  0  0
    6.3220   -1.6430   -0.3970 O   0  0  0  0  0  0  0  0  0  0  0  0
    2.5440   -1.0570   -0.4180 C   0  0  2  0  0  0  0  0  0  0  0  0
    2.2320   -1.4850   -1.7790 N   0  0  0  0  0  0  0  0  0  0  0  0
   -2.4710    1.0880    0.5560 C   0  0  1  0  0  0  0  0  0  0  0  0
   -2.2180   -0.3190    0.0420 C   0  0  0  0  0  0  0  0  0  0  0  0
   -1.1410   -0.9250    0.2620 O   0  0  0  0  0  0  0  0  0  0  0  0
   -3.1660   -0.9920   -0.6890 O   0  0  0  0  0  0  0  0  0  0  0  0
   -3.1150   -2.2610   -1.2340 C   0  0  0  0  0  0  0  0  0  0  0  0
   -2.0660   -2.5070   -2.2640 C   0  0  1  0  0  0  0  0  0  0  0  0
   -0.7630   -2.3750   -1.8270 O   0  0  0  0  0  0  0  0  0  0  0  0
   -2.1960   -3.9100   -2.7070 N   0  0  0  0  0  0  0  0  0  0  0  0
   -1.2320   -4.1020   -3.6330 O   0  0  0  0  0  0  0  0  0  0  0  0
   -3.7100    1.0540    1.3980 C   0  0  0  0  0  0  0  0  0  0  0  0
   -4.9360    0.6080    0.6210 C   0  0  0  0  0  0  0  0  0  0  0  0
   -5.1100    1.3680   -0.6560 C   0  0  1  0  0  0  0  0  0  0  0  0
   -6.3720    2.0160   -0.6990 O   0  0  0  0  0  0  0  0  0  0  0  0
   -4.1000    2.4630   -0.8010 C   0  0  1  0  0  0  0  0  0  0  0  0
   -4.4100    3.5850   -0.0320 O   0  0  0  0  0  0  0  0  0  0  0  0
   -2.6690    2.0230   -0.6420 C   0  0  0  0  0  0  0  0  0  0  0  0
  1  2  1  0
  2  3  1  0
  3  4  2  0
  3  5  1  0
  5  6  1  0
  6  7  1  1
  6  8  1  0
  6 26  1  0
  8  9  2  0
  8 10  1  0
 11 10  1  1
 11 12  1  0
 11 24  1  0
 12 13  1  0
 13 14  2  0
 13 15  1  0
 15 16  1  0
 16 17  1  1
 16 18  1  0
 16 24  1  0
 18 19  2  0
 18 23  1  0
 19 20  1  0
 20 21  1  0
 21 22  1  0
 22 23  1  0
 24 25  1  6
 26 27  1  6
 26 35  1  0
 26 41  1  0
 27 28  2  0
 27 29  1  0
 29 30  1  0
 30 31  1  0
 31 32  1  1
 31 33  1  0
 33 34  1  0
 35 36  1  0
 36 37  1  0
 37 38  1  1
 37 39  1  0
 39 40  1  1
 39 41  1  0
M  END
