
     RDKit          3D

 29 32  0  0  0  0  0  0  0  0999 V2000
   -4.8120   -4.0060    0.2410 C   0  0  0  0  0  0  0  0  0  0  0  0
   -3.4040   -4.5290    0.1570 C   0  0  0  0  0  0  0  0  0  0  0  0
   -2.4950   -3.6600   -0.5240 N   0  0  0  0  0  0  0  0  0  0  0  0
   -2.2840   -2.3540   -0.0100 C   0  0  0  0  0  0  0  0  0  0  0  0
   -2.8840   -1.9690    1.0220 O   0  0  0  0  0  0  0  0  0  0  0  0
   -1.4150   -1.4190   -0.5970 N   0  0  0  0  0  0  0  0  0  0  0  0
   -1.1940   -0.1090   -0.0950 C   0  0  2  0  0  0  0  0  0  0  0  0
   -1.4240    0.9760   -0.9580 N   0  0  0  0  0  0  0  0  0  0  0  0
   -0.8830    2.2530   -0.6300 C   0  0  0  0  0  0  0  0  0  0  0  0
    0.0820    2.4080    0.3600 C   0  0  0  0  0  0  0  0  0  0  0  0
    0.4120    3.6720    0.4670 O   0  0  0  0  0  0  0  0  0  0  0  0
   -0.2670    4.4020   -0.3890 C   0  0  0  0  0  0  0  0  0  0  0  0
   -0.3190    5.7470   -0.7010 C   0  0  0  0  0  0  0  0  0  0  0  0
   -1.1740    6.2180   -1.6930 C   0  0  0  0  0  0  0  0  0  0  0  0
   -1.9760    5.3650   -2.3770 N   0  0  0  0  0  0  0  0  0  0  0  0
   -1.9270    4.0550   -2.0760 C   0  0  0  0  0  0  0  0  0  0  0  0
   -1.0940    3.5430   -1.0990 C   0  0  0  0  0  0  0  0  0  0  0  0
    0.5340    1.2180    1.0640 C   0  0  0  0  0  0  0  0  0  0  0  0
    1.1340    1.2790    2.1710 O   0  0  0  0  0  0  0  0  0  0  0  0
    0.2560   -0.0850    0.4130 C   0  0  2  0  0  0  0  0  0  0  0  0
    1.1700   -0.3400   -0.6850 N   0  0  0  0  0  0  0  0  0  0  0  0
    2.4200    0.3290   -0.5440 C   0  0  0  0  0  0  0  0  0  0  0  0
    3.4460   -0.3820    0.2200 C   0  0  0  0  0  0  0  0  0  0  0  0
    3.2590   -1.6200    0.7880 C   0  0  0  0  0  0  0  0  0  0  0  0
    4.2840   -2.2410    1.5050 C   0  0  0  0  0  0  0  0  0  0  0  0
    5.4900   -1.6090    1.6430 C   0  0  0  0  0  0  0  0  0  0  0  0
    5.6290   -0.3660    1.0540 C   0  0  0  0  0  0  0  0  0  0  0  0
    6.8100    0.2620    1.1850 F   0  0  0  0  0  0  0  0  0  0  0  0
    4.6400    0.2130    0.3730 N   0  0  0  0  0  0  0  0  0  0  0  0
  1  2  1  0
  2  3  1  0
  3  4  1  0
  4  5  2  0
  4  6  1  0
  7  6  1  6
  7  8  1  0
  7 20  1  0
  8  9  1  0
  9 10  2  0
  9 17  1  0
 10 11  1  0
 10 18  1  0
 11 12  1  0
 12 13  2  0
 12 17  1  0
 13 14  1  0
 14 15  2  0
 15 16  1  0
 16 17  2  0
 18 19  2  0
 18 20  1  0
 20 21  1  6
 21 22  1  0
 22 23  1  0
 23 24  2  0
 23 29  1  0
 24 25  1  0
 25 26  2  0
 26 27  1  0
 27 28  1  0
 27 29  2  0
M  CHG  1  21   1
M  END
