
     RDKit          3D

 42 43  0  0  0  0  0  0  0  0999 V2000
   -2.5880   -2.0810    2.0860 C   0  0  0  0  0  0  0  0  0  0  0  0
   -2.7650   -0.7740    2.8270 C   0  0  1  0  0  0  0  0  0  0  0  0
   -2.3080    0.6710    1.9630 S   0  0  0  0  0  0  0  0  0  0  0  0
   -0.7510    0.7670    1.1710 C   0  0  0  0  0  0  0  0  0  0  0  0
   -0.6940    1.0900   -0.2770 C   0  0  1  0  0  0  0  0  0  0  0  0
   -0.6520    2.5770   -0.5210 C   0  0  0  0  0  0  0  0  0  0  0  0
   -1.7830    3.2510   -0.0760 O   0  0  0  0  0  0  0  0  0  0  0  0
    0.5930    0.5600   -0.7790 N   0  0  0  0  0  0  0  0  0  0  0  0
    1.8250    0.9560   -0.2590 C   0  0  0  0  0  0  0  0  0  0  0  0
    1.9320    1.7810    0.6700 O   0  0  0  0  0  0  0  0  0  0  0  0
    3.0640    0.4290   -0.7720 N   0  0  0  0  0  0  0  0  0  0  0  0
    4.3280    0.8660   -0.2050 C   0  0  0  0  0  0  0  0  0  0  0  0
    5.4790    0.1610   -0.9210 C   0  0  0  0  0  0  0  0  0  0  0  0
    5.3590   -1.1820   -0.7690 O   0  0  0  0  0  0  0  0  0  0  0  0
    6.3250   -1.9330   -1.3420 C   0  0  0  0  0  0  0  0  0  0  0  0
    7.7100   -1.8640   -0.8100 C   0  0  1  0  0  0  0  0  0  0  0  0
    8.5610   -2.7820   -1.7540 C   0  0  0  0  0  0  0  0  0  0  0  0
    9.8380   -2.8800   -1.2560 O   0  0  0  0  0  0  0  0  0  0  0  0
    8.3240   -0.6430   -0.7930 O   0  0  0  0  0  0  0  0  0  0  0  0
    9.0430   -0.4440    0.4010 C   0  0  1  0  0  0  0  0  0  0  0  0
   10.3930   -0.3300   -0.0070 O   0  0  0  0  0  0  0  0  0  0  0  0
    8.6270    0.8260    1.0510 C   0  0  0  0  0  0  0  0  0  0  0  0
    8.8650    1.9020    0.1790 O   0  0  0  0  0  0  0  0  0  0  0  0
   -1.7870    0.5110   -1.0910 C   0  0  0  0  0  0  0  0  0  0  0  0
   -1.8710   -0.7670   -0.9510 O   0  0  0  0  0  0  0  0  0  0  0  0
   -2.6480    1.1120   -1.9080 O   0  0  0  0  0  0  0  0  0  0  0  0
   -3.7120    1.9590   -1.8530 C   0  0  0  0  0  0  0  0  0  0  0  0
   -4.9090    1.5230   -2.6480 C   0  0  0  0  0  0  0  0  0  0  0  0
   -4.6970    1.5190   -3.9010 O   0  0  0  0  0  0  0  0  0  0  0  0
   -6.0510    1.1900   -1.9970 O   0  0  0  0  0  0  0  0  0  0  0  0
   -6.5590    0.0190   -1.4960 C   0  0  1  0  0  0  0  0  0  0  0  0
   -5.6330   -1.1570   -1.3020 C   0  0  0  0  0  0  0  0  0  0  0  0
   -6.2890   -1.4320    0.0260 C   0  0  2  0  0  0  0  0  0  0  0  0
   -7.1570   -2.5210   -0.0090 O   0  0  0  0  0  0  0  0  0  0  0  0
   -6.9490   -0.0720   -0.0760 C   0  0  2  0  0  0  0  0  0  0  0  0
   -8.4710   -0.2780    0.0380 C   0  0  0  0  0  0  0  0  0  0  0  0
   -6.5130    0.9530    0.8760 C   0  0  2  0  0  0  0  0  0  0  0  0
   -6.5980    2.2080    0.2730 O   0  0  0  0  0  0  0  0  0  0  0  0
   -5.1860    0.7920    1.5060 C   0  0  0  0  0  0  0  0  0  0  0  0
   -5.1690    0.1330    2.7810 N   0  0  0  0  0  0  0  0  0  0  0  0
   -4.1740   -0.7180    3.2590 C   0  0  0  0  0  0  0  0  0  0  0  0
   -4.5030   -1.5500    4.1760 O   0  0  0  0  0  0  0  0  0  0  0  0
  2  1  1  6
  2  3  1  0
  2 41  1  0
  3  4  1  0
  4  5  1  0
  5  6  1  1
  5  8  1  0
  5 24  1  0
  6  7  1  0
  8  9  1  0
  9 10  2  0
  9 11  1  0
 11 12  1  0
 12 13  1  0
 13 14  1  0
 14 15  1  0
 16 15  1  6
 16 17  1  0
 16 19  1  0
 17 18  1  0
 19 20  1  0
 20 21  1  6
 20 22  1  0
 22 23  1  0
 24 25  2  0
 24 26  1  0
 26 27  1  0
 27 28  1  0
 28 29  2  0
 28 30  1  0
 30 31  1  0
 31 32  1  1
 31 35  1  0
 32 33  1  0
 33 34  1  6
 33 35  1  0
 35 36  1  6
 35 37  1  0
 37 38  1  6
 37 39  1  0
 39 40  1  0
 40 41  1  0
 41 42  2  0
M  END
