
     RDKit          3D

 41 43  0  0  0  0  0  0  0  0999 V2000
   -2.1340    7.8800   -0.2990 N   0  0  0  0  0  0  0  0  0  0  0  0
   -2.3530    6.5430    0.1370 C   0  0  0  0  0  0  0  0  0  0  0  0
   -3.2690    6.2490    0.9410 O   0  0  0  0  0  0  0  0  0  0  0  0
   -1.4280    5.5020   -0.4180 C   0  0  0  0  0  0  0  0  0  0  0  0
   -1.7230    4.2510    0.0640 O   0  0  0  0  0  0  0  0  0  0  0  0
   -0.8290    3.3500   -0.4940 C   0  0  0  0  0  0  0  0  0  0  0  0
   -1.0880    1.9200   -0.0080 C   0  0  1  0  0  0  0  0  0  0  0  0
   -0.9560    1.8380    1.4680 C   0  0  0  0  0  0  0  0  0  0  0  0
   -2.2000    1.8710    2.2700 C   0  0  0  0  0  0  0  0  0  0  0  0
   -3.2750    1.2240    1.6660 O   0  0  0  0  0  0  0  0  0  0  0  0
   -3.4930    1.9310    0.4560 C   0  0  0  0  0  0  0  0  0  0  0  0
   -2.4110    1.4810   -0.4860 C   0  0  2  0  0  0  0  0  0  0  0  0
   -2.5470   -0.0110   -0.7040 C   0  0  0  0  0  0  0  0  0  0  0  0
   -1.9230   -0.7670    0.2310 O   0  0  0  0  0  0  0  0  0  0  0  0
   -1.9130   -2.1380    0.0350 C   0  0  1  0  0  0  0  0  0  0  0  0
   -3.2680   -2.7590   -0.0500 C   0  0  2  0  0  0  0  0  0  0  0  0
   -4.0370   -2.5000    1.2540 C   0  0  0  0  0  0  0  0  0  0  0  0
   -5.3050   -3.0830    1.1730 O   0  0  0  0  0  0  0  0  0  0  0  0
   -3.3030   -4.1930   -0.4140 C   0  0  0  0  0  0  0  0  0  0  0  0
   -2.5770   -5.1080    0.5370 C   0  0  0  0  0  0  0  0  0  0  0  0
   -3.0700   -5.0730    1.8170 O   0  0  0  0  0  0  0  0  0  0  0  0
   -0.9540   -2.5230   -1.0240 C   0  0  0  0  0  0  0  0  0  0  0  0
    0.4110   -2.9440   -0.4590 C   0  0  0  0  0  0  0  0  0  0  0  0
    1.4050   -2.1120   -0.9270 O   0  0  0  0  0  0  0  0  0  0  0  0
    2.1390   -1.5200    0.1040 C   0  0  1  0  0  0  0  0  0  0  0  0
    3.5710   -1.9020   -0.0810 C   0  0  1  0  0  0  0  0  0  0  0  0
    3.9560   -1.6240   -1.4460 N   0  0  0  0  0  0  0  0  0  0  0  0
    4.4460   -3.0480   -2.2910 S   0  0  2  0  0  0  0  0  0  0  0  0
    5.1150   -3.9820   -1.3360 O   0  0  0  0  0  0  0  0  0  0  0  0
    5.4470   -2.6340   -3.3250 O   0  0  0  0  0  0  0  0  0  0  0  0
    3.1170   -3.7360   -3.0300 O   0  0  0  0  0  0  0  0  0  0  0  0
    4.4220   -1.0790    0.8910 C   0  0  0  0  0  0  0  0  0  0  0  0
    4.2540    0.3690    0.4550 C   0  0  2  0  0  0  0  0  0  0  0  0
    5.2340    1.2010    1.0390 O   0  0  0  0  0  0  0  0  0  0  0  0
    6.1370    1.9480    0.2870 C   0  0  0  0  0  0  0  0  0  0  0  0
    7.1240    2.7850    0.8770 N   0  0  0  0  0  0  0  0  0  0  0  0
    6.0720    1.8770   -0.9680 O   0  0  0  0  0  0  0  0  0  0  0  0
    2.8450    0.7650    0.8600 C   0  0  0  0  0  0  0  0  0  0  0  0
    1.9010   -0.0360    0.0070 C   0  0  2  0  0  0  0  0  0  0  0  0
    0.5600    0.1910    0.2910 O   0  0  0  0  0  0  0  0  0  0  0  0
    0.0540    1.1120   -0.6350 C   0  0  0  0  0  0  0  0  0  0  0  0
  1  2  1  0
  2  3  2  0
  2  4  1  0
  4  5  1  0
  5  6  1  0
  7  6  1  6
  7  8  1  0
  7 12  1  0
  7 41  1  0
  8  9  1  0
  9 10  1  0
 10 11  1  0
 12 11  1  1
 12 13  1  0
 13 14  1  0
 14 15  1  0
 15 16  1  0
 15 22  1  6
 16 17  1  1
 16 19  1  0
 17 18  1  0
 19 20  1  0
 20 21  1  0
 22 23  1  0
 23 24  1  0
 25 24  1  6
 25 26  1  0
 25 39  1  0
 26 27  1  6
 26 32  1  0
 27 28  1  0
 28 29  2  0
 28 30  2  0
 28 31  1  6
 32 33  1  0
 33 34  1  1
 33 38  1  0
 34 35  1  0
 35 36  1  0
 35 37  2  0
 39 38  1  1
 39 40  1  0
 40 41  1  0
M  END
