
     RDKit          3D

 41 43  0  0  0  0  0  0  0  0999 V2000
   -0.3390   -0.9860   -2.9530 C   0  0  0  0  0  0  0  0  0  0  0  0
   -1.5350   -0.2000   -3.3700 C   0  0  1  0  0  0  0  0  0  0  0  0
   -1.7520   -0.3180   -4.7360 O   0  0  0  0  0  0  0  0  0  0  0  0
   -2.7180   -0.6050   -2.4860 C   0  0  1  0  0  0  0  0  0  0  0  0
   -2.4640   -1.3820   -1.4340 O   0  0  0  0  0  0  0  0  0  0  0  0
   -2.9660   -1.0970   -0.2030 C   0  0  2  0  0  0  0  0  0  0  0  0
   -1.7330   -0.9380    0.7010 C   0  0  0  0  0  0  0  0  0  0  0  0
   -3.5160   -2.3130    0.2830 O   0  0  0  0  0  0  0  0  0  0  0  0
   -3.8810    0.0420   -0.0490 C   0  0  2  0  0  0  0  0  0  0  0  0
   -3.8270    0.5650    1.3700 C   0  0  0  0  0  0  0  0  0  0  0  0
   -4.4800   -0.1810    2.4170 C   0  0  0  0  0  0  0  0  0  0  0  0
   -5.9280   -0.0680    2.6570 C   0  0  0  0  0  0  0  0  0  0  0  0
   -6.8290    0.1660    1.5400 C   0  0  0  0  0  0  0  0  0  0  0  0
   -6.2850    0.7230    0.2640 C   0  0  0  0  0  0  0  0  0  0  0  0
   -5.3040   -0.1850   -0.4500 C   0  0  2  0  0  0  0  0  0  0  0  0
   -5.8170   -1.5810   -0.3150 C   0  0  0  0  0  0  0  0  0  0  0  0
   -5.4710    0.1170   -1.8100 O   0  0  0  0  0  0  0  0  0  0  0  0
   -3.3450    1.2120   -0.8720 C   0  0  0  0  0  0  0  0  0  0  0  0
   -2.9060    0.8570   -2.2500 C   0  0  1  0  0  0  0  0  0  0  0  0
   -1.6410    1.2130   -2.8300 C   0  0  1  0  0  0  0  0  0  0  0  0
   -0.4160    1.5370   -2.2470 N   0  0  0  0  0  0  0  0  0  0  0  0
    0.4940    2.5650   -2.5940 C   0  0  0  0  0  0  0  0  0  0  0  0
    0.0540    3.2250   -3.5760 O   0  0  0  0  0  0  0  0  0  0  0  0
    1.7590    2.8310   -1.9200 C   0  0  0  0  0  0  0  0  0  0  0  0
    1.9360    1.8840   -0.8680 O   0  0  0  0  0  0  0  0  0  0  0  0
    3.0380    1.8940   -0.0450 C   0  0  0  0  0  0  0  0  0  0  0  0
    3.9040    2.7800   -0.2450 O   0  0  0  0  0  0  0  0  0  0  0  0
    3.2460    0.9400    1.0320 C   0  0  0  0  0  0  0  0  0  0  0  0
    2.4290    0.0110    1.2930 O   0  0  0  0  0  0  0  0  0  0  0  0
    4.4040    0.9970    1.8730 N   0  0  0  0  0  0  0  0  0  0  0  0
    4.6670    0.1240    2.9090 N   0  0  0  0  0  0  0  0  0  0  0  0
    5.4330   -1.3290    2.4600 S   0  0  2  0  0  0  0  0  0  0  0  0
    5.0610   -1.6370    1.0360 O   0  0  0  0  0  0  0  0  0  0  0  0
    4.9790   -2.4780    3.3160 O   0  0  0  0  0  0  0  0  0  0  0  0
    7.1960   -1.1910    2.6460 C   0  0  0  0  0  0  0  0  0  0  0  0
    7.7340   -0.0830    1.7850 C   0  0  2  0  0  0  0  0  0  0  0  0
    7.4470   -0.3260    0.4240 O   0  0  0  0  0  0  0  0  0  0  0  0
    9.2170    0.0440    1.9610 C   0  0  0  0  0  0  0  0  0  0  0  0
    9.9500   -1.1530    1.5740 C   0  0  0  0  0  0  0  0  0  0  0  0
    9.4140   -2.1440    1.0860 O   0  0  0  0  0  0  0  0  0  0  0  0
   11.3370   -1.1920    1.7610 O   0  0  0  0  0  0  0  0  0  0  0  0
  2  1  1  1
  2  3  1  0
  2  4  1  0
  2 20  1  0
  4  5  1  1
  4 19  1  0
  5  6  1  0
  6  7  1  1
  6  8  1  0
  6  9  1  0
  9 10  1  1
  9 15  1  0
  9 18  1  0
 10 11  1  0
 11 12  1  0
 12 13  1  0
 13 14  1  0
 14 15  1  0
 15 16  1  6
 15 17  1  0
 19 18  1  1
 19 20  1  0
 20 21  1  1
 21 22  1  0
 22 23  2  0
 22 24  1  0
 24 25  1  0
 25 26  1  0
 26 27  2  0
 26 28  1  0
 28 29  2  0
 28 30  1  0
 30 31  1  0
 31 32  1  0
 32 33  2  0
 32 34  2  0
 32 35  1  6
 35 36  1  0
 36 37  1  6
 36 38  1  0
 38 39  1  0
 39 40  2  0
 39 41  1  0
M  END
