
     RDKit          3D

 42 44  0  0  0  0  0  0  0  0999 V2000
   -1.3900    3.9300   -1.9010 C   0  0  0  0  0  0  0  0  0  0  0  0
   -1.0670    2.6000   -1.1890 C   0  0  1  0  0  0  0  0  0  0  0  0
    0.2260    2.7220   -0.7190 O   0  0  0  0  0  0  0  0  0  0  0  0
    1.3950    2.5570   -1.3820 C   0  0  0  0  0  0  0  0  0  0  0  0
    2.3750    3.3210   -1.0760 O   0  0  0  0  0  0  0  0  0  0  0  0
    1.6000    1.5410   -2.4420 C   0  0  0  0  0  0  0  0  0  0  0  0
    2.9190    1.2640   -2.7240 O   0  0  0  0  0  0  0  0  0  0  0  0
    3.8040    0.3900   -2.1960 C   0  0  0  0  0  0  0  0  0  0  0  0
    4.4060   -0.5270   -2.8080 O   0  0  0  0  0  0  0  0  0  0  0  0
    4.1310    0.4830   -0.7520 C   0  0  2  0  0  0  0  0  0  0  0  0
    5.3090    1.3260   -0.6620 N   0  0  0  0  0  0  0  0  0  0  0  0
    6.3800    0.8830    0.1540 C   0  0  0  0  0  0  0  0  0  0  0  0
    7.5800    1.1630   -0.1550 O   0  0  0  0  0  0  0  0  0  0  0  0
    6.0580    0.0940    1.3630 C   0  0  0  0  0  0  0  0  0  0  0  0
    4.9850   -0.9230    1.1560 C   0  0  0  0  0  0  0  0  0  0  0  0
    4.3940   -0.8940   -0.2120 C   0  0  1  0  0  0  0  0  0  0  0  0
    3.2230   -1.6160   -0.3000 O   0  0  0  0  0  0  0  0  0  0  0  0
    3.1660   -2.7470    0.4730 C   0  0  0  0  0  0  0  0  0  0  0  0
    1.7260   -3.2050    0.5480 C   0  0  1  0  0  0  0  0  0  0  0  0
    1.5880   -4.3840    1.2540 O   0  0  0  0  0  0  0  0  0  0  0  0
    0.8380   -2.1570    1.1820 C   0  0  2  0  0  0  0  0  0  0  0  0
    1.4110   -1.6230    2.3300 O   0  0  0  0  0  0  0  0  0  0  0  0
   -0.4790   -2.6940    1.3800 N   0  0  0  0  0  0  0  0  0  0  0  0
   -1.5350   -2.0940    2.1110 C   0  0  0  0  0  0  0  0  0  0  0  0
   -2.1150   -2.9000    2.9420 O   0  0  0  0  0  0  0  0  0  0  0  0
   -2.0000   -0.7700    2.0320 N   0  0  0  0  0  0  0  0  0  0  0  0
   -2.3880   -0.0150    0.8670 C   0  0  2  0  0  0  0  0  0  0  0  0
   -3.9200    0.0950    0.9850 C   0  0  0  0  0  0  0  0  0  0  0  0
   -4.4670   -0.9030    0.2450 O   0  0  0  0  0  0  0  0  0  0  0  0
   -3.6060   -1.3400   -0.7050 C   0  0  2  0  0  0  0  0  0  0  0  0
   -4.1440   -0.8700   -2.0650 C   0  0  0  0  0  0  0  0  0  0  0  0
   -5.4050   -1.4020   -2.2760 O   0  0  0  0  0  0  0  0  0  0  0  0
   -3.5440   -2.8610   -0.8330 C   0  0  0  0  0  0  0  0  0  0  0  0
   -5.1820   -3.5210   -1.2670 S   0  0  0  0  0  0  0  0  0  0  0  0
   -6.2130   -3.2260    0.0690 O   0  0  0  0  0  0  0  0  0  0  0  0
   -2.2590   -0.7390   -0.3980 C   0  0  0  0  0  0  0  0  0  0  0  0
   -1.8060    1.3700    0.9340 C   0  0  1  0  0  0  0  0  0  0  0  0
   -0.3950    1.4600    1.4280 C   0  0  0  0  0  0  0  0  0  0  0  0
   -0.2040    0.9750    2.7180 O   0  0  0  0  0  0  0  0  0  0  0  0
   -2.1300    2.2630   -0.2010 C   0  0  1  0  0  0  0  0  0  0  0  0
   -2.7690    3.5770    0.2880 C   0  0  0  0  0  0  0  0  0  0  0  0
   -1.8260    4.4000    0.8910 O   0  0  0  0  0  0  0  0  0  0  0  0
  2  1  1  1
  2  3  1  0
  2 40  1  0
  3  4  1  0
  4  5  2  0
  4  6  1  0
  6  7  1  0
  7  8  1  0
  8  9  2  0
  8 10  1  0
 10 11  1  6
 10 16  1  0
 11 12  1  0
 12 13  2  0
 12 14  1  0
 14 15  1  0
 16 15  1  1
 16 17  1  0
 17 18  1  0
 18 19  1  0
 19 20  1  1
 19 21  1  0
 21 22  1  1
 21 23  1  0
 23 24  1  0
 24 25  2  0
 24 26  1  0
 26 27  1  0
 27 28  1  1
 27 36  1  0
 27 37  1  0
 28 29  1  0
 29 30  1  0
 30 31  1  6
 30 33  1  0
 30 36  1  0
 31 32  1  0
 33 34  1  0
 34 35  1  0
 37 38  1  6
 37 40  1  0
 38 39  1  0
 40 41  1  1
 41 42  1  0
M  END
