
     RDKit          3D

 29 32  0  0  0  0  0  0  0  0999 V2000
    7.9070   -0.5650    0.0750 C   0  0  0  0  0  0  0  0  0  0  0  0
    6.8110   -1.3220   -0.4020 O   0  0  0  0  0  0  0  0  0  0  0  0
    5.5180   -0.8390   -0.3130 C   0  0  0  0  0  0  0  0  0  0  0  0
    4.4400   -1.5490   -0.7650 C   0  0  0  0  0  0  0  0  0  0  0  0
    3.1420   -1.0180   -0.6530 C   0  0  0  0  0  0  0  0  0  0  0  0
    2.8900    0.2100   -0.1000 C   0  0  0  0  0  0  0  0  0  0  0  0
    1.5860    0.7670    0.0980 C   0  0  0  0  0  0  0  0  0  0  0  0
    1.5550    1.6930    1.0460 O   0  0  0  0  0  0  0  0  0  0  0  0
    0.3620    0.5190   -0.5160 N   0  0  0  0  0  0  0  0  0  0  0  0
    0.1570   -0.3680   -1.6050 C   0  0  0  0  0  0  0  0  0  0  0  0
   -0.5230   -1.6030   -1.0100 C   0  0  0  0  0  0  0  0  0  0  0  0
   -1.7980   -1.1170   -0.3970 C   0  0  0  0  0  0  0  0  0  0  0  0
   -1.9680    0.1910    0.0600 C   0  0  0  0  0  0  0  0  0  0  0  0
   -3.2460    0.3030    0.5530 C   0  0  0  0  0  0  0  0  0  0  0  0
   -3.9790    1.4070    1.1460 C   0  0  0  0  0  0  0  0  0  0  0  0
   -5.2730    1.3080    1.5880 N   0  0  0  0  0  0  0  0  0  0  0  0
   -5.7110    2.4590    2.0730 C   0  0  0  0  0  0  0  0  0  0  0  0
   -4.7270    3.3400    1.9650 N   0  0  0  0  0  0  0  0  0  0  0  0
   -3.6590    2.7050    1.3970 C   0  0  0  0  0  0  0  0  0  0  0  0
   -2.4650    3.3660    1.1410 N   0  0  0  0  0  0  0  0  0  0  0  0
   -3.7870   -0.9460    0.3700 N   0  0  0  0  0  0  0  0  0  0  0  0
   -2.9300   -1.7660   -0.1860 N   0  0  0  0  0  0  0  0  0  0  0  0
   -3.2320   -3.1610   -0.5110 C   0  0  0  0  0  0  0  0  0  0  0  0
   -3.8500   -3.2920   -1.8850 C   0  0  0  0  0  0  0  0  0  0  0  0
   -3.0750   -2.8430   -2.9030 F   0  0  0  0  0  0  0  0  0  0  0  0
   -0.8800    1.1780   -0.0120 C   0  0  0  0  0  0  0  0  0  0  0  0
    4.0360    0.8950    0.3500 C   0  0  0  0  0  0  0  0  0  0  0  0
    3.7990    2.1550    0.9210 O   0  0  0  0  0  0  0  0  0  0  0  0
    5.3070    0.3980    0.2510 C   0  0  0  0  0  0  0  0  0  0  0  0
  1  2  1  0
  2  3  1  0
  3  4  2  0
  3 29  1  0
  4  5  1  0
  5  6  2  0
  6  7  1  0
  6 27  1  0
  7  8  2  0
  7  9  1  0
  9 10  1  0
  9 26  1  0
 10 11  1  0
 11 12  1  0
 12 13  2  0
 12 22  1  0
 13 14  1  0
 13 26  1  0
 14 15  1  0
 14 21  2  0
 15 16  1  0
 15 19  2  0
 16 17  2  0
 17 18  1  0
 18 19  1  0
 19 20  1  0
 21 22  1  0
 22 23  1  0
 23 24  1  0
 24 25  1  0
 27 28  1  0
 27 29  2  0
M  CHG  1  16   1
M  END
