
     RDKit          3D

 27 29  0  0  0  0  0  0  0  0999 V2000
   -5.2020    0.0920   -2.0390 C   0  0  0  0  0  0  0  0  0  0  0  0
   -4.3610   -0.7070   -1.0470 C   0  0  2  0  0  0  0  0  0  0  0  0
   -5.0490   -2.0580   -0.7870 C   0  0  0  0  0  0  0  0  0  0  0  0
   -4.1690   -0.0010    0.2040 N   0  0  0  0  0  0  0  0  0  0  0  0
   -3.1250   -0.3010    1.1160 C   0  0  0  0  0  0  0  0  0  0  0  0
   -1.7810   -1.5070    0.8800 S   0  0  0  0  0  0  0  0  0  0  0  0
   -0.2680   -0.6330    0.5390 C   0  0  0  0  0  0  0  0  0  0  0  0
   -0.3410    0.7380    0.2970 C   0  0  0  0  0  0  0  0  0  0  0  0
    0.7670    1.5000    0.0240 C   0  0  0  0  0  0  0  0  0  0  0  0
    2.0050    0.8620   -0.0060 C   0  0  0  0  0  0  0  0  0  0  0  0
    3.1370    1.6140   -0.2740 C   0  0  0  0  0  0  0  0  0  0  0  0
    3.0380    3.0100   -0.5370 N   0  0  0  0  0  0  0  0  0  0  0  0
    4.3640    0.9940   -0.2990 C   0  0  0  0  0  0  0  0  0  0  0  0
    4.3790   -0.3680   -0.0480 C   0  0  0  0  0  0  0  0  0  0  0  0
    5.6790   -1.0660   -0.0480 C   0  0  1  0  0  0  0  0  0  0  0  0
    6.2120   -1.1850   -1.4680 C   0  0  0  0  0  0  0  0  0  0  0  0
    6.7230   -0.2620    0.7210 C   0  0  0  0  0  0  0  0  0  0  0  0
    5.5130   -2.4130    0.5850 C   0  0  0  0  0  0  0  0  0  0  0  0
    3.2590   -1.0510    0.2040 N   0  0  0  0  0  0  0  0  0  0  0  0
    2.0510   -0.4570    0.2310 N   0  0  0  0  0  0  0  0  0  0  0  0
    0.9520   -1.2110    0.5000 C   0  0  0  0  0  0  0  0  0  0  0  0
    1.0510   -2.4510    0.7160 O   0  0  0  0  0  0  0  0  0  0  0  0
   -3.2510    0.4070    2.1850 N   0  0  0  0  0  0  0  0  0  0  0  0
   -4.3890    1.2850    2.1570 C   0  0  0  0  0  0  0  0  0  0  0  0
   -4.9410    1.0970    0.7700 C   0  0  2  0  0  0  0  0  0  0  0  0
   -6.4010    0.8210    0.9010 C   0  0  0  0  0  0  0  0  0  0  0  0
   -4.6550    2.2700    0.0640 O   0  0  0  0  0  0  0  0  0  0  0  0
  2  1  1  6
  2  3  1  0
  2  4  1  0
  4  5  1  0
  4 25  1  0
  5  6  1  0
  5 23  2  0
  6  7  1  0
  7  8  2  0
  7 21  1  0
  8  9  1  0
  9 10  2  0
 10 11  1  0
 10 20  1  0
 11 12  1  0
 11 13  2  0
 13 14  1  0
 14 15  1  0
 14 19  2  0
 15 16  1  6
 15 17  1  0
 15 18  1  0
 19 20  1  0
 20 21  1  0
 21 22  2  0
 23 24  1  0
 24 25  1  0
 25 26  1  1
 25 27  1  0
M  END
