
     RDKit          3D

 26 28  0  0  0  0  0  0  0  0999 V2000
    3.5620   -0.0230    3.6970 C   0  0  0  0  0  0  0  0  0  0  0  0
    2.7360    0.0390    2.4600 C   0  0  0  0  0  0  0  0  0  0  0  0
    3.1010   -0.5490    1.3440 C   0  0  0  0  0  0  0  0  0  0  0  0
    2.3030   -0.5040    0.1060 C   0  0  1  0  0  0  0  0  0  0  0  0
    3.1280    0.3420   -0.8790 C   0  0  1  0  0  0  0  0  0  0  0  0
    2.4360    0.4820   -2.2040 C   0  0  0  0  0  0  0  0  0  0  0  0
    3.4680    1.6740   -0.2840 C   0  0  0  0  0  0  0  0  0  0  0  0
    2.0470   -1.8100   -0.4510 N   0  0  0  0  0  0  0  0  0  0  0  0
    1.3090   -2.8710    0.1120 C   0  0  0  0  0  0  0  0  0  0  0  0
    1.9180   -4.0030    0.2410 O   0  0  0  0  0  0  0  0  0  0  0  0
   -0.1030   -2.7760    0.5610 C   0  0  0  0  0  0  0  0  0  0  0  0
   -0.3040   -3.5330    1.5900 O   0  0  0  0  0  0  0  0  0  0  0  0
   -1.0940   -2.0480    0.0430 N   0  0  0  0  0  0  0  0  0  0  0  0
   -1.8900   -1.1700   -0.1690 C   0  0  0  0  0  0  0  0  0  0  0  0
   -2.8500   -1.3090   -1.2590 N   0  0  0  0  0  0  0  0  0  0  0  0
   -3.8220   -0.3290   -1.5670 C   0  0  0  0  0  0  0  0  0  0  0  0
   -4.7250   -0.5040   -2.6220 C   0  0  0  0  0  0  0  0  0  0  0  0
   -5.6810    0.4300   -2.9460 C   0  0  0  0  0  0  0  0  0  0  0  0
   -5.7600    1.5890   -2.2060 C   0  0  0  0  0  0  0  0  0  0  0  0
   -4.8770    1.7660   -1.1690 C   0  0  0  0  0  0  0  0  0  0  0  0
   -3.9180    0.8250   -0.8480 C   0  0  0  0  0  0  0  0  0  0  0  0
   -3.0270    1.0270    0.2140 N   0  0  0  0  0  0  0  0  0  0  0  0
   -2.0040    0.0710    0.5910 C   0  0  0  0  0  0  0  0  0  0  0  0
   -1.2590    0.4560    1.6020 C   0  0  0  0  0  0  0  0  0  0  0  0
    0.1030   -0.4200    2.3340 S   0  0  0  0  0  0  0  0  0  0  0  0
    1.4650    0.7970    2.5140 C   0  0  0  0  0  0  0  0  0  0  0  0
  1  2  1  0
  2  3  2  0
  2 26  1  0
  3  4  1  0
  4  5  1  0
  4  8  1  6
  5  6  1  6
  5  7  1  0
  8  9  1  0
  9 10  2  0
  9 11  1  0
 11 12  2  0
 11 13  1  0
 13 14  2  0
 14 15  1  0
 14 23  1  0
 15 16  1  0
 16 17  2  0
 16 21  1  0
 17 18  1  0
 18 19  2  0
 19 20  1  0
 20 21  2  0
 21 22  1  0
 22 23  1  0
 23 24  2  0
 24 25  1  0
 25 26  1  0
M  END
