
     RDKit          3D

 26 27  0  0  0  0  0  0  0  0999 V2000
   -1.8370   -3.9810   -0.0010 C   0  0  0  0  0  0  0  0  0  0  0  0
   -1.1310   -2.7860   -0.4500 C   0  0  0  0  0  0  0  0  0  0  0  0
   -1.3140   -1.5330   -0.0190 C   0  0  0  0  0  0  0  0  0  0  0  0
   -0.5350   -0.4570   -0.5630 N   0  0  0  0  0  0  0  0  0  0  0  0
    0.1630    0.4930    0.2350 C   0  0  2  0  0  0  0  0  0  0  0  0
    0.4910    1.7910   -0.3310 C   0  0  0  0  0  0  0  0  0  0  0  0
    0.0730    2.3400   -1.4520 C   0  0  0  0  0  0  0  0  0  0  0  0
   -0.8280    1.8610   -2.4710 C   0  0  0  0  0  0  0  0  0  0  0  0
   -2.1480    1.8100   -2.4550 C   0  0  0  0  0  0  0  0  0  0  0  0
   -3.0620    2.1940   -1.4750 N   0  0  0  0  0  0  0  0  0  0  0  0
   -3.2040    1.6840   -0.1240 C   0  0  0  0  0  0  0  0  0  0  0  0
   -3.7430    0.2790   -0.2330 C   0  0  0  0  0  0  0  0  0  0  0  0
   -3.3970   -0.5460    0.9050 C   0  0  0  0  0  0  0  0  0  0  0  0
   -2.3360   -1.3540    1.0220 C   0  0  0  0  0  0  0  0  0  0  0  0
   -2.2480   -2.1460    2.3060 C   0  0  0  0  0  0  0  0  0  0  0  0
    1.4340    2.5660    0.5350 C   0  0  0  0  0  0  0  0  0  0  0  0
    1.4170    4.0740    0.5010 C   0  0  0  0  0  0  0  0  0  0  0  0
    2.3010    2.0140    1.3390 C   0  0  0  0  0  0  0  0  0  0  0  0
    2.3940    0.6000    1.4320 N   0  0  0  0  0  0  0  0  0  0  0  0
    1.5010   -0.1330    0.6120 C   0  0  0  0  0  0  0  0  0  0  0  0
    1.7940   -1.2840    0.1940 N   0  0  0  0  0  0  0  0  0  0  0  0
    3.1690   -2.2180    0.4380 S   0  0  1  0  0  0  0  0  0  0  0  0
    3.7500   -2.0200    1.7980 O   0  0  0  0  0  0  0  0  0  0  0  0
    2.8390   -3.6890    0.2150 O   0  0  0  0  0  0  0  0  0  0  0  0
    4.4260   -1.7260   -0.7490 C   0  0  0  0  0  0  0  0  0  0  0  0
    4.7350   -0.2830   -0.5290 C   0  0  0  0  0  0  0  0  0  0  0  0
  1  2  1  0
  2  3  2  3
  3  4  1  0
  3 14  1  0
  5  4  1  6
  5  6  1  0
  5 20  1  0
  6  7  2  0
  6 16  1  0
  7  8  1  0
  8  9  2  0
  9 10  1  0
 10 11  1  0
 11 12  1  0
 12 13  1  0
 13 14  2  0
 14 15  1  0
 16 17  1  0
 16 18  2  0
 18 19  1  0
 19 20  1  0
 20 21  2  3
 21 22  1  0
 22 23  2  0
 22 24  2  0
 22 25  1  6
 25 26  1  0
M  END
