
     RDKit          3D

 27 29  0  0  0  0  0  0  0  0999 V2000
    4.1090    2.7610    0.0950 C   0  0  0  0  0  0  0  0  0  0  0  0
    3.5750    1.6470   -0.7550 C   0  0  2  0  0  0  0  0  0  0  0  0
    2.2760    1.9470   -1.3230 N   0  0  0  0  0  0  0  0  0  0  0  0
    1.5060    3.1000   -1.0570 C   0  0  0  0  0  0  0  0  0  0  0  0
    0.9930    3.7310   -2.0520 O   0  0  0  0  0  0  0  0  0  0  0  0
    1.2330    3.6480    0.2250 N   0  0  0  0  0  0  0  0  0  0  0  0
    0.7870    2.9170    1.3580 C   0  0  0  0  0  0  0  0  0  0  0  0
    1.3350    3.1810    2.4730 O   0  0  0  0  0  0  0  0  0  0  0  0
   -0.2170    1.9140    1.3710 N   0  0  0  0  0  0  0  0  0  0  0  0
   -0.5100    1.1180    0.2320 C   0  0  0  0  0  0  0  0  0  0  0  0
   -1.7560    0.2800    0.2860 C   0  0  2  0  0  0  0  0  0  0  0  0
   -1.4420   -1.1750    0.1390 C   0  0  0  0  0  0  0  0  0  0  0  0
   -1.3180   -1.7230   -1.2280 C   0  0  0  0  0  0  0  0  0  0  0  0
   -1.2330   -3.2050   -1.1670 C   0  0  0  0  0  0  0  0  0  0  0  0
   -0.2520   -3.9580   -0.7280 C   0  0  0  0  0  0  0  0  0  0  0  0
    1.0470   -3.6030   -0.1680 C   0  0  0  0  0  0  0  0  0  0  0  0
    1.9780   -2.8040   -0.9860 C   0  0  0  0  0  0  0  0  0  0  0  0
    2.6330   -1.7100   -0.1020 C   0  0  0  0  0  0  0  0  0  0  0  0
    2.9820   -1.9430    1.2470 C   0  0  0  0  0  0  0  0  0  0  0  0
    3.6650   -0.2410    1.5630 S   0  0  0  0  0  0  0  0  0  0  0  0
    3.4350    0.4560    0.0850 C   0  0  0  0  0  0  0  0  0  0  0  0
    2.8330   -0.6110   -0.6590 N   0  0  0  0  0  0  0  0  0  0  0  0
   -2.7250    0.8540   -0.7090 C   0  0  0  0  0  0  0  0  0  0  0  0
   -4.1670    0.7840   -0.2590 C   0  0  0  0  0  0  0  0  0  0  0  0
   -4.4480   -0.4150    0.6070 C   0  0  0  0  0  0  0  0  0  0  0  0
   -3.6000   -0.4280    1.7410 N   0  0  0  0  0  0  0  0  0  0  0  0
   -2.4200    0.4130    1.6540 C   0  0  0  0  0  0  0  0  0  0  0  0
  2  1  1  1
  2  3  1  0
  2 21  1  0
  3  4  1  0
  4  5  2  0
  4  6  1  0
  6  7  1  0
  7  8  2  0
  7  9  1  0
  9 10  1  0
 11 10  1  1
 11 12  1  0
 11 23  1  0
 11 27  1  0
 12 13  1  0
 13 14  1  0
 14 15  2  0
 15 16  1  0
 16 17  1  0
 17 18  1  0
 18 19  2  0
 18 22  1  0
 19 20  1  0
 20 21  1  0
 21 22  2  0
 23 24  1  0
 24 25  1  0
 25 26  1  0
 26 27  1  0
M  END
