
     RDKit          3D

 27 29  0  0  0  0  0  0  0  0999 V2000
   -3.9560   -4.2100   -0.5570 C   0  0  0  0  0  0  0  0  0  0  0  0
   -3.2770   -2.8730   -0.6950 C   0  0  0  0  0  0  0  0  0  0  0  0
   -3.3900   -2.1300   -1.9700 C   0  0  0  0  0  0  0  0  0  0  0  0
   -2.5910   -2.3570    0.2870 C   0  0  0  0  0  0  0  0  0  0  0  0
   -1.9440   -1.0660    0.1340 C   0  0  0  0  0  0  0  0  0  0  0  0
   -1.2220   -0.4640    1.0860 C   0  0  0  0  0  0  0  0  0  0  0  0
   -1.0920   -1.1460    2.3070 N   0  0  0  0  0  0  0  0  0  0  0  0
    0.0300   -1.6100    3.0240 C   0  0  0  0  0  0  0  0  0  0  0  0
    0.1410   -1.2030    4.2370 O   0  0  0  0  0  0  0  0  0  0  0  0
    1.0780   -2.4850    2.5890 N   0  0  0  0  0  0  0  0  0  0  0  0
    1.2880   -2.9720    1.3020 N   0  0  0  0  0  0  0  0  0  0  0  0
    1.6690   -2.3460    0.1200 C   0  0  0  0  0  0  0  0  0  0  0  0
    0.8370   -2.3820   -0.8550 O   0  0  0  0  0  0  0  0  0  0  0  0
    2.9490   -1.6230   -0.1720 C   0  0  0  0  0  0  0  0  0  0  0  0
    2.7010   -0.3730   -0.9330 C   0  0  0  0  0  0  0  0  0  0  0  0
    3.5140    0.8140   -0.5620 C   0  0  0  0  0  0  0  0  0  0  0  0
    3.9260    1.0010    1.1540 S   0  0  0  0  0  0  0  0  0  0  0  0
    2.6890    1.9070    2.1180 C   0  0  0  0  0  0  0  0  0  0  0  0
    1.4210    1.0350    2.1320 C   0  0  0  0  0  0  0  0  0  0  0  0
    0.4000    1.5060    1.1610 C   0  0  0  0  0  0  0  0  0  0  0  0
    0.4820    2.7410    0.5590 N   0  0  0  0  0  0  0  0  0  0  0  0
   -0.5600    2.8850   -0.2590 C   0  0  0  0  0  0  0  0  0  0  0  0
   -0.8390    4.0990   -1.1050 C   0  0  1  0  0  0  0  0  0  0  0  0
   -0.4940    5.4540   -0.5510 C   0  0  0  0  0  0  0  0  0  0  0  0
    0.3380    4.7890   -1.6500 C   0  0  0  0  0  0  0  0  0  0  0  0
   -1.2810    1.7740   -0.1760 N   0  0  0  0  0  0  0  0  0  0  0  0
   -0.7030    0.8750    0.7160 C   0  0  0  0  0  0  0  0  0  0  0  0
  1  2  1  0
  2  3  1  0
  2  4  2  3
  4  5  1  0
  5  6  2  3
  6  7  1  0
  6 27  1  0
  7  8  1  0
  8  9  2  0
  8 10  1  0
 10 11  1  0
 11 12  1  0
 12 13  2  0
 12 14  1  0
 14 15  1  0
 15 16  1  0
 16 17  1  0
 17 18  1  0
 18 19  1  0
 19 20  1  0
 20 21  1  0
 20 27  2  0
 21 22  2  0
 23 22  1  1
 22 26  1  0
 23 24  1  0
 23 25  1  0
 24 25  1  0
 26 27  1  0
M  END
