
     RDKit          3D

 33 34  0  0  0  0  0  0  0  0999 V2000
   -0.6190   -4.5140   -3.8110 C   0  0  0  0  0  0  0  0  0  0  0  0
   -0.5400   -3.1950   -3.3580 O   0  0  0  0  0  0  0  0  0  0  0  0
   -0.4140   -2.8180   -2.0280 C   0  0  0  0  0  0  0  0  0  0  0  0
   -0.3640   -3.7110   -1.1530 O   0  0  0  0  0  0  0  0  0  0  0  0
   -0.3430   -1.3700   -1.7070 C   0  0  0  0  0  0  0  0  0  0  0  0
   -0.2130   -1.1690   -0.2770 N   0  0  2  0  0  0  0  0  0  0  0  0
    0.4170   -2.2320    0.2560 O   0  0  0  0  0  0  0  0  0  0  0  0
   -1.5140   -1.0310    0.2940 C   0  0  0  0  0  0  0  0  0  0  0  0
   -1.9360    0.4270    0.3920 C   0  0  1  0  0  0  0  0  0  0  0  0
   -3.3490    0.5670    0.7170 C   0  0  0  0  0  0  0  0  0  0  0  0
   -4.2840   -0.4390    0.6460 C   0  0  0  0  0  0  0  0  0  0  0  0
   -5.5110    0.0870    1.0340 C   0  0  0  0  0  0  0  0  0  0  0  0
   -5.2350    1.4220    1.3250 C   0  0  0  0  0  0  0  0  0  0  0  0
   -6.2500    2.3570    1.7760 C   0  0  0  0  0  0  0  0  0  0  0  0
   -7.5910    1.9710    1.9490 N   0  0  0  0  0  0  0  0  0  0  0  0
   -5.9130    3.5380    2.0150 O   0  0  0  0  0  0  0  0  0  0  0  0
   -3.9470    1.6560    1.1230 O   0  0  0  0  0  0  0  0  0  0  0  0
   -1.0470    1.0420    1.3570 N   0  0  0  0  0  0  0  0  0  0  0  0
    0.3160    0.6250    1.2660 C   0  0  0  0  0  0  0  0  0  0  0  0
    1.1220    0.7790    2.1910 O   0  0  0  0  0  0  0  0  0  0  0  0
    0.6500   -0.0130   -0.0600 C   0  0  1  0  0  0  0  0  0  0  0  0
    2.0560   -0.4930   -0.1100 C   0  0  0  0  0  0  0  0  0  0  0  0
    3.0510    0.6240    0.0970 C   0  0  0  0  0  0  0  0  0  0  0  0
    2.6020    1.7380    0.2550 O   0  0  0  0  0  0  0  0  0  0  0  0
    4.3960    0.2890    0.0920 N   0  0  0  0  0  0  0  0  0  0  0  0
    5.5230    1.0650    0.2500 C   0  0  0  0  0  0  0  0  0  0  0  0
    5.7010    2.4500    0.4710 C   0  0  0  0  0  0  0  0  0  0  0  0
    7.1400    2.7970    0.5740 O   0  0  0  0  0  0  0  0  0  0  0  0
    4.9320    3.4680    0.6030 C   0  0  0  0  0  0  0  0  0  0  0  0
    5.5680    4.7150    0.8180 F   0  0  0  0  0  0  0  0  0  0  0  0
    6.6830    0.2920    0.1700 C   0  0  0  0  0  0  0  0  0  0  0  0
    6.5510   -1.0060   -0.0350 F   0  0  0  0  0  0  0  0  0  0  0  0
    7.8380    0.9070    0.3050 F   0  0  0  0  0  0  0  0  0  0  0  0
  1  2  1  0
  2  3  1  0
  3  4  2  0
  3  5  1  0
  5  6  1  0
  6  7  1  1
  6  8  1  0
  6 21  1  0
  8  9  1  0
  9 10  1  1
  9 18  1  0
 10 11  2  0
 10 17  1  0
 11 12  1  0
 12 13  2  0
 13 14  1  0
 13 17  1  0
 14 15  1  0
 14 16  2  0
 18 19  1  0
 19 20  2  0
 19 21  1  0
 21 22  1  1
 22 23  1  0
 23 24  2  0
 23 25  1  0
 25 26  1  0
 26 27  1  0
 26 31  2  3
 27 28  1  0
 27 29  2  3
 29 30  1  0
 31 32  1  0
 31 33  1  0
M  CHG  2   6   1   7  -1
M  END
