
     RDKit          3D

 33 35  0  0  0  0  0  0  0  0999 V2000
    2.8810    2.1550   -1.0020 O   0  0  0  0  0  0  0  0  0  0  0  0
    2.8660    0.9440   -0.7000 C   0  0  0  0  0  0  0  0  0  0  0  0
    3.9950    0.2880   -0.1630 N   0  0  0  0  0  0  0  0  0  0  0  0
    5.2430    0.8910    0.0930 C   0  0  0  0  0  0  0  0  0  0  0  0
    5.5510    2.2060   -0.1390 C   0  0  0  0  0  0  0  0  0  0  0  0
    6.8140    2.7290    0.1420 C   0  0  0  0  0  0  0  0  0  0  0  0
    7.0840    4.0210   -0.0970 F   0  0  0  0  0  0  0  0  0  0  0  0
    7.7460    1.8730    0.6650 C   0  0  0  0  0  0  0  0  0  0  0  0
    7.4850    0.5620    0.9120 C   0  0  0  0  0  0  0  0  0  0  0  0
    6.2210    0.0060    0.6380 C   0  0  0  0  0  0  0  0  0  0  0  0
    5.9730   -1.2430    0.8740 O   0  0  0  0  0  0  0  0  0  0  0  0
    5.7270   -2.4810    1.1070 C   0  0  2  0  0  0  0  0  0  0  0  0
    5.9640   -2.9070    2.4470 F   0  0  0  0  0  0  0  0  0  0  0  0
    6.5220   -3.4090    0.3710 F   0  0  0  0  0  0  0  0  0  0  0  0
    1.6270    0.2210   -0.9230 C   0  0  0  0  0  0  0  0  0  0  0  0
    1.5630   -0.9910   -0.6360 O   0  0  0  0  0  0  0  0  0  0  0  0
    0.5340    0.8660   -1.4460 O   0  0  0  0  0  0  0  0  0  0  0  0
   -0.6350    0.1910   -1.6590 C   0  0  0  0  0  0  0  0  0  0  0  0
   -0.8560   -0.4290   -2.8690 C   0  0  0  0  0  0  0  0  0  0  0  0
   -2.0160   -1.1120   -3.1110 C   0  0  0  0  0  0  0  0  0  0  0  0
   -2.9440   -1.1460   -2.0930 N   0  0  0  0  0  0  0  0  0  0  0  0
   -4.0880   -1.8480   -2.3980 O   0  0  0  0  0  0  0  0  0  0  0  0
   -2.7840   -0.5690   -0.9120 C   0  0  0  0  0  0  0  0  0  0  0  0
   -3.6950   -0.5680    0.1690 N   0  0  0  0  0  0  0  0  0  0  0  0
   -4.9580   -1.1590    0.2600 C   0  0  0  0  0  0  0  0  0  0  0  0
   -5.4510   -1.7940   -0.6690 O   0  0  0  0  0  0  0  0  0  0  0  0
   -5.8020   -1.0580    1.5010 C   0  0  1  0  0  0  0  0  0  0  0  0
   -5.2080   -0.3450    2.4970 O   0  0  0  0  0  0  0  0  0  0  0  0
   -5.5090    0.9330    2.4150 N   0  0  0  0  0  0  0  0  0  0  0  0
   -6.4430    1.1690    1.3710 C   0  0  0  0  0  0  0  0  0  0  0  0
   -7.0370   -0.2300    1.1600 C   0  0  1  0  0  0  0  0  0  0  0  0
   -7.4640   -0.4230   -0.1330 O   0  0  0  0  0  0  0  0  0  0  0  0
   -1.5760    0.1360   -0.6750 C   0  0  0  0  0  0  0  0  0  0  0  0
  1  2  2  0
  2  3  1  0
  2 15  1  0
  3  4  1  0
  4  5  2  0
  4 10  1  0
  5  6  1  0
  6  7  1  0
  6  8  2  0
  8  9  1  0
  9 10  2  0
 10 11  1  0
 11 12  1  0
 12 13  1  1
 12 14  1  0
 15 16  2  0
 15 17  1  0
 17 18  1  0
 18 19  2  0
 18 33  1  0
 19 20  1  0
 20 21  2  0
 21 22  1  0
 21 23  1  0
 23 24  1  0
 23 33  2  0
 24 25  1  0
 25 26  2  0
 27 25  1  6
 27 28  1  0
 27 31  1  0
 28 29  1  0
 29 30  1  0
 30 31  1  0
 31 32  1  6
M  CHG  2  21   1  22  -1
M  END
