
     RDKit          3D

 32 35  0  0  0  0  0  0  0  0999 V2000
   -6.5020   -1.8150    0.3510 C   0  0  0  0  0  0  0  0  0  0  0  0
   -6.8610   -0.4370    0.0880 N   0  0  0  0  0  0  0  0  0  0  0  0
   -8.0860    0.1150    0.1460 C   0  0  0  0  0  0  0  0  0  0  0  0
   -8.0080    1.4390   -0.1680 C   0  0  0  0  0  0  0  0  0  0  0  0
   -6.6710    1.7380   -0.4380 C   0  0  0  0  0  0  0  0  0  0  0  0
   -6.0190    2.8570   -0.7900 N   0  0  0  0  0  0  0  0  0  0  0  0
   -4.7010    2.8050   -0.9760 C   0  0  0  0  0  0  0  0  0  0  0  0
   -4.0500    1.6570   -0.8120 N   0  0  0  0  0  0  0  0  0  0  0  0
   -4.6410    0.5220   -0.4650 C   0  0  0  0  0  0  0  0  0  0  0  0
   -3.8730   -0.6170   -0.3190 O   0  0  0  0  0  0  0  0  0  0  0  0
   -2.4990   -0.6100   -0.5090 C   0  0  0  0  0  0  0  0  0  0  0  0
   -1.6630   -0.3220    0.5600 C   0  0  0  0  0  0  0  0  0  0  0  0
   -0.2670   -0.3080    0.3990 C   0  0  0  0  0  0  0  0  0  0  0  0
    0.3420   -0.5710   -0.7890 C   0  0  0  0  0  0  0  0  0  0  0  0
    1.7240   -0.5830   -1.0720 N   0  0  0  0  0  0  0  0  0  0  0  0
    2.7210   -0.3200   -0.0900 C   0  0  0  0  0  0  0  0  0  0  0  0
    2.4420   -0.0590    1.0910 O   0  0  0  0  0  0  0  0  0  0  0  0
    4.0930   -0.3470   -0.4380 N   0  0  0  0  0  0  0  0  0  0  0  0
    5.1650   -0.1050    0.4500 C   0  0  0  0  0  0  0  0  0  0  0  0
    5.0940    0.0490    1.7910 C   0  0  0  0  0  0  0  0  0  0  0  0
    6.2160    0.3000    2.5750 C   0  0  0  0  0  0  0  0  0  0  0  0
    7.4710    0.4050    2.0140 C   0  0  0  0  0  0  0  0  0  0  0  0
    7.5800    0.2530    0.6440 C   0  0  0  0  0  0  0  0  0  0  0  0
    8.9420    0.3640    0.0280 C   0  0  1  0  0  0  0  0  0  0  0  0
    8.9400    1.4040   -0.8630 F   0  0  0  0  0  0  0  0  0  0  0  0
    9.9130    0.4780    0.9870 F   0  0  0  0  0  0  0  0  0  0  0  0
    9.1020   -0.8090   -0.7210 F   0  0  0  0  0  0  0  0  0  0  0  0
    6.4580    0.0060   -0.1010 C   0  0  0  0  0  0  0  0  0  0  0  0
   -0.5290   -0.8590   -1.8530 C   0  0  0  0  0  0  0  0  0  0  0  0
    0.0160   -1.1320   -3.0720 F   0  0  0  0  0  0  0  0  0  0  0  0
   -1.8980   -0.8770   -1.7120 C   0  0  0  0  0  0  0  0  0  0  0  0
   -6.0030    0.5230   -0.2610 C   0  0  0  0  0  0  0  0  0  0  0  0
  1  2  1  0
  2  3  1  0
  2 32  1  0
  3  4  2  0
  4  5  1  0
  5  6  2  0
  5 32  1  0
  6  7  1  0
  7  8  2  0
  8  9  1  0
  9 10  1  0
  9 32  2  0
 10 11  1  0
 11 12  2  0
 11 31  1  0
 12 13  1  0
 13 14  2  0
 14 15  1  0
 14 29  1  0
 15 16  1  0
 16 17  2  0
 16 18  1  0
 18 19  1  0
 19 20  2  0
 19 28  1  0
 20 21  1  0
 21 22  2  0
 22 23  1  0
 23 24  1  0
 23 28  2  0
 24 25  1  6
 24 26  1  0
 24 27  1  0
 29 30  1  0
 29 31  2  0
M  END
