
     RDKit          3D

 33 36  0  0  0  0  0  0  0  0999 V2000
    7.1290   -0.7170   -3.9470 C   0  0  0  0  0  0  0  0  0  0  0  0
    6.4970   -0.2640   -2.8720 C   0  0  0  0  0  0  0  0  0  0  0  0
    5.6000    0.8420   -3.0430 C   0  0  0  0  0  0  0  0  0  0  0  0
    5.3000    1.7610   -4.5320 S   0  0  0  0  0  0  0  0  0  0  0  0
    4.0960    2.9250   -3.8700 C   0  0  0  0  0  0  0  0  0  0  0  0
    4.0180    2.5130   -2.5460 C   0  0  0  0  0  0  0  0  0  0  0  0
    4.7500    1.4880   -2.1150 C   0  0  0  0  0  0  0  0  0  0  0  0
    4.6830    0.9810   -0.6530 C   0  0  0  0  0  0  0  0  0  0  0  0
    3.8180   -0.2070   -0.6260 C   0  0  0  0  0  0  0  0  0  0  0  0
    4.2430   -1.5020   -0.4810 C   0  0  0  0  0  0  0  0  0  0  0  0
    3.3440   -2.5330   -0.4810 C   0  0  0  0  0  0  0  0  0  0  0  0
    1.9790   -2.3460   -0.6220 C   0  0  0  0  0  0  0  0  0  0  0  0
    1.0130   -3.4720   -0.6310 C   0  0  0  0  0  0  0  0  0  0  0  0
    0.6380   -3.7960    0.7980 C   0  0  0  0  0  0  0  0  0  0  0  0
    0.0440   -2.6820    1.4940 N   0  0  0  0  0  0  0  0  0  0  0  0
   -1.1670   -2.0300    1.0970 C   0  0  0  0  0  0  0  0  0  0  0  0
   -1.7090   -2.4920    0.0780 O   0  0  0  0  0  0  0  0  0  0  0  0
   -1.6900   -0.9300    1.8350 N   0  0  0  0  0  0  0  0  0  0  0  0
   -2.8740   -0.2690    1.4980 C   0  0  0  0  0  0  0  0  0  0  0  0
   -3.8280   -0.8640    0.6950 C   0  0  0  0  0  0  0  0  0  0  0  0
   -5.0610   -0.2740    0.4060 C   0  0  0  0  0  0  0  0  0  0  0  0
   -5.3190    0.9490    0.9530 C   0  0  0  0  0  0  0  0  0  0  0  0
   -4.4030    1.5840    1.7590 C   0  0  0  0  0  0  0  0  0  0  0  0
   -3.1770    0.9630    2.0250 C   0  0  0  0  0  0  0  0  0  0  0  0
   -2.2450    1.7090    2.8090 C   0  0  0  0  0  0  0  0  0  0  0  0
   -1.0510    1.3060    3.0280 O   0  0  0  0  0  0  0  0  0  0  0  0
   -2.5330    2.9770    3.4350 N   0  0  0  0  0  0  0  0  0  0  0  0
   -1.5310    3.6820    4.2190 C   0  0  0  0  0  0  0  0  0  0  0  0
   -6.6740    1.4110    0.5210 C   0  0  0  0  0  0  0  0  0  0  0  0
   -6.9650    0.5220   -0.6860 C   0  0  0  0  0  0  0  0  0  0  0  0
   -6.2170   -0.7590   -0.4230 C   0  0  0  0  0  0  0  0  0  0  0  0
    1.5800   -1.0280   -0.7660 C   0  0  0  0  0  0  0  0  0  0  0  0
    2.4570    0.0260   -0.7700 C   0  0  0  0  0  0  0  0  0  0  0  0
  1  2  2  0
  2  3  1  0
  3  4  1  0
  3  7  2  0
  4  5  1  0
  5  6  2  0
  6  7  1  0
  7  8  1  0
  8  9  1  0
  9 10  2  0
  9 33  1  0
 10 11  1  0
 11 12  2  0
 12 13  1  0
 12 32  1  0
 13 14  1  0
 14 15  1  0
 15 16  1  0
 16 17  2  0
 16 18  1  0
 18 19  1  0
 19 20  2  0
 19 24  1  0
 20 21  1  0
 21 22  2  0
 21 31  1  0
 22 23  1  0
 22 29  1  0
 23 24  2  0
 24 25  1  0
 25 26  2  0
 25 27  1  0
 27 28  1  0
 29 30  1  0
 30 31  1  0
 32 33  2  0
M  END
