
     RDKit          3D

 33 36  0  0  0  0  0  0  0  0999 V2000
   -8.3670   -2.5180   -1.7680 C   0  0  0  0  0  0  0  0  0  0  0  0
   -7.8220   -1.1860   -1.4030 C   0  0  0  0  0  0  0  0  0  0  0  0
   -8.1400   -0.1140   -2.2020 C   0  0  0  0  0  0  0  0  0  0  0  0
   -7.6620    1.1290   -1.9060 C   0  0  0  0  0  0  0  0  0  0  0  0
   -6.8510    1.3190   -0.7930 C   0  0  0  0  0  0  0  0  0  0  0  0
   -6.3950    2.7120   -0.5550 C   0  0  0  0  0  0  0  0  0  0  0  0
   -6.5190    0.2710    0.0200 C   0  0  0  0  0  0  0  0  0  0  0  0
   -5.6650    0.4360    1.1830 C   0  0  0  0  0  0  0  0  0  0  0  0
   -4.2210    0.5420    0.8530 C   0  0  0  0  0  0  0  0  0  0  0  0
   -3.5470    1.7390    0.8390 C   0  0  0  0  0  0  0  0  0  0  0  0
   -2.1860    1.8020    0.5110 C   0  0  0  0  0  0  0  0  0  0  0  0
   -1.4620    0.6700    0.1900 C   0  0  0  0  0  0  0  0  0  0  0  0
    0.2430    0.7670   -0.2150 S   0  0  1  0  0  0  0  0  0  0  0  0
    0.6200   -0.1760   -1.2960 O   0  0  0  0  0  0  0  0  0  0  0  0
    0.5120    2.1710   -0.7000 O   0  0  0  0  0  0  0  0  0  0  0  0
    1.2250    0.5490    1.1980 N   0  0  0  0  0  0  0  0  0  0  0  0
    1.9670   -0.6980    1.1270 C   0  0  0  0  0  0  0  0  0  0  0  0
    2.7900   -0.7980    2.4010 C   0  0  0  0  0  0  0  0  0  0  0  0
    3.7330    0.3500    2.5470 C   0  0  0  0  0  0  0  0  0  0  0  0
    4.6840    0.4280    1.4030 C   0  0  0  0  0  0  0  0  0  0  0  0
    5.5040   -0.8110    1.3040 C   0  0  0  0  0  0  0  0  0  0  0  0
    6.4750   -0.7420    0.1620 C   0  0  0  0  0  0  0  0  0  0  0  0
    6.1290   -1.1880   -1.0960 C   0  0  0  0  0  0  0  0  0  0  0  0
    7.0310   -1.1230   -2.1640 C   0  0  0  0  0  0  0  0  0  0  0  0
    8.3000   -0.6070   -1.9840 C   0  0  0  0  0  0  0  0  0  0  0  0
    9.3430   -0.4290   -2.8110 N   0  0  0  0  0  0  0  0  0  0  0  0
   10.3240    0.1130   -2.1050 N   0  0  0  0  0  0  0  0  0  0  0  0
    9.9470    0.2930   -0.8370 C   0  0  0  0  0  0  0  0  0  0  0  0
    8.6390   -0.1620   -0.7160 C   0  0  0  0  0  0  0  0  0  0  0  0
    7.7420   -0.2290    0.3330 C   0  0  0  0  0  0  0  0  0  0  0  0
   -2.1480   -0.5250    0.2070 C   0  0  0  0  0  0  0  0  0  0  0  0
   -3.4840   -0.6010    0.5270 C   0  0  0  0  0  0  0  0  0  0  0  0
   -7.0190   -0.9790   -0.3070 C   0  0  0  0  0  0  0  0  0  0  0  0
  1  2  1  0
  2  3  2  0
  2 33  1  0
  3  4  1  0
  4  5  2  0
  5  6  1  0
  5  7  1  0
  7  8  1  0
  7 33  2  0
  8  9  1  0
  9 10  2  0
  9 32  1  0
 10 11  1  0
 11 12  2  0
 12 13  1  0
 12 31  1  0
 13 14  2  0
 13 15  2  0
 13 16  1  1
 16 17  1  0
 17 18  1  0
 18 19  1  0
 19 20  1  0
 20 21  1  0
 21 22  1  0
 22 23  2  0
 22 30  1  0
 23 24  1  0
 24 25  2  0
 25 26  1  0
 25 29  1  0
 26 27  1  0
 27 28  2  0
 28 29  1  0
 29 30  2  0
 31 32  2  0
M  END
