
     RDKit          3D

 33 36  0  0  0  0  0  0  0  0999 V2000
    0.1260    0.7190   -3.3070 C   0  0  0  0  0  0  0  0  0  0  0  0
   -0.7370    0.4630   -2.1030 C   0  0  0  0  0  0  0  0  0  0  0  0
   -1.8590   -0.1770   -2.2780 C   0  0  0  0  0  0  0  0  0  0  0  0
   -2.7660   -0.4700   -1.1880 C   0  0  0  0  0  0  0  0  0  0  0  0
   -3.1800   -1.7950   -0.9820 C   0  0  0  0  0  0  0  0  0  0  0  0
   -4.0710   -2.1500   -0.0030 C   0  0  0  0  0  0  0  0  0  0  0  0
   -4.6200   -1.2100    0.8490 C   0  0  0  0  0  0  0  0  0  0  0  0
   -5.5650   -1.5860    1.8880 C   0  0  0  0  0  0  0  0  0  0  0  0
   -6.1280   -0.7480    2.7330 C   0  0  0  0  0  0  0  0  0  0  0  0
   -7.0330   -1.5090    3.6430 C   0  0  0  0  0  0  0  0  0  0  0  0
   -6.8890   -2.8710    3.1810 N   0  0  0  0  0  0  0  0  0  0  0  0
   -6.0630   -2.9150    2.1950 C   0  0  0  0  0  0  0  0  0  0  0  0
   -4.2190    0.0930    0.6530 C   0  0  0  0  0  0  0  0  0  0  0  0
   -3.3160    0.4650   -0.3370 C   0  0  0  0  0  0  0  0  0  0  0  0
   -0.3030    0.8850   -0.7580 C   0  0  1  0  0  0  0  0  0  0  0  0
    1.0220    0.2780   -0.5590 N   0  0  0  0  0  0  0  0  0  0  0  0
    1.3030   -0.5550    0.5440 C   0  0  0  0  0  0  0  0  0  0  0  0
    0.2940   -0.7170    1.3350 O   0  0  0  0  0  0  0  0  0  0  0  0
    2.5850   -1.2150    0.8460 C   0  0  0  0  0  0  0  0  0  0  0  0
    3.5970   -0.9540   -0.1060 N   0  0  0  0  0  0  0  0  0  0  0  0
    4.8960   -1.5520    0.1430 C   0  0  0  0  0  0  0  0  0  0  0  0
    5.1340   -2.3120    1.2690 C   0  0  0  0  0  0  0  0  0  0  0  0
    6.3620   -2.8860    1.5190 C   0  0  0  0  0  0  0  0  0  0  0  0
    7.3940   -2.7070    0.6300 C   0  0  0  0  0  0  0  0  0  0  0  0
    7.1380   -1.9420   -0.4930 C   0  0  0  0  0  0  0  0  0  0  0  0
    8.1580   -1.7350   -1.4210 O   0  0  0  0  0  0  0  0  0  0  0  0
    5.9050   -1.3590   -0.7560 C   0  0  0  0  0  0  0  0  0  0  0  0
   -0.1350    2.3640   -0.7640 C   0  0  0  0  0  0  0  0  0  0  0  0
    0.9050    3.0400   -1.4490 C   0  0  0  0  0  0  0  0  0  0  0  0
    0.9250    4.3680   -1.3580 C   0  0  0  0  0  0  0  0  0  0  0  0
   -0.0260    5.0100   -0.6330 C   0  0  0  0  0  0  0  0  0  0  0  0
   -0.2600    6.4320   -0.3530 C   0  0  0  0  0  0  0  0  0  0  0  0
   -1.0190    3.6290   -0.0370 S   0  0  0  0  0  0  0  0  0  0  0  0
  1  2  1  0
  2  3  2  3
  2 15  1  0
  3  4  1  0
  4  5  2  0
  4 14  1  0
  5  6  1  0
  6  7  2  0
  7  8  1  0
  7 13  1  0
  8  9  2  0
  8 12  1  0
  9 10  1  0
 10 11  1  0
 11 12  2  0
 13 14  2  0
 15 16  1  6
 15 28  1  0
 16 17  1  0
 17 18  2  0
 17 19  1  0
 19 20  1  0
 20 21  1  0
 21 22  2  0
 21 27  1  0
 22 23  1  0
 23 24  2  0
 24 25  1  0
 25 26  1  0
 25 27  2  0
 28 29  2  0
 28 33  1  0
 29 30  1  0
 30 31  2  0
 31 32  1  0
 31 33  1  0
M  END
