
     RDKit          3D

 33 35  0  0  0  0  0  0  0  0999 V2000
   -2.1530    0.6500    1.7000 C   0  0  0  0  0  0  0  0  0  0  0  0
   -2.8740    0.4290    0.3960 C   0  0  0  0  0  0  0  0  0  0  0  0
   -2.4430    0.7970   -0.7870 C   0  0  0  0  0  0  0  0  0  0  0  0
   -1.2190    1.4820   -1.1620 C   0  0  0  0  0  0  0  0  0  0  0  0
   -0.3510    1.8270   -0.3360 O   0  0  0  0  0  0  0  0  0  0  0  0
   -0.9610    1.7900   -2.5070 O   0  0  0  0  0  0  0  0  0  0  0  0
    0.2250    2.4420   -2.8250 C   0  0  0  0  0  0  0  0  0  0  0  0
    1.4550    1.6640   -2.5140 C   0  0  0  0  0  0  0  0  0  0  0  0
    2.5790    2.2090   -2.6750 O   0  0  0  0  0  0  0  0  0  0  0  0
    1.4500    0.3330   -2.0460 N   0  0  0  0  0  0  0  0  0  0  0  0
    2.6390   -0.3440   -1.7710 N   0  0  0  0  0  0  0  0  0  0  0  0
    3.5460    0.1100   -0.7540 C   0  0  0  0  0  0  0  0  0  0  0  0
    3.2100    1.1420   -0.1220 O   0  0  0  0  0  0  0  0  0  0  0  0
    4.7590   -0.5550   -0.4620 N   0  0  0  0  0  0  0  0  0  0  0  0
    5.6760   -0.1020    0.5620 C   0  0  2  0  0  0  0  0  0  0  0  0
    7.1150    0.0600    0.2290 C   0  0  0  0  0  0  0  0  0  0  0  0
    6.6550   -0.9810    1.2170 C   0  0  1  0  0  0  0  0  0  0  0  0
    7.0110   -0.7210    2.5450 O   0  0  0  0  0  0  0  0  0  0  0  0
    6.6970   -2.4280    0.7780 C   0  0  2  0  0  0  0  0  0  0  0  0
    5.4510   -2.9760    1.0240 F   0  0  0  0  0  0  0  0  0  0  0  0
    7.7010   -3.1000    1.4570 F   0  0  0  0  0  0  0  0  0  0  0  0
    6.9320   -2.5110   -0.5740 F   0  0  0  0  0  0  0  0  0  0  0  0
   -3.5030    0.3540   -1.7420 C   0  0  2  0  0  0  0  0  0  0  0  0
   -4.1180    1.6160   -2.3400 C   0  0  0  0  0  0  0  0  0  0  0  0
   -4.4910   -0.2620   -0.9270 N   0  0  0  0  0  0  0  0  0  0  0  0
   -5.6460   -0.8110   -1.4210 O   0  0  0  0  0  0  0  0  0  0  0  0
   -4.1620   -0.2390    0.3280 C   0  0  0  0  0  0  0  0  0  0  0  0
   -5.0020   -0.8110    1.4060 C   0  0  0  0  0  0  0  0  0  0  0  0
   -4.7630   -0.8470    2.7430 C   0  0  0  0  0  0  0  0  0  0  0  0
   -5.8580   -1.4950    3.3490 C   0  0  0  0  0  0  0  0  0  0  0  0
   -6.7040   -1.8150    2.3240 C   0  0  0  0  0  0  0  0  0  0  0  0
   -7.9420   -2.4840    2.4740 O   0  0  0  0  0  0  0  0  0  0  0  0
   -6.1690   -1.4020    1.2190 O   0  0  0  0  0  0  0  0  0  0  0  0
  1  2  1  0
  2  3  2  0
  2 27  1  0
  3  4  1  0
  3 23  1  0
  4  5  2  0
  4  6  1  0
  6  7  1  0
  7  8  1  0
  8  9  2  0
  8 10  1  0
 10 11  1  0
 11 12  1  0
 12 13  2  0
 12 14  1  0
 15 14  1  6
 15 16  1  0
 15 17  1  0
 16 17  1  0
 17 18  1  1
 17 19  1  0
 19 20  1  6
 19 21  1  0
 19 22  1  0
 23 24  1  1
 23 25  1  0
 25 26  1  0
 25 27  2  0
 27 28  1  0
 28 29  2  0
 28 33  1  0
 29 30  1  0
 30 31  2  0
 31 32  1  0
 31 33  1  0
M  CHG  2  25   1  26  -1
M  END
