
     RDKit          3D

 33 34  0  0  0  0  0  0  0  0999 V2000
    4.9040    0.2810   -1.1560 C   0  0  0  0  0  0  0  0  0  0  0  0
    5.0280   -0.5810   -0.1780 C   0  0  0  0  0  0  0  0  0  0  0  0
    6.0400   -1.5400   -0.3360 O   0  0  0  0  0  0  0  0  0  0  0  0
    4.1820   -0.5500    0.9880 C   0  0  0  0  0  0  0  0  0  0  0  0
    4.4510   -1.5170    1.9140 C   0  0  0  0  0  0  0  0  0  0  0  0
    3.7160   -1.6680    3.1690 C   0  0  1  0  0  0  0  0  0  0  0  0
    2.7180   -2.6130    2.9940 F   0  0  0  0  0  0  0  0  0  0  0  0
    4.6120   -2.1280    4.1490 F   0  0  0  0  0  0  0  0  0  0  0  0
    3.1800   -0.4790    3.6040 F   0  0  0  0  0  0  0  0  0  0  0  0
    3.1680    0.2700    1.3230 O   0  0  0  0  0  0  0  0  0  0  0  0
    1.7920    0.2050    1.1160 C   0  0  0  0  0  0  0  0  0  0  0  0
    1.2640    0.2510   -0.2570 C   0  0  1  0  0  0  0  0  0  0  0  0
    0.1420   -0.5920   -0.6350 C   0  0  0  0  0  0  0  0  0  0  0  0
   -1.0680   -0.1000   -0.8100 C   0  0  0  0  0  0  0  0  0  0  0  0
   -1.0850    1.3100   -0.5720 N   0  0  0  0  0  0  0  0  0  0  0  0
   -1.9680    2.2530   -1.1670 C   0  0  0  0  0  0  0  0  0  0  0  0
   -1.4080    3.5260   -1.4150 N   0  0  0  0  0  0  0  0  0  0  0  0
   -3.2260    1.9920   -1.4710 C   0  0  0  0  0  0  0  0  0  0  0  0
   -4.1340    0.8560   -1.3690 C   0  0  2  0  0  0  0  0  0  0  0  0
   -4.9070    0.8710   -0.0760 C   0  0  0  0  0  0  0  0  0  0  0  0
   -6.1430    1.1640   -0.0630 O   0  0  0  0  0  0  0  0  0  0  0  0
   -4.3300    0.5760    1.1460 O   0  0  0  0  0  0  0  0  0  0  0  0
   -5.0720    0.5960    2.3550 C   0  0  0  0  0  0  0  0  0  0  0  0
   -3.4700   -0.4770   -1.3840 C   0  0  0  0  0  0  0  0  0  0  0  0
   -2.2420   -0.9020   -1.1650 C   0  0  0  0  0  0  0  0  0  0  0  0
   -2.0990   -2.3520   -1.3400 C   0  0  0  0  0  0  0  0  0  0  0  0
   -3.1220   -3.0170   -1.6440 O   0  0  0  0  0  0  0  0  0  0  0  0
   -0.8230   -2.8940   -1.1530 N   0  0  0  0  0  0  0  0  0  0  0  0
    0.2520   -2.0620   -0.8170 C   0  0  0  0  0  0  0  0  0  0  0  0
    1.4240   -2.5220   -0.6420 O   0  0  0  0  0  0  0  0  0  0  0  0
    1.4840    1.4700   -1.0150 N   0  0  0  0  0  0  0  0  0  0  0  0
    2.0510    2.4500   -0.4940 O   0  0  0  0  0  0  0  0  0  0  0  0
    1.0200    1.4540   -2.3100 O   0  0  0  0  0  0  0  0  0  0  0  0
  1  2  2  0
  2  3  1  0
  2  4  1  0
  4  5  2  3
  4 10  1  0
  5  6  1  0
  6  7  1  6
  6  8  1  0
  6  9  1  0
 10 11  1  0
 12 11  1  1
 12 13  1  0
 12 31  1  0
 13 14  2  0
 13 29  1  0
 14 15  1  0
 14 25  1  0
 15 16  1  0
 16 17  1  0
 16 18  2  0
 18 19  1  0
 19 20  1  1
 19 24  1  0
 20 21  2  0
 20 22  1  0
 22 23  1  0
 24 25  2  0
 25 26  1  0
 26 27  2  0
 26 28  1  0
 28 29  1  0
 29 30  2  0
 31 32  2  0
 31 33  1  0
M  CHG  2  31   1  33  -1
M  END
