
     RDKit          3D

 32 35  0  0  0  0  0  0  0  0999 V2000
   -4.5190    3.4010    1.9600 C   0  0  0  0  0  0  0  0  0  0  0  0
   -5.3950    2.1910    1.9890 C   0  0  0  0  0  0  0  0  0  0  0  0
   -4.6210    0.9030    1.8460 C   0  0  0  0  0  0  0  0  0  0  0  0
   -3.8780    0.9000    0.5290 C   0  0  0  0  0  0  0  0  0  0  0  0
   -3.1050   -0.3560    0.3480 C   0  0  0  0  0  0  0  0  0  0  0  0
   -1.7740   -0.5710    0.4720 N   0  0  0  0  0  0  0  0  0  0  0  0
   -1.4950   -1.8620    0.2190 C   0  0  0  0  0  0  0  0  0  0  0  0
   -0.2260   -2.5080    0.2450 N   0  0  0  0  0  0  0  0  0  0  0  0
    0.9830   -1.7780    0.5570 C   0  0  0  0  0  0  0  0  0  0  0  0
    1.2070   -0.7350   -0.4860 C   0  0  0  0  0  0  0  0  0  0  0  0
    0.3930   -0.6510   -1.4020 O   0  0  0  0  0  0  0  0  0  0  0  0
    2.3200    0.1440   -0.4400 N   0  0  0  0  0  0  0  0  0  0  0  0
    2.6570    1.1640   -1.3380 C   0  0  0  0  0  0  0  0  0  0  0  0
    1.8210    1.5650   -2.3620 C   0  0  0  0  0  0  0  0  0  0  0  0
    2.2250    2.6320   -3.1810 C   0  0  0  0  0  0  0  0  0  0  0  0
    3.4170    3.2940   -3.0050 C   0  0  0  0  0  0  0  0  0  0  0  0
    4.2110    2.8530   -1.9710 C   0  0  0  0  0  0  0  0  0  0  0  0
    3.8720    1.8110   -1.1330 C   0  0  0  0  0  0  0  0  0  0  0  0
    4.7720    1.3740   -0.0940 C   0  0  0  0  0  0  0  0  0  0  0  0
    5.2010    2.3110    0.8360 C   0  0  0  0  0  0  0  0  0  0  0  0
    6.0800    2.0150    1.8470 C   0  0  0  0  0  0  0  0  0  0  0  0
    6.5650    0.7320    1.9540 C   0  0  0  0  0  0  0  0  0  0  0  0
    6.1530   -0.2140    1.0420 C   0  0  0  0  0  0  0  0  0  0  0  0
    6.6930   -1.5920    1.1830 C   0  0  0  0  0  0  0  0  0  0  0  0
    5.2700    0.1050    0.0350 C   0  0  0  0  0  0  0  0  0  0  0  0
   -2.6670   -2.5340   -0.0840 C   0  0  0  0  0  0  0  0  0  0  0  0
   -3.6670   -1.5910   -0.0020 C   0  0  0  0  0  0  0  0  0  0  0  0
   -5.0470   -2.0430   -0.2790 C   0  0  0  0  0  0  0  0  0  0  0  0
   -5.0420   -2.9450   -1.4660 C   0  0  0  0  0  0  0  0  0  0  0  0
   -4.2550   -4.2120   -1.1790 C   0  0  0  0  0  0  0  0  0  0  0  0
   -3.0050   -3.9040   -0.4390 C   0  0  0  0  0  0  0  0  0  0  0  0
   -2.2470   -4.8440   -0.1260 O   0  0  0  0  0  0  0  0  0  0  0  0
  1  2  1  0
  2  3  1  0
  3  4  1  0
  4  5  1  0
  5  6  1  0
  5 27  2  0
  6  7  1  0
  7  8  1  0
  7 26  2  0
  8  9  1  0
  9 10  1  0
 10 11  2  0
 10 12  1  0
 12 13  1  0
 13 14  2  0
 13 18  1  0
 14 15  1  0
 15 16  2  0
 16 17  1  0
 17 18  2  0
 18 19  1  0
 19 20  2  0
 19 25  1  0
 20 21  1  0
 21 22  2  0
 22 23  1  0
 23 24  1  0
 23 25  2  0
 26 27  1  0
 26 31  1  0
 27 28  1  0
 28 29  1  0
 29 30  1  0
 30 31  1  0
 31 32  2  0
M  END
