
     RDKit          3D

 18 19  0  0  0  0  0  0  0  0999 V2000
    1.5250   -2.2790    1.7660 C   0  0  0  0  0  0  0  0  0  0  0  0
    1.9330   -1.1600    0.9430 N   0  0  0  0  0  0  0  0  0  0  0  0
    2.6120   -1.3100   -0.2980 C   0  0  0  0  0  0  0  0  0  0  0  0
    2.8360   -2.4030   -0.9130 O   0  0  0  0  0  0  0  0  0  0  0  0
    3.0070   -0.0200   -0.7510 N   0  0  0  0  0  0  0  0  0  0  0  0
    3.5220    0.3050   -2.0520 C   0  0  0  0  0  0  0  0  0  0  0  0
    2.7850    0.8770    0.3600 C   0  0  1  0  0  0  0  0  0  0  0  0
    2.4400    2.2360   -0.0890 C   0  0  0  0  0  0  0  0  0  0  0  0
    0.6240    2.0960   -0.3290 S   0  0  0  0  0  0  0  0  0  0  0  0
    0.3890    0.6990    0.8290 C   0  0  1  0  0  0  0  0  0  0  0  0
   -0.4890   -0.3550    0.2390 C   0  0  0  0  0  0  0  0  0  0  0  0
   -1.8350    0.2660   -0.0690 C   0  0  0  0  0  0  0  0  0  0  0  0
   -2.7960   -0.6980   -0.6640 C   0  0  0  0  0  0  0  0  0  0  0  0
   -4.1340   -0.1130   -0.9830 C   0  0  0  0  0  0  0  0  0  0  0  0
   -4.8770    0.4100    0.1760 C   0  0  0  0  0  0  0  0  0  0  0  0
   -4.4370    0.3210    1.3340 O   0  0  0  0  0  0  0  0  0  0  0  0
   -6.1160    1.0280   -0.0400 O   0  0  0  0  0  0  0  0  0  0  0  0
    1.7440    0.2730    1.2040 C   0  0  1  0  0  0  0  0  0  0  0  0
  1  2  1  0
  2  3  1  0
 18  2  1  6
  3  4  2  0
  3  5  1  0
  5  6  1  0
  5  7  1  0
  7  8  1  6
  7 18  1  0
  8  9  1  0
  9 10  1  0
 10 11  1  6
 10 18  1  0
 11 12  1  0
 12 13  1  0
 13 14  1  0
 14 15  1  0
 15 16  2  0
 15 17  1  0
M  END
