
     RDKit          3D

 12 12  0  0  0  0  0  0  0  0999 V2000
   -0.0530    2.0810    1.1800 O   0  0  0  0  0  0  0  0  0  0  0  0
    0.3860    1.0440    0.5900 C   0  0  0  0  0  0  0  0  0  0  0  0
    1.7800    0.6610    0.3590 C   0  0  0  0  0  0  0  0  0  0  0  0
    1.7800   -0.5040   -0.2980 C   0  0  0  0  0  0  0  0  0  0  0  0
    3.2010   -1.3960   -0.8160 Cl  0  0  0  0  0  0  0  0  0  0  0  0
    0.3790   -0.8940   -0.5030 C   0  0  0  0  0  0  0  0  0  0  0  0
   -0.1460   -2.3520   -1.3200 Cl  0  0  0  0  0  0  0  0  0  0  0  0
   -0.4310   -0.0080    0.0050 C   0  0  0  0  0  0  0  0  0  0  0  0
   -1.9250   -0.0160    0.0170 C   0  0  2  0  0  0  0  0  0  0  0  0
   -2.4650    1.4550   -0.8490 Cl  0  0  0  0  0  0  0  0  0  0  0  0
   -2.5440    0.1240    1.6900 Cl  0  0  0  0  0  0  0  0  0  0  0  0
   -2.6040   -1.4360   -0.7300 Cl  0  0  0  0  0  0  0  0  0  0  0  0
  1  2  2  0
  2  3  1  0
  2  8  1  0
  3  4  2  0
  4  5  1  0
  4  6  1  0
  6  7  1  0
  6  8  2  0
  8  9  1  0
  9 10  1  6
  9 11  1  0
  9 12  1  0
M  END
