
     RDKit          3D

 23 25  0  0  0  0  0  0  0  0999 V2000
   -0.4300   -1.8360    1.7050 C   0  0  0  0  0  0  0  0  0  0  0  0
    0.0360   -0.5350    1.1560 C   0  0  1  0  0  0  0  0  0  0  0  0
    1.1940   -0.6400    0.2030 C   0  0  0  0  0  0  0  0  0  0  0  0
    2.4160   -1.2480    0.7990 C   0  0  0  0  0  0  0  0  0  0  0  0
    3.4520   -1.2920   -0.2100 N   0  0  0  0  0  0  0  0  0  0  0  0
    4.0050   -0.0680   -0.6580 C   0  0  0  0  0  0  0  0  0  0  0  0
    4.3190    0.1860   -1.9370 C   0  0  0  0  0  0  0  0  0  0  0  0
    4.8730    1.5600   -2.0490 C   0  0  0  0  0  0  0  0  0  0  0  0
    4.8370    2.0640   -0.6650 C   0  0  0  0  0  0  0  0  0  0  0  0
    4.3440    1.1290    0.0970 C   0  0  0  0  0  0  0  0  0  0  0  0
   -1.1350    0.1720    0.5200 C   0  0  2  0  0  0  0  0  0  0  0  0
   -2.1710    0.4130    1.5040 N   0  0  0  0  0  0  0  0  0  0  0  0
   -3.3880    1.0570    1.1390 C   0  0  0  0  0  0  0  0  0  0  0  0
   -3.5530    1.4360   -0.1350 N   0  0  0  0  0  0  0  0  0  0  0  0
   -4.6790    2.0460   -0.5290 C   0  0  0  0  0  0  0  0  0  0  0  0
   -5.6570    2.2650    0.4320 C   0  0  0  0  0  0  0  0  0  0  0  0
   -5.4570    1.8710    1.7020 N   0  0  0  0  0  0  0  0  0  0  0  0
   -4.3360    1.2720    2.0630 N   0  0  0  0  0  0  0  0  0  0  0  0
   -1.7400   -0.7060   -0.5430 C   0  0  0  0  0  0  0  0  0  0  0  0
   -2.5040   -1.7910   -0.3680 N   0  0  0  0  0  0  0  0  0  0  0  0
   -2.8550   -2.3080   -1.5420 C   0  0  0  0  0  0  0  0  0  0  0  0
   -2.2760   -1.4960   -2.4890 C   0  0  0  0  0  0  0  0  0  0  0  0
   -1.6030   -0.5290   -1.8640 N   0  0  0  0  0  0  0  0  0  0  0  0
  2  1  1  6
  2  3  1  0
  2 11  1  0
  3  4  1  0
  4  5  1  0
  5  6  1  0
  6  7  2  0
  6 10  1  0
  7  8  1  0
  8  9  1  0
  9 10  2  0
 11 12  1  1
 11 19  1  0
 12 13  1  0
 13 14  2  0
 13 18  1  0
 14 15  1  0
 15 16  2  0
 16 17  1  0
 17 18  2  0
 19 20  2  0
 19 23  1  0
 20 21  1  0
 21 22  2  0
 22 23  1  0
M  END
