
     RDKit          3D

 23 25  0  0  0  0  0  0  0  0999 V2000
   -1.9560   -3.0990    1.3800 C   0  0  0  0  0  0  0  0  0  0  0  0
   -2.1640   -1.6210    1.1920 C   0  0  2  0  0  0  0  0  0  0  0  0
   -3.6280   -1.3790    0.8890 C   0  0  0  0  0  0  0  0  0  0  0  0
   -3.8640    0.0860    0.6670 C   0  0  0  0  0  0  0  0  0  0  0  0
   -3.0480    0.6750   -0.4330 C   0  0  1  0  0  0  0  0  0  0  0  0
   -3.6370    0.3080   -1.7670 C   0  0  0  0  0  0  0  0  0  0  0  0
   -3.1410    2.1930   -0.3110 C   0  0  0  0  0  0  0  0  0  0  0  0
   -1.5990    0.3000   -0.3020 C   0  0  2  0  0  0  0  0  0  0  0  0
   -1.0270    1.0590    0.7950 N   0  0  0  0  0  0  0  0  0  0  0  0
   -0.8140    0.6590   -1.5430 C   0  0  0  0  0  0  0  0  0  0  0  0
    0.6000    0.2540   -1.3270 C   0  0  0  0  0  0  0  0  0  0  0  0
    1.0780   -0.9590   -1.6530 N   0  0  0  0  0  0  0  0  0  0  0  0
    2.3420   -0.9770   -1.3310 N   0  0  0  0  0  0  0  0  0  0  0  0
    2.7060    0.2020   -0.7990 C   0  0  0  0  0  0  0  0  0  0  0  0
    4.0570    0.5330   -0.3250 C   0  0  0  0  0  0  0  0  0  0  0  0
    5.1420   -0.2540   -0.3360 N   0  0  0  0  0  0  0  0  0  0  0  0
    6.1840    0.3690    0.1660 N   0  0  0  0  0  0  0  0  0  0  0  0
    7.5190   -0.1790    0.3090 C   0  0  0  0  0  0  0  0  0  0  0  0
    5.7820    1.6070    0.5210 C   0  0  0  0  0  0  0  0  0  0  0  0
    6.5020    2.5200    1.0470 O   0  0  0  0  0  0  0  0  0  0  0  0
    4.4670    1.6960    0.2130 N   0  0  0  0  0  0  0  0  0  0  0  0
    1.6220    0.9580   -0.8000 N   0  0  0  0  0  0  0  0  0  0  0  0
   -1.3800   -1.1570   -0.0190 C   0  0  0  0  0  0  0  0  0  0  0  0
  2  1  1  6
  2  3  1  0
  2 23  1  0
  3  4  1  0
  4  5  1  0
  5  6  1  6
  5  7  1  0
  5  8  1  0
  8  9  1  1
  8 10  1  0
  8 23  1  0
 10 11  1  0
 11 12  2  0
 11 22  1  0
 12 13  1  0
 13 14  1  0
 14 15  1  0
 14 22  2  0
 15 16  2  0
 15 21  1  0
 16 17  1  0
 17 18  1  0
 17 19  1  0
 19 20  2  0
 19 21  1  0
M  CHG  1   9   1
M  END
