
     RDKit          3D

 23 25  0  0  0  0  0  0  0  0999 V2000
   -0.5180   -1.7710    1.8610 C   0  0  0  0  0  0  0  0  0  0  0  0
   -0.8040   -1.5820    0.3860 C   0  0  1  0  0  0  0  0  0  0  0  0
   -1.5900   -2.7110   -0.1970 C   0  0  0  0  0  0  0  0  0  0  0  0
   -3.0370   -2.7250    0.1590 C   0  0  0  0  0  0  0  0  0  0  0  0
   -3.6530   -1.4300   -0.3490 C   0  0  0  0  0  0  0  0  0  0  0  0
   -2.9460   -0.3190    0.3870 C   0  0  0  0  0  0  0  0  0  0  0  0
   -1.5240   -0.3400    0.2130 N   0  0  0  0  0  0  0  0  0  0  0  0
   -0.8170    0.8770   -0.1240 C   0  0  0  0  0  0  0  0  0  0  0  0
   -1.4850    2.1820   -0.0210 C   0  0  0  0  0  0  0  0  0  0  0  0
   -2.3620    2.5030    0.9360 N   0  0  0  0  0  0  0  0  0  0  0  0
   -2.9400    3.7330    0.9640 C   0  0  0  0  0  0  0  0  0  0  0  0
   -2.6410    4.6770    0.0160 C   0  0  0  0  0  0  0  0  0  0  0  0
   -1.7650    4.3620   -0.9440 N   0  0  0  0  0  0  0  0  0  0  0  0
   -1.1890    3.1400   -0.9750 C   0  0  0  0  0  0  0  0  0  0  0  0
   -0.2600    2.8210   -2.0020 N   0  0  0  0  0  0  0  0  0  0  0  0
    0.4050    0.8090   -0.5110 N   0  0  0  0  0  0  0  0  0  0  0  0
    1.1300   -0.3500   -0.6370 N   0  0  0  0  0  0  0  0  0  0  0  0
    2.5140   -0.3940   -1.0790 C   0  0  0  0  0  0  0  0  0  0  0  0
    3.4230   -0.2850    0.1040 C   0  0  0  0  0  0  0  0  0  0  0  0
    4.8700   -0.3320   -0.3670 C   0  0  0  0  0  0  0  0  0  0  0  0
    5.7840   -0.2300    0.7350 N   0  0  0  0  0  0  0  0  0  0  0  0
    0.5090   -1.5740   -0.3230 C   0  0  0  0  0  0  0  0  0  0  0  0
    1.0130   -2.6850   -0.6140 O   0  0  0  0  0  0  0  0  0  0  0  0
  2  1  1  1
  2  3  1  0
  2  7  1  0
  2 22  1  0
  3  4  1  0
  4  5  1  0
  5  6  1  0
  6  7  1  0
  7  8  1  0
  8  9  1  0
  8 16  2  0
  9 10  2  0
  9 14  1  0
 10 11  1  0
 11 12  2  0
 12 13  1  0
 13 14  2  0
 14 15  1  0
 16 17  1  0
 17 18  1  0
 17 22  1  0
 18 19  1  0
 19 20  1  0
 20 21  1  0
 22 23  2  0
M  CHG  1  21   1
M  END
