
     RDKit          3D

 23 25  0  0  0  0  0  0  0  0999 V2000
   -5.9190   -1.3390    1.2400 C   0  0  0  0  0  0  0  0  0  0  0  0
   -4.9800   -1.7980    0.1340 C   0  0  0  0  0  0  0  0  0  0  0  0
   -4.2600   -0.6490   -0.3440 N   0  0  0  0  0  0  0  0  0  0  0  0
   -4.9410    0.3920   -1.0760 C   0  0  0  0  0  0  0  0  0  0  0  0
   -4.0270    1.4620   -1.4280 N   0  0  0  0  0  0  0  0  0  0  0  0
   -3.1870    1.8370   -0.3280 C   0  0  1  0  0  0  0  0  0  0  0  0
   -3.9660    2.1350    0.9150 C   0  0  0  0  0  0  0  0  0  0  0  0
   -2.2770    0.6910   -0.0500 C   0  0  0  0  0  0  0  0  0  0  0  0
   -0.9980    0.5040    0.2270 N   0  0  0  0  0  0  0  0  0  0  0  0
   -0.7300   -0.8180    0.3890 C   0  0  0  0  0  0  0  0  0  0  0  0
    0.5790   -1.3940    0.7100 C   0  0  0  0  0  0  0  0  0  0  0  0
    0.7220   -2.6320    0.8220 O   0  0  0  0  0  0  0  0  0  0  0  0
    1.6790   -0.5250    0.8910 N   0  0  0  0  0  0  0  0  0  0  0  0
    2.9450   -1.0010    1.1950 N   0  0  0  0  0  0  0  0  0  0  0  0
    3.9140   -0.9420    0.3410 C   0  0  0  0  0  0  0  0  0  0  0  0
    3.5370   -0.3260   -0.9690 C   0  0  0  0  0  0  0  0  0  0  0  0
    4.7730    0.4420   -1.4520 C   0  0  0  0  0  0  0  0  0  0  0  0
    5.3820    1.1320   -0.2810 C   0  0  0  0  0  0  0  0  0  0  0  0
    6.6010    0.4790    0.2870 C   0  0  0  0  0  0  0  0  0  0  0  0
    6.4860   -1.0290    0.3510 C   0  0  0  0  0  0  0  0  0  0  0  0
    5.1740   -1.4540    0.7540 N   0  0  0  0  0  0  0  0  0  0  0  0
   -1.9130   -1.4500    0.1950 N   0  0  0  0  0  0  0  0  0  0  0  0
   -2.8740   -0.5650   -0.0730 C   0  0  0  0  0  0  0  0  0  0  0  0
  1  2  1  0
  2  3  1  0
  3  4  1  0
  3 23  1  0
  4  5  1  0
  5  6  1  0
  6  7  1  1
  6  8  1  0
  8  9  1  0
  8 23  2  0
  9 10  1  0
 10 11  1  0
 10 22  2  0
 11 12  2  0
 11 13  1  0
 13 14  1  0
 14 15  2  3
 15 16  1  0
 15 21  1  0
 16 17  1  0
 17 18  1  0
 18 19  1  0
 19 20  1  0
 20 21  1  0
 22 23  1  0
M  CHG  1   5   1
M  END
