
     RDKit          3D

 23 26  0  0  0  0  0  0  0  0999 V2000
   -1.7310   -2.7830   -1.2020 C   0  0  0  0  0  0  0  0  0  0  0  0
   -0.4250   -2.0350   -1.1630 C   0  0  0  0  0  0  0  0  0  0  0  0
    0.6190   -2.3580   -1.9240 N   0  0  0  0  0  0  0  0  0  0  0  0
    1.6470   -1.6390   -1.5880 N   0  0  0  0  0  0  0  0  0  0  0  0
    2.9720   -1.6730   -2.1940 C   0  0  0  0  0  0  0  0  0  0  0  0
    1.3300   -0.7740   -0.5620 C   0  0  0  0  0  0  0  0  0  0  0  0
    2.2510    0.1690   -0.0350 C   0  0  0  0  0  0  0  0  0  0  0  0
    3.5600   -0.0740    0.1580 C   0  0  0  0  0  0  0  0  0  0  0  0
    4.4120    1.0280    0.7200 C   0  0  0  0  0  0  0  0  0  0  0  0
    4.1300    2.2860    0.0940 N   0  0  0  0  0  0  0  0  0  0  0  0
    2.9980    2.2790   -0.6440 O   0  0  0  0  0  0  0  0  0  0  0  0
    1.9710    1.6470    0.1470 C   0  0  0  0  0  0  0  0  0  0  0  0
   -0.0310   -1.0470   -0.2880 C   0  0  0  0  0  0  0  0  0  0  0  0
   -0.8800   -0.2220    0.5730 C   0  0  0  0  0  0  0  0  0  0  0  0
   -0.4230    0.4670    1.6700 C   0  0  0  0  0  0  0  0  0  0  0  0
    0.7680    0.1330    2.3990 N   0  0  0  0  0  0  0  0  0  0  0  0
   -1.3470    1.3440    2.0310 N   0  0  0  0  0  0  0  0  0  0  0  0
   -2.4100    1.2490    1.2030 C   0  0  0  0  0  0  0  0  0  0  0  0
   -3.5530    2.0570    1.3580 N   0  0  0  0  0  0  0  0  0  0  0  0
   -2.1340    0.2750    0.2830 N   0  0  0  0  0  0  0  0  0  0  0  0
   -3.0010   -0.0390   -0.8250 C   0  0  2  0  0  0  0  0  0  0  0  0
   -4.2420    0.7230   -1.1300 C   0  0  0  0  0  0  0  0  0  0  0  0
   -4.2660   -0.7510   -0.7340 C   0  0  0  0  0  0  0  0  0  0  0  0
  1  2  1  0
  2  3  2  0
  2 13  1  0
  3  4  1  0
  4  5  1  0
  4  6  1  0
  6  7  1  0
  6 13  2  0
  7  8  2  0
  7 12  1  0
  8  9  1  0
  9 10  1  0
 10 11  1  0
 11 12  1  0
 13 14  1  0
 14 15  2  0
 14 20  1  0
 15 16  1  0
 15 17  1  0
 17 18  2  0
 18 19  1  0
 18 20  1  0
 21 20  1  1
 21 22  1  0
 21 23  1  0
 22 23  1  0
M  CHG  1  17   1
M  END
