
     RDKit          3D

 31 35  0  0  0  0  0  0  0  0999 V2000
   -4.3420    0.0740   -1.6360 C   0  0  0  0  0  0  0  0  0  0  0  0
   -4.3500   -0.2060   -0.0960 S   0  0  0  0  0  0  0  0  0  0  0  0
   -4.6880   -0.2490    1.4740 C   0  0  0  0  0  0  0  0  0  0  0  0
   -5.9530    0.6050   -0.1710 O   0  0  0  0  0  0  0  0  0  0  0  0
   -3.1350    0.7690    0.1700 N   0  0  0  0  0  0  0  0  0  0  0  0
   -1.9080    0.7810    0.0960 C   0  0  0  0  0  0  0  0  0  0  0  0
   -1.2300   -0.3580   -0.3490 C   0  0  0  0  0  0  0  0  0  0  0  0
    0.1320   -0.3410   -0.4320 C   0  0  0  0  0  0  0  0  0  0  0  0
    0.8530   -1.4360   -0.8640 C   0  0  0  0  0  0  0  0  0  0  0  0
    0.2370   -2.6050   -1.2330 C   0  0  0  0  0  0  0  0  0  0  0  0
    1.0450   -3.6380   -1.6490 C   0  0  0  0  0  0  0  0  0  0  0  0
    2.4370   -3.4850   -1.6870 C   0  0  0  0  0  0  0  0  0  0  0  0
    2.9960   -2.3110   -1.3120 N   0  0  0  0  0  0  0  0  0  0  0  0
    2.2340   -1.2860   -0.9020 C   0  0  0  0  0  0  0  0  0  0  0  0
    2.8500   -0.1410   -0.5410 N   0  0  0  0  0  0  0  0  0  0  0  0
    4.3110   -0.0270   -0.5980 C   0  0  0  0  0  0  0  0  0  0  0  0
    4.9200   -0.4540    0.7160 C   0  0  1  0  0  0  0  0  0  0  0  0
    6.4050   -0.3870    0.7970 C   0  0  0  0  0  0  0  0  0  0  0  0
    5.5180    0.5630    1.6300 C   0  0  0  0  0  0  0  0  0  0  0  0
    2.1590    0.9060   -0.1280 N   0  0  0  0  0  0  0  0  0  0  0  0
    0.8200    0.9050   -0.0400 C   0  0  0  0  0  0  0  0  0  0  0  0
    0.1430    2.0190    0.3950 C   0  0  0  0  0  0  0  0  0  0  0  0
    0.7690    3.1850    0.7630 C   0  0  0  0  0  0  0  0  0  0  0  0
    0.0530    4.2950    1.2000 C   0  0  0  0  0  0  0  0  0  0  0  0
   -1.3270    4.2090    1.2610 C   0  0  0  0  0  0  0  0  0  0  0  0
   -1.9530    3.0400    0.8910 C   0  0  0  0  0  0  0  0  0  0  0  0
   -1.2250    1.9250    0.4520 C   0  0  0  0  0  0  0  0  0  0  0  0
   -4.3850   -1.8460   -0.2390 C   0  0  2  0  0  0  0  0  0  0  0  0
   -3.6850   -2.5740    0.7360 F   0  0  0  0  0  0  0  0  0  0  0  0
   -4.0130   -2.4880   -1.4030 F   0  0  0  0  0  0  0  0  0  0  0  0
   -5.7170   -2.2640   -0.0340 F   0  0  0  0  0  0  0  0  0  0  0  0
  1  2  1  0
  2  3  1  0
  2  4  2  0
  2  5  1  0
  2 28  1  0
  5  6  2  3
  6  7  1  0
  6 27  1  0
  7  8  2  0
  8  9  1  0
  8 21  1  0
  9 10  2  0
  9 14  1  0
 10 11  1  0
 11 12  2  0
 12 13  1  0
 13 14  2  0
 14 15  1  0
 15 16  1  0
 15 20  1  0
 17 16  1  6
 17 18  1  0
 17 19  1  0
 18 19  1  0
 20 21  2  0
 21 22  1  0
 22 23  2  0
 22 27  1  0
 23 24  1  0
 24 25  2  0
 25 26  1  0
 26 27  2  0
 28 29  1  1
 28 30  1  0
 28 31  1  0
M  END
