
     RDKit          3D

 31 35  0  0  0  0  0  0  0  0999 V2000
    3.9920    2.2090   -0.6690 C   0  0  0  0  0  0  0  0  0  0  0  0
    3.7260    1.4210    0.5350 O   0  0  0  0  0  0  0  0  0  0  0  0
    4.1840    0.0840    0.4180 C   0  0  0  0  0  0  0  0  0  0  0  0
    5.5280   -0.1240    0.7420 C   0  0  0  0  0  0  0  0  0  0  0  0
    6.5840    0.7990    1.1570 C   0  0  0  0  0  0  0  0  0  0  0  0
    5.7480   -1.8710    0.4830 S   0  0  0  0  0  0  0  0  0  0  0  0
    4.0910   -2.1940   -0.0210 C   0  0  0  0  0  0  0  0  0  0  0  0
    3.4860   -3.3450   -0.3980 N   0  0  0  0  0  0  0  0  0  0  0  0
    2.1880   -3.3410   -0.7530 C   0  0  0  0  0  0  0  0  0  0  0  0
    1.5560   -2.1890   -0.7100 N   0  0  0  0  0  0  0  0  0  0  0  0
    2.0810   -1.0020   -0.3470 C   0  0  0  0  0  0  0  0  0  0  0  0
    1.2090    0.1120   -0.3340 N   0  0  0  0  0  0  0  0  0  0  0  0
    0.6660    0.9980   -1.3410 C   0  0  0  0  0  0  0  0  0  0  0  0
   -0.8020    1.1600   -0.8360 C   0  0  0  0  0  0  0  0  0  0  0  0
   -0.8720    0.6300    0.4530 N   0  0  0  0  0  0  0  0  0  0  0  0
   -1.4760   -0.6100    0.7500 C   0  0  0  0  0  0  0  0  0  0  0  0
   -2.7570   -0.8850    0.0820 C   0  0  0  0  0  0  0  0  0  0  0  0
   -2.9380   -1.9360   -0.7610 C   0  0  0  0  0  0  0  0  0  0  0  0
   -4.1870   -2.2460   -1.2960 C   0  0  0  0  0  0  0  0  0  0  0  0
   -5.2640   -1.4750   -0.9760 C   0  0  0  0  0  0  0  0  0  0  0  0
   -5.0540   -0.4090   -0.1180 C   0  0  0  0  0  0  0  0  0  0  0  0
   -6.1750    0.3760    0.1250 C   0  0  0  0  0  0  0  0  0  0  0  0
   -7.3810    0.1220   -0.3900 F   0  0  0  0  0  0  0  0  0  0  0  0
   -5.9920    1.4800    0.9360 C   0  0  0  0  0  0  0  0  0  0  0  0
   -7.0580    2.2880    1.1850 F   0  0  0  0  0  0  0  0  0  0  0  0
   -4.7730    1.8100    1.4920 C   0  0  0  0  0  0  0  0  0  0  0  0
   -4.6030    2.8730    2.2800 F   0  0  0  0  0  0  0  0  0  0  0  0
   -3.6760    1.0090    1.2350 C   0  0  0  0  0  0  0  0  0  0  0  0
   -3.8400   -0.0960    0.4210 C   0  0  0  0  0  0  0  0  0  0  0  0
    0.5330    0.6270    0.8900 C   0  0  0  0  0  0  0  0  0  0  0  0
    3.4430   -0.9530    0.0300 C   0  0  0  0  0  0  0  0  0  0  0  0
  1  2  1  0
  2  3  1  0
  3  4  2  0
  3 31  1  0
  4  5  1  0
  4  6  1  0
  6  7  1  0
  7  8  2  0
  7 31  1  0
  8  9  1  0
  9 10  2  0
 10 11  1  0
 11 12  1  0
 11 31  2  0
 12 13  1  0
 12 30  1  0
 13 14  1  0
 14 15  1  0
 15 16  1  0
 15 30  1  0
 16 17  1  0
 17 18  2  0
 17 29  1  0
 18 19  1  0
 19 20  2  0
 20 21  1  0
 21 22  2  0
 21 29  1  0
 22 23  1  0
 22 24  1  0
 24 25  1  0
 24 26  2  0
 26 27  1  0
 26 28  1  0
 28 29  2  0
M  END
