
     RDKit          3D

 31 33  0  0  0  0  0  0  0  0999 V2000
    7.7270    1.3690    1.2090 C   0  0  0  0  0  0  0  0  0  0  0  0
    7.3840    0.2460    0.5650 C   0  0  0  0  0  0  0  0  0  0  0  0
    6.7010   -0.8790    1.2680 C   0  0  2  0  0  0  0  0  0  0  0  0
    7.6730   -1.8000    1.6160 O   0  0  0  0  0  0  0  0  0  0  0  0
    5.6570   -1.4810    0.3280 C   0  0  0  0  0  0  0  0  0  0  0  0
    5.3140   -0.5040   -0.7180 C   0  0  0  0  0  0  0  0  0  0  0  0
    4.1680    0.1120   -0.8740 C   0  0  0  0  0  0  0  0  0  0  0  0
    3.0620   -0.1160    0.0160 C   0  0  0  0  0  0  0  0  0  0  0  0
    1.8900    0.4740   -0.0920 C   0  0  0  0  0  0  0  0  0  0  0  0
    1.6730    1.4330   -1.1880 C   0  0  0  0  0  0  0  0  0  0  0  0
    0.2680    1.8250   -1.4490 C   0  0  0  0  0  0  0  0  0  0  0  0
   -0.7060    1.6130   -0.3400 C   0  0  0  0  0  0  0  0  0  0  0  0
   -0.5790    0.2200    0.1980 C   0  0  1  0  0  0  0  0  0  0  0  0
   -0.5260   -0.8270   -0.8730 C   0  0  0  0  0  0  0  0  0  0  0  0
    0.8290    0.2010    0.8430 C   0  0  1  0  0  0  0  0  0  0  0  0
    0.7900   -1.2010    1.4160 C   0  0  0  0  0  0  0  0  0  0  0  0
   -0.6620   -1.3640    1.8990 C   0  0  0  0  0  0  0  0  0  0  0  0
   -1.3400   -0.1010    1.4070 C   0  0  2  0  0  0  0  0  0  0  0  0
   -2.8140   -0.1310    1.3750 C   0  0  2  0  0  0  0  0  0  0  0  0
   -3.3170   -0.4880    2.7560 C   0  0  0  0  0  0  0  0  0  0  0  0
   -3.4610   -0.9050    0.3070 C   0  0  0  0  0  0  0  0  0  0  0  0
   -4.9550   -0.9600    0.2710 C   0  0  0  0  0  0  0  0  0  0  0  0
   -5.6550    0.3410    0.1120 C   0  0  1  0  0  0  0  0  0  0  0  0
   -5.3150    1.1600    1.2380 O   0  0  0  0  0  0  0  0  0  0  0  0
   -5.2100    1.1340   -1.0710 C   0  0  0  0  0  0  0  0  0  0  0  0
   -5.3700    0.4920   -2.4030 C   0  0  0  0  0  0  0  0  0  0  0  0
   -7.1600    0.2140    0.0920 C   0  0  0  0  0  0  0  0  0  0  0  0
   -7.7300   -0.6300   -0.9810 C   0  0  0  0  0  0  0  0  0  0  0  0
    6.4260   -0.1960   -1.6990 C   0  0  0  0  0  0  0  0  0  0  0  0
    7.6940    0.1140   -0.8960 C   0  0  1  0  0  0  0  0  0  0  0  0
    8.1880    1.3210   -1.3730 O   0  0  0  0  0  0  0  0  0  0  0  0
  1  2  2  0
  2  3  1  0
  2 30  1  0
  3  4  1  6
  3  5  1  0
  5  6  1  0
  6  7  2  3
  6 29  1  0
  7  8  1  0
  8  9  2  3
  9 10  1  0
  9 15  1  0
 10 11  1  0
 11 12  1  0
 12 13  1  0
 13 14  1  6
 13 15  1  0
 13 18  1  0
 15 16  1  6
 16 17  1  0
 18 17  1  6
 18 19  1  0
 19 20  1  1
 19 21  1  0
 21 22  1  0
 22 23  1  0
 23 24  1  1
 23 25  1  0
 23 27  1  0
 25 26  1  0
 27 28  1  0
 29 30  1  0
 30 31  1  6
M  END
