
     RDKit          3D

 31 35  0  0  0  0  0  0  0  0999 V2000
    6.7560   -0.8970    1.4420 C   0  0  0  0  0  0  0  0  0  0  0  0
    5.6040   -0.2290    0.7880 C   0  0  0  0  0  0  0  0  0  0  0  0
    5.6270    0.4660   -0.3100 C   0  0  0  0  0  0  0  0  0  0  0  0
    4.4020    1.0900   -0.8760 C   0  0  0  0  0  0  0  0  0  0  0  0
    3.2110    0.7930   -0.1690 N   0  0  0  0  0  0  0  0  0  0  0  0
    2.7820   -0.5410   -0.3550 C   0  0  0  0  0  0  0  0  0  0  0  0
    1.7330   -0.9700    0.6470 C   0  0  0  0  0  0  0  0  0  0  0  0
    0.5730   -0.0640    0.4390 C   0  0  0  0  0  0  0  0  0  0  0  0
    0.8380    1.2370    0.0760 C   0  0  0  0  0  0  0  0  0  0  0  0
   -0.2620    2.0720   -0.1150 C   0  0  0  0  0  0  0  0  0  0  0  0
   -1.4880    1.5910    0.0550 N   0  0  0  0  0  0  0  0  0  0  0  0
   -1.7890    0.3100    0.4130 C   0  0  0  0  0  0  0  0  0  0  0  0
   -0.7260   -0.5020    0.6000 C   0  0  0  0  0  0  0  0  0  0  0  0
   -1.3220   -2.0920    1.0920 S   0  0  0  0  0  0  0  0  0  0  0  0
   -3.0710   -1.6380    0.9210 C   0  0  0  0  0  0  0  0  0  0  0  0
   -4.0000   -2.5370    1.1170 N   0  0  0  0  0  0  0  0  0  0  0  0
   -5.3950   -2.3110    1.0130 C   0  0  0  0  0  0  0  0  0  0  0  0
   -6.1910   -3.0700    1.6250 O   0  0  0  0  0  0  0  0  0  0  0  0
   -6.0550   -1.2370    0.2310 C   0  0  0  0  0  0  0  0  0  0  0  0
   -7.2850   -1.6370   -0.2320 C   0  0  0  0  0  0  0  0  0  0  0  0
   -8.0020   -0.7450   -0.9830 C   0  0  0  0  0  0  0  0  0  0  0  0
   -7.4730    0.5080   -1.2460 C   0  0  0  0  0  0  0  0  0  0  0  0
   -6.2350    0.8650   -0.7590 C   0  0  0  0  0  0  0  0  0  0  0  0
   -5.4690   -0.0240    0.0150 C   0  0  0  0  0  0  0  0  0  0  0  0
   -4.2480    0.5810    0.4120 C   0  0  0  0  0  0  0  0  0  0  0  0
   -3.0600   -0.2800    0.5820 N   0  0  0  0  0  0  0  0  0  0  0  0
    2.2000    1.7720   -0.1160 C   0  0  0  0  0  0  0  0  0  0  0  0
    6.8950    0.6640   -1.0540 C   0  0  2  0  0  0  0  0  0  0  0  0
    7.9500    0.0500   -0.4600 F   0  0  0  0  0  0  0  0  0  0  0  0
    7.0890    2.0190   -1.2400 F   0  0  0  0  0  0  0  0  0  0  0  0
    6.7490    0.1210   -2.3390 F   0  0  0  0  0  0  0  0  0  0  0  0
  1  2  1  0
  2  3  2  3
  3  4  1  0
  3 28  1  0
  4  5  1  0
  5  6  1  0
  5 27  1  0
  6  7  1  0
  7  8  1  0
  8  9  2  0
  8 13  1  0
  9 10  1  0
  9 27  1  0
 10 11  2  0
 11 12  1  0
 12 13  2  0
 12 26  1  0
 13 14  1  0
 14 15  1  0
 15 16  2  0
 15 26  1  0
 16 17  1  0
 17 18  2  0
 17 19  1  0
 19 20  2  0
 19 24  1  0
 20 21  1  0
 21 22  2  0
 22 23  1  0
 23 24  2  0
 24 25  1  0
 25 26  1  0
 28 29  1  1
 28 30  1  0
 28 31  1  0
M  END
