
     RDKit          3D

 23 24  0  0  0  0  0  0  0  0999 V2000
   -5.8650   -3.7360    0.9290 C   0  0  0  0  0  0  0  0  0  0  0  0
   -5.3420   -3.1310   -0.1250 C   0  0  0  0  0  0  0  0  0  0  0  0
   -3.8570   -2.8990   -0.1500 C   0  0  0  0  0  0  0  0  0  0  0  0
   -3.6950   -1.3700   -0.2570 C   0  0  0  0  0  0  0  0  0  0  0  0
   -2.2160   -1.0790   -0.2700 C   0  0  1  0  0  0  0  0  0  0  0  0
   -1.7090   -1.7410   -1.4110 O   0  0  0  0  0  0  0  0  0  0  0  0
   -1.9150    0.3470   -0.3550 C   0  0  0  0  0  0  0  0  0  0  0  0
   -2.9430    1.1660   -0.5140 C   0  0  0  0  0  0  0  0  0  0  0  0
   -2.9700    2.6140   -0.6330 C   0  0  0  0  0  0  0  0  0  0  0  0
   -1.9790    3.4980   -0.5490 C   0  0  0  0  0  0  0  0  0  0  0  0
   -0.5640    3.2590   -0.3100 C   0  0  0  0  0  0  0  0  0  0  0  0
    0.2560    4.4990   -0.1890 C   0  0  0  0  0  0  0  0  0  0  0  0
    0.0620    2.0960   -0.1840 C   0  0  0  0  0  0  0  0  0  0  0  0
   -0.4830    0.7410   -0.2520 C   0  0  0  0  0  0  0  0  0  0  0  0
    0.3920   -0.2350   -0.1540 C   0  0  0  0  0  0  0  0  0  0  0  0
    1.8300   -0.0560   -0.0520 C   0  0  0  0  0  0  0  0  0  0  0  0
    2.6540    0.6900   -0.8480 C   0  0  0  0  0  0  0  0  0  0  0  0
    3.9350    0.5400   -0.3430 C   0  0  0  0  0  0  0  0  0  0  0  0
    5.1900    1.1420   -0.8440 C   0  0  0  0  0  0  0  0  0  0  0  0
    3.8310   -0.2960    0.7460 C   0  0  0  0  0  0  0  0  0  0  0  0
    4.9270   -0.7750    1.6440 C   0  0  0  0  0  0  0  0  0  0  0  0
    5.7100   -1.8730    0.9910 C   0  0  0  0  0  0  0  0  0  0  0  0
    2.5830   -0.6220    0.8830 O   0  0  0  0  0  0  0  0  0  0  0  0
  1  2  2  0
  2  3  1  0
  3  4  1  0
  4  5  1  0
  5  6  1  6
  5  7  1  0
  7  8  2  0
  7 14  1  0
  8  9  1  0
  9 10  2  0
 10 11  1  0
 11 12  1  0
 11 13  2  0
 13 14  1  0
 14 15  2  3
 15 16  1  0
 16 17  2  0
 16 23  1  0
 17 18  1  0
 18 19  1  0
 18 20  2  0
 20 21  1  0
 20 23  1  0
 21 22  1  0
M  END
