
     RDKit          3D

 23 24  0  0  0  0  0  0  0  0999 V2000
    5.5060   -0.8110    1.9220 C   0  0  0  0  0  0  0  0  0  0  0  0
    5.5430   -0.3360    0.7460 C   0  0  0  0  0  0  0  0  0  0  0  0
    4.6820    0.0800   -0.2840 C   0  0  0  0  0  0  0  0  0  0  0  0
    3.2770    0.1910   -0.5090 C   0  0  0  0  0  0  0  0  0  0  0  0
    2.0930    0.1080   -0.2680 C   0  0  0  0  0  0  0  0  0  0  0  0
    2.5200   -0.5440    1.4320 C   0  0  0  0  0  0  0  0  0  0  0  0
    0.7400    0.0110    0.0880 C   0  0  0  0  0  0  0  0  0  0  0  0
   -0.1390   -0.1220   -0.9830 C   0  0  0  0  0  0  0  0  0  0  0  0
    0.4330   -0.1450   -2.1770 O   0  0  0  0  0  0  0  0  0  0  0  0
    0.1320   -0.5350   -3.4320 C   0  0  0  0  0  0  0  0  0  0  0  0
   -1.5480   -0.2060   -0.7000 C   0  0  0  0  0  0  0  0  0  0  0  0
   -2.4900   -0.6660   -1.5880 C   0  0  0  0  0  0  0  0  0  0  0  0
   -3.8450   -0.6740   -1.4080 C   0  0  0  0  0  0  0  0  0  0  0  0
   -4.3080   -0.1540   -0.1690 C   0  0  0  0  0  0  0  0  0  0  0  0
   -3.4270    0.3120    0.7490 C   0  0  0  0  0  0  0  0  0  0  0  0
   -2.0590    0.2990    0.5160 C   0  0  0  0  0  0  0  0  0  0  0  0
   -3.9280    0.9000    2.0210 C   0  0  2  0  0  0  0  0  0  0  0  0
   -2.9450    0.9560    2.9910 O   0  0  0  0  0  0  0  0  0  0  0  0
   -5.1470    0.1070    2.4150 C   0  0  0  0  0  0  0  0  0  0  0  0
   -6.1900    0.4380    1.3420 C   0  0  0  0  0  0  0  0  0  0  0  0
   -5.7600   -0.1770    0.0630 C   0  0  0  0  0  0  0  0  0  0  0  0
    5.3910    0.5240   -1.4100 C   0  0  0  0  0  0  0  0  0  0  0  0
    6.8350    0.5350   -1.4780 C   0  0  0  0  0  0  0  0  0  0  0  0
  1  2  2  0
  2  3  1  0
  3  4  1  0
  3 22  2  3
  4  5  2  3
  5  6  1  0
  5  7  1  0
  7  8  2  3
  8  9  1  0
  8 11  1  0
  9 10  1  0
 11 12  2  0
 11 16  1  0
 12 13  1  0
 13 14  2  0
 14 15  1  0
 14 21  1  0
 15 16  2  0
 15 17  1  0
 17 18  1  1
 17 19  1  0
 19 20  1  0
 20 21  1  0
 22 23  1  0
M  END
