
     RDKit          3D

 21 22  0  0  0  0  0  0  0  0999 V2000
    0.8400   -0.7610   -2.6240 N   0  0  0  0  0  0  0  0  0  0  0  0
   -0.2980   -1.1100   -1.8920 C   0  0  0  0  0  0  0  0  0  0  0  0
   -0.8630   -2.1940   -2.2630 O   0  0  0  0  0  0  0  0  0  0  0  0
   -0.8470   -0.3550   -0.8120 C   0  0  0  0  0  0  0  0  0  0  0  0
   -0.2480    0.7490   -0.3460 C   0  0  0  0  0  0  0  0  0  0  0  0
    0.9760    1.1570   -0.9350 O   0  0  0  0  0  0  0  0  0  0  0  0
    2.2280    0.9340   -0.3800 C   0  0  0  0  0  0  0  0  0  0  0  0
    2.6490   -0.4790   -0.0960 C   0  0  2  0  0  0  0  0  0  0  0  0
    1.8040   -1.1640    0.7350 O   0  0  0  0  0  0  0  0  0  0  0  0
    3.9780   -0.3310    0.7100 C   0  0  0  0  0  0  0  0  0  0  0  0
    4.5930   -1.9410    1.1170 Cl  0  0  0  0  0  0  0  0  0  0  0  0
   -0.8560    1.4920    0.7360 C   0  0  0  0  0  0  0  0  0  0  0  0
   -0.3180    2.6000    1.2000 C   0  0  0  0  0  0  0  0  0  0  0  0
   -1.0010    3.2380    2.2710 O   0  0  0  0  0  0  0  0  0  0  0  0
    0.8060    3.2370    0.7940 O   0  0  0  0  0  0  0  0  0  0  0  0
   -2.0770    1.0620    1.3260 O   0  0  0  0  0  0  0  0  0  0  0  0
   -2.7340   -0.0650    0.8980 C   0  0  0  0  0  0  0  0  0  0  0  0
   -3.8470   -0.6420    1.2840 N   0  0  0  0  0  0  0  0  0  0  0  0
   -4.0850   -1.8130    0.4900 C   0  0  0  0  0  0  0  0  0  0  0  0
   -2.9160   -1.8340   -0.4370 C   0  0  0  0  0  0  0  0  0  0  0  0
   -2.1270   -0.8020   -0.1910 C   0  0  0  0  0  0  0  0  0  0  0  0
  1  2  1  0
  2  3  2  0
  2  4  1  0
  4  5  2  0
  4 21  1  0
  5  6  1  0
  5 12  1  0
  6  7  1  0
  7  8  1  0
  8  9  1  1
  8 10  1  0
 10 11  1  0
 12 13  2  3
 12 16  1  0
 13 14  1  0
 13 15  1  0
 16 17  1  0
 17 18  2  0
 17 21  1  0
 18 19  1  0
 19 20  1  0
 20 21  2  0
M  CHG  1  18   1
M  END
