
     RDKit          3D

 21 22  0  0  0  0  0  0  0  0999 V2000
    0.9930   -0.4050   -2.3600 N   0  0  0  0  0  0  0  0  0  0  0  0
    1.1590    0.0350   -1.0100 C   0  0  1  0  0  0  0  0  0  0  0  0
    2.1290    1.1790   -0.8690 C   0  0  0  0  0  0  0  0  0  0  0  0
    3.3920    0.8910   -1.3050 O   0  0  0  0  0  0  0  0  0  0  0  0
    4.0080   -0.1530   -0.6530 C   0  0  0  0  0  0  0  0  0  0  0  0
    4.1730    0.0570    0.8130 C   0  0  2  0  0  0  0  0  0  0  0  0
    5.5970    0.1660    1.3110 C   0  0  0  0  0  0  0  0  0  0  0  0
    4.7870   -0.9500    1.5520 O   0  0  0  0  0  0  0  0  0  0  0  0
   -0.1730    0.4440   -0.4180 C   0  0  0  0  0  0  0  0  0  0  0  0
   -1.0910   -0.6330   -0.4140 O   0  0  0  0  0  0  0  0  0  0  0  0
   -2.3780   -0.5240    0.0730 C   0  0  0  0  0  0  0  0  0  0  0  0
   -2.8870    0.6410    0.6000 C   0  0  0  0  0  0  0  0  0  0  0  0
   -4.1900    0.7140    1.0810 C   0  0  0  0  0  0  0  0  0  0  0  0
   -4.6870    1.9320    1.6200 N   0  0  0  0  0  0  0  0  0  0  0  0
   -3.9740    2.9570    1.6730 O   0  0  0  0  0  0  0  0  0  0  0  0
   -5.9690    1.9960    2.0920 O   0  0  0  0  0  0  0  0  0  0  0  0
   -4.9950   -0.4020    1.0340 C   0  0  0  0  0  0  0  0  0  0  0  0
   -4.5030   -1.5900    0.5060 C   0  0  0  0  0  0  0  0  0  0  0  0
   -5.5600   -2.9740    0.4670 Cl  0  0  0  0  0  0  0  0  0  0  0  0
   -3.1950   -1.6290    0.0320 C   0  0  0  0  0  0  0  0  0  0  0  0
   -2.7090   -2.8210   -0.4950 O   0  0  0  0  0  0  0  0  0  0  0  0
  2  1  1  6
  2  3  1  0
  2  9  1  0
  3  4  1  0
  4  5  1  0
  6  5  1  6
  6  7  1  0
  6  8  1  0
  7  8  1  0
  9 10  1  0
 10 11  1  0
 11 12  2  0
 11 20  1  0
 12 13  1  0
 13 14  1  0
 13 17  2  0
 14 15  2  0
 14 16  1  0
 17 18  1  0
 18 19  1  0
 18 20  2  0
 20 21  1  0
M  CHG  3   1   1  14   1  16  -1
M  END
