
     RDKit          3D

 21 21  0  0  0  0  0  0  0  0999 V2000
    3.0570   -2.2340    1.2230 C   0  0  0  0  0  0  0  0  0  0  0  0
    2.2890   -1.0500    1.1290 O   0  0  0  0  0  0  0  0  0  0  0  0
    2.3580   -0.6480   -0.1940 C   0  0  0  0  0  0  0  0  0  0  0  0
    1.6220    0.5850   -0.5400 C   0  0  1  0  0  0  0  0  0  0  0  0
    1.7580    0.9120   -1.8510 O   0  0  0  0  0  0  0  0  0  0  0  0
    0.8380    0.5090   -2.7550 C   0  0  0  0  0  0  0  0  0  0  0  0
    0.1930   -0.6790   -2.4390 O   0  0  0  0  0  0  0  0  0  0  0  0
   -0.9920   -0.4020   -1.7510 C   0  0  1  0  0  0  0  0  0  0  0  0
   -1.9490   -1.3340   -2.0610 O   0  0  0  0  0  0  0  0  0  0  0  0
   -0.5920   -0.4620   -0.2440 C   0  0  2  0  0  0  0  0  0  0  0  0
    0.1260   -1.6770   -0.0630 O   0  0  0  0  0  0  0  0  0  0  0  0
   -1.8610   -0.6560    0.4850 C   0  0  1  0  0  0  0  0  0  0  0  0
   -1.7620   -0.8470    1.9780 C   0  0  0  0  0  0  0  0  0  0  0  0
   -0.9630   -2.0010    2.1850 O   0  0  0  0  0  0  0  0  0  0  0  0
   -2.9640    0.2750    0.1500 C   0  0  0  0  0  0  0  0  0  0  0  0
   -3.5030    0.9140    1.0860 O   0  0  0  0  0  0  0  0  0  0  0  0
   -3.4410    0.4860   -1.1130 O   0  0  0  0  0  0  0  0  0  0  0  0
    0.2200    0.7510   -0.0570 C   0  0  1  0  0  0  0  0  0  0  0  0
    0.1120    1.4840    1.2460 C   0  0  0  0  0  0  0  0  0  0  0  0
    0.7160    2.8830    1.0930 C   0  0  0  0  0  0  0  0  0  0  0  0
    0.0540    3.5830    0.0930 O   0  0  0  0  0  0  0  0  0  0  0  0
  1  2  1  0
  2  3  1  0
  4  3  1  6
  4  5  1  0
  4 18  1  0
  5  6  1  0
  6  7  1  0
  7  8  1  0
  8  9  1  1
  8 10  1  0
 10 11  1  6
 10 12  1  0
 10 18  1  0
 12 13  1  1
 12 15  1  0
 13 14  1  0
 15 16  2  0
 15 17  1  0
 18 19  1  1
 19 20  1  0
 20 21  1  0
M  END
