
     RDKit          3D

 27 29  0  0  0  0  0  0  0  0999 V2000
   -0.3960    2.6100    0.2010 C   0  0  0  0  0  0  0  0  0  0  0  0
   -0.7150    1.1750    0.2720 C   0  0  0  0  0  0  0  0  0  0  0  0
    0.3140    0.3610    0.8060 O   0  0  0  0  0  0  0  0  0  0  0  0
    1.5260    0.1310    0.0970 C   0  0  2  0  0  0  0  0  0  0  0  0
    1.1150   -0.5260   -1.2020 C   0  0  0  0  0  0  0  0  0  0  0  0
    2.3490   -0.7700    0.9660 C   0  0  0  0  0  0  0  0  0  0  0  0
    3.6210   -1.1420    0.4600 N   0  0  0  0  0  0  0  0  0  0  0  0
    4.4830   -0.1100    0.0220 C   0  0  2  0  0  0  0  0  0  0  0  0
    5.1620   -0.4870   -1.2960 C   0  0  0  0  0  0  0  0  0  0  0  0
    5.5500    0.1880    1.0840 C   0  0  2  0  0  0  0  0  0  0  0  0
    6.5070    1.2710    0.7030 C   0  0  0  0  0  0  0  0  0  0  0  0
    6.9570   -0.1340    0.8460 C   0  0  0  0  0  0  0  0  0  0  0  0
   -1.8410    0.6240   -0.1110 C   0  0  0  0  0  0  0  0  0  0  0  0
   -1.9550   -0.8400    0.0440 C   0  0  0  0  0  0  0  0  0  0  0  0
   -2.9640   -1.5700   -0.2880 C   0  0  0  0  0  0  0  0  0  0  0  0
   -2.9130   -3.0360   -0.0590 C   0  0  0  0  0  0  0  0  0  0  0  0
   -3.9310   -3.8110   -0.3910 C   0  0  0  0  0  0  0  0  0  0  0  0
   -3.9140   -5.2790   -0.1770 C   0  0  0  0  0  0  0  0  0  0  0  0
   -5.2180   -5.8130    0.8920 Cl  0  0  0  0  0  0  0  0  0  0  0  0
   -5.0570   -3.2620   -0.9560 O   0  0  0  0  0  0  0  0  0  0  0  0
   -5.0510   -1.9720   -1.5350 C   0  0  0  0  0  0  0  0  0  0  0  0
   -4.1420   -1.1260   -0.8600 O   0  0  0  0  0  0  0  0  0  0  0  0
   -2.8660    1.3440   -0.6240 O   0  0  0  0  0  0  0  0  0  0  0  0
   -3.9840    1.9040   -0.0500 C   0  0  0  0  0  0  0  0  0  0  0  0
   -3.8280    2.9660    0.9790 C   0  0  1  0  0  0  0  0  0  0  0  0
   -3.1980    4.2730    0.7590 C   0  0  0  0  0  0  0  0  0  0  0  0
   -4.6840    4.2320    0.7860 C   0  0  0  0  0  0  0  0  0  0  0  0
  1  2  1  0
  2  3  1  0
  2 13  2  3
  3  4  1  0
  4  5  1  6
  4  6  1  0
  6  7  1  0
  7  8  1  0
  8  9  1  6
  8 10  1  0
 10 11  1  6
 10 12  1  0
 11 12  1  0
 13 14  1  0
 13 23  1  0
 14 15  2  3
 15 16  1  0
 15 22  1  0
 16 17  2  0
 17 18  1  0
 17 20  1  0
 18 19  1  0
 20 21  1  0
 21 22  1  0
 23 24  1  0
 25 24  1  6
 25 26  1  0
 25 27  1  0
 26 27  1  0
M  CHG  1   7   1
M  END
