
     RDKit          3D

 21 21  0  0  0  0  0  0  0  0999 V2000
   -2.6300   -3.3660    1.1050 C   0  0  0  0  0  0  0  0  0  0  0  0
   -2.2050   -2.0480    1.0370 O   0  0  0  0  0  0  0  0  0  0  0  0
   -2.7300   -1.3910   -0.0840 C   0  0  2  0  0  0  0  0  0  0  0  0
   -1.5440   -0.9620   -0.9220 C   0  0  0  0  0  0  0  0  0  0  0  0
   -0.8510    0.1530   -0.1510 C   0  0  1  0  0  0  0  0  0  0  0  0
    0.4040    0.4330   -0.6860 O   0  0  0  0  0  0  0  0  0  0  0  0
    1.4190    0.1080    0.2350 C   0  0  0  0  0  0  0  0  0  0  0  0
    2.7600    0.4080   -0.3390 C   0  0  2  0  0  0  0  0  0  0  0  0
    2.9120   -0.3590   -1.5000 O   0  0  0  0  0  0  0  0  0  0  0  0
    3.8180   -0.0730    0.6410 C   0  0  1  0  0  0  0  0  0  0  0  0
    3.6370   -1.4130    0.9180 O   0  0  0  0  0  0  0  0  0  0  0  0
    5.1600    0.0810   -0.0460 C   0  0  0  0  0  0  0  0  0  0  0  0
    6.2100   -0.3600    0.7430 O   0  0  0  0  0  0  0  0  0  0  0  0
   -1.7320    1.4020   -0.1080 C   0  0  1  0  0  0  0  0  0  0  0  0
   -1.2660    2.4120   -0.9490 O   0  0  0  0  0  0  0  0  0  0  0  0
   -0.8220    3.6320   -0.4780 C   0  0  0  0  0  0  0  0  0  0  0  0
   -0.8530    3.8010    0.7660 O   0  0  0  0  0  0  0  0  0  0  0  0
   -0.3530    4.6600   -1.2650 O   0  0  0  0  0  0  0  0  0  0  0  0
   -3.1840    1.0560   -0.3320 C   0  0  0  0  0  0  0  0  0  0  0  0
   -3.5090   -0.2010    0.4280 C   0  0  1  0  0  0  0  0  0  0  0  0
   -4.8820   -0.4480    0.3210 O   0  0  0  0  0  0  0  0  0  0  0  0
  1  2  1  0
  3  2  1  1
  3  4  1  0
  3 20  1  0
  4  5  1  0
  5  6  1  6
  5 14  1  0
  6  7  1  0
  7  8  1  0
  8  9  1  6
  8 10  1  0
 10 11  1  6
 10 12  1  0
 12 13  1  0
 14 15  1  6
 14 19  1  0
 15 16  1  0
 16 17  2  0
 16 18  1  0
 19 20  1  0
 20 21  1  6
M  END
