
     RDKit          3D

 21 21  0  0  0  0  0  0  0  0999 V2000
   -2.8910    1.1360    1.2780 C   0  0  0  0  0  0  0  0  0  0  0  0
   -2.7640   -0.1730    0.5190 C   0  0  2  0  0  0  0  0  0  0  0  0
   -3.9930   -0.4620   -0.2980 C   0  0  1  0  0  0  0  0  0  0  0  0
   -5.0620   -0.5570    0.5900 O   0  0  0  0  0  0  0  0  0  0  0  0
   -4.2550    0.6410   -1.2240 C   0  0  0  0  0  0  0  0  0  0  0  0
   -3.4040    0.8960   -2.1140 O   0  0  0  0  0  0  0  0  0  0  0  0
   -5.4010    1.4230   -1.1710 O   0  0  0  0  0  0  0  0  0  0  0  0
   -2.4920   -1.1600    1.4480 O   0  0  0  0  0  0  0  0  0  0  0  0
   -1.7080   -2.1790    0.9560 C   0  0  0  0  0  0  0  0  0  0  0  0
   -0.3980   -1.7940    0.6860 O   0  0  0  0  0  0  0  0  0  0  0  0
   -0.3780   -0.4130    0.5710 C   0  0  1  0  0  0  0  0  0  0  0  0
    0.9450    0.1140    0.0890 C   0  0  0  0  0  0  0  0  0  0  0  0
    2.0090   -0.2990    1.0830 C   0  0  1  0  0  0  0  0  0  0  0  0
    2.1060   -1.6780    1.2190 O   0  0  0  0  0  0  0  0  0  0  0  0
    3.3210    0.3740    0.8300 C   0  0  0  0  0  0  0  0  0  0  0  0
    3.8340    0.0310   -0.5500 C   0  0  0  0  0  0  0  0  0  0  0  0
    5.1540    0.6910   -0.8390 C   0  0  1  0  0  0  0  0  0  0  0  0
    5.5420    0.3180   -2.1230 O   0  0  0  0  0  0  0  0  0  0  0  0
    4.9840    2.0820   -0.7610 O   0  0  0  0  0  0  0  0  0  0  0  0
   -1.5220   -0.0340   -0.3480 C   0  0  1  0  0  0  0  0  0  0  0  0
   -1.6650   -0.9710   -1.3850 O   0  0  0  0  0  0  0  0  0  0  0  0
  2  1  1  1
  2  3  1  0
  2  8  1  0
  2 20  1  0
  3  4  1  1
  3  5  1  0
  5  6  2  0
  5  7  1  0
  8  9  1  0
  9 10  1  0
 10 11  1  0
 11 12  1  6
 11 20  1  0
 12 13  1  0
 13 14  1  6
 13 15  1  0
 15 16  1  0
 16 17  1  0
 17 18  1  6
 17 19  1  0
 20 21  1  6
M  END
