
     RDKit          3D

 21 22  0  0  0  0  0  0  0  0999 V2000
   -3.2710    1.7100   -1.0770 C   0  0  0  0  0  0  0  0  0  0  0  0
   -3.4410    0.5260   -0.3870 O   0  0  0  0  0  0  0  0  0  0  0  0
   -3.0410    0.6990    0.9140 C   0  0  1  0  0  0  0  0  0  0  0  0
   -4.0900    0.4410    1.7770 O   0  0  0  0  0  0  0  0  0  0  0  0
   -4.3460    1.4880    2.5310 O   0  0  0  0  0  0  0  0  0  0  0  0
   -1.8890   -0.2350    1.1820 C   0  0  2  0  0  0  0  0  0  0  0  0
   -0.8230    0.0420    0.3270 O   0  0  0  0  0  0  0  0  0  0  0  0
    0.0380   -1.0270    0.4220 C   0  0  2  0  0  0  0  0  0  0  0  0
    0.7630   -1.3240   -0.8620 C   0  0  0  0  0  0  0  0  0  0  0  0
    1.6050   -0.1770   -1.3480 C   0  0  1  0  0  0  0  0  0  0  0  0
    0.8900    0.9680   -1.5980 O   0  0  0  0  0  0  0  0  0  0  0  0
    2.7600    0.1320   -0.4240 C   0  0  1  0  0  0  0  0  0  0  0  0
    3.6300   -1.0920   -0.2040 C   0  0  0  0  0  0  0  0  0  0  0  0
    3.5570    1.0750   -1.0720 O   0  0  0  0  0  0  0  0  0  0  0  0
    3.4230    2.2680   -0.3780 C   0  0  0  0  0  0  0  0  0  0  0  0
    3.1200    1.7980    1.0170 C   0  0  0  0  0  0  0  0  0  0  0  0
    2.3880    0.6420    0.7860 O   0  0  0  0  0  0  0  0  0  0  0  0
   -0.8260   -2.2500    0.7280 C   0  0  2  0  0  0  0  0  0  0  0  0
   -0.6720   -3.2480   -0.2120 O   0  0  0  0  0  0  0  0  0  0  0  0
   -2.2230   -1.6630    0.7410 C   0  0  2  0  0  0  0  0  0  0  0  0
   -2.7950   -1.6020   -0.5080 O   0  0  0  0  0  0  0  0  0  0  0  0
  1  2  1  0
  3  2  1  6
  3  4  1  0
  3  6  1  0
  4  5  1  0
  6  7  1  6
  6 20  1  0
  7  8  1  0
  8  9  1  6
  8 18  1  0
  9 10  1  0
 10 11  1  1
 10 12  1  0
 12 13  1  1
 12 14  1  0
 12 17  1  0
 14 15  1  0
 15 16  1  0
 16 17  1  0
 18 19  1  6
 18 20  1  0
 20 21  1  6
M  END
