
     RDKit          3D

 19 20  0  0  0  0  0  0  0  0999 V2000
    4.9680    2.5960   -0.5310 N   0  0  0  0  0  0  0  0  0  0  0  0
    3.7370    2.0340   -0.0220 C   0  0  0  0  0  0  0  0  0  0  0  0
    3.3270    0.7850   -0.7820 C   0  0  0  0  0  0  0  0  0  0  0  0
    2.1220    0.3310   -0.2000 O   0  0  0  0  0  0  0  0  0  0  0  0
    1.4610   -0.8010   -0.6540 C   0  0  0  0  0  0  0  0  0  0  0  0
    1.9940   -1.4170   -1.6250 O   0  0  0  0  0  0  0  0  0  0  0  0
    0.2010   -1.2460   -0.0210 C   0  0  2  0  0  0  0  0  0  0  0  0
   -0.8070   -0.1500   -0.1580 C   0  0  0  0  0  0  0  0  0  0  0  0
   -2.0630   -0.4940    0.4060 O   0  0  0  0  0  0  0  0  0  0  0  0
   -3.0590    0.4890    0.3120 C   0  0  0  0  0  0  0  0  0  0  0  0
   -3.1530    1.4450    1.2050 C   0  0  0  0  0  0  0  0  0  0  0  0
   -4.1860    2.4810    1.1240 C   0  0  0  0  0  0  0  0  0  0  0  0
   -5.0110    2.3230    0.0280 O   0  0  0  0  0  0  0  0  0  0  0  0
   -4.9390    1.3550   -0.9040 C   0  0  0  0  0  0  0  0  0  0  0  0
   -3.9890    0.4240   -0.8060 C   0  0  0  0  0  0  0  0  0  0  0  0
    0.4710   -1.6260    1.4040 C   0  0  0  0  0  0  0  0  0  0  0  0
    0.1120   -3.0810    1.4900 C   0  0  0  0  0  0  0  0  0  0  0  0
    0.2620   -3.5490    0.0720 C   0  0  0  0  0  0  0  0  0  0  0  0
   -0.2660   -2.4490   -0.6930 N   0  0  0  0  0  0  0  0  0  0  0  0
  1  2  1  0
  2  3  1  0
  3  4  1  0
  4  5  1  0
  5  6  2  0
  5  7  1  0
  7  8  1  1
  7 16  1  0
  7 19  1  0
  8  9  1  0
  9 10  1  0
 10 11  2  0
 10 15  1  0
 11 12  1  0
 12 13  1  0
 13 14  1  0
 14 15  2  0
 16 17  1  0
 17 18  1  0
 18 19  1  0
M  CHG  2   1   1  19   1
M  END
