
     RDKit          3D

 20 20  0  0  0  0  0  0  0  0999 V2000
    4.7730   -1.3570   -0.6220 C   0  0  0  0  0  0  0  0  0  0  0  0
    4.1400   -0.2040   -0.5260 C   0  0  0  0  0  0  0  0  0  0  0  0
    3.8090    0.3130    0.7230 O   0  0  0  0  0  0  0  0  0  0  0  0
    2.5030    0.7030    1.1000 C   0  0  1  0  0  0  0  0  0  0  0  0
    2.0320    1.8000    0.1660 C   0  0  0  0  0  0  0  0  0  0  0  0
    1.2480    2.7420    0.8230 O   0  0  0  0  0  0  0  0  0  0  0  0
    0.1780    3.4510    0.3080 C   0  0  0  0  0  0  0  0  0  0  0  0
    0.1010    4.6680    0.7000 O   0  0  0  0  0  0  0  0  0  0  0  0
   -0.7960    2.9390   -0.5850 N   0  0  0  0  0  0  0  0  0  0  0  0
   -1.4360    1.6450   -0.4780 C   0  0  0  0  0  0  0  0  0  0  0  0
   -1.3960    1.0670    0.9200 C   0  0  1  0  0  0  0  0  0  0  0  0
   -2.4690    1.7940    1.6450 N   0  0  0  0  0  0  0  0  0  0  0  0
   -1.7230   -0.3720    0.8860 C   0  0  0  0  0  0  0  0  0  0  0  0
   -1.2990   -1.1600   -0.2820 C   0  0  0  0  0  0  0  0  0  0  0  0
   -2.3590   -1.9920   -0.9690 C   0  0  0  0  0  0  0  0  0  0  0  0
   -2.8540   -2.9090    0.0430 N   0  0  0  0  0  0  0  0  0  0  0  0
   -0.0880   -1.2440   -0.8120 C   0  0  0  0  0  0  0  0  0  0  0  0
    0.1210   -2.1320   -2.0390 C   0  0  0  0  0  0  0  0  0  0  0  0
    0.9950   -0.5620   -0.3040 O   0  0  0  0  0  0  0  0  0  0  0  0
    1.6020   -0.5100    0.9330 C   0  0  0  0  0  0  0  0  0  0  0  0
  1  2  2  0
  2  3  1  0
  4  3  1  6
  4  5  1  0
  4 20  1  0
  5  6  1  0
  6  7  1  0
  7  8  2  0
  7  9  1  0
  9 10  1  0
 10 11  1  0
 11 12  1  1
 11 13  1  0
 13 14  1  0
 14 15  1  0
 14 17  2  0
 15 16  1  0
 17 18  1  0
 17 19  1  0
 19 20  1  0
M  CHG  2  12   1  16   1
M  END
