
     RDKit          3D

 24 26  0  0  0  0  0  0  0  0999 V2000
    1.3280    4.0870    2.6300 C   0  0  0  0  0  0  0  0  0  0  0  0
   -0.0230    3.6480    2.0900 C   0  0  0  0  0  0  0  0  0  0  0  0
    0.1790    2.5430    1.2550 O   0  0  0  0  0  0  0  0  0  0  0  0
   -0.8100    1.8650    0.5810 C   0  0  0  0  0  0  0  0  0  0  0  0
   -1.9870    2.3060    0.7540 O   0  0  0  0  0  0  0  0  0  0  0  0
   -0.6380    0.7230   -0.2900 C   0  0  0  0  0  0  0  0  0  0  0  0
   -1.5900    0.0700   -0.9480 C   0  0  0  0  0  0  0  0  0  0  0  0
   -2.9970    0.3680   -0.9280 N   0  0  0  0  0  0  0  0  0  0  0  0
   -3.9740   -0.7080   -0.9760 C   0  0  1  0  0  0  0  0  0  0  0  0
   -3.8310   -1.6540    0.1870 C   0  0  0  0  0  0  0  0  0  0  0  0
   -5.0880   -1.5450    1.0110 C   0  0  0  0  0  0  0  0  0  0  0  0
   -5.7570   -0.2700    0.5270 C   0  0  0  0  0  0  0  0  0  0  0  0
   -5.3770   -0.1970   -0.9230 C   0  0  0  0  0  0  0  0  0  0  0  0
   -1.0240   -0.9710   -1.7070 N   0  0  0  0  0  0  0  0  0  0  0  0
    0.3610   -0.4640   -1.9680 C   0  0  2  0  0  0  0  0  0  0  0  0
    1.1180   -1.4670   -2.7040 C   0  0  0  0  0  0  0  0  0  0  0  0
    0.6810    0.0090   -0.6270 C   0  0  0  0  0  0  0  0  0  0  0  0
    1.6180    0.0250    0.2570 C   0  0  0  0  0  0  0  0  0  0  0  0
    2.9650   -0.4780    0.3920 C   0  0  0  0  0  0  0  0  0  0  0  0
    3.6420   -0.2220    1.5290 C   0  0  0  0  0  0  0  0  0  0  0  0
    5.0130   -0.6920    1.7460 C   0  0  0  0  0  0  0  0  0  0  0  0
    5.6490   -0.8350    0.3550 C   0  0  0  0  0  0  0  0  0  0  0  0
    4.8550   -1.8190   -0.3010 N   0  0  0  0  0  0  0  0  0  0  0  0
    3.5810   -1.2680   -0.6910 C   0  0  0  0  0  0  0  0  0  0  0  0
  1  2  1  0
  2  3  1  0
  3  4  1  0
  4  5  2  0
  4  6  1  0
  6  7  2  0
  6 17  1  0
  7  8  1  0
  7 14  1  0
  9  8  1  1
  9 10  1  0
  9 13  1  0
 10 11  1  0
 11 12  1  0
 12 13  1  0
 14 15  1  0
 15 16  1  1
 15 17  1  0
 17 18  2  3
 18 19  1  0
 19 20  2  0
 19 24  1  0
 20 21  1  0
 21 22  1  0
 22 23  1  0
 23 24  1  0
M  CHG  1  23   1
M  END
