
     RDKit          3D

 16 15  0  0  0  0  0  0  0  0999 V2000
   -3.7540   -0.2230    0.1520 C   0  0  0  0  0  0  0  0  0  0  0  0
   -2.4600   -0.4980   -0.4240 N   0  0  0  0  0  0  0  0  0  0  0  0
   -2.3600   -1.4490   -1.5090 C   0  0  0  0  0  0  0  0  0  0  0  0
   -1.3370    0.1950    0.1190 C   0  0  0  0  0  0  0  0  0  0  0  0
   -0.1310   -0.3210    0.1470 C   0  0  0  0  0  0  0  0  0  0  0  0
    0.9740    0.4230    0.7080 C   0  0  0  0  0  0  0  0  0  0  0  0
    2.1800   -0.1150    0.7270 C   0  0  0  0  0  0  0  0  0  0  0  0
    3.5500    0.8550    1.4440 P   0  0  0  0  0  0  0  0  0  0  0  0
    3.2610    2.5700    1.2900 O   0  0  0  0  0  0  0  0  0  0  0  0
    5.0740    0.4290    0.7420 O   0  0  0  0  0  0  0  0  0  0  0  0
    2.4350   -1.7800    0.0470 P   0  0  0  0  0  0  0  0  0  0  0  0
    3.5280   -2.6870    1.0620 O   0  0  0  0  0  0  0  0  0  0  0  0
    2.9990   -1.7290   -1.5920 O   0  0  0  0  0  0  0  0  0  0  0  0
   -1.5270    1.4970    0.6520 N   0  0  0  0  0  0  0  0  0  0  0  0
   -2.0150    2.5210   -0.1850 C   0  0  0  0  0  0  0  0  0  0  0  0
   -2.2990    2.3560   -1.3970 O   0  0  0  0  0  0  0  0  0  0  0  0
  1  2  1  0
  2  3  1  0
  2  4  1  0
  4  5  2  3
  4 14  1  0
  5  6  1  0
  6  7  2  3
  7  8  1  0
  7 11  1  0
  8  9  1  0
  8 10  1  0
 11 12  1  0
 11 13  1  0
 14 15  1  0
 15 16  2  0
M  END
