
     RDKit          3D

 24 25  0  0  0  0  0  0  0  0999 V2000
   -4.3740   -0.7280   -2.1860 C   0  0  0  0  0  0  0  0  0  0  0  0
   -3.2130   -0.4070   -1.6920 C   0  0  0  0  0  0  0  0  0  0  0  0
   -2.0500   -0.1670   -1.1790 C   0  0  0  0  0  0  0  0  0  0  0  0
   -1.9750    0.0160    0.2400 C   0  0  0  0  0  0  0  0  0  0  0  0
   -3.1100   -0.0390    1.0930 C   0  0  0  0  0  0  0  0  0  0  0  0
   -4.2720   -0.2590    0.6020 O   0  0  0  0  0  0  0  0  0  0  0  0
   -3.0720    0.1310    2.4670 O   0  0  0  0  0  0  0  0  0  0  0  0
   -4.2470    0.0640    3.2530 C   0  0  0  0  0  0  0  0  0  0  0  0
   -0.7440    0.2480    0.7070 C   0  0  0  0  0  0  0  0  0  0  0  0
    0.3100    0.2790   -0.2600 N   0  0  0  0  0  0  0  0  0  0  0  0
    1.6760   -0.0510    0.1920 C   0  0  1  0  0  0  0  0  0  0  0  0
    1.7980   -1.4720    0.6700 C   0  0  0  0  0  0  0  0  0  0  0  0
    3.0850   -1.7370    1.1740 N   0  0  0  0  0  0  0  0  0  0  0  0
    3.4600   -1.1340    2.3990 C   0  0  0  0  0  0  0  0  0  0  0  0
    3.6290   -2.9090    0.8790 F   0  0  0  0  0  0  0  0  0  0  0  0
    2.6130    0.1610   -0.8270 O   0  0  0  0  0  0  0  0  0  0  0  0
    3.5670    1.0470   -0.3250 C   0  0  1  0  0  0  0  0  0  0  0  0
    3.6900    2.2880   -1.1780 C   0  0  0  0  0  0  0  0  0  0  0  0
    2.4870    1.2580    1.1690 P   0  0  0  0  0  0  0  0  0  0  0  0
    0.1250    0.5820   -1.5720 O   0  0  0  0  0  0  0  0  0  0  0  0
   -0.9630   -0.1160   -2.0550 N   0  0  0  0  0  0  0  0  0  0  0  0
   -0.8680   -0.6670   -3.2840 O   0  0  0  0  0  0  0  0  0  0  0  0
   -1.3400   -0.0070   -4.3970 C   0  0  0  0  0  0  0  0  0  0  0  0
   -1.8640    1.1310   -4.2270 O   0  0  0  0  0  0  0  0  0  0  0  0
  1  2  2  0
  2  3  2  0
  3  4  1  0
  3 21  1  0
  4  5  1  0
  4  9  2  0
  5  6  2  0
  5  7  1  0
  7  8  1  0
  9 10  1  0
 10 11  1  0
 10 20  1  0
 11 12  1  1
 11 16  1  0
 11 19  1  0
 12 13  1  0
 13 14  1  0
 13 15  1  0
 16 17  1  0
 17 18  1  6
 17 19  1  0
 20 21  1  0
 21 22  1  0
 22 23  1  0
 23 24  2  0
M  END
