
     RDKit          3D

 16 15  0  0  0  0  0  0  0  0999 V2000
   -1.6470   -0.3040    1.5050 N   0  0  0  0  0  0  0  0  0  0  0  0
   -1.0600    0.2980    0.3420 C   0  0  0  0  0  0  0  0  0  0  0  0
   -1.2240    1.5810    0.0690 C   0  0  0  0  0  0  0  0  0  0  0  0
   -1.9960    2.4760    0.9060 C   0  0  0  0  0  0  0  0  0  0  0  0
   -2.5320    2.0170    1.9360 O   0  0  0  0  0  0  0  0  0  0  0  0
   -2.1620    3.8090    0.6160 O   0  0  0  0  0  0  0  0  0  0  0  0
   -0.2910   -0.5620   -0.4730 N   0  0  0  0  0  0  0  0  0  0  0  0
   -0.9750   -1.6450   -1.1010 C   0  0  0  0  0  0  0  0  0  0  0  0
   -1.0320   -2.9110   -0.3220 C   0  0  0  0  0  0  0  0  0  0  0  0
   -1.7290   -3.8560   -1.0730 O   0  0  0  0  0  0  0  0  0  0  0  0
    1.1090   -0.3110   -0.6230 C   0  0  0  0  0  0  0  0  0  0  0  0
    1.8120   -1.0640   -1.3690 O   0  0  0  0  0  0  0  0  0  0  0  0
    1.8410    0.7850    0.0360 C   0  0  0  0  0  0  0  0  0  0  0  0
    3.6240    0.6900   -0.4190 P   0  0  0  0  0  0  0  0  0  0  0  0
    4.5810    0.0730    0.8670 O   0  0  0  0  0  0  0  0  0  0  0  0
    4.2220    2.2090   -1.0070 O   0  0  0  0  0  0  0  0  0  0  0  0
  1  2  1  0
  2  3  2  3
  2  7  1  0
  3  4  1  0
  4  5  2  0
  4  6  1  0
  7  8  1  0
  7 11  1  0
  8  9  1  0
  9 10  1  0
 11 12  2  0
 11 13  1  0
 13 14  1  0
 14 15  1  0
 14 16  1  0
M  END
