
     RDKit          3D

 16 16  0  0  0  0  0  0  0  0999 V2000
   -1.2820    1.4650   -0.7410 C   0  0  0  0  0  0  0  0  0  0  0  0
   -1.3720    0.1690    0.0370 C   0  0  1  0  0  0  0  0  0  0  0  0
   -0.2730   -0.7760   -0.2640 C   0  0  0  0  0  0  0  0  0  0  0  0
    1.0510   -0.4150   -0.0350 N   0  0  0  0  0  0  0  0  0  0  0  0
    1.6100   -0.7170    1.2870 C   0  0  0  0  0  0  0  0  0  0  0  0
    3.0810   -0.2940    1.3350 C   0  0  0  0  0  0  0  0  0  0  0  0
    3.2310    1.0320    0.7660 N   0  0  0  0  0  0  0  0  0  0  0  0
    3.1550    0.8820   -0.6760 C   0  0  0  0  0  0  0  0  0  0  0  0
    1.8670    0.2130   -0.9830 C   0  0  0  0  0  0  0  0  0  0  0  0
    1.4680    0.1990   -2.1620 O   0  0  0  0  0  0  0  0  0  0  0  0
   -1.6770    0.4430    1.8310 P   0  0  0  0  0  0  0  0  0  0  0  0
   -2.2370    2.0670    2.0350 O   0  0  0  0  0  0  0  0  0  0  0  0
   -2.7800   -0.7150    2.4970 O   0  0  0  0  0  0  0  0  0  0  0  0
   -2.9110   -0.7060   -0.5840 P   0  0  0  0  0  0  0  0  0  0  0  0
   -2.6750   -1.0200   -2.2860 O   0  0  0  0  0  0  0  0  0  0  0  0
   -3.0690   -2.2250    0.2760 O   0  0  0  0  0  0  0  0  0  0  0  0
  2  1  1  6
  2  3  1  0
  2 11  1  0
  2 14  1  0
  3  4  1  0
  4  5  1  0
  4  9  1  0
  5  6  1  0
  6  7  1  0
  7  8  1  0
  8  9  1  0
  9 10  2  0
 11 12  1  0
 11 13  1  0
 14 15  1  0
 14 16  1  0
M  END
