
     RDKit          3D

 22 22  0  0  0  0  0  0  0  0999 V2000
    6.5020    1.6610    0.0160 C   0  0  0  0  0  0  0  0  0  0  0  0
    5.3730    0.6680    0.0600 C   0  0  0  0  0  0  0  0  0  0  0  0
    5.3080   -0.2820    1.1890 C   0  0  0  0  0  0  0  0  0  0  0  0
    4.4560    0.6440   -0.8920 C   0  0  0  0  0  0  0  0  0  0  0  0
    3.3590   -0.3460   -0.8190 C   0  0  0  0  0  0  0  0  0  0  0  0
    2.0320    0.3810   -0.7570 C   0  0  0  0  0  0  0  0  0  0  0  0
    0.8810   -0.5520   -0.6820 C   0  0  0  0  0  0  0  0  0  0  0  0
    0.6980   -1.5130   -1.7910 C   0  0  0  0  0  0  0  0  0  0  0  0
    0.0540   -0.5260    0.3390 C   0  0  0  0  0  0  0  0  0  0  0  0
   -1.1030   -1.4390    0.4470 C   0  0  0  0  0  0  0  0  0  0  0  0
   -2.3870   -0.7360    0.5460 C   0  0  0  0  0  0  0  0  0  0  0  0
   -2.7830   -0.1280    1.7070 C   0  0  0  0  0  0  0  0  0  0  0  0
   -1.8970   -0.2140    2.7910 O   0  0  0  0  0  0  0  0  0  0  0  0
   -3.9820    0.5400    1.8290 C   0  0  0  0  0  0  0  0  0  0  0  0
   -4.4360    1.3040    3.3510 Cl  0  0  0  0  0  0  0  0  0  0  0  0
   -4.8500    0.6270    0.7730 C   0  0  0  0  0  0  0  0  0  0  0  0
   -6.1310    1.3420    0.9020 C   0  0  0  0  0  0  0  0  0  0  0  0
   -4.4720    0.0140   -0.4270 C   0  0  0  0  0  0  0  0  0  0  0  0
   -5.4140    0.1230   -1.5260 C   0  0  0  0  0  0  0  0  0  0  0  0
   -6.5110    0.7220   -1.4470 O   0  0  0  0  0  0  0  0  0  0  0  0
   -3.2640   -0.6580   -0.5480 C   0  0  0  0  0  0  0  0  0  0  0  0
   -2.8870   -1.2640   -1.7310 O   0  0  0  0  0  0  0  0  0  0  0  0
  1  2  1  0
  2  3  1  0
  2  4  2  3
  4  5  1  0
  5  6  1  0
  6  7  1  0
  7  8  1  0
  7  9  2  3
  9 10  1  0
 10 11  1  0
 11 12  2  0
 11 21  1  0
 12 13  1  0
 12 14  1  0
 14 15  1  0
 14 16  2  0
 16 17  1  0
 16 18  1  0
 18 19  1  0
 18 21  2  0
 19 20  2  0
 21 22  1  0
M  END
