
     RDKit          3D

 26 29  0  0  0  0  0  0  0  0999 V2000
   -2.3810    3.9570   -2.3850 S   0  0  0  0  0  0  0  0  0  0  0  0
   -1.8250    2.5320   -1.7970 C   0  0  0  0  0  0  0  0  0  0  0  0
   -0.6000    2.1400   -2.1170 N   0  0  0  0  0  0  0  0  0  0  0  0
   -0.1520    0.9620   -1.6220 C   0  0  0  0  0  0  0  0  0  0  0  0
   -0.9020    0.1610   -0.8110 C   0  0  0  0  0  0  0  0  0  0  0  0
   -0.2860   -1.0060   -0.2060 C   0  0  0  0  0  0  0  0  0  0  0  0
    1.0750   -0.6060    0.3030 C   0  0  0  0  0  0  0  0  0  0  0  0
    1.3480    0.0350    1.4670 C   0  0  0  0  0  0  0  0  0  0  0  0
    2.6750    0.3490    1.7930 C   0  0  0  0  0  0  0  0  0  0  0  0
    3.7190    0.0330    0.9800 C   0  0  0  0  0  0  0  0  0  0  0  0
    3.4710   -0.6150   -0.2000 C   0  0  0  0  0  0  0  0  0  0  0  0
    2.1760   -0.9250   -0.5250 C   0  0  0  0  0  0  0  0  0  0  0  0
    4.3120   -1.1080   -1.3070 C   0  0  0  0  0  0  0  0  0  0  0  0
    5.5060   -0.8040   -1.7910 C   0  0  0  0  0  0  0  0  0  0  0  0
    6.4970    0.2340   -1.3410 C   0  0  0  0  0  0  0  0  0  0  0  0
    6.8050   -0.0730    0.1110 C   0  0  0  0  0  0  0  0  0  0  0  0
    6.1850    0.8550    1.0890 C   0  0  0  0  0  0  0  0  0  0  0  0
    4.9060    0.4650    1.5620 O   0  0  0  0  0  0  0  0  0  0  0  0
   -2.2000    0.5940   -0.4890 C   0  0  0  0  0  0  0  0  0  0  0  0
   -3.0470   -0.2950    0.2770 C   0  0  0  0  0  0  0  0  0  0  0  0
   -4.4680    0.0990    0.5270 C   0  0  2  0  0  0  0  0  0  0  0  0
   -5.1740   -0.9960    1.3300 C   0  0  0  0  0  0  0  0  0  0  0  0
   -6.5570   -1.1350    0.7940 C   0  0  0  0  0  0  0  0  0  0  0  0
   -6.6320   -0.3880   -0.4930 C   0  0  0  0  0  0  0  0  0  0  0  0
   -5.3280    0.3760   -0.6450 C   0  0  0  0  0  0  0  0  0  0  0  0
   -2.6180    1.7670   -0.9920 N   0  0  0  0  0  0  0  0  0  0  0  0
  1  2  2  0
  2  3  1  0
  2 26  1  0
  3  4  2  0
  4  5  1  0
  5  6  1  0
  5 19  2  0
  6  7  1  0
  7  8  2  0
  7 12  1  0
  8  9  1  0
  9 10  2  0
 10 11  1  0
 10 18  1  0
 11 12  2  0
 11 13  1  0
 13 14  2  0
 14 15  1  0
 15 16  1  0
 16 17  1  0
 17 18  1  0
 19 20  1  0
 19 26  1  0
 21 20  1  6
 21 22  1  0
 21 25  1  0
 22 23  1  0
 23 24  1  0
 24 25  1  0
M  END
