
     RDKit          3D

 26 29  0  0  0  0  0  0  0  0999 V2000
   -6.5940   -1.0020   -0.3680 C   0  0  0  0  0  0  0  0  0  0  0  0
   -5.9040   -2.1180   -0.9380 N   0  0  0  0  0  0  0  0  0  0  0  0
   -4.4910   -2.1340   -0.9690 C   0  0  0  0  0  0  0  0  0  0  0  0
   -3.7580   -3.1620   -1.4960 C   0  0  0  0  0  0  0  0  0  0  0  0
   -2.3840   -3.1650   -1.5190 C   0  0  0  0  0  0  0  0  0  0  0  0
   -1.7260   -2.0650   -0.9790 C   0  0  0  0  0  0  0  0  0  0  0  0
   -0.3480   -2.0410   -0.9700 C   0  0  0  0  0  0  0  0  0  0  0  0
    0.3640   -1.0000   -0.4420 C   0  0  0  0  0  0  0  0  0  0  0  0
    1.8650   -1.0010   -0.4170 C   0  0  0  0  0  0  0  0  0  0  0  0
    2.8260   -0.4610   -0.1080 N   0  0  0  0  0  0  0  0  0  0  0  0
    4.0950   -0.7460   -0.2310 C   0  0  0  0  0  0  0  0  0  0  0  0
    5.2330    0.1180    0.2540 C   0  0  2  0  0  0  0  0  0  0  0  0
    6.5050    0.0250   -0.4750 C   0  0  0  0  0  0  0  0  0  0  0  0
    6.3960   -0.6680    0.8600 C   0  0  0  0  0  0  0  0  0  0  0  0
    4.2860   -1.9610   -0.8720 C   0  0  0  0  0  0  0  0  0  0  0  0
    2.6800   -2.5480   -1.2200 S   0  0  0  0  0  0  0  0  0  0  0  0
   -0.3110    0.0880    0.1130 C   0  0  0  0  0  0  0  0  0  0  0  0
    0.4760    1.1900    0.6230 C   0  0  0  0  0  0  0  0  0  0  0  0
    0.1560    2.1160    1.4750 C   0  0  0  0  0  0  0  0  0  0  0  0
    1.2130    3.1510    1.8070 C   0  0  0  0  0  0  0  0  0  0  0  0
    0.7020    4.5100    1.4390 C   0  0  0  0  0  0  0  0  0  0  0  0
    0.3990    4.6360    0.0980 O   0  0  0  0  0  0  0  0  0  0  0  0
   -1.6920    0.0960    0.1160 C   0  0  0  0  0  0  0  0  0  0  0  0
   -2.5020    1.2300    0.5570 C   0  0  0  0  0  0  0  0  0  0  0  0
   -2.3950   -0.9900   -0.4310 C   0  0  0  0  0  0  0  0  0  0  0  0
   -3.7720   -1.0540   -0.4400 C   0  0  0  0  0  0  0  0  0  0  0  0
  1  2  1  0
  2  3  1  0
  3  4  2  0
  3 26  1  0
  4  5  1  0
  5  6  2  0
  6  7  1  0
  6 25  1  0
  7  8  2  0
  8  9  1  0
  8 17  1  0
  9 10  2  0
  9 16  1  0
 10 11  1  0
 12 11  1  6
 11 15  2  0
 12 13  1  0
 12 14  1  0
 13 14  1  0
 15 16  1  0
 17 18  1  0
 17 23  2  0
 18 19  2  3
 19 20  1  0
 20 21  1  0
 21 22  1  0
 23 24  1  0
 23 25  1  0
 25 26  2  0
M  END
