
     RDKit          3D

 26 29  0  0  0  0  0  0  0  0999 V2000
   -4.4790    3.8700    1.1560 C   0  0  0  0  0  0  0  0  0  0  0  0
   -3.8000    2.6400    0.6630 C   0  0  0  0  0  0  0  0  0  0  0  0
   -4.1960    1.4920    0.1560 C   0  0  0  0  0  0  0  0  0  0  0  0
   -3.3250    0.5250   -0.2520 C   0  0  0  0  0  0  0  0  0  0  0  0
   -3.8980   -0.8230   -0.6470 C   0  0  0  0  0  0  0  0  0  0  0  0
   -4.1300   -1.2200   -1.9030 C   0  0  0  0  0  0  0  0  0  0  0  0
   -4.7560   -2.4560   -2.1630 C   0  0  0  0  0  0  0  0  0  0  0  0
   -5.1370   -3.2850   -1.1090 C   0  0  0  0  0  0  0  0  0  0  0  0
   -4.8880   -2.8650    0.1680 C   0  0  0  0  0  0  0  0  0  0  0  0
   -4.2680   -1.6300    0.4380 C   0  0  0  0  0  0  0  0  0  0  0  0
   -2.0060    0.7110   -0.1580 C   0  0  0  0  0  0  0  0  0  0  0  0
   -0.6700    0.3360   -0.6040 C   0  0  1  0  0  0  0  0  0  0  0  0
    0.0830    1.4490   -0.9450 O   0  0  0  0  0  0  0  0  0  0  0  0
    0.0650   -0.3500    0.5440 C   0  0  0  0  0  0  0  0  0  0  0  0
    1.4990   -0.3080    0.4750 N   0  0  0  0  0  0  0  0  0  0  0  0
    2.0640    0.6960    1.3090 C   0  0  0  0  0  0  0  0  0  0  0  0
    3.3490    0.7360    1.1670 N   0  0  0  0  0  0  0  0  0  0  0  0
    3.7360   -0.2240    0.2400 C   0  0  0  0  0  0  0  0  0  0  0  0
    5.1230   -0.3050   -0.1540 C   0  0  0  0  0  0  0  0  0  0  0  0
    5.7170   -1.1970   -0.9750 C   0  0  0  0  0  0  0  0  0  0  0  0
    7.0520   -1.1270   -1.3480 C   0  0  0  0  0  0  0  0  0  0  0  0
    7.8450   -0.1220   -0.8850 C   0  0  0  0  0  0  0  0  0  0  0  0
    7.2960    0.8200   -0.0380 C   0  0  0  0  0  0  0  0  0  0  0  0
    5.9910    0.7220    0.3050 C   0  0  0  0  0  0  0  0  0  0  0  0
    2.5510   -0.8220   -0.1350 C   0  0  0  0  0  0  0  0  0  0  0  0
   -1.9860    2.4610    0.6190 S   0  0  0  0  0  0  0  0  0  0  0  0
  1  2  1  0
  2  3  2  0
  2 26  1  0
  3  4  1  0
  4  5  1  0
  4 11  2  0
  5  6  2  0
  5 10  1  0
  6  7  1  0
  7  8  2  0
  8  9  1  0
  9 10  2  0
 11 12  1  0
 11 26  1  0
 12 13  1  1
 12 14  1  0
 14 15  1  0
 15 16  1  0
 15 25  1  0
 16 17  2  0
 17 18  1  0
 18 19  1  0
 18 25  2  0
 19 20  2  0
 19 24  1  0
 20 21  1  0
 21 22  2  0
 22 23  1  0
 23 24  2  0
M  END
