
     RDKit          3D

 26 29  0  0  0  0  0  0  0  0999 V2000
   -6.3100    0.3400    0.9950 C   0  0  0  0  0  0  0  0  0  0  0  0
   -5.3980   -0.7860    0.5730 C   0  0  0  0  0  0  0  0  0  0  0  0
   -4.1010   -0.7460    1.3750 C   0  0  0  0  0  0  0  0  0  0  0  0
   -3.4040    0.5090    1.1650 N   0  0  0  0  0  0  0  0  0  0  0  0
   -3.5340    1.6500    1.8730 C   0  0  0  0  0  0  0  0  0  0  0  0
   -2.7200    2.5890    1.3710 N   0  0  0  0  0  0  0  0  0  0  0  0
   -2.0560    2.0660    0.3340 C   0  0  0  0  0  0  0  0  0  0  0  0
   -1.1110    2.5330   -0.5530 C   0  0  0  0  0  0  0  0  0  0  0  0
   -0.6120    1.6930   -1.5500 C   0  0  0  0  0  0  0  0  0  0  0  0
   -1.0350    0.3860   -1.6870 C   0  0  0  0  0  0  0  0  0  0  0  0
   -0.5060   -0.5310   -2.7290 C   0  0  2  0  0  0  0  0  0  0  0  0
   -1.5860   -1.0260   -3.5090 O   0  0  0  0  0  0  0  0  0  0  0  0
    0.1690   -1.7600   -2.1530 C   0  0  0  0  0  0  0  0  0  0  0  0
    1.3180   -1.4060   -1.2930 C   0  0  0  0  0  0  0  0  0  0  0  0
    2.1780   -2.2010   -0.5910 C   0  0  0  0  0  0  0  0  0  0  0  0
    3.1550   -1.6120    0.1220 C   0  0  0  0  0  0  0  0  0  0  0  0
    4.1350   -2.2720    0.9080 C   0  0  0  0  0  0  0  0  0  0  0  0
    5.0750   -1.5450    1.5850 C   0  0  0  0  0  0  0  0  0  0  0  0
    5.1500   -0.1730    1.5650 C   0  0  0  0  0  0  0  0  0  0  0  0
    6.1660    0.5730    2.3000 C   0  0  0  0  0  0  0  0  0  0  0  0
    4.2060    0.4750    0.8070 C   0  0  0  0  0  0  0  0  0  0  0  0
    4.1500    1.9530    0.6800 C   0  0  0  0  0  0  0  0  0  0  0  0
    3.2520   -0.2630    0.1200 C   0  0  0  0  0  0  0  0  0  0  0  0
    1.9350    0.2440   -0.9150 S   0  0  0  0  0  0  0  0  0  0  0  0
   -1.9820   -0.0440   -0.7810 C   0  0  0  0  0  0  0  0  0  0  0  0
   -2.4840    0.7750    0.2110 C   0  0  0  0  0  0  0  0  0  0  0  0
  1  2  1  0
  2  3  1  0
  3  4  1  0
  4  5  1  0
  4 26  1  0
  5  6  2  0
  6  7  1  0
  7  8  2  0
  7 26  1  0
  8  9  1  0
  9 10  2  0
 10 11  1  0
 10 25  1  0
 11 12  1  6
 11 13  1  0
 13 14  1  0
 14 15  2  0
 14 24  1  0
 15 16  1  0
 16 17  2  0
 16 23  1  0
 17 18  1  0
 18 19  2  0
 19 20  1  0
 19 21  1  0
 21 22  1  0
 21 23  2  0
 23 24  1  0
 25 26  2  0
M  END
