
     RDKit          3D

 26 29  0  0  0  0  0  0  0  0999 V2000
   -0.7930    4.1790   -1.5270 C   0  0  0  0  0  0  0  0  0  0  0  0
   -0.1480    2.9700   -0.9560 C   0  0  0  0  0  0  0  0  0  0  0  0
   -0.6910    1.9730   -0.1830 C   0  0  0  0  0  0  0  0  0  0  0  0
    0.1040    0.9730    0.2150 C   0  0  0  0  0  0  0  0  0  0  0  0
   -0.4060   -0.1470    1.0700 C   0  0  0  0  0  0  0  0  0  0  0  0
    0.3670   -0.7420    1.8510 O   0  0  0  0  0  0  0  0  0  0  0  0
   -1.7940   -0.5770    1.0240 C   0  0  0  0  0  0  0  0  0  0  0  0
   -2.3240   -1.1510    2.1710 C   0  0  0  0  0  0  0  0  0  0  0  0
   -3.6370   -1.5820    2.1710 C   0  0  0  0  0  0  0  0  0  0  0  0
   -4.4520   -1.4610    1.0580 C   0  0  0  0  0  0  0  0  0  0  0  0
   -5.7680   -1.9030    1.0870 C   0  0  0  0  0  0  0  0  0  0  0  0
   -6.5790   -1.7770   -0.0380 C   0  0  0  0  0  0  0  0  0  0  0  0
   -6.0570   -1.2040   -1.1910 C   0  0  0  0  0  0  0  0  0  0  0  0
   -4.7440   -0.7740   -1.1860 C   0  0  0  0  0  0  0  0  0  0  0  0
   -3.9270   -0.8920   -0.0810 C   0  0  0  0  0  0  0  0  0  0  0  0
   -2.6110   -0.4600   -0.0800 C   0  0  0  0  0  0  0  0  0  0  0  0
    1.4080    0.9920   -0.1630 C   0  0  0  0  0  0  0  0  0  0  0  0
    2.5180    0.0610    0.1030 C   0  0  0  0  0  0  0  0  0  0  0  0
    3.7270    0.5410   -0.5350 N   0  0  0  0  0  0  0  0  0  0  0  0
    4.9380   -0.1780   -0.4270 C   0  0  0  0  0  0  0  0  0  0  0  0
    6.0950    0.2730   -1.0320 C   0  0  0  0  0  0  0  0  0  0  0  0
    7.2380   -0.4470   -0.9050 C   0  0  0  0  0  0  0  0  0  0  0  0
    7.2370   -1.6090   -0.1820 C   0  0  0  0  0  0  0  0  0  0  0  0
    6.1140   -2.0340    0.3980 N   0  0  0  0  0  0  0  0  0  0  0  0
    4.9670   -1.3460    0.2920 C   0  0  0  0  0  0  0  0  0  0  0  0
    1.5310    2.4620   -1.1120 S   0  0  0  0  0  0  0  0  0  0  0  0
  1  2  1  0
  2  3  2  0
  2 26  1  0
  3  4  1  0
  4  5  1  0
  4 17  2  0
  5  6  2  0
  5  7  1  0
  7  8  2  0
  7 16  1  0
  8  9  1  0
  9 10  2  0
 10 11  1  0
 10 15  1  0
 11 12  2  0
 12 13  1  0
 13 14  2  0
 14 15  1  0
 15 16  2  0
 17 18  1  0
 17 26  1  0
 18 19  1  0
 19 20  1  0
 20 21  2  0
 20 25  1  0
 21 22  1  0
 22 23  2  0
 23 24  1  0
 24 25  2  0
M  END
