
     RDKit          3D

 17 18  0  0  0  0  0  0  0  0999 V2000
   -2.4170    1.9160   -1.3660 N   0  0  0  0  0  0  0  0  0  0  0  0
   -3.1430    0.8460   -0.7720 C   0  0  0  0  0  0  0  0  0  0  0  0
   -4.5140    0.8360   -0.8010 C   0  0  0  0  0  0  0  0  0  0  0  0
   -5.2510   -0.1480   -0.2560 N   0  0  0  0  0  0  0  0  0  0  0  0
   -4.6730   -1.1920    0.3550 C   0  0  0  0  0  0  0  0  0  0  0  0
   -3.2760   -1.2140    0.4020 C   0  0  0  0  0  0  0  0  0  0  0  0
   -2.4890   -0.2310   -0.1410 C   0  0  0  0  0  0  0  0  0  0  0  0
   -1.0900   -0.1800   -0.1350 N   0  0  0  0  0  0  0  0  0  0  0  0
   -0.2700   -1.1650    0.4490 C   0  0  0  0  0  0  0  0  0  0  0  0
   -0.7550   -2.1710    1.0120 O   0  0  0  0  0  0  0  0  0  0  0  0
    1.1660   -1.0330    0.4090 C   0  0  0  0  0  0  0  0  0  0  0  0
    1.7730   -0.0330   -0.1480 C   0  0  0  0  0  0  0  0  0  0  0  0
    3.2390    0.0070   -0.1350 C   0  0  0  0  0  0  0  0  0  0  0  0
    4.1620    0.8590   -0.5990 C   0  0  0  0  0  0  0  0  0  0  0  0
    5.4610    0.6160   -0.4280 C   0  0  0  0  0  0  0  0  0  0  0  0
    5.8220   -0.5200    0.2310 C   0  0  0  0  0  0  0  0  0  0  0  0
    4.2710   -1.3030    0.6400 S   0  0  0  0  0  0  0  0  0  0  0  0
  1  2  1  0
  2  3  2  0
  2  7  1  0
  3  4  1  0
  4  5  2  0
  5  6  1  0
  6  7  2  0
  7  8  1  0
  8  9  1  0
  9 10  2  0
  9 11  1  0
 11 12  2  3
 12 13  1  0
 13 14  2  0
 13 17  1  0
 14 15  1  0
 15 16  2  0
 16 17  1  0
M  END
