
     RDKit          3D

 17 18  0  0  0  0  0  0  0  0999 V2000
    5.1780   -0.2550   -0.6560 C   0  0  0  0  0  0  0  0  0  0  0  0
    4.5370   -0.1940    0.7350 C   0  0  0  0  0  0  0  0  0  0  0  0
    3.0760   -0.1370    0.5320 C   0  0  0  0  0  0  0  0  0  0  0  0
    2.3230   -1.2200    0.4610 N   0  0  0  0  0  0  0  0  0  0  0  0
    0.9940   -1.2090    0.2790 C   0  0  0  0  0  0  0  0  0  0  0  0
    0.1900   -2.7930    0.2860 S   0  0  0  0  0  0  0  0  0  0  0  0
    0.3190   -0.0160    0.1490 C   0  0  0  0  0  0  0  0  0  0  0  0
   -1.1030    0.0590   -0.1300 C   0  0  0  0  0  0  0  0  0  0  0  0
   -1.8050    1.1630    0.0360 C   0  0  0  0  0  0  0  0  0  0  0  0
   -3.2760    1.0740   -0.3000 C   0  0  2  0  0  0  0  0  0  0  0  0
   -3.9610    2.2520    0.2530 N   0  0  0  0  0  0  0  0  0  0  0  0
   -3.8260   -0.1030    0.4550 C   0  0  0  0  0  0  0  0  0  0  0  0
   -2.9870   -1.3610    0.2970 C   0  0  0  0  0  0  0  0  0  0  0  0
   -1.9170   -1.0680   -0.7020 C   0  0  0  0  0  0  0  0  0  0  0  0
    1.1080    1.1280    0.2230 C   0  0  0  0  0  0  0  0  0  0  0  0
    0.6600    2.2870    0.1240 O   0  0  0  0  0  0  0  0  0  0  0  0
    2.4580    1.0430    0.4120 N   0  0  0  0  0  0  0  0  0  0  0  0
  1  2  1  0
  2  3  1  0
  3  4  2  0
  3 17  1  0
  4  5  1  0
  5  6  1  0
  5  7  2  0
  7  8  1  0
  7 15  1  0
  8  9  2  0
  8 14  1  0
  9 10  1  0
 10 11  1  1
 10 12  1  0
 12 13  1  0
 13 14  1  0
 15 16  2  0
 15 17  1  0
M  END
