
     RDKit          3D

 17 17  0  0  0  0  0  0  0  0999 V2000
    6.0240   -3.2490    3.3160 C   0  0  0  0  0  0  0  0  0  0  0  0
    6.2880   -1.4660    3.4320 S   0  0  0  0  0  0  0  0  0  0  0  0
    5.5250   -0.6090    1.9880 C   0  0  0  0  0  0  0  0  0  0  0  0
    4.0650   -0.7660    2.0510 C   0  0  0  0  0  0  0  0  0  0  0  0
    2.8470   -0.9080    2.1240 C   0  0  0  0  0  0  0  0  0  0  0  0
    1.4130   -1.0600    2.2260 C   0  0  0  0  0  0  0  0  0  0  0  0
    0.7740   -0.3930    1.0790 N   0  0  0  0  0  0  0  0  0  0  0  0
   -0.6290   -0.3950    0.9430 C   0  0  0  0  0  0  0  0  0  0  0  0
   -1.3600   -0.9710    1.7760 O   0  0  0  0  0  0  0  0  0  0  0  0
   -1.2840    0.2690   -0.1570 N   0  0  0  0  0  0  0  0  0  0  0  0
   -2.6900    0.2680   -0.3000 C   0  0  0  0  0  0  0  0  0  0  0  0
   -3.2570    1.0130   -1.4190 C   0  0  0  0  0  0  0  0  0  0  0  0
   -2.5940    1.7000   -2.3130 C   0  0  0  0  0  0  0  0  0  0  0  0
   -3.1490    2.4630   -3.4550 C   0  0  0  0  0  0  0  0  0  0  0  0
   -4.5610    2.4580   -3.4670 N   0  0  0  0  0  0  0  0  0  0  0  0
   -5.3130    1.7180   -2.5250 C   0  0  0  0  0  0  0  0  0  0  0  0
   -4.7480    1.0390   -1.5630 C   0  0  0  0  0  0  0  0  0  0  0  0
  1  2  1  0
  2  3  1  0
  3  4  1  0
  4  5  3  0
  5  6  1  0
  6  7  1  0
  7  8  1  0
  8  9  2  0
  8 10  1  0
 10 11  1  0
 11 12  1  0
 12 13  2  0
 12 17  1  0
 13 14  1  0
 14 15  1  0
 15 16  1  0
 16 17  2  0
M  END
