
     RDKit          3D

 15 15  0  0  0  0  0  0  0  0999 V2000
   -3.6190    0.1350   -2.1800 C   0  0  0  0  0  0  0  0  0  0  0  0
   -3.0140    0.1090   -1.0160 C   0  0  0  0  0  0  0  0  0  0  0  0
   -3.5990   -0.6150    0.1250 C   0  0  0  0  0  0  0  0  0  0  0  0
   -3.8770    0.3090    1.3030 C   0  0  0  0  0  0  0  0  0  0  0  0
   -4.4250   -0.4420    2.3320 O   0  0  0  0  0  0  0  0  0  0  0  0
   -1.7280    0.8290   -0.8910 C   0  0  0  0  0  0  0  0  0  0  0  0
   -0.6990   -0.2400   -0.4980 C   0  0  0  0  0  0  0  0  0  0  0  0
    0.6700    0.3790   -0.3380 C   0  0  0  0  0  0  0  0  0  0  0  0
    1.6380   -0.5700    0.0220 O   0  0  0  0  0  0  0  0  0  0  0  0
    2.9460   -0.1870    0.2110 C   0  0  0  0  0  0  0  0  0  0  0  0
    3.2990    1.1270    0.0470 C   0  0  0  0  0  0  0  0  0  0  0  0
    4.6200    1.5220    0.2370 C   0  0  0  0  0  0  0  0  0  0  0  0
    5.5840    0.6060    0.5900 C   0  0  0  0  0  0  0  0  0  0  0  0
    5.2200   -0.7140    0.7530 C   0  0  0  0  0  0  0  0  0  0  0  0
    3.8940   -1.1090    0.5620 C   0  0  0  0  0  0  0  0  0  0  0  0
  1  2  2  0
  2  3  1  0
  2  6  1  0
  3  4  1  0
  4  5  1  0
  6  7  1  0
  7  8  1  0
  8  9  1  0
  9 10  1  0
 10 11  2  0
 10 15  1  0
 11 12  1  0
 12 13  2  0
 13 14  1  0
 14 15  2  0
M  END
