
     RDKit          3D

 16 16  0  0  0  0  0  0  0  0999 V2000
    4.8250    1.0770   -0.8990 C   0  0  0  0  0  0  0  0  0  0  0  0
    5.3240   -0.2500   -0.4650 C   0  0  0  0  0  0  0  0  0  0  0  0
    4.7100   -0.8100    0.7670 C   0  0  0  0  0  0  0  0  0  0  0  0
    3.2700   -1.1230    0.6710 C   0  0  0  0  0  0  0  0  0  0  0  0
    2.3110   -0.0320    0.3640 C   0  0  0  0  0  0  0  0  0  0  0  0
    0.9000   -0.6950    0.4090 C   0  0  0  0  0  0  0  0  0  0  0  0
   -0.1340    0.3560    0.1050 C   0  0  0  0  0  0  0  0  0  0  0  0
   -1.5030   -0.2880    0.1490 C   0  0  0  0  0  0  0  0  0  0  0  0
   -2.4520    0.6910   -0.1330 O   0  0  0  0  0  0  0  0  0  0  0  0
   -3.8180    0.4720   -0.1820 C   0  0  0  0  0  0  0  0  0  0  0  0
   -4.3000   -0.7960    0.0610 C   0  0  0  0  0  0  0  0  0  0  0  0
   -5.6510   -1.0580    0.0220 C   0  0  0  0  0  0  0  0  0  0  0  0
   -6.5810   -0.0760   -0.2590 C   0  0  0  0  0  0  0  0  0  0  0  0
   -6.0760    1.1860   -0.4990 C   0  0  0  0  0  0  0  0  0  0  0  0
   -4.7260    1.4650   -0.4640 C   0  0  0  0  0  0  0  0  0  0  0  0
   -4.2440    2.7530   -0.7110 O   0  0  0  0  0  0  0  0  0  0  0  0
  1  2  1  0
  2  3  1  0
  3  4  1  0
  4  5  1  0
  5  6  1  0
  6  7  1  0
  7  8  1  0
  8  9  1  0
  9 10  1  0
 10 11  2  0
 10 15  1  0
 11 12  1  0
 12 13  2  0
 13 14  1  0
 14 15  2  0
 15 16  1  0
M  END
