
     RDKit          3D

 14 14  0  0  0  0  0  0  0  0999 V2000
   -3.7550    0.6420   -1.0990 C   0  0  0  0  0  0  0  0  0  0  0  0
   -3.1880   -0.1060    0.0740 C   0  0  2  0  0  0  0  0  0  0  0  0
   -3.5780    0.5550    1.3790 C   0  0  0  0  0  0  0  0  0  0  0  0
   -1.8180   -0.2780    0.0490 O   0  0  0  0  0  0  0  0  0  0  0  0
   -1.1390   -1.4810    0.0100 C   0  0  0  0  0  0  0  0  0  0  0  0
   -1.8520   -2.5170   -0.0050 O   0  0  0  0  0  0  0  0  0  0  0  0
    0.3240   -1.4840   -0.0120 C   0  0  0  0  0  0  0  0  0  0  0  0
    0.8140   -0.1580    0.0130 O   0  0  0  0  0  0  0  0  0  0  0  0
    2.1770    0.1330   -0.0010 C   0  0  0  0  0  0  0  0  0  0  0  0
    2.5990    1.0190   -0.8810 C   0  0  0  0  0  0  0  0  0  0  0  0
    4.0310    1.3630   -0.9360 C   0  0  0  0  0  0  0  0  0  0  0  0
    4.8260    0.6790   -0.0010 O   0  0  0  0  0  0  0  0  0  0  0  0
    4.3900   -0.2430    0.9160 C   0  0  0  0  0  0  0  0  0  0  0  0
    3.1010   -0.5270    0.9370 C   0  0  0  0  0  0  0  0  0  0  0  0
  2  1  1  6
  2  3  1  0
  2  4  1  0
  4  5  1  0
  5  6  2  0
  5  7  1  0
  7  8  1  0
  8  9  1  0
  9 10  2  0
  9 14  1  0
 10 11  1  0
 11 12  1  0
 12 13  1  0
 13 14  2  0
M  END
