
     RDKit          3D

 16 16  0  0  0  0  0  0  0  0999 V2000
    5.6270   -0.7130   -0.2070 C   0  0  0  0  0  0  0  0  0  0  0  0
    4.7130   -0.6360    0.7480 C   0  0  0  0  0  0  0  0  0  0  0  0
    4.1490    0.6660    1.1170 C   0  0  0  0  0  0  0  0  0  0  0  0
    2.6480    0.7280    0.9180 C   0  0  0  0  0  0  0  0  0  0  0  0
    2.2460    0.4890   -0.4980 C   0  0  2  0  0  0  0  0  0  0  0  0
    2.7900    1.4220   -1.3790 O   0  0  0  0  0  0  0  0  0  0  0  0
    0.7520    0.5840   -0.6050 C   0  0  0  0  0  0  0  0  0  0  0  0
    0.0860   -0.3240    0.2500 O   0  0  0  0  0  0  0  0  0  0  0  0
   -1.3020   -0.3130    0.2240 C   0  0  0  0  0  0  0  0  0  0  0  0
   -2.0330    0.5350   -0.5900 C   0  0  0  0  0  0  0  0  0  0  0  0
   -3.4150    0.5270   -0.5970 C   0  0  0  0  0  0  0  0  0  0  0  0
   -4.1980    1.4470   -1.4800 C   0  0  0  0  0  0  0  0  0  0  0  0
   -4.1200   -0.3440    0.2220 C   0  0  0  0  0  0  0  0  0  0  0  0
   -3.4050   -1.1940    1.0390 C   0  0  0  0  0  0  0  0  0  0  0  0
   -4.1470   -2.1390    1.9280 C   0  0  0  0  0  0  0  0  0  0  0  0
   -2.0220   -1.1670    1.0280 C   0  0  0  0  0  0  0  0  0  0  0  0
  1  2  2  0
  2  3  1  0
  3  4  1  0
  4  5  1  0
  5  6  1  6
  5  7  1  0
  7  8  1  0
  8  9  1  0
  9 10  2  0
  9 16  1  0
 10 11  1  0
 11 12  1  0
 11 13  2  0
 13 14  1  0
 14 15  1  0
 14 16  2  0
M  END
