
     RDKit          3D

 21 23  0  0  0  0  0  0  0  0999 V2000
    5.0950    2.3930   -0.7180 O   0  0  0  0  0  0  0  0  0  0  0  0
    4.4540    1.2030   -0.3420 C   0  0  0  0  0  0  0  0  0  0  0  0
    5.2330    0.1330   -0.0080 C   0  0  0  0  0  0  0  0  0  0  0  0
    4.6570   -1.0490    0.3650 C   0  0  0  0  0  0  0  0  0  0  0  0
    3.2600   -1.1400    0.4000 C   0  0  0  0  0  0  0  0  0  0  0  0
    2.4240   -0.0950    0.0740 C   0  0  0  0  0  0  0  0  0  0  0  0
    1.1160   -0.1020    0.0810 O   0  0  0  0  0  0  0  0  0  0  0  0
    0.0040   -0.7720    0.2970 C   0  0  0  0  0  0  0  0  0  0  0  0
   -0.1120   -2.0820    0.7090 C   0  0  0  0  0  0  0  0  0  0  0  0
   -1.3400   -2.6970    0.9070 C   0  0  0  0  0  0  0  0  0  0  0  0
   -2.4890   -1.9900    0.6900 C   0  0  0  0  0  0  0  0  0  0  0  0
   -3.7510   -2.5640    0.8760 O   0  0  0  0  0  0  0  0  0  0  0  0
   -2.4390   -0.6710    0.2750 C   0  0  0  0  0  0  0  0  0  0  0  0
   -1.2150   -0.0790    0.0840 C   0  0  0  0  0  0  0  0  0  0  0  0
   -1.1710    1.2440   -0.3320 O   0  0  0  0  0  0  0  0  0  0  0  0
   -2.2840    1.7390   -1.0560 C   0  0  0  0  0  0  0  0  0  0  0  0
   -3.4850    1.5240   -0.1240 C   0  0  1  0  0  0  0  0  0  0  0  0
   -4.5860    2.1740   -0.6650 O   0  0  0  0  0  0  0  0  0  0  0  0
   -3.7360    0.0670    0.0520 C   0  0  0  0  0  0  0  0  0  0  0  0
    3.1020    1.0890   -0.3010 C   0  0  0  0  0  0  0  0  0  0  0  0
    2.3400    2.1850   -0.6420 O   0  0  0  0  0  0  0  0  0  0  0  0
  1  2  1  0
  2  3  2  0
  2 20  1  0
  3  4  1  0
  4  5  2  0
  5  6  1  0
  6  7  1  0
  6 20  2  0
  7  8  1  0
  8  9  2  0
  8 14  1  0
  9 10  1  0
 10 11  2  0
 11 12  1  0
 11 13  1  0
 13 14  2  0
 13 19  1  0
 14 15  1  0
 15 16  1  0
 16 17  1  0
 17 18  1  6
 17 19  1  0
 20 21  1  0
M  END
