
     RDKit          3D

 21 23  0  0  0  0  0  0  0  0999 V2000
    3.1710   -2.6620    0.1290 C   0  0  0  0  0  0  0  0  0  0  0  0
    3.1360   -1.5340   -0.7040 O   0  0  0  0  0  0  0  0  0  0  0  0
    2.4540   -0.3630   -0.2930 C   0  0  0  0  0  0  0  0  0  0  0  0
    3.1250    0.5940    0.4030 C   0  0  0  0  0  0  0  0  0  0  0  0
    4.4740    0.4180    0.7090 O   0  0  0  0  0  0  0  0  0  0  0  0
    2.4480    1.7160    0.7880 C   0  0  0  0  0  0  0  0  0  0  0  0
    1.1100    1.8680    0.4730 C   0  0  0  0  0  0  0  0  0  0  0  0
    0.5020    3.0210    0.8540 C   0  0  0  0  0  0  0  0  0  0  0  0
    1.1010    4.0540    1.5610 O   0  0  0  0  0  0  0  0  0  0  0  0
   -0.8430    3.1920    0.5080 C   0  0  0  0  0  0  0  0  0  0  0  0
   -1.4840    2.2330   -0.1740 C   0  0  0  0  0  0  0  0  0  0  0  0
   -0.9090    1.0100   -0.5970 C   0  0  0  0  0  0  0  0  0  0  0  0
   -1.7610    0.0150   -1.2410 C   0  0  2  0  0  0  0  0  0  0  0  0
   -3.0520    0.2190   -0.5990 O   0  0  0  0  0  0  0  0  0  0  0  0
   -3.1860   -0.5640    0.5280 C   0  0  0  0  0  0  0  0  0  0  0  0
   -3.4550   -2.0330    0.1250 C   0  0  0  0  0  0  0  0  0  0  0  0
   -2.5930   -2.1560   -1.1530 C   0  0  0  0  0  0  0  0  0  0  0  0
   -1.5370   -1.3150   -0.9140 O   0  0  0  0  0  0  0  0  0  0  0  0
    0.4090    0.8890   -0.2400 C   0  0  0  0  0  0  0  0  0  0  0  0
    1.1090   -0.2100   -0.6100 C   0  0  0  0  0  0  0  0  0  0  0  0
    0.5560   -1.2300   -1.3150 O   0  0  0  0  0  0  0  0  0  0  0  0
  1  2  1  0
  2  3  1  0
  3  4  2  0
  3 20  1  0
  4  5  1  0
  4  6  1  0
  6  7  2  0
  7  8  1  0
  7 19  1  0
  8  9  1  0
  8 10  2  0
 10 11  1  0
 11 12  2  0
 13 12  1  1
 12 19  1  0
 13 14  1  0
 13 18  1  0
 14 15  1  0
 15 16  1  0
 16 17  1  0
 17 18  1  0
 19 20  2  0
 20 21  1  0
M  END
