
     RDKit          3D

 24 26  0  0  0  0  0  0  0  0999 V2000
   -3.9030   -2.2660   -0.1010 C   0  0  0  0  0  0  0  0  0  0  0  0
   -4.5850   -0.9680    0.0720 C   0  0  0  0  0  0  0  0  0  0  0  0
   -5.9810   -0.8890   -0.0390 C   0  0  0  0  0  0  0  0  0  0  0  0
   -6.6400    0.2980    0.1840 C   0  0  0  0  0  0  0  0  0  0  0  0
   -5.8870    1.3950    0.5150 C   0  0  0  0  0  0  0  0  0  0  0  0
   -6.5320    2.5790    0.7290 F   0  0  0  0  0  0  0  0  0  0  0  0
   -4.5190    1.3510    0.6310 C   0  0  0  0  0  0  0  0  0  0  0  0
   -3.8630    0.1520    0.4040 C   0  0  0  0  0  0  0  0  0  0  0  0
   -2.4110    0.1650    0.4570 C   0  0  0  0  0  0  0  0  0  0  0  0
   -1.8780    0.6870    1.4950 O   0  0  0  0  0  0  0  0  0  0  0  0
   -1.6550   -0.3800   -0.6060 N   0  0  0  0  0  0  0  0  0  0  0  0
   -0.2210   -0.3780   -0.5770 C   0  0  0  0  0  0  0  0  0  0  0  0
    0.3610    0.9850   -0.5680 C   0  0  1  0  0  0  0  0  0  0  0  0
   -0.0190    1.8220    0.4530 O   0  0  0  0  0  0  0  0  0  0  0  0
    1.8680    0.9280   -0.4530 C   0  0  0  0  0  0  0  0  0  0  0  0
    2.5840    2.0980   -0.3990 C   0  0  0  0  0  0  0  0  0  0  0  0
    3.9640    2.0490   -0.2060 C   0  0  0  0  0  0  0  0  0  0  0  0
    4.6100    0.8370   -0.0700 C   0  0  0  0  0  0  0  0  0  0  0  0
    5.8910    0.4830    0.1530 N   0  0  0  0  0  0  0  0  0  0  0  0
    6.0010   -0.8540    0.2370 C   0  0  0  0  0  0  0  0  0  0  0  0
    7.1760   -1.6270    0.4850 N   0  0  0  0  0  0  0  0  0  0  0  0
    4.7360   -1.3280    0.0570 N   0  0  0  0  0  0  0  0  0  0  0  0
    3.8630   -0.3250   -0.1320 C   0  0  0  0  0  0  0  0  0  0  0  0
    2.4790   -0.2760   -0.3260 C   0  0  0  0  0  0  0  0  0  0  0  0
  1  2  1  0
  2  3  2  0
  2  8  1  0
  3  4  1  0
  4  5  2  0
  5  6  1  0
  5  7  1  0
  7  8  2  0
  8  9  1  0
  9 10  2  0
  9 11  1  0
 11 12  1  0
 12 13  1  0
 13 14  1  1
 13 15  1  0
 15 16  2  0
 15 24  1  0
 16 17  1  0
 17 18  2  0
 18 19  1  0
 18 23  1  0
 19 20  1  0
 20 21  1  0
 20 22  2  0
 22 23  1  0
 23 24  2  0
M  CHG  1  22   1
M  END
