
     RDKit          3D

 21 23  0  0  0  0  0  0  0  0999 V2000
   -3.7400   -0.5650   -2.5770 O   0  0  0  0  0  0  0  0  0  0  0  0
   -2.9300   -0.0340   -1.7540 C   0  0  0  0  0  0  0  0  0  0  0  0
   -2.0100    0.8430   -2.2790 O   0  0  0  0  0  0  0  0  0  0  0  0
   -3.0190   -0.3680   -0.3320 C   0  0  0  0  0  0  0  0  0  0  0  0
   -4.1750   -1.0510    0.0960 C   0  0  0  0  0  0  0  0  0  0  0  0
   -4.3980   -1.2250    1.4420 C   0  0  0  0  0  0  0  0  0  0  0  0
   -3.5050   -0.7390    2.3750 C   0  0  0  0  0  0  0  0  0  0  0  0
   -2.3880   -0.0820    1.9570 C   0  0  0  0  0  0  0  0  0  0  0  0
   -2.1170    0.1160    0.5730 C   0  0  0  0  0  0  0  0  0  0  0  0
   -0.9940    0.7730    0.2550 O   0  0  0  0  0  0  0  0  0  0  0  0
    0.2970    0.4200   -0.0140 C   0  0  0  0  0  0  0  0  0  0  0  0
    1.2640    1.1570    0.7170 C   0  0  0  0  0  0  0  0  0  0  0  0
    2.5850    0.9030    0.5470 C   0  0  0  0  0  0  0  0  0  0  0  0
    3.0090   -0.0600   -0.3260 C   0  0  0  0  0  0  0  0  0  0  0  0
    2.1120   -0.8090   -1.0630 C   0  0  0  0  0  0  0  0  0  0  0  0
    2.5610   -1.7780   -1.9390 O   0  0  0  0  0  0  0  0  0  0  0  0
    0.7400   -0.5400   -0.8790 C   0  0  0  0  0  0  0  0  0  0  0  0
   -0.1670   -1.2870   -1.6020 O   0  0  0  0  0  0  0  0  0  0  0  0
    4.4090   -0.1320   -0.3260 O   0  0  0  0  0  0  0  0  0  0  0  0
    4.8400    1.1900    0.0480 C   0  0  0  0  0  0  0  0  0  0  0  0
    3.8470    1.4740    1.1500 C   0  0  0  0  0  0  0  0  0  0  0  0
  1  2  2  0
  2  3  1  0
  2  4  1  0
  4  5  2  0
  4  9  1  0
  5  6  1  0
  6  7  2  0
  7  8  1  0
  8  9  2  0
  9 10  1  0
 10 11  1  0
 11 12  2  0
 11 17  1  0
 12 13  1  0
 13 14  2  0
 13 21  1  0
 14 15  1  0
 14 19  1  0
 15 16  1  0
 15 17  2  0
 17 18  1  0
 19 20  1  0
 20 21  1  0
M  END
