
     RDKit          3D

 19 19  0  0  0  0  0  0  0  0999 V2000
   -1.4860   -0.3740    2.9040 C   0  0  0  0  0  0  0  0  0  0  0  0
   -1.4800    0.3900    1.6560 C   0  0  0  0  0  0  0  0  0  0  0  0
   -2.0410    1.5490    1.4410 C   0  0  0  0  0  0  0  0  0  0  0  0
   -1.9900    2.2460    0.1650 C   0  0  0  0  0  0  0  0  0  0  0  0
   -2.3130    3.4410    0.0670 O   0  0  0  0  0  0  0  0  0  0  0  0
   -1.5350    1.5070   -1.0690 C   0  0  0  0  0  0  0  0  0  0  0  0
   -1.7250    0.0340   -0.6900 C   0  0  1  0  0  0  0  0  0  0  0  0
   -3.1390   -0.1350   -0.1950 C   0  0  0  0  0  0  0  0  0  0  0  0
   -1.5030   -0.8710   -1.8430 C   0  0  0  0  0  0  0  0  0  0  0  0
   -0.7250   -0.2210    0.4580 C   0  0  2  0  0  0  0  0  0  0  0  0
   -0.5980   -1.5640    0.6980 O   0  0  0  0  0  0  0  0  0  0  0  0
    0.4630    0.5840    0.3320 C   0  0  0  0  0  0  0  0  0  0  0  0
    1.6770    0.3830   -0.0370 C   0  0  0  0  0  0  0  0  0  0  0  0
    2.4280   -0.7300   -0.5000 C   0  0  0  0  0  0  0  0  0  0  0  0
    1.8650   -2.0840   -0.6810 C   0  0  0  0  0  0  0  0  0  0  0  0
    3.7350   -0.5870   -0.8090 C   0  0  0  0  0  0  0  0  0  0  0  0
    4.5040    0.6090   -0.7250 C   0  0  0  0  0  0  0  0  0  0  0  0
    4.1750    1.7330   -0.3720 O   0  0  0  0  0  0  0  0  0  0  0  0
    5.8660    0.4930   -1.1060 O   0  0  0  0  0  0  0  0  0  0  0  0
  1  2  1  0
  2  3  2  0
  2 10  1  0
  3  4  1  0
  4  5  2  0
  4  6  1  0
  6  7  1  0
  7  8  1  1
  7  9  1  0
  7 10  1  0
 10 11  1  1
 10 12  1  0
 12 13  2  3
 13 14  1  0
 14 15  1  0
 14 16  2  3
 16 17  1  0
 17 18  2  0
 17 19  1  0
M  END
