
     RDKit          3D

 31 32  0  0  0  0  0  0  0  0999 V2000
   -4.0820   -0.7350   -0.8720 N   0  0  0  0  0  0  0  0  0  0  0  0
   -3.3520   -0.3090    0.0880 C   0  0  0  0  0  0  0  0  0  0  0  0
   -3.5240   -0.9400    1.3680 N   0  0  0  0  0  0  0  0  0  0  0  0
   -4.6830   -2.3080    1.5330 P   0  0  0  0  0  0  0  0  0  0  0  0
   -6.1520   -1.9090    0.6700 O   0  0  0  0  0  0  0  0  0  0  0  0
   -4.0050   -3.7020    0.7180 O   0  0  0  0  0  0  0  0  0  0  0  0
   -2.3900    0.7340   -0.0510 N   0  0  0  0  0  0  0  0  0  0  0  0
   -1.0130    0.4960    0.3300 C   0  0  0  0  0  0  0  0  0  0  0  0
   -0.3820   -0.4780   -0.5990 C   0  0  0  0  0  0  0  0  0  0  0  0
   -1.0920   -0.9280   -1.5320 O   0  0  0  0  0  0  0  0  0  0  0  0
    0.9900   -0.8820   -0.4260 N   0  0  0  0  0  0  0  0  0  0  0  0
    1.7790   -0.3500    0.6460 C   0  0  0  0  0  0  0  0  0  0  0  0
    3.2360   -0.6160    0.4110 C   0  0  2  0  0  0  0  0  0  0  0  0
    4.0520   -0.2280    1.4580 O   0  0  0  0  0  0  0  0  0  0  0  0
    5.3120   -0.1270    0.8820 C   0  0  2  0  0  0  0  0  0  0  0  0
    6.3870    1.1340    1.7160 P   0  0  0  0  0  0  0  0  0  0  0  0
    7.9730    0.4950    2.0540 O   0  0  0  0  0  0  0  0  0  0  0  0
    6.6310    2.5350    0.7080 O   0  0  0  0  0  0  0  0  0  0  0  0
    5.1210    0.3170   -0.4630 O   0  0  0  0  0  0  0  0  0  0  0  0
    3.7500    0.2890   -0.6810 C   0  0  0  0  0  0  0  0  0  0  0  0
    3.0730    0.8690   -1.5670 O   0  0  0  0  0  0  0  0  0  0  0  0
    3.5130   -2.0030   -0.0520 C   0  0  0  0  0  0  0  0  0  0  0  0
    4.3260   -2.7830    0.5050 O   0  0  0  0  0  0  0  0  0  0  0  0
    2.7790   -2.4210   -1.2110 N   0  0  0  0  0  0  0  0  0  0  0  0
    1.4920   -1.8340   -1.3800 C   0  0  0  0  0  0  0  0  0  0  0  0
    0.8160   -2.1750   -2.3860 O   0  0  0  0  0  0  0  0  0  0  0  0
   -2.7970    2.0010   -0.5640 C   0  0  1  0  0  0  0  0  0  0  0  0
   -3.3490    1.8680   -1.9010 N   0  0  0  0  0  0  0  0  0  0  0  0
   -4.0300    2.8830    0.4820 P   0  0  0  0  0  0  0  0  0  0  0  0
   -4.4370    2.0450    1.9230 O   0  0  0  0  0  0  0  0  0  0  0  0
   -5.4010    3.4440   -0.4010 O   0  0  0  0  0  0  0  0  0  0  0  0
  1  2  2  0
  2  3  1  0
  2  7  1  0
  3  4  1  0
  4  5  1  0
  4  6  1  0
  7  8  1  0
  7 27  1  0
  8  9  1  0
  9 10  2  0
  9 11  1  0
 11 12  1  0
 11 25  1  0
 13 12  1  1
 13 14  1  0
 13 20  1  0
 13 22  1  0
 14 15  1  0
 15 16  1  1
 15 19  1  0
 16 17  1  0
 16 18  1  0
 19 20  1  0
 20 21  2  0
 22 23  2  0
 22 24  1  0
 24 25  1  0
 25 26  2  0
 27 28  1  6
 27 29  1  0
 29 30  1  0
 29 31  1  0
M  END
