
     RDKit          3D

 32 32  0  0  0  0  0  0  0  0999 V2000
    5.2300   -1.7700   -2.2850 N   0  0  0  0  0  0  0  0  0  0  0  0
    3.9010   -1.6000   -1.7790 C   0  0  0  0  0  0  0  0  0  0  0  0
    3.6680   -2.1430   -0.6800 O   0  0  0  0  0  0  0  0  0  0  0  0
    2.9330   -0.9000   -2.4290 O   0  0  0  0  0  0  0  0  0  0  0  0
    1.6640   -0.7130   -1.9940 N   0  0  0  0  0  0  0  0  0  0  0  0
    1.2920   -0.3320   -0.6790 C   0  0  0  0  0  0  0  0  0  0  0  0
    2.2000   -0.1690    0.1670 O   0  0  0  0  0  0  0  0  0  0  0  0
   -0.0810   -0.1320   -0.3100 N   0  0  0  0  0  0  0  0  0  0  0  0
   -0.5140    0.2560    1.0040 C   0  0  2  0  0  0  0  0  0  0  0  0
    0.1890    1.5180    1.4090 C   0  0  0  0  0  0  0  0  0  0  0  0
   -0.0420    2.6490    0.4630 C   0  0  1  0  0  0  0  0  0  0  0  0
    0.6480    3.8000    0.9350 O   0  0  0  0  0  0  0  0  0  0  0  0
   -0.3660    5.1940    0.8170 P   0  0  0  0  0  0  0  0  0  0  0  0
   -0.9560    5.8960    2.0490 O   0  0  0  0  0  0  0  0  0  0  0  0
    0.5610    2.3910   -0.7860 O   0  0  0  0  0  0  0  0  0  0  0  0
   -0.4700    2.8200   -2.1090 P   0  0  0  0  0  0  0  0  0  0  0  0
    0.3250    3.8020   -3.2710 O   0  0  0  0  0  0  0  0  0  0  0  0
   -1.8250    3.7020   -1.4830 O   0  0  0  0  0  0  0  0  0  0  0  0
   -0.4090   -0.8320    2.0410 C   0  0  0  0  0  0  0  0  0  0  0  0
   -1.2720   -2.0320    1.7600 C   0  0  1  0  0  0  0  0  0  0  0  0
   -1.0350   -2.9540    2.8880 N   0  0  0  0  0  0  0  0  0  0  0  0
   -2.6550   -1.7280    1.7460 N   0  0  0  0  0  0  0  0  0  0  0  0
   -3.1860   -2.1650    0.7070 N   0  0  0  0  0  0  0  0  0  0  0  0
   -2.2650   -2.8310   -0.1310 C   0  0  0  0  0  0  0  0  0  0  0  0
   -2.4430   -3.3870   -1.2520 O   0  0  0  0  0  0  0  0  0  0  0  0
   -1.0140   -2.7500    0.5740 N   0  0  0  0  0  0  0  0  0  0  0  0
    0.1800   -3.3630    0.0680 C   0  0  0  0  0  0  0  0  0  0  0  0
    1.2310   -3.2920    0.7650 O   0  0  0  0  0  0  0  0  0  0  0  0
    0.2260   -4.0250   -1.1490 O   0  0  0  0  0  0  0  0  0  0  0  0
   -2.3370    0.7400    0.8380 P   0  0  0  0  0  0  0  0  0  0  0  0
   -2.6810    2.1930    1.6900 O   0  0  0  0  0  0  0  0  0  0  0  0
   -2.8660    0.7100   -0.7830 O   0  0  0  0  0  0  0  0  0  0  0  0
  1  2  1  0
  2  3  2  0
  2  4  1  0
  4  5  1  0
  5  6  1  0
  6  7  2  0
  6  8  1  0
  8  9  1  0
  9 10  1  1
  9 19  1  0
  9 30  1  0
 11 10  1  1
 11 12  1  0
 11 15  1  0
 12 13  1  0
 13 14  2  0
 15 16  1  0
 16 17  1  0
 16 18  1  0
 19 20  1  0
 20 21  1  1
 20 22  1  0
 20 26  1  0
 22 23  2  0
 23 24  1  0
 24 25  2  0
 24 26  1  0
 26 27  1  0
 27 28  2  0
 27 29  1  0
 30 31  1  0
 30 32  1  0
M  END
