
     RDKit          3D

 13 14  0  0  0  0  0  0  0  0999 V2000
    3.5910   -0.4950   -0.4570 C   0  0  0  0  0  0  0  0  0  0  0  0
    2.1800   -0.0870   -0.2620 C   0  0  0  0  0  0  0  0  0  0  0  0
    1.8650    1.2380   -0.4000 C   0  0  0  0  0  0  0  0  0  0  0  0
    0.5390    1.6160   -0.2150 C   0  0  0  0  0  0  0  0  0  0  0  0
    0.0490    3.4610   -0.3990 Br  0  0  0  0  0  0  0  0  0  0  0  0
   -0.4390    0.7630    0.0880 N   0  0  0  0  0  0  0  0  0  0  0  0
   -1.7630    0.9550    0.3000 C   0  0  0  0  0  0  0  0  0  0  0  0
   -2.5150    2.2300    0.2480 C   0  0  0  0  0  0  0  0  0  0  0  0
   -2.2720   -0.3060    0.5780 C   0  0  0  0  0  0  0  0  0  0  0  0
   -1.2520   -1.2330    0.5290 C   0  0  0  0  0  0  0  0  0  0  0  0
   -1.3170   -2.7000    0.7570 C   0  0  0  0  0  0  0  0  0  0  0  0
   -0.1140   -0.5320    0.2200 C   0  0  0  0  0  0  0  0  0  0  0  0
    1.1950   -0.9960    0.0510 C   0  0  0  0  0  0  0  0  0  0  0  0
  1  2  1  0
  2  3  1  0
  2 13  2  0
  3  4  2  0
  4  5  1  0
  4  6  1  0
  6  7  1  0
  6 12  1  0
  7  8  1  0
  7  9  2  0
  9 10  1  0
 10 11  1  0
 10 12  2  0
 12 13  1  0
M  END
