
     RDKit          3D

 28 31  0  0  0  0  0  0  0  0999 V2000
    6.9410    2.2380   -2.6340 N   0  0  0  0  0  0  0  0  0  0  0  0
    6.7150    0.8840   -2.3320 C   0  0  0  0  0  0  0  0  0  0  0  0
    7.4370   -0.0030   -2.8290 O   0  0  0  0  0  0  0  0  0  0  0  0
    5.6170    0.5120   -1.4210 C   0  0  0  0  0  0  0  0  0  0  0  0
    5.5840   -0.9910   -1.2590 C   0  0  0  0  0  0  0  0  0  0  0  0
    4.4580   -1.3580   -0.3260 C   0  0  0  0  0  0  0  0  0  0  0  0
    2.8730   -0.7750   -1.0350 S   0  0  0  0  0  0  0  0  0  0  0  0
    1.5340   -1.2230    0.0940 C   0  0  0  0  0  0  0  0  0  0  0  0
    1.7980   -1.8770    1.2340 N   0  0  0  0  0  0  0  0  0  0  0  0
    0.7840   -2.1960    2.0500 C   0  0  0  0  0  0  0  0  0  0  0  0
    1.1140   -2.8900    3.2490 N   0  0  0  0  0  0  0  0  0  0  0  0
   -0.5000   -1.8680    1.7420 N   0  0  0  0  0  0  0  0  0  0  0  0
   -0.7840   -1.2070    0.5940 C   0  0  0  0  0  0  0  0  0  0  0  0
   -2.1640   -0.8610    0.2740 C   0  0  0  0  0  0  0  0  0  0  0  0
   -2.9890   -1.7050   -0.4440 C   0  0  0  0  0  0  0  0  0  0  0  0
   -2.2930   -3.2430   -0.9640 Cl  0  0  0  0  0  0  0  0  0  0  0  0
   -4.3020   -1.3820   -0.7520 C   0  0  0  0  0  0  0  0  0  0  0  0
   -4.7630   -0.1560   -0.3040 C   0  0  0  0  0  0  0  0  0  0  0  0
   -3.9810    0.7240    0.4150 C   0  0  0  0  0  0  0  0  0  0  0  0
   -4.4890    1.9350    0.8390 C   0  0  0  0  0  0  0  0  0  0  0  0
   -3.7190    2.8180    1.5560 C   0  0  0  0  0  0  0  0  0  0  0  0
   -2.4030    2.4340    1.8360 C   0  0  0  0  0  0  0  0  0  0  0  0
   -1.8980    1.2170    1.4080 C   0  0  0  0  0  0  0  0  0  0  0  0
   -2.6880    0.3550    0.6940 C   0  0  0  0  0  0  0  0  0  0  0  0
   -5.9190    2.2200    0.4620 C   0  0  0  0  0  0  0  0  0  0  0  0
   -6.1890    1.6160   -0.7920 O   0  0  0  0  0  0  0  0  0  0  0  0
   -6.1600    0.2390   -0.5980 C   0  0  0  0  0  0  0  0  0  0  0  0
    0.2630   -0.9110   -0.1890 N   0  0  0  0  0  0  0  0  0  0  0  0
  1  2  1  0
  2  3  2  0
  2  4  1  0
  4  5  1  0
  5  6  1  0
  6  7  1  0
  7  8  1  0
  8  9  2  0
  8 28  1  0
  9 10  1  0
 10 11  1  0
 10 12  2  0
 12 13  1  0
 13 14  1  0
 13 28  2  0
 14 15  2  0
 14 24  1  0
 15 16  1  0
 15 17  1  0
 17 18  2  0
 18 19  1  0
 18 27  1  0
 19 20  2  0
 19 24  1  0
 20 21  1  0
 20 25  1  0
 21 22  2  0
 22 23  1  0
 23 24  2  0
 25 26  1  0
 26 27  1  0
M  END
