
     RDKit          3D

 13 14  0  0  0  0  0  0  0  0999 V2000
   -5.6840    0.4720    0.0870 Br  0  0  0  0  0  0  0  0  0  0  0  0
   -3.8070    0.1220    0.1530 C   0  0  0  0  0  0  0  0  0  0  0  0
   -2.9810    0.5290   -0.8730 C   0  0  0  0  0  0  0  0  0  0  0  0
   -1.6240    0.2850   -0.8420 C   0  0  0  0  0  0  0  0  0  0  0  0
   -1.0280   -0.3770    0.2140 C   0  0  0  0  0  0  0  0  0  0  0  0
    0.3730   -0.6160    0.2210 N   0  0  0  0  0  0  0  0  0  0  0  0
    1.1990    0.2930   -0.1670 C   0  0  0  0  0  0  0  0  0  0  0  0
    2.6360    0.1000   -0.1780 C   0  0  0  0  0  0  0  0  0  0  0  0
    3.4740   -0.8870    0.1420 C   0  0  0  0  0  0  0  0  0  0  0  0
    4.6320   -0.0840   -0.2260 C   0  0  0  0  0  0  0  0  0  0  0  0
    3.8020    0.8950   -0.5440 C   0  0  0  0  0  0  0  0  0  0  0  0
   -1.8560   -0.7850    1.2400 C   0  0  0  0  0  0  0  0  0  0  0  0
   -3.2180   -0.5400    1.2090 C   0  0  0  0  0  0  0  0  0  0  0  0
  1  2  1  0
  2  3  2  0
  2 13  1  0
  3  4  1  0
  4  5  2  0
  5  6  1  0
  5 12  1  0
  6  7  2  3
  7  8  1  0
  8  9  2  0
  8 11  1  0
  9 10  1  0
 10 11  2  0
 12 13  2  0
M  END
