
     RDKit          3D

 13 14  0  0  0  0  0  0  0  0999 V2000
   -3.1520    1.0400    1.1850 C   0  0  0  0  0  0  0  0  0  0  0  0
   -2.5360    0.8500   -0.1620 C   0  0  0  0  0  0  0  0  0  0  0  0
   -1.3310    0.0010   -0.1660 C   0  0  0  0  0  0  0  0  0  0  0  0
   -0.0870    0.4880   -0.2760 N   0  0  0  0  0  0  0  0  0  0  0  0
    1.0050   -0.3110   -0.2780 C   0  0  0  0  0  0  0  0  0  0  0  0
    2.3320    0.2830   -0.4000 C   0  0  0  0  0  0  0  0  0  0  0  0
    2.8410    1.5150   -0.5260 C   0  0  0  0  0  0  0  0  0  0  0  0
    4.1840    0.9950   -0.5630 C   0  0  0  0  0  0  0  0  0  0  0  0
    3.6990   -0.2190   -0.4390 C   0  0  0  0  0  0  0  0  0  0  0  0
    0.8620   -1.6570   -0.1650 C   0  0  0  0  0  0  0  0  0  0  0  0
   -0.3740   -2.2140   -0.0510 C   0  0  0  0  0  0  0  0  0  0  0  0
   -1.4860   -1.3590   -0.0520 C   0  0  0  0  0  0  0  0  0  0  0  0
   -3.2040   -2.1880    0.1120 Br  0  0  0  0  0  0  0  0  0  0  0  0
  1  2  1  0
  2  3  1  0
  3  4  2  0
  3 12  1  0
  4  5  1  0
  5  6  1  0
  5 10  2  0
  6  7  2  0
  6  9  1  0
  7  8  1  0
  8  9  2  0
 10 11  1  0
 11 12  2  0
 12 13  1  0
M  END
