
     RDKit          3D

  9  8  0  0  0  0  0  0  0  0999 V2000
    1.8030    1.6460    0.3070 O   0  0  0  0  0  0  0  0  0  0  0  0
    2.3830    0.7260   -0.3520 C   0  0  0  0  0  0  0  0  0  0  0  0
    1.7430   -0.4540   -0.7840 N   0  0  0  0  0  0  0  0  0  0  0  0
    0.4570   -0.7180   -0.5330 O   0  0  0  0  0  0  0  0  0  0  0  0
    0.2340   -0.8060    0.8190 C   0  0  0  0  0  0  0  0  0  0  0  0
   -1.1190   -1.1040    1.0590 O   0  0  0  0  0  0  0  0  0  0  0  0
   -2.1380    0.1310    0.3910 P   0  0  0  0  0  0  0  0  0  0  0  0
   -1.2270    1.2210   -0.6080 O   0  0  0  0  0  0  0  0  0  0  0  0
   -3.3230   -0.7070   -0.5990 O   0  0  0  0  0  0  0  0  0  0  0  0
  1  2  2  0
  2  3  1  0
  3  4  1  0
  4  5  1  0
  5  6  1  0
  6  7  1  0
  7  8  1  0
  7  9  1  0
M  END
