
     RDKit          3D

 19 18  0  0  0  0  0  0  0  0999 V2000
   -4.1770    1.8580   -0.3250 O   0  0  0  0  0  0  0  0  0  0  0  0
   -4.9760    0.9840    0.0480 C   0  0  0  0  0  0  0  0  0  0  0  0
   -6.2340    1.4260    0.5360 O   0  0  0  0  0  0  0  0  0  0  0  0
   -4.6750   -0.3220   -0.0040 O   0  0  0  0  0  0  0  0  0  0  0  0
   -3.5670   -0.9930   -0.4040 C   0  0  0  0  0  0  0  0  0  0  0  0
   -2.3640   -0.7890    0.4510 C   0  0  2  0  0  0  0  0  0  0  0  0
   -2.5950   -1.1160    1.7920 O   0  0  0  0  0  0  0  0  0  0  0  0
   -1.6760    0.8990    0.3080 P   0  0  0  0  0  0  0  0  0  0  0  0
   -1.8750    1.8280    1.7600 O   0  0  0  0  0  0  0  0  0  0  0  0
    0.4360    0.7970   -0.2250 P   0  0  0  0  0  0  0  0  0  0  0  0
    0.5900    0.6090   -1.9460 O   0  0  0  0  0  0  0  0  0  0  0  0
    1.2130   -0.5550    0.5350 O   0  0  0  0  0  0  0  0  0  0  0  0
    2.1440   -1.0650   -0.3300 C   0  0  2  0  0  0  0  0  0  0  0  0
    1.7600   -2.3650   -0.6580 O   0  0  0  0  0  0  0  0  0  0  0  0
    3.5320   -1.0320    0.2080 C   0  0  0  0  0  0  0  0  0  0  0  0
    4.2530   -2.0330    0.3450 O   0  0  0  0  0  0  0  0  0  0  0  0
    4.0470    0.2020    0.5780 O   0  0  0  0  0  0  0  0  0  0  0  0
    5.3760    0.3350    1.1060 C   0  0  0  0  0  0  0  0  0  0  0  0
    5.5710    1.6770    1.3690 O   0  0  0  0  0  0  0  0  0  0  0  0
  1  2  2  0
  2  3  1  0
  2  4  1  0
  4  5  1  0
  5  6  1  0
  6  7  1  1
  6  8  1  0
  8  9  1  0
  8 10  1  0
 10 11  1  0
 10 12  1  0
 12 13  1  0
 13 14  1  1
 13 15  1  0
 15 16  2  0
 15 17  1  0
 17 18  1  0
 18 19  1  0
M  END
