
     RDKit          3D

 20 19  0  0  0  0  0  0  0  0999 V2000
   -0.7890   -2.7180   -1.0330 O   0  0  0  0  0  0  0  0  0  0  0  0
   -1.7320   -1.6690   -1.6990 P   0  0  0  0  0  0  0  0  0  0  0  0
   -2.2490   -0.1310   -0.8050 C   0  0  2  0  0  0  0  0  0  0  0  0
   -1.1520    0.9350   -0.9060 C   0  0  2  0  0  0  0  0  0  0  0  0
   -0.0040    0.3810   -0.3140 O   0  0  0  0  0  0  0  0  0  0  0  0
    1.1840    0.1740   -0.9470 C   0  0  0  0  0  0  0  0  0  0  0  0
    1.3170    0.4800   -2.1390 O   0  0  0  0  0  0  0  0  0  0  0  0
    2.3160   -0.4320   -0.1590 C   0  0  0  0  0  0  0  0  0  0  0  0
    3.3850   -0.5340   -1.0160 O   0  0  0  0  0  0  0  0  0  0  0  0
    4.4760   -1.0350   -0.5570 O   0  0  0  0  0  0  0  0  0  0  0  0
    4.7010   -1.3940    0.7360 C   0  0  0  0  0  0  0  0  0  0  0  0
    3.8400   -1.2670    1.6340 O   0  0  0  0  0  0  0  0  0  0  0  0
    5.9500   -1.9360    1.1140 O   0  0  0  0  0  0  0  0  0  0  0  0
   -1.6190    2.1360   -0.1680 C   0  0  0  0  0  0  0  0  0  0  0  0
   -0.9740    2.4980    0.8400 O   0  0  0  0  0  0  0  0  0  0  0  0
   -2.7300    2.8740   -0.5390 O   0  0  0  0  0  0  0  0  0  0  0  0
   -3.1480    3.9570    0.1290 O   0  0  0  0  0  0  0  0  0  0  0  0
   -2.4990   -0.5240    0.9870 P   0  0  0  0  0  0  0  0  0  0  0  0
   -4.0000    0.1750    1.5330 O   0  0  0  0  0  0  0  0  0  0  0  0
   -2.5020   -2.2240    1.2860 O   0  0  0  0  0  0  0  0  0  0  0  0
  1  2  2  0
  2  3  1  0
  3  4  1  0
  3 18  1  1
  4  5  1  1
  4 14  1  0
  5  6  1  0
  6  7  2  0
  6  8  1  0
  8  9  1  0
  9 10  1  0
 10 11  1  0
 11 12  2  0
 11 13  1  0
 14 15  2  0
 14 16  1  0
 16 17  1  0
 18 19  1  0
 18 20  1  0
M  END
