
     RDKit          3D

  8  7  0  0  0  0  0  0  0  0999 V2000
    2.2990    1.1190    1.3520 O   0  0  0  0  0  0  0  0  0  0  0  0
    1.2530    0.8460    0.5860 O   0  0  0  0  0  0  0  0  0  0  0  0
    1.5270   -0.4550    0.0710 C   0  0  0  0  0  0  0  0  0  0  0  0
    0.4620   -0.9000   -0.8760 C   0  0  0  0  0  0  0  0  0  0  0  0
   -0.8030   -0.9910   -0.1630 N   0  0  0  0  0  0  0  0  0  0  0  0
   -1.5750    0.4930    0.2290 P   0  0  0  0  0  0  0  0  0  0  0  0
   -1.5370    1.7230   -0.9140 O   0  0  0  0  0  0  0  0  0  0  0  0
   -2.8440    0.4730    1.3560 O   0  0  0  0  0  0  0  0  0  0  0  0
  1  2  1  0
  2  3  1  0
  3  4  1  0
  4  5  1  0
  5  6  1  0
  6  7  1  0
  6  8  1  0
M  END
