
     RDKit          3D

 19 19  0  0  0  0  0  0  0  0999 V2000
    2.3100   -4.0170    0.4520 O   0  0  0  0  0  0  0  0  0  0  0  0
    1.5140   -3.0990    0.1310 C   0  0  0  0  0  0  0  0  0  0  0  0
    1.5010   -2.3730   -1.0400 O   0  0  0  0  0  0  0  0  0  0  0  0
    0.3920   -1.4720   -1.0330 C   0  0  0  0  0  0  0  0  0  0  0  0
    0.1250   -1.3360    0.4400 C   0  0  2  0  0  0  0  0  0  0  0  0
   -1.1640   -1.1560    0.7880 O   0  0  0  0  0  0  0  0  0  0  0  0
   -1.8100   -0.0110    0.4650 C   0  0  0  0  0  0  0  0  0  0  0  0
   -3.2470   -0.0980    0.9750 C   0  0  0  0  0  0  0  0  0  0  0  0
   -4.1880    1.4500    0.5600 P   0  0  0  0  0  0  0  0  0  0  0  0
   -3.0770    2.6300   -0.0580 O   0  0  0  0  0  0  0  0  0  0  0  0
   -5.3810    1.1530   -0.6660 O   0  0  0  0  0  0  0  0  0  0  0  0
    1.1080   -0.3810    0.9930 C   0  0  0  0  0  0  0  0  0  0  0  0
    0.7690    0.5250    1.7600 O   0  0  0  0  0  0  0  0  0  0  0  0
    2.4630   -0.4940    0.6480 O   0  0  0  0  0  0  0  0  0  0  0  0
    3.3660    0.3770    1.1510 O   0  0  0  0  0  0  0  0  0  0  0  0
    3.6100    1.6010   -0.0500 P   0  0  0  0  0  0  0  0  0  0  0  0
    4.7000    0.9780   -1.2390 O   0  0  0  0  0  0  0  0  0  0  0  0
    4.2960    2.9900    0.7330 O   0  0  0  0  0  0  0  0  0  0  0  0
    0.4880   -2.6510    0.9260 O   0  0  0  0  0  0  0  0  0  0  0  0
  1  2  2  0
  2  3  1  0
  2 19  1  0
  3  4  1  0
  4  5  1  0
  5  6  1  6
  5 12  1  0
  5 19  1  0
  6  7  1  0
  7  8  1  0
  8  9  1  0
  9 10  1  0
  9 11  1  0
 12 13  2  0
 12 14  1  0
 14 15  1  0
 15 16  1  0
 16 17  1  0
 16 18  1  0
M  END
