
     RDKit          3D

 19 19  0  0  0  0  0  0  0  0999 V2000
   -1.0660   -3.3400    0.1460 O   0  0  0  0  0  0  0  0  0  0  0  0
   -1.6720   -2.2350    0.3640 C   0  0  0  0  0  0  0  0  0  0  0  0
   -3.1220   -2.2240    0.6630 C   0  0  0  0  0  0  0  0  0  0  0  0
   -3.5770   -0.9390    0.8680 O   0  0  0  0  0  0  0  0  0  0  0  0
   -3.3510   -0.1900   -0.2620 C   0  0  2  0  0  0  0  0  0  0  0  0
   -2.7410    1.1600   -0.0050 C   0  0  0  0  0  0  0  0  0  0  0  0
   -3.8600    1.9950    0.0010 O   0  0  0  0  0  0  0  0  0  0  0  0
   -4.9060    1.1980    0.0180 O   0  0  0  0  0  0  0  0  0  0  0  0
   -4.6320    0.1890   -0.7430 O   0  0  0  0  0  0  0  0  0  0  0  0
   -0.9160   -1.0920    0.3060 O   0  0  0  0  0  0  0  0  0  0  0  0
    0.4450   -1.0610    0.0290 C   0  0  0  0  0  0  0  0  0  0  0  0
    0.9980   -2.1790   -0.1790 O   0  0  0  0  0  0  0  0  0  0  0  0
    1.1940    0.2270   -0.0150 C   0  0  0  0  0  0  0  0  0  0  0  0
    2.9560   -0.1710   -0.4110 P   0  0  0  0  0  0  0  0  0  0  0  0
    3.9330   -0.2860    1.0110 O   0  0  0  0  0  0  0  0  0  0  0  0
    3.6300    0.8520   -1.6030 O   0  0  0  0  0  0  0  0  0  0  0  0
    5.0240    1.6810   -0.9900 P   0  0  0  0  0  0  0  0  0  0  0  0
    5.7030    0.8130    0.3510 O   0  0  0  0  0  0  0  0  0  0  0  0
    4.6040    3.3000   -0.5320 O   0  0  0  0  0  0  0  0  0  0  0  0
  1  2  2  0
  2  3  1  0
  2 10  1  0
  3  4  1  0
  5  4  1  1
  5  6  1  0
  5  9  1  0
  6  7  1  0
  7  8  1  0
  8  9  1  0
 10 11  1  0
 11 12  2  0
 11 13  1  0
 13 14  1  0
 14 15  1  0
 14 16  1  0
 16 17  1  0
 17 18  1  0
 17 19  1  0
M  END
