
     RDKit          3D

 19 19  0  0  0  0  0  0  0  0999 V2000
   -0.7950    2.3140   -1.7970 O   0  0  0  0  0  0  0  0  0  0  0  0
   -1.3540    1.5340   -0.9810 C   0  0  0  0  0  0  0  0  0  0  0  0
   -2.7060    1.2600   -0.8020 O   0  0  0  0  0  0  0  0  0  0  0  0
   -2.7920   -0.0140   -0.1890 C   0  0  2  0  0  0  0  0  0  0  0  0
   -3.6360   -0.8840   -1.0940 C   0  0  0  0  0  0  0  0  0  0  0  0
   -4.8900   -0.2490   -1.1850 O   0  0  0  0  0  0  0  0  0  0  0  0
   -3.3620    0.0280    1.1540 C   0  0  0  0  0  0  0  0  0  0  0  0
   -3.7380    1.0830    1.7130 O   0  0  0  0  0  0  0  0  0  0  0  0
   -3.4920   -1.1620    1.8470 O   0  0  0  0  0  0  0  0  0  0  0  0
   -1.4810   -0.4930   -0.0920 O   0  0  0  0  0  0  0  0  0  0  0  0
   -0.7130    0.6590    0.0530 C   0  0  1  0  0  0  0  0  0  0  0  0
    0.7430    0.4240   -0.2470 C   0  0  0  0  0  0  0  0  0  0  0  0
    1.2240   -0.5330    0.6260 O   0  0  0  0  0  0  0  0  0  0  0  0
    2.8990   -0.8020    0.2790 P   0  0  0  0  0  0  0  0  0  0  0  0
    3.4940    0.2770   -0.9340 O   0  0  0  0  0  0  0  0  0  0  0  0
    3.8380   -0.7860    1.7060 O   0  0  0  0  0  0  0  0  0  0  0  0
    5.4860   -0.3310    1.4240 P   0  0  0  0  0  0  0  0  0  0  0  0
    6.2840   -1.6900    0.6680 O   0  0  0  0  0  0  0  0  0  0  0  0
    5.6040    1.0230    0.3420 O   0  0  0  0  0  0  0  0  0  0  0  0
  1  2  2  0
  2  3  1  0
  2 11  1  0
  3  4  1  0
  4  5  1  6
  4  7  1  0
  4 10  1  0
  5  6  1  0
  7  8  2  0
  7  9  1  0
 10 11  1  0
 11 12  1  6
 12 13  1  0
 13 14  1  0
 14 15  1  0
 14 16  1  0
 16 17  1  0
 17 18  1  0
 17 19  1  0
M  END
