
     RDKit          3D

 25 27  0  0  0  0  0  0  0  0999 V2000
   -5.6800    1.8640    0.6450 C   0  0  0  0  0  0  0  0  0  0  0  0
   -5.7660    2.0380   -0.6890 C   0  0  0  0  0  0  0  0  0  0  0  0
   -5.0530    1.0650   -1.5790 C   0  0  0  0  0  0  0  0  0  0  0  0
   -4.2620    0.0930   -0.7800 C   0  0  0  0  0  0  0  0  0  0  0  0
   -4.8970   -1.0040   -0.2310 C   0  0  0  0  0  0  0  0  0  0  0  0
   -4.2060   -1.9260    0.4950 C   0  0  0  0  0  0  0  0  0  0  0  0
   -4.8940   -3.1060    1.0750 C   0  0  0  0  0  0  0  0  0  0  0  0
   -2.8230   -1.7420    0.6800 C   0  0  0  0  0  0  0  0  0  0  0  0
   -2.2130   -2.7030    1.4340 O   0  0  0  0  0  0  0  0  0  0  0  0
   -2.1580   -0.6770    0.1520 C   0  0  0  0  0  0  0  0  0  0  0  0
   -0.7040   -0.4910    0.1590 C   0  0  0  0  0  0  0  0  0  0  0  0
   -0.0760    0.6630   -0.0770 C   0  0  0  0  0  0  0  0  0  0  0  0
    1.3700    0.4980    0.0140 C   0  0  0  0  0  0  0  0  0  0  0  0
    2.3400    1.2040   -0.4730 C   0  0  0  0  0  0  0  0  0  0  0  0
    3.7550    0.9360   -0.3090 C   0  0  0  0  0  0  0  0  0  0  0  0
    4.6910    1.9670   -0.0980 C   0  0  0  0  0  0  0  0  0  0  0  0
    5.9190    1.3740    0.0110 C   0  0  0  0  0  0  0  0  0  0  0  0
    7.2310    2.0760    0.2410 C   0  0  0  0  0  0  0  0  0  0  0  0
    5.7050    0.0170   -0.1350 C   0  0  0  0  0  0  0  0  0  0  0  0
    6.8500   -0.9460   -0.0700 C   0  0  0  0  0  0  0  0  0  0  0  0
    4.4380   -0.1800   -0.3180 O   0  0  0  0  0  0  0  0  0  0  0  0
    1.5210   -0.7500    0.8330 C   0  0  0  0  0  0  0  0  0  0  0  0
    0.3270   -1.4950    0.2470 C   0  0  0  0  0  0  0  0  0  0  0  0
    0.3790   -2.7050   -0.0480 O   0  0  0  0  0  0  0  0  0  0  0  0
   -2.9160    0.2460   -0.5870 C   0  0  0  0  0  0  0  0  0  0  0  0
  1  2  2  0
  2  3  1  0
  3  4  1  0
  4  5  2  0
  4 25  1  0
  5  6  1  0
  6  7  1  0
  6  8  2  0
  8  9  1  0
  8 10  1  0
 10 11  1  0
 10 25  2  0
 11 12  2  0
 11 23  1  0
 12 13  1  0
 13 14  2  3
 13 22  1  0
 14 15  1  0
 15 16  2  0
 15 21  1  0
 16 17  1  0
 17 18  1  0
 17 19  2  0
 19 20  1  0
 19 21  1  0
 22 23  1  0
 23 24  2  0
M  END
