
     RDKit          3D

 25 29  0  0  0  0  0  0  0  0999 V2000
   -2.1270   -3.2070    1.0300 O   0  0  0  0  0  0  0  0  0  0  0  0
   -2.3890   -2.2480    0.2530 C   0  0  0  0  0  0  0  0  0  0  0  0
   -2.1500   -2.1860   -1.2350 C   0  0  0  0  0  0  0  0  0  0  0  0
   -2.0960   -0.6850   -1.4320 C   0  0  2  0  0  0  0  0  0  0  0  0
   -0.6780   -0.2460   -1.4450 C   0  0  0  0  0  0  0  0  0  0  0  0
   -0.1320    0.3840   -2.5430 C   0  0  0  0  0  0  0  0  0  0  0  0
    1.1930    0.7980   -2.5640 C   0  0  0  0  0  0  0  0  0  0  0  0
    2.0110    0.5940   -1.4840 C   0  0  0  0  0  0  0  0  0  0  0  0
    3.3440    0.9990   -1.4780 C   0  0  0  0  0  0  0  0  0  0  0  0
    4.0800    0.7480   -0.3460 C   0  0  0  0  0  0  0  0  0  0  0  0
    3.5770    0.1240    0.7710 C   0  0  0  0  0  0  0  0  0  0  0  0
    2.2560   -0.2680    0.7410 C   0  0  0  0  0  0  0  0  0  0  0  0
    1.4820   -0.0340   -0.3790 C   0  0  0  0  0  0  0  0  0  0  0  0
    0.1630   -0.4380   -0.3760 C   0  0  0  0  0  0  0  0  0  0  0  0
    4.4210   -0.1120    1.9440 C   0  0  0  0  0  0  0  0  0  0  0  0
    5.6840    0.2780    1.9360 C   0  0  0  0  0  0  0  0  0  0  0  0
    6.1870    0.9020    0.8200 O   0  0  0  0  0  0  0  0  0  0  0  0
    5.5030    1.1880   -0.3570 C   0  0  0  0  0  0  0  0  0  0  0  0
   -2.8320   -0.0850   -0.2690 C   0  0  0  0  0  0  0  0  0  0  0  0
   -2.9880   -0.9930    0.6790 C   0  0  0  0  0  0  0  0  0  0  0  0
   -3.6920   -0.6260    1.9320 C   0  0  0  0  0  0  0  0  0  0  0  0
   -4.8230    0.3100    1.5870 C   0  0  0  0  0  0  0  0  0  0  0  0
   -4.2120    1.6090    1.1030 C   0  0  0  0  0  0  0  0  0  0  0  0
   -3.3570    1.2610   -0.0660 C   0  0  0  0  0  0  0  0  0  0  0  0
   -3.0770    2.1540   -0.9050 O   0  0  0  0  0  0  0  0  0  0  0  0
  1  2  2  0
  2  3  1  0
  2 20  1  0
  3  4  1  0
  4  5  1  1
  4 19  1  0
  5  6  2  0
  5 14  1  0
  6  7  1  0
  7  8  2  0
  8  9  1  0
  8 13  1  0
  9 10  2  0
 10 11  1  0
 10 18  1  0
 11 12  2  0
 11 15  1  0
 12 13  1  0
 13 14  2  0
 15 16  2  0
 16 17  1  0
 17 18  1  0
 19 20  2  0
 19 24  1  0
 20 21  1  0
 21 22  1  0
 22 23  1  0
 23 24  1  0
 24 25  2  0
M  END
