
     RDKit          3D

 16 17  0  0  0  0  0  0  0  0999 V2000
   -5.2030    0.0580    0.6240 C   0  0  0  0  0  0  0  0  0  0  0  0
   -3.8960   -0.7040    0.5960 C   0  0  0  0  0  0  0  0  0  0  0  0
   -2.9030   -0.0630   -0.2180 N   0  0  0  0  0  0  0  0  0  0  0  0
   -1.7690    0.5010    0.4220 C   0  0  0  0  0  0  0  0  0  0  0  0
   -0.5730    0.2920   -0.0230 C   0  0  0  0  0  0  0  0  0  0  0  0
    0.6570    0.8260    0.5640 C   0  0  0  0  0  0  0  0  0  0  0  0
    1.8080    0.1810    0.0520 N   0  0  0  0  0  0  0  0  0  0  0  0
    3.0070    0.1160    0.8890 C   0  0  0  0  0  0  0  0  0  0  0  0
    4.1050   -0.7010    0.2730 C   0  0  0  0  0  0  0  0  0  0  0  0
    4.6870    0.0480   -0.9070 C   0  0  0  0  0  0  0  0  0  0  0  0
    3.9340   -0.3280   -2.0890 N   0  0  0  0  0  0  0  0  0  0  0  0
    2.5480   -0.5700   -2.1550 N   0  0  0  0  0  0  0  0  0  0  0  0
    1.6870   -0.3430   -1.2350 C   0  0  0  0  0  0  0  0  0  0  0  0
   -0.0610   -0.6870   -1.4540 S   0  0  0  0  0  0  0  0  0  0  0  0
   -3.0030    0.0370   -1.6600 C   0  0  0  0  0  0  0  0  0  0  0  0
   -4.5200    0.8900   -2.0500 Cl  0  0  0  0  0  0  0  0  0  0  0  0
  1  2  1  0
  2  3  1  0
  3  4  1  0
  3 15  1  0
  4  5  2  3
  5  6  1  0
  5 14  1  0
  6  7  1  0
  7  8  1  0
  7 13  1  0
  8  9  1  0
  9 10  1  0
 10 11  1  0
 11 12  1  0
 12 13  2  0
 13 14  1  0
 15 16  1  0
M  END
