
     RDKit          3D

 16 17  0  0  0  0  0  0  0  0999 V2000
   -3.2400   -0.4270    1.9800 C   0  0  0  0  0  0  0  0  0  0  0  0
   -2.9850   -0.3110    0.5640 N   0  0  0  0  0  0  0  0  0  0  0  0
   -3.9960   -0.4550   -0.4670 C   0  0  0  0  0  0  0  0  0  0  0  0
   -3.4160    0.3680   -1.5590 C   0  0  0  0  0  0  0  0  0  0  0  0
   -4.1040    0.9680   -2.5000 C   0  0  0  0  0  0  0  0  0  0  0  0
   -3.3340    1.9270   -3.7610 Cl  0  0  0  0  0  0  0  0  0  0  0  0
   -2.0080    0.3420   -1.3390 N   0  0  0  0  0  0  0  0  0  0  0  0
   -1.7710   -0.0470   -0.1260 C   0  0  0  0  0  0  0  0  0  0  0  0
   -0.4350   -0.2020    0.4850 C   0  0  0  0  0  0  0  0  0  0  0  0
    0.8830    0.2260   -0.6970 S   0  0  0  0  0  0  0  0  0  0  0  0
    2.4920    0.0350    0.0500 C   0  0  0  0  0  0  0  0  0  0  0  0
    2.8080   -0.3680    1.3190 C   0  0  0  0  0  0  0  0  0  0  0  0
    4.1440   -0.3710    1.4620 N   0  0  0  0  0  0  0  0  0  0  0  0
    4.6730    0.0240    0.3010 N   0  0  0  0  0  0  0  0  0  0  0  0
    6.0760    0.1670    0.0050 C   0  0  0  0  0  0  0  0  0  0  0  0
    3.6910    0.2790   -0.5790 C   0  0  0  0  0  0  0  0  0  0  0  0
  1  2  1  0
  2  3  1  0
  2  8  1  0
  3  4  1  0
  4  5  2  3
  4  7  1  0
  5  6  1  0
  7  8  2  0
  8  9  1  0
  9 10  1  0
 10 11  1  0
 11 12  1  0
 11 16  2  0
 12 13  2  0
 13 14  1  0
 14 15  1  0
 14 16  1  0
M  END
