
     RDKit          3D

 22 24  0  0  0  0  0  0  0  0999 V2000
    6.8610   -2.1090    0.1250 N   0  0  0  0  0  0  0  0  0  0  0  0
    6.5530   -1.0030    0.4400 C   0  0  0  0  0  0  0  0  0  0  0  0
    6.1820    0.3470    0.8480 C   0  0  0  0  0  0  0  0  0  0  0  0
    4.9020    0.4670    1.3250 O   0  0  0  0  0  0  0  0  0  0  0  0
    3.6810    0.2180    0.7680 C   0  0  0  0  0  0  0  0  0  0  0  0
    2.5530    0.4660    1.5250 C   0  0  0  0  0  0  0  0  0  0  0  0
    1.2710    0.2370    1.0160 C   0  0  0  0  0  0  0  0  0  0  0  0
    1.0460   -0.2380   -0.2400 C   0  0  0  0  0  0  0  0  0  0  0  0
   -0.3040   -0.4270   -0.7450 C   0  0  0  0  0  0  0  0  0  0  0  0
   -1.4180   -0.0260   -0.0720 C   0  0  0  0  0  0  0  0  0  0  0  0
   -2.7230   -0.1050   -0.4780 C   0  0  0  0  0  0  0  0  0  0  0  0
   -3.8470    0.3640    0.3110 C   0  0  0  0  0  0  0  0  0  0  0  0
   -3.8450    0.9360    1.5430 C   0  0  0  0  0  0  0  0  0  0  0  0
   -5.1400    1.2410    1.9330 C   0  0  0  0  0  0  0  0  0  0  0  0
   -5.9230    0.8320    0.8910 C   0  0  0  0  0  0  0  0  0  0  0  0
   -5.1410    0.3050   -0.0840 N   0  0  0  0  0  0  0  0  0  0  0  0
   -2.9010   -0.6830   -1.7630 C   0  0  0  0  0  0  0  0  0  0  0  0
   -1.7990   -1.0910   -2.4460 C   0  0  0  0  0  0  0  0  0  0  0  0
   -1.9920   -1.6090   -3.6190 O   0  0  0  0  0  0  0  0  0  0  0  0
   -0.5540   -0.9770   -1.9730 N   0  0  0  0  0  0  0  0  0  0  0  0
    2.1860   -0.4860   -0.9900 C   0  0  0  0  0  0  0  0  0  0  0  0
    3.4720   -0.2720   -0.5220 C   0  0  0  0  0  0  0  0  0  0  0  0
  1  2  3  0
  2  3  1  0
  3  4  1  0
  4  5  1  0
  5  6  2  0
  5 22  1  0
  6  7  1  0
  7  8  2  0
  8  9  1  0
  8 21  1  0
  9 10  2  0
  9 20  1  0
 10 11  1  0
 11 12  1  0
 11 17  2  0
 12 13  2  0
 12 16  1  0
 13 14  1  0
 14 15  2  0
 15 16  1  0
 17 18  1  0
 18 19  2  0
 18 20  1  0
 21 22  2  0
M  END
