
     RDKit          3D

 26 27  0  0  0  0  0  0  0  0999 V2000
   -6.3060    1.6910    1.9300 N   0  0  0  0  0  0  0  0  0  0  0  0
   -5.3880    1.0660    0.6020 S   0  0  0  0  0  0  0  0  0  0  0  0
   -5.1810    2.1740   -0.4180 O   0  0  0  0  0  0  0  0  0  0  0  0
   -3.7710    0.4750    1.1240 C   0  0  0  0  0  0  0  0  0  0  0  0
   -3.0180   -0.0630   -0.1100 C   0  0  2  0  0  0  0  0  0  0  0  0
   -3.8410   -1.1820   -0.6780 C   0  0  0  0  0  0  0  0  0  0  0  0
   -3.1690   -2.4250   -0.2200 C   0  0  0  0  0  0  0  0  0  0  0  0
   -1.6980   -2.0790   -0.2100 C   0  0  0  0  0  0  0  0  0  0  0  0
   -1.7020   -0.6510    0.2680 C   0  0  1  0  0  0  0  0  0  0  0  0
   -0.5350    0.0750   -0.0650 N   0  0  0  0  0  0  0  0  0  0  0  0
   -0.0800    0.5050   -1.3380 C   0  0  0  0  0  0  0  0  0  0  0  0
   -0.8410    0.2250   -2.4390 C   0  0  0  0  0  0  0  0  0  0  0  0
   -0.3710    0.6640   -3.6820 C   0  0  0  0  0  0  0  0  0  0  0  0
    0.7880    1.3350   -3.7720 N   0  0  0  0  0  0  0  0  0  0  0  0
    1.5370    1.6100   -2.6910 C   0  0  0  0  0  0  0  0  0  0  0  0
    2.6280    2.2550   -2.8700 O   0  0  0  0  0  0  0  0  0  0  0  0
    1.1290    1.2070   -1.4490 C   0  0  0  0  0  0  0  0  0  0  0  0
    1.9010    1.4850   -0.2930 N   0  0  0  0  0  0  0  0  0  0  0  0
    2.8980    0.6110    0.1890 C   0  0  0  0  0  0  0  0  0  0  0  0
    3.1150   -0.4560   -0.4230 O   0  0  0  0  0  0  0  0  0  0  0  0
    3.6850    0.8700    1.3490 N   0  0  0  0  0  0  0  0  0  0  0  0
    4.6480   -0.0460    1.7570 N   0  0  0  0  0  0  0  0  0  0  0  0
    6.0020    0.3280    1.8200 C   0  0  0  0  0  0  0  0  0  0  0  0
    6.3080    1.5040    1.4990 O   0  0  0  0  0  0  0  0  0  0  0  0
    7.0970   -0.5840    2.2440 C   0  0  0  0  0  0  0  0  0  0  0  0
    6.6490   -1.8410    2.5710 O   0  0  0  0  0  0  0  0  0  0  0  0
  2  1  1  1
  2  3  2  0
  2  4  1  0
  5  4  1  1
  5  6  1  0
  5  9  1  0
  6  7  1  0
  7  8  1  0
  8  9  1  0
  9 10  1  6
 10 11  1  0
 11 12  1  0
 11 17  2  0
 12 13  2  0
 13 14  1  0
 14 15  1  0
 15 16  2  0
 15 17  1  0
 17 18  1  0
 18 19  1  0
 19 20  2  0
 19 21  1  0
 21 22  1  0
 22 23  1  0
 23 24  2  0
 23 25  1  0
 25 26  1  0
M  END
