
     RDKit          3D

 17 18  0  0  0  0  0  0  0  0999 V2000
   -3.7620   -0.1950   -2.4420 O   0  0  0  0  0  0  0  0  0  0  0  0
   -3.5630    0.8670   -1.8500 N   0  0  0  0  0  0  0  0  0  0  0  0
   -4.4490    1.8900   -1.9760 O   0  0  0  0  0  0  0  0  0  0  0  0
   -2.4200    1.0160   -1.0460 C   0  0  0  0  0  0  0  0  0  0  0  0
   -1.9360    0.0260   -0.2870 C   0  0  0  0  0  0  0  0  0  0  0  0
   -2.5210   -1.2800   -0.2100 N   0  0  0  0  0  0  0  0  0  0  0  0
   -1.5430   -2.1600    0.4230 C   0  0  0  0  0  0  0  0  0  0  0  0
   -0.8220   -1.1990    1.3350 C   0  0  0  0  0  0  0  0  0  0  0  0
   -0.8060    0.0230    0.5690 N   0  0  0  0  0  0  0  0  0  0  0  0
    0.1750    1.0740    0.6480 C   0  0  0  0  0  0  0  0  0  0  0  0
    1.5470    0.6610    0.3000 C   0  0  0  0  0  0  0  0  0  0  0  0
    2.6060    1.4910    0.5890 C   0  0  0  0  0  0  0  0  0  0  0  0
    3.9150    1.1310    0.2680 C   0  0  0  0  0  0  0  0  0  0  0  0
    4.1560   -0.0680   -0.3450 C   0  0  0  0  0  0  0  0  0  0  0  0
    5.8110   -0.4810   -0.7300 Cl  0  0  0  0  0  0  0  0  0  0  0  0
    3.1160   -0.8770   -0.6260 N   0  0  0  0  0  0  0  0  0  0  0  0
    1.8320   -0.5330   -0.3160 C   0  0  0  0  0  0  0  0  0  0  0  0
  1  2  2  0
  2  3  1  0
  2  4  1  0
  4  5  2  3
  5  6  1  0
  5  9  1  0
  6  7  1  0
  7  8  1  0
  8  9  1  0
  9 10  1  0
 10 11  1  0
 11 12  2  0
 11 17  1  0
 12 13  1  0
 13 14  2  0
 14 15  1  0
 14 16  1  0
 16 17  2  0
M  CHG  2   2   1   3  -1
M  END
