
     RDKit          3D

 26 28  0  0  0  0  0  0  0  0999 V2000
    7.9640    1.8380    0.8100 N   0  0  0  0  0  0  0  0  0  0  0  0
    8.2580    0.5090    0.5710 C   0  0  0  0  0  0  0  0  0  0  0  0
    9.5050    0.1540    0.5090 O   0  0  0  0  0  0  0  0  0  0  0  0
    7.3210   -0.5640    0.3750 C   0  0  0  0  0  0  0  0  0  0  0  0
    5.9710   -0.0720    0.4380 N   0  0  0  0  0  0  0  0  0  0  0  0
    4.9120   -0.9080    0.2080 C   0  0  0  0  0  0  0  0  0  0  0  0
    5.3050   -2.1750   -0.0440 O   0  0  0  0  0  0  0  0  0  0  0  0
    3.6210   -0.8290    0.1560 N   0  0  0  0  0  0  0  0  0  0  0  0
    2.2360   -0.9330    0.0490 C   0  0  0  0  0  0  0  0  0  0  0  0
    1.9320   -2.1350   -0.2390 O   0  0  0  0  0  0  0  0  0  0  0  0
    1.4550    0.1590    0.2340 N   0  0  0  0  0  0  0  0  0  0  0  0
    0.0260   -0.4520   -0.5480 C   0  0  0  0  0  0  0  0  0  0  0  0
    0.1020   -1.5570   -0.8900 O   0  0  0  0  0  0  0  0  0  0  0  0
   -1.0190    0.5230   -0.6580 C   0  0  1  0  0  0  0  0  0  0  0  0
   -1.7840    0.1050   -1.8610 N   0  0  0  0  0  0  0  0  0  0  0  0
   -2.8790   -0.7520   -1.7210 C   0  0  0  0  0  0  0  0  0  0  0  0
   -3.1550   -1.6650   -2.5220 O   0  0  0  0  0  0  0  0  0  0  0  0
   -3.7330   -0.5260   -0.5410 C   0  0  0  0  0  0  0  0  0  0  0  0
   -3.3480    0.4800    0.2590 C   0  0  0  0  0  0  0  0  0  0  0  0
   -4.3740    1.3570    0.8830 C   0  0  0  0  0  0  0  0  0  0  0  0
   -5.7010    0.6140    1.0160 C   0  0  1  0  0  0  0  0  0  0  0  0
   -6.5870    0.9090   -0.1590 C   0  0  0  0  0  0  0  0  0  0  0  0
   -6.3640   -0.5800   -1.2080 S   0  0  0  0  0  0  0  0  0  0  0  0
   -4.9390   -1.2890   -0.2520 C   0  0  2  0  0  0  0  0  0  0  0  0
   -5.4530   -0.8620    1.1350 C   0  0  0  0  0  0  0  0  0  0  0  0
   -1.9290    0.6760    0.4500 N   0  0  0  0  0  0  0  0  0  0  0  0
  1  2  1  0
  2  3  2  0
  2  4  1  0
  4  5  1  0
  5  6  1  0
  6  7  2  0
  6  8  1  0
  8  9  1  0
  9 10  2  0
  9 11  1  0
 11 12  1  0
 12 13  2  0
 14 12  1  1
 14 15  1  0
 14 26  1  0
 15 16  1  0
 16 17  2  0
 16 18  1  0
 18 19  2  0
 18 24  1  0
 19 20  1  0
 19 26  1  0
 21 20  1  6
 21 22  1  0
 21 25  1  0
 22 23  1  0
 24 23  1  6
 24 25  1  0
M  END
