
     RDKit          3D

 22 24  0  0  0  0  0  0  0  0999 V2000
    8.0550    2.0450   -1.1280 N   0  0  0  0  0  0  0  0  0  0  0  0
    7.1920    1.2880   -0.9790 C   0  0  0  0  0  0  0  0  0  0  0  0
    6.1030    0.3020   -0.7930 C   0  0  0  0  0  0  0  0  0  0  0  0
    4.9120    1.0270   -0.6880 O   0  0  0  0  0  0  0  0  0  0  0  0
    3.6600    0.4810   -0.5060 C   0  0  0  0  0  0  0  0  0  0  0  0
    3.3960   -0.8450   -0.4010 C   0  0  0  0  0  0  0  0  0  0  0  0
    2.0810   -1.3090   -0.2160 C   0  0  0  0  0  0  0  0  0  0  0  0
    1.0130   -0.4360   -0.1350 C   0  0  0  0  0  0  0  0  0  0  0  0
   -0.3620   -0.8930    0.0570 C   0  0  0  0  0  0  0  0  0  0  0  0
   -1.4370   -0.0360    0.1400 C   0  0  0  0  0  0  0  0  0  0  0  0
   -2.7510   -0.4660    0.3230 C   0  0  0  0  0  0  0  0  0  0  0  0
   -3.8550    0.4710    0.4050 C   0  0  0  0  0  0  0  0  0  0  0  0
   -3.8340    1.8490    0.3260 C   0  0  0  0  0  0  0  0  0  0  0  0
   -5.1200    2.2980    0.4570 C   0  0  0  0  0  0  0  0  0  0  0  0
   -5.9130    1.1880    0.6140 C   0  0  0  0  0  0  0  0  0  0  0  0
   -5.1390    0.1150    0.5800 N   0  0  0  0  0  0  0  0  0  0  0  0
   -2.9500   -1.8200    0.4220 C   0  0  0  0  0  0  0  0  0  0  0  0
   -1.8940   -2.6960    0.3430 C   0  0  0  0  0  0  0  0  0  0  0  0
   -2.0530   -3.9380    0.4310 O   0  0  0  0  0  0  0  0  0  0  0  0
   -0.6640   -2.2110    0.1670 N   0  0  0  0  0  0  0  0  0  0  0  0
    1.2900    0.9040   -0.2430 C   0  0  0  0  0  0  0  0  0  0  0  0
    2.5870    1.3420   -0.4240 C   0  0  0  0  0  0  0  0  0  0  0  0
  1  2  3  0
  2  3  1  0
  3  4  1  0
  4  5  1  0
  5  6  2  0
  5 22  1  0
  6  7  1  0
  7  8  2  0
  8  9  1  0
  8 21  1  0
  9 10  2  0
  9 20  1  0
 10 11  1  0
 11 12  1  0
 11 17  2  0
 12 13  2  0
 12 16  1  0
 13 14  1  0
 14 15  2  0
 15 16  1  0
 17 18  1  0
 18 19  2  0
 18 20  1  0
 21 22  2  0
M  END
