
     RDKit          3D

 26 27  0  0  0  0  0  0  0  0999 V2000
    7.6090   -1.5430   -0.7590 C   0  0  0  0  0  0  0  0  0  0  0  0
    6.2390   -0.8890   -0.8540 C   0  0  2  0  0  0  0  0  0  0  0  0
    6.4110    0.5200   -1.1810 N   0  0  0  0  0  0  0  0  0  0  0  0
    5.7510    1.2890   -0.1830 C   0  0  0  0  0  0  0  0  0  0  0  0
    5.9240    2.5250   -0.0320 O   0  0  0  0  0  0  0  0  0  0  0  0
    4.8800    0.3510    0.5730 C   0  0  1  0  0  0  0  0  0  0  0  0
    3.5560    0.2600   -0.0520 N   0  0  0  0  0  0  0  0  0  0  0  0
    2.3810    0.5790    0.6810 C   0  0  0  0  0  0  0  0  0  0  0  0
    2.5740    0.9390    1.8930 O   0  0  0  0  0  0  0  0  0  0  0  0
    1.0730    0.5110    0.1330 N   0  0  0  0  0  0  0  0  0  0  0  0
   -0.0080    0.8760    1.0380 C   0  0  0  0  0  0  0  0  0  0  0  0
   -1.3250    0.7870    0.4220 C   0  0  0  0  0  0  0  0  0  0  0  0
   -1.3880    1.6940   -0.7210 N   0  0  0  0  0  0  0  0  0  0  0  0
   -2.3890    0.0870    0.6870 C   0  0  0  0  0  0  0  0  0  0  0  0
   -2.3000   -0.8290    1.8450 C   0  0  0  0  0  0  0  0  0  0  0  0
   -3.3970   -1.6110    2.2370 N   0  0  0  0  0  0  0  0  0  0  0  0
   -1.2640   -0.9740    2.5470 O   0  0  0  0  0  0  0  0  0  0  0  0
   -3.6670    0.0860   -0.0570 C   0  0  2  0  0  0  0  0  0  0  0  0
   -4.7820    0.2880    0.9820 C   0  0  0  0  0  0  0  0  0  0  0  0
   -3.9190   -1.1610   -0.8410 C   0  0  0  0  0  0  0  0  0  0  0  0
   -5.3670   -1.0690   -1.2800 C   0  0  0  0  0  0  0  0  0  0  0  0
   -5.4470    0.6350   -1.7910 S   0  0  2  0  0  0  0  0  0  0  0  0
   -6.6170    1.3700   -1.3040 O   0  0  0  0  0  0  0  0  0  0  0  0
   -5.3660    0.7520   -3.2870 O   0  0  0  0  0  0  0  0  0  0  0  0
   -3.8890    1.2120   -1.0300 C   0  0  0  0  0  0  0  0  0  0  0  0
    5.5830   -0.9090    0.4180 N   0  0  0  0  0  0  0  0  0  0  0  0
  2  1  1  1
  2  3  1  0
  2 26  1  0
  3  4  1  0
  4  5  2  0
  4  6  1  0
  6  7  1  6
  6 26  1  0
  7  8  1  0
  8  9  2  0
  8 10  1  0
 10 11  1  0
 11 12  1  0
 12 13  1  0
 12 14  2  3
 14 15  1  0
 14 18  1  0
 15 16  1  0
 15 17  2  0
 18 19  1  1
 18 20  1  0
 18 25  1  0
 20 21  1  0
 22 21  1  6
 22 23  2  0
 22 24  2  0
 22 25  1  0
M  END
