
     RDKit          3D

 22 25  0  0  0  0  0  0  0  0999 V2000
   -6.4530   -0.1940    0.7790 C   0  0  0  0  0  0  0  0  0  0  0  0
   -5.2180    0.1520    0.4850 C   0  0  0  0  0  0  0  0  0  0  0  0
   -3.9960   -0.5360    0.1130 C   0  0  0  0  0  0  0  0  0  0  0  0
   -3.9760   -1.9090    0.0000 C   0  0  0  0  0  0  0  0  0  0  0  0
   -2.8080   -2.5530   -0.3540 C   0  0  0  0  0  0  0  0  0  0  0  0
   -1.6560   -1.8090   -0.5960 C   0  0  0  0  0  0  0  0  0  0  0  0
   -1.6930   -0.4430   -0.4780 C   0  0  0  0  0  0  0  0  0  0  0  0
   -0.5790    0.3880   -0.6860 N   0  0  0  0  0  0  0  0  0  0  0  0
    0.7510   -0.0470   -0.9800 C   0  0  0  0  0  0  0  0  0  0  0  0
    1.3550   -0.6910    0.2430 C   0  0  2  0  0  0  0  0  0  0  0  0
    1.4290    0.4250    1.2970 C   0  0  0  0  0  0  0  0  0  0  0  0
    2.3530    1.4140    0.7720 N   0  0  0  0  0  0  0  0  0  0  0  0
    3.6280    0.9960    0.3080 C   0  0  0  0  0  0  0  0  0  0  0  0
    4.7230    1.8240    0.2680 C   0  0  0  0  0  0  0  0  0  0  0  0
    5.9610    1.4170   -0.1830 C   0  0  0  0  0  0  0  0  0  0  0  0
    6.0910    0.1160   -0.6110 C   0  0  0  0  0  0  0  0  0  0  0  0
    4.9970   -0.7380   -0.5790 C   0  0  0  0  0  0  0  0  0  0  0  0
    3.7650   -0.3050   -0.1220 C   0  0  0  0  0  0  0  0  0  0  0  0
    2.6670   -1.1220   -0.0780 O   0  0  0  0  0  0  0  0  0  0  0  0
   -2.8680    0.1310   -0.1270 N   0  0  0  0  0  0  0  0  0  0  0  0
   -5.6030    1.5730    0.6970 C   0  0  0  0  0  0  0  0  0  0  0  0
   -6.8890    1.1070    0.9950 O   0  0  0  0  0  0  0  0  0  0  0  0
  1  2  2  0
  1 22  1  0
  2  3  1  0
  2 21  1  0
  3  4  2  0
  3 20  1  0
  4  5  1  0
  5  6  2  0
  6  7  1  0
  7  8  1  0
  7 20  2  0
  8  9  1  0
 10  9  1  6
 10 11  1  0
 10 19  1  0
 11 12  1  0
 12 13  1  0
 13 14  2  0
 13 18  1  0
 14 15  1  0
 15 16  2  0
 16 17  1  0
 17 18  2  0
 18 19  1  0
 21 22  1  0
M  END
