
     RDKit          3D

 22 25  0  0  0  0  0  0  0  0999 V2000
    2.0750    0.3100    0.9450 C   0  0  0  0  0  0  0  0  0  0  0  0
    0.8400    0.2320    0.5740 C   0  0  0  0  0  0  0  0  0  0  0  0
    0.3120    0.3400   -0.7630 C   0  0  0  0  0  0  0  0  0  0  0  0
    0.9260    0.5560   -1.9200 N   0  0  0  0  0  0  0  0  0  0  0  0
    0.0850    0.5930   -2.9260 N   0  0  0  0  0  0  0  0  0  0  0  0
   -1.1410    0.3930   -2.4240 C   0  0  0  0  0  0  0  0  0  0  0  0
   -1.0560    0.2270   -1.0620 C   0  0  0  0  0  0  0  0  0  0  0  0
   -2.1590   -0.0310   -0.1290 C   0  0  0  0  0  0  0  0  0  0  0  0
   -2.1470   -1.0520    0.7960 C   0  0  0  0  0  0  0  0  0  0  0  0
   -3.2130   -1.2370    1.6520 C   0  0  0  0  0  0  0  0  0  0  0  0
   -4.3300   -0.4260    1.6320 C   0  0  0  0  0  0  0  0  0  0  0  0
   -4.3540    0.5990    0.7110 C   0  0  0  0  0  0  0  0  0  0  0  0
   -3.2860    0.7800   -0.1430 C   0  0  0  0  0  0  0  0  0  0  0  0
   -5.6430    1.3090    0.8970 C   0  0  0  0  0  0  0  0  0  0  0  0
   -6.5060    0.2440    1.5360 C   0  0  0  0  0  0  0  0  0  0  0  0
   -5.5280   -0.3910    2.3720 O   0  0  0  0  0  0  0  0  0  0  0  0
    3.2100    0.5260    0.0640 C   0  0  0  0  0  0  0  0  0  0  0  0
    4.2110   -0.6210    0.1350 C   0  0  2  0  0  0  0  0  0  0  0  0
    4.7600   -0.8020    1.5130 C   0  0  0  0  0  0  0  0  0  0  0  0
    6.2340   -1.0030    1.2290 C   0  0  0  0  0  0  0  0  0  0  0  0
    6.4270   -0.2190    0.1050 O   0  0  0  0  0  0  0  0  0  0  0  0
    5.3440   -0.3070   -0.6660 N   0  0  0  0  0  0  0  0  0  0  0  0
  1  2  2  3
  1 17  1  0
  2  3  1  0
  3  4  2  0
  3  7  1  0
  4  5  1  0
  5  6  1  0
  6  7  2  0
  7  8  1  0
  8  9  2  0
  8 13  1  0
  9 10  1  0
 10 11  2  0
 11 12  1  0
 11 16  1  0
 12 13  2  0
 12 14  1  0
 14 15  1  0
 15 16  1  0
 18 17  1  1
 18 19  1  0
 18 22  1  0
 19 20  1  0
 20 21  1  0
 21 22  1  0
M  END
