
     RDKit          3D

 14 15  0  0  0  0  0  0  0  0999 V2000
   -4.6140   -2.0330    1.3830 Cl  0  0  0  0  0  0  0  0  0  0  0  0
   -3.6060   -0.7260    0.7970 C   0  0  0  0  0  0  0  0  0  0  0  0
   -2.4090   -0.8010    0.2390 C   0  0  0  0  0  0  0  0  0  0  0  0
   -1.9200    0.5110   -0.1030 C   0  0  0  0  0  0  0  0  0  0  0  0
   -0.6720    0.8410   -0.7190 N   0  0  0  0  0  0  0  0  0  0  0  0
    0.5400    0.2260   -0.2580 C   0  0  0  0  0  0  0  0  0  0  0  0
    1.7140    0.7340   -1.0620 C   0  0  0  0  0  0  0  0  0  0  0  0
    2.9910    0.1240   -0.6190 C   0  0  0  0  0  0  0  0  0  0  0  0
    4.1710    0.4260   -1.1900 N   0  0  0  0  0  0  0  0  0  0  0  0
    5.1150   -0.2870   -0.5660 N   0  0  0  0  0  0  0  0  0  0  0  0
    4.5310   -1.0330    0.3930 C   0  0  0  0  0  0  0  0  0  0  0  0
    3.2080   -0.7750    0.3570 N   0  0  0  0  0  0  0  0  0  0  0  0
   -2.8310    1.3940    0.2530 C   0  0  0  0  0  0  0  0  0  0  0  0
   -3.9850    0.6990    0.8560 C   0  0  0  0  0  0  0  0  0  0  0  0
  1  2  1  0
  2  3  2  0
  2 14  1  0
  3  4  1  0
  4  5  1  0
  4 13  2  0
  5  6  1  0
  6  7  1  0
  7  8  1  0
  8  9  2  0
  8 12  1  0
  9 10  1  0
 10 11  2  0
 11 12  1  0
 13 14  1  0
M  END
