
     RDKit          3D

 14 15  0  0  0  0  0  0  0  0999 V2000
    1.5240    1.2150   -2.1020 N   0  0  0  0  0  0  0  0  0  0  0  0
    2.0910    0.7300   -0.8670 C   0  0  0  0  0  0  0  0  0  0  0  0
    3.3600    0.8360   -0.6490 N   0  0  0  0  0  0  0  0  0  0  0  0
    3.9450    0.3740    0.5440 N   0  0  0  0  0  0  0  0  0  0  0  0
    3.0620   -0.2130    1.4910 C   0  0  0  0  0  0  0  0  0  0  0  0
    3.7200   -0.8090    2.9960 Cl  0  0  0  0  0  0  0  0  0  0  0  0
    1.7650   -0.3350    1.2970 C   0  0  0  0  0  0  0  0  0  0  0  0
    1.2160    0.1400    0.0880 N   0  0  0  0  0  0  0  0  0  0  0  0
   -0.1910    0.0440   -0.1970 C   0  0  2  0  0  0  0  0  0  0  0  0
   -1.0370    0.7930    0.8290 C   0  0  0  0  0  0  0  0  0  0  0  0
   -2.3960    0.9820    0.1580 C   0  0  0  0  0  0  0  0  0  0  0  0
   -2.9980   -0.3960    0.0150 C   0  0  0  0  0  0  0  0  0  0  0  0
   -2.1110   -1.3710   -0.6770 C   0  0  0  0  0  0  0  0  0  0  0  0
   -0.6970   -1.3840   -0.1740 C   0  0  0  0  0  0  0  0  0  0  0  0
  1  2  1  0
  2  3  2  0
  2  8  1  0
  3  4  1  0
  4  5  1  0
  5  6  1  0
  5  7  2  0
  7  8  1  0
  9  8  1  1
  9 10  1  0
  9 14  1  0
 10 11  1  0
 11 12  1  0
 12 13  1  0
 13 14  1  0
M  END
