
     RDKit          3D

 14 15  0  0  0  0  0  0  0  0999 V2000
    4.0540    1.8020   -0.1530 N   0  0  0  0  0  0  0  0  0  0  0  0
    3.1420    0.6990   -0.1420 C   0  0  0  0  0  0  0  0  0  0  0  0
    1.8780    0.8400   -0.6140 N   0  0  0  0  0  0  0  0  0  0  0  0
    0.9910   -0.1640   -0.6230 C   0  0  0  0  0  0  0  0  0  0  0  0
   -0.3780   -0.0320   -1.1280 C   0  0  0  0  0  0  0  0  0  0  0  0
   -1.3000    0.3710   -0.0940 N   0  0  0  0  0  0  0  0  0  0  0  0
   -1.3700   -0.5530    1.0020 C   0  0  0  0  0  0  0  0  0  0  0  0
   -2.7640   -0.3650    1.6160 C   0  0  0  0  0  0  0  0  0  0  0  0
   -3.4560    0.5680    0.6430 C   0  0  0  0  0  0  0  0  0  0  0  0
   -2.6640    0.3030   -0.6230 C   0  0  0  0  0  0  0  0  0  0  0  0
    1.3900   -1.3490   -0.1410 N   0  0  0  0  0  0  0  0  0  0  0  0
    2.6290   -1.5740    0.3460 C   0  0  0  0  0  0  0  0  0  0  0  0
    3.5380   -0.5280    0.3510 C   0  0  0  0  0  0  0  0  0  0  0  0
    5.1660   -0.7410    0.9680 Cl  0  0  0  0  0  0  0  0  0  0  0  0
  1  2  1  0
  2  3  2  0
  2 13  1  0
  3  4  1  0
  4  5  1  0
  4 11  2  0
  5  6  1  0
  6  7  1  0
  6 10  1  0
  7  8  1  0
  8  9  1  0
  9 10  1  0
 11 12  1  0
 12 13  2  0
 13 14  1  0
M  END
