
     RDKit          3D

 14 15  0  0  0  0  0  0  0  0999 V2000
   -4.5620    0.3100    0.4200 C   0  0  0  0  0  0  0  0  0  0  0  0
   -3.1630   -0.0180    0.4190 N   0  0  0  0  0  0  0  0  0  0  0  0
   -2.4170    0.7830   -0.5320 C   0  0  0  0  0  0  0  0  0  0  0  0
   -0.9780    0.3400   -0.4290 C   0  0  0  0  0  0  0  0  0  0  0  0
   -0.5120   -0.6580   -1.1990 N   0  0  0  0  0  0  0  0  0  0  0  0
    0.7620   -1.0660   -1.1230 C   0  0  0  0  0  0  0  0  0  0  0  0
    1.5950   -0.4330   -0.2250 C   0  0  0  0  0  0  0  0  0  0  0  0
    1.1300    0.6030    0.5810 C   0  0  0  0  0  0  0  0  0  0  0  0
   -0.1550    0.9450    0.4380 N   0  0  0  0  0  0  0  0  0  0  0  0
    2.1720    1.0980    1.4220 N   0  0  0  0  0  0  0  0  0  0  0  0
    3.4200    0.7180    0.7520 C   0  0  0  0  0  0  0  0  0  0  0  0
    3.0010   -0.5940    0.1290 C   0  0  0  0  0  0  0  0  0  0  0  0
    3.7440   -1.6560   -0.0500 C   0  0  0  0  0  0  0  0  0  0  0  0
    3.0960   -3.0810   -0.7740 Cl  0  0  0  0  0  0  0  0  0  0  0  0
  1  2  1  0
  2  3  1  0
  3  4  1  0
  4  5  2  0
  4  9  1  0
  5  6  1  0
  6  7  2  0
  7  8  1  0
  7 12  1  0
  8  9  2  0
  8 10  1  0
 10 11  1  0
 11 12  1  0
 12 13  2  3
 13 14  1  0
M  END
