
     RDKit          3D

 14 15  0  0  0  0  0  0  0  0999 V2000
    3.2610   -1.1230    0.0410 N   0  0  0  0  0  0  0  0  0  0  0  0
    2.5620    0.0990   -0.0690 C   0  0  0  0  0  0  0  0  0  0  0  0
    3.1910    1.1840   -0.2220 N   0  0  0  0  0  0  0  0  0  0  0  0
    4.6370    1.1710   -0.2830 C   0  0  0  0  0  0  0  0  0  0  0  0
    5.0650    0.9060   -2.0100 Cl  0  0  0  0  0  0  0  0  0  0  0  0
    1.0910    0.0820   -0.0030 C   0  0  0  0  0  0  0  0  0  0  0  0
    0.2850   -1.0190    0.1600 C   0  0  0  0  0  0  0  0  0  0  0  0
   -1.0470   -0.6020    0.1700 C   0  0  0  0  0  0  0  0  0  0  0  0
   -1.0250    0.7190    0.0170 N   0  0  0  0  0  0  0  0  0  0  0  0
    0.2490    1.1120   -0.0850 N   0  0  0  0  0  0  0  0  0  0  0  0
   -2.2750    1.5010   -0.0180 C   0  0  0  0  0  0  0  0  0  0  0  0
   -3.3510    0.5850   -0.5620 C   0  0  0  0  0  0  0  0  0  0  0  0
   -3.4910   -0.5230    0.4750 C   0  0  0  0  0  0  0  0  0  0  0  0
   -2.3090   -1.4130    0.3180 C   0  0  0  0  0  0  0  0  0  0  0  0
  1  2  1  0
  2  3  2  3
  2  6  1  0
  3  4  1  0
  4  5  1  0
  6  7  1  0
  6 10  2  0
  7  8  2  0
  8  9  1  0
  8 14  1  0
  9 10  1  0
  9 11  1  0
 11 12  1  0
 12 13  1  0
 13 14  1  0
M  END
