
     RDKit          3D

 14 15  0  0  0  0  0  0  0  0999 V2000
   -1.6790   -2.0870   -0.8050 N   0  0  0  0  0  0  0  0  0  0  0  0
   -2.1660   -0.8380   -0.2850 C   0  0  0  0  0  0  0  0  0  0  0  0
   -3.4410   -0.5940   -0.2920 N   0  0  0  0  0  0  0  0  0  0  0  0
   -3.9290    0.6060    0.2060 N   0  0  0  0  0  0  0  0  0  0  0  0
   -3.0040    1.5710    0.7270 C   0  0  0  0  0  0  0  0  0  0  0  0
   -3.6080    3.1040    1.3640 Cl  0  0  0  0  0  0  0  0  0  0  0  0
   -1.7140    1.3160    0.7300 C   0  0  0  0  0  0  0  0  0  0  0  0
   -1.2090    0.0620    0.2090 N   0  0  0  0  0  0  0  0  0  0  0  0
    0.1960   -0.0790    0.2710 C   0  0  1  0  0  0  0  0  0  0  0  0
    0.8500   -1.3030   -0.1840 C   0  0  0  0  0  0  0  0  0  0  0  0
    2.3140   -1.2700    0.2370 C   0  0  0  0  0  0  0  0  0  0  0  0
    3.0090   -0.0130   -0.1910 C   0  0  0  0  0  0  0  0  0  0  0  0
    2.2120    1.2330   -0.0120 C   0  0  0  0  0  0  0  0  0  0  0  0
    0.8020    1.0810   -0.5410 C   0  0  0  0  0  0  0  0  0  0  0  0
  1  2  1  0
  2  3  2  0
  2  8  1  0
  3  4  1  0
  4  5  1  0
  5  6  1  0
  5  7  2  0
  7  8  1  0
  9  8  1  6
  9 10  1  0
  9 14  1  0
 10 11  1  0
 11 12  1  0
 12 13  1  0
 13 14  1  0
M  END
