
     RDKit          3D

 14 15  0  0  0  0  0  0  0  0999 V2000
   -2.2360    1.5870   -0.3730 N   0  0  0  0  0  0  0  0  0  0  0  0
   -2.1950    0.3040    0.2550 C   0  0  0  0  0  0  0  0  0  0  0  0
   -2.9930   -0.1050    1.2660 N   0  0  0  0  0  0  0  0  0  0  0  0
   -2.6880   -1.3660    1.6200 C   0  0  0  0  0  0  0  0  0  0  0  0
   -1.6450   -1.7240    0.7640 C   0  0  0  0  0  0  0  0  0  0  0  0
   -1.3600   -0.7080   -0.0510 N   0  0  0  0  0  0  0  0  0  0  0  0
   -0.3490   -0.6590   -1.0890 C   0  0  0  0  0  0  0  0  0  0  0  0
    0.9550   -0.1670   -0.5920 C   0  0  0  0  0  0  0  0  0  0  0  0
    1.2820    1.1680   -0.6020 C   0  0  0  0  0  0  0  0  0  0  0  0
    2.5080    1.5500   -0.1250 C   0  0  0  0  0  0  0  0  0  0  0  0
    3.4050    0.6240    0.3580 C   0  0  0  0  0  0  0  0  0  0  0  0
    4.9850    1.1350    0.9700 Cl  0  0  0  0  0  0  0  0  0  0  0  0
    3.0610   -0.6770    0.3580 N   0  0  0  0  0  0  0  0  0  0  0  0
    1.8640   -1.0740   -0.1050 C   0  0  0  0  0  0  0  0  0  0  0  0
  1  2  1  0
  2  3  2  0
  2  6  1  0
  3  4  1  0
  4  5  2  0
  5  6  1  0
  6  7  1  0
  7  8  1  0
  8  9  2  0
  8 14  1  0
  9 10  1  0
 10 11  2  0
 11 12  1  0
 11 13  1  0
 13 14  2  0
M  END
