
     RDKit          3D

 14 15  0  0  0  0  0  0  0  0999 V2000
    3.1430   -1.0830   -0.8660 N   0  0  0  0  0  0  0  0  0  0  0  0
    2.5290   -0.1980    0.0560 C   0  0  0  0  0  0  0  0  0  0  0  0
    3.1820    0.5860    0.8190 N   0  0  0  0  0  0  0  0  0  0  0  0
    4.6310    0.6070    0.7770 C   0  0  0  0  0  0  0  0  0  0  0  0
    5.1530    2.1430    0.0200 Cl  0  0  0  0  0  0  0  0  0  0  0  0
    1.0550   -0.2140    0.1040 C   0  0  0  0  0  0  0  0  0  0  0  0
    0.2020   -0.9890   -0.6420 C   0  0  0  0  0  0  0  0  0  0  0  0
   -1.0650   -0.6480   -0.2410 C   0  0  0  0  0  0  0  0  0  0  0  0
   -0.9800    0.2940    0.7070 N   0  0  0  0  0  0  0  0  0  0  0  0
    0.2930    0.5420    0.9020 N   0  0  0  0  0  0  0  0  0  0  0  0
   -2.1940    0.8230    1.2940 C   0  0  0  0  0  0  0  0  0  0  0  0
   -3.1930    1.1320    0.2120 C   0  0  0  0  0  0  0  0  0  0  0  0
   -3.3150    0.0760   -0.8310 C   0  0  0  0  0  0  0  0  0  0  0  0
   -2.4210   -1.1060   -0.6450 C   0  0  0  0  0  0  0  0  0  0  0  0
  1  2  1  0
  2  3  2  3
  2  6  1  0
  3  4  1  0
  4  5  1  0
  6  7  1  0
  6 10  2  0
  7  8  2  0
  8  9  1  0
  8 14  1  0
  9 10  1  0
  9 11  1  0
 11 12  1  0
 12 13  1  0
 13 14  1  0
M  END
