
     RDKit          3D

 14 15  0  0  0  0  0  0  0  0999 V2000
   -2.3460   -1.5530    1.5490 C   0  0  0  0  0  0  0  0  0  0  0  0
   -2.6680   -0.4000    1.0650 C   0  0  0  0  0  0  0  0  0  0  0  0
   -1.7860    0.4890    0.3550 C   0  0  0  0  0  0  0  0  0  0  0  0
   -2.3620    1.6330   -0.0500 C   0  0  0  0  0  0  0  0  0  0  0  0
   -4.0570    1.9050    0.3170 Cl  0  0  0  0  0  0  0  0  0  0  0  0
   -0.4140    0.2020    0.0920 N   0  0  0  0  0  0  0  0  0  0  0  0
    0.2140   -0.9100    0.4650 N   0  0  0  0  0  0  0  0  0  0  0  0
    1.4780   -0.9390    0.1030 C   0  0  0  0  0  0  0  0  0  0  0  0
    2.5210   -1.9770    0.3160 C   0  0  0  0  0  0  0  0  0  0  0  0
    1.6870    0.2550   -0.5590 C   0  0  0  0  0  0  0  0  0  0  0  0
    2.6070    1.0210   -1.2180 C   0  0  0  0  0  0  0  0  0  0  0  0
    1.9760    2.1260   -1.5870 N   0  0  0  0  0  0  0  0  0  0  0  0
    0.7000    2.1250   -1.2070 N   0  0  0  0  0  0  0  0  0  0  0  0
    0.4800    0.9690   -0.5600 C   0  0  0  0  0  0  0  0  0  0  0  0
  1  2  2  0
  2  3  1  0
  3  4  2  3
  3  6  1  0
  4  5  1  0
  6  7  1  0
  6 14  1  0
  7  8  2  0
  8  9  1  0
  8 10  1  0
 10 11  1  0
 10 14  2  0
 11 12  2  0
 12 13  1  0
 13 14  1  0
M  END
