
     RDKit          3D

 12 13  0  0  0  0  0  0  0  0999 V2000
    3.3380    1.8790   -0.2510 O   0  0  0  0  0  0  0  0  0  0  0  0
    2.2240    1.3250   -0.3290 C   0  0  0  0  0  0  0  0  0  0  0  0
    1.0170    1.7560   -0.9220 N   0  0  0  0  0  0  0  0  0  0  0  0
    0.0200    0.7640   -0.7460 C   0  0  0  0  0  0  0  0  0  0  0  0
    0.5370   -0.2800   -0.0670 C   0  0  0  0  0  0  0  0  0  0  0  0
   -0.4050   -1.4000    0.1890 C   0  0  0  0  0  0  0  0  0  0  0  0
   -1.6020   -0.7720    0.9120 C   0  0  0  0  0  0  0  0  0  0  0  0
   -2.2200    0.3100    0.0930 C   0  0  0  0  0  0  0  0  0  0  0  0
   -1.4220    0.6430   -1.1420 C   0  0  0  0  0  0  0  0  0  0  0  0
    1.9330   -0.0100    0.2390 C   0  0  0  0  0  0  0  0  0  0  0  0
    2.7810   -0.7830    0.8860 C   0  0  0  0  0  0  0  0  0  0  0  0
    2.3890   -2.3450    1.5340 Cl  0  0  0  0  0  0  0  0  0  0  0  0
  1  2  2  0
  2  3  1  0
  2 10  1  0
  3  4  1  0
  4  5  2  0
  4  9  1  0
  5  6  1  0
  5 10  1  0
  6  7  1  0
  7  8  1  0
  8  9  1  0
 10 11  2  3
 11 12  1  0
M  END
