
     RDKit          3D

 14 15  0  0  0  0  0  0  0  0999 V2000
   -1.2000   -1.7860   -1.0300 N   0  0  0  0  0  0  0  0  0  0  0  0
   -0.0070   -1.1900   -0.5730 C   0  0  0  0  0  0  0  0  0  0  0  0
    1.2070   -1.8630   -0.7080 C   0  0  0  0  0  0  0  0  0  0  0  0
    2.3690   -1.2750   -0.2590 C   0  0  0  0  0  0  0  0  0  0  0  0
    2.2520   -0.0220    0.3120 C   0  0  0  0  0  0  0  0  0  0  0  0
    3.4900    0.6360    0.8050 C   0  0  0  0  0  0  0  0  0  0  0  0
    4.2520    1.6220   -0.4680 Cl  0  0  0  0  0  0  0  0  0  0  0  0
    1.0640    0.6050    0.4290 N   0  0  0  0  0  0  0  0  0  0  0  0
   -0.0930    0.0590    0.0000 C   0  0  0  0  0  0  0  0  0  0  0  0
   -1.3310    0.7560    0.1430 N   0  0  0  0  0  0  0  0  0  0  0  0
   -2.5370    0.2560    0.3850 C   0  0  0  0  0  0  0  0  0  0  0  0
   -3.4840    1.2650    0.4530 C   0  0  0  0  0  0  0  0  0  0  0  0
   -2.7530    2.4310    0.2310 C   0  0  0  0  0  0  0  0  0  0  0  0
   -1.4700    2.0690    0.0520 N   0  0  0  0  0  0  0  0  0  0  0  0
  1  2  1  0
  2  3  2  0
  2  9  1  0
  3  4  1  0
  4  5  2  0
  5  6  1  0
  5  8  1  0
  6  7  1  0
  8  9  2  0
  9 10  1  0
 10 11  1  0
 10 14  1  0
 11 12  2  0
 12 13  1  0
 13 14  2  0
M  END
