
     RDKit          3D

 14 15  0  0  0  0  0  0  0  0999 V2000
    4.6000   -0.1280    0.1470 C   0  0  0  0  0  0  0  0  0  0  0  0
    3.1820   -0.2490    0.3340 N   0  0  0  0  0  0  0  0  0  0  0  0
    2.4580   -0.2850   -0.9250 C   0  0  0  0  0  0  0  0  0  0  0  0
    0.9990   -0.4120   -0.5710 C   0  0  0  0  0  0  0  0  0  0  0  0
    0.4150   -1.6140   -0.4280 N   0  0  0  0  0  0  0  0  0  0  0  0
   -0.8900   -1.6950   -0.1120 C   0  0  0  0  0  0  0  0  0  0  0  0
   -1.5800   -0.5140    0.0540 C   0  0  0  0  0  0  0  0  0  0  0  0
   -0.9740    0.7150   -0.0950 C   0  0  0  0  0  0  0  0  0  0  0  0
    0.3320    0.7420   -0.4110 N   0  0  0  0  0  0  0  0  0  0  0  0
   -1.9150    1.7610    0.1330 N   0  0  0  0  0  0  0  0  0  0  0  0
   -3.2220    1.1650   -0.0660 C   0  0  0  0  0  0  0  0  0  0  0  0
   -2.9890   -0.2290    0.3950 C   0  0  0  0  0  0  0  0  0  0  0  0
   -3.8340   -1.0580    0.9830 C   0  0  0  0  0  0  0  0  0  0  0  0
   -5.4660   -0.5230    1.2990 Cl  0  0  0  0  0  0  0  0  0  0  0  0
  1  2  1  0
  2  3  1  0
  3  4  1  0
  4  5  2  0
  4  9  1  0
  5  6  1  0
  6  7  2  0
  7  8  1  0
  7 12  1  0
  8  9  2  0
  8 10  1  0
 10 11  1  0
 11 12  1  0
 12 13  2  3
 13 14  1  0
M  END
