
     RDKit          3D

 23 23  0  0  0  0  0  0  0  0999 V2000
   -3.8260   -1.1470   -0.3780 O   0  0  0  0  0  0  0  0  0  0  0  0
   -3.3460   -1.1990    0.7600 C   0  0  0  0  0  0  0  0  0  0  0  0
   -4.2260   -1.6250    1.7690 O   0  0  0  0  0  0  0  0  0  0  0  0
   -1.9760   -0.8640    1.1320 C   0  0  2  0  0  0  0  0  0  0  0  0
   -2.0470    0.1440    2.2810 C   0  0  0  0  0  0  0  0  0  0  0  0
   -2.7410   -0.5390    3.3090 O   0  0  0  0  0  0  0  0  0  0  0  0
   -1.1240   -0.2930    0.0020 C   0  0  1  0  0  0  0  0  0  0  0  0
   -1.7380    0.9640   -0.4710 C   0  0  0  0  0  0  0  0  0  0  0  0
   -1.0180    1.6510   -1.5950 C   0  0  2  0  0  0  0  0  0  0  0  0
   -1.6980    2.8260   -1.9410 O   0  0  0  0  0  0  0  0  0  0  0  0
   -1.0870    0.8560   -2.7650 O   0  0  0  0  0  0  0  0  0  0  0  0
    0.2500   -0.1530    0.5900 C   0  0  0  0  0  0  0  0  0  0  0  0
    1.1300   -0.8650   -0.3740 C   0  0  2  0  0  0  0  0  0  0  0  0
    1.8760   -2.0340    0.3320 C   0  0  0  0  0  0  0  0  0  0  0  0
    0.9600   -2.8590    0.9800 O   0  0  0  0  0  0  0  0  0  0  0  0
    2.0780   -0.0630   -1.0120 O   0  0  0  0  0  0  0  0  0  0  0  0
    2.9820    0.5430   -0.1960 C   0  0  1  0  0  0  0  0  0  0  0  0
    4.2930   -0.0130   -0.4030 O   0  0  0  0  0  0  0  0  0  0  0  0
    3.1930    2.0130   -0.4390 C   0  0  1  0  0  0  0  0  0  0  0  0
    3.6340    2.2030   -1.7510 O   0  0  0  0  0  0  0  0  0  0  0  0
    2.1720    2.8350   -0.0590 O   0  0  0  0  0  0  0  0  0  0  0  0
    0.2320   -1.5090   -1.3490 C   0  0  0  0  0  0  0  0  0  0  0  0
   -1.0370   -1.1560   -1.0570 O   0  0  0  0  0  0  0  0  0  0  0  0
  1  2  2  0
  2  3  1  0
  2  4  1  0
  4  5  1  1
  4  7  1  0
  5  6  1  0
  7  8  1  6
  7 12  1  0
  7 23  1  0
  8  9  1  0
  9 10  1  6
  9 11  1  0
 12 13  1  0
 13 14  1  1
 13 16  1  0
 13 22  1  0
 14 15  1  0
 16 17  1  0
 17 18  1  6
 17 19  1  0
 19 20  1  6
 19 21  1  0
 22 23  1  0
M  END
