
     RDKit          3D

 22 22  0  0  0  0  0  0  0  0999 V2000
   -2.0070    0.2690   -3.0770 O   0  0  0  0  0  0  0  0  0  0  0  0
   -1.4640    1.1850   -2.4360 C   0  0  0  0  0  0  0  0  0  0  0  0
   -1.3010    2.4240   -3.0010 O   0  0  0  0  0  0  0  0  0  0  0  0
   -0.9910    0.9340   -1.0550 C   0  0  2  0  0  0  0  0  0  0  0  0
   -0.4170    2.1500   -0.5720 O   0  0  0  0  0  0  0  0  0  0  0  0
    0.1260   -0.0530   -1.0120 C   0  0  0  0  0  0  0  0  0  0  0  0
    0.4090   -0.6330    0.3490 C   0  0  2  0  0  0  0  0  0  0  0  0
    1.4420   -1.5300    0.2270 O   0  0  0  0  0  0  0  0  0  0  0  0
    2.5360   -1.2330    1.0550 C   0  0  1  0  0  0  0  0  0  0  0  0
    2.5790   -2.2010    2.1030 O   0  0  0  0  0  0  0  0  0  0  0  0
    3.6540   -1.2020    0.3400 O   0  0  0  0  0  0  0  0  0  0  0  0
    4.5060   -0.1930    0.2320 C   0  0  0  0  0  0  0  0  0  0  0  0
    3.9160    1.0450   -0.3720 C   0  0  0  0  0  0  0  0  0  0  0  0
    2.8700    1.5310    0.3850 O   0  0  0  0  0  0  0  0  0  0  0  0
   -0.7950   -1.3670    0.8950 C   0  0  0  0  0  0  0  0  0  0  0  0
   -2.0880   -0.8100    0.4280 C   0  0  2  0  0  0  0  0  0  0  0  0
   -3.0130   -0.7920    1.5170 O   0  0  0  0  0  0  0  0  0  0  0  0
   -2.7290   -1.7660   -0.5750 C   0  0  0  0  0  0  0  0  0  0  0  0
   -2.8920   -3.0320    0.0210 O   0  0  0  0  0  0  0  0  0  0  0  0
   -2.0830    0.5660   -0.1230 C   0  0  1  0  0  0  0  0  0  0  0  0
   -2.0940    1.5840    1.0280 C   0  0  0  0  0  0  0  0  0  0  0  0
   -3.0960    1.3090    1.9490 O   0  0  0  0  0  0  0  0  0  0  0  0
  1  2  2  0
  2  3  1  0
  2  4  1  0
  4  5  1  1
  4  6  1  0
  4 20  1  0
  6  7  1  0
  7  8  1  6
  7 15  1  0
  8  9  1  0
  9 10  1  1
  9 11  1  0
 11 12  1  0
 12 13  1  0
 13 14  1  0
 15 16  1  0
 16 17  1  1
 16 18  1  0
 16 20  1  0
 18 19  1  0
 20 21  1  1
 21 22  1  0
M  END
