
     RDKit          3D

 20 20  0  0  0  0  0  0  0  0999 V2000
   -5.7480    1.5240   -0.2560 C   0  0  0  0  0  0  0  0  0  0  0  0
   -4.7810    2.4650    0.4400 C   0  0  0  0  0  0  0  0  0  0  0  0
   -3.8960    1.7370    1.4210 C   0  0  0  0  0  0  0  0  0  0  0  0
   -3.0720    0.6860    0.7820 C   0  0  0  0  0  0  0  0  0  0  0  0
   -3.4980   -0.6180    0.6460 C   0  0  0  0  0  0  0  0  0  0  0  0
   -2.6990   -1.5760    0.0420 C   0  0  0  0  0  0  0  0  0  0  0  0
   -3.1410   -2.9890   -0.1140 C   0  0  0  0  0  0  0  0  0  0  0  0
   -2.6930   -3.7420    1.1220 C   0  0  0  0  0  0  0  0  0  0  0  0
   -1.4600   -1.1990   -0.4250 C   0  0  0  0  0  0  0  0  0  0  0  0
   -0.9850    0.0910   -0.3150 C   0  0  0  0  0  0  0  0  0  0  0  0
    0.3610    0.4350   -0.8390 C   0  0  0  0  0  0  0  0  0  0  0  0
    1.3540    0.2770    0.0930 O   0  0  0  0  0  0  0  0  0  0  0  0
    2.5920    0.6310   -0.5090 C   0  0  1  0  0  0  0  0  0  0  0  0
    3.0700    1.8380    0.2040 C   0  0  0  0  0  0  0  0  0  0  0  0
    3.4400   -0.5740   -0.5050 C   0  0  1  0  0  0  0  0  0  0  0  0
    2.7260   -1.5610   -1.2440 O   0  0  0  0  0  0  0  0  0  0  0  0
    4.7870   -0.5110   -1.1000 C   0  0  0  0  0  0  0  0  0  0  0  0
    5.7710    0.4350   -0.5180 C   0  0  0  0  0  0  0  0  0  0  0  0
    6.0780    0.1520    0.9420 C   0  0  0  0  0  0  0  0  0  0  0  0
   -1.8050    1.0190    0.2910 C   0  0  0  0  0  0  0  0  0  0  0  0
  1  2  1  0
  2  3  1  0
  3  4  1  0
  4  5  2  0
  4 20  1  0
  5  6  1  0
  6  7  1  0
  6  9  2  0
  7  8  1  0
  9 10  1  0
 10 11  1  0
 10 20  2  0
 11 12  1  0
 12 13  1  0
 13 14  1  1
 13 15  1  0
 15 16  1  6
 15 17  1  0
 17 18  1  0
 18 19  1  0
M  END
