
     RDKit          3D

 26 29  0  0  0  0  0  0  0  0999 V2000
   -6.1850    1.1510    0.3610 C   0  0  0  0  0  0  0  0  0  0  0  0
   -4.6440    0.8930    0.2240 C   0  0  2  0  0  0  0  0  0  0  0  0
   -4.0370    2.0320    0.9690 C   0  0  0  0  0  0  0  0  0  0  0  0
   -4.4110    1.0760   -1.2830 C   0  0  0  0  0  0  0  0  0  0  0  0
   -4.3810   -0.4410    0.7100 C   0  0  0  0  0  0  0  0  0  0  0  0
   -5.4020   -1.2300    1.1910 N   0  0  0  0  0  0  0  0  0  0  0  0
   -4.9180   -2.3850    1.5770 N   0  0  0  0  0  0  0  0  0  0  0  0
   -3.6080   -2.4410    1.3890 C   0  0  0  0  0  0  0  0  0  0  0  0
   -2.7270   -3.4760    1.6630 O   0  0  0  0  0  0  0  0  0  0  0  0
   -3.2460   -1.1810    0.8250 C   0  0  0  0  0  0  0  0  0  0  0  0
   -1.9040   -0.8590    0.4740 C   0  0  0  0  0  0  0  0  0  0  0  0
   -1.3120    0.1640   -0.0510 C   0  0  0  0  0  0  0  0  0  0  0  0
    0.1070    0.3080   -0.3350 C   0  0  0  0  0  0  0  0  0  0  0  0
    0.5970    1.3800   -1.0160 N   0  0  0  0  0  0  0  0  0  0  0  0
    1.8890    1.2610   -1.1270 N   0  0  0  0  0  0  0  0  0  0  0  0
    2.2810    0.1390   -0.5400 C   0  0  0  0  0  0  0  0  0  0  0  0
    1.1630   -0.4550   -0.0420 N   0  0  0  0  0  0  0  0  0  0  0  0
    1.2930   -1.6790    0.6820 C   0  0  0  0  0  0  0  0  0  0  0  0
    2.7160   -1.9850    1.0680 C   0  0  0  0  0  0  0  0  0  0  0  0
    3.5730   -1.8270   -0.0610 N   0  0  0  0  0  0  0  0  0  0  0  0
    3.6470   -0.4140   -0.4460 C   0  0  1  0  0  0  0  0  0  0  0  0
    4.2620   -0.3750   -1.8090 C   0  0  0  0  0  0  0  0  0  0  0  0
    4.8930    0.9230   -2.1790 C   0  0  0  0  0  0  0  0  0  0  0  0
    5.7080    1.5250   -1.0560 C   0  0  0  0  0  0  0  0  0  0  0  0
    4.9270    1.6540    0.2130 C   0  0  0  0  0  0  0  0  0  0  0  0
    4.4060    0.3090    0.6120 C   0  0  0  0  0  0  0  0  0  0  0  0
  2  1  1  6
  2  3  1  0
  2  4  1  0
  2  5  1  0
  5  6  1  0
  5 10  2  0
  6  7  1  0
  7  8  2  0
  8  9  1  0
  8 10  1  0
 10 11  1  0
 11 12  2  3
 12 13  1  0
 13 14  2  0
 13 17  1  0
 14 15  1  0
 15 16  2  0
 16 17  1  0
 16 21  1  0
 17 18  1  0
 18 19  1  0
 19 20  1  0
 20 21  1  0
 21 22  1  6
 21 26  1  0
 22 23  1  0
 23 24  1  0
 24 25  1  0
 25 26  1  0
M  END
