
     RDKit          3D

 20 20  0  0  0  0  0  0  0  0999 V2000
    5.2010    1.4520   -0.7440 C   0  0  0  0  0  0  0  0  0  0  0  0
    5.2500    0.5510    0.4550 C   0  0  0  0  0  0  0  0  0  0  0  0
    4.5810   -0.7720    0.1360 C   0  0  0  0  0  0  0  0  0  0  0  0
    3.1280   -0.6200   -0.2570 C   0  0  0  0  0  0  0  0  0  0  0  0
    2.3040   -0.0020    0.8240 C   0  0  0  0  0  0  0  0  0  0  0  0
    0.9570    0.1530    0.5690 O   0  0  0  0  0  0  0  0  0  0  0  0
   -0.0180   -0.7620    0.3660 C   0  0  0  0  0  0  0  0  0  0  0  0
    0.2750   -2.1220    0.4420 C   0  0  0  0  0  0  0  0  0  0  0  0
   -0.7260   -3.0730    0.2370 C   0  0  0  0  0  0  0  0  0  0  0  0
   -1.9920   -2.6260   -0.0360 C   0  0  0  0  0  0  0  0  0  0  0  0
   -3.0970   -3.5850   -0.2660 C   0  0  1  0  0  0  0  0  0  0  0  0
   -4.0210   -3.5340    0.9240 C   0  0  0  0  0  0  0  0  0  0  0  0
   -3.8270   -3.2340   -1.3970 O   0  0  0  0  0  0  0  0  0  0  0  0
   -2.2710   -1.2480   -0.1080 C   0  0  0  0  0  0  0  0  0  0  0  0
   -1.2980   -0.3020    0.0910 C   0  0  0  0  0  0  0  0  0  0  0  0
   -1.5840    1.1150   -0.0230 C   0  0  1  0  0  0  0  0  0  0  0  0
   -3.0310    1.4550    0.1080 C   0  0  0  0  0  0  0  0  0  0  0  0
   -0.6490    2.0730    0.5400 C   0  0  0  0  0  0  0  0  0  0  0  0
   -1.0500    3.5060    0.4090 C   0  0  0  0  0  0  0  0  0  0  0  0
   -2.2320    4.0060    1.1290 C   0  0  0  0  0  0  0  0  0  0  0  0
  1  2  1  0
  2  3  1  0
  3  4  1  0
  4  5  1  0
  5  6  1  0
  6  7  1  0
  7  8  2  0
  7 15  1  0
  8  9  1  0
  9 10  2  0
 10 11  1  0
 10 14  1  0
 11 12  1  1
 11 13  1  0
 14 15  2  0
 15 16  1  0
 16 17  1  1
 16 18  1  0
 18 19  1  0
 19 20  1  0
M  END
