
     RDKit          3D

 20 20  0  0  0  0  0  0  0  0999 V2000
   -0.8810    3.6300    1.7890 C   0  0  0  0  0  0  0  0  0  0  0  0
    0.1350    2.9880    1.3160 C   0  0  0  0  0  0  0  0  0  0  0  0
    0.2870    2.5120   -0.0790 C   0  0  0  0  0  0  0  0  0  0  0  0
    0.6170    1.0710   -0.1490 C   0  0  0  0  0  0  0  0  0  0  0  0
    1.9780    0.7700   -0.3800 C   0  0  0  0  0  0  0  0  0  0  0  0
    2.4640   -0.5060   -0.4180 C   0  0  0  0  0  0  0  0  0  0  0  0
    3.8700   -0.8190   -0.6570 C   0  0  0  0  0  0  0  0  0  0  0  0
    4.2140   -2.0470   -0.6720 O   0  0  0  0  0  0  0  0  0  0  0  0
    4.8880    0.1650   -0.8770 C   0  0  0  0  0  0  0  0  0  0  0  0
    6.1480   -0.1640   -1.0890 C   0  0  0  0  0  0  0  0  0  0  0  0
    1.5490   -1.5110   -0.2160 C   0  0  0  0  0  0  0  0  0  0  0  0
    0.2240   -1.2580    0.0100 C   0  0  0  0  0  0  0  0  0  0  0  0
   -0.6740   -2.2930    0.2100 O   0  0  0  0  0  0  0  0  0  0  0  0
   -0.2110   -3.6160    0.1790 C   0  0  0  0  0  0  0  0  0  0  0  0
   -1.3870   -4.5270    0.4240 C   0  0  0  0  0  0  0  0  0  0  0  0
   -0.2720    0.0860    0.0450 C   0  0  0  0  0  0  0  0  0  0  0  0
   -1.6720    0.2230    0.2210 C   0  0  0  0  0  0  0  0  0  0  0  0
   -2.4680    1.2270    0.0720 C   0  0  0  0  0  0  0  0  0  0  0  0
   -3.9700    1.0470    0.3520 C   0  0  0  0  0  0  0  0  0  0  0  0
   -4.6990    1.3610   -0.9160 C   0  0  0  0  0  0  0  0  0  0  0  0
  1  2  2  0
  2  3  1  0
  3  4  1  0
  4  5  2  0
  4 16  1  0
  5  6  1  0
  6  7  1  0
  6 11  2  0
  7  8  2  0
  7  9  1  0
  9 10  2  0
 11 12  1  0
 12 13  1  0
 12 16  2  0
 13 14  1  0
 14 15  1  0
 16 17  1  0
 17 18  2  3
 18 19  1  0
 19 20  1  0
M  END
