
     RDKit          3D

 33 35  0  0  0  0  0  0  0  0999 V2000
   -6.1440   -3.1040    2.5340 C   0  0  0  0  0  0  0  0  0  0  0  0
   -6.2310   -1.8240    1.9040 N   0  0  0  0  0  0  0  0  0  0  0  0
   -5.1080   -1.3620    1.3190 C   0  0  0  0  0  0  0  0  0  0  0  0
   -5.2500   -0.1130    0.7230 C   0  0  0  0  0  0  0  0  0  0  0  0
   -4.4510    0.7030    0.0600 C   0  0  0  0  0  0  0  0  0  0  0  0
   -3.0880    0.3600   -0.1740 C   0  0  0  0  0  0  0  0  0  0  0  0
   -2.2290    1.0260   -0.8000 O   0  0  0  0  0  0  0  0  0  0  0  0
   -2.5040   -0.9250    0.3460 C   0  0  0  0  0  0  0  0  0  0  0  0
   -1.0970   -1.0000   -0.0320 O   0  0  0  0  0  0  0  0  0  0  0  0
   -0.1770   -0.0750    0.3980 C   0  0  0  0  0  0  0  0  0  0  0  0
   -0.5080    0.8690    1.1350 O   0  0  0  0  0  0  0  0  0  0  0  0
    1.2220   -0.2550   -0.0550 C   0  0  0  0  0  0  0  0  0  0  0  0
    1.5780   -1.3080   -0.8700 C   0  0  0  0  0  0  0  0  0  0  0  0
    2.8780   -1.4850   -1.2980 C   0  0  0  0  0  0  0  0  0  0  0  0
    3.8640   -0.6200   -0.9300 C   0  0  0  0  0  0  0  0  0  0  0  0
    5.2920   -0.7130   -1.3290 C   0  0  1  0  0  0  0  0  0  0  0  0
    5.7010    0.3630   -2.2160 C   0  0  0  0  0  0  0  0  0  0  0  0
    6.7930    1.0520   -2.0400 C   0  0  0  0  0  0  0  0  0  0  0  0
    7.7160    0.8190   -0.9400 C   0  0  0  0  0  0  0  0  0  0  0  0
    7.4030   -0.1460   -0.0920 C   0  0  0  0  0  0  0  0  0  0  0  0
    6.2070   -0.9430   -0.2330 C   0  0  0  0  0  0  0  0  0  0  0  0
    5.9900   -1.8960    0.6940 C   0  0  0  0  0  0  0  0  0  0  0  0
    6.9690   -2.0660    1.7760 C   0  0  0  0  0  0  0  0  0  0  0  0
    4.8520   -2.7090    0.6290 O   0  0  0  0  0  0  0  0  0  0  0  0
    4.0070   -2.8420    1.7760 C   0  0  0  0  0  0  0  0  0  0  0  0
    3.5260    0.4390   -0.1150 C   0  0  0  0  0  0  0  0  0  0  0  0
    2.2090    0.6210    0.3210 C   0  0  0  0  0  0  0  0  0  0  0  0
   -5.1310    1.9400   -0.4400 C   0  0  0  0  0  0  0  0  0  0  0  0
   -4.6910    2.9600   -1.0690 C   0  0  0  0  0  0  0  0  0  0  0  0
   -3.3340    3.3010   -1.5430 C   0  0  0  0  0  0  0  0  0  0  0  0
   -5.8110    3.9590   -1.2770 C   0  0  0  0  0  0  0  0  0  0  0  0
   -7.0390    3.1350   -1.2090 C   0  0  0  0  0  0  0  0  0  0  0  0
   -6.6360    2.0350   -0.2730 C   0  0  0  0  0  0  0  0  0  0  0  0
  1  2  1  0
  2  3  2  3
  3  4  1  0
  4  5  2  3
  5  6  1  0
  5 28  1  0
  6  7  2  0
  6  8  1  0
  8  9  1  0
  9 10  1  0
 10 11  2  0
 10 12  1  0
 12 13  2  0
 12 27  1  0
 13 14  1  0
 14 15  2  0
 16 15  1  1
 15 26  1  0
 16 17  1  0
 16 21  1  0
 17 18  2  0
 18 19  1  0
 19 20  2  0
 20 21  1  0
 21 22  2  3
 22 23  1  0
 22 24  1  0
 24 25  1  0
 26 27  2  0
 28 29  2  0
 28 33  1  0
 29 30  1  0
 29 31  1  0
 31 32  1  0
 32 33  1  0
M  END
