
     RDKit          3D

 33 35  0  0  0  0  0  0  0  0999 V2000
   10.3060    1.0690   -1.6090 C   0  0  0  0  0  0  0  0  0  0  0  0
    9.3180    0.1480   -2.1970 C   0  0  0  0  0  0  0  0  0  0  0  0
    9.3460   -0.0880   -3.4210 O   0  0  0  0  0  0  0  0  0  0  0  0
    8.3220   -0.4780   -1.3560 C   0  0  0  0  0  0  0  0  0  0  0  0
    8.2890   -0.2190   -0.0020 C   0  0  0  0  0  0  0  0  0  0  0  0
    7.3530   -0.7980    0.8230 C   0  0  0  0  0  0  0  0  0  0  0  0
    6.4090   -1.6660    0.3200 C   0  0  0  0  0  0  0  0  0  0  0  0
    5.3850   -2.3050    1.1770 C   0  0  0  0  0  0  0  0  0  0  0  0
    4.1110   -1.7580    1.0670 O   0  0  0  0  0  0  0  0  0  0  0  0
    3.8670   -0.4400    1.3610 C   0  0  0  0  0  0  0  0  0  0  0  0
    4.7990    0.2970    1.7370 O   0  0  0  0  0  0  0  0  0  0  0  0
    2.5320    0.0960    1.2360 C   0  0  0  0  0  0  0  0  0  0  0  0
    1.5140   -0.7370    0.8180 C   0  0  0  0  0  0  0  0  0  0  0  0
    0.2520   -0.1990    0.7070 C   0  0  0  0  0  0  0  0  0  0  0  0
    0.0070    1.1280    1.0040 C   0  0  0  0  0  0  0  0  0  0  0  0
   -1.2890    1.7550    0.9340 C   0  0  0  0  0  0  0  0  0  0  0  0
   -1.4250    2.9710    1.1300 O   0  0  0  0  0  0  0  0  0  0  0  0
   -2.5210    0.9040    0.6170 C   0  0  1  0  0  0  0  0  0  0  0  0
   -2.6850   -0.0240    1.7950 C   0  0  0  0  0  0  0  0  0  0  0  0
   -3.6620    1.7760    0.3130 C   0  0  0  0  0  0  0  0  0  0  0  0
   -4.9740    1.2320   -0.0960 C   0  0  2  0  0  0  0  0  0  0  0  0
   -5.6940    0.3820    0.8190 C   0  0  0  0  0  0  0  0  0  0  0  0
   -6.3200   -0.8540    0.1750 C   0  0  1  0  0  0  0  0  0  0  0  0
   -5.2900   -1.8830   -0.1180 C   0  0  0  0  0  0  0  0  0  0  0  0
   -7.3650   -1.4240    1.0970 C   0  0  0  0  0  0  0  0  0  0  0  0
   -7.0250   -0.3390   -1.0600 C   0  0  0  0  0  0  0  0  0  0  0  0
   -5.9810    0.1440   -2.0180 C   0  0  0  0  0  0  0  0  0  0  0  0
   -4.8270    0.7340   -1.4500 N   0  0  0  0  0  0  0  0  0  0  0  0
   -4.3310    1.8220   -2.3060 C   0  0  0  0  0  0  0  0  0  0  0  0
    1.0680    1.9490    1.4270 C   0  0  0  0  0  0  0  0  0  0  0  0
    2.3160    1.4250    1.5380 C   0  0  0  0  0  0  0  0  0  0  0  0
    6.4380   -1.9280   -1.0340 C   0  0  0  0  0  0  0  0  0  0  0  0
    7.3760   -1.3470   -1.8610 C   0  0  0  0  0  0  0  0  0  0  0  0
  1  2  1  0
  2  3  2  0
  2  4  1  0
  4  5  2  0
  4 33  1  0
  5  6  1  0
  6  7  2  0
  7  8  1  0
  7 32  1  0
  8  9  1  0
  9 10  1  0
 10 11  2  0
 10 12  1  0
 12 13  2  0
 12 31  1  0
 13 14  1  0
 14 15  2  0
 15 16  1  0
 15 30  1  0
 16 17  2  0
 16 18  1  0
 18 19  1  1
 18 20  1  0
 21 20  1  1
 21 22  1  0
 21 28  1  0
 22 23  1  0
 23 24  1  6
 23 25  1  0
 23 26  1  0
 26 27  1  0
 27 28  1  0
 28 29  1  0
 30 31  2  0
 32 33  2  0
M  END
