
     RDKit          3D

 33 33  0  0  0  0  0  0  0  0999 V2000
    6.2650   -1.6250   -2.1690 C   0  0  0  0  0  0  0  0  0  0  0  0
    6.5110   -0.2750   -1.5270 C   0  0  0  0  0  0  0  0  0  0  0  0
    5.6170   -0.1740   -0.4210 O   0  0  0  0  0  0  0  0  0  0  0  0
    4.2560   -0.2330   -0.5340 C   0  0  0  0  0  0  0  0  0  0  0  0
    3.7430   -0.3860   -1.6710 O   0  0  0  0  0  0  0  0  0  0  0  0
    3.3320   -0.1270    0.6250 C   0  0  2  0  0  0  0  0  0  0  0  0
    1.9930   -0.2150    0.2710 O   0  0  0  0  0  0  0  0  0  0  0  0
    1.1130   -1.1880    0.6470 C   0  0  0  0  0  0  0  0  0  0  0  0
    1.5240   -2.1100    1.3860 O   0  0  0  0  0  0  0  0  0  0  0  0
   -0.3240   -1.1950    0.2090 C   0  0  0  0  0  0  0  0  0  0  0  0
   -1.0540   -2.1900    0.6450 C   0  0  0  0  0  0  0  0  0  0  0  0
   -2.4140   -2.4100    0.3730 N   0  0  0  0  0  0  0  0  0  0  0  0
   -3.4130   -2.0700    1.3420 C   0  0  0  0  0  0  0  0  0  0  0  0
   -4.7430   -2.2740    1.0990 C   0  0  0  0  0  0  0  0  0  0  0  0
   -5.6970   -1.9430    2.0410 C   0  0  0  0  0  0  0  0  0  0  0  0
   -5.3710   -1.4000    3.2530 C   0  0  0  0  0  0  0  0  0  0  0  0
   -4.0220   -1.1860    3.5160 C   0  0  0  0  0  0  0  0  0  0  0  0
   -3.0720   -1.5190    2.5700 C   0  0  0  0  0  0  0  0  0  0  0  0
   -0.7510   -0.1070   -0.6450 C   0  0  0  0  0  0  0  0  0  0  0  0
    0.1140    0.7800   -0.9680 O   0  0  0  0  0  0  0  0  0  0  0  0
   -2.0380    0.1000   -1.1770 N   0  0  0  0  0  0  0  0  0  0  0  0
   -2.3790    1.2060   -2.0260 C   0  0  0  0  0  0  0  0  0  0  0  0
   -3.2700    2.0890   -1.5860 C   0  0  0  0  0  0  0  0  0  0  0  0
   -3.9120    1.9690   -0.2680 C   0  0  0  0  0  0  0  0  0  0  0  0
   -3.5640    3.1800    0.4850 N   0  0  0  0  0  0  0  0  0  0  0  0
   -1.7680    1.3460   -3.3300 C   0  0  0  0  0  0  0  0  0  0  0  0
   -2.1410    2.4540   -4.1070 O   0  0  0  0  0  0  0  0  0  0  0  0
   -0.8910    0.5270   -3.8560 C   0  0  0  0  0  0  0  0  0  0  0  0
   -0.1380    0.7940   -5.5820 Br  0  0  0  0  0  0  0  0  0  0  0  0
    3.6550    1.0730    1.4380 C   0  0  0  0  0  0  0  0  0  0  0  0
    2.7980    1.9280    1.7740 O   0  0  0  0  0  0  0  0  0  0  0  0
    4.9550    1.2540    1.8410 O   0  0  0  0  0  0  0  0  0  0  0  0
    5.3610    2.3650    2.6180 C   0  0  0  0  0  0  0  0  0  0  0  0
  1  2  1  0
  2  3  1  0
  3  4  1  0
  4  5  2  0
  4  6  1  0
  6  7  1  6
  6 30  1  0
  7  8  1  0
  8  9  2  0
  8 10  1  0
 10 11  2  3
 10 19  1  0
 11 12  1  0
 12 13  1  0
 13 14  2  0
 13 18  1  0
 14 15  1  0
 15 16  2  0
 16 17  1  0
 17 18  2  0
 19 20  2  0
 19 21  1  0
 21 22  1  0
 22 23  2  3
 22 26  1  0
 23 24  1  0
 24 25  1  0
 26 27  1  0
 26 28  2  3
 28 29  1  0
 30 31  2  0
 30 32  1  0
 32 33  1  0
M  END
