
     RDKit          3D

 33 35  0  0  0  0  0  0  0  0999 V2000
   -6.3700    3.0790   -0.2770 C   0  0  0  0  0  0  0  0  0  0  0  0
   -5.5280    2.1150   -1.1210 C   0  0  0  0  0  0  0  0  0  0  0  0
   -5.7080    0.7690   -0.7770 N   0  0  0  0  0  0  0  0  0  0  0  0
   -6.9870    0.2640   -1.0870 C   0  0  0  0  0  0  0  0  0  0  0  0
   -7.8440   -0.1620    0.0490 C   0  0  0  0  0  0  0  0  0  0  0  0
   -7.6880   -1.6570    0.3600 C   0  0  0  0  0  0  0  0  0  0  0  0
   -6.3670   -1.7680    1.1080 C   0  0  0  0  0  0  0  0  0  0  0  0
   -5.2810   -1.3440    0.1420 C   0  0  0  0  0  0  0  0  0  0  0  0
   -4.9870    0.1530    0.2330 C   0  0  1  0  0  0  0  0  0  0  0  0
   -3.5320    0.2880    0.2330 C   0  0  0  0  0  0  0  0  0  0  0  0
   -2.8360    0.5610    1.3880 C   0  0  0  0  0  0  0  0  0  0  0  0
   -1.4760    0.6670    1.3300 C   0  0  0  0  0  0  0  0  0  0  0  0
   -0.7420    0.5100    0.1350 C   0  0  0  0  0  0  0  0  0  0  0  0
    0.6190    0.6360    0.1740 O   0  0  0  0  0  0  0  0  0  0  0  0
    1.5260    0.4870   -0.8600 C   0  0  0  0  0  0  0  0  0  0  0  0
    1.6580   -0.8310   -1.4660 C   0  0  0  0  0  0  0  0  0  0  0  0
    2.6970   -1.5770   -1.5190 C   0  0  0  0  0  0  0  0  0  0  0  0
    4.0130   -1.3690   -1.0060 C   0  0  0  0  0  0  0  0  0  0  0  0
    5.0270   -2.1620   -1.5560 C   0  0  0  0  0  0  0  0  0  0  0  0
    6.3060   -2.1000   -1.0980 C   0  0  0  0  0  0  0  0  0  0  0  0
    6.7080   -1.2510   -0.0530 C   0  0  0  0  0  0  0  0  0  0  0  0
    8.0580   -1.3560    0.4380 C   0  0  0  0  0  0  0  0  0  0  0  0
    8.5930   -2.7560    0.5010 C   0  0  0  0  0  0  0  0  0  0  0  0
    7.9060   -3.7170    0.1730 O   0  0  0  0  0  0  0  0  0  0  0  0
    8.8370   -0.4000    0.8800 C   0  0  0  0  0  0  0  0  0  0  0  0
    8.6120    1.0010    0.9970 C   0  0  0  0  0  0  0  0  0  0  0  0
    7.6140    1.6320    0.6600 O   0  0  0  0  0  0  0  0  0  0  0  0
    9.6610    1.7840    1.5740 O   0  0  0  0  0  0  0  0  0  0  0  0
    9.4920    3.1820    1.7140 C   0  0  0  0  0  0  0  0  0  0  0  0
    5.7130   -0.4840    0.4810 C   0  0  0  0  0  0  0  0  0  0  0  0
    4.3830   -0.5330    0.0200 C   0  0  0  0  0  0  0  0  0  0  0  0
   -1.4620    0.2400   -1.0030 C   0  0  0  0  0  0  0  0  0  0  0  0
   -2.8550    0.1300   -0.9470 C   0  0  0  0  0  0  0  0  0  0  0  0
  1  2  1  0
  2  3  1  0
  3  4  1  0
  3  9  1  0
  4  5  1  0
  5  6  1  0
  6  7  1  0
  7  8  1  0
  8  9  1  0
  9 10  1  6
 10 11  2  0
 10 33  1  0
 11 12  1  0
 12 13  2  0
 13 14  1  0
 13 32  1  0
 14 15  1  0
 15 16  1  0
 16 17  2  3
 17 18  1  0
 18 19  2  0
 18 31  1  0
 19 20  1  0
 20 21  2  0
 21 22  1  0
 21 30  1  0
 22 23  1  0
 22 25  2  3
 23 24  2  0
 25 26  1  0
 26 27  2  0
 26 28  1  0
 28 29  1  0
 30 31  2  0
 32 33  2  0
M  END
