
     RDKit          3D

 33 35  0  0  0  0  0  0  0  0999 V2000
    3.7140   -1.2590    1.6890 C   0  0  0  0  0  0  0  0  0  0  0  0
    5.0810   -1.7460    2.1260 C   0  0  0  0  0  0  0  0  0  0  0  0
    6.0780   -0.6390    2.2040 C   0  0  0  0  0  0  0  0  0  0  0  0
    6.2870    0.0640    0.8830 C   0  0  1  0  0  0  0  0  0  0  0  0
    6.7790   -0.8580   -0.1880 C   0  0  0  0  0  0  0  0  0  0  0  0
    5.0690    0.6490    0.4210 O   0  0  0  0  0  0  0  0  0  0  0  0
    4.9740    2.0230    0.1890 C   0  0  0  0  0  0  0  0  0  0  0  0
    6.0220    2.6860    0.4150 O   0  0  0  0  0  0  0  0  0  0  0  0
    3.7270    2.6840   -0.2930 C   0  0  2  0  0  0  0  0  0  0  0  0
    3.3580    3.8360    0.6110 C   0  0  0  0  0  0  0  0  0  0  0  0
    2.6920    1.7720   -0.4770 O   0  0  0  0  0  0  0  0  0  0  0  0
    2.1040    1.5400   -1.7110 C   0  0  0  0  0  0  0  0  0  0  0  0
    2.5690    2.2140   -2.6770 O   0  0  0  0  0  0  0  0  0  0  0  0
    1.0000    0.5620   -1.8800 C   0  0  1  0  0  0  0  0  0  0  0  0
    0.5810    0.4940   -3.3310 C   0  0  0  0  0  0  0  0  0  0  0  0
    1.5310   -0.7990   -1.4870 C   0  0  0  0  0  0  0  0  0  0  0  0
   -0.1290    0.9960   -1.0200 C   0  0  0  0  0  0  0  0  0  0  0  0
   -0.4660    2.3340   -1.0360 C   0  0  0  0  0  0  0  0  0  0  0  0
   -1.5160    2.7380   -0.2380 C   0  0  0  0  0  0  0  0  0  0  0  0
   -2.2030    1.8270    0.5490 C   0  0  0  0  0  0  0  0  0  0  0  0
   -1.8700    0.4870    0.5680 C   0  0  0  0  0  0  0  0  0  0  0  0
   -2.6100   -0.4860    1.4150 C   0  0  0  0  0  0  0  0  0  0  0  0
   -3.7520   -1.0540    0.7260 N   0  0  0  0  0  0  0  0  0  0  0  0
   -3.6650   -1.8120   -0.5020 C   0  0  0  0  0  0  0  0  0  0  0  0
   -5.0860   -2.0790   -0.9260 C   0  0  0  0  0  0  0  0  0  0  0  0
   -5.9340   -1.5590    0.1810 C   0  0  0  0  0  0  0  0  0  0  0  0
   -7.2880   -1.5900    0.3630 C   0  0  0  0  0  0  0  0  0  0  0  0
   -8.1690   -2.2240   -0.6500 C   0  0  0  0  0  0  0  0  0  0  0  0
   -7.9080   -1.0410    1.4840 C   0  0  0  0  0  0  0  0  0  0  0  0
   -7.1000   -0.4520    2.4250 C   0  0  0  0  0  0  0  0  0  0  0  0
   -5.7150   -0.4190    2.2420 C   0  0  0  0  0  0  0  0  0  0  0  0
   -5.1290   -0.9770    1.1100 C   0  0  0  0  0  0  0  0  0  0  0  0
   -0.8110    0.0900   -0.2390 C   0  0  0  0  0  0  0  0  0  0  0  0
  1  2  1  0
  2  3  1  0
  3  4  1  0
  4  5  1  6
  4  6  1  0
  6  7  1  0
  7  8  2  0
  7  9  1  0
  9 10  1  1
  9 11  1  0
 11 12  1  0
 12 13  2  0
 12 14  1  0
 14 15  1  6
 14 16  1  0
 14 17  1  0
 17 18  2  0
 17 33  1  0
 18 19  1  0
 19 20  2  0
 20 21  1  0
 21 22  1  0
 21 33  2  0
 22 23  1  0
 23 24  1  0
 23 32  1  0
 24 25  1  0
 25 26  1  0
 26 27  2  0
 26 32  1  0
 27 28  1  0
 27 29  1  0
 29 30  2  0
 30 31  1  0
 31 32  2  0
M  END
