
     RDKit          3D

 33 36  0  0  0  0  0  0  0  0999 V2000
   -2.7830    0.4560   -0.8960 O   0  0  0  0  0  0  0  0  0  0  0  0
   -2.1840   -0.3930   -0.1930 C   0  0  0  0  0  0  0  0  0  0  0  0
   -2.9410   -1.5860    0.2770 C   0  0  0  0  0  0  0  0  0  0  0  0
   -4.2830   -1.5220   -0.2000 N   0  0  0  0  0  0  0  0  0  0  0  0
   -5.1750   -0.7280    0.6060 C   0  0  0  0  0  0  0  0  0  0  0  0
   -6.5680   -1.1300    0.1960 C   0  0  0  0  0  0  0  0  0  0  0  0
   -7.2360   -0.4900   -0.8140 C   0  0  0  0  0  0  0  0  0  0  0  0
   -8.5100   -0.8710   -1.1780 C   0  0  0  0  0  0  0  0  0  0  0  0
   -9.1600   -1.9190   -0.5290 C   0  0  0  0  0  0  0  0  0  0  0  0
   -8.4850   -2.5600    0.4870 C   0  0  0  0  0  0  0  0  0  0  0  0
   -7.2030   -2.1730    0.8490 C   0  0  0  0  0  0  0  0  0  0  0  0
   -0.7890   -0.2250    0.1600 N   0  0  0  0  0  0  0  0  0  0  0  0
   -0.1010    0.9070   -0.2950 C   0  0  0  0  0  0  0  0  0  0  0  0
   -0.8670    2.1360   -1.2720 S   0  0  0  0  0  0  0  0  0  0  0  0
    0.5370    3.1890   -1.4500 C   0  0  0  0  0  0  0  0  0  0  0  0
    1.5200    2.5170   -0.7370 C   0  0  0  0  0  0  0  0  0  0  0  0
    2.8800    3.1540   -0.8130 C   0  0  0  0  0  0  0  0  0  0  0  0
    3.1630    4.2990   -0.1170 C   0  0  0  0  0  0  0  0  0  0  0  0
    4.3800    4.9430   -0.2240 C   0  0  0  0  0  0  0  0  0  0  0  0
    5.3500    4.4280   -1.0530 C   0  0  0  0  0  0  0  0  0  0  0  0
    5.0480    3.2750   -1.7450 C   0  0  0  0  0  0  0  0  0  0  0  0
    3.8390    2.6270   -1.6460 C   0  0  0  0  0  0  0  0  0  0  0  0
    1.2030    1.3600   -0.1460 C   0  0  0  0  0  0  0  0  0  0  0  0
    2.0990    0.4810    0.6770 C   0  0  0  0  0  0  0  0  0  0  0  0
    1.6950   -0.6510    1.0950 O   0  0  0  0  0  0  0  0  0  0  0  0
    3.4040    0.7950    1.0590 N   0  0  0  0  0  0  0  0  0  0  0  0
    4.1800   -0.1530    1.8510 C   0  0  0  0  0  0  0  0  0  0  0  0
    4.6980   -1.2860    1.0510 C   0  0  0  0  0  0  0  0  0  0  0  0
    5.7390   -1.1740    0.1560 C   0  0  0  0  0  0  0  0  0  0  0  0
    6.2010   -2.2620   -0.5710 C   0  0  0  0  0  0  0  0  0  0  0  0
    5.6200   -3.4820   -0.4090 C   0  0  0  0  0  0  0  0  0  0  0  0
    4.5880   -3.6310    0.4670 C   0  0  0  0  0  0  0  0  0  0  0  0
    4.1270   -2.5290    1.1990 C   0  0  0  0  0  0  0  0  0  0  0  0
  1  2  2  0
  2  3  1  0
  2 12  1  0
  3  4  1  0
  4  5  1  0
  5  6  1  0
  6  7  2  0
  6 11  1  0
  7  8  1  0
  8  9  2  0
  9 10  1  0
 10 11  2  0
 12 13  1  0
 13 14  1  0
 13 23  2  0
 14 15  1  0
 15 16  2  0
 16 17  1  0
 16 23  1  0
 17 18  2  0
 17 22  1  0
 18 19  1  0
 19 20  2  0
 20 21  1  0
 21 22  2  0
 23 24  1  0
 24 25  2  0
 24 26  1  0
 26 27  1  0
 27 28  1  0
 28 29  2  0
 28 33  1  0
 29 30  1  0
 30 31  2  0
 31 32  1  0
 32 33  2  0
M  CHG  1   4   1
M  END
