
     RDKit          3D

 34 38  0  0  0  0  0  0  0  0999 V2000
    4.5980    1.8050   -3.1280 C   0  0  0  0  0  0  0  0  0  0  0  0
    4.8370    2.4190   -1.7590 C   0  0  2  0  0  0  0  0  0  0  0  0
    6.2860    2.2630   -1.4290 C   0  0  0  0  0  0  0  0  0  0  0  0
    3.8910    1.8700   -0.7560 C   0  0  0  0  0  0  0  0  0  0  0  0
    3.9660    0.1400   -0.5040 S   0  0  2  0  0  0  0  0  0  0  0  0
    5.2830   -0.4090   -0.1720 O   0  0  0  0  0  0  0  0  0  0  0  0
    3.5220   -0.5690   -1.7840 O   0  0  0  0  0  0  0  0  0  0  0  0
    2.8120   -0.3430    0.6860 N   0  0  0  0  0  0  0  0  0  0  0  0
    1.4590   -0.2020    0.6020 C   0  0  0  0  0  0  0  0  0  0  0  0
    0.6060    0.5100   -0.7600 Cl  0  0  0  0  0  0  0  0  0  0  0  0
    0.8380   -0.6830    1.7130 C   0  0  0  0  0  0  0  0  0  0  0  0
   -0.6100   -0.7180    2.0520 C   0  0  0  0  0  0  0  0  0  0  0  0
   -1.3880   -1.7080    1.3090 C   0  0  0  0  0  0  0  0  0  0  0  0
   -2.3980   -1.2700    0.5390 C   0  0  0  0  0  0  0  0  0  0  0  0
   -2.9570    0.0000    0.2290 N   0  0  0  0  0  0  0  0  0  0  0  0
   -3.9610   -0.1430   -0.6010 C   0  0  0  0  0  0  0  0  0  0  0  0
   -4.7840    0.8600   -1.1550 N   0  0  0  0  0  0  0  0  0  0  0  0
   -5.4560    0.6310   -2.4060 C   0  0  0  0  0  0  0  0  0  0  0  0
   -6.8560    1.1670   -2.2710 C   0  0  0  0  0  0  0  0  0  0  0  0
   -7.2610    1.8480   -1.2300 C   0  0  0  0  0  0  0  0  0  0  0  0
   -6.4300    2.1830   -0.0630 C   0  0  0  0  0  0  0  0  0  0  0  0
   -4.9590    2.1160   -0.4770 C   0  0  0  0  0  0  0  0  0  0  0  0
   -4.0760   -1.5500   -0.8540 N   0  0  0  0  0  0  0  0  0  0  0  0
   -3.1970   -2.2230   -0.2170 C   0  0  0  0  0  0  0  0  0  0  0  0
   -2.8940   -3.6420   -0.1320 C   0  0  0  0  0  0  0  0  0  0  0  0
   -1.8860   -4.0640    0.6380 C   0  0  0  0  0  0  0  0  0  0  0  0
   -1.0730   -3.1250    1.4040 C   0  0  0  0  0  0  0  0  0  0  0  0
   -0.1450   -3.5980    2.1030 O   0  0  0  0  0  0  0  0  0  0  0  0
    1.8640   -1.1540    2.5420 C   0  0  0  0  0  0  0  0  0  0  0  0
    1.8440   -1.7410    3.7940 C   0  0  0  0  0  0  0  0  0  0  0  0
    3.0300   -2.1030    4.3830 C   0  0  0  0  0  0  0  0  0  0  0  0
    4.2320   -1.8920    3.7480 C   0  0  0  0  0  0  0  0  0  0  0  0
    4.2510   -1.3070    2.5020 C   0  0  0  0  0  0  0  0  0  0  0  0
    3.0570   -0.9290    1.8800 C   0  0  0  0  0  0  0  0  0  0  0  0
  2  1  1  6
  2  3  1  0
  2  4  1  0
  5  4  1  6
  5  6  2  0
  5  7  2  0
  5  8  1  0
  8  9  1  0
  8 34  1  0
  9 10  1  0
  9 11  2  0
 11 12  1  0
 11 29  1  0
 12 13  1  0
 13 14  2  0
 13 27  1  0
 14 15  1  0
 14 24  1  0
 15 16  2  0
 16 17  1  0
 16 23  1  0
 17 18  1  0
 17 22  1  0
 18 19  1  0
 19 20  2  0
 20 21  1  0
 21 22  1  0
 23 24  2  0
 24 25  1  0
 25 26  2  0
 26 27  1  0
 27 28  2  0
 29 30  2  0
 29 34  1  0
 30 31  1  0
 31 32  2  0
 32 33  1  0
 33 34  2  0
M  END
