
     RDKit          3D

 34 37  0  0  0  0  0  0  0  0999 V2000
   -6.3090    1.8400   -3.0590 C   0  0  0  0  0  0  0  0  0  0  0  0
   -5.9050    0.9590   -1.9160 C   0  0  0  0  0  0  0  0  0  0  0  0
   -6.5870   -0.2250   -1.7360 C   0  0  0  0  0  0  0  0  0  0  0  0
   -6.2250   -1.0390   -0.6910 C   0  0  0  0  0  0  0  0  0  0  0  0
   -5.2040   -0.6960    0.1700 C   0  0  0  0  0  0  0  0  0  0  0  0
   -4.4930    0.4950    0.0170 C   0  0  0  0  0  0  0  0  0  0  0  0
   -3.4800    0.9070    0.9210 N   0  0  0  0  0  0  0  0  0  0  0  0
   -3.7760    1.9030    1.9570 C   0  0  0  0  0  0  0  0  0  0  0  0
   -2.6800    2.1240    2.6470 C   0  0  0  0  0  0  0  0  0  0  0  0
   -1.6310    1.3090    2.1180 N   0  0  0  0  0  0  0  0  0  0  0  0
   -2.1350    0.5270    1.0140 C   0  0  0  0  0  0  0  0  0  0  0  0
   -1.4180   -0.3130    0.3270 C   0  0  0  0  0  0  0  0  0  0  0  0
    0.0350   -0.5150    0.6770 C   0  0  0  0  0  0  0  0  0  0  0  0
    0.4410   -1.9630    0.6500 C   0  0  2  0  0  0  0  0  0  0  0  0
    1.6000   -2.1370   -0.3010 C   0  0  0  0  0  0  0  0  0  0  0  0
    2.7790   -1.3260    0.1130 C   0  0  0  0  0  0  0  0  0  0  0  0
    2.6550   -0.6400    1.1410 O   0  0  0  0  0  0  0  0  0  0  0  0
    3.9900   -1.3120   -0.5990 N   0  0  0  0  0  0  0  0  0  0  0  0
    5.1630   -0.5860   -0.2980 C   0  0  0  0  0  0  0  0  0  0  0  0
    6.2300   -0.7430   -1.1830 C   0  0  0  0  0  0  0  0  0  0  0  0
    7.3910   -0.0650   -0.9390 C   0  0  0  0  0  0  0  0  0  0  0  0
    7.5570    0.7640    0.1380 C   0  0  0  0  0  0  0  0  0  0  0  0
    6.5160    0.9440    1.0400 C   0  0  0  0  0  0  0  0  0  0  0  0
    6.6560    1.7690    2.1270 O   0  0  0  0  0  0  0  0  0  0  0  0
    5.7410    2.0570    3.1140 C   0  0  1  0  0  0  0  0  0  0  0  0
    6.2750    1.6210    4.3300 F   0  0  0  0  0  0  0  0  0  0  0  0
    5.4700    3.4130    3.2330 F   0  0  0  0  0  0  0  0  0  0  0  0
    5.3400    0.2490    0.7810 C   0  0  0  0  0  0  0  0  0  0  0  0
   -0.6280   -2.8930    0.2200 C   0  0  0  0  0  0  0  0  0  0  0  0
   -0.8260   -4.0360    0.7550 O   0  0  0  0  0  0  0  0  0  0  0  0
   -1.4660   -2.4690   -0.8480 N   0  0  0  0  0  0  0  0  0  0  0  0
   -1.8870   -1.1030   -0.7990 C   0  0  0  0  0  0  0  0  0  0  0  0
   -2.6180   -0.6230   -1.6820 O   0  0  0  0  0  0  0  0  0  0  0  0
   -4.8930    1.2970   -1.0600 C   0  0  0  0  0  0  0  0  0  0  0  0
  1  2  1  0
  2  3  2  0
  2 34  1  0
  3  4  1  0
  4  5  2  0
  5  6  1  0
  6  7  1  0
  6 34  2  0
  7  8  1  0
  7 11  1  0
  8  9  2  0
  9 10  1  0
 10 11  1  0
 11 12  2  3
 12 13  1  0
 12 32  1  0
 13 14  1  0
 14 15  1  6
 14 29  1  0
 15 16  1  0
 16 17  2  0
 16 18  1  0
 18 19  1  0
 19 20  2  0
 19 28  1  0
 20 21  1  0
 21 22  2  0
 22 23  1  0
 23 24  1  0
 23 28  2  0
 24 25  1  0
 25 26  1  1
 25 27  1  0
 29 30  2  0
 29 31  1  0
 31 32  1  0
 32 33  2  0
M  END
