
     RDKit          3D

 33 37  0  0  0  0  0  0  0  0999 V2000
   -3.0800   -2.8480   -1.2270 C   0  0  0  0  0  0  0  0  0  0  0  0
   -2.1160   -1.8180   -0.9160 C   0  0  0  0  0  0  0  0  0  0  0  0
   -0.4120   -1.7190   -1.4950 S   0  0  0  0  0  0  0  0  0  0  0  0
   -0.0440   -0.1090   -0.5700 C   0  0  0  0  0  0  0  0  0  0  0  0
    1.2410    0.5190   -0.6260 C   0  0  0  0  0  0  0  0  0  0  0  0
    2.4160   -0.0020   -0.2990 C   0  0  0  0  0  0  0  0  0  0  0  0
    3.6270    0.7940   -0.4330 C   0  0  0  0  0  0  0  0  0  0  0  0
    4.8600    0.3650   -0.0950 C   0  0  0  0  0  0  0  0  0  0  0  0
    5.9610    1.2740   -0.2840 C   0  0  0  0  0  0  0  0  0  0  0  0
    5.6250    2.4870   -0.6960 O   0  0  0  0  0  0  0  0  0  0  0  0
    7.3470    1.1610   -0.1240 N   0  0  0  0  0  0  0  0  0  0  0  0
    8.1860    0.0570    0.1510 C   0  0  0  0  0  0  0  0  0  0  0  0
    9.6030    0.4700   -0.2960 C   0  0  0  0  0  0  0  0  0  0  0  0
    9.3580    1.8040   -1.0160 C   0  0  0  0  0  0  0  0  0  0  0  0
    8.2430    2.3700   -0.1640 C   0  0  0  0  0  0  0  0  0  0  0  0
    4.9180   -0.9780    0.4360 C   0  0  0  0  0  0  0  0  0  0  0  0
    5.9960   -1.4790    0.7920 O   0  0  0  0  0  0  0  0  0  0  0  0
    3.7660   -1.8300    0.6020 N   0  0  0  0  0  0  0  0  0  0  0  0
    3.8790   -3.1600    1.1400 C   0  0  0  0  0  0  0  0  0  0  0  0
    2.4860   -1.3490    0.2330 C   0  0  0  0  0  0  0  0  0  0  0  0
    1.4580   -2.0540    0.3610 O   0  0  0  0  0  0  0  0  0  0  0  0
   -1.1090    0.0420   -0.0680 N   0  0  0  0  0  0  0  0  0  0  0  0
   -2.1760   -0.6810   -0.1420 C   0  0  0  0  0  0  0  0  0  0  0  0
   -3.4940   -0.3780    0.5490 C   0  0  1  0  0  0  0  0  0  0  0  0
   -3.2900    0.7670    1.4640 C   0  0  0  0  0  0  0  0  0  0  0  0
   -4.6220    1.3680    1.9390 C   0  0  0  0  0  0  0  0  0  0  0  0
   -5.3150    1.8210    0.6910 C   0  0  0  0  0  0  0  0  0  0  0  0
   -5.6260    0.7070   -0.1160 N   0  0  0  0  0  0  0  0  0  0  0  0
   -6.8970    0.1020    0.0690 C   0  0  0  0  0  0  0  0  0  0  0  0
   -8.0740    0.8960   -0.3330 C   0  0  2  0  0  0  0  0  0  0  0  0
   -9.4290    0.1980   -0.1150 C   0  0  0  0  0  0  0  0  0  0  0  0
   -8.9030    0.3390   -1.5040 C   0  0  0  0  0  0  0  0  0  0  0  0
   -4.5750   -0.1650   -0.4750 C   0  0  0  0  0  0  0  0  0  0  0  0
  1  2  1  0
  2  3  1  0
  2 23  2  0
  3  4  1  0
  4  5  1  0
  4 22  2  0
  5  6  2  3
  6  7  1  0
  6 20  1  0
  7  8  2  0
  8  9  1  0
  8 16  1  0
  9 10  2  0
  9 11  1  0
 11 12  1  0
 11 15  1  0
 12 13  1  0
 13 14  1  0
 14 15  1  0
 16 17  2  0
 16 18  1  0
 18 19  1  0
 18 20  1  0
 20 21  2  0
 22 23  1  0
 24 23  1  6
 24 25  1  0
 24 33  1  0
 25 26  1  0
 26 27  1  0
 27 28  1  0
 28 29  1  0
 28 33  1  0
 30 29  1  1
 30 31  1  0
 30 32  1  0
 31 32  1  0
M  END
