
     RDKit          3D

 34 38  0  0  0  0  0  0  0  0999 V2000
   -7.7180    1.8380   -3.2880 C   0  0  0  0  0  0  0  0  0  0  0  0
   -7.5250    2.3780   -2.0030 O   0  0  0  0  0  0  0  0  0  0  0  0
   -6.5630    1.9460   -1.1240 C   0  0  0  0  0  0  0  0  0  0  0  0
   -6.4140    2.5090    0.1250 C   0  0  0  0  0  0  0  0  0  0  0  0
   -5.4430    2.0750    1.0170 C   0  0  0  0  0  0  0  0  0  0  0  0
   -4.5850    1.0530    0.6750 C   0  0  0  0  0  0  0  0  0  0  0  0
   -3.6020    0.5860    1.5300 C   0  0  0  0  0  0  0  0  0  0  0  0
   -3.4840    1.1210    2.6770 O   0  0  0  0  0  0  0  0  0  0  0  0
   -2.7530   -0.4100    1.2210 N   0  0  0  0  0  0  0  0  0  0  0  0
   -1.7990   -0.8220    2.1870 C   0  0  0  0  0  0  0  0  0  0  0  0
   -1.7230   -0.2140    3.3160 O   0  0  0  0  0  0  0  0  0  0  0  0
   -0.8640   -1.9040    2.0160 C   0  0  0  0  0  0  0  0  0  0  0  0
    0.4820   -1.6250    2.0730 C   0  0  0  0  0  0  0  0  0  0  0  0
    1.4350   -2.6130    1.9430 C   0  0  0  0  0  0  0  0  0  0  0  0
    2.8810   -2.2830    2.0050 C   0  0  0  0  0  0  0  0  0  0  0  0
    3.4530   -2.1220    0.7100 N   0  0  0  0  0  0  0  0  0  0  0  0
    4.8400   -1.8120    0.7130 C   0  0  0  0  0  0  0  0  0  0  0  0
    5.1640   -0.3460    0.8120 C   0  0  0  0  0  0  0  0  0  0  0  0
    4.3520    0.4980    0.0420 N   0  0  0  0  0  0  0  0  0  0  0  0
    4.7850    1.8000   -0.2450 C   0  0  0  0  0  0  0  0  0  0  0  0
    5.5170    1.9660   -1.5460 C   0  0  0  0  0  0  0  0  0  0  0  0
    4.4860    2.1620   -2.6630 C   0  0  0  0  0  0  0  0  0  0  0  0
    3.3190    0.7780   -2.6920 S   0  0  0  0  0  0  0  0  0  0  0  0
    2.2820    0.8410   -1.2250 C   0  0  0  0  0  0  0  0  0  0  0  0
    2.9950    0.1600   -0.0880 C   0  0  1  0  0  0  0  0  0  0  0  0
    2.7310   -1.3230   -0.2160 C   0  0  0  0  0  0  0  0  0  0  0  0
    0.9850   -3.9020    1.7530 C   0  0  0  0  0  0  0  0  0  0  0  0
   -0.3290   -4.1540    1.7010 N   0  0  0  0  0  0  0  0  0  0  0  0
   -1.2670   -3.2020    1.8270 C   0  0  0  0  0  0  0  0  0  0  0  0
   -2.9800   -3.6440    1.7860 Cl  0  0  0  0  0  0  0  0  0  0  0  0
   -2.8720   -0.9750    0.0170 C   0  0  0  0  0  0  0  0  0  0  0  0
   -3.8530   -0.5360   -0.8820 C   0  0  0  0  0  0  0  0  0  0  0  0
   -4.7260    0.4830   -0.5720 C   0  0  0  0  0  0  0  0  0  0  0  0
   -5.6940    0.9170   -1.4570 C   0  0  0  0  0  0  0  0  0  0  0  0
  1  2  1  0
  2  3  1  0
  3  4  2  0
  3 34  1  0
  4  5  1  0
  5  6  2  0
  6  7  1  0
  6 33  1  0
  7  8  2  0
  7  9  1  0
  9 10  1  0
  9 31  1  0
 10 11  2  0
 10 12  1  0
 12 13  2  0
 12 29  1  0
 13 14  1  0
 14 15  1  0
 14 27  2  0
 15 16  1  0
 16 17  1  0
 16 26  1  0
 17 18  1  0
 18 19  1  0
 19 20  1  0
 19 25  1  0
 20 21  1  0
 21 22  1  0
 22 23  1  0
 23 24  1  0
 25 24  1  6
 25 26  1  0
 27 28  1  0
 28 29  2  0
 29 30  1  0
 31 32  2  0
 32 33  1  0
 33 34  2  0
M  END
