
     RDKit          3D

 34 36  0  0  0  0  0  0  0  0999 V2000
    4.6500   -0.4940   -2.8210 C   0  0  0  0  0  0  0  0  0  0  0  0
    5.4550   -1.3690   -1.9450 C   0  0  0  0  0  0  0  0  0  0  0  0
    5.7500   -0.9720   -0.7210 C   0  0  0  0  0  0  0  0  0  0  0  0
    6.5530   -1.8830    0.0930 C   0  0  0  0  0  0  0  0  0  0  0  0
    6.9480   -1.6580    1.3210 C   0  0  0  0  0  0  0  0  0  0  0  0
    6.7000   -0.5650    2.0640 F   0  0  0  0  0  0  0  0  0  0  0  0
    7.6970   -2.6260    1.9390 F   0  0  0  0  0  0  0  0  0  0  0  0
    5.2680    0.3330   -0.1900 C   0  0  0  0  0  0  0  0  0  0  0  0
    4.4920    0.1350    0.9590 N   0  0  0  0  0  0  0  0  0  0  0  0
    3.9700    1.2930    1.5840 C   0  0  0  0  0  0  0  0  0  0  0  0
    2.7120    0.9610    2.3700 C   0  0  0  0  0  0  0  0  0  0  0  0
    1.6880    0.4280    1.4410 N   0  0  0  0  0  0  0  0  0  0  0  0
    0.3680    0.7500    1.6670 C   0  0  0  0  0  0  0  0  0  0  0  0
    0.2750    1.4370    2.8460 O   0  0  0  0  0  0  0  0  0  0  0  0
   -0.8890    0.5690    1.0320 C   0  0  0  0  0  0  0  0  0  0  0  0
   -1.3610    0.0800   -0.0600 C   0  0  0  0  0  0  0  0  0  0  0  0
   -0.5830   -0.4990   -1.0900 N   0  0  0  0  0  0  0  0  0  0  0  0
   -1.0680   -1.6610   -1.8220 C   0  0  0  0  0  0  0  0  0  0  0  0
   -2.4040   -1.2710   -2.4610 C   0  0  2  0  0  0  0  0  0  0  0  0
   -2.2140   -0.4750   -3.7250 C   0  0  0  0  0  0  0  0  0  0  0  0
   -3.2640   -0.5810   -1.4570 C   0  0  0  0  0  0  0  0  0  0  0  0
   -4.6510   -0.5740   -1.6780 C   0  0  0  0  0  0  0  0  0  0  0  0
   -5.5300   -0.0100   -0.8030 C   0  0  0  0  0  0  0  0  0  0  0  0
   -6.9000   -0.0200   -1.0520 O   0  0  0  0  0  0  0  0  0  0  0  0
   -5.0970    0.6000    0.3740 C   0  0  0  0  0  0  0  0  0  0  0  0
   -6.0600    1.1650    1.2330 N   0  0  0  0  0  0  0  0  0  0  0  0
   -5.8070    1.8170    2.4550 C   0  0  0  0  0  0  0  0  0  0  0  0
   -4.6670    1.9590    2.9070 O   0  0  0  0  0  0  0  0  0  0  0  0
   -6.9610    2.3670    3.2520 C   0  0  0  0  0  0  0  0  0  0  0  0
   -8.1570    2.1060    2.5910 O   0  0  0  0  0  0  0  0  0  0  0  0
   -3.7340    0.5920    0.5860 C   0  0  0  0  0  0  0  0  0  0  0  0
   -2.8410    0.0210   -0.2990 C   0  0  0  0  0  0  0  0  0  0  0  0
    2.2150   -0.4240    0.4260 C   0  0  0  0  0  0  0  0  0  0  0  0
    3.5830   -0.9470    0.9040 C   0  0  0  0  0  0  0  0  0  0  0  0
  1  2  1  0
  2  3  2  3
  3  4  1  0
  3  8  1  0
  4  5  2  3
  5  6  1  0
  5  7  1  0
  8  9  1  0
  9 10  1  0
  9 34  1  0
 10 11  1  0
 11 12  1  0
 12 13  1  0
 12 33  1  0
 13 14  2  0
 13 15  1  0
 15 16  2  3
 16 17  1  0
 16 32  1  0
 17 18  1  0
 18 19  1  0
 19 20  1  6
 19 21  1  0
 21 22  2  0
 21 32  1  0
 22 23  1  0
 23 24  1  0
 23 25  2  0
 25 26  1  0
 25 31  1  0
 26 27  1  0
 27 28  2  0
 27 29  1  0
 29 30  1  0
 31 32  2  0
 33 34  1  0
M  END
