
     RDKit          3D

 33 34  0  0  0  0  0  0  0  0999 V2000
   -3.3360    2.1030    0.2660 C   0  0  0  0  0  0  0  0  0  0  0  0
   -4.0600    0.7490    0.1370 C   0  0  1  0  0  0  0  0  0  0  0  0
   -3.1120   -0.2330    0.8490 C   0  0  0  0  0  0  0  0  0  0  0  0
   -1.9050   -0.2780    0.0770 N   0  0  0  0  0  0  0  0  0  0  0  0
   -0.8570   -1.1440    0.5590 C   0  0  0  0  0  0  0  0  0  0  0  0
   -1.0350   -1.8170    1.6190 O   0  0  0  0  0  0  0  0  0  0  0  0
    0.3230   -1.1930   -0.1890 N   0  0  0  0  0  0  0  0  0  0  0  0
    0.4740   -0.4120   -1.3760 C   0  0  0  0  0  0  0  0  0  0  0  0
    1.9130   -0.4690   -1.8540 C   0  0  0  0  0  0  0  0  0  0  0  0
    2.7870   -0.2370   -0.6450 C   0  0  2  0  0  0  0  0  0  0  0  0
    2.3490    0.9410   -0.0440 O   0  0  0  0  0  0  0  0  0  0  0  0
    4.2110   -0.1190   -1.1400 C   0  0  0  0  0  0  0  0  0  0  0  0
    5.1010    0.1630   -0.1110 O   0  0  0  0  0  0  0  0  0  0  0  0
    6.3750    0.2460   -0.6980 C   0  0  0  0  0  0  0  0  0  0  0  0
    7.3880    0.5470    0.3370 C   0  0  0  0  0  0  0  0  0  0  0  0
    8.3730   -0.3100    0.5330 C   0  0  0  0  0  0  0  0  0  0  0  0
    9.3480   -0.0310    1.5220 N   0  0  0  0  0  0  0  0  0  0  0  0
    8.4880   -1.4700   -0.1910 O   0  0  0  0  0  0  0  0  0  0  0  0
    7.2700    1.7350    1.0800 N   0  0  0  0  0  0  0  0  0  0  0  0
    7.5830    2.8660    0.6510 O   0  0  0  0  0  0  0  0  0  0  0  0
    6.7810    1.6600    2.3600 O   0  0  0  0  0  0  0  0  0  0  0  0
    2.7320   -1.3860    0.3280 C   0  0  0  0  0  0  0  0  0  0  0  0
    1.3960   -2.0420    0.2420 C   0  0  0  0  0  0  0  0  0  0  0  0
   -5.1970    0.7870    0.8700 O   0  0  0  0  0  0  0  0  0  0  0  0
   -6.3960    0.5760    0.2710 C   0  0  1  0  0  0  0  0  0  0  0  0
   -6.7260    1.6030   -0.7560 C   0  0  2  0  0  0  0  0  0  0  0  0
   -7.9700    1.3180   -1.3160 F   0  0  0  0  0  0  0  0  0  0  0  0
   -5.8300    1.6410   -1.7860 F   0  0  0  0  0  0  0  0  0  0  0  0
   -6.8000    2.8450   -0.1500 F   0  0  0  0  0  0  0  0  0  0  0  0
   -6.5390   -0.8000   -0.3410 C   0  0  0  0  0  0  0  0  0  0  0  0
   -7.9440   -1.1850    0.0590 C   0  0  0  0  0  0  0  0  0  0  0  0
   -7.9640   -0.7380    1.4000 O   0  0  0  0  0  0  0  0  0  0  0  0
   -7.4440    0.5320    1.3820 C   0  0  0  0  0  0  0  0  0  0  0  0
  2  1  1  1
  2  3  1  0
  2 24  1  0
  3  4  1  0
  4  5  1  0
  5  6  2  0
  5  7  1  0
  7  8  1  0
  7 23  1  0
  8  9  1  0
  9 10  1  0
 10 11  1  1
 10 12  1  0
 10 22  1  0
 12 13  1  0
 13 14  1  0
 14 15  1  0
 15 16  2  3
 15 19  1  0
 16 17  1  0
 16 18  1  0
 19 20  2  0
 19 21  1  0
 22 23  1  0
 25 24  1  1
 25 26  1  0
 25 30  1  0
 25 33  1  0
 26 27  1  6
 26 28  1  0
 26 29  1  0
 30 31  1  0
 31 32  1  0
 32 33  1  0
M  CHG  2  19   1  21  -1
M  END
