
     RDKit          3D

 32 34  0  0  0  0  0  0  0  0999 V2000
   -5.1550    3.0210   -1.0400 C   0  0  0  0  0  0  0  0  0  0  0  0
   -5.3810    1.6920   -0.3840 C   0  0  0  0  0  0  0  0  0  0  0  0
   -4.1570    1.1360    0.3630 C   0  0  0  0  0  0  0  0  0  0  0  0
   -3.0150    1.8110    0.6050 C   0  0  0  0  0  0  0  0  0  0  0  0
   -2.0310    1.2830    1.3180 C   0  0  0  0  0  0  0  0  0  0  0  0
   -0.6520    1.7130    1.6760 C   0  0  0  0  0  0  0  0  0  0  0  0
    0.2150    1.6010    0.5840 N   0  0  0  0  0  0  0  0  0  0  0  0
    0.0930    0.1420    0.0100 C   0  0  0  0  0  0  0  0  0  0  0  0
   -0.5890   -0.6410    0.5400 O   0  0  0  0  0  0  0  0  0  0  0  0
    0.9310    0.0850   -1.1470 N   0  0  0  0  0  0  0  0  0  0  0  0
    0.9560   -1.7350   -1.2330 C   0  0  0  0  0  0  0  0  0  0  0  0
    0.3300   -2.2020   -0.4890 O   0  0  0  0  0  0  0  0  0  0  0  0
    1.9280   -1.9890   -2.3360 C   0  0  0  0  0  0  0  0  0  0  0  0
    3.2910   -2.1030   -1.7050 C   0  0  0  0  0  0  0  0  0  0  0  0
    3.9880   -3.3080   -1.5560 C   0  0  0  0  0  0  0  0  0  0  0  0
    5.5230   -2.8080   -0.7470 S   0  0  0  0  0  0  0  0  0  0  0  0
    4.9780   -1.0270   -0.7190 C   0  0  0  0  0  0  0  0  0  0  0  0
    5.9410   -0.0020   -0.0970 C   0  0  0  0  0  0  0  0  0  0  0  0
    7.2370   -0.0510   -0.1770 C   0  0  0  0  0  0  0  0  0  0  0  0
    7.9460   -1.2330   -1.2900 Cl  0  0  0  0  0  0  0  0  0  0  0  0
    8.1340    0.7680    0.5430 C   0  0  0  0  0  0  0  0  0  0  0  0
    7.4640    1.6430    1.3890 C   0  0  0  0  0  0  0  0  0  0  0  0
    6.1190    1.7230    1.5070 N   0  0  0  0  0  0  0  0  0  0  0  0
    5.3240    0.9150    0.7570 C   0  0  0  0  0  0  0  0  0  0  0  0
    4.1100    0.9840    0.8000 O   0  0  0  0  0  0  0  0  0  0  0  0
    3.9520   -1.0690   -1.2200 N   0  0  0  0  0  0  0  0  0  0  0  0
   -2.6730   -0.3290    1.7400 S   0  0  0  0  0  0  0  0  0  0  0  0
   -4.2630   -0.1570    0.8860 C   0  0  0  0  0  0  0  0  0  0  0  0
   -5.1990   -1.1900    0.7300 C   0  0  0  0  0  0  0  0  0  0  0  0
   -4.5620   -2.3790    1.2560 O   0  0  0  0  0  0  0  0  0  0  0  0
   -6.3900   -1.5630    0.3080 N   0  0  0  0  0  0  0  0  0  0  0  0
   -7.0340   -2.9060    0.3290 C   0  0  0  0  0  0  0  0  0  0  0  0
  1  2  1  0
  2  3  1  0
  3  4  1  0
  3 28  2  0
  4  5  2  0
  5  6  1  0
  5 27  1  0
  6  7  1  0
  7  8  1  0
  8  9  2  0
  8 10  1  0
 10 11  1  0
 11 12  2  0
 11 13  1  0
 13 14  1  0
 14 15  2  0
 14 26  1  0
 15 16  1  0
 16 17  1  0
 17 18  1  0
 17 26  2  0
 18 19  2  0
 18 24  1  0
 19 20  1  0
 19 21  1  0
 21 22  2  0
 22 23  1  0
 23 24  1  0
 24 25  2  0
 27 28  1  0
 28 29  1  0
 29 30  2  0
 29 31  1  0
 31 32  1  0
M  END
