
     RDKit          3D

 32 34  0  0  0  0  0  0  0  0999 V2000
   -4.3800   -2.9560    1.5320 C   0  0  0  0  0  0  0  0  0  0  0  0
   -4.9010   -2.2910    0.3220 C   0  0  0  0  0  0  0  0  0  0  0  0
   -4.0850   -1.6590   -0.4910 C   0  0  0  0  0  0  0  0  0  0  0  0
   -2.6630   -1.6280   -0.1750 C   0  0  0  0  0  0  0  0  0  0  0  0
   -2.0550   -0.2910    0.0780 C   0  0  2  0  0  0  0  0  0  0  0  0
   -0.5970   -0.4760    0.3430 N   0  0  0  0  0  0  0  0  0  0  0  0
    0.3740    0.1830   -0.4380 C   0  0  0  0  0  0  0  0  0  0  0  0
   -0.0680    0.9330   -1.3680 O   0  0  0  0  0  0  0  0  0  0  0  0
    1.8070    0.0710   -0.2650 C   0  0  0  0  0  0  0  0  0  0  0  0
    2.6400    0.7950   -1.1150 C   0  0  0  0  0  0  0  0  0  0  0  0
    3.9860    0.6690   -0.9270 C   0  0  0  0  0  0  0  0  0  0  0  0
    4.5210   -0.1330    0.0490 C   0  0  0  0  0  0  0  0  0  0  0  0
    3.6550   -0.8270    0.8640 C   0  0  0  0  0  0  0  0  0  0  0  0
    4.1600   -1.5540    1.7530 O   0  0  0  0  0  0  0  0  0  0  0  0
    2.3250   -0.7170    0.6970 N   0  0  0  0  0  0  0  0  0  0  0  0
    5.9780   -0.2410    0.1270 C   0  0  0  0  0  0  0  0  0  0  0  0
    6.8280    0.7370   -0.5150 C   0  0  0  0  0  0  0  0  0  0  0  0
    6.2140    1.5090   -1.6660 C   0  0  0  0  0  0  0  0  0  0  0  0
    6.8980    2.2350   -2.5170 N   0  0  0  0  0  0  0  0  0  0  0  0
    6.2780    2.9290   -3.4700 C   0  0  0  0  0  0  0  0  0  0  0  0
    6.7760    3.8960   -4.6500 S   0  0  0  0  0  0  0  0  0  0  0  0
    4.5100    2.5030   -3.1180 S   0  0  0  0  0  0  0  0  0  0  0  0
    4.8630    1.4660   -1.7600 C   0  0  0  0  0  0  0  0  0  0  0  0
   -2.6310    0.3970    1.2740 C   0  0  0  0  0  0  0  0  0  0  0  0
   -1.9070    0.6760    2.2760 O   0  0  0  0  0  0  0  0  0  0  0  0
   -3.9730    0.7580    1.3400 N   0  0  0  0  0  0  0  0  0  0  0  0
   -4.5310    1.4210    2.5080 C   0  0  0  0  0  0  0  0  0  0  0  0
   -5.9630    1.7880    2.5380 C   0  0  0  0  0  0  0  0  0  0  0  0
   -3.7290    1.6460    3.4470 O   0  0  0  0  0  0  0  0  0  0  0  0
   -4.5980   -1.0430   -1.7000 C   0  0  0  0  0  0  0  0  0  0  0  0
   -5.8330   -1.0540   -2.0590 N   0  0  0  0  0  0  0  0  0  0  0  0
   -3.4830   -0.2280   -2.7780 Cl  0  0  0  0  0  0  0  0  0  0  0  0
  1  2  1  0
  2  3  2  3
  3  4  1  0
  3 30  1  0
  5  4  1  1
  5  6  1  0
  5 24  1  0
  6  7  1  0
  7  8  2  0
  7  9  1  0
  9 10  2  0
  9 15  1  0
 10 11  1  0
 11 12  2  0
 11 23  1  0
 12 13  1  0
 12 16  1  0
 13 14  2  0
 13 15  1  0
 16 17  1  0
 17 18  1  0
 18 19  1  0
 18 23  2  0
 19 20  1  0
 20 21  2  0
 20 22  1  0
 22 23  1  0
 24 25  2  0
 24 26  1  0
 26 27  1  0
 27 28  1  0
 27 29  2  0
 30 31  2  0
 30 32  1  0
M  END
