
     RDKit          3D

 33 35  0  0  0  0  0  0  0  0999 V2000
    5.8680   -1.3290    1.4560 C   0  0  0  0  0  0  0  0  0  0  0  0
    4.6260   -0.6890    0.9350 C   0  0  0  0  0  0  0  0  0  0  0  0
    3.4590   -0.8040    1.6540 C   0  0  0  0  0  0  0  0  0  0  0  0
    3.4690   -1.5380    2.8850 N   0  0  0  0  0  0  0  0  0  0  0  0
    2.2850   -0.2170    1.1920 C   0  0  0  0  0  0  0  0  0  0  0  0
    2.2840    0.4800    0.0180 C   0  0  0  0  0  0  0  0  0  0  0  0
    1.1530    1.0670   -0.4610 O   0  0  0  0  0  0  0  0  0  0  0  0
   -0.1300    1.0820    0.0980 C   0  0  1  0  0  0  0  0  0  0  0  0
   -0.5900    2.5270    0.1530 C   0  0  0  0  0  0  0  0  0  0  0  0
    0.2790    3.3410    0.9520 N   0  0  0  0  0  0  0  0  0  0  0  0
    1.2670    2.8440    1.4990 O   0  0  0  0  0  0  0  0  0  0  0  0
    0.0130    4.6670    1.1090 O   0  0  0  0  0  0  0  0  0  0  0  0
   -1.0310    0.3050   -0.8340 C   0  0  0  0  0  0  0  0  0  0  0  0
   -0.5420   -0.1860   -1.8600 O   0  0  0  0  0  0  0  0  0  0  0  0
   -2.3980    0.1410   -0.5410 N   0  0  0  0  0  0  0  0  0  0  0  0
   -3.3650   -0.5580   -1.3120 C   0  0  0  0  0  0  0  0  0  0  0  0
   -3.0920   -1.1960   -2.4980 C   0  0  0  0  0  0  0  0  0  0  0  0
   -4.0690   -1.8660   -3.2170 C   0  0  0  0  0  0  0  0  0  0  0  0
   -3.7870   -2.4940   -4.3890 F   0  0  0  0  0  0  0  0  0  0  0  0
   -5.3480   -1.8850   -2.7180 C   0  0  0  0  0  0  0  0  0  0  0  0
   -6.3220   -2.5470   -3.4240 F   0  0  0  0  0  0  0  0  0  0  0  0
   -5.6210   -1.2480   -1.5340 C   0  0  0  0  0  0  0  0  0  0  0  0
   -6.8940   -1.2790   -1.0560 F   0  0  0  0  0  0  0  0  0  0  0  0
   -4.6740   -0.5780   -0.8020 C   0  0  0  0  0  0  0  0  0  0  0  0
   -4.9590    0.0800    0.4210 N   0  0  0  0  0  0  0  0  0  0  0  0
   -4.8320   -0.6650    1.6240 C   0  0  0  0  0  0  0  0  0  0  0  0
   -4.4770   -1.8610    1.5610 O   0  0  0  0  0  0  0  0  0  0  0  0
   -5.0910   -0.0980    2.8650 O   0  0  0  0  0  0  0  0  0  0  0  0
    3.4560    0.5900   -0.6920 C   0  0  0  0  0  0  0  0  0  0  0  0
    4.6040    0.0120   -0.2350 C   0  0  0  0  0  0  0  0  0  0  0  0
    5.6170    0.2840   -1.1480 O   0  0  0  0  0  0  0  0  0  0  0  0
    5.1740    1.3670   -1.9790 C   0  0  0  0  0  0  0  0  0  0  0  0
    3.7750    1.2260   -1.9070 O   0  0  0  0  0  0  0  0  0  0  0  0
  1  2  1  0
  2  3  2  0
  2 30  1  0
  3  4  1  0
  3  5  1  0
  5  6  2  0
  6  7  1  0
  6 29  1  0
  7  8  1  0
  8  9  1  6
  8 13  1  0
  9 10  1  0
 10 11  2  0
 10 12  1  0
 13 14  2  0
 13 15  1  0
 15 16  1  0
 16 17  2  0
 16 24  1  0
 17 18  1  0
 18 19  1  0
 18 20  2  0
 20 21  1  0
 20 22  1  0
 22 23  1  0
 22 24  2  0
 24 25  1  0
 25 26  1  0
 26 27  2  0
 26 28  1  0
 29 30  2  0
 29 33  1  0
 30 31  1  0
 31 32  1  0
 32 33  1  0
M  CHG  2  10   1  12  -1
M  END
