
     RDKit          3D

 27 29  0  0  0  0  0  0  0  0999 V2000
    5.0390    3.2500    1.4160 C   0  0  0  0  0  0  0  0  0  0  0  0
    5.1690    2.3310    0.3290 O   0  0  0  0  0  0  0  0  0  0  0  0
    4.1850    1.3980    0.0910 C   0  0  0  0  0  0  0  0  0  0  0  0
    2.9450    1.8420   -0.1150 C   0  0  0  0  0  0  0  0  0  0  0  0
    1.9180    0.9110   -0.3600 C   0  0  0  0  0  0  0  0  0  0  0  0
    2.1540   -0.4100   -0.3920 C   0  0  0  0  0  0  0  0  0  0  0  0
    1.1590   -1.3330   -0.6290 C   0  0  0  0  0  0  0  0  0  0  0  0
    1.5380   -2.6270   -0.6510 O   0  0  0  0  0  0  0  0  0  0  0  0
   -0.1260   -1.3180   -0.8530 N   0  0  0  0  0  0  0  0  0  0  0  0
   -1.4460   -1.3330   -1.0860 C   0  0  0  0  0  0  0  0  0  0  0  0
   -1.7960   -2.5650   -1.2510 O   0  0  0  0  0  0  0  0  0  0  0  0
   -2.4030   -0.3890   -1.1740 N   0  0  0  0  0  0  0  0  0  0  0  0
   -3.7870   -0.7040   -1.4200 C   0  0  2  0  0  0  0  0  0  0  0  0
   -4.6120    0.0860   -2.3130 C   0  0  0  0  0  0  0  0  0  0  0  0
   -4.8200    0.1110   -0.7940 C   0  0  1  0  0  0  0  0  0  0  0  0
   -6.1210   -0.4030   -0.3230 C   0  0  1  0  0  0  0  0  0  0  0  0
   -6.0040   -1.4550    0.7650 C   0  0  0  0  0  0  0  0  0  0  0  0
   -7.3310   -1.2950    1.4670 C   0  0  0  0  0  0  0  0  0  0  0  0
   -7.9230   -0.1380    1.0460 O   0  0  0  0  0  0  0  0  0  0  0  0
   -6.9950    0.6080    0.3440 C   0  0  0  0  0  0  0  0  0  0  0  0
    3.4230   -0.8850   -0.1830 O   0  0  0  0  0  0  0  0  0  0  0  0
    4.4750   -0.0060    0.0640 C   0  0  0  0  0  0  0  0  0  0  0  0
    5.6710   -0.5020    0.2590 C   0  0  0  0  0  0  0  0  0  0  0  0
    6.8350    0.1940    0.5180 N   0  0  0  0  0  0  0  0  0  0  0  0
    8.0560   -0.5560    0.7040 C   0  0  0  0  0  0  0  0  0  0  0  0
    9.2480    0.1540    0.9680 N   0  0  0  0  0  0  0  0  0  0  0  0
    8.0480   -1.7960    0.6310 O   0  0  0  0  0  0  0  0  0  0  0  0
  1  2  1  0
  2  3  1  0
  3  4  2  0
  3 22  1  0
  4  5  1  0
  5  6  2  0
  6  7  1  0
  6 21  1  0
  7  8  2  0
  7  9  1  0
  9 10  1  0
 10 11  2  0
 10 12  1  0
 13 12  1  1
 13 14  1  0
 13 15  1  0
 15 14  1  6
 15 16  1  0
 16 17  1  1
 16 20  1  0
 17 18  1  0
 18 19  1  0
 19 20  1  0
 21 22  1  0
 22 23  2  3
 23 24  1  0
 24 25  1  0
 25 26  1  0
 25 27  2  0
M  END
