
     RDKit          3D

 14 14  0  0  0  0  0  0  0  0999 V2000
   -2.9880    1.8540    0.0930 C   0  0  0  0  0  0  0  0  0  0  0  0
   -2.1840    1.1850   -0.8820 O   0  0  0  0  0  0  0  0  0  0  0  0
   -1.8850   -0.1540   -0.6440 C   0  0  0  0  0  0  0  0  0  0  0  0
   -0.9720   -0.6390    0.1650 C   0  0  0  0  0  0  0  0  0  0  0  0
   -0.1260    0.0870    0.9400 O   0  0  0  0  0  0  0  0  0  0  0  0
    1.2630    0.0840    0.9020 C   0  0  0  0  0  0  0  0  0  0  0  0
    1.8630    0.4880   -0.3960 C   0  0  0  0  0  0  0  0  0  0  0  0
    3.3290    0.4350   -0.2800 C   0  0  0  0  0  0  0  0  0  0  0  0
    4.1380    0.7740   -1.3810 N   0  0  0  0  0  0  0  0  0  0  0  0
    3.8600    0.0900    0.7890 O   0  0  0  0  0  0  0  0  0  0  0  0
   -1.0530   -2.0780    0.0610 C   0  0  0  0  0  0  0  0  0  0  0  0
   -0.3540   -2.9100    0.6700 O   0  0  0  0  0  0  0  0  0  0  0  0
   -2.1200   -2.4300   -0.9040 C   0  0  0  0  0  0  0  0  0  0  0  0
   -2.5990   -1.2520   -1.3090 C   0  0  0  0  0  0  0  0  0  0  0  0
  1  2  1  0
  2  3  1  0
  3  4  2  0
  3 14  1  0
  4  5  1  0
  4 11  1  0
  5  6  1  0
  6  7  1  0
  7  8  1  0
  8  9  1  0
  8 10  2  0
 11 12  2  0
 11 13  1  0
 13 14  2  0
M  END
