
     RDKit          3D

 14 14  0  0  0  0  0  0  0  0999 V2000
    2.6620   -2.5110   -0.5390 C   0  0  0  0  0  0  0  0  0  0  0  0
    2.9620   -1.1390   -0.6350 O   0  0  0  0  0  0  0  0  0  0  0  0
    2.0190   -0.1360   -0.4680 C   0  0  0  0  0  0  0  0  0  0  0  0
    0.6940   -0.3820   -0.1920 C   0  0  0  0  0  0  0  0  0  0  0  0
   -0.2320    0.6520   -0.0290 C   0  0  0  0  0  0  0  0  0  0  0  0
   -1.5570    0.4090    0.2460 O   0  0  0  0  0  0  0  0  0  0  0  0
   -2.1280   -0.8530    0.3940 C   0  0  0  0  0  0  0  0  0  0  0  0
   -3.6190   -0.7740    0.6950 C   0  0  0  0  0  0  0  0  0  0  0  0
   -4.1710   -2.0390    0.8390 O   0  0  0  0  0  0  0  0  0  0  0  0
    0.2530    1.9370   -0.1600 C   0  0  0  0  0  0  0  0  0  0  0  0
   -0.6350    3.0330   -0.0070 N   0  0  0  0  0  0  0  0  0  0  0  0
    1.5740    2.2130   -0.4360 C   0  0  0  0  0  0  0  0  0  0  0  0
    2.4550    1.1620   -0.5890 C   0  0  0  0  0  0  0  0  0  0  0  0
    3.8120    1.4200   -0.8710 O   0  0  0  0  0  0  0  0  0  0  0  0
  1  2  1  0
  2  3  1  0
  3  4  2  0
  3 13  1  0
  4  5  1  0
  5  6  1  0
  5 10  2  0
  6  7  1  0
  7  8  1  0
  8  9  1  0
 10 11  1  0
 10 12  1  0
 12 13  2  0
 13 14  1  0
M  END
