
     RDKit          3D

 13 14  0  0  0  0  0  0  0  0999 V2000
    1.3250    2.1390    0.2730 O   0  0  0  0  0  0  0  0  0  0  0  0
    1.7910    0.9710    0.1390 C   0  0  0  0  0  0  0  0  0  0  0  0
    3.1420    0.8340    0.1420 N   0  0  0  0  0  0  0  0  0  0  0  0
    3.6630   -0.3880    0.0020 C   0  0  0  0  0  0  0  0  0  0  0  0
    2.8260   -1.4700   -0.1400 C   0  0  0  0  0  0  0  0  0  0  0  0
    1.5080   -1.3000   -0.1390 N   0  0  0  0  0  0  0  0  0  0  0  0
    0.9220   -0.0700    0.0010 C   0  0  0  0  0  0  0  0  0  0  0  0
   -0.5430    0.0060   -0.0110 C   0  0  0  0  0  0  0  0  0  0  0  0
   -1.2540    1.0850    0.1090 C   0  0  0  0  0  0  0  0  0  0  0  0
   -2.7610    1.1450    0.0950 C   0  0  0  0  0  0  0  0  0  0  0  0
   -3.3820   -0.1210   -0.0670 N   0  0  0  0  0  0  0  0  0  0  0  0
   -2.6000   -1.2860   -0.1960 C   0  0  0  0  0  0  0  0  0  0  0  0
   -1.2880   -1.2570   -0.1740 C   0  0  0  0  0  0  0  0  0  0  0  0
  1  2  2  0
  2  3  1  0
  2  7  1  0
  3  4  1  0
  4  5  2  0
  5  6  1  0
  6  7  2  0
  7  8  1  0
  8  9  2  0
  8 13  1  0
  9 10  1  0
 10 11  1  0
 11 12  1  0
 12 13  2  0
M  END
