
     RDKit          3D

 23 24  0  0  0  0  0  0  0  0999 V2000
   -4.5150    2.8660    1.8270 N   0  0  0  0  0  0  0  0  0  0  0  0
   -4.2240    1.4730    1.6260 C   0  0  0  0  0  0  0  0  0  0  0  0
   -3.1930    0.9600    1.0480 N   0  0  0  0  0  0  0  0  0  0  0  0
   -3.3170   -0.4550    1.0730 C   0  0  2  0  0  0  0  0  0  0  0  0
   -2.8010   -1.1560   -0.1480 C   0  0  2  0  0  0  0  0  0  0  0  0
   -1.6980   -0.4190   -0.8260 C   0  0  0  0  0  0  0  0  0  0  0  0
   -1.2270   -1.1590   -2.0400 C   0  0  0  0  0  0  0  0  0  0  0  0
   -0.7110   -2.5130   -1.6540 C   0  0  0  0  0  0  0  0  0  0  0  0
    0.4190   -2.4030   -0.6800 C   0  0  0  0  0  0  0  0  0  0  0  0
    1.6020   -1.6720   -1.2050 C   0  0  0  0  0  0  0  0  0  0  0  0
    1.6680   -1.2380   -2.3790 O   0  0  0  0  0  0  0  0  0  0  0  0
    2.7270   -1.4360   -0.3710 N   0  0  0  0  0  0  0  0  0  0  0  0
    3.9050   -0.7380   -0.7920 C   0  0  0  0  0  0  0  0  0  0  0  0
    3.6450    0.6980   -1.2200 C   0  0  0  0  0  0  0  0  0  0  0  0
    3.0600    1.4490   -0.0690 C   0  0  0  0  0  0  0  0  0  0  0  0
    3.9150    1.4980    1.1290 C   0  0  0  0  0  0  0  0  0  0  0  0
    5.2300    2.1620    1.0650 C   0  0  0  0  0  0  0  0  0  0  0  0
    6.2260    1.6640    0.1300 C   0  0  0  0  0  0  0  0  0  0  0  0
    6.6980    2.4320   -0.7170 O   0  0  0  0  0  0  0  0  0  0  0  0
   -4.2520   -1.1590   -1.2420 S   0  0  0  0  0  0  0  0  0  0  0  0
   -5.4960   -0.5680   -0.0330 C   0  0  0  0  0  0  0  0  0  0  0  0
   -4.7560   -0.7190    1.2500 C   0  0  2  0  0  0  0  0  0  0  0  0
   -5.1260    0.4480    2.0770 N   0  0  0  0  0  0  0  0  0  0  0  0
  1  2  1  0
  2  3  2  0
  2 23  1  0
  4  3  1  6
  4  5  1  0
  4 22  1  0
  5  6  1  6
  5 20  1  0
  6  7  1  0
  7  8  1  0
  8  9  1  0
  9 10  1  0
 10 11  2  0
 10 12  1  0
 12 13  1  0
 13 14  1  0
 14 15  1  0
 15 16  1  0
 16 17  1  0
 17 18  1  0
 18 19  2  0
 20 21  1  0
 22 21  1  6
 22 23  1  0
M  CHG  1   3   1
M  END
