
     RDKit          3D

 14 14  0  0  0  0  0  0  0  0999 V2000
   -3.2580   -2.3990   -0.6050 C   0  0  0  0  0  0  0  0  0  0  0  0
   -3.3140   -1.0110   -0.4410 O   0  0  0  0  0  0  0  0  0  0  0  0
   -2.2320   -0.1920   -0.2020 C   0  0  0  0  0  0  0  0  0  0  0  0
   -2.4340    1.1580   -0.0620 C   0  0  0  0  0  0  0  0  0  0  0  0
   -1.3660    1.9800    0.1760 C   0  0  0  0  0  0  0  0  0  0  0  0
   -1.5530    3.3590    0.3220 O   0  0  0  0  0  0  0  0  0  0  0  0
   -0.0660    1.4860    0.2820 C   0  0  0  0  0  0  0  0  0  0  0  0
    0.1500    0.1510    0.1450 C   0  0  0  0  0  0  0  0  0  0  0  0
    1.4300   -0.4160    0.2250 N   0  0  0  0  0  0  0  0  0  0  0  0
    2.6590    0.2660    0.2310 C   0  0  0  0  0  0  0  0  0  0  0  0
    2.7020    1.5030    0.1580 O   0  0  0  0  0  0  0  0  0  0  0  0
    3.9350   -0.5210    0.3290 C   0  0  0  0  0  0  0  0  0  0  0  0
    4.9800    0.3770    0.3160 O   0  0  0  0  0  0  0  0  0  0  0  0
   -0.9480   -0.6720   -0.0970 C   0  0  0  0  0  0  0  0  0  0  0  0
  1  2  1  0
  2  3  1  0
  3  4  2  0
  3 14  1  0
  4  5  1  0
  5  6  1  0
  5  7  2  0
  7  8  1  0
  8  9  1  0
  8 14  2  0
  9 10  1  0
 10 11  2  0
 10 12  1  0
 12 13  1  0
M  END
