
     RDKit          3D

 16 16  0  0  0  0  0  0  0  0999 V2000
   -2.5590    1.0450    2.0200 C   0  0  0  0  0  0  0  0  0  0  0  0
   -2.4340    1.0350    0.6810 O   0  0  0  0  0  0  0  0  0  0  0  0
   -1.6160    0.1450    0.0910 C   0  0  1  0  0  0  0  0  0  0  0  0
   -2.4760   -0.8760   -0.6820 C   0  0  0  0  0  0  0  0  0  0  0  0
   -3.2410   -0.0770   -1.7080 C   0  0  0  0  0  0  0  0  0  0  0  0
   -2.3710    0.5680   -2.5520 O   0  0  0  0  0  0  0  0  0  0  0  0
   -1.0480    0.3370   -2.3160 C   0  0  0  0  0  0  0  0  0  0  0  0
   -0.6180    0.6620   -0.8780 C   0  0  2  0  0  0  0  0  0  0  0  0
    0.9780   -0.1760   -0.6580 S   0  0  0  0  0  0  0  0  0  0  0  0
    1.7430    0.2070    0.8930 C   0  0  0  0  0  0  0  0  0  0  0  0
    1.1030    1.0800    1.8000 N   0  0  0  0  0  0  0  0  0  0  0  0
    2.8710   -0.3000    1.1980 N   0  0  0  0  0  0  0  0  0  0  0  0
    3.5160   -1.1760    0.2880 C   0  0  0  0  0  0  0  0  0  0  0  0
    3.2470   -2.4050    0.3400 O   0  0  0  0  0  0  0  0  0  0  0  0
    4.4830   -0.6120   -0.6920 C   0  0  0  0  0  0  0  0  0  0  0  0
    4.9730   -1.6620   -1.4580 O   0  0  0  0  0  0  0  0  0  0  0  0
  1  2  1  0
  3  2  1  6
  3  4  1  0
  3  8  1  0
  4  5  1  0
  5  6  1  0
  6  7  1  0
  7  8  1  0
  8  9  1  1
  9 10  1  0
 10 11  1  0
 10 12  2  3
 12 13  1  0
 13 14  2  0
 13 15  1  0
 15 16  1  0
M  END
