
     RDKit          3D

 12 12  0  0  0  0  0  0  0  0999 V2000
   -3.4190    1.2320    0.7380 N   0  0  0  0  0  0  0  0  0  0  0  0
   -3.0650   -0.0330    0.3510 N   0  0  0  0  0  0  0  0  0  0  0  0
   -1.8790   -0.3720    0.0620 C   0  0  0  0  0  0  0  0  0  0  0  0
   -0.4100   -0.2640   -0.1590 C   0  0  0  0  0  0  0  0  0  0  0  0
    0.5630    0.5510   -0.1140 N   0  0  0  0  0  0  0  0  0  0  0  0
    1.9200    0.2740   -0.4160 C   0  0  1  0  0  0  0  0  0  0  0  0
    2.3100    1.1430   -1.4600 O   0  0  0  0  0  0  0  0  0  0  0  0
    2.7860    0.4550    0.6580 O   0  0  0  0  0  0  0  0  0  0  0  0
    3.4460   -0.6470    0.8230 O   0  0  0  0  0  0  0  0  0  0  0  0
   -1.0550   -1.5700   -0.3870 C   0  0  2  0  0  0  0  0  0  0  0  0
   -1.3220   -2.1240   -2.0530 Cl  0  0  0  0  0  0  0  0  0  0  0  0
   -0.9350   -2.8490    0.8070 Cl  0  0  0  0  0  0  0  0  0  0  0  0
  1  2  1  0
  2  3  2  3
  3  4  1  0
  3 10  1  0
  4  5  2  3
  4 10  1  0
  5  6  1  0
  6  7  1  6
  6  8  1  0
  8  9  1  0
 10 11  1  6
 10 12  1  0
M  END
