
     RDKit          3D

 12 12  0  0  0  0  0  0  0  0999 V2000
   -3.2370   -0.7960    0.2170 O   0  0  0  0  0  0  0  0  0  0  0  0
   -2.0910   -1.4930    0.0030 N   0  0  0  0  0  0  0  0  0  0  0  0
   -0.9210   -0.9460   -0.0850 C   0  0  0  0  0  0  0  0  0  0  0  0
    0.3250   -1.5920   -0.3060 N   0  0  0  0  0  0  0  0  0  0  0  0
    1.3600   -0.6000   -0.3320 C   0  0  0  0  0  0  0  0  0  0  0  0
    2.6910   -0.8840   -0.5270 O   0  0  0  0  0  0  0  0  0  0  0  0
    0.8520    0.6050   -0.1450 C   0  0  0  0  0  0  0  0  0  0  0  0
    1.5300    1.8310   -0.1030 O   0  0  0  0  0  0  0  0  0  0  0  0
    2.2060    2.3580    1.3960 Cl  0  0  0  0  0  0  0  0  0  0  0  0
   -0.6040    0.4730    0.0220 C   0  0  0  0  0  0  0  0  0  0  0  0
   -1.4480    1.4120    0.2230 N   0  0  0  0  0  0  0  0  0  0  0  0
   -0.9500    3.0730    0.3330 Cl  0  0  0  0  0  0  0  0  0  0  0  0
  1  2  1  0
  2  3  2  3
  3  4  1  0
  3 10  1  0
  4  5  1  0
  5  6  1  0
  5  7  2  0
  7  8  1  0
  7 10  1  0
  8  9  1  0
 10 11  2  3
 11 12  1  0
M  END
