
     RDKit          3D

 11 11  0  0  0  0  0  0  0  0999 V2000
   -2.9790    0.0130   -0.0190 N   0  0  0  0  0  0  0  0  0  0  0  0
   -1.7590   -0.3450   -0.2510 C   0  0  0  0  0  0  0  0  0  0  0  0
   -1.3320   -1.5650   -0.7500 O   0  0  0  0  0  0  0  0  0  0  0  0
    0.0470   -1.5580   -0.8540 C   0  0  0  0  0  0  0  0  0  0  0  0
    0.5430   -0.4000   -0.4490 C   0  0  0  0  0  0  0  0  0  0  0  0
    1.9220   -0.1020   -0.4420 N   0  0  0  0  0  0  0  0  0  0  0  0
    2.5220    0.4630    0.6360 O   0  0  0  0  0  0  0  0  0  0  0  0
   -0.5600    0.4730   -0.0300 C   0  0  2  0  0  0  0  0  0  0  0  0
   -0.4660    0.9510    1.6720 Cl  0  0  0  0  0  0  0  0  0  0  0  0
   -0.6070    1.6500   -0.8730 N   0  0  0  0  0  0  0  0  0  0  0  0
    0.7980    2.6460   -0.6400 Cl  0  0  0  0  0  0  0  0  0  0  0  0
  1  2  2  0
  2  3  1  0
  2  8  1  0
  3  4  1  0
  4  5  2  0
  5  6  1  0
  5  8  1  0
  6  7  1  0
  8  9  1  1
  8 10  1  0
 10 11  1  0
M  END
