
     RDKit          3D

 27 31  0  0  0  0  0  0  0  0999 V2000
   -0.5110   -1.7190    2.2170 C   0  0  0  0  0  0  0  0  0  0  0  0
   -1.2330   -2.3170    1.0330 C   0  0  1  0  0  0  0  0  0  0  0  0
   -2.3340   -1.4100    0.5860 C   0  0  0  0  0  0  0  0  0  0  0  0
   -3.5030   -1.9710    0.0990 C   0  0  0  0  0  0  0  0  0  0  0  0
   -4.5660   -1.2020   -0.3340 C   0  0  0  0  0  0  0  0  0  0  0  0
   -4.4690    0.1790   -0.2830 C   0  0  0  0  0  0  0  0  0  0  0  0
   -5.4980    0.9480   -0.7030 N   0  0  0  0  0  0  0  0  0  0  0  0
   -5.3740    2.2750   -0.6410 C   0  0  0  0  0  0  0  0  0  0  0  0
   -4.2220    2.8830   -0.1610 C   0  0  0  0  0  0  0  0  0  0  0  0
   -3.1720    2.1100    0.2670 C   0  0  0  0  0  0  0  0  0  0  0  0
   -3.3050    0.7420    0.2010 C   0  0  0  0  0  0  0  0  0  0  0  0
   -2.2380   -0.0380    0.6360 C   0  0  0  0  0  0  0  0  0  0  0  0
   -0.3280   -2.6180   -0.0900 C   0  0  0  0  0  0  0  0  0  0  0  0
   -0.4950   -3.6620   -0.9240 N   0  0  0  0  0  0  0  0  0  0  0  0
    0.4590   -3.6660   -1.8090 N   0  0  0  0  0  0  0  0  0  0  0  0
    1.2650   -2.6320   -1.5740 C   0  0  0  0  0  0  0  0  0  0  0  0
    2.4150   -2.2210   -2.2480 C   0  0  0  0  0  0  0  0  0  0  0  0
    3.0230   -1.0740   -1.7230 C   0  0  0  0  0  0  0  0  0  0  0  0
    2.4920   -0.4310   -0.6240 C   0  0  0  0  0  0  0  0  0  0  0  0
    3.1660    0.7580   -0.1210 C   0  0  0  0  0  0  0  0  0  0  0  0
    2.7330    1.5010    0.9820 C   0  0  0  0  0  0  0  0  0  0  0  0
    3.6010    2.5170    1.1430 N   0  0  0  0  0  0  0  0  0  0  0  0
    4.5300    2.4420    0.2130 N   0  0  0  0  0  0  0  0  0  0  0  0
    5.6360    3.3590    0.0590 C   0  0  0  0  0  0  0  0  0  0  0  0
    4.2900    1.3860   -0.5650 C   0  0  0  0  0  0  0  0  0  0  0  0
    1.3770   -0.9030   -0.0400 N   0  0  0  0  0  0  0  0  0  0  0  0
    0.7730   -1.9850   -0.5070 N   0  0  0  0  0  0  0  0  0  0  0  0
  2  1  1  1
  2  3  1  0
  2 13  1  0
  3  4  2  0
  3 12  1  0
  4  5  1  0
  5  6  2  0
  6  7  1  0
  6 11  1  0
  7  8  2  0
  8  9  1  0
  9 10  2  0
 10 11  1  0
 11 12  2  0
 13 14  2  0
 13 27  1  0
 14 15  1  0
 15 16  2  0
 16 17  1  0
 16 27  1  0
 17 18  2  0
 18 19  1  0
 19 20  1  0
 19 26  2  0
 20 21  1  0
 20 25  2  0
 21 22  2  0
 22 23  1  0
 23 24  1  0
 23 25  1  0
 26 27  1  0
M  END
