
     RDKit          3D

 24 27  0  0  0  0  0  0  0  0999 V2000
    3.0950    1.5080    0.9400 C   0  0  0  0  0  0  0  0  0  0  0  0
    3.1150    1.3870   -0.5640 C   0  0  2  0  0  0  0  0  0  0  0  0
    1.7550    1.8270   -1.1170 C   0  0  0  0  0  0  0  0  0  0  0  0
    3.3980    0.0530   -1.0020 N   0  0  0  0  0  0  0  0  0  0  0  0
    2.5610   -1.0820   -0.7750 C   0  0  0  0  0  0  0  0  0  0  0  0
    2.9670   -2.3380   -1.2340 C   0  0  0  0  0  0  0  0  0  0  0  0
    2.1560   -3.4260   -1.0250 C   0  0  0  0  0  0  0  0  0  0  0  0
    0.9600   -3.3000   -0.3780 C   0  0  0  0  0  0  0  0  0  0  0  0
   -0.0400   -4.1270   -0.0210 N   0  0  0  0  0  0  0  0  0  0  0  0
   -0.9750   -3.4360    0.6000 N   0  0  0  0  0  0  0  0  0  0  0  0
   -0.6030   -2.1430    0.6610 C   0  0  0  0  0  0  0  0  0  0  0  0
   -1.3980   -1.0190    1.2930 C   0  0  1  0  0  0  0  0  0  0  0  0
   -0.4070   -0.0710    1.8450 C   0  0  0  0  0  0  0  0  0  0  0  0
   -2.3260   -0.5610    0.2900 C   0  0  0  0  0  0  0  0  0  0  0  0
   -3.0140   -1.4210   -0.5660 C   0  0  0  0  0  0  0  0  0  0  0  0
   -3.7710   -0.6920   -1.3690 N   0  0  0  0  0  0  0  0  0  0  0  0
   -3.6390    0.6250   -1.1080 C   0  0  0  0  0  0  0  0  0  0  0  0
   -4.1720    1.7440   -1.6180 N   0  0  0  0  0  0  0  0  0  0  0  0
   -3.8440    2.9760   -1.1350 C   0  0  0  0  0  0  0  0  0  0  0  0
   -2.9480    3.0960   -0.1010 C   0  0  0  0  0  0  0  0  0  0  0  0
   -2.3970    1.9320    0.4250 C   0  0  0  0  0  0  0  0  0  0  0  0
   -2.7270    0.7020   -0.0610 C   0  0  0  0  0  0  0  0  0  0  0  0
    0.5930   -2.0730    0.0540 N   0  0  0  0  0  0  0  0  0  0  0  0
    1.3860   -1.0090   -0.1490 N   0  0  0  0  0  0  0  0  0  0  0  0
  2  1  1  1
  2  3  1  0
  2  4  1  0
  4  5  1  0
  5  6  1  0
  5 24  2  0
  6  7  2  0
  7  8  1  0
  8  9  2  0
  8 23  1  0
  9 10  1  0
 10 11  2  0
 11 12  1  0
 11 23  1  0
 12 13  1  6
 12 14  1  0
 14 15  2  0
 14 22  1  0
 15 16  1  0
 16 17  1  0
 17 18  2  0
 17 22  1  0
 18 19  1  0
 19 20  2  0
 20 21  1  0
 21 22  2  0
 23 24  1  0
M  END
