
     RDKit          3D

 24 27  0  0  0  0  0  0  0  0999 V2000
   -4.1960   -0.9860   -1.9290 C   0  0  0  0  0  0  0  0  0  0  0  0
   -4.8900   -0.2000   -0.8770 C   0  0  0  0  0  0  0  0  0  0  0  0
   -6.2080   -0.0070   -1.0210 N   0  0  0  0  0  0  0  0  0  0  0  0
   -6.8930    0.6840   -0.1210 C   0  0  0  0  0  0  0  0  0  0  0  0
   -6.2300    1.2040    0.9700 C   0  0  0  0  0  0  0  0  0  0  0  0
   -4.8760    1.0110    1.1270 C   0  0  0  0  0  0  0  0  0  0  0  0
   -4.1720    0.2860    0.1790 C   0  0  0  0  0  0  0  0  0  0  0  0
   -2.7770    0.0540    0.2860 N   0  0  0  0  0  0  0  0  0  0  0  0
   -1.9810    0.5490    1.3820 C   0  0  0  0  0  0  0  0  0  0  0  0
   -0.5590    0.1470    1.2180 C   0  0  0  0  0  0  0  0  0  0  0  0
    0.4340    0.8530    0.5650 C   0  0  0  0  0  0  0  0  0  0  0  0
    1.6240    0.1580    0.6240 C   0  0  0  0  0  0  0  0  0  0  0  0
    2.8780    0.3570    0.1770 N   0  0  0  0  0  0  0  0  0  0  0  0
    3.8490   -0.5470    0.4090 C   0  0  0  0  0  0  0  0  0  0  0  0
    5.1970   -0.2760   -0.1020 C   0  0  0  0  0  0  0  0  0  0  0  0
    6.2270   -1.1680    0.1070 C   0  0  0  0  0  0  0  0  0  0  0  0
    7.4620   -0.8440   -0.4030 C   0  0  0  0  0  0  0  0  0  0  0  0
    7.7080    0.2810   -1.0830 N   0  0  0  0  0  0  0  0  0  0  0  0
    6.7200    1.1560   -1.2940 C   0  0  0  0  0  0  0  0  0  0  0  0
    5.4640    0.8820   -0.8070 C   0  0  0  0  0  0  0  0  0  0  0  0
    3.5830   -1.6680    1.0930 N   0  0  0  0  0  0  0  0  0  0  0  0
    2.3510   -1.8510    1.5250 N   0  0  0  0  0  0  0  0  0  0  0  0
    1.3340   -0.9910    1.3300 C   0  0  0  0  0  0  0  0  0  0  0  0
    0.0340   -0.9720    1.6690 N   0  0  0  0  0  0  0  0  0  0  0  0
  1  2  1  0
  2  3  2  0
  2  7  1  0
  3  4  1  0
  4  5  2  0
  5  6  1  0
  6  7  2  0
  7  8  1  0
  8  9  1  0
  9 10  1  0
 10 11  2  0
 10 24  1  0
 11 12  1  0
 12 13  2  0
 12 23  1  0
 13 14  1  0
 14 15  1  0
 14 21  2  0
 15 16  2  0
 15 20  1  0
 16 17  1  0
 17 18  2  0
 18 19  1  0
 19 20  2  0
 21 22  1  0
 22 23  2  0
 23 24  1  0
M  END
