
     RDKit          3D

 24 27  0  0  0  0  0  0  0  0999 V2000
    4.9010    1.7100   -0.7870 C   0  0  0  0  0  0  0  0  0  0  0  0
    5.3290    0.6680   -1.4530 C   0  0  0  0  0  0  0  0  0  0  0  0
    5.1110   -0.7240   -1.1600 C   0  0  0  0  0  0  0  0  0  0  0  0
    5.6890   -1.5840   -2.0360 C   0  0  0  0  0  0  0  0  0  0  0  0
    4.3750   -1.3520   -0.0740 C   0  0  0  0  0  0  0  0  0  0  0  0
    2.9670   -1.0750    0.0220 N   0  0  0  0  0  0  0  0  0  0  0  0
    2.0390   -1.6480   -0.7870 N   0  0  0  0  0  0  0  0  0  0  0  0
    0.8250   -1.1870   -0.5270 C   0  0  0  0  0  0  0  0  0  0  0  0
    0.9190   -0.2850    0.4760 C   0  0  0  0  0  0  0  0  0  0  0  0
   -0.1280    0.4780    1.0980 C   0  0  0  0  0  0  0  0  0  0  0  0
    0.0960    1.3610    2.1070 N   0  0  0  0  0  0  0  0  0  0  0  0
   -0.8960    2.0680    2.6790 C   0  0  0  0  0  0  0  0  0  0  0  0
   -2.1640    1.9160    2.2590 N   0  0  0  0  0  0  0  0  0  0  0  0
   -2.4440    1.0570    1.2650 C   0  0  0  0  0  0  0  0  0  0  0  0
   -1.4180    0.3380    0.6860 C   0  0  0  0  0  0  0  0  0  0  0  0
   -2.0020   -0.4140   -0.2520 N   0  0  0  0  0  0  0  0  0  0  0  0
   -3.3510   -0.1980   -0.2860 C   0  0  0  0  0  0  0  0  0  0  0  0
   -4.2610   -0.8760   -1.2200 C   0  0  2  0  0  0  0  0  0  0  0  0
   -5.5810   -0.4130   -1.5890 C   0  0  0  0  0  0  0  0  0  0  0  0
   -5.4490   -1.6600   -0.7200 C   0  0  0  0  0  0  0  0  0  0  0  0
   -3.5960    0.7060    0.6500 N   0  0  0  0  0  0  0  0  0  0  0  0
   -4.8890    1.2620    0.9880 C   0  0  0  0  0  0  0  0  0  0  0  0
    2.2720   -0.2380    0.7990 C   0  0  0  0  0  0  0  0  0  0  0  0
    2.7800    0.5690    1.8600 N   0  0  0  0  0  0  0  0  0  0  0  0
  1  2  2  0
  2  3  1  0
  3  4  2  0
  3  5  1  0
  5  6  1  0
  6  7  1  0
  6 23  1  0
  7  8  2  0
  8  9  1  0
  9 10  1  0
  9 23  2  0
 10 11  2  0
 10 15  1  0
 11 12  1  0
 12 13  2  0
 13 14  1  0
 14 15  2  0
 14 21  1  0
 15 16  1  0
 16 17  2  0
 18 17  1  1
 17 21  1  0
 18 19  1  0
 18 20  1  0
 19 20  1  0
 21 22  1  0
 23 24  1  0
M  END
