
     RDKit          3D

 24 27  0  0  0  0  0  0  0  0999 V2000
    5.8440   -0.7710   -2.6960 C   0  0  0  0  0  0  0  0  0  0  0  0
    5.4650   -0.0460   -1.4370 C   0  0  0  0  0  0  0  0  0  0  0  0
    4.2930   -0.3250   -0.7750 C   0  0  0  0  0  0  0  0  0  0  0  0
    3.9520    0.3440    0.3800 C   0  0  0  0  0  0  0  0  0  0  0  0
    2.7180    0.0790    1.1060 C   0  0  0  0  0  0  0  0  0  0  0  0
    2.5400   -0.0990    2.4300 N   0  0  0  0  0  0  0  0  0  0  0  0
    1.2660   -0.3110    2.6910 N   0  0  0  0  0  0  0  0  0  0  0  0
    0.5420   -0.2830    1.5530 C   0  0  0  0  0  0  0  0  0  0  0  0
   -0.7810   -0.4340    1.2260 C   0  0  0  0  0  0  0  0  0  0  0  0
   -1.2720   -0.3540   -0.0600 C   0  0  0  0  0  0  0  0  0  0  0  0
   -2.6560   -0.5210   -0.3120 N   0  0  0  0  0  0  0  0  0  0  0  0
   -3.6030   -0.7780    0.7390 C   0  0  0  0  0  0  0  0  0  0  0  0
   -4.9850   -0.9180    0.2490 C   0  0  0  0  0  0  0  0  0  0  0  0
   -5.6600   -2.0090   -0.1600 N   0  0  0  0  0  0  0  0  0  0  0  0
   -6.8850   -1.6830   -0.5200 N   0  0  0  0  0  0  0  0  0  0  0  0
   -7.0290   -0.3730   -0.3530 C   0  0  0  0  0  0  0  0  0  0  0  0
   -5.8510    0.1110    0.1250 N   0  0  0  0  0  0  0  0  0  0  0  0
   -5.6650    1.5140    0.4190 C   0  0  0  0  0  0  0  0  0  0  0  0
   -0.3580   -0.1070   -1.0610 C   0  0  0  0  0  0  0  0  0  0  0  0
    0.9850    0.0490   -0.7620 C   0  0  0  0  0  0  0  0  0  0  0  0
    1.4690   -0.0340    0.5390 C   0  0  0  0  0  0  0  0  0  0  0  0
    4.8580    1.3080    0.8280 C   0  0  0  0  0  0  0  0  0  0  0  0
    6.0180    1.5890    0.1790 C   0  0  0  0  0  0  0  0  0  0  0  0
    6.2850    0.8960   -0.9420 N   0  0  0  0  0  0  0  0  0  0  0  0
  1  2  1  0
  2  3  2  0
  2 24  1  0
  3  4  1  0
  4  5  1  0
  4 22  2  0
  5  6  2  0
  5 21  1  0
  6  7  1  0
  7  8  1  0
  8  9  2  0
  8 21  1  0
  9 10  1  0
 10 11  1  0
 10 19  2  0
 11 12  1  0
 12 13  1  0
 13 14  2  0
 13 17  1  0
 14 15  1  0
 15 16  2  0
 16 17  1  0
 17 18  1  0
 19 20  1  0
 20 21  2  0
 22 23  1  0
 23 24  2  0
M  END
