
     RDKit          3D

 24 27  0  0  0  0  0  0  0  0999 V2000
    4.6040    2.2600    2.6430 C   0  0  0  0  0  0  0  0  0  0  0  0
    3.3500    1.6050    2.1470 C   0  0  0  0  0  0  0  0  0  0  0  0
    3.2910    1.6390    0.6130 C   0  0  1  0  0  0  0  0  0  0  0  0
    4.4750    0.9060    0.1110 C   0  0  0  0  0  0  0  0  0  0  0  0
    1.9790    1.1180    0.2100 C   0  0  0  0  0  0  0  0  0  0  0  0
    0.8210    1.3280    0.9150 N   0  0  0  0  0  0  0  0  0  0  0  0
   -0.1530    0.7540    0.2940 N   0  0  0  0  0  0  0  0  0  0  0  0
    0.3100    0.1460   -0.8360 C   0  0  0  0  0  0  0  0  0  0  0  0
    1.6400    0.3770   -0.8800 N   0  0  0  0  0  0  0  0  0  0  0  0
    2.4530   -0.1440   -1.9250 C   0  0  0  0  0  0  0  0  0  0  0  0
    1.7060   -0.3460   -3.2190 C   0  0  0  0  0  0  0  0  0  0  0  0
    0.4760   -1.0930   -2.9210 N   0  0  0  0  0  0  0  0  0  0  0  0
   -0.3650   -0.6140   -1.8670 C   0  0  0  0  0  0  0  0  0  0  0  0
   -1.6350   -0.8510   -1.8870 C   0  0  0  0  0  0  0  0  0  0  0  0
   -2.6310   -0.4140   -0.9170 C   0  0  0  0  0  0  0  0  0  0  0  0
   -2.8040    0.9060   -0.5860 C   0  0  0  0  0  0  0  0  0  0  0  0
   -3.7290    1.2750    0.3570 N   0  0  0  0  0  0  0  0  0  0  0  0
   -4.4740    0.3500    0.9660 C   0  0  0  0  0  0  0  0  0  0  0  0
   -4.3340   -0.9900    0.6620 C   0  0  0  0  0  0  0  0  0  0  0  0
   -4.9640   -2.1230    1.1320 C   0  0  0  0  0  0  0  0  0  0  0  0
   -6.0400   -2.1320    2.1740 C   0  0  0  0  0  0  0  0  0  0  0  0
   -4.4080   -3.1490    0.4650 N   0  0  0  0  0  0  0  0  0  0  0  0
   -3.4760   -2.6790   -0.3800 N   0  0  0  0  0  0  0  0  0  0  0  0
   -3.3990   -1.3490   -0.2880 C   0  0  0  0  0  0  0  0  0  0  0  0
  1  2  1  0
  2  3  1  0
  3  4  1  6
  3  5  1  0
  5  6  2  0
  5  9  1  0
  6  7  1  0
  7  8  2  0
  8  9  1  0
  8 13  1  0
  9 10  1  0
 10 11  1  0
 11 12  1  0
 12 13  1  0
 13 14  2  3
 14 15  1  0
 15 16  2  0
 15 24  1  0
 16 17  1  0
 17 18  2  0
 18 19  1  0
 19 20  1  0
 19 24  2  0
 20 21  1  0
 20 22  2  0
 22 23  1  0
 23 24  1  0
M  END
