
     RDKit          3D

 24 27  0  0  0  0  0  0  0  0999 V2000
   -5.5960    0.6850   -2.1270 C   0  0  0  0  0  0  0  0  0  0  0  0
   -4.1980    0.5890   -1.7740 N   0  0  0  0  0  0  0  0  0  0  0  0
   -3.7520   -0.1510   -0.6390 C   0  0  0  0  0  0  0  0  0  0  0  0
   -4.6140   -0.7980    0.1630 N   0  0  0  0  0  0  0  0  0  0  0  0
   -4.2190   -1.5040    1.2430 C   0  0  0  0  0  0  0  0  0  0  0  0
   -5.2290   -2.1980    2.0890 C   0  0  0  0  0  0  0  0  0  0  0  0
   -2.8980   -1.5420    1.5000 N   0  0  0  0  0  0  0  0  0  0  0  0
   -1.9800   -0.9170    0.7390 C   0  0  0  0  0  0  0  0  0  0  0  0
   -0.6060   -0.7800    0.7510 C   0  0  0  0  0  0  0  0  0  0  0  0
   -0.2010    0.0120   -0.3290 C   0  0  0  0  0  0  0  0  0  0  0  0
    1.1680    0.4050   -0.6860 C   0  0  1  0  0  0  0  0  0  0  0  0
    1.1910    1.6340   -1.5240 C   0  0  0  0  0  0  0  0  0  0  0  0
    1.0050    2.7290   -0.4950 C   0  0  0  0  0  0  0  0  0  0  0  0
    1.1850    2.0610    0.8430 C   0  0  0  0  0  0  0  0  0  0  0  0
    1.8540    0.8270    0.5230 N   0  0  0  0  0  0  0  0  0  0  0  0
    3.2520    1.0470    0.3100 C   0  0  0  0  0  0  0  0  0  0  0  0
    3.9440   -0.2260   -0.0220 C   0  0  0  0  0  0  0  0  0  0  0  0
    4.1090   -0.7070   -1.2800 N   0  0  0  0  0  0  0  0  0  0  0  0
    4.7710   -1.8720   -1.2360 C   0  0  0  0  0  0  0  0  0  0  0  0
    5.0260   -2.1240    0.0950 C   0  0  0  0  0  0  0  0  0  0  0  0
    4.5130   -1.1120    0.7920 N   0  0  0  0  0  0  0  0  0  0  0  0
    4.5800   -1.0150    2.2360 C   0  0  0  0  0  0  0  0  0  0  0  0
   -1.3240    0.3440   -0.9800 N   0  0  0  0  0  0  0  0  0  0  0  0
   -2.4000   -0.1940   -0.3690 C   0  0  0  0  0  0  0  0  0  0  0  0
  1  2  1  0
  2  3  1  0
  3  4  2  0
  3 24  1  0
  4  5  1  0
  5  6  1  0
  5  7  2  0
  7  8  1  0
  8  9  1  0
  8 24  2  0
  9 10  2  0
 11 10  1  1
 10 23  1  0
 11 12  1  0
 11 15  1  0
 12 13  1  0
 13 14  1  0
 14 15  1  0
 15 16  1  0
 16 17  1  0
 17 18  2  0
 17 21  1  0
 18 19  1  0
 19 20  2  0
 20 21  1  0
 21 22  1  0
 23 24  1  0
M  END
