
     RDKit          3D

 21 21  0  0  0  0  0  0  0  0999 V2000
   -0.1590   -2.6030   -0.1690 O   0  0  0  0  0  0  0  0  0  0  0  0
   -0.3390   -1.3220   -0.1100 C   0  0  0  0  0  0  0  0  0  0  0  0
   -1.6950   -0.8660   -0.2180 C   0  0  0  0  0  0  0  0  0  0  0  0
   -2.1080    0.4450   -0.1800 C   0  0  0  0  0  0  0  0  0  0  0  0
   -3.4640    0.7950   -0.2940 C   0  0  0  0  0  0  0  0  0  0  0  0
   -3.8070    2.2460   -0.2410 C   0  0  0  0  0  0  0  0  0  0  0  0
   -4.1260    2.7170    1.6070 Br  0  0  0  0  0  0  0  0  0  0  0  0
   -4.4040   -0.1440   -0.4450 N   0  0  0  0  0  0  0  0  0  0  0  0
   -4.0490   -1.4370   -0.4870 C   0  0  0  0  0  0  0  0  0  0  0  0
   -4.9080   -2.3630   -0.6290 O   0  0  0  0  0  0  0  0  0  0  0  0
   -2.7270   -1.8020   -0.3770 C   0  0  0  0  0  0  0  0  0  0  0  0
    0.8190   -0.5250    0.0540 N   0  0  0  0  0  0  0  0  0  0  0  0
    0.7620    0.8280    0.1300 O   0  0  0  0  0  0  0  0  0  0  0  0
    1.9750   -1.1180    0.1340 C   0  0  0  0  0  0  0  0  0  0  0  0
    3.1750   -0.3330    0.3010 C   0  0  0  0  0  0  0  0  0  0  0  0
    4.3510   -0.9010    0.3840 C   0  0  0  0  0  0  0  0  0  0  0  0
    5.5360   -0.2150    0.5440 O   0  0  0  0  0  0  0  0  0  0  0  0
    5.6420    1.1920    0.4570 C   0  0  1  0  0  0  0  0  0  0  0  0
    6.9220    1.6330    0.6520 F   0  0  0  0  0  0  0  0  0  0  0  0
    5.1880    1.5750   -0.7920 F   0  0  0  0  0  0  0  0  0  0  0  0
    4.8360    1.8320    1.3910 F   0  0  0  0  0  0  0  0  0  0  0  0
  1  2  2  0
  2  3  1  0
  2 12  1  0
  3  4  1  0
  3 11  2  0
  4  5  2  0
  5  6  1  0
  5  8  1  0
  6  7  1  0
  8  9  1  0
  9 10  2  0
  9 11  1  0
 12 13  1  0
 12 14  2  3
 14 15  1  0
 15 16  2  3
 16 17  1  0
 17 18  1  0
 18 19  1  1
 18 20  1  0
 18 21  1  0
M  CHG  2  12   1  13  -1
M  END
