
     RDKit          3D

 13 12  0  0  0  0  0  0  0  0999 V2000
   -2.3780   -0.5710   -1.3200 C   0  0  0  0  0  0  0  0  0  0  0  0
   -1.8180    0.4790   -0.4180 C   0  0  2  0  0  0  0  0  0  0  0  0
   -0.4590   -0.0210    0.0900 C   0  0  0  0  0  0  0  0  0  0  0  0
    0.4010   -0.2300   -1.1170 C   0  0  0  0  0  0  0  0  0  0  0  0
    1.6920   -0.6900   -0.8520 O   0  0  0  0  0  0  0  0  0  0  0  0
    2.6080    0.0080   -0.0780 C   0  0  0  0  0  0  0  0  0  0  0  0
    2.2940    1.1160    0.4280 O   0  0  0  0  0  0  0  0  0  0  0  0
    3.9140   -0.4920    0.1710 N   0  0  0  0  0  0  0  0  0  0  0  0
    4.2660   -1.7750   -0.4180 C   0  0  0  0  0  0  0  0  0  0  0  0
    4.8340    0.2670    0.9830 C   0  0  0  0  0  0  0  0  0  0  0  0
   -2.6860    0.8030    0.6910 N   0  0  1  0  0  0  0  0  0  0  0  0
   -3.5790    1.8810    0.3120 C   0  0  0  0  0  0  0  0  0  0  0  0
   -3.4100   -0.3210    1.1930 C   0  0  0  0  0  0  0  0  0  0  0  0
  2  1  1  1
  2  3  1  0
  2 11  1  0
  3  4  1  0
  4  5  1  0
  5  6  1  0
  6  7  2  0
  6  8  1  0
  8  9  1  0
  8 10  1  0
 11 12  1  6
 11 13  1  0
M  CHG  1  11   1
M  END
