
     RDKit          3D

 21 21  0  0  0  0  0  0  0  0999 V2000
   -3.7050   -1.1470   -2.1190 O   0  0  0  0  0  0  0  0  0  0  0  0
   -2.5700   -1.4120   -1.6520 C   0  0  0  0  0  0  0  0  0  0  0  0
   -1.2370   -0.9140   -2.0910 C   0  0  0  0  0  0  0  0  0  0  0  0
   -0.5870   -0.7160   -0.6670 C   0  0  2  0  0  0  0  0  0  0  0  0
   -1.5130    0.3010   -0.0900 C   0  0  0  0  0  0  0  0  0  0  0  0
   -1.2310    0.7620    1.2880 C   0  0  0  0  0  0  0  0  0  0  0  0
   -2.2280    1.7320    1.6600 N   0  0  0  0  0  0  0  0  0  0  0  0
   -2.9720    1.5500    2.6310 O   0  0  0  0  0  0  0  0  0  0  0  0
   -2.3520    2.8750    0.9260 O   0  0  0  0  0  0  0  0  0  0  0  0
    0.7600   -0.3100   -0.9740 C   0  0  0  0  0  0  0  0  0  0  0  0
    1.7630    0.0270    0.0590 C   0  0  0  0  0  0  0  0  0  0  0  0
    2.2200    1.2500   -0.0100 C   0  0  0  0  0  0  0  0  0  0  0  0
    3.1760    2.0360    0.7410 C   0  0  0  0  0  0  0  0  0  0  0  0
    4.5760    2.5540   -0.5430 Br  0  0  0  0  0  0  0  0  0  0  0  0
    2.2480   -0.8560    1.0950 C   0  0  2  0  0  0  0  0  0  0  0  0
    3.3540   -0.4130    1.7580 F   0  0  0  0  0  0  0  0  0  0  0  0
    2.6590   -2.1040    0.5630 F   0  0  0  0  0  0  0  0  0  0  0  0
    1.3420   -1.1330    2.1040 F   0  0  0  0  0  0  0  0  0  0  0  0
   -0.8600   -2.0920   -0.2150 C   0  0  0  0  0  0  0  0  0  0  0  0
   -0.1890   -2.9810    0.3220 O   0  0  0  0  0  0  0  0  0  0  0  0
   -2.2560   -2.2860   -0.5460 N   0  0  0  0  0  0  0  0  0  0  0  0
  1  2  2  0
  2  3  1  0
  2 21  1  0
  3  4  1  0
  4  5  1  1
  4 10  1  0
  4 19  1  0
  5  6  1  0
  6  7  1  0
  7  8  2  0
  7  9  1  0
 10 11  1  0
 11 12  2  3
 11 15  1  0
 12 13  1  0
 13 14  1  0
 15 16  1  1
 15 17  1  0
 15 18  1  0
 19 20  2  0
 19 21  1  0
M  CHG  2   7   1   9  -1
M  END
