
     RDKit          3D

 28 30  0  0  0  0  0  0  0  0999 V2000
   -8.6090    0.6450   -0.6710 C   0  0  0  0  0  0  0  0  0  0  0  0
   -7.7970   -0.3270    0.1270 C   0  0  0  0  0  0  0  0  0  0  0  0
   -6.3760    0.0240    0.2530 C   0  0  0  0  0  0  0  0  0  0  0  0
   -5.9100    0.5500    1.4450 C   0  0  0  0  0  0  0  0  0  0  0  0
   -4.5970    0.8940    1.6340 C   0  0  0  0  0  0  0  0  0  0  0  0
   -3.6910    0.7110    0.5880 C   0  0  0  0  0  0  0  0  0  0  0  0
   -2.2930    1.0730    0.7600 C   0  0  0  0  0  0  0  0  0  0  0  0
   -1.3190    0.3280    0.2920 C   0  0  0  0  0  0  0  0  0  0  0  0
   -1.6220   -0.8310   -0.3820 O   0  0  0  0  0  0  0  0  0  0  0  0
   -1.6290   -2.0650    0.2790 C   0  0  0  0  0  0  0  0  0  0  0  0
    0.0910    0.7520    0.5000 C   0  0  0  0  0  0  0  0  0  0  0  0
    0.3010    1.8210    1.1170 O   0  0  0  0  0  0  0  0  0  0  0  0
    1.1570   -0.0060    0.0280 N   0  0  0  0  0  0  0  0  0  0  0  0
    2.5390    0.2840    0.1520 C   0  0  0  0  0  0  0  0  0  0  0  0
    3.0480    1.5020    0.5240 C   0  0  0  0  0  0  0  0  0  0  0  0
    4.4130    1.7040    0.6440 C   0  0  0  0  0  0  0  0  0  0  0  0
    5.2860    0.6790    0.3900 C   0  0  0  0  0  0  0  0  0  0  0  0
    4.8050   -0.5530    0.0140 C   0  0  0  0  0  0  0  0  0  0  0  0
    3.4690   -0.7350   -0.0990 C   0  0  0  0  0  0  0  0  0  0  0  0
    5.7670   -1.6480   -0.2550 C   0  0  0  0  0  0  0  0  0  0  0  0
    5.4070   -2.8150   -0.0850 O   0  0  0  0  0  0  0  0  0  0  0  0
    7.1270   -1.3110   -0.7180 C   0  0  0  0  0  0  0  0  0  0  0  0
    7.3860    0.1790   -0.6950 C   0  0  2  0  0  0  0  0  0  0  0  0
    8.8820    0.4700   -0.6220 C   0  0  0  0  0  0  0  0  0  0  0  0
    6.7570    0.8370    0.5070 C   0  0  0  0  0  0  0  0  0  0  0  0
   -4.1800    0.1880   -0.5870 C   0  0  0  0  0  0  0  0  0  0  0  0
   -5.5040   -0.1650   -0.7920 C   0  0  0  0  0  0  0  0  0  0  0  0
   -5.9670   -0.7270   -2.0930 C   0  0  0  0  0  0  0  0  0  0  0  0
  1  2  1  0
  2  3  1  0
  3  4  2  0
  3 27  1  0
  4  5  1  0
  5  6  2  0
  6  7  1  0
  6 26  1  0
  7  8  2  3
  8  9  1  0
  8 11  1  0
  9 10  1  0
 11 12  2  0
 11 13  1  0
 13 14  1  0
 14 15  2  0
 14 19  1  0
 15 16  1  0
 16 17  2  0
 17 18  1  0
 17 25  1  0
 18 19  2  0
 18 20  1  0
 20 21  2  0
 20 22  1  0
 22 23  1  0
 23 24  1  1
 23 25  1  0
 26 27  2  0
 27 28  1  0
M  END
