
     RDKit          3D

 28 30  0  0  0  0  0  0  0  0999 V2000
   -4.2940   -3.9180   -1.8370 C   0  0  0  0  0  0  0  0  0  0  0  0
   -3.2420   -2.8530   -1.6210 C   0  0  0  0  0  0  0  0  0  0  0  0
   -3.1650   -2.2970   -0.4530 C   0  0  0  0  0  0  0  0  0  0  0  0
   -4.1130   -2.7530    0.5770 C   0  0  0  0  0  0  0  0  0  0  0  0
   -2.1880   -1.1920   -0.1050 C   0  0  0  0  0  0  0  0  0  0  0  0
   -2.2440   -0.7780    1.1410 C   0  0  0  0  0  0  0  0  0  0  0  0
   -1.5390    0.2180    1.8900 C   0  0  0  0  0  0  0  0  0  0  0  0
   -1.7900    1.4810    2.1260 C   0  0  0  0  0  0  0  0  0  0  0  0
   -2.9480    2.2760    1.6570 C   0  0  0  0  0  0  0  0  0  0  0  0
   -2.6570    3.5850    1.2000 N   0  0  0  0  0  0  0  0  0  0  0  0
   -1.9610    3.7300   -0.0230 C   0  0  0  0  0  0  0  0  0  0  0  0
   -1.5230    2.4250   -0.6390 C   0  0  0  0  0  0  0  0  0  0  0  0
   -0.2630    2.0100   -0.1340 O   0  0  0  0  0  0  0  0  0  0  0  0
    0.5280    1.0020   -0.6880 C   0  0  0  0  0  0  0  0  0  0  0  0
    1.8990    1.3050   -0.7580 C   0  0  0  0  0  0  0  0  0  0  0  0
    2.8410    0.4530   -1.2840 C   0  0  0  0  0  0  0  0  0  0  0  0
    4.1880    0.7680   -1.3450 O   0  0  0  0  0  0  0  0  0  0  0  0
    5.0740    0.4700   -0.3210 C   0  0  0  0  0  0  0  0  0  0  0  0
    5.7120   -0.7530   -0.3460 C   0  0  0  0  0  0  0  0  0  0  0  0
    6.6040   -1.0560    0.6810 C   0  0  0  0  0  0  0  0  0  0  0  0
    6.8170   -0.1360    1.6730 C   0  0  0  0  0  0  0  0  0  0  0  0
    6.1720    1.0850    1.6860 C   0  0  0  0  0  0  0  0  0  0  0  0
    5.2850    1.4000    0.6750 C   0  0  0  0  0  0  0  0  0  0  0  0
    2.4210   -0.7630   -1.7690 C   0  0  0  0  0  0  0  0  0  0  0  0
    1.1000   -1.0500   -1.6970 C   0  0  0  0  0  0  0  0  0  0  0  0
    0.0880   -0.2060   -1.1600 C   0  0  0  0  0  0  0  0  0  0  0  0
   -1.2760   -0.7380   -1.1570 C   0  0  0  0  0  0  0  0  0  0  0  0
   -1.7480   -0.8170   -2.3560 O   0  0  0  0  0  0  0  0  0  0  0  0
  1  2  1  0
  2  3  2  3
  3  4  1  0
  3  5  1  0
  5  6  2  0
  5 27  1  0
  6  7  1  0
  7  8  2  0
  8  9  1  0
  9 10  1  0
 10 11  1  0
 11 12  1  0
 12 13  1  0
 13 14  1  0
 14 15  2  0
 14 26  1  0
 15 16  1  0
 16 17  1  0
 16 24  2  0
 17 18  1  0
 18 19  2  0
 18 23  1  0
 19 20  1  0
 20 21  2  0
 21 22  1  0
 22 23  2  0
 24 25  1  0
 25 26  2  0
 26 27  1  0
 27 28  2  0
M  END
