
     RDKit          3D

 28 31  0  0  0  0  0  0  0  0999 V2000
   -1.7340    4.1580    1.4260 C   0  0  0  0  0  0  0  0  0  0  0  0
   -2.0270    2.8610    0.9970 O   0  0  0  0  0  0  0  0  0  0  0  0
   -1.1020    1.8330    0.9550 C   0  0  0  0  0  0  0  0  0  0  0  0
    0.1860    2.0310    1.3410 C   0  0  0  0  0  0  0  0  0  0  0  0
    1.1080    0.9930    1.2950 C   0  0  0  0  0  0  0  0  0  0  0  0
    0.7490   -0.2590    0.8580 C   0  0  0  0  0  0  0  0  0  0  0  0
    1.7150   -1.3480    0.7860 C   0  0  0  0  0  0  0  0  0  0  0  0
    2.8880   -1.3090    0.2330 C   0  0  0  0  0  0  0  0  0  0  0  0
    3.7220   -2.5850    0.2950 C   0  0  0  0  0  0  0  0  0  0  0  0
    5.0820   -2.1710    0.6190 N   0  0  0  0  0  0  0  0  0  0  0  0
    5.6300   -1.0160   -0.0300 C   0  0  0  0  0  0  0  0  0  0  0  0
    4.8920   -0.0610   -0.5550 C   0  0  0  0  0  0  0  0  0  0  0  0
    5.7400    0.9940   -1.1550 C   0  0  0  0  0  0  0  0  0  0  0  0
    7.1420    0.4930   -1.0960 C   0  0  0  0  0  0  0  0  0  0  0  0
    7.0740   -0.7070   -0.2140 C   0  0  0  0  0  0  0  0  0  0  0  0
    3.4460   -0.1530   -0.4560 C   0  0  0  0  0  0  0  0  0  0  0  0
    2.6560    0.6960   -0.9270 O   0  0  0  0  0  0  0  0  0  0  0  0
   -0.5690   -0.4450    0.4670 C   0  0  0  0  0  0  0  0  0  0  0  0
   -1.5180    0.5560    0.4970 C   0  0  0  0  0  0  0  0  0  0  0  0
   -2.7860    0.4680    0.1460 O   0  0  0  0  0  0  0  0  0  0  0  0
   -3.7860   -0.2520   -0.3120 C   0  0  0  0  0  0  0  0  0  0  0  0
   -3.7590   -1.5800   -0.6780 C   0  0  0  0  0  0  0  0  0  0  0  0
   -4.8750   -2.2760   -1.1580 C   0  0  0  0  0  0  0  0  0  0  0  0
   -6.0680   -1.6180   -1.2780 C   0  0  0  0  0  0  0  0  0  0  0  0
   -7.2620   -2.3330   -1.7850 C   0  0  0  0  0  0  0  0  0  0  0  0
   -6.1210   -0.2920   -0.9200 C   0  0  0  0  0  0  0  0  0  0  0  0
   -5.0390    0.3990   -0.4500 C   0  0  0  0  0  0  0  0  0  0  0  0
   -5.1040    1.8370   -0.0630 C   0  0  0  0  0  0  0  0  0  0  0  0
  1  2  1  0
  2  3  1  0
  3  4  2  0
  3 19  1  0
  4  5  1  0
  5  6  2  0
  6  7  1  0
  6 18  1  0
  7  8  2  3
  8  9  1  0
  8 16  1  0
  9 10  1  0
 10 11  1  0
 11 12  2  0
 11 15  1  0
 12 13  1  0
 12 16  1  0
 13 14  1  0
 14 15  1  0
 16 17  2  0
 18 19  2  0
 19 20  1  0
 20 21  1  0
 21 22  2  0
 21 27  1  0
 22 23  1  0
 23 24  2  0
 24 25  1  0
 24 26  1  0
 26 27  2  0
 27 28  1  0
M  END
