
     RDKit          3D

 25 26  0  0  0  0  0  0  0  0999 V2000
    5.7650   -1.6030    0.1330 C   0  0  0  0  0  0  0  0  0  0  0  0
    5.0970   -0.3470    0.4980 C   0  0  2  0  0  0  0  0  0  0  0  0
    5.8240    0.2150    1.5780 O   0  0  0  0  0  0  0  0  0  0  0  0
    3.6840   -0.4370    0.9420 C   0  0  0  0  0  0  0  0  0  0  0  0
    2.7030   -1.0050   -0.0160 C   0  0  2  0  0  0  0  0  0  0  0  0
    2.5580   -0.3430   -1.2080 O   0  0  0  0  0  0  0  0  0  0  0  0
    1.3300   -0.9240    0.6840 C   0  0  1  0  0  0  0  0  0  0  0  0
    1.0630    0.4800    1.1360 C   0  0  0  0  0  0  0  0  0  0  0  0
   -0.4000    0.6450    1.3420 C   0  0  0  0  0  0  0  0  0  0  0  0
   -1.1880    0.1010    0.4360 C   0  0  0  0  0  0  0  0  0  0  0  0
   -2.5920    0.1850    0.5130 N   0  0  0  0  0  0  0  0  0  0  0  0
   -3.3740    0.7970   -0.5020 C   0  0  0  0  0  0  0  0  0  0  0  0
   -2.8450    1.2940   -1.5190 O   0  0  0  0  0  0  0  0  0  0  0  0
   -4.8340    0.8320   -0.3230 C   0  0  2  0  0  0  0  0  0  0  0  0
   -5.3990   -0.5870   -0.2560 C   0  0  0  0  0  0  0  0  0  0  0  0
   -6.8700   -0.4480    0.0840 C   0  0  0  0  0  0  0  0  0  0  0  0
   -7.5160    0.3240   -1.0490 C   0  0  0  0  0  0  0  0  0  0  0  0
   -6.7930    1.6230   -1.2420 C   0  0  0  0  0  0  0  0  0  0  0  0
   -5.4230    1.4580   -1.3950 O   0  0  0  0  0  0  0  0  0  0  0  0
   -0.5350   -0.6180   -0.6810 C   0  0  0  0  0  0  0  0  0  0  0  0
    0.3580   -1.5110   -0.0750 O   0  0  0  0  0  0  0  0  0  0  0  0
    5.2160    0.6690   -0.6160 C   0  0  0  0  0  0  0  0  0  0  0  0
    6.9150    1.0480   -0.9730 S   0  0  1  0  0  0  0  0  0  0  0  0
    7.6350   -0.1370   -1.5220 O   0  0  0  0  0  0  0  0  0  0  0  0
    6.9190    2.1850   -1.9610 O   0  0  0  0  0  0  0  0  0  0  0  0
  2  1  1  6
  2  3  1  0
  2  4  1  0
  2 22  1  0
  4  5  1  0
  5  6  1  6
  5  7  1  0
  7  8  1  6
  7 21  1  0
  8  9  1  0
  9 10  2  0
 10 11  1  0
 10 20  1  0
 11 12  1  0
 12 13  2  0
 14 12  1  6
 14 15  1  0
 14 19  1  0
 15 16  1  0
 16 17  1  0
 17 18  1  0
 18 19  1  0
 20 21  1  0
 23 22  1  6
 23 24  2  0
 23 25  2  0
M  END
