
     RDKit          3D

 25 26  0  0  0  0  0  0  0  0999 V2000
    3.2420    2.6190   -0.1390 C   0  0  0  0  0  0  0  0  0  0  0  0
    3.0130    1.1600    0.2910 C   0  0  0  0  0  0  0  0  0  0  0  0
    3.9780    0.3380   -0.4690 C   0  0  0  0  0  0  0  0  0  0  0  0
    3.9880   -1.1140   -0.2500 C   0  0  1  0  0  0  0  0  0  0  0  0
    4.9720   -1.7460   -1.0440 O   0  0  0  0  0  0  0  0  0  0  0  0
    4.2740   -1.5420    1.1690 C   0  0  0  0  0  0  0  0  0  0  0  0
    3.7950   -2.8280    1.3040 O   0  0  0  0  0  0  0  0  0  0  0  0
    3.1030   -3.1890    0.1760 C   0  0  0  0  0  0  0  0  0  0  0  0
    2.7060   -1.8530   -0.5110 C   0  0  1  0  0  0  0  0  0  0  0  0
    1.5660   -1.4010    0.2220 N   0  0  0  0  0  0  0  0  0  0  0  0
    0.2400   -1.3620   -0.3130 C   0  0  0  0  0  0  0  0  0  0  0  0
    0.1030   -1.7570   -1.4980 O   0  0  0  0  0  0  0  0  0  0  0  0
   -0.9510   -0.9050    0.4090 C   0  0  1  0  0  0  0  0  0  0  0  0
   -0.6750   -0.3650    1.6630 O   0  0  0  0  0  0  0  0  0  0  0  0
   -1.8130    0.0810   -0.3410 C   0  0  2  0  0  0  0  0  0  0  0  0
   -0.9720    1.2970   -0.6540 C   0  0  0  0  0  0  0  0  0  0  0  0
   -2.9800    0.3950    0.5450 C   0  0  0  0  0  0  0  0  0  0  0  0
   -3.9740    1.3540    0.0070 C   0  0  1  0  0  0  0  0  0  0  0  0
   -3.3710    2.5710   -0.2460 O   0  0  0  0  0  0  0  0  0  0  0  0
   -4.6210    0.8930   -1.2790 C   0  0  0  0  0  0  0  0  0  0  0  0
   -4.9700   -0.4790   -1.2350 O   0  0  0  0  0  0  0  0  0  0  0  0
   -5.8610   -0.8630   -0.2390 C   0  0  0  0  0  0  0  0  0  0  0  0
   -6.2370   -2.0550   -0.0790 O   0  0  0  0  0  0  0  0  0  0  0  0
   -6.4540    0.4630    0.8210 S   0  0  0  0  0  0  0  0  0  0  0  0
   -5.0280    1.5870    1.0700 C   0  0  0  0  0  0  0  0  0  0  0  0
  1  2  1  0
  2  3  1  0
  3  4  1  0
  4  5  1  6
  4  6  1  0
  4  9  1  0
  6  7  1  0
  7  8  1  0
  8  9  1  0
  9 10  1  1
 10 11  1  0
 11 12  2  0
 11 13  1  0
 13 14  1  1
 13 15  1  0
 15 16  1  1
 15 17  1  0
 17 18  1  0
 18 19  1  6
 18 20  1  0
 18 25  1  0
 20 21  1  0
 21 22  1  0
 22 23  2  0
 22 24  1  0
 24 25  1  0
M  END
