
     RDKit          3D

 25 26  0  0  0  0  0  0  0  0999 V2000
    7.2850    0.8600    0.9720 C   0  0  0  0  0  0  0  0  0  0  0  0
    5.8910    1.4800    1.0480 C   0  0  0  0  0  0  0  0  0  0  0  0
    5.0080    0.5740    0.4090 O   0  0  0  0  0  0  0  0  0  0  0  0
    3.6550    0.8760    0.3240 C   0  0  0  0  0  0  0  0  0  0  0  0
    3.2750    1.9740    0.8360 O   0  0  0  0  0  0  0  0  0  0  0  0
    2.7330   -0.0020   -0.3070 N   0  0  0  0  0  0  0  0  0  0  0  0
    1.3310    0.3760   -0.3610 C   0  0  2  0  0  0  0  0  0  0  0  0
    0.5850   -0.7340    0.3440 C   0  0  0  0  0  0  0  0  0  0  0  0
   -0.9420   -0.6250    0.1710 C   0  0  1  0  0  0  0  0  0  0  0  0
   -1.4680   -1.6680    1.1060 C   0  0  1  0  0  0  0  0  0  0  0  0
   -2.9460   -1.8040    1.1620 C   0  0  0  0  0  0  0  0  0  0  0  0
   -0.8950   -3.0400    0.8980 C   0  0  0  0  0  0  0  0  0  0  0  0
   -1.3260    0.7320    0.6090 C   0  0  2  0  0  0  0  0  0  0  0  0
   -0.9580    0.9200    1.9330 O   0  0  0  0  0  0  0  0  0  0  0  0
   -2.7750    1.0810    0.3710 C   0  0  0  0  0  0  0  0  0  0  0  0
   -3.5370    1.4960    1.3270 C   0  0  0  0  0  0  0  0  0  0  0  0
   -4.9260    1.8070    0.9860 C   0  0  0  0  0  0  0  0  0  0  0  0
   -5.0600    1.0900   -0.6270 S   0  0  2  0  0  0  0  0  0  0  0  0
   -5.7030    2.0200   -1.6070 O   0  0  0  0  0  0  0  0  0  0  0  0
   -5.7330   -0.2470   -0.5920 O   0  0  0  0  0  0  0  0  0  0  0  0
   -3.3820    0.9870   -0.8550 O   0  0  0  0  0  0  0  0  0  0  0  0
   -1.1320   -0.9020   -1.2770 C   0  0  0  0  0  0  0  0  0  0  0  0
   -0.4910    0.1800   -2.0820 C   0  0  0  0  0  0  0  0  0  0  0  0
    0.9640    0.4020   -1.8250 C   0  0  2  0  0  0  0  0  0  0  0  0
    1.6920   -0.5350   -2.5570 O   0  0  0  0  0  0  0  0  0  0  0  0
  1  2  1  0
  2  3  1  0
  3  4  1  0
  4  5  2  0
  4  6  1  0
  7  6  1  6
  7  8  1  0
  7 24  1  0
  9  8  1  6
  9 10  1  0
  9 13  1  0
  9 22  1  0
 10 11  1  6
 10 12  1  0
 13 14  1  1
 13 15  1  0
 15 16  2  0
 15 21  1  0
 16 17  1  0
 18 17  1  1
 18 19  2  0
 18 20  2  0
 18 21  1  0
 22 23  1  0
 23 24  1  0
 24 25  1  6
M  END
