
     RDKit          3D

 25 26  0  0  0  0  0  0  0  0999 V2000
    6.0760    1.0330   -1.6210 C   0  0  0  0  0  0  0  0  0  0  0  0
    5.3790    0.6130   -0.5840 C   0  0  0  0  0  0  0  0  0  0  0  0
    5.8400    0.6160    0.6980 O   0  0  0  0  0  0  0  0  0  0  0  0
    6.3400    1.7100    1.4060 C   0  0  0  0  0  0  0  0  0  0  0  0
    3.9940    0.1030   -0.8540 C   0  0  1  0  0  0  0  0  0  0  0  0
    3.8620   -1.2020   -0.4660 O   0  0  0  0  0  0  0  0  0  0  0  0
    3.0590    1.0060   -0.0950 C   0  0  0  0  0  0  0  0  0  0  0  0
    1.7140    0.7440   -0.2410 O   0  0  0  0  0  0  0  0  0  0  0  0
    0.9870   -0.3540    0.0900 C   0  0  0  0  0  0  0  0  0  0  0  0
    1.5590   -1.3280    0.6220 O   0  0  0  0  0  0  0  0  0  0  0  0
   -0.4500   -0.3990   -0.1730 C   0  0  1  0  0  0  0  0  0  0  0  0
   -0.6930   -0.2160   -1.9710 S   0  0  0  0  0  0  0  0  0  0  0  0
   -2.2760   -0.8910   -2.4700 C   0  0  0  0  0  0  0  0  0  0  0  0
   -2.7120   -2.0460   -1.5630 C   0  0  0  0  0  0  0  0  0  0  0  0
   -2.5980   -1.5380   -0.1190 C   0  0  2  0  0  0  0  0  0  0  0  0
   -2.9630   -0.1700   -0.1670 O   0  0  0  0  0  0  0  0  0  0  0  0
   -4.0210    0.3490    0.5610 C   0  0  0  0  0  0  0  0  0  0  0  0
   -4.6620   -0.4580    1.2840 O   0  0  0  0  0  0  0  0  0  0  0  0
   -4.3840    1.7910    0.4930 C   0  0  1  0  0  0  0  0  0  0  0  0
   -5.8750    2.0050    0.2550 C   0  0  0  0  0  0  0  0  0  0  0  0
   -5.2210    2.4130    1.5300 C   0  0  0  0  0  0  0  0  0  0  0  0
   -1.1110   -1.6710    0.2410 C   0  0  2  0  0  0  0  0  0  0  0  0
   -0.9510   -1.9630    1.6880 C   0  0  0  0  0  0  0  0  0  0  0  0
   -1.5090   -3.1380    2.2550 N   0  0  0  0  0  0  0  0  0  0  0  0
   -0.3280   -1.1950    2.4500 O   0  0  0  0  0  0  0  0  0  0  0  0
  1  2  2  0
  2  3  1  0
  2  5  1  0
  3  4  1  0
  5  6  1  1
  5  7  1  0
  7  8  1  0
  8  9  1  0
  9 10  2  0
 11  9  1  6
 11 12  1  0
 11 22  1  0
 12 13  1  0
 13 14  1  0
 14 15  1  0
 15 16  1  6
 15 22  1  0
 16 17  1  0
 17 18  2  0
 19 17  1  1
 19 20  1  0
 19 21  1  0
 20 21  1  0
 22 23  1  1
 23 24  1  0
 23 25  2  0
M  END
