
     RDKit          3D

 25 26  0  0  0  0  0  0  0  0999 V2000
    2.0650   -0.2890    1.4200 O   0  0  0  0  0  0  0  0  0  0  0  0
    2.0760   -1.2630    0.6440 C   0  0  0  0  0  0  0  0  0  0  0  0
    0.8190   -1.6820   -0.0530 C   0  0  0  0  0  0  0  0  0  0  0  0
   -0.2370   -0.8070    0.3430 N   0  0  0  0  0  0  0  0  0  0  0  0
   -1.5330   -1.0180   -0.2000 C   0  0  0  0  0  0  0  0  0  0  0  0
   -1.7110   -1.9650   -1.0070 O   0  0  0  0  0  0  0  0  0  0  0  0
   -2.6950   -0.1640    0.1480 C   0  0  2  0  0  0  0  0  0  0  0  0
   -2.8300   -0.3310    1.6720 C   0  0  0  0  0  0  0  0  0  0  0  0
   -3.5970   -1.5900    2.0020 C   0  0  0  0  0  0  0  0  0  0  0  0
   -4.8940   -1.3560    1.4990 O   0  0  0  0  0  0  0  0  0  0  0  0
   -4.8170   -1.5290    0.1440 C   0  0  0  0  0  0  0  0  0  0  0  0
   -3.9070   -0.6130   -0.5820 C   0  0  2  0  0  0  0  0  0  0  0  0
   -3.5660   -1.2330   -1.7880 O   0  0  0  0  0  0  0  0  0  0  0  0
   -4.7570    0.5960   -1.0370 C   0  0  0  0  0  0  0  0  0  0  0  0
   -3.8780    1.2760   -2.0660 C   0  0  1  0  0  0  0  0  0  0  0  0
   -4.5880    2.2180   -2.8040 O   0  0  0  0  0  0  0  0  0  0  0  0
   -2.7510    1.9120   -1.3140 C   0  0  0  0  0  0  0  0  0  0  0  0
   -2.3510    1.2860   -0.0470 C   0  0  0  0  0  0  0  0  0  0  0  0
    3.2440   -1.9560    0.4260 O   0  0  0  0  0  0  0  0  0  0  0  0
    4.4490   -1.6160    1.0430 C   0  0  0  0  0  0  0  0  0  0  0  0
    4.9320   -0.2240    0.7090 C   0  0  0  0  0  0  0  0  0  0  0  0
    6.1320   -0.0470    1.3950 O   0  0  0  0  0  0  0  0  0  0  0  0
    6.7090    1.1830    1.1980 C   0  0  0  0  0  0  0  0  0  0  0  0
    7.0540    1.5060   -0.2180 C   0  0  0  0  0  0  0  0  0  0  0  0
    7.7990    3.1680   -0.2380 S   0  0  0  0  0  0  0  0  0  0  0  0
  1  2  2  0
  2  3  1  0
  2 19  1  0
  3  4  1  0
  4  5  1  0
  5  6  2  0
  7  5  1  6
  7  8  1  0
  7 12  1  0
  7 18  1  0
  8  9  1  0
  9 10  1  0
 10 11  1  0
 11 12  1  0
 12 13  1  6
 12 14  1  0
 14 15  1  0
 15 16  1  1
 15 17  1  0
 17 18  1  0
 19 20  1  0
 20 21  1  0
 21 22  1  0
 22 23  1  0
 23 24  1  0
 24 25  1  0
M  END
