
     RDKit          3D

 31 34  0  0  0  0  0  0  0  0999 V2000
    3.3270   -3.1570   -1.1970 N   0  0  0  0  0  0  0  0  0  0  0  0
    2.4660   -2.0920   -0.7600 C   0  0  0  0  0  0  0  0  0  0  0  0
    1.1420   -2.2260   -0.8220 N   0  0  0  0  0  0  0  0  0  0  0  0
    0.2840   -1.2410   -0.4190 C   0  0  0  0  0  0  0  0  0  0  0  0
   -1.1120   -1.4600   -0.5170 N   0  0  0  0  0  0  0  0  0  0  0  0
   -2.1370   -0.5760   -0.1560 C   0  0  0  0  0  0  0  0  0  0  0  0
   -1.8890    0.5460    0.3100 O   0  0  0  0  0  0  0  0  0  0  0  0
   -3.5620   -0.9290   -0.3100 C   0  0  0  0  0  0  0  0  0  0  0  0
   -3.8810   -2.0530   -0.7780 O   0  0  0  0  0  0  0  0  0  0  0  0
   -4.6010   -0.0590    0.0450 N   0  0  0  0  0  0  0  0  0  0  0  0
   -6.0020   -0.3160   -0.0690 C   0  0  2  0  0  0  0  0  0  0  0  0
   -6.7220    0.6140   -0.9960 C   0  0  0  0  0  0  0  0  0  0  0  0
   -8.1900    0.3500   -0.9720 C   0  0  0  0  0  0  0  0  0  0  0  0
   -8.7170   -0.0090    0.3060 N   0  0  0  0  0  0  0  0  0  0  0  0
   -7.8290    0.4930    1.3670 C   0  0  2  0  0  0  0  0  0  0  0  0
   -7.5700    1.8370    1.2370 O   0  0  0  0  0  0  0  0  0  0  0  0
   -6.5920   -0.3710    1.3120 C   0  0  0  0  0  0  0  0  0  0  0  0
    0.8840   -0.1060    0.0550 C   0  0  0  0  0  0  0  0  0  0  0  0
    2.2760    0.0550    0.1300 C   0  0  0  0  0  0  0  0  0  0  0  0
    3.0960   -0.9610   -0.2880 C   0  0  0  0  0  0  0  0  0  0  0  0
    4.5510   -0.8720   -0.2430 C   0  0  0  0  0  0  0  0  0  0  0  0
    5.4470   -1.7970   -0.6210 N   0  0  0  0  0  0  0  0  0  0  0  0
    6.6710   -1.3330   -0.4220 N   0  0  0  0  0  0  0  0  0  0  0  0
    6.5370   -0.1040    0.0860 C   0  0  0  0  0  0  0  0  0  0  0  0
    7.6480    0.7670    0.4530 C   0  0  0  0  0  0  0  0  0  0  0  0
    7.3920    2.0160    0.9700 C   0  0  0  0  0  0  0  0  0  0  0  0
    8.4130    2.8690    1.3290 C   0  0  0  0  0  0  0  0  0  0  0  0
    9.7090    2.4400    1.1580 C   0  0  0  0  0  0  0  0  0  0  0  0
    9.9830    1.1910    0.6420 C   0  0  0  0  0  0  0  0  0  0  0  0
    8.9470    0.3570    0.2910 C   0  0  0  0  0  0  0  0  0  0  0  0
    5.2440    0.1510    0.1850 O   0  0  0  0  0  0  0  0  0  0  0  0
  1  2  1  0
  2  3  2  0
  2 20  1  0
  3  4  1  0
  4  5  1  0
  4 18  2  0
  5  6  1  0
  6  7  2  0
  6  8  1  0
  8  9  2  0
  8 10  1  0
 11 10  1  1
 11 12  1  0
 11 17  1  0
 12 13  1  0
 13 14  1  0
 14 15  1  0
 15 16  1  6
 15 17  1  0
 18 19  1  0
 19 20  2  0
 20 21  1  0
 21 22  2  0
 21 31  1  0
 22 23  1  0
 23 24  2  0
 24 25  1  0
 24 31  1  0
 25 26  2  0
 25 30  1  0
 26 27  1  0
 27 28  2  0
 28 29  1  0
 29 30  2  0
M  END
