
     RDKit          3D

 30 33  0  0  0  0  0  0  0  0999 V2000
   -7.4320    1.9190    2.6510 C   0  0  0  0  0  0  0  0  0  0  0  0
   -6.5410    1.1640    1.7320 C   0  0  0  0  0  0  0  0  0  0  0  0
   -6.8480    0.1800    0.8690 N   0  0  0  0  0  0  0  0  0  0  0  0
   -5.7610   -0.2600    0.2060 C   0  0  0  0  0  0  0  0  0  0  0  0
   -4.7430    0.4950    0.6930 N   0  0  0  0  0  0  0  0  0  0  0  0
   -5.1900    1.3350    1.5910 N   0  0  0  0  0  0  0  0  0  0  0  0
   -3.4170    0.2000    0.1130 C   0  0  1  0  0  0  0  0  0  0  0  0
   -2.9370   -1.0580    0.8120 C   0  0  0  0  0  0  0  0  0  0  0  0
   -3.5700    0.0400   -1.3640 C   0  0  1  0  0  0  0  0  0  0  0  0
   -2.2630   -0.0490   -2.0260 C   0  0  0  0  0  0  0  0  0  0  0  0
   -1.9270   -1.1090   -2.6630 O   0  0  0  0  0  0  0  0  0  0  0  0
   -1.3060    1.0040   -2.0140 N   0  0  0  0  0  0  0  0  0  0  0  0
   -0.0500    0.8970   -2.6700 C   0  0  0  0  0  0  0  0  0  0  0  0
    0.8120   -0.1570   -2.1130 C   0  0  0  0  0  0  0  0  0  0  0  0
    1.9580   -0.3860   -2.6670 O   0  0  0  0  0  0  0  0  0  0  0  0
    0.4400   -0.9300   -0.9880 N   0  0  0  0  0  0  0  0  0  0  0  0
    1.3470   -1.9600   -0.5010 C   0  0  0  0  0  0  0  0  0  0  0  0
    2.6480   -1.3520   -0.1040 C   0  0  0  0  0  0  0  0  0  0  0  0
    2.9020   -0.8930    1.1700 C   0  0  0  0  0  0  0  0  0  0  0  0
    4.2030   -0.4140    1.1170 C   0  0  0  0  0  0  0  0  0  0  0  0
    5.0200    0.1680    2.0730 C   0  0  0  0  0  0  0  0  0  0  0  0
    6.3060    0.5780    1.7950 C   0  0  0  0  0  0  0  0  0  0  0  0
    7.1700    1.2010    2.8310 C   0  0  0  0  0  0  0  0  0  0  0  0
    6.7590    0.3790    0.4900 C   0  0  0  0  0  0  0  0  0  0  0  0
    8.0890    0.8100    0.2290 N   0  0  0  0  0  0  0  0  0  0  0  0
    5.9580   -0.1970   -0.4670 C   0  0  0  0  0  0  0  0  0  0  0  0
    4.6780   -0.6020   -0.1770 C   0  0  0  0  0  0  0  0  0  0  0  0
    3.6940   -1.1630   -0.8350 O   0  0  0  0  0  0  0  0  0  0  0  0
   -4.3940   -1.1800   -1.7200 C   0  0  0  0  0  0  0  0  0  0  0  0
   -5.5080   -1.2430   -0.7850 N   0  0  0  0  0  0  0  0  0  0  0  0
  1  2  1  0
  2  3  1  0
  2  6  2  0
  3  4  2  0
  4  5  1  0
  4 30  1  0
  5  6  1  0
  5  7  1  0
  7  8  1  1
  7  9  1  0
  9 10  1  6
  9 29  1  0
 10 11  2  0
 10 12  1  0
 12 13  1  0
 13 14  1  0
 14 15  2  0
 14 16  1  0
 16 17  1  0
 17 18  1  0
 18 19  2  0
 18 28  1  0
 19 20  1  0
 20 21  2  0
 20 27  1  0
 21 22  1  0
 22 23  1  0
 22 24  2  0
 24 25  1  0
 24 26  1  0
 26 27  2  0
 27 28  1  0
 29 30  1  0
M  END
