
     RDKit          3D

 31 33  0  0  0  0  0  0  0  0999 V2000
   -3.6410   -1.4600   -2.5480 C   0  0  0  0  0  0  0  0  0  0  0  0
   -4.4180   -0.8870   -1.4540 C   0  0  0  0  0  0  0  0  0  0  0  0
   -4.2210   -0.4520   -0.2830 C   0  0  0  0  0  0  0  0  0  0  0  0
   -3.1520   -0.2520    0.6590 C   0  0  0  0  0  0  0  0  0  0  0  0
   -3.5570    0.2230    1.8850 C   0  0  0  0  0  0  0  0  0  0  0  0
   -4.9490    0.4900    2.1290 N   0  0  0  0  0  0  0  0  0  0  0  0
   -2.7100    0.4650    2.9530 O   0  0  0  0  0  0  0  0  0  0  0  0
   -1.3560    0.2140    2.7980 C   0  0  0  0  0  0  0  0  0  0  0  0
   -0.6180   -0.1650    3.7090 O   0  0  0  0  0  0  0  0  0  0  0  0
   -0.9060    0.4530    1.4230 C   0  0  0  0  0  0  0  0  0  0  0  0
   -1.7100   -0.4070    0.4880 C   0  0  2  0  0  0  0  0  0  0  0  0
   -1.1420   -0.2840   -0.9010 C   0  0  1  0  0  0  0  0  0  0  0  0
   -1.4470    0.9480   -1.6400 C   0  0  0  0  0  0  0  0  0  0  0  0
   -0.5780    1.9300   -0.9990 N   0  0  0  0  0  0  0  0  0  0  0  0
    0.6200    1.1820   -0.7220 C   0  0  0  0  0  0  0  0  0  0  0  0
    1.9160    1.7800   -0.5470 N   0  0  0  0  0  0  0  0  0  0  0  0
    2.0870    3.1740   -0.6490 C   0  0  0  0  0  0  0  0  0  0  0  0
    1.1190    3.9250   -0.8980 O   0  0  0  0  0  0  0  0  0  0  0  0
    3.4310    3.7690   -0.4600 C   0  0  0  0  0  0  0  0  0  0  0  0
    3.7750    5.0860   -0.5240 C   0  0  0  0  0  0  0  0  0  0  0  0
    5.1510    5.1730   -0.2810 C   0  0  0  0  0  0  0  0  0  0  0  0
    5.5630    3.8980   -0.0830 N   0  0  0  0  0  0  0  0  0  0  0  0
    4.5280    3.0610   -0.1920 N   0  0  0  0  0  0  0  0  0  0  0  0
    0.3840   -0.0990   -0.6480 C   0  0  0  0  0  0  0  0  0  0  0  0
    1.2370   -1.2610   -0.3930 C   0  0  0  0  0  0  0  0  0  0  0  0
    2.6800   -1.2800   -0.1420 C   0  0  0  0  0  0  0  0  0  0  0  0
    0.6630   -2.4560   -0.3830 N   0  0  0  0  0  0  0  0  0  0  0  0
    1.4160   -3.5970   -0.1480 N   0  0  0  0  0  0  0  0  0  0  0  0
    1.5530   -4.0790    1.1890 C   0  0  0  0  0  0  0  0  0  0  0  0
    2.3570   -5.3010    1.4580 C   0  0  0  0  0  0  0  0  0  0  0  0
    0.9750   -3.4370    2.1070 O   0  0  0  0  0  0  0  0  0  0  0  0
  1  2  1  0
  2  3  2  3
  3  4  1  0
  4  5  2  0
  4 11  1  0
  5  6  1  0
  5  7  1  0
  7  8  1  0
  8  9  2  0
  8 10  1  0
 11 10  1  1
 11 12  1  0
 12 13  1  1
 12 24  1  0
 13 14  1  0
 14 15  1  0
 15 16  1  0
 15 24  2  0
 16 17  1  0
 17 18  2  0
 17 19  1  0
 19 20  2  0
 19 23  1  0
 20 21  1  0
 21 22  2  0
 22 23  1  0
 24 25  1  0
 25 26  1  0
 25 27  2  3
 27 28  1  0
 28 29  1  0
 29 30  1  0
 29 31  2  0
M  END
