
     RDKit          3D

 29 31  0  0  0  0  0  0  0  0999 V2000
    1.4430    0.1000   -3.6260 C   0  0  0  0  0  0  0  0  0  0  0  0
    0.6660   -0.0340   -2.3750 N   0  0  0  0  0  0  0  0  0  0  0  0
   -0.6640    0.3410   -2.2320 C   0  0  0  0  0  0  0  0  0  0  0  0
   -1.3920    0.8580   -3.1720 O   0  0  0  0  0  0  0  0  0  0  0  0
   -1.2510    0.1270   -0.9190 C   0  0  0  0  0  0  0  0  0  0  0  0
   -2.2280    0.6670   -0.2950 C   0  0  0  0  0  0  0  0  0  0  0  0
   -2.6010    0.2440    1.0400 C   0  0  0  0  0  0  0  0  0  0  0  0
   -1.6930   -0.0480    2.0290 C   0  0  0  0  0  0  0  0  0  0  0  0
   -2.1660   -0.4480    3.2560 C   0  0  0  0  0  0  0  0  0  0  0  0
   -3.5150   -0.5590    3.5050 C   0  0  0  0  0  0  0  0  0  0  0  0
   -4.4100   -0.2600    2.4940 C   0  0  0  0  0  0  0  0  0  0  0  0
   -3.9780    0.1420    1.2610 C   0  0  0  0  0  0  0  0  0  0  0  0
   -4.8530    0.4420    0.2460 O   0  0  0  0  0  0  0  0  0  0  0  0
   -6.2410    0.4040    0.2740 C   0  0  0  0  0  0  0  0  0  0  0  0
   -6.7110    0.8190   -1.0930 C   0  0  0  0  0  0  0  0  0  0  0  0
   -5.9020    1.1110   -2.0200 O   0  0  0  0  0  0  0  0  0  0  0  0
   -8.0610    0.9040   -1.4170 O   0  0  0  0  0  0  0  0  0  0  0  0
   -0.2070   -1.2100   -0.2770 S   0  0  0  0  0  0  0  0  0  0  0  0
    1.2750   -0.5870   -1.1790 C   0  0  0  0  0  0  0  0  0  0  0  0
    2.4110   -0.5970   -0.8960 N   0  0  0  0  0  0  0  0  0  0  0  0
    3.6220   -0.7140   -0.3900 C   0  0  0  0  0  0  0  0  0  0  0  0
    3.9700   -1.7420    0.5130 C   0  0  0  0  0  0  0  0  0  0  0  0
    5.2320   -1.8330    1.0330 C   0  0  0  0  0  0  0  0  0  0  0  0
    6.2210   -0.9370    0.7070 C   0  0  0  0  0  0  0  0  0  0  0  0
    5.9320    0.0860   -0.1710 C   0  0  0  0  0  0  0  0  0  0  0  0
    6.9970    1.0250   -0.5010 C   0  0  0  0  0  0  0  0  0  0  0  0
    6.7830    1.9710   -1.2930 O   0  0  0  0  0  0  0  0  0  0  0  0
    8.2640    0.9030    0.0450 O   0  0  0  0  0  0  0  0  0  0  0  0
    4.6740    0.1790   -0.6910 C   0  0  0  0  0  0  0  0  0  0  0  0
  1  2  1  0
  2  3  1  0
  2 19  1  0
  3  4  2  0
  3  5  1  0
  5  6  2  3
  5 18  1  0
  6  7  1  0
  7  8  2  0
  7 12  1  0
  8  9  1  0
  9 10  2  0
 10 11  1  0
 11 12  2  0
 12 13  1  0
 13 14  1  0
 14 15  1  0
 15 16  2  0
 15 17  1  0
 18 19  1  0
 19 20  2  3
 20 21  1  0
 21 22  2  0
 21 29  1  0
 22 23  1  0
 23 24  2  0
 24 25  1  0
 25 26  1  0
 25 29  2  0
 26 27  2  0
 26 28  1  0
M  END
