
     RDKit          3D

 25 25  0  0  0  0  0  0  0  0999 V2000
    1.5500    5.0960   -1.5280 C   0  0  0  0  0  0  0  0  0  0  0  0
    0.3840    4.2380   -1.0440 C   0  0  0  0  0  0  0  0  0  0  0  0
    0.9160    3.0000   -0.4050 C   0  0  0  0  0  0  0  0  0  0  0  0
   -0.2870    2.1430    0.0550 C   0  0  2  0  0  0  0  0  0  0  0  0
    0.3140    0.9040    0.7430 C   0  0  0  0  0  0  0  0  0  0  0  0
    1.0680    0.1710   -0.1840 N   0  0  0  0  0  0  0  0  0  0  0  0
    1.8910   -0.9900    0.3140 C   0  0  0  0  0  0  0  0  0  0  0  0
    1.9100   -1.1400    1.5090 O   0  0  0  0  0  0  0  0  0  0  0  0
    2.4390   -1.6020   -0.8250 N   0  0  0  0  0  0  0  0  0  0  0  0
    3.5850   -2.5450    0.0600 C   0  0  0  0  0  0  0  0  0  0  0  0
    3.6120   -2.3690    1.2200 O   0  0  0  0  0  0  0  0  0  0  0  0
    4.3020   -3.3610   -0.7170 O   0  0  0  0  0  0  0  0  0  0  0  0
    5.3540   -4.1860   -0.1570 C   0  0  0  0  0  0  0  0  0  0  0  0
    6.4560   -3.2720    0.3620 C   0  0  0  0  0  0  0  0  0  0  0  0
   -1.0770    1.8480   -1.0550 N   0  0  0  0  0  0  0  0  0  0  0  0
   -2.0700    0.8860   -0.9910 C   0  0  0  0  0  0  0  0  0  0  0  0
   -3.2140    1.2930   -0.0760 C   0  0  0  0  0  0  0  0  0  0  0  0
   -4.2680    0.1910   -0.2510 C   0  0  0  0  0  0  0  0  0  0  0  0
   -3.4510   -1.4080    0.2020 P   0  0  0  0  0  0  0  0  0  0  0  0
   -4.3410   -2.7510   -0.4600 O   0  0  0  0  0  0  0  0  0  0  0  0
   -5.5140   -2.8910    0.2280 C   0  0  0  0  0  0  0  0  0  0  0  0
   -5.6970   -2.1580    1.3990 O   0  0  0  0  0  0  0  0  0  0  0  0
   -4.7870   -2.0130    2.4180 C   0  0  0  0  0  0  0  0  0  0  0  0
   -4.9570   -2.2690    3.6210 O   0  0  0  0  0  0  0  0  0  0  0  0
   -3.5200   -1.5100    1.9910 O   0  0  0  0  0  0  0  0  0  0  0  0
  1  2  1  0
  2  3  1  0
  4  3  1  6
  4  5  1  0
  4 15  1  0
  5  6  1  0
  6  7  1  0
  7  8  2  0
  7  9  1  0
  9 10  1  0
 10 11  2  0
 10 12  1  0
 12 13  1  0
 13 14  1  0
 15 16  1  0
 16 17  1  0
 17 18  1  0
 18 19  1  0
 19 20  1  0
 19 25  1  0
 20 21  1  0
 21 22  1  0
 22 23  1  0
 23 24  2  0
 23 25  1  0
M  END
