
     RDKit          3D

 14 13  0  0  0  0  0  0  0  0999 V2000
    4.5620    0.6790   -0.6490 C   0  0  0  0  0  0  0  0  0  0  0  0
    3.8260    1.5580    0.0720 O   0  0  0  0  0  0  0  0  0  0  0  0
    2.6500    1.1680    0.4810 O   0  0  0  0  0  0  0  0  0  0  0  0
    1.8170    0.2600   -0.1390 C   0  0  0  0  0  0  0  0  0  0  0  0
    2.2260   -0.2470   -1.2080 O   0  0  0  0  0  0  0  0  0  0  0  0
    0.5520   -0.1260    0.3490 N   0  0  0  0  0  0  0  0  0  0  0  0
   -0.3050   -1.0960   -0.3420 C   0  0  0  0  0  0  0  0  0  0  0  0
   -1.8670   -1.3210    0.6260 P   0  0  0  0  0  0  0  0  0  0  0  0
   -3.2190   -1.0350   -0.4600 O   0  0  0  0  0  0  0  0  0  0  0  0
   -4.4160   -0.4750   -0.0220 C   0  0  0  0  0  0  0  0  0  0  0  0
   -4.5110   -0.1720    1.1850 O   0  0  0  0  0  0  0  0  0  0  0  0
   -5.4720   -0.2560   -0.8880 O   0  0  0  0  0  0  0  0  0  0  0  0
   -1.9760    0.2140    2.2190 P   0  0  0  0  0  0  0  0  0  0  0  0
   -2.1720    1.6980    1.7450 O   0  0  0  0  0  0  0  0  0  0  0  0
  1  2  1  0
  2  3  1  0
  3  4  1  0
  4  5  2  0
  4  6  1  0
  6  7  1  0
  7  8  1  0
  8  9  1  0
  8 13  1  0
  9 10  1  0
 10 11  2  0
 10 12  1  0
 13 14  2  0
M  END
