
     RDKit          3D

 13 12  0  0  0  0  0  0  0  0999 V2000
   -3.0750    1.8710   -0.3920 C   0  0  0  0  0  0  0  0  0  0  0  0
   -2.7690    1.5570    0.9250 O   0  0  0  0  0  0  0  0  0  0  0  0
   -1.8260    0.0770    0.8700 P   0  0  0  0  0  0  0  0  0  0  0  0
   -2.7460   -1.1180    0.0460 O   0  0  0  0  0  0  0  0  0  0  0  0
   -1.8820   -2.6230    0.1260 P   0  0  0  0  0  0  0  0  0  0  0  0
   -2.1650   -3.5990    1.3080 O   0  0  0  0  0  0  0  0  0  0  0  0
   -0.3330    0.4650    0.0320 O   0  0  0  0  0  0  0  0  0  0  0  0
    0.8370   -0.1300    0.4650 C   0  0  0  0  0  0  0  0  0  0  0  0
    0.7710   -0.9190    1.4380 O   0  0  0  0  0  0  0  0  0  0  0  0
    2.1340    0.1790   -0.2290 C   0  0  0  0  0  0  0  0  0  0  0  0
    3.2520   -0.5620    0.3940 C   0  0  0  0  0  0  0  0  0  0  0  0
    3.0760   -1.3280    1.3660 O   0  0  0  0  0  0  0  0  0  0  0  0
    4.5230   -0.3960   -0.1200 O   0  0  0  0  0  0  0  0  0  0  0  0
  1  2  1  0
  2  3  1  0
  3  4  1  0
  3  7  1  0
  4  5  1  0
  5  6  2  0
  7  8  1  0
  8  9  2  0
  8 10  1  0
 10 11  1  0
 11 12  2  0
 11 13  1  0
M  END
