
     RDKit          3D

 31 33  0  0  0  0  0  0  0  0999 V2000
    1.8960   -0.7350   -3.0980 C   0  0  0  0  0  0  0  0  0  0  0  0
    1.3910    0.0800   -1.9540 C   0  0  0  0  0  0  0  0  0  0  0  0
    2.1530   -0.0780   -0.8010 O   0  0  0  0  0  0  0  0  0  0  0  0
    1.5830    0.8460    0.5230 P   0  0  0  0  0  0  0  0  0  0  0  0
    2.0970    2.4900    0.4820 O   0  0  0  0  0  0  0  0  0  0  0  0
   -0.2430    0.6770    0.7840 C   0  0  1  0  0  0  0  0  0  0  0  0
   -0.7510   -0.6040    0.3260 N   0  0  0  0  0  0  0  0  0  0  0  0
   -0.2400   -1.7830    0.7330 N   0  0  0  0  0  0  0  0  0  0  0  0
    0.4360   -3.0810    0.5550 S   0  0  0  0  0  0  0  0  0  0  0  0
   -0.0460   -4.4980    1.6740 C   0  0  0  0  0  0  0  0  0  0  0  0
   -0.8640   -4.1730    2.4630 O   0  0  0  0  0  0  0  0  0  0  0  0
   -0.7630   -3.6490   -0.3210 O   0  0  0  0  0  0  0  0  0  0  0  0
   -0.5880   -3.2750   -1.6480 C   0  0  0  0  0  0  0  0  0  0  0  0
    0.8380   -3.7200   -1.8430 C   0  0  0  0  0  0  0  0  0  0  0  0
    1.4890   -4.2420   -3.3980 Cl  0  0  0  0  0  0  0  0  0  0  0  0
    1.4940   -3.6550   -0.6890 C   0  0  0  0  0  0  0  0  0  0  0  0
    3.2030   -4.1400   -0.6350 Cl  0  0  0  0  0  0  0  0  0  0  0  0
   -0.6930    0.9360    2.1360 C   0  0  0  0  0  0  0  0  0  0  0  0
   -0.5420    0.3760    3.2630 N   0  0  0  0  0  0  0  0  0  0  0  0
    0.0560   -0.6870    3.8650 C   0  0  0  0  0  0  0  0  0  0  0  0
    1.5520   -0.8390    3.8130 C   0  0  0  0  0  0  0  0  0  0  0  0
    2.1690    0.2560    4.4020 O   0  0  0  0  0  0  0  0  0  0  0  0
   -1.5170    2.1320    2.0900 N   0  0  0  0  0  0  0  0  0  0  0  0
   -1.6290    2.5840    0.9010 C   0  0  0  0  0  0  0  0  0  0  0  0
   -2.2350    3.6380    0.1410 N   0  0  0  0  0  0  0  0  0  0  0  0
   -1.8520    3.4080   -1.2170 C   0  0  2  0  0  0  0  0  0  0  0  0
   -0.9510    4.6000   -1.5990 C   0  0  0  0  0  0  0  0  0  0  0  0
   -3.0020    3.3150   -2.1430 C   0  0  0  0  0  0  0  0  0  0  0  0
   -4.1640    3.6460   -1.7720 N   0  0  0  0  0  0  0  0  0  0  0  0
   -1.0250    2.2660   -1.2000 N   0  0  0  0  0  0  0  0  0  0  0  0
   -0.8850    1.7710   -0.0280 C   0  0  0  0  0  0  0  0  0  0  0  0
  1  2  1  0
  2  3  1  0
  3  4  1  0
  4  5  1  0
  4  6  1  0
  6  7  1  6
  6 18  1  0
  6 31  1  0
  7  8  1  0
  8  9  2  3
  9 10  1  0
  9 12  1  0
  9 16  1  0
 10 11  2  0
 12 13  1  0
 13 14  1  0
 14 15  1  0
 14 16  2  0
 16 17  1  0
 18 19  2  3
 18 23  1  0
 19 20  1  0
 20 21  1  0
 21 22  1  0
 23 24  2  0
 24 25  1  0
 24 31  1  0
 25 26  1  0
 26 27  1  6
 26 28  1  0
 26 30  1  0
 28 29  2  0
 30 31  2  0
M  END
