
     RDKit          3D

 30 33  0  0  0  0  0  0  0  0999 V2000
   -2.9340    2.0300    1.6880 C   0  0  0  0  0  0  0  0  0  0  0  0
   -2.1500    1.8130    0.6740 C   0  0  0  0  0  0  0  0  0  0  0  0
   -0.8870    2.4220    0.4920 O   0  0  0  0  0  0  0  0  0  0  0  0
    0.1360    1.7860   -0.2200 C   0  0  0  0  0  0  0  0  0  0  0  0
   -0.0600    0.5800   -0.7450 C   0  0  0  0  0  0  0  0  0  0  0  0
    0.9500   -0.0760   -1.4630 N   0  0  0  0  0  0  0  0  0  0  0  0
    2.2340   -0.3800   -0.9310 C   0  0  0  0  0  0  0  0  0  0  0  0
    3.3380   -0.4930   -1.6590 C   0  0  0  0  0  0  0  0  0  0  0  0
    4.5010   -0.7970   -0.8780 C   0  0  0  0  0  0  0  0  0  0  0  0
    5.7140   -0.8230   -0.5330 C   0  0  0  0  0  0  0  0  0  0  0  0
    6.0520   -1.5030    0.6780 C   0  0  0  0  0  0  0  0  0  0  0  0
    7.7120   -1.6110    1.3160 Cl  0  0  0  0  0  0  0  0  0  0  0  0
    5.0440   -2.0670    1.3290 C   0  0  0  0  0  0  0  0  0  0  0  0
    5.1520   -2.7640    2.5620 O   0  0  0  0  0  0  0  0  0  0  0  0
    6.4630   -2.3550    3.6350 Cl  0  0  0  0  0  0  0  0  0  0  0  0
    3.6600   -1.8380    0.4200 S   0  0  1  0  0  0  0  0  0  0  0  0
    2.4620   -0.6390    0.5070 N   0  0  0  0  0  0  0  0  0  0  0  0
    1.8550   -0.0580    1.5800 N   0  0  0  0  0  0  0  0  0  0  0  0
   -1.3570   -0.0510   -0.5330 C   0  0  0  0  0  0  0  0  0  0  0  0
   -1.7420   -1.2740   -0.4650 N   0  0  0  0  0  0  0  0  0  0  0  0
   -3.1580   -1.3200   -0.2280 C   0  0  0  0  0  0  0  0  0  0  0  0
   -3.8580   -2.3780   -0.1110 N   0  0  0  0  0  0  0  0  0  0  0  0
   -3.2330   -3.6430   -0.2160 C   0  0  0  0  0  0  0  0  0  0  0  0
   -3.9270   -4.6730   -0.0640 O   0  0  0  0  0  0  0  0  0  0  0  0
   -3.6510    0.0340   -0.1450 N   0  0  0  0  0  0  0  0  0  0  0  0
   -2.5480    0.8770   -0.3950 C   0  0  1  0  0  0  0  0  0  0  0  0
   -2.7190    1.6060   -1.7190 C   0  0  0  0  0  0  0  0  0  0  0  0
   -4.0160    2.9000   -1.5710 P   0  0  0  0  0  0  0  0  0  0  0  0
   -5.6170    2.2380   -1.4740 O   0  0  0  0  0  0  0  0  0  0  0  0
   -3.7640    3.9200   -0.1900 O   0  0  0  0  0  0  0  0  0  0  0  0
  1  2  2  0
  2  3  1  0
  2 26  1  0
  3  4  1  0
  4  5  2  0
  5  6  1  0
  5 19  1  0
  6  7  1  0
  7  8  2  0
  7 17  1  0
  8  9  1  0
  9 10  2  0
  9 16  1  0
 10 11  1  0
 11 12  1  0
 11 13  2  0
 13 14  1  0
 13 16  1  0
 14 15  1  0
 16 17  1  1
 17 18  1  0
 19 20  2  0
 19 26  1  0
 20 21  1  0
 21 22  2  3
 21 25  1  0
 22 23  1  0
 23 24  2  0
 25 26  1  0
 26 27  1  6
 27 28  1  0
 28 29  1  0
 28 30  1  0
M  END
