
     RDKit          3D

 31 32  0  0  0  0  0  0  0  0999 V2000
   -2.7250    3.2450   -2.0410 C   0  0  0  0  0  0  0  0  0  0  0  0
   -1.9780    2.2190   -1.6850 C   0  0  0  0  0  0  0  0  0  0  0  0
   -0.9040    2.2940   -0.7700 N   0  0  0  0  0  0  0  0  0  0  0  0
    0.3890    1.7620   -1.1180 C   0  0  0  0  0  0  0  0  0  0  0  0
    1.0270    2.3710   -2.0540 C   0  0  0  0  0  0  0  0  0  0  0  0
    0.8780    0.6570   -0.3610 C   0  0  0  0  0  0  0  0  0  0  0  0
    0.2390    0.0060    0.5950 C   0  0  0  0  0  0  0  0  0  0  0  0
   -1.0390    0.3470    0.9820 N   0  0  0  0  0  0  0  0  0  0  0  0
   -2.1910   -0.0470    0.7160 C   0  0  0  0  0  0  0  0  0  0  0  0
   -2.4300   -1.1050   -0.2020 N   0  0  0  0  0  0  0  0  0  0  0  0
   -1.5560   -2.2170   -0.2670 C   0  0  0  0  0  0  0  0  0  0  0  0
   -1.6140   -3.1920    0.6210 C   0  0  0  0  0  0  0  0  0  0  0  0
   -3.5660   -1.0280   -1.0530 N   0  0  0  0  0  0  0  0  0  0  0  0
   -4.5630   -0.4020   -0.5630 C   0  0  0  0  0  0  0  0  0  0  0  0
   -4.6300   -0.0310    0.6710 C   0  0  0  0  0  0  0  0  0  0  0  0
   -3.4370    0.4980    1.3720 C   0  0  1  0  0  0  0  0  0  0  0  0
   -3.4630   -0.1390    2.7590 C   0  0  0  0  0  0  0  0  0  0  0  0
   -3.4930    2.2430    1.4500 Cl  0  0  0  0  0  0  0  0  0  0  0  0
    1.0060   -1.1190    1.2410 C   0  0  0  0  0  0  0  0  0  0  0  0
    2.2550   -0.7270    1.7110 O   0  0  0  0  0  0  0  0  0  0  0  0
    3.1660   -0.6090    0.7940 N   0  0  0  0  0  0  0  0  0  0  0  0
    4.6490   -1.4400    0.7980 P   0  0  0  0  0  0  0  0  0  0  0  0
    5.5760   -1.0710    2.2330 O   0  0  0  0  0  0  0  0  0  0  0  0
    4.5990   -3.1450    0.5050 O   0  0  0  0  0  0  0  0  0  0  0  0
    2.6190    0.0880   -0.6310 S   0  0  0  0  0  0  0  0  0  0  0  0
    2.1860   -1.1000   -1.1020 O   0  0  0  0  0  0  0  0  0  0  0  0
    3.0000    1.5140    0.1180 N   0  0  0  0  0  0  0  0  0  0  0  0
    4.0260    1.9870    0.3860 O   0  0  0  0  0  0  0  0  0  0  0  0
    3.3760    0.5210   -1.8490 N   0  0  0  0  0  0  0  0  0  0  0  0
    4.1960    0.1500   -2.7130 C   0  0  0  0  0  0  0  0  0  0  0  0
    4.8140   -1.5050   -2.6100 Cl  0  0  0  0  0  0  0  0  0  0  0  0
  1  2  2  0
  2  3  1  0
  3  4  1  0
  4  5  2  0
  4  6  1  0
  6  7  2  0
  6 25  1  0
  7  8  1  0
  7 19  1  0
  8  9  2  3
  9 10  1  0
  9 16  1  0
 10 11  1  0
 10 13  1  0
 11 12  2  0
 13 14  2  0
 14 15  2  0
 15 16  1  0
 16 17  1  1
 16 18  1  0
 19 20  1  0
 20 21  1  0
 21 22  1  0
 21 25  1  0
 22 23  1  0
 22 24  1  0
 25 26  2  0
 25 27  1  0
 25 29  1  0
 27 28  2  0
 29 30  2  3
 30 31  1  0
M  END
