
     RDKit          3D

 10 10  0  0  0  0  0  0  0  0999 V2000
    2.4230    0.3040   -0.4160 C   0  0  0  0  0  0  0  0  0  0  0  0
    1.3360   -0.1230    0.5810 C   0  0  2  0  0  0  0  0  0  0  0  0
    0.8860   -1.3650    0.3650 O   0  0  0  0  0  0  0  0  0  0  0  0
   -0.3050   -1.5880   -0.2040 C   0  0  0  0  0  0  0  0  0  0  0  0
   -1.3930   -0.6070    0.0660 C   0  0  1  0  0  0  0  0  0  0  0  0
   -2.6250   -1.1750    0.3290 O   0  0  0  0  0  0  0  0  0  0  0  0
   -0.9690    0.3670    1.1730 C   0  0  2  0  0  0  0  0  0  0  0  0
   -1.9020    1.3500    1.3780 O   0  0  0  0  0  0  0  0  0  0  0  0
    0.3270    0.9750    0.6190 C   0  0  2  0  0  0  0  0  0  0  0  0
   -0.0070    1.4440   -0.6660 O   0  0  0  0  0  0  0  0  0  0  0  0
  2  1  1  6
  2  3  1  0
  2  9  1  0
  3  4  1  0
  4  5  1  0
  5  6  1  1
  5  7  1  0
  7  8  1  6
  7  9  1  0
  9 10  1  6
M  END
