
     RDKit          3D

 25 26  0  0  0  0  0  0  0  0999 V2000
    3.2320   -0.0090   -1.9650 C   0  0  0  0  0  0  0  0  0  0  0  0
    3.2360   -0.2980   -0.4730 C   0  0  2  0  0  0  0  0  0  0  0  0
    2.5780   -1.5000   -0.2760 O   0  0  0  0  0  0  0  0  0  0  0  0
    2.7200    0.8450    0.3260 C   0  0  0  0  0  0  0  0  0  0  0  0
    1.3470    1.2120    0.1040 N   0  0  0  0  0  0  0  0  0  0  0  0
    0.2080    0.4230    0.3160 C   0  0  0  0  0  0  0  0  0  0  0  0
    0.3640   -0.7260    0.7480 O   0  0  0  0  0  0  0  0  0  0  0  0
   -1.0860    0.8330    0.0770 O   0  0  0  0  0  0  0  0  0  0  0  0
   -2.2340    0.0220    0.2910 C   0  0  1  0  0  0  0  0  0  0  0  0
   -3.4660    0.8260   -0.0570 C   0  0  0  0  0  0  0  0  0  0  0  0
   -4.2480    0.6860   -1.0950 C   0  0  0  0  0  0  0  0  0  0  0  0
   -5.3740    1.6800   -1.0840 C   0  0  0  0  0  0  0  0  0  0  0  0
   -5.3350    2.1360    0.3580 C   0  0  0  0  0  0  0  0  0  0  0  0
   -3.9840    1.8840    0.6920 O   0  0  0  0  0  0  0  0  0  0  0  0
   -2.2480   -1.2600   -0.4470 C   0  0  0  0  0  0  0  0  0  0  0  0
   -3.3510   -2.1590   -0.0130 C   0  0  0  0  0  0  0  0  0  0  0  0
   -3.4350   -2.4310    1.4610 C   0  0  0  0  0  0  0  0  0  0  0  0
   -3.0570   -1.2730    2.2490 N   0  0  0  0  0  0  0  0  0  0  0  0
   -2.2210   -0.2530    1.7470 C   0  0  0  0  0  0  0  0  0  0  0  0
   -1.4970    0.3830    2.5610 O   0  0  0  0  0  0  0  0  0  0  0  0
    4.6630   -0.4870   -0.1010 C   0  0  0  0  0  0  0  0  0  0  0  0
    5.1120   -1.5710    0.3390 O   0  0  0  0  0  0  0  0  0  0  0  0
    5.5500    0.6030   -0.2490 N   0  0  0  0  0  0  0  0  0  0  0  0
    6.9720    0.4950    0.0980 C   0  0  0  0  0  0  0  0  0  0  0  0
    7.6190    1.7030   -0.1410 O   0  0  0  0  0  0  0  0  0  0  0  0
  2  1  1  6
  2  3  1  0
  2  4  1  0
  2 21  1  0
  4  5  1  0
  5  6  1  0
  6  7  2  0
  6  8  1  0
  9  8  1  6
  9 10  1  0
  9 15  1  0
  9 19  1  0
 10 11  2  0
 10 14  1  0
 11 12  1  0
 12 13  1  0
 13 14  1  0
 15 16  1  0
 16 17  1  0
 17 18  1  0
 18 19  1  0
 19 20  2  0
 21 22  2  0
 21 23  1  0
 23 24  1  0
 24 25  1  0
M  END
