
     RDKit          3D

 25 26  0  0  0  0  0  0  0  0999 V2000
   -0.7730   -0.9960    1.1510 C   0  0  0  0  0  0  0  0  0  0  0  0
   -0.8890   -1.4800   -0.2620 C   0  0  1  0  0  0  0  0  0  0  0  0
   -1.6050   -2.8340   -0.1940 C   0  0  0  0  0  0  0  0  0  0  0  0
   -2.8550   -2.7550    0.3810 O   0  0  0  0  0  0  0  0  0  0  0  0
   -1.5970   -0.5300   -1.1690 C   0  0  0  0  0  0  0  0  0  0  0  0
   -2.9240   -0.1680   -0.7810 N   0  0  0  0  0  0  0  0  0  0  0  0
   -3.4340    1.0780   -0.3410 C   0  0  0  0  0  0  0  0  0  0  0  0
   -4.7540    1.4910   -0.6520 C   0  0  0  0  0  0  0  0  0  0  0  0
   -4.9640    2.6100   -0.0920 O   0  0  0  0  0  0  0  0  0  0  0  0
   -3.9650    3.0270    0.5650 C   0  0  0  0  0  0  0  0  0  0  0  0
   -2.9080    2.0590    0.4430 C   0  0  0  0  0  0  0  0  0  0  0  0
   -1.6070    2.1540    1.0420 N   0  0  0  0  0  0  0  0  0  0  0  0
   -0.2870    2.4700    0.6540 C   0  0  0  0  0  0  0  0  0  0  0  0
    0.3500    3.2380    1.6040 O   0  0  0  0  0  0  0  0  0  0  0  0
    0.5290    2.2050   -0.4450 N   0  0  0  0  0  0  0  0  0  0  0  0
    1.5730    1.2960   -0.7830 C   0  0  0  0  0  0  0  0  0  0  0  0
    2.2760    1.5770   -1.8810 O   0  0  0  0  0  0  0  0  0  0  0  0
    2.0430    0.0880   -0.1460 C   0  0  0  0  0  0  0  0  0  0  0  0
    3.2370    0.3060    0.6690 O   0  0  0  0  0  0  0  0  0  0  0  0
    4.4050   -0.3990    0.2910 C   0  0  0  0  0  0  0  0  0  0  0  0
    5.5580   -0.0920    1.2020 C   0  0  0  0  0  0  0  0  0  0  0  0
    5.8520    1.2810    1.1690 O   0  0  0  0  0  0  0  0  0  0  0  0
    1.5930   -1.1490   -0.1800 C   0  0  0  0  0  0  0  0  0  0  0  0
    0.4630   -1.7340   -0.8810 C   0  0  2  0  0  0  0  0  0  0  0  0
    0.3880   -1.3870   -2.2300 O   0  0  0  0  0  0  0  0  0  0  0  0
  2  1  1  1
  2  3  1  0
  2  5  1  0
  2 24  1  0
  3  4  1  0
  5  6  1  0
  6  7  1  0
  7  8  2  0
  7 11  1  0
  8  9  1  0
  9 10  1  0
 10 11  2  0
 11 12  1  0
 12 13  1  0
 13 14  2  0
 13 15  1  0
 15 16  1  0
 16 17  2  0
 16 18  1  0
 18 19  1  0
 18 23  2  0
 19 20  1  0
 20 21  1  0
 21 22  1  0
 23 24  1  0
 24 25  1  6
M  END
