
     RDKit          3D

 18 19  0  0  0  0  0  0  0  0999 V2000
   -2.7460   -3.0320    0.9410 O   0  0  0  0  0  0  0  0  0  0  0  0
   -1.9870   -2.1070    0.1860 C   0  0  0  0  0  0  0  0  0  0  0  0
   -1.9600   -0.8340    0.9750 C   0  0  2  0  0  0  0  0  0  0  0  0
   -3.4060   -0.3740    1.1500 C   0  0  1  0  0  0  0  0  0  0  0  0
   -3.3760    0.6050    2.1580 O   0  0  0  0  0  0  0  0  0  0  0  0
   -3.7630    0.3250   -0.1350 C   0  0  2  0  0  0  0  0  0  0  0  0
   -4.3790   -0.5440   -1.0410 O   0  0  0  0  0  0  0  0  0  0  0  0
   -2.4740    0.8800   -0.6450 C   0  0  1  0  0  0  0  0  0  0  0  0
   -2.5390    2.2780   -0.5560 O   0  0  0  0  0  0  0  0  0  0  0  0
   -1.3650    0.3280    0.2400 C   0  0  2  0  0  0  0  0  0  0  0  0
   -0.1640    0.0480   -0.4630 N   0  0  0  0  0  0  0  0  0  0  0  0
    0.9480    0.8450    0.0440 C   0  0  0  0  0  0  0  0  0  0  0  0
    2.0980    0.8320   -0.9240 C   0  0  1  0  0  0  0  0  0  0  0  0
    3.2200    1.6510   -0.3850 C   0  0  0  0  0  0  0  0  0  0  0  0
    4.2840    0.8790    0.3160 C   0  0  0  0  0  0  0  0  0  0  0  0
    3.8510   -0.4430    0.8530 C   0  0  0  0  0  0  0  0  0  0  0  0
    3.0780   -1.2840   -0.1080 C   0  0  0  0  0  0  0  0  0  0  0  0
    2.5460   -0.5430   -1.2900 C   0  0  0  0  0  0  0  0  0  0  0  0
  1  2  1  0
  3  2  1  6
  3  4  1  0
  3 10  1  0
  4  5  1  1
  4  6  1  0
  6  7  1  6
  6  8  1  0
  8  9  1  1
  8 10  1  0
 10 11  1  6
 11 12  1  0
 13 12  1  1
 13 14  1  0
 13 18  1  0
 14 15  1  0
 15 16  1  0
 16 17  1  0
 17 18  1  0
M  CHG  1  11   1
M  END
