
     RDKit          3D

 16 18  0  0  0  0  0  0  0  0999 V2000
    6.3230   -0.0670   -0.3530 Cl  0  0  0  0  0  0  0  0  0  0  0  0
    4.6030    0.2310   -0.3270 C   0  0  0  0  0  0  0  0  0  0  0  0
    3.9600    1.3680   -0.4980 C   0  0  0  0  0  0  0  0  0  0  0  0
    2.5550    1.1890   -0.4020 N   0  0  0  0  0  0  0  0  0  0  0  0
    1.4160    1.8480   -0.4660 N   0  0  0  0  0  0  0  0  0  0  0  0
    0.3560    1.0040   -0.2680 C   0  0  0  0  0  0  0  0  0  0  0  0
   -1.0040    1.3610   -0.2310 N   0  0  0  0  0  0  0  0  0  0  0  0
   -2.0460    0.4340   -0.1250 C   0  0  0  0  0  0  0  0  0  0  0  0
   -2.0200   -0.8010   -0.7180 C   0  0  0  0  0  0  0  0  0  0  0  0
   -3.0940   -1.6800   -0.5310 C   0  0  0  0  0  0  0  0  0  0  0  0
   -4.1650   -1.3050    0.2420 C   0  0  0  0  0  0  0  0  0  0  0  0
   -4.1740   -0.0560    0.8310 C   0  0  0  0  0  0  0  0  0  0  0  0
   -3.1340    0.8230    0.6620 C   0  0  0  0  0  0  0  0  0  0  0  0
    0.9440   -0.2220   -0.0780 C   0  0  0  0  0  0  0  0  0  0  0  0
    2.3320   -0.1060   -0.1620 C   0  0  0  0  0  0  0  0  0  0  0  0
    3.5950   -0.8610   -0.0880 C   0  0  0  0  0  0  0  0  0  0  0  0
  1  2  1  0
  2  3  2  0
  2 16  1  0
  3  4  1  0
  4  5  1  0
  4 15  1  0
  5  6  2  0
  6  7  1  0
  6 14  1  0
  7  8  1  0
  8  9  2  0
  8 13  1  0
  9 10  1  0
 10 11  2  0
 11 12  1  0
 12 13  2  0
 14 15  2  0
 15 16  1  0
M  END
