
     RDKit          3D

 16 17  0  0  0  0  0  0  0  0999 V2000
    5.4790   -1.0850   -0.0810 C   0  0  0  0  0  0  0  0  0  0  0  0
    4.0480   -0.6980   -0.4230 C   0  0  0  0  0  0  0  0  0  0  0  0
    3.2480   -0.8000    0.7550 N   0  0  0  0  0  0  0  0  0  0  0  0
    1.8660   -0.4330    0.6840 C   0  0  0  0  0  0  0  0  0  0  0  0
    1.0600   -0.5330    1.8130 C   0  0  0  0  0  0  0  0  0  0  0  0
   -0.2190   -0.1910    1.7730 N   0  0  0  0  0  0  0  0  0  0  0  0
   -0.8110    0.2750    0.6290 C   0  0  0  0  0  0  0  0  0  0  0  0
   -2.2160    0.6660    0.6390 C   0  0  0  0  0  0  0  0  0  0  0  0
   -3.0980    0.3690   -0.2940 C   0  0  0  0  0  0  0  0  0  0  0  0
   -2.9110   -0.4120   -1.5480 C   0  0  0  0  0  0  0  0  0  0  0  0
   -4.3910    0.9550    0.1000 C   0  0  0  0  0  0  0  0  0  0  0  0
   -4.1420    1.6290    1.3790 C   0  0  0  0  0  0  0  0  0  0  0  0
   -5.3510    2.5210    2.3390 Cl  0  0  0  0  0  0  0  0  0  0  0  0
   -2.8780    1.4600    1.6900 C   0  0  0  0  0  0  0  0  0  0  0  0
   -0.0150    0.3730   -0.4810 C   0  0  0  0  0  0  0  0  0  0  0  0
    1.2950    0.0180   -0.4250 N   0  0  0  0  0  0  0  0  0  0  0  0
  1  2  1  0
  2  3  1  0
  3  4  1  0
  4  5  2  0
  4 16  1  0
  5  6  1  0
  6  7  2  0
  7  8  1  0
  7 15  1  0
  8  9  2  0
  8 14  1  0
  9 10  1  0
  9 11  1  0
 11 12  1  0
 12 13  1  0
 12 14  2  0
 15 16  2  0
M  END
