
     RDKit          3D

 16 18  0  0  0  0  0  0  0  0999 V2000
    4.4940   -1.8400   -0.2400 Cl  0  0  0  0  0  0  0  0  0  0  0  0
    3.6830   -0.3150   -0.0210 C   0  0  0  0  0  0  0  0  0  0  0  0
    3.9980    0.6120    0.9550 C   0  0  0  0  0  0  0  0  0  0  0  0
    3.1700    1.6670    0.8290 N   0  0  0  0  0  0  0  0  0  0  0  0
    2.3620    1.4210   -0.1870 N   0  0  0  0  0  0  0  0  0  0  0  0
    2.6410    0.2240   -0.7330 C   0  0  0  0  0  0  0  0  0  0  0  0
    1.9620   -0.4020   -1.8770 C   0  0  0  0  0  0  0  0  0  0  0  0
    1.0170   -1.4960   -1.4940 C   0  0  0  0  0  0  0  0  0  0  0  0
   -0.0080   -0.9710   -0.6240 N   0  0  0  0  0  0  0  0  0  0  0  0
    0.0360   -0.9080    0.7070 C   0  0  0  0  0  0  0  0  0  0  0  0
   -1.1430   -0.3390    1.1270 C   0  0  0  0  0  0  0  0  0  0  0  0
   -1.9180   -0.0500    0.0380 C   0  0  0  0  0  0  0  0  0  0  0  0
   -3.2580    0.5630   -0.0140 C   0  0  2  0  0  0  0  0  0  0  0  0
   -3.6810    1.4700    1.1350 C   0  0  0  0  0  0  0  0  0  0  0  0
   -4.2120    0.1020    1.0820 C   0  0  0  0  0  0  0  0  0  0  0  0
   -1.1920   -0.4530   -1.0600 C   0  0  0  0  0  0  0  0  0  0  0  0
  1  2  1  0
  2  3  2  0
  2  6  1  0
  3  4  1  0
  4  5  1  0
  5  6  2  0
  6  7  1  0
  7  8  1  0
  8  9  1  0
  9 10  1  0
  9 16  1  0
 10 11  2  0
 11 12  1  0
 13 12  1  1
 12 16  2  0
 13 14  1  0
 13 15  1  0
 14 15  1  0
M  END
