
     RDKit          3D

 16 18  0  0  0  0  0  0  0  0999 V2000
   -6.3360   -1.9870   -1.3960 Cl  0  0  0  0  0  0  0  0  0  0  0  0
   -4.9910   -0.9120   -1.1180 C   0  0  0  0  0  0  0  0  0  0  0  0
   -5.1520    0.4420   -1.3790 C   0  0  0  0  0  0  0  0  0  0  0  0
   -4.1110    1.2520   -1.1600 N   0  0  0  0  0  0  0  0  0  0  0  0
   -2.9370    0.8100   -0.7050 C   0  0  0  0  0  0  0  0  0  0  0  0
   -1.7870    1.4370   -0.4220 N   0  0  0  0  0  0  0  0  0  0  0  0
   -0.8790    0.5500    0.0130 C   0  0  0  0  0  0  0  0  0  0  0  0
    0.4880    0.9010    0.4100 C   0  0  0  0  0  0  0  0  0  0  0  0
    1.2820   -0.3070    0.8570 C   0  0  0  0  0  0  0  0  0  0  0  0
    2.6800    0.1230    1.2520 C   0  0  0  0  0  0  0  0  0  0  0  0
    3.3010    0.7570    0.0090 C   0  0  2  0  0  0  0  0  0  0  0  0
    3.3800   -0.2100   -1.1740 C   0  0  0  0  0  0  0  0  0  0  0  0
    4.5980    0.3150   -0.5030 C   0  0  0  0  0  0  0  0  0  0  0  0
   -1.4580   -0.6780    0.0110 N   0  0  0  0  0  0  0  0  0  0  0  0
   -2.7120   -0.5340   -0.4250 C   0  0  0  0  0  0  0  0  0  0  0  0
   -3.7700   -1.3920   -0.6420 C   0  0  0  0  0  0  0  0  0  0  0  0
  1  2  1  0
  2  3  2  0
  2 16  1  0
  3  4  1  0
  4  5  2  0
  5  6  1  0
  5 15  1  0
  6  7  2  0
  7  8  1  0
  7 14  1  0
  8  9  1  0
  9 10  1  0
 11 10  1  1
 11 12  1  0
 11 13  1  0
 12 13  1  0
 14 15  1  0
 15 16  2  0
M  END
