
     RDKit          3D

 41 44  0  0  0  0  0  0  0  0999 V2000
    3.3870   -3.8310   -2.7690 C   0  0  0  0  0  0  0  0  0  0  0  0
    2.6460   -4.6090   -1.7330 C   0  0  0  0  0  0  0  0  0  0  0  0
    2.1770   -3.7580   -0.5700 C   0  0  2  0  0  0  0  0  0  0  0  0
    1.4600   -4.7030    0.3730 C   0  0  0  0  0  0  0  0  0  0  0  0
    0.9830   -4.0760    1.5040 O   0  0  0  0  0  0  0  0  0  0  0  0
    1.2810   -2.6980   -1.0270 N   0  0  0  0  0  0  0  0  0  0  0  0
    1.3780   -1.5500   -0.1810 C   0  0  2  0  0  0  0  0  0  0  0  0
    0.2870   -0.5410   -0.3640 C   0  0  0  0  0  0  0  0  0  0  0  0
   -1.0830   -1.1060   -0.0760 C   0  0  0  0  0  0  0  0  0  0  0  0
   -1.2200   -2.2730    0.3140 O   0  0  0  0  0  0  0  0  0  0  0  0
   -2.2030   -0.2910   -0.2560 N   0  0  0  0  0  0  0  0  0  0  0  0
   -3.5650   -0.6320   -0.0490 C   0  0  0  0  0  0  0  0  0  0  0  0
   -3.9860   -1.9280    0.1030 C   0  0  0  0  0  0  0  0  0  0  0  0
   -5.3450   -2.1840    0.3230 C   0  0  0  0  0  0  0  0  0  0  0  0
   -6.2580   -1.1640    0.3890 C   0  0  0  0  0  0  0  0  0  0  0  0
   -7.5560   -1.1740    0.5890 N   0  0  0  0  0  0  0  0  0  0  0  0
   -8.0010    0.1220    0.5700 C   0  0  0  0  0  0  0  0  0  0  0  0
   -9.4100    0.5260    0.7570 C   0  0  0  0  0  0  0  0  0  0  0  0
   -6.9670    0.9670    0.3540 C   0  0  0  0  0  0  0  0  0  0  0  0
   -6.8980    2.7290    0.2830 S   0  0  0  0  0  0  0  0  0  0  0  0
   -5.7740    3.3360   -0.8730 C   0  0  0  0  0  0  0  0  0  0  0  0
   -8.2380    3.5640    0.7380 C   0  0  0  0  0  0  0  0  0  0  0  0
   -7.8560    2.4020   -1.2410 O   0  0  0  0  0  0  0  0  0  0  0  0
   -5.8570    0.1630    0.2370 C   0  0  0  0  0  0  0  0  0  0  0  0
   -4.5260    0.3950    0.0230 C   0  0  0  0  0  0  0  0  0  0  0  0
    2.6800   -0.8810   -0.4140 C   0  0  0  0  0  0  0  0  0  0  0  0
    3.0970   -0.5640   -1.6760 C   0  0  0  0  0  0  0  0  0  0  0  0
    4.3220    0.0540   -1.8800 C   0  0  0  0  0  0  0  0  0  0  0  0
    5.1250    0.3470   -0.7830 C   0  0  0  0  0  0  0  0  0  0  0  0
    6.4370    0.9600   -1.0540 C   0  0  0  0  0  0  0  0  0  0  0  0
    4.7380    0.0450    0.4880 C   0  0  0  0  0  0  0  0  0  0  0  0
    5.5150    0.3660    1.6490 C   0  0  0  0  0  0  0  0  0  0  0  0
    5.9360    1.5530    1.9470 C   0  0  0  0  0  0  0  0  0  0  0  0
    6.9390    1.9880    3.4230 S   0  0  0  0  0  0  0  0  0  0  0  0
    7.7460    3.3880    2.5740 C   0  0  0  0  0  0  0  0  0  0  0  0
    8.9310    3.8230    2.7780 N   0  0  0  0  0  0  0  0  0  0  0  0
    6.7290    3.8120    1.6840 N   0  0  0  0  0  0  0  0  0  0  0  0
    6.7320    5.1960    1.1660 C   0  0  0  0  0  0  0  0  0  0  0  0
    5.7720    2.8670    1.3450 C   0  0  0  0  0  0  0  0  0  0  0  0
    4.7840    3.1050    0.5520 O   0  0  0  0  0  0  0  0  0  0  0  0
    3.4940   -0.5790    0.6510 C   0  0  0  0  0  0  0  0  0  0  0  0
  1  2  1  0
  3  2  1  6
  3  4  1  0
  3  6  1  0
  4  5  1  0
  6  7  1  0
  7  8  1  6
  7 26  1  0
  8  9  1  0
  9 10  2  0
  9 11  1  0
 11 12  1  0
 12 13  2  0
 12 25  1  0
 13 14  1  0
 14 15  2  0
 15 16  1  0
 15 24  1  0
 16 17  1  0
 17 18  1  0
 17 19  2  0
 19 20  1  0
 19 24  1  0
 20 21  1  0
 20 22  1  0
 20 23  2  0
 24 25  2  0
 26 27  2  0
 26 41  1  0
 27 28  1  0
 28 29  2  0
 29 30  1  0
 29 31  1  0
 31 32  1  0
 31 41  2  0
 32 33  2  3
 33 34  1  0
 33 39  1  0
 34 35  1  0
 35 36  2  0
 35 37  1  0
 37 38  1  0
 37 39  1  0
 39 40  2  0
M  CHG  1   6   1
M  END
