
     RDKit          3D

 41 45  0  0  0  0  0  0  0  0999 V2000
   -2.3220    3.7380    1.6130 C   0  0  0  0  0  0  0  0  0  0  0  0
   -1.7160    3.2130    0.4680 O   0  0  0  0  0  0  0  0  0  0  0  0
   -0.3210    3.4860    0.4390 C   0  0  2  0  0  0  0  0  0  0  0  0
    0.3730    3.0600    1.7010 C   0  0  0  0  0  0  0  0  0  0  0  0
   -0.1210    4.9300    0.1610 C   0  0  0  0  0  0  0  0  0  0  0  0
    1.0780    5.5440    0.3700 C   0  0  0  0  0  0  0  0  0  0  0  0
    1.1530    6.8870    0.1170 C   0  0  0  0  0  0  0  0  0  0  0  0
    0.0700    7.6340   -0.3360 C   0  0  0  0  0  0  0  0  0  0  0  0
    0.2330    9.3870   -0.6340 S   0  0  0  0  0  0  0  0  0  0  0  0
   -1.1460    7.0160   -0.5510 C   0  0  0  0  0  0  0  0  0  0  0  0
   -1.2200    5.6610   -0.2960 C   0  0  0  0  0  0  0  0  0  0  0  0
    0.2530    2.5940   -0.6580 C   0  0  2  0  0  0  0  0  0  0  0  0
   -0.3570    3.1730   -1.9030 N   0  0  0  0  0  0  0  0  0  0  0  0
   -0.4550    1.2710   -0.5500 C   0  0  0  0  0  0  0  0  0  0  0  0
   -2.0670    1.0870    0.1960 S   0  0  0  0  0  0  0  0  0  0  0  0
   -2.2730   -0.6250   -0.2430 C   0  0  0  0  0  0  0  0  0  0  0  0
   -3.4900   -1.4070    0.0460 C   0  0  0  0  0  0  0  0  0  0  0  0
   -4.3900   -0.7510    0.6430 O   0  0  0  0  0  0  0  0  0  0  0  0
   -3.6910   -2.7410   -0.2880 N   0  0  0  0  0  0  0  0  0  0  0  0
   -4.8520   -3.5210   -0.0620 C   0  0  0  0  0  0  0  0  0  0  0  0
   -5.9140   -3.0410    0.6670 C   0  0  0  0  0  0  0  0  0  0  0  0
   -7.0900   -3.8180    0.8060 C   0  0  0  0  0  0  0  0  0  0  0  0
   -7.1860   -5.0570    0.2170 C   0  0  0  0  0  0  0  0  0  0  0  0
   -8.4470   -5.8340    0.3690 C   0  0  0  0  0  0  0  0  0  0  0  0
   -6.0980   -5.4930   -0.4970 C   0  0  0  0  0  0  0  0  0  0  0  0
   -4.9420   -4.7660   -0.6520 C   0  0  0  0  0  0  0  0  0  0  0  0
   -1.1600   -0.9200   -0.8850 C   0  0  0  0  0  0  0  0  0  0  0  0
   -0.1930    0.0370   -1.0620 C   0  0  0  0  0  0  0  0  0  0  0  0
    1.1590   -0.3040   -1.7200 C   0  0  0  0  0  0  0  0  0  0  0  0
    2.0290   -0.7860   -0.6240 C   0  0  0  0  0  0  0  0  0  0  0  0
    1.6590   -0.7540    0.5460 O   0  0  0  0  0  0  0  0  0  0  0  0
    3.3390   -1.3230   -0.9370 N   0  0  0  0  0  0  0  0  0  0  0  0
    4.1430   -1.8940    0.0880 C   0  0  0  0  0  0  0  0  0  0  0  0
    3.8590   -2.0700    1.3740 N   0  0  0  0  0  0  0  0  0  0  0  0
    4.8220   -2.6630    1.9960 O   0  0  0  0  0  0  0  0  0  0  0  0
    5.8110   -2.9140    1.1400 C   0  0  0  0  0  0  0  0  0  0  0  0
    5.4140   -2.4360   -0.0840 C   0  0  0  0  0  0  0  0  0  0  0  0
    6.3000   -2.5490   -1.2520 C   0  0  0  0  0  0  0  0  0  0  0  0
    7.6580   -3.0980   -0.9730 C   0  0  0  0  0  0  0  0  0  0  0  0
    8.0690   -2.9070    0.4060 N   0  0  0  0  0  0  0  0  0  0  0  0
    7.1310   -3.5620    1.2930 C   0  0  0  0  0  0  0  0  0  0  0  0
  1  2  1  0
  2  3  1  0
  3  4  1  1
  3  5  1  0
  3 12  1  0
  5  6  2  0
  5 11  1  0
  6  7  1  0
  7  8  2  0
  8  9  1  0
  8 10  1  0
 10 11  2  0
 12 13  1  6
 12 14  1  0
 14 15  1  0
 14 28  2  0
 15 16  1  0
 16 17  1  0
 16 27  2  0
 17 18  2  0
 17 19  1  0
 19 20  1  0
 20 21  2  0
 20 26  1  0
 21 22  1  0
 22 23  2  0
 23 24  1  0
 23 25  1  0
 25 26  2  0
 27 28  1  0
 28 29  1  0
 29 30  1  0
 30 31  2  0
 30 32  1  0
 32 33  1  0
 33 34  2  0
 33 37  1  0
 34 35  1  0
 35 36  1  0
 36 37  2  0
 36 41  1  0
 37 38  1  0
 38 39  1  0
 39 40  1  0
 40 41  1  0
M  CHG  1  40   1
M  END
