
     RDKit          3D

 41 44  0  0  0  0  0  0  0  0999 V2000
   -6.8740    0.5330   -0.5460 C   0  0  0  0  0  0  0  0  0  0  0  0
   -6.9210    1.4330    0.6480 C   0  0  1  0  0  0  0  0  0  0  0  0
   -7.6350    0.7950    1.7450 N   0  0  0  0  0  0  0  0  0  0  0  0
   -5.5880    1.9600    1.0910 C   0  0  2  0  0  0  0  0  0  0  0  0
   -4.9590    2.7700   -0.0260 C   0  0  0  0  0  0  0  0  0  0  0  0
   -3.8760    3.5750    0.6460 C   0  0  0  0  0  0  0  0  0  0  0  0
   -2.8850    2.6920    1.2780 C   0  0  0  0  0  0  0  0  0  0  0  0
   -3.2610    1.3770    1.8060 C   0  0  2  0  0  0  0  0  0  0  0  0
   -2.2970    0.3020    1.3870 N   0  0  0  0  0  0  0  0  0  0  0  0
   -2.1450    0.0580   -0.0240 C   0  0  0  0  0  0  0  0  0  0  0  0
   -2.9440   -1.0160   -0.5880 C   0  0  0  0  0  0  0  0  0  0  0  0
   -3.0240   -2.3210   -0.0950 N   0  0  0  0  0  0  0  0  0  0  0  0
   -3.8410   -0.7030   -1.9460 S   0  0  0  0  0  0  0  0  0  0  0  0
   -1.6090   -0.3310    2.4240 C   0  0  0  0  0  0  0  0  0  0  0  0
   -1.9440    0.1460    3.6480 O   0  0  0  0  0  0  0  0  0  0  0  0
   -0.6470   -1.3520    2.5130 C   0  0  0  0  0  0  0  0  0  0  0  0
    0.0830   -2.1740    1.8790 C   0  0  0  0  0  0  0  0  0  0  0  0
    0.4610   -2.6620    0.6190 C   0  0  0  0  0  0  0  0  0  0  0  0
    1.3920   -3.6810    0.5830 C   0  0  0  0  0  0  0  0  0  0  0  0
    1.7970   -4.2010   -0.6930 C   0  0  0  0  0  0  0  0  0  0  0  0
    2.6440   -5.1300   -0.7930 O   0  0  0  0  0  0  0  0  0  0  0  0
    0.0570   -2.2890   -0.6150 O   0  0  0  0  0  0  0  0  0  0  0  0
    0.9550   -1.4360   -1.3190 C   0  0  0  0  0  0  0  0  0  0  0  0
    0.6480   -1.0330   -2.5770 C   0  0  0  0  0  0  0  0  0  0  0  0
    1.5070   -0.2150   -3.2390 C   0  0  0  0  0  0  0  0  0  0  0  0
    2.6850    0.2120   -2.6490 C   0  0  0  0  0  0  0  0  0  0  0  0
    3.0240   -0.1830   -1.3670 C   0  0  0  0  0  0  0  0  0  0  0  0
    4.1500    0.2680   -0.7170 N   0  0  0  0  0  0  0  0  0  0  0  0
    5.3730    0.1570   -0.9920 C   0  0  0  0  0  0  0  0  0  0  0  0
    5.8650   -0.4770   -2.0590 N   0  0  0  0  0  0  0  0  0  0  0  0
    7.1410   -0.6000   -2.4030 C   0  0  0  0  0  0  0  0  0  0  0  0
    7.3560   -1.2630   -3.4820 O   0  0  0  0  0  0  0  0  0  0  0  0
    8.2470   -0.1240   -1.7740 C   0  0  0  0  0  0  0  0  0  0  0  0
    9.5180   -0.3690   -2.3210 C   0  0  0  0  0  0  0  0  0  0  0  0
   10.6410    0.1140   -1.6920 C   0  0  0  0  0  0  0  0  0  0  0  0
   10.5980    0.8530   -0.5120 C   0  0  0  0  0  0  0  0  0  0  0  0
    9.3460    1.0810    0.0070 C   0  0  0  0  0  0  0  0  0  0  0  0
    8.1830    0.6030   -0.6080 C   0  0  0  0  0  0  0  0  0  0  0  0
    6.6180    0.8640   -0.0090 S   0  0  0  0  0  0  0  0  0  0  0  0
    2.1310   -1.0210   -0.7130 C   0  0  0  0  0  0  0  0  0  0  0  0
   -4.6360    0.8700    1.5450 C   0  0  0  0  0  0  0  0  0  0  0  0
  2  1  1  6
  2  3  1  0
  2  4  1  0
  4  5  1  6
  4 41  1  0
  5  6  1  0
  6  7  1  0
  7  8  1  0
  8  9  1  6
  8 41  1  0
  9 10  1  0
  9 14  1  0
 10 11  1  0
 11 12  1  0
 11 13  2  0
 14 15  2  0
 14 16  1  0
 16 17  2  3
 17 18  1  0
 18 19  2  3
 18 22  1  0
 19 20  1  0
 20 21  2  0
 22 23  1  0
 23 24  2  0
 23 40  1  0
 24 25  1  0
 25 26  2  0
 26 27  1  0
 27 28  1  0
 27 40  2  0
 28 29  2  3
 29 30  1  0
 29 39  1  0
 30 31  1  0
 31 32  2  0
 31 33  1  0
 33 34  2  0
 33 38  1  0
 34 35  1  0
 35 36  2  0
 36 37  1  0
 37 38  2  0
 38 39  1  0
M  CHG  1   3   1
M  END
