
     RDKit          3D

 41 44  0  0  0  0  0  0  0  0999 V2000
  -10.5150   -3.5520    1.3470 C   0  0  0  0  0  0  0  0  0  0  0  0
   -9.5400   -2.6450    1.2650 C   0  0  0  0  0  0  0  0  0  0  0  0
   -9.6750   -1.5140    0.3890 C   0  0  0  0  0  0  0  0  0  0  0  0
   -8.7780   -0.5760    0.2420 C   0  0  0  0  0  0  0  0  0  0  0  0
   -9.0610    0.5090   -0.6880 C   0  0  0  0  0  0  0  0  0  0  0  0
   -8.3520    1.5410   -0.9790 C   0  0  0  0  0  0  0  0  0  0  0  0
   -6.7750    2.0530   -0.3770 S   0  0  0  0  0  0  0  0  0  0  0  0
   -6.6580    3.7060   -1.0520 C   0  0  0  0  0  0  0  0  0  0  0  0
   -7.5810    4.0070   -1.8380 N   0  0  0  0  0  0  0  0  0  0  0  0
   -8.7670    2.8260   -2.1300 S   0  0  0  0  0  0  0  0  0  0  0  0
   -8.7780    2.3100   -3.5580 O   0  0  0  0  0  0  0  0  0  0  0  0
   -7.5210   -0.5950    0.9910 C   0  0  0  0  0  0  0  0  0  0  0  0
   -6.4260   -0.7450    0.0230 N   0  0  0  0  0  0  0  0  0  0  0  0
   -5.0910   -0.7950    0.5540 C   0  0  0  0  0  0  0  0  0  0  0  0
   -4.9700   -0.7080    1.7980 O   0  0  0  0  0  0  0  0  0  0  0  0
   -3.9340   -0.9390   -0.3000 C   0  0  0  0  0  0  0  0  0  0  0  0
   -2.7270   -0.9820    0.1710 C   0  0  0  0  0  0  0  0  0  0  0  0
   -1.5210   -1.1300   -0.6880 C   0  0  0  0  0  0  0  0  0  0  0  0
   -0.5030   -0.6790    0.0230 C   0  0  0  0  0  0  0  0  0  0  0  0
    0.9050   -0.6410   -0.4520 C   0  0  0  0  0  0  0  0  0  0  0  0
    1.1510   -1.0630   -1.6010 O   0  0  0  0  0  0  0  0  0  0  0  0
    1.9400   -0.1480    0.3500 N   0  0  0  0  0  0  0  0  0  0  0  0
    3.3190   -0.0600    0.0190 C   0  0  0  0  0  0  0  0  0  0  0  0
    3.8980   -0.6530   -1.0720 C   0  0  0  0  0  0  0  0  0  0  0  0
    5.2570   -0.5130   -1.3620 C   0  0  0  0  0  0  0  0  0  0  0  0
    6.0610    0.2490   -0.5270 C   0  0  0  0  0  0  0  0  0  0  0  0
    7.4020    0.4150   -0.7630 C   0  0  0  0  0  0  0  0  0  0  0  0
    7.9690   -0.1980   -1.9820 C   0  0  0  0  0  0  0  0  0  0  0  0
    8.2020    1.1840    0.1040 C   0  0  0  0  0  0  0  0  0  0  0  0
    9.5800    1.2430   -0.1910 N   0  0  0  0  0  0  0  0  0  0  0  0
   10.5430    2.0940    0.4140 C   0  0  0  0  0  0  0  0  0  0  0  0
   10.1560    2.9010    1.3120 O   0  0  0  0  0  0  0  0  0  0  0  0
   11.9530    2.0810    0.0500 C   0  0  0  0  0  0  0  0  0  0  0  0
   12.4530    1.3000   -0.8530 C   0  0  0  0  0  0  0  0  0  0  0  0
    7.6430    1.7770    1.1900 C   0  0  0  0  0  0  0  0  0  0  0  0
    6.3000    1.6230    1.4400 C   0  0  0  0  0  0  0  0  0  0  0  0
    5.5080    0.8650    0.5900 C   0  0  0  0  0  0  0  0  0  0  0  0
    4.1710    0.6960    0.8280 C   0  0  0  0  0  0  0  0  0  0  0  0
   -0.8990   -0.2230    1.2930 N   0  0  0  0  0  0  0  0  0  0  0  0
   -2.1670   -0.9120    1.5290 C   0  0  2  0  0  0  0  0  0  0  0  0
   -1.7970   -2.2900    2.0620 C   0  0  0  0  0  0  0  0  0  0  0  0
  1  2  2  0
  2  3  1  0
  3  4  2  3
  4  5  1  0
  4 12  1  0
  5  6  2  3
  6  7  1  0
  6 10  1  0
  7  8  1  0
  8  9  2  0
 10  9  1  6
 10 11  2  0
 12 13  1  0
 13 14  1  0
 14 15  2  0
 14 16  1  0
 16 17  2  3
 17 18  1  0
 17 40  1  0
 18 19  2  0
 19 20  1  0
 19 39  1  0
 20 21  2  0
 20 22  1  0
 22 23  1  0
 23 24  2  0
 23 38  1  0
 24 25  1  0
 25 26  2  0
 26 27  1  0
 26 37  1  0
 27 28  1  0
 27 29  2  0
 29 30  1  0
 29 35  1  0
 30 31  1  0
 31 32  2  0
 31 33  1  0
 33 34  2  0
 35 36  2  0
 36 37  1  0
 37 38  2  0
 39 40  1  0
 40 41  1  6
M  CHG  1  39   1
M  END
