
     RDKit          3D

 41 44  0  0  0  0  0  0  0  0999 V2000
   12.2250   -0.9310    1.2970 C   0  0  0  0  0  0  0  0  0  0  0  0
   10.9220   -0.8040    0.9740 C   0  0  0  0  0  0  0  0  0  0  0  0
   10.0810   -0.5210    2.0100 N   0  0  0  0  0  0  0  0  0  0  0  0
    8.7360   -0.5670    1.7950 C   0  0  0  0  0  0  0  0  0  0  0  0
    8.2750   -0.8790    0.6030 C   0  0  0  0  0  0  0  0  0  0  0  0
    6.8030   -0.9290    0.1830 C   0  0  0  0  0  0  0  0  0  0  0  0
    6.3110    0.7370    0.1690 S   0  0  0  0  0  0  0  0  0  0  0  0
    7.1170    1.6910    1.0410 O   0  0  0  0  0  0  0  0  0  0  0  0
    4.7960    1.2330   -0.3410 C   0  0  0  0  0  0  0  0  0  0  0  0
    3.5310    0.7950    0.2580 C   0  0  0  0  0  0  0  0  0  0  0  0
    2.8800   -0.3610   -0.0680 C   0  0  0  0  0  0  0  0  0  0  0  0
    1.5270   -0.5150    0.3040 C   0  0  0  0  0  0  0  0  0  0  0  0
    0.9120    0.4900    0.9780 C   0  0  0  0  0  0  0  0  0  0  0  0
   -0.5310    0.4930    0.9740 N   0  0  0  0  0  0  0  0  0  0  0  0
   -1.0580    0.5090   -0.3690 C   0  0  0  0  0  0  0  0  0  0  0  0
   -0.1820    0.4230   -1.3050 O   0  0  0  0  0  0  0  0  0  0  0  0
   -2.3910    0.6050   -0.6950 N   0  0  0  0  0  0  0  0  0  0  0  0
   -2.7640    0.5870   -2.1330 C   0  0  0  0  0  0  0  0  0  0  0  0
   -4.2570    0.6840   -2.2450 C   0  0  0  0  0  0  0  0  0  0  0  0
   -4.7750   -0.4180   -1.4790 N   0  0  2  0  0  0  0  0  0  0  0  0
   -4.7210   -1.6700   -2.1870 C   0  0  0  0  0  0  0  0  0  0  0  0
   -6.0680   -0.1790   -0.9430 C   0  0  1  0  0  0  0  0  0  0  0  0
   -6.1170   -0.9140    0.4050 C   0  0  0  0  0  0  0  0  0  0  0  0
   -6.0100    0.0700    1.5670 C   0  0  0  0  0  0  0  0  0  0  0  0
   -7.4230    0.7440    1.5510 C   0  0  2  0  0  0  0  0  0  0  0  0
   -8.2960   -0.3390    1.9530 N   0  0  0  0  0  0  0  0  0  0  0  0
   -9.5970   -0.5900    1.5070 C   0  0  0  0  0  0  0  0  0  0  0  0
  -10.4790    0.0710    0.7100 C   0  0  0  0  0  0  0  0  0  0  0  0
  -11.6300   -0.5190    0.3450 C   0  0  0  0  0  0  0  0  0  0  0  0
  -11.9190   -1.7980    0.8070 C   0  0  0  0  0  0  0  0  0  0  0  0
  -10.4310   -2.1800    1.8050 S   0  0  0  0  0  0  0  0  0  0  0  0
   -7.6710    1.2400    0.1620 C   0  0  0  0  0  0  0  0  0  0  0  0
   -6.3870    1.2680   -0.6680 C   0  0  0  0  0  0  0  0  0  0  0  0
    1.5410    1.6830    1.3460 C   0  0  0  0  0  0  0  0  0  0  0  0
    2.8510    1.8110    0.9720 C   0  0  0  0  0  0  0  0  0  0  0  0
    3.6130    2.9390    1.2640 O   0  0  0  0  0  0  0  0  0  0  0  0
    9.1190   -1.1630   -0.4570 C   0  0  0  0  0  0  0  0  0  0  0  0
    8.6730   -1.4690   -1.5830 O   0  0  0  0  0  0  0  0  0  0  0  0
   10.5150   -1.1080   -0.2630 C   0  0  0  0  0  0  0  0  0  0  0  0
   11.2180   -0.9980   -1.4030 C   0  0  0  0  0  0  0  0  0  0  0  0
   12.5730   -0.5040   -1.6160 C   0  0  0  0  0  0  0  0  0  0  0  0
  1  2  2  0
  2  3  1  0
  2 39  1  0
  3  4  1  0
  4  5  2  0
  5  6  1  0
  5 37  1  0
  7  6  1  1
  7  8  2  0
  7  9  1  0
  9 10  1  0
 10 11  2  0
 10 35  1  0
 11 12  1  0
 12 13  2  0
 13 14  1  0
 13 34  1  0
 14 15  1  0
 15 16  2  0
 15 17  1  0
 17 18  1  0
 18 19  1  0
 19 20  1  0
 20 21  1  6
 20 22  1  0
 22 23  1  1
 22 33  1  0
 23 24  1  0
 24 25  1  0
 25 26  1  6
 25 32  1  0
 26 27  1  0
 27 28  2  0
 27 31  1  0
 28 29  1  0
 29 30  2  0
 30 31  1  0
 32 33  1  0
 34 35  2  0
 35 36  1  0
 37 38  2  0
 37 39  1  0
 39 40  2  3
 40 41  1  0
M  CHG  1  20   1
M  END
