
     RDKit          3D

 12 11  0  0  0  0  0  0  0  0999 V2000
   -3.4390   -0.0170   -0.6900 C   0  0  0  0  0  0  0  0  0  0  0  0
   -2.3200   -0.7420   -0.3470 O   0  0  0  0  0  0  0  0  0  0  0  0
   -1.2490   -0.0030    0.0680 C   0  0  1  0  0  0  0  0  0  0  0  0
   -0.7930   -0.2530    1.4590 C   0  0  0  0  0  0  0  0  0  0  0  0
   -1.8550    0.0410    2.3210 O   0  0  0  0  0  0  0  0  0  0  0  0
   -0.1400   -0.1250   -0.9550 C   0  0  1  0  0  0  0  0  0  0  0  0
   -0.5620    0.3480   -2.2120 O   0  0  0  0  0  0  0  0  0  0  0  0
    0.9940    0.5590   -0.6250 O   0  0  0  0  0  0  0  0  0  0  0  0
    2.0720   -0.3200   -0.5990 C   0  0  1  0  0  0  0  0  0  0  0  0
    3.0430    0.0430   -1.5600 O   0  0  0  0  0  0  0  0  0  0  0  0
    2.7540   -0.2850    0.7510 C   0  0  0  0  0  0  0  0  0  0  0  0
    3.2010    1.0140    0.9670 O   0  0  0  0  0  0  0  0  0  0  0  0
  1  2  1  0
  2  3  1  0
  3  4  1  1
  3  6  1  0
  4  5  1  0
  6  7  1  6
  6  8  1  0
  8  9  1  0
  9 10  1  6
  9 11  1  0
 11 12  1  0
M  END
