
     RDKit          3D

 12 11  0  0  0  0  0  0  0  0999 V2000
   -3.9390    1.4810    0.0420 O   0  0  0  0  0  0  0  0  0  0  0  0
   -3.9740    0.1490   -0.3630 C   0  0  0  0  0  0  0  0  0  0  0  0
   -2.8430   -0.6230    0.2830 C   0  0  2  0  0  0  0  0  0  0  0  0
   -2.9070   -0.6070    1.6510 O   0  0  0  0  0  0  0  0  0  0  0  0
   -1.5470   -0.0700   -0.2600 C   0  0  0  0  0  0  0  0  0  0  0  0
   -0.4430   -0.8040    0.1960 O   0  0  0  0  0  0  0  0  0  0  0  0
    0.6840   -0.2070   -0.3650 C   0  0  0  0  0  0  0  0  0  0  0  0
    1.8560   -0.8190   -0.0090 O   0  0  0  0  0  0  0  0  0  0  0  0
    2.9150   -0.1570   -0.6130 C   0  0  2  0  0  0  0  0  0  0  0  0
    3.5440   -1.0380   -1.5110 O   0  0  0  0  0  0  0  0  0  0  0  0
    3.9390    0.3140    0.3960 C   0  0  0  0  0  0  0  0  0  0  0  0
    3.2990    1.1840    1.2740 O   0  0  0  0  0  0  0  0  0  0  0  0
  1  2  1  0
  2  3  1  0
  3  4  1  1
  3  5  1  0
  5  6  1  0
  6  7  1  0
  7  8  1  0
  8  9  1  0
  9 10  1  6
  9 11  1  0
 11 12  1  0
M  END
