
     RDKit          3D

 12 11  0  0  0  0  0  0  0  0999 V2000
    2.7750    1.3230    0.7820 C   0  0  0  0  0  0  0  0  0  0  0  0
    2.8380    0.4570   -0.2920 O   0  0  0  0  0  0  0  0  0  0  0  0
    1.9810   -0.6250   -0.1010 C   0  0  2  0  0  0  0  0  0  0  0  0
    2.7780   -1.7750   -0.1660 O   0  0  0  0  0  0  0  0  0  0  0  0
    1.0630   -0.6890   -1.1250 O   0  0  0  0  0  0  0  0  0  0  0  0
   -0.2200   -0.6000   -0.5690 C   0  0  2  0  0  0  0  0  0  0  0  0
   -1.0330   -1.8320   -0.9480 C   0  0  0  0  0  0  0  0  0  0  0  0
   -1.1520   -1.9380   -2.3180 O   0  0  0  0  0  0  0  0  0  0  0  0
   -0.8840    0.4800   -1.1040 O   0  0  0  0  0  0  0  0  0  0  0  0
   -1.3650    1.4030   -0.2070 C   0  0  0  0  0  0  0  0  0  0  0  0
   -2.3750    0.8080    0.7140 C   0  0  0  0  0  0  0  0  0  0  0  0
   -2.8040    1.8370    1.5890 O   0  0  0  0  0  0  0  0  0  0  0  0
  1  2  1  0
  2  3  1  0
  3  4  1  6
  3  5  1  0
  5  6  1  0
  6  7  1  6
  6  9  1  0
  7  8  1  0
  9 10  1  0
 10 11  1  0
 11 12  1  0
M  END
