
     RDKit          3D

 12 11  0  0  0  0  0  0  0  0999 V2000
   -4.0260    0.2560    0.2840 O   0  0  0  0  0  0  0  0  0  0  0  0
   -3.1330    0.8030   -0.6220 C   0  0  0  0  0  0  0  0  0  0  0  0
   -2.0000   -0.2000   -0.8340 C   0  0  0  0  0  0  0  0  0  0  0  0
   -1.3060   -0.4670    0.4960 C   0  0  1  0  0  0  0  0  0  0  0  0
   -2.1740   -0.9850    1.4320 O   0  0  0  0  0  0  0  0  0  0  0  0
   -0.2830   -1.3760    0.2300 O   0  0  0  0  0  0  0  0  0  0  0  0
    0.9790   -0.8090    0.4870 C   0  0  1  0  0  0  0  0  0  0  0  0
    1.5790   -1.5150    1.5050 O   0  0  0  0  0  0  0  0  0  0  0  0
    1.7490   -0.8650   -0.8030 C   0  0  0  0  0  0  0  0  0  0  0  0
    3.0180   -0.3450   -0.7220 O   0  0  0  0  0  0  0  0  0  0  0  0
    3.0590    0.9830   -0.3540 C   0  0  0  0  0  0  0  0  0  0  0  0
    4.3960    1.3800   -0.3110 O   0  0  0  0  0  0  0  0  0  0  0  0
  1  2  1  0
  2  3  1  0
  3  4  1  0
  4  5  1  1
  4  6  1  0
  6  7  1  0
  7  8  1  1
  7  9  1  0
  9 10  1  0
 10 11  1  0
 11 12  1  0
M  END
