
     RDKit          3D

 30 34  0  0  0  0  0  0  0  0999 V2000
   -3.1270    3.7620    1.0200 O   0  0  0  0  0  0  0  0  0  0  0  0
   -4.3000    3.5060    0.6800 C   0  0  0  0  0  0  0  0  0  0  0  0
   -5.2480    4.4900    0.6780 O   0  0  0  0  0  0  0  0  0  0  0  0
   -4.6450    2.1530    0.2870 C   0  0  0  0  0  0  0  0  0  0  0  0
   -5.9520    1.8680   -0.0930 C   0  0  0  0  0  0  0  0  0  0  0  0
   -6.2990    0.6090   -0.4640 C   0  0  0  0  0  0  0  0  0  0  0  0
   -5.3140   -0.3880   -0.4560 C   0  0  0  0  0  0  0  0  0  0  0  0
   -4.0240   -0.1140   -0.0820 C   0  0  0  0  0  0  0  0  0  0  0  0
   -2.9800   -1.1500   -0.0670 C   0  0  0  0  0  0  0  0  0  0  0  0
   -3.1990   -2.4610   -0.4130 C   0  0  0  0  0  0  0  0  0  0  0  0
   -2.2090   -3.4260   -0.3900 C   0  0  0  0  0  0  0  0  0  0  0  0
   -0.9320   -3.0460    0.0030 C   0  0  0  0  0  0  0  0  0  0  0  0
   -0.6810   -1.7400    0.3540 C   0  0  0  0  0  0  0  0  0  0  0  0
   -1.6850   -0.8150    0.3190 C   0  0  0  0  0  0  0  0  0  0  0  0
    0.6860   -1.4020    0.7570 C   0  0  0  0  0  0  0  0  0  0  0  0
    0.8340   -0.4210    1.5560 N   0  0  0  0  0  0  0  0  0  0  0  0
    2.0260    0.0610    2.0580 N   0  0  0  0  0  0  0  0  0  0  0  0
    3.0140    0.7150    1.2370 C   0  0  0  0  0  0  0  0  0  0  0  0
    3.2550    1.6940    0.6420 N   0  0  0  0  0  0  0  0  0  0  0  0
    4.3110    2.0590   -0.0350 C   0  0  0  0  0  0  0  0  0  0  0  0
    4.5810    3.2280   -0.7370 C   0  0  0  0  0  0  0  0  0  0  0  0
    5.7500    3.4320   -1.3890 C   0  0  0  0  0  0  0  0  0  0  0  0
    6.7560    2.5070   -1.4070 C   0  0  0  0  0  0  0  0  0  0  0  0
    6.5440    1.3200   -0.7240 C   0  0  0  0  0  0  0  0  0  0  0  0
    5.3470    1.1260   -0.0640 C   0  0  0  0  0  0  0  0  0  0  0  0
    4.6490   -0.2110    0.9220 S   0  0  0  0  0  0  0  0  0  0  0  0
    1.8400   -2.1400    0.2690 C   0  0  0  0  0  0  0  0  0  0  0  0
    1.4970   -3.4620   -0.3650 C   0  0  0  0  0  0  0  0  0  0  0  0
    0.1860   -4.0120    0.0650 C   0  0  0  0  0  0  0  0  0  0  0  0
   -3.7480    1.1510    0.2740 N   0  0  0  0  0  0  0  0  0  0  0  0
  1  2  2  0
  2  3  1  0
  2  4  1  0
  4  5  2  0
  4 30  1  0
  5  6  1  0
  6  7  2  0
  7  8  1  0
  8  9  1  0
  8 30  2  0
  9 10  2  0
  9 14  1  0
 10 11  1  0
 11 12  2  0
 12 13  1  0
 12 29  1  0
 13 14  2  0
 13 15  1  0
 15 16  2  3
 15 27  1  0
 16 17  1  0
 17 18  1  0
 18 19  2  0
 18 26  1  0
 19 20  1  0
 20 21  2  0
 20 25  1  0
 21 22  1  0
 22 23  2  0
 23 24  1  0
 24 25  2  0
 25 26  1  0
 27 28  1  0
 28 29  1  0
M  END
