
     RDKit          3D

 31 34  0  0  0  0  0  0  0  0999 V2000
   -4.1450   -0.3740   -0.7770 O   0  0  0  0  0  0  0  0  0  0  0  0
   -3.5640   -0.8260    0.2450 C   0  0  0  0  0  0  0  0  0  0  0  0
   -4.3930   -1.2630    1.3880 C   0  0  0  0  0  0  0  0  0  0  0  0
   -5.7580   -1.0960    1.1380 O   0  0  0  0  0  0  0  0  0  0  0  0
   -6.3470    0.1370    0.8600 C   0  0  0  0  0  0  0  0  0  0  0  0
   -6.5580    1.0680    1.7710 C   0  0  0  0  0  0  0  0  0  0  0  0
   -7.1970    2.2360    1.1160 C   0  0  2  0  0  0  0  0  0  0  0  0
   -8.7900    2.5490    1.8540 Cl  0  0  0  0  0  0  0  0  0  0  0  0
   -7.3170    1.8470   -0.2640 N   0  0  0  0  0  0  0  0  0  0  0  0
   -6.8310    0.6460   -0.4170 C   0  0  0  0  0  0  0  0  0  0  0  0
   -2.1820   -0.9240    0.3260 O   0  0  0  0  0  0  0  0  0  0  0  0
   -1.4560   -0.4870   -0.8060 C   0  0  0  0  0  0  0  0  0  0  0  0
    0.0230   -0.6320   -0.6240 C   0  0  0  0  0  0  0  0  0  0  0  0
    0.3820   -1.1050    0.4760 O   0  0  0  0  0  0  0  0  0  0  0  0
    0.9470   -0.2720   -1.5940 N   0  0  0  0  0  0  0  0  0  0  0  0
    0.4880    0.2700   -2.8660 C   0  0  0  0  0  0  0  0  0  0  0  0
    1.4930   -0.1600   -3.9090 C   0  0  0  0  0  0  0  0  0  0  0  0
    2.1290   -1.4730   -3.6300 C   0  0  0  0  0  0  0  0  0  0  0  0
    2.6930   -1.6590   -2.2550 C   0  0  0  0  0  0  0  0  0  0  0  0
    2.3610   -0.3920   -1.4590 C   0  0  2  0  0  0  0  0  0  0  0  0
    2.8860   -0.5270   -0.0980 C   0  0  0  0  0  0  0  0  0  0  0  0
    2.8860   -0.9930    0.9610 N   0  0  0  0  0  0  0  0  0  0  0  0
    3.6220   -0.8100    2.0160 C   0  0  0  0  0  0  0  0  0  0  0  0
    4.6170    0.1160    1.9020 C   0  0  0  0  0  0  0  0  0  0  0  0
    5.6620    0.6350    2.8130 C   0  0  0  0  0  0  0  0  0  0  0  0
    5.7900    0.2120    4.0280 C   0  0  0  0  0  0  0  0  0  0  0  0
    7.1060    0.9790    4.9180 S   0  0  0  0  0  0  0  0  0  0  0  0
    7.8330    2.0250    3.9950 C   0  0  0  0  0  0  0  0  0  0  0  0
    8.7950    2.8730    3.9930 O   0  0  0  0  0  0  0  0  0  0  0  0
    6.8250    1.8080    2.4750 S   0  0  0  0  0  0  0  0  0  0  0  0
    4.3690    0.6590    0.1750 S   0  0  0  0  0  0  0  0  0  0  0  0
  1  2  2  0
  2  3  1  0
  2 11  1  0
  3  4  1  0
  4  5  1  0
  5  6  2  0
  5 10  1  0
  6  7  1  0
  7  8  1  1
  7  9  1  0
  9 10  2  0
 11 12  1  0
 12 13  1  0
 13 14  2  0
 13 15  1  0
 15 16  1  0
 15 20  1  0
 16 17  1  0
 17 18  1  0
 18 19  1  0
 19 20  1  0
 20 21  1  1
 21 22  2  0
 21 31  1  0
 22 23  1  0
 23 24  2  0
 24 25  1  0
 24 31  1  0
 25 26  2  0
 25 30  1  0
 26 27  1  0
 27 28  1  0
 28 29  2  0
 28 30  1  0
M  END
