
     RDKit          3D

 41 44  0  0  0  0  0  0  0  0999 V2000
    7.4470    3.0920    2.5550 C   0  0  0  0  0  0  0  0  0  0  0  0
    8.4610    2.6810    1.8520 C   0  0  0  0  0  0  0  0  0  0  0  0
    9.7200    3.1370    2.2000 F   0  0  0  0  0  0  0  0  0  0  0  0
    8.3930    1.7690    0.7550 C   0  0  0  0  0  0  0  0  0  0  0  0
    9.5050    1.4370    0.0860 C   0  0  0  0  0  0  0  0  0  0  0  0
    7.1400    1.1630    0.2890 C   0  0  0  0  0  0  0  0  0  0  0  0
    6.6420    0.1430    1.2660 C   0  0  2  0  0  0  0  0  0  0  0  0
    7.6430   -0.8530    1.3900 O   0  0  0  0  0  0  0  0  0  0  0  0
    5.4510   -0.5500    0.6390 C   0  0  0  0  0  0  0  0  0  0  0  0
    5.7130   -1.3060   -0.4810 C   0  0  0  0  0  0  0  0  0  0  0  0
    4.6560   -1.9700   -1.0860 C   0  0  0  0  0  0  0  0  0  0  0  0
    3.3740   -1.8870   -0.5930 C   0  0  0  0  0  0  0  0  0  0  0  0
    2.3300   -2.6370   -1.3000 C   0  0  0  0  0  0  0  0  0  0  0  0
    1.7440   -1.7820   -2.3950 C   0  0  0  0  0  0  0  0  0  0  0  0
    1.0410   -0.5390   -1.8950 C   0  0  0  0  0  0  0  0  0  0  0  0
   -0.1010   -0.8420   -1.0430 C   0  0  0  0  0  0  0  0  0  0  0  0
   -1.3760   -0.5000   -1.2920 C   0  0  0  0  0  0  0  0  0  0  0  0
   -1.7060    0.2230   -2.4740 C   0  0  0  0  0  0  0  0  0  0  0  0
   -2.8530    0.6360   -2.9050 C   0  0  0  0  0  0  0  0  0  0  0  0
   -2.7940    1.5310   -4.4790 Cl  0  0  0  0  0  0  0  0  0  0  0  0
   -4.1350    0.4360   -2.2890 C   0  0  0  0  0  0  0  0  0  0  0  0
   -5.3260    0.9520   -2.8560 C   0  0  0  0  0  0  0  0  0  0  0  0
   -6.3770    0.5980   -2.0500 C   0  0  0  0  0  0  0  0  0  0  0  0
   -5.8200   -0.1130   -1.0250 C   0  0  0  0  0  0  0  0  0  0  0  0
   -4.5030   -0.1720   -1.2250 O   0  0  0  0  0  0  0  0  0  0  0  0
   -6.6060   -0.6920    0.0860 C   0  0  0  0  0  0  0  0  0  0  0  0
   -7.9630   -0.1600    0.0740 N   0  0  2  0  0  0  0  0  0  0  0  0
   -8.7970   -0.8040    1.0380 C   0  0  0  0  0  0  0  0  0  0  0  0
   -8.4740   -0.3170   -1.2880 C   0  0  0  0  0  0  0  0  0  0  0  0
   -7.8430    0.8140   -2.0740 C   0  0  0  0  0  0  0  0  0  0  0  0
   -2.2650   -0.9270   -0.2930 O   0  0  0  0  0  0  0  0  0  0  0  0
   -2.1550   -0.2910    0.9370 C   0  0  0  0  0  0  0  0  0  0  0  0
   -1.2430    0.7290    1.1830 C   0  0  0  0  0  0  0  0  0  0  0  0
   -1.1360    1.3620    2.4020 C   0  0  0  0  0  0  0  0  0  0  0  0
   -1.9530    0.9980    3.4610 C   0  0  0  0  0  0  0  0  0  0  0  0
   -1.8080    1.6520    4.6430 F   0  0  0  0  0  0  0  0  0  0  0  0
   -2.8570   -0.0050    3.2390 C   0  0  0  0  0  0  0  0  0  0  0  0
   -2.9540   -0.6330    2.0030 C   0  0  0  0  0  0  0  0  0  0  0  0
   -3.8480   -1.6480    1.7980 F   0  0  0  0  0  0  0  0  0  0  0  0
    3.1240   -1.1380    0.5120 C   0  0  0  0  0  0  0  0  0  0  0  0
    4.1850   -0.4520    1.1460 C   0  0  0  0  0  0  0  0  0  0  0  0
  1  2  2  0
  2  3  1  0
  2  4  1  0
  4  5  2  0
  4  6  1  0
  6  7  1  0
  7  8  1  6
  7  9  1  0
  9 10  2  0
  9 41  1  0
 10 11  1  0
 11 12  2  0
 12 13  1  0
 12 40  1  0
 13 14  1  0
 14 15  1  0
 15 16  1  0
 16 17  2  3
 17 18  1  0
 17 31  1  0
 18 19  2  3
 19 20  1  0
 19 21  1  0
 21 22  2  0
 21 25  1  0
 22 23  1  0
 23 24  2  0
 23 30  1  0
 24 25  1  0
 24 26  1  0
 26 27  1  0
 27 28  1  1
 27 29  1  0
 29 30  1  0
 31 32  1  0
 32 33  2  0
 32 38  1  0
 33 34  1  0
 34 35  2  0
 35 36  1  0
 35 37  1  0
 37 38  2  0
 38 39  1  0
 40 41  2  0
M  CHG  1  27   1
M  END
