
     RDKit          3D

 41 44  0  0  0  0  0  0  0  0999 V2000
    8.2670   -0.1890    4.7980 C   0  0  0  0  0  0  0  0  0  0  0  0
    7.6190   -0.8740    3.2510 S   0  0  0  0  0  0  0  0  0  0  0  0
    6.3550    0.2080    2.5840 C   0  0  0  0  0  0  0  0  0  0  0  0
    5.9870    1.3730    3.2160 C   0  0  0  0  0  0  0  0  0  0  0  0
    5.0210    2.1400    2.6470 C   0  0  0  0  0  0  0  0  0  0  0  0
    4.4320    1.7750    1.4900 C   0  0  0  0  0  0  0  0  0  0  0  0
    3.3690    2.6370    0.8810 C   0  0  0  0  0  0  0  0  0  0  0  0
    4.7860    0.5880    0.8150 C   0  0  0  0  0  0  0  0  0  0  0  0
    4.0660    0.2260   -0.3480 N   0  0  0  0  0  0  0  0  0  0  0  0
    4.4880   -0.5830   -1.4230 C   0  0  0  0  0  0  0  0  0  0  0  0
    5.7670   -0.9280   -1.6210 N   0  0  0  0  0  0  0  0  0  0  0  0
    6.2230   -1.6120   -2.7090 C   0  0  0  0  0  0  0  0  0  0  0  0
    5.3480   -1.9840   -3.6820 C   0  0  0  0  0  0  0  0  0  0  0  0
    4.0200   -1.6440   -3.5120 C   0  0  0  0  0  0  0  0  0  0  0  0
    3.5450   -0.9580   -2.4230 C   0  0  0  0  0  0  0  0  0  0  0  0
    2.1840   -0.6740   -2.2400 N   0  0  0  0  0  0  0  0  0  0  0  0
    1.1670   -0.8200   -3.1990 C   0  0  0  0  0  0  0  0  0  0  0  0
    1.4090   -1.2270   -4.3390 O   0  0  0  0  0  0  0  0  0  0  0  0
   -0.2620   -0.4810   -2.8610 C   0  0  2  0  0  0  0  0  0  0  0  0
   -0.3780    0.9590   -2.4660 C   0  0  0  0  0  0  0  0  0  0  0  0
   -0.8230   -1.5340   -1.5070 S   0  0  0  0  0  0  0  0  0  0  0  0
   -0.0140   -1.2800   -0.2700 O   0  0  0  0  0  0  0  0  0  0  0  0
   -2.5340   -1.0500   -1.1830 C   0  0  0  0  0  0  0  0  0  0  0  0
   -3.5480   -1.6840   -1.8400 C   0  0  0  0  0  0  0  0  0  0  0  0
   -4.8560   -1.3330   -1.6200 C   0  0  0  0  0  0  0  0  0  0  0  0
   -5.1590   -0.3130   -0.7020 C   0  0  0  0  0  0  0  0  0  0  0  0
   -4.1530    0.3270   -0.0240 C   0  0  0  0  0  0  0  0  0  0  0  0
   -4.3540    1.0420    1.0640 C   0  0  0  0  0  0  0  0  0  0  0  0
   -3.1150    1.7320    1.6690 C   0  0  0  0  0  0  0  0  0  0  0  0
   -2.5600    0.9080    2.7630 C   0  0  0  0  0  0  0  0  0  0  0  0
   -3.4690    0.6920    3.8620 N   0  0  0  0  0  0  0  0  0  0  0  0
   -5.4290    0.9990    2.0100 C   0  0  0  0  0  0  0  0  0  0  0  0
   -6.5060    0.1160    2.1590 N   0  0  0  0  0  0  0  0  0  0  0  0
   -5.4290    1.9470    2.8990 O   0  0  0  0  0  0  0  0  0  0  0  0
   -2.8210   -0.0690   -0.2980 C   0  0  0  0  0  0  0  0  0  0  0  0
   -6.4210    0.0470   -0.5340 C   0  0  0  0  0  0  0  0  0  0  0  0
   -7.5090   -0.6020   -1.2550 C   0  0  0  0  0  0  0  0  0  0  0  0
   -7.1930   -1.5710   -2.0960 C   0  0  0  0  0  0  0  0  0  0  0  0
   -8.2440   -2.2770   -2.8560 C   0  0  0  0  0  0  0  0  0  0  0  0
   -5.8820   -1.9550   -2.3000 O   0  0  0  0  0  0  0  0  0  0  0  0
    5.7530   -0.1890    1.3800 C   0  0  0  0  0  0  0  0  0  0  0  0
  1  2  1  0
  2  3  1  0
  3  4  2  0
  3 41  1  0
  4  5  1  0
  5  6  2  0
  6  7  1  0
  6  8  1  0
  8  9  1  0
  8 41  2  0
  9 10  1  0
 10 11  2  0
 10 15  1  0
 11 12  1  0
 12 13  2  0
 13 14  1  0
 14 15  2  0
 15 16  1  0
 16 17  1  0
 17 18  2  0
 17 19  1  0
 19 20  1  1
 19 21  1  0
 21 22  2  0
 21 23  1  1
 23 24  1  0
 23 35  2  0
 24 25  2  0
 25 26  1  0
 25 40  1  0
 26 27  1  0
 26 36  2  0
 27 28  2  3
 27 35  1  0
 28 29  1  0
 28 32  1  0
 29 30  1  0
 30 31  1  0
 32 33  1  0
 32 34  2  0
 36 37  1  0
 37 38  2  0
 38 39  1  0
 38 40  1  0
M  CHG  1  11   1
M  END
