
     RDKit          3D

 41 45  0  0  0  0  0  0  0  0999 V2000
   -5.3720   -3.4160    1.2620 C   0  0  0  0  0  0  0  0  0  0  0  0
   -5.1790   -1.9420    1.0190 C   0  0  0  0  0  0  0  0  0  0  0  0
   -6.3840   -1.2750    0.5300 C   0  0  0  0  0  0  0  0  0  0  0  0
   -7.9290   -2.0390   -0.0810 S   0  0  0  0  0  0  0  0  0  0  0  0
   -8.7630   -0.4880   -0.4450 C   0  0  0  0  0  0  0  0  0  0  0  0
   -9.9860   -0.2770   -0.9390 N   0  0  0  0  0  0  0  0  0  0  0  0
  -10.3840    0.9910   -1.1390 C   0  0  0  0  0  0  0  0  0  0  0  0
  -11.5410    1.1190   -1.5990 O   0  0  0  0  0  0  0  0  0  0  0  0
   -9.5310    1.9440   -0.8250 N   0  0  0  0  0  0  0  0  0  0  0  0
   -8.2980    1.7870   -0.3250 C   0  0  0  0  0  0  0  0  0  0  0  0
   -7.5820    2.7420   -0.0730 O   0  0  0  0  0  0  0  0  0  0  0  0
   -7.8350    0.4470   -0.0900 C   0  0  0  0  0  0  0  0  0  0  0  0
   -6.6430    0.0910    0.3970 C   0  0  0  0  0  0  0  0  0  0  0  0
   -5.5120    0.9890    0.8410 C   0  0  0  0  0  0  0  0  0  0  0  0
   -4.4720    1.2370   -0.2300 C   0  0  0  0  0  0  0  0  0  0  0  0
   -3.3150    1.9150    0.4550 C   0  0  0  0  0  0  0  0  0  0  0  0
   -2.1960    2.4210   -0.3340 C   0  0  0  0  0  0  0  0  0  0  0  0
   -1.4700    1.4580   -1.2320 N   0  0  0  0  0  0  0  0  0  0  0  0
   -0.2060    1.3050   -0.6940 C   0  0  0  0  0  0  0  0  0  0  0  0
    0.8110    0.2950   -0.8270 C   0  0  0  0  0  0  0  0  0  0  0  0
    2.2390    0.1630   -1.9310 S   0  0  0  0  0  0  0  0  0  0  0  0
    3.2180   -0.8710   -0.9770 C   0  0  0  0  0  0  0  0  0  0  0  0
    4.6350   -1.0670   -0.9010 N   0  0  0  0  0  0  0  0  0  0  0  0
    5.5520   -0.2440   -1.6010 C   0  0  0  0  0  0  0  0  0  0  0  0
    5.2010    0.5480   -2.4390 O   0  0  0  0  0  0  0  0  0  0  0  0
    6.9860   -0.3730   -1.1750 C   0  0  0  0  0  0  0  0  0  0  0  0
    7.5470   -1.5520   -0.8650 C   0  0  0  0  0  0  0  0  0  0  0  0
    6.9870   -2.8630   -1.2780 C   0  0  0  0  0  0  0  0  0  0  0  0
    8.7040   -1.5440   -0.0410 C   0  0  0  0  0  0  0  0  0  0  0  0
    9.1880   -0.3200    0.4000 C   0  0  0  0  0  0  0  0  0  0  0  0
    8.6160    0.8680    0.0830 C   0  0  0  0  0  0  0  0  0  0  0  0
    8.9800    2.1320    0.7370 C   0  0  0  0  0  0  0  0  0  0  0  0
    7.4790    0.8820   -0.7410 C   0  0  0  0  0  0  0  0  0  0  0  0
    6.8230    2.1140   -1.2170 C   0  0  0  0  0  0  0  0  0  0  0  0
    2.3900   -1.1350    0.1780 C   0  0  0  0  0  0  0  0  0  0  0  0
    1.2410   -0.5360    0.1820 C   0  0  0  0  0  0  0  0  0  0  0  0
    0.2800   -0.8590    1.3390 C   0  0  0  0  0  0  0  0  0  0  0  0
    1.0790   -0.8940    2.6350 C   0  0  0  0  0  0  0  0  0  0  0  0
    1.9170   -2.0980    2.4510 N   0  0  0  0  0  0  0  0  0  0  0  0
    2.7930   -1.9670    1.3300 C   0  0  0  0  0  0  0  0  0  0  0  0
    3.8700   -2.5740    1.3890 O   0  0  0  0  0  0  0  0  0  0  0  0
  1  2  1  0
  2  3  1  0
  3  4  1  0
  3 13  2  0
  4  5  1  0
  5  6  1  0
  5 12  2  0
  6  7  1  0
  7  8  2  0
  7  9  1  0
  9 10  1  0
 10 11  2  0
 10 12  1  0
 12 13  1  0
 13 14  1  0
 14 15  1  0
 15 16  1  0
 16 17  1  0
 17 18  1  0
 18 19  1  0
 19 20  1  0
 20 21  1  0
 20 36  2  0
 21 22  1  0
 22 23  1  0
 22 35  2  0
 23 24  1  0
 24 25  2  0
 24 26  1  0
 26 27  2  0
 26 33  1  0
 27 28  1  0
 27 29  1  0
 29 30  2  0
 30 31  1  0
 31 32  1  0
 31 33  2  0
 33 34  1  0
 35 36  1  0
 35 40  1  0
 36 37  1  0
 37 38  1  0
 38 39  1  0
 39 40  1  0
 40 41  2  0
M  CHG  1  18   1
M  END
