
     RDKit          3D

 41 45  0  0  0  0  0  0  0  0999 V2000
    5.8450   -1.2230   -2.0900 O   0  0  0  0  0  0  0  0  0  0  0  0
    5.2040   -1.1720   -1.0080 C   0  0  0  0  0  0  0  0  0  0  0  0
    3.8310   -1.7910   -0.9320 C   0  0  0  0  0  0  0  0  0  0  0  0
    3.2570   -1.6350    0.3570 N   0  0  0  0  0  0  0  0  0  0  0  0
    2.7030   -0.3520    0.6280 C   0  0  2  0  0  0  0  0  0  0  0  0
    2.5320   -0.0630    2.0970 C   0  0  0  0  0  0  0  0  0  0  0  0
    1.1890   -0.7630    2.3710 C   0  0  0  0  0  0  0  0  0  0  0  0
    0.3760   -0.1780    1.2360 C   0  0  2  0  0  0  0  0  0  0  0  0
   -0.9400   -0.7140    1.1040 N   0  0  0  0  0  0  0  0  0  0  0  0
   -2.1260   -0.0040    1.3720 C   0  0  0  0  0  0  0  0  0  0  0  0
   -1.9790    1.2000    1.7610 O   0  0  0  0  0  0  0  0  0  0  0  0
   -3.4780   -0.5260    1.2440 C   0  0  0  0  0  0  0  0  0  0  0  0
   -3.7710   -1.6610    0.5180 C   0  0  0  0  0  0  0  0  0  0  0  0
   -5.0810   -2.1400    0.4220 C   0  0  0  0  0  0  0  0  0  0  0  0
   -6.1050   -1.4740    1.0590 C   0  0  0  0  0  0  0  0  0  0  0  0
   -7.7260   -2.0990    0.9130 S   0  0  2  0  0  0  0  0  0  0  0  0
   -8.5470   -1.8100    2.1370 O   0  0  0  0  0  0  0  0  0  0  0  0
   -7.6300   -3.5750    0.6410 O   0  0  0  0  0  0  0  0  0  0  0  0
   -8.4870   -1.2760   -0.4190 N   0  0  0  0  0  0  0  0  0  0  0  0
   -8.5150    0.1210   -0.0690 C   0  0  0  0  0  0  0  0  0  0  0  0
   -9.1400    0.9850   -1.1000 C   0  0  0  0  0  0  0  0  0  0  0  0
   -9.2250    2.3300   -0.8300 C   0  0  0  0  0  0  0  0  0  0  0  0
   -9.7920    3.2190   -1.7180 C   0  0  0  0  0  0  0  0  0  0  0  0
  -10.2940    2.7710   -2.9170 C   0  0  0  0  0  0  0  0  0  0  0  0
  -10.2050    1.4050   -3.1860 C   0  0  0  0  0  0  0  0  0  0  0  0
   -9.6390    0.5270   -2.2930 C   0  0  0  0  0  0  0  0  0  0  0  0
   -5.8360   -0.3460    1.7840 C   0  0  0  0  0  0  0  0  0  0  0  0
   -4.5270    0.1230    1.8740 C   0  0  0  0  0  0  0  0  0  0  0  0
    1.2740   -0.3340    0.0620 C   0  0  0  0  0  0  0  0  0  0  0  0
    5.7820   -0.5400    0.1050 N   0  0  0  0  0  0  0  0  0  0  0  0
    7.0550    0.0670    0.1380 C   0  0  0  0  0  0  0  0  0  0  0  0
    7.4110    0.8860    1.2270 C   0  0  0  0  0  0  0  0  0  0  0  0
    8.6320    1.5020    1.3340 C   0  0  0  0  0  0  0  0  0  0  0  0
    9.5700    1.3230    0.3390 C   0  0  0  0  0  0  0  0  0  0  0  0
   10.8200    1.9220    0.3960 C   0  0  0  0  0  0  0  0  0  0  0  0
   11.7390    1.7370   -0.5940 C   0  0  0  0  0  0  0  0  0  0  0  0
   11.4090    0.9570   -1.6400 N   0  0  0  0  0  0  0  0  0  0  0  0
   10.1970    0.3430   -1.7490 C   0  0  0  0  0  0  0  0  0  0  0  0
    9.8350   -0.5900   -3.0260 S   0  0  0  0  0  0  0  0  0  0  0  0
    9.2730    0.5330   -0.7450 C   0  0  0  0  0  0  0  0  0  0  0  0
    8.0150   -0.0790   -0.8190 C   0  0  0  0  0  0  0  0  0  0  0  0
  1  2  2  0
  2  3  1  0
  2 30  1  0
  3  4  1  0
  5  4  1  1
  5  6  1  0
  5 29  1  0
  6  7  1  0
  7  8  1  0
  8  9  1  6
  8 29  1  0
  9 10  1  0
 10 11  2  0
 10 12  1  0
 12 13  2  0
 12 28  1  0
 13 14  1  0
 14 15  2  0
 15 16  1  0
 15 27  1  0
 16 17  2  0
 16 18  2  0
 16 19  1  6
 19 20  1  0
 20 21  1  0
 21 22  2  0
 21 26  1  0
 22 23  1  0
 23 24  2  0
 24 25  1  0
 25 26  2  0
 27 28  2  0
 30 31  1  0
 31 32  2  0
 31 41  1  0
 32 33  1  0
 33 34  2  0
 34 35  1  0
 34 40  1  0
 35 36  2  0
 36 37  1  0
 37 38  1  0
 38 39  2  0
 38 40  1  0
 40 41  2  0
M  CHG  1   4   1
M  END
