
     RDKit          3D

 41 44  0  0  0  0  0  0  0  0999 V2000
    8.4930    3.1860    0.6580 C   0  0  0  0  0  0  0  0  0  0  0  0
    7.9710    2.8900   -0.7090 C   0  0  0  0  0  0  0  0  0  0  0  0
    6.6960    2.1540   -0.7570 C   0  0  0  0  0  0  0  0  0  0  0  0
    6.6900    0.7950   -1.1100 C   0  0  0  0  0  0  0  0  0  0  0  0
    5.5090    0.1340   -1.1470 C   0  0  0  0  0  0  0  0  0  0  0  0
    4.2730    0.7210   -0.8530 C   0  0  0  0  0  0  0  0  0  0  0  0
    3.0790   -0.1890   -0.9920 C   0  0  0  0  0  0  0  0  0  0  0  0
    2.9850   -1.0850    0.1790 C   0  0  2  0  0  0  0  0  0  0  0  0
    4.1800   -1.8060    0.3600 O   0  0  0  0  0  0  0  0  0  0  0  0
    4.7040   -1.5380    1.6320 C   0  0  0  0  0  0  0  0  0  0  0  0
    1.8370   -2.0350    0.2430 C   0  0  0  0  0  0  0  0  0  0  0  0
    2.1470   -3.4260    0.1190 C   0  0  0  0  0  0  0  0  0  0  0  0
    3.4090   -3.6950   -0.3230 O   0  0  0  0  0  0  0  0  0  0  0  0
    4.1160   -4.8320   -0.5870 C   0  0  0  0  0  0  0  0  0  0  0  0
    1.2480   -4.3900    0.4200 C   0  0  0  0  0  0  0  0  0  0  0  0
    0.0010   -4.0490    0.8580 C   0  0  0  0  0  0  0  0  0  0  0  0
   -0.9120   -5.0170    1.1580 F   0  0  0  0  0  0  0  0  0  0  0  0
   -0.3440   -2.7180    0.9960 C   0  0  0  0  0  0  0  0  0  0  0  0
    0.5900   -1.7100    0.6810 C   0  0  0  0  0  0  0  0  0  0  0  0
    0.1660   -0.4160    0.8410 O   0  0  0  0  0  0  0  0  0  0  0  0
   -0.9050    0.2060    1.3100 C   0  0  0  0  0  0  0  0  0  0  0  0
   -2.3080    0.1600    1.0210 C   0  0  0  0  0  0  0  0  0  0  0  0
   -2.7660    0.5130   -0.2790 N   0  0  0  0  0  0  0  0  0  0  0  0
   -4.1410    0.9810   -0.3080 C   0  0  0  0  0  0  0  0  0  0  0  0
   -5.1970   -0.0370   -0.3560 C   0  0  0  0  0  0  0  0  0  0  0  0
   -4.8780   -1.4080   -0.3990 C   0  0  0  0  0  0  0  0  0  0  0  0
   -5.8800   -2.3550   -0.4690 C   0  0  0  0  0  0  0  0  0  0  0  0
   -5.5370   -4.0660   -0.5040 Cl  0  0  0  0  0  0  0  0  0  0  0  0
   -7.2130   -1.9510   -0.4960 C   0  0  0  0  0  0  0  0  0  0  0  0
   -7.4850   -0.6130   -0.4480 C   0  0  0  0  0  0  0  0  0  0  0  0
   -6.4990    0.3870   -0.3780 C   0  0  0  0  0  0  0  0  0  0  0  0
   -6.9440    1.7560   -0.2740 C   0  0  0  0  0  0  0  0  0  0  0  0
   -6.7930    2.6070    0.7750 C   0  0  0  0  0  0  0  0  0  0  0  0
   -7.3590    3.8810    0.8490 C   0  0  0  0  0  0  0  0  0  0  0  0
   -8.1200    4.3160   -0.1970 C   0  0  0  0  0  0  0  0  0  0  0  0
   -8.2900    3.4820   -1.2700 C   0  0  0  0  0  0  0  0  0  0  0  0
   -7.7310    2.2360   -1.3330 C   0  0  0  0  0  0  0  0  0  0  0  0
   -7.9480    1.4830   -2.4080 F   0  0  0  0  0  0  0  0  0  0  0  0
    4.2680    2.0330   -0.5140 C   0  0  0  0  0  0  0  0  0  0  0  0
    5.4850    2.7340   -0.4710 C   0  0  0  0  0  0  0  0  0  0  0  0
    5.4890    4.0650   -0.1500 F   0  0  0  0  0  0  0  0  0  0  0  0
  1  2  1  0
  2  3  1  0
  3  4  2  0
  3 40  1  0
  4  5  1  0
  5  6  2  0
  6  7  1  0
  6 39  1  0
  8  7  1  6
  8  9  1  0
  8 11  1  0
  9 10  1  0
 11 12  2  0
 11 19  1  0
 12 13  1  0
 12 15  1  0
 13 14  1  0
 15 16  2  0
 16 17  1  0
 16 18  1  0
 18 19  2  0
 19 20  1  0
 20 21  1  0
 21 22  1  0
 22 23  1  0
 23 24  1  0
 24 25  1  0
 25 26  2  0
 25 31  1  0
 26 27  1  0
 27 28  1  0
 27 29  2  0
 29 30  1  0
 30 31  2  0
 31 32  1  0
 32 33  2  0
 32 37  1  0
 33 34  1  0
 34 35  2  0
 35 36  1  0
 36 37  2  0
 37 38  1  0
 39 40  2  0
 40 41  1  0
M  CHG  1  23   1
M  END
