
     RDKit          3D

 41 44  0  0  0  0  0  0  0  0999 V2000
   -5.5070   -5.1160   -1.7100 C   0  0  0  0  0  0  0  0  0  0  0  0
   -5.7310   -3.6000   -1.7840 C   0  0  0  0  0  0  0  0  0  0  0  0
   -4.8000   -2.9100   -0.7980 C   0  0  0  0  0  0  0  0  0  0  0  0
   -3.3450   -3.2290   -1.1560 C   0  0  0  0  0  0  0  0  0  0  0  0
   -2.4510   -2.5550   -0.1890 C   0  0  0  0  0  0  0  0  0  0  0  0
   -2.1040   -3.2170    0.9610 C   0  0  0  0  0  0  0  0  0  0  0  0
   -1.2910   -2.6890    1.9130 C   0  0  0  0  0  0  0  0  0  0  0  0
   -0.7810   -1.4090    1.7140 C   0  0  0  0  0  0  0  0  0  0  0  0
    0.0450   -0.8650    2.8200 C   0  0  0  0  0  0  0  0  0  0  0  0
   -1.1110   -0.7280    0.5710 C   0  0  0  0  0  0  0  0  0  0  0  0
   -0.5110    0.5930    0.3350 C   0  0  0  0  0  0  0  0  0  0  0  0
   -1.1780    1.7400    0.3180 C   0  0  0  0  0  0  0  0  0  0  0  0
   -0.2800    2.8530    0.0530 C   0  0  0  0  0  0  0  0  0  0  0  0
   -0.9810    4.0070    0.0110 C   0  0  0  0  0  0  0  0  0  0  0  0
   -0.3620    5.3040   -0.2210 C   0  0  0  0  0  0  0  0  0  0  0  0
    0.7260    5.7010    0.5730 C   0  0  0  0  0  0  0  0  0  0  0  0
    1.3790    6.8890    0.3680 C   0  0  0  0  0  0  0  0  0  0  0  0
    0.9920    7.7370   -0.6280 C   0  0  0  0  0  0  0  0  0  0  0  0
    1.8520    9.2600   -0.8720 Cl  0  0  0  0  0  0  0  0  0  0  0  0
   -0.0660    7.3770   -1.4180 C   0  0  0  0  0  0  0  0  0  0  0  0
   -0.7360    6.1660   -1.2100 C   0  0  0  0  0  0  0  0  0  0  0  0
   -1.8950    5.9150   -2.1000 C   0  0  0  0  0  0  0  0  0  0  0  0
   -1.9890    6.9560   -3.0640 O   0  0  0  0  0  0  0  0  0  0  0  0
   -2.4210    3.7180    0.2140 C   0  0  0  0  0  0  0  0  0  0  0  0
   -2.5320    2.2630    0.5040 C   0  0  1  0  0  0  0  0  0  0  0  0
   -3.4640    1.6400   -0.3070 F   0  0  0  0  0  0  0  0  0  0  0  0
   -2.9820    2.1100    1.8230 F   0  0  0  0  0  0  0  0  0  0  0  0
    1.0390    2.2520   -0.0990 C   0  0  0  0  0  0  0  0  0  0  0  0
    2.3210    2.9600   -0.4250 C   0  0  0  0  0  0  0  0  0  0  0  0
    0.8830    0.9380    0.0680 C   0  0  0  0  0  0  0  0  0  0  0  0
    1.9610   -0.0630   -0.0230 C   0  0  0  0  0  0  0  0  0  0  0  0
    3.1310    0.3170   -0.2580 O   0  0  0  0  0  0  0  0  0  0  0  0
    1.7260   -1.3700    0.1380 O   0  0  0  0  0  0  0  0  0  0  0  0
    2.4490   -2.5140    0.1320 C   0  0  0  0  0  0  0  0  0  0  0  0
    3.4110   -2.7340    1.2400 C   0  0  2  0  0  0  0  0  0  0  0  0
    4.5050   -1.7350    1.2970 C   0  0  0  0  0  0  0  0  0  0  0  0
    4.0640   -4.0520    1.1030 N   0  0  0  0  0  0  0  0  0  0  0  0
    5.1030   -4.0390    0.1080 C   0  0  0  0  0  0  0  0  0  0  0  0
    5.7330   -5.4210    0.0150 C   0  0  0  0  0  0  0  0  0  0  0  0
    4.7260   -6.2890   -0.3440 F   0  0  0  0  0  0  0  0  0  0  0  0
   -1.9450   -1.3000   -0.3780 C   0  0  0  0  0  0  0  0  0  0  0  0
  1  2  1  0
  2  3  1  0
  3  4  1  0
  4  5  1  0
  5  6  2  0
  5 41  1  0
  6  7  1  0
  7  8  2  0
  8  9  1  0
  8 10  1  0
 10 11  1  0
 10 41  2  0
 11 12  2  0
 11 30  1  0
 12 13  1  0
 12 25  1  0
 13 14  2  0
 13 28  1  0
 14 15  1  0
 14 24  1  0
 15 16  2  0
 15 21  1  0
 16 17  1  0
 17 18  2  0
 18 19  1  0
 18 20  1  0
 20 21  2  0
 21 22  1  0
 22 23  1  0
 24 25  1  0
 25 26  1  6
 25 27  1  0
 28 29  1  0
 28 30  2  0
 30 31  1  0
 31 32  2  0
 31 33  1  0
 33 34  1  0
 34 35  1  0
 35 36  1  6
 35 37  1  0
 37 38  1  0
 38 39  1  0
 39 40  1  0
M  CHG  1  37   1
M  END
