
     RDKit          3D

 41 46  0  0  0  0  0  0  0  0999 V2000
   10.8680    2.0760   -0.4790 N   0  0  0  0  0  0  0  0  0  0  0  0
    9.7340    2.6230    0.2160 C   0  0  0  0  0  0  0  0  0  0  0  0
    8.4460    2.0360   -0.2200 C   0  0  0  0  0  0  0  0  0  0  0  0
    8.3210    1.0920   -1.2100 C   0  0  0  0  0  0  0  0  0  0  0  0
    7.0800    0.5750   -1.5750 C   0  0  0  0  0  0  0  0  0  0  0  0
    5.9220    0.9850   -0.9610 C   0  0  0  0  0  0  0  0  0  0  0  0
    4.6620    0.5780   -1.2020 O   0  0  0  0  0  0  0  0  0  0  0  0
    4.0860   -0.3170   -2.0460 C   0  0  0  0  0  0  0  0  0  0  0  0
    4.4620   -1.7520   -1.8810 C   0  0  0  0  0  0  0  0  0  0  0  0
    4.1370   -2.3050   -0.5200 C   0  0  0  0  0  0  0  0  0  0  0  0
    2.7160   -2.1990   -0.2840 C   0  0  0  0  0  0  0  0  0  0  0  0
    2.0090   -0.8530    0.7250 S   0  0  0  0  0  0  0  0  0  0  0  0
    0.3360   -1.3660    0.5260 C   0  0  0  0  0  0  0  0  0  0  0  0
   -0.8040   -0.6070    1.1720 C   0  0  0  0  0  0  0  0  0  0  0  0
   -0.5520    0.5070    1.9290 C   0  0  0  0  0  0  0  0  0  0  0  0
   -1.6190    1.1880    2.5210 C   0  0  0  0  0  0  0  0  0  0  0  0
   -2.9240    0.7730    2.3670 C   0  0  0  0  0  0  0  0  0  0  0  0
   -3.1580   -0.3490    1.6020 C   0  0  0  0  0  0  0  0  0  0  0  0
   -2.0780   -1.0250    1.0120 C   0  0  0  0  0  0  0  0  0  0  0  0
   -4.5380   -0.7800    1.4470 C   0  0  0  0  0  0  0  0  0  0  0  0
   -4.7770   -1.6550    0.5360 N   0  0  0  0  0  0  0  0  0  0  0  0
   -6.0740   -2.0900    0.3580 N   0  0  0  0  0  0  0  0  0  0  0  0
   -7.0560   -1.2070   -0.2870 C   0  0  0  0  0  0  0  0  0  0  0  0
   -7.2380   -0.1970   -0.7730 N   0  0  0  0  0  0  0  0  0  0  0  0
   -8.3310    0.3440   -1.2930 C   0  0  0  0  0  0  0  0  0  0  0  0
   -8.5460    1.5820   -1.8830 C   0  0  0  0  0  0  0  0  0  0  0  0
   -9.7760    1.9510   -2.3640 C   0  0  0  0  0  0  0  0  0  0  0  0
  -10.8720    1.1320   -2.2960 C   0  0  0  0  0  0  0  0  0  0  0  0
  -10.6950   -0.1110   -1.7140 C   0  0  0  0  0  0  0  0  0  0  0  0
   -9.4480   -0.4660   -1.2350 C   0  0  0  0  0  0  0  0  0  0  0  0
   -8.7990   -1.9420   -0.4260 S   0  0  0  0  0  0  0  0  0  0  0  0
   -5.6070   -0.1990    2.3370 C   0  0  0  0  0  0  0  0  0  0  0  0
   -5.3510    1.2870    2.3370 C   0  0  0  0  0  0  0  0  0  0  0  0
   -4.0300    1.5300    3.0210 C   0  0  0  0  0  0  0  0  0  0  0  0
    0.4410   -2.3500   -0.1710 N   0  0  0  0  0  0  0  0  0  0  0  0
    1.5730   -2.8470   -0.6270 C   0  0  0  0  0  0  0  0  0  0  0  0
    1.6350   -4.0830   -1.4610 C   0  0  0  0  0  0  0  0  0  0  0  0
    0.5970   -4.6850   -1.8040 O   0  0  0  0  0  0  0  0  0  0  0  0
    2.8410   -4.5920   -1.8730 O   0  0  0  0  0  0  0  0  0  0  0  0
    6.0970    1.9530    0.0470 C   0  0  0  0  0  0  0  0  0  0  0  0
    7.3040    2.4640    0.4110 C   0  0  0  0  0  0  0  0  0  0  0  0
  1  2  1  0
  2  3  1  0
  3  4  2  0
  3 41  1  0
  4  5  1  0
  5  6  2  0
  6  7  1  0
  6 40  1  0
  7  8  1  0
  8  9  1  0
  9 10  1  0
 10 11  1  0
 11 12  1  0
 11 36  2  0
 12 13  1  0
 13 14  1  0
 13 35  2  0
 14 15  2  0
 14 19  1  0
 15 16  1  0
 16 17  2  0
 17 18  1  0
 17 34  1  0
 18 19  2  0
 18 20  1  0
 20 21  2  3
 20 32  1  0
 21 22  1  0
 22 23  1  0
 23 24  2  0
 23 31  1  0
 24 25  1  0
 25 26  2  0
 25 30  1  0
 26 27  1  0
 27 28  2  0
 28 29  1  0
 29 30  2  0
 30 31  1  0
 32 33  1  0
 33 34  1  0
 35 36  1  0
 36 37  1  0
 37 38  2  0
 37 39  1  0
 40 41  2  0
M  CHG  1   1   1
M  END
