
     RDKit          3D

 37 41  0  0  0  0  0  0  0  0999 V2000
  -10.7770    0.4780    0.8860 C   0  0  0  0  0  0  0  0  0  0  0  0
   -9.6660   -0.4210    0.7350 N   0  0  0  0  0  0  0  0  0  0  0  0
   -9.7140   -1.7330    1.3130 C   0  0  0  0  0  0  0  0  0  0  0  0
   -8.5240   -0.0150    0.0160 C   0  0  0  0  0  0  0  0  0  0  0  0
   -8.6180    0.8150   -1.0010 C   0  0  0  0  0  0  0  0  0  0  0  0
   -7.4570    1.2700   -1.7830 C   0  0  0  0  0  0  0  0  0  0  0  0
   -6.1970    0.7460   -1.3500 N   0  0  0  0  0  0  0  0  0  0  0  0
   -5.0010    1.1480   -2.0520 C   0  0  0  0  0  0  0  0  0  0  0  0
   -3.8140    0.4880   -1.4490 C   0  0  0  0  0  0  0  0  0  0  0  0
   -3.2340    1.0820   -0.3550 C   0  0  0  0  0  0  0  0  0  0  0  0
   -2.1320    0.5060    0.2390 C   0  0  0  0  0  0  0  0  0  0  0  0
   -1.5620   -0.6740   -0.2210 C   0  0  0  0  0  0  0  0  0  0  0  0
   -0.3810   -1.2940    0.4220 C   0  0  0  0  0  0  0  0  0  0  0  0
    0.8650   -0.7700   -0.2380 C   0  0  0  0  0  0  0  0  0  0  0  0
    0.9510    0.7150   -0.0940 C   0  0  0  0  0  0  0  0  0  0  0  0
    2.2030    1.2860   -0.7330 C   0  0  0  0  0  0  0  0  0  0  0  0
    3.3760    0.6600   -0.0480 C   0  0  0  0  0  0  0  0  0  0  0  0
    3.8910    1.2680    1.0680 C   0  0  0  0  0  0  0  0  0  0  0  0
    4.9660    0.7460    1.7420 C   0  0  0  0  0  0  0  0  0  0  0  0
    5.5880   -0.4340    1.3200 C   0  0  0  0  0  0  0  0  0  0  0  0
    6.7460   -1.0000    2.0470 C   0  0  0  0  0  0  0  0  0  0  0  0
    8.0100   -0.4940    1.5620 N   0  0  0  0  0  0  0  0  0  0  0  0
    8.6210    0.5870    2.0300 C   0  0  0  0  0  0  0  0  0  0  0  0
    9.7860    0.8020    1.3760 N   0  0  0  0  0  0  0  0  0  0  0  0
    9.9190   -0.1690    0.4660 C   0  0  0  0  0  0  0  0  0  0  0  0
   10.9000   -0.4420   -0.4640 C   0  0  0  0  0  0  0  0  0  0  0  0
   12.0430    0.3930   -0.5820 N   0  0  0  0  0  0  0  0  0  0  0  0
   10.6930   -1.5300   -1.2270 N   0  0  0  0  0  0  0  0  0  0  0  0
    9.6150   -2.3280   -1.1240 C   0  0  0  0  0  0  0  0  0  0  0  0
    8.6700   -2.0490   -0.2130 N   0  0  0  0  0  0  0  0  0  0  0  0
    8.7990   -0.9890    0.5820 C   0  0  0  0  0  0  0  0  0  0  0  0
    5.0550   -1.0290    0.1960 C   0  0  0  0  0  0  0  0  0  0  0  0
    3.9710   -0.4970   -0.4780 C   0  0  0  0  0  0  0  0  0  0  0  0
   -2.1690   -1.2590   -1.3340 C   0  0  0  0  0  0  0  0  0  0  0  0
   -3.2710   -0.6850   -1.9290 C   0  0  0  0  0  0  0  0  0  0  0  0
   -6.1100   -0.1420   -0.2610 C   0  0  0  0  0  0  0  0  0  0  0  0
   -7.1950   -0.5020    0.3820 C   0  0  0  0  0  0  0  0  0  0  0  0
  1  2  1  0
  2  3  1  0
  2  4  1  0
  4  5  2  0
  4 37  1  0
  5  6  1  0
  6  7  1  0
  7  8  1  0
  7 36  1  0
  8  9  1  0
  9 10  2  0
  9 35  1  0
 10 11  1  0
 11 12  2  0
 12 13  1  0
 12 34  1  0
 13 14  1  0
 14 15  1  0
 15 16  1  0
 16 17  1  0
 17 18  2  0
 17 33  1  0
 18 19  1  0
 19 20  2  0
 20 21  1  0
 20 32  1  0
 21 22  1  0
 22 23  1  0
 22 31  1  0
 23 24  2  0
 24 25  1  0
 25 26  2  0
 25 31  1  0
 26 27  1  0
 26 28  1  0
 28 29  2  0
 29 30  1  0
 30 31  2  0
 32 33  2  0
 34 35  2  0
 36 37  2  0
M  END
