
     RDKit          3D

 36 40  0  0  0  0  0  0  0  0999 V2000
   -4.2370   -3.2080    3.5370 C   0  0  0  0  0  0  0  0  0  0  0  0
   -5.0800   -2.3180    2.6850 C   0  0  0  0  0  0  0  0  0  0  0  0
   -4.2240   -1.4750    1.7600 C   0  0  0  0  0  0  0  0  0  0  0  0
   -3.0030   -1.6370    1.8390 O   0  0  0  0  0  0  0  0  0  0  0  0
   -4.8460   -0.5790    0.8870 N   0  0  0  0  0  0  0  0  0  0  0  0
   -4.1840    0.2700   -0.0280 C   0  0  0  0  0  0  0  0  0  0  0  0
   -5.0040    1.1020   -0.8260 C   0  0  0  0  0  0  0  0  0  0  0  0
   -6.4760    1.0360   -0.6620 C   0  0  0  0  0  0  0  0  0  0  0  0
   -7.4060    2.1140   -1.7030 S   0  0  0  0  0  0  0  0  0  0  0  0
   -7.4290    3.5420   -1.2840 O   0  0  0  0  0  0  0  0  0  0  0  0
   -4.4600    1.9610   -1.7420 C   0  0  0  0  0  0  0  0  0  0  0  0
   -5.2400    2.7480   -2.4960 N   0  0  0  0  0  0  0  0  0  0  0  0
   -4.7400    3.6020   -3.4040 C   0  0  0  0  0  0  0  0  0  0  0  0
   -5.4940    4.4070   -4.1790 F   0  0  0  0  0  0  0  0  0  0  0  0
   -3.3610    3.6630   -3.5580 C   0  0  0  0  0  0  0  0  0  0  0  0
   -2.7740    4.4970   -4.4520 F   0  0  0  0  0  0  0  0  0  0  0  0
   -2.5220    2.8670   -2.7990 C   0  0  0  0  0  0  0  0  0  0  0  0
   -3.0790    2.0170   -1.8910 C   0  0  0  0  0  0  0  0  0  0  0  0
   -2.3240    1.1890   -1.0930 C   0  0  0  0  0  0  0  0  0  0  0  0
   -0.9780    1.0850   -1.0760 N   0  0  0  0  0  0  0  0  0  0  0  0
   -0.6830    0.1620   -0.1500 C   0  0  0  0  0  0  0  0  0  0  0  0
    0.6770   -0.2640    0.1960 C   0  0  0  0  0  0  0  0  0  0  0  0
    0.9570   -1.2150    1.1510 C   0  0  0  0  0  0  0  0  0  0  0  0
    2.2810   -1.5730    1.4300 C   0  0  0  0  0  0  0  0  0  0  0  0
    3.3170   -0.9760    0.7500 C   0  0  0  0  0  0  0  0  0  0  0  0
    4.6170   -1.3530    1.0510 O   0  0  0  0  0  0  0  0  0  0  0  0
    5.7350   -0.7840    0.3950 C   0  0  2  0  0  0  0  0  0  0  0  0
    6.5100   -1.8460   -0.3470 C   0  0  0  0  0  0  0  0  0  0  0  0
    7.8640   -1.3880   -0.7760 C   0  0  0  0  0  0  0  0  0  0  0  0
    8.0760    0.0870   -0.5310 C   0  0  0  0  0  0  0  0  0  0  0  0
    7.9220    0.3190    0.9560 C   0  0  0  0  0  0  0  0  0  0  0  0
    6.5600   -0.0920    1.4530 C   0  0  0  0  0  0  0  0  0  0  0  0
    3.0190   -0.0510   -0.1760 N   0  0  0  0  0  0  0  0  0  0  0  0
    1.7430    0.3030   -0.4550 C   0  0  0  0  0  0  0  0  0  0  0  0
   -1.8270   -0.2570    0.3550 N   0  0  0  0  0  0  0  0  0  0  0  0
   -2.8620    0.3330   -0.1810 N   0  0  0  0  0  0  0  0  0  0  0  0
  1  2  1  0
  2  3  1  0
  3  4  2  0
  3  5  1  0
  5  6  1  0
  6  7  2  0
  6 36  1  0
  7  8  1  0
  7 11  1  0
  8  9  1  0
  9 10  2  0
 11 12  2  0
 11 18  1  0
 12 13  1  0
 13 14  1  0
 13 15  2  0
 15 16  1  0
 15 17  1  0
 17 18  2  0
 18 19  1  0
 19 20  2  0
 19 36  1  0
 20 21  1  0
 21 22  1  0
 21 35  2  0
 22 23  2  0
 22 34  1  0
 23 24  1  0
 24 25  2  0
 25 26  1  0
 25 33  1  0
 27 26  1  1
 27 28  1  0
 27 32  1  0
 28 29  1  0
 29 30  1  0
 30 31  1  0
 31 32  1  0
 33 34  2  0
 35 36  1  0
M  END
