
     RDKit          3D

 35 38  0  0  0  0  0  0  0  0999 V2000
   -1.0210    5.2320   -1.3270 C   0  0  0  0  0  0  0  0  0  0  0  0
   -0.5480    4.2790   -0.2500 C   0  0  0  0  0  0  0  0  0  0  0  0
   -1.3440    3.0500   -0.4050 N   0  0  0  0  0  0  0  0  0  0  0  0
   -0.7880    2.0560   -1.3110 C   0  0  0  0  0  0  0  0  0  0  0  0
    0.0610    1.0940   -0.6460 N   0  0  0  0  0  0  0  0  0  0  0  0
    1.4680    1.3210   -0.9510 C   0  0  0  0  0  0  0  0  0  0  0  0
    2.2720    0.0660   -0.8470 C   0  0  0  0  0  0  0  0  0  0  0  0
    3.2560    0.0230    0.0120 C   0  0  0  0  0  0  0  0  0  0  0  0
    3.5640    1.1740    0.8520 C   0  0  0  0  0  0  0  0  0  0  0  0
    4.0510   -1.1690    0.1520 N   0  0  0  0  0  0  0  0  0  0  0  0
    5.0890   -1.1110    1.1110 C   0  0  0  0  0  0  0  0  0  0  0  0
    5.8180   -2.3050    1.2670 N   0  0  0  0  0  0  0  0  0  0  0  0
    6.8890   -2.2950    2.2830 C   0  0  0  0  0  0  0  0  0  0  0  0
    5.5840   -3.3530    0.5780 C   0  0  0  0  0  0  0  0  0  0  0  0
    4.5420   -3.4230   -0.4300 C   0  0  0  0  0  0  0  0  0  0  0  0
    3.8040   -2.3230   -0.6170 C   0  0  0  0  0  0  0  0  0  0  0  0
    2.7300   -2.3520   -1.6520 C   0  0  0  0  0  0  0  0  0  0  0  0
    1.9800   -1.0950   -1.6740 C   0  0  0  0  0  0  0  0  0  0  0  0
    1.0010   -1.0270   -2.4830 O   0  0  0  0  0  0  0  0  0  0  0  0
   -2.5390    2.9570    0.2950 C   0  0  0  0  0  0  0  0  0  0  0  0
   -2.8810    3.9740    1.0100 O   0  0  0  0  0  0  0  0  0  0  0  0
   -3.4930    1.8170    0.3270 C   0  0  1  0  0  0  0  0  0  0  0  0
   -4.8900    2.3570   -0.1170 C   0  0  0  0  0  0  0  0  0  0  0  0
   -3.2420    0.6980   -0.3060 O   0  0  0  0  0  0  0  0  0  0  0  0
   -3.3460   -0.6020   -0.4310 C   0  0  0  0  0  0  0  0  0  0  0  0
   -2.6530   -1.2660   -1.4760 C   0  0  0  0  0  0  0  0  0  0  0  0
   -2.7160   -2.6150   -1.6620 C   0  0  0  0  0  0  0  0  0  0  0  0
   -3.4490   -3.3820   -0.8530 N   0  0  0  0  0  0  0  0  0  0  0  0
   -4.1370   -2.8360    0.1570 C   0  0  0  0  0  0  0  0  0  0  0  0
   -4.9040   -3.6650    0.9670 C   0  0  0  0  0  0  0  0  0  0  0  0
   -5.6450   -3.1710    2.0030 C   0  0  0  0  0  0  0  0  0  0  0  0
   -6.6080   -4.2190    3.0190 Cl  0  0  0  0  0  0  0  0  0  0  0  0
   -5.6070   -1.8150    2.2190 C   0  0  0  0  0  0  0  0  0  0  0  0
   -4.8410   -0.9820    1.4110 C   0  0  0  0  0  0  0  0  0  0  0  0
   -4.0900   -1.4650    0.3680 C   0  0  0  0  0  0  0  0  0  0  0  0
  1  2  1  0
  2  3  1  0
  3  4  1  0
  3 20  1  0
  4  5  1  0
  5  6  1  0
  6  7  1  0
  7  8  2  0
  7 18  1  0
  8  9  1  0
  8 10  1  0
 10 11  1  0
 10 16  1  0
 11 12  1  0
 12 13  1  0
 12 14  2  0
 14 15  1  0
 15 16  2  0
 16 17  1  0
 17 18  1  0
 18 19  2  0
 20 21  2  0
 20 22  1  0
 22 23  1  6
 22 24  1  0
 24 25  1  0
 25 26  2  0
 25 35  1  0
 26 27  1  0
 27 28  2  0
 28 29  1  0
 29 30  2  0
 29 35  1  0
 30 31  1  0
 31 32  1  0
 31 33  2  0
 33 34  1  0
 34 35  2  0
M  CHG  2   5   1  12   1
M  END
