
     RDKit          3D

 37 41  0  0  0  0  0  0  0  0999 V2000
   -2.9360   -4.7550   -0.0970 C   0  0  0  0  0  0  0  0  0  0  0  0
   -2.6040   -3.3910   -0.5020 N   0  0  1  0  0  0  0  0  0  0  0  0
   -3.1880   -2.4690    0.4150 C   0  0  0  0  0  0  0  0  0  0  0  0
   -2.2380   -1.8220    1.3510 C   0  0  0  0  0  0  0  0  0  0  0  0
   -1.1500   -1.1230    0.5060 C   0  0  2  0  0  0  0  0  0  0  0  0
   -0.2680   -0.3450    1.4550 C   0  0  0  0  0  0  0  0  0  0  0  0
    0.8780    0.2160    0.7580 N   0  0  0  0  0  0  0  0  0  0  0  0
    1.9930   -0.6770    0.5120 C   0  0  0  0  0  0  0  0  0  0  0  0
    1.9590   -1.8580    1.0040 O   0  0  0  0  0  0  0  0  0  0  0  0
    3.1470   -0.3420   -0.2670 C   0  0  0  0  0  0  0  0  0  0  0  0
    2.9570   -0.3420   -1.6610 C   0  0  0  0  0  0  0  0  0  0  0  0
    4.0520   -0.0900   -2.4510 C   0  0  0  0  0  0  0  0  0  0  0  0
    5.3080    0.1570   -1.8960 C   0  0  0  0  0  0  0  0  0  0  0  0
    5.4820    0.1580   -0.5120 C   0  0  0  0  0  0  0  0  0  0  0  0
    6.7870    0.4570    0.0630 C   0  0  0  0  0  0  0  0  0  0  0  0
    7.8590   -0.2820    0.1710 N   0  0  0  0  0  0  0  0  0  0  0  0
    8.8560    0.4290    0.6790 O   0  0  0  0  0  0  0  0  0  0  0  0
    8.4390    1.6660    0.9070 C   0  0  0  0  0  0  0  0  0  0  0  0
    9.2480    2.8150    1.4720 C   0  0  2  0  0  0  0  0  0  0  0  0
    9.4530    3.7210    0.4200 F   0  0  0  0  0  0  0  0  0  0  0  0
   10.4070    2.3780    2.0180 F   0  0  0  0  0  0  0  0  0  0  0  0
    8.3990    3.4750    2.3680 F   0  0  0  0  0  0  0  0  0  0  0  0
    7.1540    1.7030    0.5330 N   0  0  0  0  0  0  0  0  0  0  0  0
    4.3940   -0.0940    0.2830 C   0  0  0  0  0  0  0  0  0  0  0  0
   -1.9950    0.0160   -0.1120 C   0  0  0  0  0  0  0  0  0  0  0  0
   -2.9900    0.6560    0.1470 N   0  0  0  0  0  0  0  0  0  0  0  0
   -3.5170    1.6330   -0.5360 C   0  0  0  0  0  0  0  0  0  0  0  0
   -4.7510    2.3800   -0.1760 C   0  0  0  0  0  0  0  0  0  0  0  0
   -5.0170    3.5940   -0.7600 C   0  0  0  0  0  0  0  0  0  0  0  0
   -6.1470    4.3290   -0.4560 C   0  0  0  0  0  0  0  0  0  0  0  0
   -7.0380    3.8340    0.4570 C   0  0  0  0  0  0  0  0  0  0  0  0
   -6.7930    2.6140    1.0540 C   0  0  0  0  0  0  0  0  0  0  0  0
   -5.6610    1.9090    0.7280 C   0  0  0  0  0  0  0  0  0  0  0  0
   -2.8520    1.9750   -1.7210 C   0  0  0  0  0  0  0  0  0  0  0  0
   -1.4600    0.7900   -1.7230 S   0  0  0  0  0  0  0  0  0  0  0  0
   -0.6490   -1.9270   -0.5580 C   0  0  0  0  0  0  0  0  0  0  0  0
   -1.1730   -3.3590   -0.5930 C   0  0  0  0  0  0  0  0  0  0  0  0
  2  1  1  1
  2  3  1  0
  2 37  1  0
  3  4  1  0
  4  5  1  0
  5  6  1  1
  5 25  1  0
  5 36  1  0
  6  7  1  0
  7  8  1  0
  8  9  2  0
  8 10  1  0
 10 11  2  0
 10 24  1  0
 11 12  1  0
 12 13  2  0
 13 14  1  0
 14 15  1  0
 14 24  2  0
 15 16  2  0
 15 23  1  0
 16 17  1  0
 17 18  1  0
 18 19  1  0
 18 23  2  0
 19 20  1  6
 19 21  1  0
 19 22  1  0
 25 26  2  0
 25 35  1  0
 26 27  1  0
 27 28  1  0
 27 34  2  0
 28 29  2  0
 28 33  1  0
 29 30  1  0
 30 31  2  0
 31 32  1  0
 32 33  2  0
 34 35  1  0
 36 37  1  0
M  CHG  1   2   1
M  END
