
     RDKit          3D

 36 39  0  0  0  0  0  0  0  0999 V2000
   10.7790    2.1130   -0.5960 C   0  0  0  0  0  0  0  0  0  0  0  0
    9.7490    1.1520   -0.0770 C   0  0  0  0  0  0  0  0  0  0  0  0
    9.3160    0.0910   -0.8450 C   0  0  0  0  0  0  0  0  0  0  0  0
    8.3660   -0.8010   -0.3730 C   0  0  0  0  0  0  0  0  0  0  0  0
    7.8630   -0.6020    0.8830 C   0  0  0  0  0  0  0  0  0  0  0  0
    8.3050    0.4630    1.6380 C   0  0  0  0  0  0  0  0  0  0  0  0
    9.2510    1.3660    1.1900 C   0  0  0  0  0  0  0  0  0  0  0  0
    9.6930    2.4630    1.9920 N   0  0  0  0  0  0  0  0  0  0  0  0
    6.8430   -1.5600    1.3860 C   0  0  0  0  0  0  0  0  0  0  0  0
    6.0230   -1.9180    0.2480 N   0  0  0  0  0  0  0  0  0  0  0  0
    4.6470   -1.6450    0.2950 C   0  0  0  0  0  0  0  0  0  0  0  0
    3.9510   -1.9560   -0.6950 O   0  0  0  0  0  0  0  0  0  0  0  0
    4.0430   -1.0210    1.4590 C   0  0  0  0  0  0  0  0  0  0  0  0
    2.6510   -0.8020    1.3450 O   0  0  0  0  0  0  0  0  0  0  0  0
    2.0780   -0.0160    0.3790 C   0  0  0  0  0  0  0  0  0  0  0  0
    2.8060    0.5380   -0.4420 O   0  0  0  0  0  0  0  0  0  0  0  0
    0.6240    0.1930    0.2840 C   0  0  0  0  0  0  0  0  0  0  0  0
   -0.0630    0.9690   -0.6420 C   0  0  0  0  0  0  0  0  0  0  0  0
   -1.3960    1.0010   -0.5250 C   0  0  0  0  0  0  0  0  0  0  0  0
   -2.0620    0.3400    0.4150 C   0  0  0  0  0  0  0  0  0  0  0  0
   -3.4290    0.1420    0.8420 C   0  0  0  0  0  0  0  0  0  0  0  0
   -4.2540   -0.3510   -0.2620 N   0  0  0  0  0  0  0  0  0  0  0  0
   -5.6030   -0.5160    0.2770 C   0  0  1  0  0  0  0  0  0  0  0  0
   -6.1960    0.7470    0.7460 C   0  0  0  0  0  0  0  0  0  0  0  0
   -7.6320    1.0030    0.4960 C   0  0  2  0  0  0  0  0  0  0  0  0
   -7.8630    2.4900    0.7880 C   0  0  0  0  0  0  0  0  0  0  0  0
   -8.4300    0.2490    1.5340 C   0  0  0  0  0  0  0  0  0  0  0  0
   -8.0960    0.7030   -0.8950 C   0  0  0  0  0  0  0  0  0  0  0  0
   -7.2850   -0.3250   -1.6080 C   0  0  1  0  0  0  0  0  0  0  0  0
   -8.1560   -1.2470   -2.4350 C   0  0  0  0  0  0  0  0  0  0  0  0
   -6.3100    0.3150   -2.5760 C   0  0  0  0  0  0  0  0  0  0  0  0
   -6.4840   -1.2030   -0.6870 C   0  0  2  0  0  0  0  0  0  0  0  0
   -7.3190   -2.1110   -0.0290 O   0  0  0  0  0  0  0  0  0  0  0  0
   -0.6240   -0.4650    1.2890 S   0  0  0  0  0  0  0  0  0  0  0  0
    6.6480   -2.5340   -0.8770 C   0  0  0  0  0  0  0  0  0  0  0  0
    7.9610   -1.9110   -1.2670 C   0  0  0  0  0  0  0  0  0  0  0  0
  1  2  1  0
  2  3  2  0
  2  7  1  0
  3  4  1  0
  4  5  2  0
  4 36  1  0
  5  6  1  0
  5  9  1  0
  6  7  2  0
  7  8  1  0
  9 10  1  0
 10 11  1  0
 10 35  1  0
 11 12  2  0
 11 13  1  0
 13 14  1  0
 14 15  1  0
 15 16  2  0
 15 17  1  0
 17 18  2  0
 17 34  1  0
 18 19  1  0
 19 20  2  0
 20 21  1  0
 20 34  1  0
 21 22  1  0
 23 22  1  6
 23 24  1  0
 23 32  1  0
 24 25  1  0
 25 26  1  1
 25 27  1  0
 25 28  1  0
 28 29  1  0
 29 30  1  6
 29 31  1  0
 29 32  1  0
 32 33  1  1
 35 36  1  0
M  END
