
     RDKit          3D

 37 39  0  0  0  0  0  0  0  0999 V2000
   -6.1470    3.7040    0.6880 C   0  0  0  0  0  0  0  0  0  0  0  0
   -5.9260    2.3710    0.1270 C   0  0  0  0  0  0  0  0  0  0  0  0
   -4.7530    1.7990   -0.0280 C   0  0  0  0  0  0  0  0  0  0  0  0
   -4.6260    0.4720   -0.5940 C   0  0  0  0  0  0  0  0  0  0  0  0
   -3.4370   -0.1250   -0.8360 C   0  0  0  0  0  0  0  0  0  0  0  0
   -3.5180   -1.4640   -1.4060 C   0  0  0  0  0  0  0  0  0  0  0  0
   -4.2070   -2.4110   -0.8390 C   0  0  0  0  0  0  0  0  0  0  0  0
   -5.0090   -2.5080    0.3590 C   0  0  0  0  0  0  0  0  0  0  0  0
   -5.1670   -1.4600    1.1920 O   0  0  0  0  0  0  0  0  0  0  0  0
   -2.7580   -1.8340   -2.6770 C   0  0  0  0  0  0  0  0  0  0  0  0
   -2.1980   -3.2000   -2.5820 C   0  0  0  0  0  0  0  0  0  0  0  0
   -2.8200   -4.1770   -3.1220 O   0  0  0  0  0  0  0  0  0  0  0  0
   -0.9940   -3.5120   -1.9210 N   0  0  0  0  0  0  0  0  0  0  0  0
   -0.5610   -2.9030   -0.6910 C   0  0  0  0  0  0  0  0  0  0  0  0
    0.6090   -1.9920   -0.8110 C   0  0  2  0  0  0  0  0  0  0  0  0
    1.6470   -2.6710   -1.4580 O   0  0  0  0  0  0  0  0  0  0  0  0
    1.0330   -1.6380    0.6260 C   0  0  0  0  0  0  0  0  0  0  0  0
    1.5840   -0.3060    0.6780 N   0  0  0  0  0  0  0  0  0  0  0  0
    3.0200   -0.1650    0.4310 C   0  0  0  0  0  0  0  0  0  0  0  0
    3.8730   -0.1150    1.6420 C   0  0  1  0  0  0  0  0  0  0  0  0
    3.5620    1.0420    2.5700 C   0  0  0  0  0  0  0  0  0  0  0  0
    3.5080   -1.3540    2.5130 C   0  0  0  0  0  0  0  0  0  0  0  0
    5.5890   -0.3020    1.2330 S   0  0  0  0  0  0  0  0  0  0  0  0
    6.3840    0.9230    0.3090 C   0  0  0  0  0  0  0  0  0  0  0  0
    5.7800    2.0550   -0.1520 C   0  0  0  0  0  0  0  0  0  0  0  0
    6.4970    3.0110   -0.9000 C   0  0  0  0  0  0  0  0  0  0  0  0
    7.8220    2.8450   -1.1950 C   0  0  0  0  0  0  0  0  0  0  0  0
    8.4450    1.7040   -0.7350 C   0  0  0  0  0  0  0  0  0  0  0  0
    7.7470    0.7740   -0.0060 C   0  0  0  0  0  0  0  0  0  0  0  0
    0.8020    0.8570    0.9090 C   0  0  0  0  0  0  0  0  0  0  0  0
    1.3790    1.9720    0.6520 O   0  0  0  0  0  0  0  0  0  0  0  0
   -0.5300    0.9060    1.3900 N   0  0  0  0  0  0  0  0  0  0  0  0
   -1.6850    0.3450    0.8050 C   0  0  0  0  0  0  0  0  0  0  0  0
   -2.3310   -0.4690    1.5630 O   0  0  0  0  0  0  0  0  0  0  0  0
   -2.1950    0.6090   -0.5600 C   0  0  2  0  0  0  0  0  0  0  0  0
   -2.4960    2.1040   -0.7610 C   0  0  0  0  0  0  0  0  0  0  0  0
   -3.4750    2.4660    0.3650 C   0  0  0  0  0  0  0  0  0  0  0  0
  1  2  1  0
  2  3  2  3
  3  4  1  0
  3 37  1  0
  4  5  2  0
  5  6  1  0
  5 35  1  0
  6  7  2  3
  6 10  1  0
  7  8  1  0
  8  9  1  0
 10 11  1  0
 11 12  2  0
 11 13  1  0
 13 14  1  0
 14 15  1  0
 15 16  1  1
 15 17  1  0
 17 18  1  0
 18 19  1  0
 18 30  1  0
 19 20  1  0
 20 21  1  1
 20 22  1  0
 20 23  1  0
 23 24  1  0
 24 25  2  0
 24 29  1  0
 25 26  1  0
 26 27  2  0
 27 28  1  0
 28 29  2  0
 30 31  2  0
 30 32  1  0
 32 33  1  0
 33 34  2  0
 33 35  1  0
 35 36  1  1
 36 37  1  0
M  END
