
     RDKit          3D

 22 23  0  0  0  0  0  0  0  0999 V2000
   -3.1520    2.6420   -1.4260 O   0  0  0  0  0  0  0  0  0  0  0  0
   -3.9080    1.6490   -0.8060 C   0  0  0  0  0  0  0  0  0  0  0  0
   -3.0330    0.4490   -0.5320 C   0  0  1  0  0  0  0  0  0  0  0  0
   -1.9620    0.7680    0.3010 O   0  0  0  0  0  0  0  0  0  0  0  0
   -1.0660   -0.3090    0.2040 C   0  0  1  0  0  0  0  0  0  0  0  0
    0.1490    0.1450    0.6570 O   0  0  0  0  0  0  0  0  0  0  0  0
    1.1480    0.1850   -0.3040 C   0  0  1  0  0  0  0  0  0  0  0  0
    1.7710    1.5190   -0.4770 C   0  0  2  0  0  0  0  0  0  0  0  0
    1.5150    1.9650   -1.7940 O   0  0  0  0  0  0  0  0  0  0  0  0
    3.1990    1.6570   -0.1880 C   0  0  1  0  0  0  0  0  0  0  0  0
    3.4400    2.9770    0.2710 O   0  0  0  0  0  0  0  0  0  0  0  0
    3.7960    0.7710    0.7410 N   0  0  0  0  0  0  0  0  0  0  0  0
    2.9890   -0.3340    1.1620 C   0  0  0  0  0  0  0  0  0  0  0  0
    2.1290   -0.9040    0.0860 C   0  0  2  0  0  0  0  0  0  0  0  0
    2.8880   -1.4440   -1.0840 C   0  0  0  0  0  0  0  0  0  0  0  0
    3.7510   -2.4220   -0.6390 O   0  0  0  0  0  0  0  0  0  0  0  0
   -1.6440   -1.4220    1.0470 C   0  0  2  0  0  0  0  0  0  0  0  0
   -1.5530   -2.6170    0.3340 O   0  0  0  0  0  0  0  0  0  0  0  0
   -3.1290   -1.1690    1.3330 C   0  0  1  0  0  0  0  0  0  0  0  0
   -3.1630   -0.1390    2.2870 O   0  0  0  0  0  0  0  0  0  0  0  0
   -3.7860   -0.7070    0.0340 C   0  0  2  0  0  0  0  0  0  0  0  0
   -3.7390   -1.8320   -0.8220 O   0  0  0  0  0  0  0  0  0  0  0  0
  1  2  1  0
  3  2  1  1
  3  4  1  0
  3 21  1  0
  4  5  1  0
  5  6  1  1
  5 17  1  0
  7  6  1  1
  7  8  1  0
  7 14  1  0
  8  9  1  6
  8 10  1  0
 10 11  1  1
 10 12  1  0
 12 13  1  0
 13 14  1  0
 14 15  1  6
 15 16  1  0
 17 18  1  6
 17 19  1  0
 19 20  1  1
 19 21  1  0
 21 22  1  6
M  CHG  1  12   1
M  END
