
     RDKit          3D

 21 21  0  0  0  0  0  0  0  0999 V2000
   -1.5460   -1.4920   -1.8710 C   0  0  0  0  0  0  0  0  0  0  0  0
   -0.8330   -0.7700   -0.7170 C   0  0  1  0  0  0  0  0  0  0  0  0
   -1.0470   -1.5640    0.4100 O   0  0  0  0  0  0  0  0  0  0  0  0
    0.4840   -0.6810   -1.0700 O   0  0  0  0  0  0  0  0  0  0  0  0
    1.2790    0.0440   -0.2230 C   0  0  2  0  0  0  0  0  0  0  0  0
    2.2680   -0.7290    0.3850 O   0  0  0  0  0  0  0  0  0  0  0  0
    3.5200   -0.2350    0.0190 C   0  0  0  0  0  0  0  0  0  0  0  0
    4.5750   -1.0890    0.6900 C   0  0  1  0  0  0  0  0  0  0  0  0
    4.3990   -2.3880    0.2430 O   0  0  0  0  0  0  0  0  0  0  0  0
    5.9270   -0.5560    0.2580 C   0  0  0  0  0  0  0  0  0  0  0  0
    6.0800    0.8040    0.7400 N   0  0  0  0  0  0  0  0  0  0  0  0
    0.4620    0.8070    0.8220 C   0  0  1  0  0  0  0  0  0  0  0  0
    1.3180    1.6920    1.4740 O   0  0  0  0  0  0  0  0  0  0  0  0
   -0.5680    1.5790    0.0210 C   0  0  0  0  0  0  0  0  0  0  0  0
   -1.5140    0.5870   -0.5850 C   0  0  2  0  0  0  0  0  0  0  0  0
   -2.7060    0.4730    0.0790 O   0  0  0  0  0  0  0  0  0  0  0  0
   -3.7850    0.7860   -0.7430 C   0  0  0  0  0  0  0  0  0  0  0  0
   -5.1040    0.6630   -0.0210 C   0  0  1  0  0  0  0  0  0  0  0  0
   -6.0980    1.0070   -0.9680 O   0  0  0  0  0  0  0  0  0  0  0  0
   -5.3990   -0.7760    0.3690 C   0  0  0  0  0  0  0  0  0  0  0  0
   -6.6930   -0.7830    0.9110 O   0  0  0  0  0  0  0  0  0  0  0  0
  2  1  1  6
  2  3  1  0
  2  4  1  0
  2 15  1  0
  4  5  1  0
  5  6  1  1
  5 12  1  0
  6  7  1  0
  7  8  1  0
  8  9  1  6
  8 10  1  0
 10 11  1  0
 12 13  1  6
 12 14  1  0
 14 15  1  0
 15 16  1  1
 16 17  1  0
 17 18  1  0
 18 19  1  6
 18 20  1  0
 20 21  1  0
M  CHG  1  11   1
M  END
