
     RDKit          3D

 21 21  0  0  0  0  0  0  0  0999 V2000
    5.8030   -0.8320    0.4380 O   0  0  0  0  0  0  0  0  0  0  0  0
    4.7340    0.0320    0.1600 C   0  0  0  0  0  0  0  0  0  0  0  0
    3.8320   -0.6770   -0.8080 C   0  0  0  0  0  0  0  0  0  0  0  0
    2.7260    0.0580   -1.1770 O   0  0  0  0  0  0  0  0  0  0  0  0
    1.9090    0.4040   -0.1250 C   0  0  2  0  0  0  0  0  0  0  0  0
    0.5030   -0.0700   -0.4270 C   0  0  0  0  0  0  0  0  0  0  0  0
    0.2430   -1.4460   -0.0650 N   0  0  0  0  0  0  0  0  0  0  0  0
   -1.1510   -1.5730    0.3490 C   0  0  2  0  0  0  0  0  0  0  0  0
   -1.5210   -3.0360    0.2040 C   0  0  0  0  0  0  0  0  0  0  0  0
   -0.7150   -3.8220    0.9980 O   0  0  0  0  0  0  0  0  0  0  0  0
   -2.0740   -0.6810   -0.4230 C   0  0  1  0  0  0  0  0  0  0  0  0
   -2.6680   -1.5260   -1.4030 O   0  0  0  0  0  0  0  0  0  0  0  0
   -3.2250   -0.1700    0.3680 C   0  0  0  0  0  0  0  0  0  0  0  0
   -4.0860   -1.1820    0.8400 O   0  0  0  0  0  0  0  0  0  0  0  0
   -3.4700    1.1060    0.6370 C   0  0  0  0  0  0  0  0  0  0  0  0
   -4.6540    1.2700    1.4170 O   0  0  0  0  0  0  0  0  0  0  0  0
   -2.6560    2.0590    0.1920 O   0  0  0  0  0  0  0  0  0  0  0  0
   -1.6670    2.8970    0.5970 C   0  0  0  0  0  0  0  0  0  0  0  0
   -0.3780    2.8660   -0.2190 C   0  0  0  0  0  0  0  0  0  0  0  0
    0.6280    2.2960    0.5410 O   0  0  0  0  0  0  0  0  0  0  0  0
    1.7660    1.9440   -0.1430 C   0  0  0  0  0  0  0  0  0  0  0  0
  1  2  1  0
  2  3  1  0
  3  4  1  0
  5  4  1  6
  5  6  1  0
  5 21  1  0
  6  7  1  0
  7  8  1  0
  8  9  1  6
  8 11  1  0
  9 10  1  0
 11 12  1  6
 11 13  1  0
 13 14  1  0
 13 15  2  0
 15 16  1  0
 15 17  1  0
 17 18  1  0
 18 19  1  0
 19 20  1  0
 20 21  1  0
M  CHG  1   7   1
M  END
