
     RDKit          3D

 27 29  0  0  0  0  0  0  0  0999 V2000
   -2.9350    4.2840   -0.8760 C   0  0  0  0  0  0  0  0  0  0  0  0
   -3.3450    2.8870   -0.3200 C   0  0  0  0  0  0  0  0  0  0  0  0
   -2.2670    1.8910   -0.7090 C   0  0  0  0  0  0  0  0  0  0  0  0
   -2.5480    0.4630   -0.1610 C   0  0  1  0  0  0  0  0  0  0  0  0
   -2.5180    0.6960    1.3050 C   0  0  0  0  0  0  0  0  0  0  0  0
   -3.9750    0.2410   -0.6520 C   0  0  0  0  0  0  0  0  0  0  0  0
   -4.6700   -1.0110   -0.3550 C   0  0  0  0  0  0  0  0  0  0  0  0
   -1.5330   -0.4660   -0.7380 C   0  0  1  0  0  0  0  0  0  0  0  0
   -1.7540   -0.4740   -2.1500 O   0  0  0  0  0  0  0  0  0  0  0  0
   -0.1230    0.1540   -0.7070 C   0  0  0  0  0  0  0  0  0  0  0  0
    0.7930   -0.3920    0.3450 C   0  0  2  0  0  0  0  0  0  0  0  0
    2.1680    0.1650    0.1610 C   0  0  1  0  0  0  0  0  0  0  0  0
    2.2790    1.6510    0.2290 C   0  0  0  0  0  0  0  0  0  0  0  0
    3.7730    1.9340    0.4510 C   0  0  2  0  0  0  0  0  0  0  0  0
    4.2020    3.2020   -0.2340 C   0  0  0  0  0  0  0  0  0  0  0  0
    4.6150    0.7990   -0.1410 C   0  0  0  0  0  0  0  0  0  0  0  0
    4.4580   -0.4750    0.6600 C   0  0  1  0  0  0  0  0  0  0  0  0
    4.7880   -1.6860   -0.1760 C   0  0  0  0  0  0  0  0  0  0  0  0
    5.3470   -0.4920    1.7530 O   0  0  0  0  0  0  0  0  0  0  0  0
    3.0700   -0.5040    1.2060 C   0  0  0  0  0  0  0  0  0  0  0  0
    0.9450   -1.8920    0.2420 C   0  0  0  0  0  0  0  0  0  0  0  0
   -0.0600   -2.3590   -0.7670 C   0  0  1  0  0  0  0  0  0  0  0  0
   -0.2500   -3.7270   -0.5340 O   0  0  0  0  0  0  0  0  0  0  0  0
   -0.9160   -3.8180    0.6770 C   0  0  0  0  0  0  0  0  0  0  0  0
   -1.5710   -2.4400    0.9230 C   0  0  0  0  0  0  0  0  0  0  0  0
   -1.5070   -1.8820   -0.4200 C   0  0  1  0  0  0  0  0  0  0  0  0
   -2.3140   -2.8030   -1.3430 C   0  0  0  0  0  0  0  0  0  0  0  0
  1  2  1  0
  2  3  1  0
  3  4  1  0
  4  5  1  1
  4  6  1  0
  4  8  1  0
  6  7  1  0
  8  9  1  6
  8 10  1  0
  8 26  1  0
 11 10  1  6
 11 12  1  0
 11 21  1  0
 12 13  1  1
 12 20  1  0
 13 14  1  0
 14 15  1  6
 14 16  1  0
 16 17  1  0
 17 18  1  6
 17 19  1  0
 17 20  1  0
 22 21  1  1
 22 23  1  0
 22 26  1  0
 23 24  1  0
 24 25  1  0
 25 26  1  0
 26 27  1  6
M  END
