
     RDKit          3D

 28 31  0  0  0  0  0  0  0  0999 V2000
    2.1810   -2.3360   -0.7930 C   0  0  0  0  0  0  0  0  0  0  0  0
    1.5460   -0.9710   -0.7570 C   0  0  2  0  0  0  0  0  0  0  0  0
    1.6530   -0.3880   -2.1540 C   0  0  0  0  0  0  0  0  0  0  0  0
    2.1860   -0.1020    0.1200 O   0  0  0  0  0  0  0  0  0  0  0  0
    3.5010    0.1140   -0.1840 C   0  0  2  0  0  0  0  0  0  0  0  0
    4.3290   -0.3700    1.0100 C   0  0  0  0  0  0  0  0  0  0  0  0
    5.8030   -0.2770    0.7460 C   0  0  0  0  0  0  0  0  0  0  0  0
    6.0860    0.7270   -0.3680 C   0  0  0  0  0  0  0  0  0  0  0  0
    5.2270    1.9380   -0.0770 C   0  0  0  0  0  0  0  0  0  0  0  0
    3.8010    1.6000   -0.4130 C   0  0  2  0  0  0  0  0  0  0  0  0
    2.9380    2.3990    0.3260 O   0  0  0  0  0  0  0  0  0  0  0  0
    0.0870   -1.1140   -0.4400 C   0  0  1  0  0  0  0  0  0  0  0  0
   -0.5060   -1.9850   -1.3370 O   0  0  0  0  0  0  0  0  0  0  0  0
   -0.1560   -1.5680    0.9810 C   0  0  0  0  0  0  0  0  0  0  0  0
   -1.6360   -1.9980    1.0070 C   0  0  1  0  0  0  0  0  0  0  0  0
   -1.8540   -2.6410    2.3220 C   0  0  0  0  0  0  0  0  0  0  0  0
   -2.6580   -1.8500    3.3060 C   0  0  0  0  0  0  0  0  0  0  0  0
   -3.9740   -1.5790    2.5630 C   0  0  0  0  0  0  0  0  0  0  0  0
   -3.6440   -0.5540    1.5300 C   0  0  0  0  0  0  0  0  0  0  0  0
   -2.5430   -0.9210    0.5940 C   0  0  1  0  0  0  0  0  0  0  0  0
   -1.8240    0.3920    0.2420 C   0  0  2  0  0  0  0  0  0  0  0  0
   -2.8570    1.3090   -0.3690 C   0  0  2  0  0  0  0  0  0  0  0  0
   -3.4920    0.7680   -1.6080 C   0  0  0  0  0  0  0  0  0  0  0  0
   -4.1570    1.9460   -2.3130 C   0  0  0  0  0  0  0  0  0  0  0  0
   -4.5210    3.0360   -1.3270 C   0  0  0  0  0  0  0  0  0  0  0  0
   -3.4090    3.5560   -0.6820 O   0  0  0  0  0  0  0  0  0  0  0  0
   -2.3330    2.6760   -0.6610 C   0  0  0  0  0  0  0  0  0  0  0  0
   -0.6100    0.2220   -0.5700 C   0  0  0  0  0  0  0  0  0  0  0  0
  2  1  1  6
  2  3  1  0
  2  4  1  0
  2 12  1  0
  5  4  1  1
  5  6  1  0
  5 10  1  0
  6  7  1  0
  7  8  1  0
  8  9  1  0
  9 10  1  0
 10 11  1  1
 12 13  1  6
 12 14  1  0
 12 28  1  0
 15 14  1  1
 15 16  1  0
 15 20  1  0
 16 17  1  0
 17 18  1  0
 18 19  1  0
 20 19  1  1
 20 21  1  0
 21 22  1  0
 21 28  1  6
 22 23  1  6
 22 27  1  0
 23 24  1  0
 24 25  1  0
 25 26  1  0
 26 27  1  0
M  END
