
     RDKit          3D

 28 30  0  0  0  0  0  0  0  0999 V2000
    2.7500    1.0190    2.2690 C   0  0  0  0  0  0  0  0  0  0  0  0
    3.7940    0.6620    1.2540 C   0  0  2  0  0  0  0  0  0  0  0  0
    4.1480    1.8260    0.3990 C   0  0  0  0  0  0  0  0  0  0  0  0
    3.9830    1.8130   -0.8260 O   0  0  0  0  0  0  0  0  0  0  0  0
    4.6750    2.9500    1.0020 O   0  0  0  0  0  0  0  0  0  0  0  0
    3.5580   -0.5900    0.5520 C   0  0  2  0  0  0  0  0  0  0  0  0
    4.8510   -0.7490   -0.3660 C   0  0  0  0  0  0  0  0  0  0  0  0
    4.9680   -2.2300   -0.4400 C   0  0  0  0  0  0  0  0  0  0  0  0
    3.8630   -2.8790   -0.7080 C   0  0  0  0  0  0  0  0  0  0  0  0
    2.5780   -2.1940   -0.9280 C   0  0  0  0  0  0  0  0  0  0  0  0
    2.4350   -0.7810   -0.4360 C   0  0  1  0  0  0  0  0  0  0  0  0
    1.1210   -0.5160    0.1440 C   0  0  0  0  0  0  0  0  0  0  0  0
   -0.1540   -0.6400   -0.6400 C   0  0  2  0  0  0  0  0  0  0  0  0
   -0.4990   -1.9630   -1.1650 C   0  0  0  0  0  0  0  0  0  0  0  0
    0.1540    0.0840   -1.8600 O   0  0  0  0  0  0  0  0  0  0  0  0
   -1.2120    0.2360   -0.0370 C   0  0  2  0  0  0  0  0  0  0  0  0
   -1.3280   -0.2060    1.4060 C   0  0  0  0  0  0  0  0  0  0  0  0
   -2.7720   -0.3210    1.7890 C   0  0  0  0  0  0  0  0  0  0  0  0
   -3.4090   -0.6990    0.4690 C   0  0  2  0  0  0  0  0  0  0  0  0
   -4.8760   -0.2790    0.5890 C   0  0  0  0  0  0  0  0  0  0  0  0
   -3.4120   -2.1540    0.2570 C   0  0  0  0  0  0  0  0  0  0  0  0
   -2.6170    0.1680   -0.4790 C   0  0  2  0  0  0  0  0  0  0  0  0
   -2.9800   -0.0800   -1.8750 C   0  0  0  0  0  0  0  0  0  0  0  0
   -3.2560    1.5510   -0.1650 C   0  0  0  0  0  0  0  0  0  0  0  0
   -2.7860    2.6200   -1.1030 C   0  0  0  0  0  0  0  0  0  0  0  0
   -1.3130    2.4960   -1.1670 C   0  0  0  0  0  0  0  0  0  0  0  0
   -0.7240    1.6570   -0.0420 C   0  0  1  0  0  0  0  0  0  0  0  0
   -0.9150    2.3050    1.2000 O   0  0  0  0  0  0  0  0  0  0  0  0
  2  1  1  6
  2  3  1  0
  2  6  1  0
  3  4  2  0
  3  5  1  0
  6  7  1  6
  6 11  1  0
  7  8  1  0
  8  9  2  0
  9 10  1  0
 10 11  1  0
 11 12  1  1
 12 13  1  0
 13 14  1  6
 13 15  1  0
 13 16  1  0
 16 17  1  1
 16 22  1  0
 16 27  1  0
 17 18  1  0
 18 19  1  0
 19 20  1  1
 19 21  1  0
 19 22  1  0
 22 23  1  6
 22 24  1  0
 24 25  1  0
 25 26  1  0
 26 27  1  0
 27 28  1  1
M  END
