
     RDKit          3D

 28 30  0  0  0  0  0  0  0  0999 V2000
   -6.7560    0.6750    1.0450 C   0  0  0  0  0  0  0  0  0  0  0  0
   -6.0380    0.3560    2.3500 C   0  0  0  0  0  0  0  0  0  0  0  0
   -4.5640    0.6480    2.1870 C   0  0  0  0  0  0  0  0  0  0  0  0
   -4.0210   -0.1880    1.0890 C   0  0  2  0  0  0  0  0  0  0  0  0
   -4.1280   -1.6610    1.2580 C   0  0  0  0  0  0  0  0  0  0  0  0
   -3.7740   -2.3290   -0.0750 C   0  0  0  0  0  0  0  0  0  0  0  0
   -2.3320   -1.9710   -0.3740 C   0  0  2  0  0  0  0  0  0  0  0  0
   -1.5900   -2.3940    0.7410 O   0  0  0  0  0  0  0  0  0  0  0  0
   -2.2810   -0.4820   -0.5530 C   0  0  2  0  0  0  0  0  0  0  0  0
   -1.0310   -0.0200   -1.2170 C   0  0  2  0  0  0  0  0  0  0  0  0
    0.2250   -0.3610   -0.4850 C   0  0  0  0  0  0  0  0  0  0  0  0
    1.3670    0.0470   -1.4270 C   0  0  2  0  0  0  0  0  0  0  0  0
    2.3280    0.8970   -0.6860 C   0  0  0  0  0  0  0  0  0  0  0  0
    2.9150    0.1980    0.4860 C   0  0  1  0  0  0  0  0  0  0  0  0
    3.6830   -1.0410    0.1510 C   0  0  0  0  0  0  0  0  0  0  0  0
    5.1400   -0.7220   -0.1630 C   0  0  0  0  0  0  0  0  0  0  0  0
    5.7750   -0.3700    1.1760 C   0  0  2  0  0  0  0  0  0  0  0  0
    6.3340   -1.6630    1.7460 C   0  0  0  0  0  0  0  0  0  0  0  0
    7.2730   -2.1440    0.8380 O   0  0  0  0  0  0  0  0  0  0  0  0
    4.7430    0.2350    2.1150 C   0  0  0  0  0  0  0  0  0  0  0  0
    3.7970    1.1080    1.3240 C   0  0  1  0  0  0  0  0  0  0  0  0
    4.5280    1.9960    0.5380 O   0  0  0  0  0  0  0  0  0  0  0  0
    0.8180    0.7090   -2.6700 C   0  0  0  0  0  0  0  0  0  0  0  0
   -0.2890    1.6780   -2.4390 C   0  0  2  0  0  0  0  0  0  0  0  0
   -1.2930    1.6260   -3.5990 C   0  0  0  0  0  0  0  0  0  0  0  0
    0.2410    3.0900   -2.3650 C   0  0  0  0  0  0  0  0  0  0  0  0
   -1.0580    1.3870   -1.3010 O   0  0  0  0  0  0  0  0  0  0  0  0
   -2.5560    0.1520    0.7750 C   0  0  0  0  0  0  0  0  0  0  0  0
  1  2  1  0
  2  3  1  0
  4  3  1  1
  4  5  1  0
  4 28  1  0
  5  6  1  0
  6  7  1  0
  7  8  1  1
  7  9  1  0
  9 10  1  0
  9 28  1  1
 10 11  1  1
 10 27  1  0
 11 12  1  0
 12 13  1  1
 12 23  1  0
 14 13  1  6
 14 15  1  0
 14 21  1  0
 15 16  1  0
 16 17  1  0
 17 18  1  1
 17 20  1  0
 18 19  1  0
 20 21  1  0
 21 22  1  6
 23 24  1  0
 24 25  1  6
 24 26  1  0
 24 27  1  0
M  END
