
     RDKit          3D

 28 31  0  0  0  0  0  0  0  0999 V2000
    1.0430    0.3720    1.9150 C   0  0  0  0  0  0  0  0  0  0  0  0
    1.2370   -0.2510    0.5510 C   0  0  2  0  0  0  0  0  0  0  0  0
    1.0010   -1.7610    0.6250 C   0  0  0  0  0  0  0  0  0  0  0  0
    2.6330   -0.0170    0.0950 C   0  0  2  0  0  0  0  0  0  0  0  0
    2.8080   -0.5830   -1.1660 O   0  0  0  0  0  0  0  0  0  0  0  0
    3.6730   -0.6520    0.9940 C   0  0  0  0  0  0  0  0  0  0  0  0
    5.0730   -0.3720    0.4970 C   0  0  1  0  0  0  0  0  0  0  0  0
    5.3640    1.1100    0.4410 C   0  0  0  0  0  0  0  0  0  0  0  0
    6.0440   -0.9620    1.5320 C   0  0  0  0  0  0  0  0  0  0  0  0
    7.0740   -1.6230    0.6340 C   0  0  0  0  0  0  0  0  0  0  0  0
    6.8750   -1.1020   -0.6510 O   0  0  0  0  0  0  0  0  0  0  0  0
    5.4620   -1.1110   -0.7350 C   0  0  0  0  0  0  0  0  0  0  0  0
    0.2780    0.3150   -0.4860 C   0  0  2  0  0  0  0  0  0  0  0  0
    0.5360    1.7950   -0.5730 C   0  0  0  0  0  0  0  0  0  0  0  0
   -0.4710    2.2870   -1.6150 C   0  0  0  0  0  0  0  0  0  0  0  0
   -1.6830    2.2700   -1.0390 O   0  0  0  0  0  0  0  0  0  0  0  0
   -2.1210    1.1570   -0.3840 C   0  0  1  0  0  0  0  0  0  0  0  0
   -2.5520    1.6730    0.8710 O   0  0  0  0  0  0  0  0  0  0  0  0
   -3.3760    0.6640   -1.0580 C   0  0  2  0  0  0  0  0  0  0  0  0
   -3.1250    0.2780   -2.5110 C   0  0  0  0  0  0  0  0  0  0  0  0
   -4.3270    1.8740   -1.1450 C   0  0  0  0  0  0  0  0  0  0  0  0
   -5.5240    1.5340   -0.2790 C   0  0  0  0  0  0  0  0  0  0  0  0
   -5.1050    0.4140    0.5590 C   0  0  1  0  0  0  0  0  0  0  0  0
   -6.0590   -0.6890    0.8110 C   0  0  0  0  0  0  0  0  0  0  0  0
   -5.1540   -1.9010    0.9390 C   0  0  0  0  0  0  0  0  0  0  0  0
   -3.7910   -1.4610    0.3610 C   0  0  0  0  0  0  0  0  0  0  0  0
   -4.1890   -0.3240   -0.4350 C   0  0  2  0  0  0  0  0  0  0  0  0
   -1.1390    0.0960   -0.0740 C   0  0  0  0  0  0  0  0  0  0  0  0
  2  1  1  1
  2  3  1  0
  2  4  1  0
  2 13  1  0
  4  5  1  6
  4  6  1  0
  6  7  1  0
  7  8  1  6
  7  9  1  0
  7 12  1  0
  9 10  1  0
 10 11  1  0
 11 12  1  0
 13 14  1  1
 13 28  1  0
 14 15  1  0
 15 16  1  0
 16 17  1  0
 17 18  1  1
 17 19  1  0
 17 28  1  0
 19 20  1  6
 19 21  1  0
 19 27  1  0
 21 22  1  0
 23 22  1  6
 23 24  1  0
 23 27  1  0
 24 25  1  0
 25 26  1  0
 27 26  1  1
M  END
