
     RDKit          3D

 28 30  0  0  0  0  0  0  0  0999 V2000
    4.3670   -2.1730   -0.2290 C   0  0  0  0  0  0  0  0  0  0  0  0
    4.4830   -0.7960   -0.7820 C   0  0  2  0  0  0  0  0  0  0  0  0
    5.9910   -0.5140   -0.9120 C   0  0  0  0  0  0  0  0  0  0  0  0
    3.9150    0.3090    0.0340 C   0  0  0  0  0  0  0  0  0  0  0  0
    2.4410    0.1750    0.2940 C   0  0  2  0  0  0  0  0  0  0  0  0
    2.4020   -1.0510    0.9790 O   0  0  0  0  0  0  0  0  0  0  0  0
    1.6390   -0.1150   -0.9620 C   0  0  2  0  0  0  0  0  0  0  0  0
    1.3330    1.1350   -1.7500 C   0  0  0  0  0  0  0  0  0  0  0  0
    0.5540    2.1000   -0.9360 C   0  0  0  0  0  0  0  0  0  0  0  0
    0.3660    1.5190    0.4460 C   0  0  2  0  0  0  0  0  0  0  0  0
    1.7840    1.3190    0.9610 C   0  0  1  0  0  0  0  0  0  0  0  0
    1.9100    1.3710    2.4730 C   0  0  0  0  0  0  0  0  0  0  0  0
    2.5530    2.5900    0.5710 C   0  0  0  0  0  0  0  0  0  0  0  0
   -0.4520    0.2190    0.4530 C   0  0  1  0  0  0  0  0  0  0  0  0
   -0.5490   -0.2920    1.8340 C   0  0  0  0  0  0  0  0  0  0  0  0
   -1.2030   -1.4990    2.0260 O   0  0  0  0  0  0  0  0  0  0  0  0
   -1.8740    0.4810   -0.0120 C   0  0  1  0  0  0  0  0  0  0  0  0
   -2.0970    1.7280    0.6660 O   0  0  0  0  0  0  0  0  0  0  0  0
   -2.1890    0.5590   -1.4170 C   0  0  0  0  0  0  0  0  0  0  0  0
   -3.4310    1.3870   -1.7040 C   0  0  0  0  0  0  0  0  0  0  0  0
   -4.5910    1.0310   -0.8190 C   0  0  0  0  0  0  0  0  0  0  0  0
   -4.2110    0.6040    0.5480 C   0  0  0  0  0  0  0  0  0  0  0  0
   -2.9820   -0.3710    0.5370 C   0  0  1  0  0  0  0  0  0  0  0  0
   -3.5560   -1.5020   -0.1790 C   0  0  2  0  0  0  0  0  0  0  0  0
   -4.6590   -2.0440    0.7750 C   0  0  0  0  0  0  0  0  0  0  0  0
   -2.7580   -2.7160   -0.5050 C   0  0  0  0  0  0  0  0  0  0  0  0
   -3.5480   -3.6520   -1.2050 O   0  0  0  0  0  0  0  0  0  0  0  0
    0.3160   -0.6800   -0.4940 C   0  0  0  0  0  0  0  0  0  0  0  0
  2  1  1  1
  2  3  1  0
  2  4  1  0
  4  5  1  0
  5  6  1  1
  5  7  1  0
  5 11  1  0
  7  8  1  1
  7 28  1  0
  8  9  1  0
 10  9  1  6
 10 11  1  0
 10 14  1  0
 11 12  1  1
 11 13  1  0
 14 15  1  1
 14 17  1  0
 14 28  1  0
 15 16  1  0
 17 18  1  1
 17 19  1  0
 17 23  1  0
 19 20  1  0
 20 21  1  0
 21 22  1  0
 23 22  1  6
 23 24  1  0
 24 25  1  1
 24 26  1  0
 26 27  1  0
M  END
