
     RDKit          3D

 44 49  0  0  0  0  0  0  0  0999 V2000
    4.9270   -2.6210    2.8020 C   0  0  0  0  0  0  0  0  0  0  0  0
    6.1410   -2.6590    2.3030 C   0  0  0  0  0  0  0  0  0  0  0  0
    7.1470   -2.8770    3.2210 F   0  0  0  0  0  0  0  0  0  0  0  0
    6.4870   -2.4650    0.9100 C   0  0  0  0  0  0  0  0  0  0  0  0
    7.7600   -2.5480    0.4820 C   0  0  0  0  0  0  0  0  0  0  0  0
    8.7310   -2.8150    1.3580 F   0  0  0  0  0  0  0  0  0  0  0  0
    8.0250   -2.3450   -0.9550 C   0  0  0  0  0  0  0  0  0  0  0  0
    6.9770   -2.9430   -1.8370 C   0  0  0  0  0  0  0  0  0  0  0  0
    5.5760   -2.8540   -1.3430 C   0  0  0  0  0  0  0  0  0  0  0  0
    5.5210   -2.1430   -0.0760 N   0  0  0  0  0  0  0  0  0  0  0  0
    4.5240   -1.1600    0.1720 C   0  0  0  0  0  0  0  0  0  0  0  0
    4.6880   -0.0740    1.0030 C   0  0  0  0  0  0  0  0  0  0  0  0
    3.6480    0.8200    1.1760 C   0  0  0  0  0  0  0  0  0  0  0  0
    2.4360    0.6550    0.5340 C   0  0  0  0  0  0  0  0  0  0  0  0
    1.3800    1.6630    0.7760 C   0  0  0  0  0  0  0  0  0  0  0  0
    0.0890    1.2530    0.2620 N   0  0  0  0  0  0  0  0  0  0  0  0
   -0.8550    2.2840    0.5390 C   0  0  2  0  0  0  0  0  0  0  0  0
   -2.2540    1.9180    0.2080 C   0  0  0  0  0  0  0  0  0  0  0  0
   -2.7600    0.7010    0.6160 C   0  0  0  0  0  0  0  0  0  0  0  0
   -4.0650    0.3180    0.3220 C   0  0  0  0  0  0  0  0  0  0  0  0
   -4.6010   -0.9660    0.7510 C   0  0  0  0  0  0  0  0  0  0  0  0
   -5.1770   -1.1040    1.8570 O   0  0  0  0  0  0  0  0  0  0  0  0
   -4.4580   -2.0780   -0.1200 N   0  0  0  0  0  0  0  0  0  0  0  0
   -4.9460   -3.4030    0.1980 C   0  0  0  0  0  0  0  0  0  0  0  0
   -3.7480   -4.3330    0.2110 C   0  0  0  0  0  0  0  0  0  0  0  0
   -2.9340   -4.1230   -0.8740 O   0  0  0  0  0  0  0  0  0  0  0  0
   -3.5160   -3.3680   -1.8820 C   0  0  0  0  0  0  0  0  0  0  0  0
   -3.8000   -1.9480   -1.4100 C   0  0  0  0  0  0  0  0  0  0  0  0
   -4.9140    1.1450   -0.3930 C   0  0  0  0  0  0  0  0  0  0  0  0
   -6.2060    0.7380   -0.6700 C   0  0  0  0  0  0  0  0  0  0  0  0
   -7.0120    1.5960   -1.3850 C   0  0  0  0  0  0  0  0  0  0  0  0
   -8.2900    1.2420   -1.6820 F   0  0  0  0  0  0  0  0  0  0  0  0
   -6.5280    2.8250   -1.8070 C   0  0  0  0  0  0  0  0  0  0  0  0
   -5.2320    3.2220   -1.5240 C   0  0  0  0  0  0  0  0  0  0  0  0
   -4.4120    2.3600   -0.8020 C   0  0  0  0  0  0  0  0  0  0  0  0
   -3.0970    2.7360   -0.5020 C   0  0  0  0  0  0  0  0  0  0  0  0
   -0.4630    3.5130   -0.1770 C   0  0  0  0  0  0  0  0  0  0  0  0
    0.2940    3.6380   -1.3170 C   0  0  0  0  0  0  0  0  0  0  0  0
    0.3650    4.9710   -1.5950 N   0  0  0  0  0  0  0  0  0  0  0  0
   -0.2930    5.6720   -0.7090 N   0  0  0  0  0  0  0  0  0  0  0  0
   -0.8220    4.7900    0.1910 C   0  0  0  0  0  0  0  0  0  0  0  0
   -1.6450    5.1800    1.3670 C   0  0  0  0  0  0  0  0  0  0  0  0
    2.3040   -0.4270   -0.2790 C   0  0  0  0  0  0  0  0  0  0  0  0
    3.3150   -1.2900   -0.4440 N   0  0  0  0  0  0  0  0  0  0  0  0
  1  2  2  0
  2  3  1  0
  2  4  1  0
  4  5  2  0
  4 10  1  0
  5  6  1  0
  5  7  1  0
  7  8  1  0
  8  9  1  0
  9 10  1  0
 10 11  1  0
 11 12  2  0
 11 44  1  0
 12 13  1  0
 13 14  2  0
 14 15  1  0
 14 43  1  0
 15 16  1  0
 17 16  1  6
 17 18  1  0
 17 37  1  0
 18 19  2  0
 18 36  1  0
 19 20  1  0
 20 21  1  0
 20 29  2  0
 21 22  2  0
 21 23  1  0
 23 24  1  0
 23 28  1  0
 24 25  1  0
 25 26  1  0
 26 27  1  0
 27 28  1  0
 29 30  1  0
 29 35  1  0
 30 31  2  0
 31 32  1  0
 31 33  1  0
 33 34  2  0
 34 35  1  0
 35 36  2  0
 37 38  1  0
 37 41  2  0
 38 39  2  0
 39 40  1  0
 40 41  1  0
 41 42  1  0
 43 44  2  0
M  END
