
     RDKit          3D

 44 48  0  0  0  0  0  0  0  0999 V2000
    8.4570   -0.3020    0.2350 C   0  0  0  0  0  0  0  0  0  0  0  0
    7.5730   -1.2180   -0.5450 C   0  0  0  0  0  0  0  0  0  0  0  0
    6.2820   -1.5540    0.1330 C   0  0  0  0  0  0  0  0  0  0  0  0
    5.4720   -0.3000    0.4040 C   0  0  0  0  0  0  0  0  0  0  0  0
    6.0760    0.5590    1.2200 F   0  0  0  0  0  0  0  0  0  0  0  0
    4.3090   -0.2040   -0.1460 C   0  0  0  0  0  0  0  0  0  0  0  0
    3.3280    0.8700   -0.0660 C   0  0  0  0  0  0  0  0  0  0  0  0
    2.1700    0.7560   -0.6980 C   0  0  0  0  0  0  0  0  0  0  0  0
    1.7820   -0.4150   -1.5480 C   0  0  0  0  0  0  0  0  0  0  0  0
    0.7540    0.0230   -2.5830 C   0  0  0  0  0  0  0  0  0  0  0  0
    0.8730    1.5140   -2.8650 C   0  0  0  0  0  0  0  0  0  0  0  0
    0.5670    2.2950   -1.6910 N   0  0  0  0  0  0  0  0  0  0  0  0
    1.1180    1.7380   -0.4740 C   0  0  0  0  0  0  0  0  0  0  0  0
    0.6270    2.0250    0.7100 C   0  0  0  0  0  0  0  0  0  0  0  0
    0.9970    1.4380    2.0200 C   0  0  0  0  0  0  0  0  0  0  0  0
   -0.1430    0.9800    2.8620 C   0  0  0  0  0  0  0  0  0  0  0  0
   -1.0500   -0.0380    2.3700 C   0  0  0  0  0  0  0  0  0  0  0  0
   -2.2850    0.2970    1.7780 C   0  0  0  0  0  0  0  0  0  0  0  0
   -3.1820   -0.5860    1.2820 C   0  0  0  0  0  0  0  0  0  0  0  0
   -4.4880   -0.1890    0.7260 C   0  0  2  0  0  0  0  0  0  0  0  0
   -5.3950   -1.3490    0.3920 C   0  0  0  0  0  0  0  0  0  0  0  0
   -6.7750   -0.7610    0.1730 C   0  0  0  0  0  0  0  0  0  0  0  0
   -6.8350    0.7250    0.2300 C   0  0  0  0  0  0  0  0  0  0  0  0
   -5.7150    1.4190   -0.5100 C   0  0  0  0  0  0  0  0  0  0  0  0
   -4.4540    0.8260   -0.2380 N   0  0  0  0  0  0  0  0  0  0  0  0
   -3.4200    0.9510   -1.1530 C   0  0  0  0  0  0  0  0  0  0  0  0
   -3.6530    0.4470   -2.5310 C   0  0  0  0  0  0  0  0  0  0  0  0
   -4.7050   -0.2880   -3.0060 C   0  0  0  0  0  0  0  0  0  0  0  0
   -4.4740   -0.5050   -4.3480 C   0  0  0  0  0  0  0  0  0  0  0  0
   -3.3070    0.1030   -4.6140 N   0  0  0  0  0  0  0  0  0  0  0  0
   -2.8210    0.6660   -3.5420 N   0  0  0  0  0  0  0  0  0  0  0  0
   -2.8800   -1.9320    1.3490 C   0  0  0  0  0  0  0  0  0  0  0  0
   -1.7060   -2.3420    1.9070 C   0  0  0  0  0  0  0  0  0  0  0  0
   -1.4220   -3.6490    1.9990 N   0  0  0  0  0  0  0  0  0  0  0  0
   -0.2930   -4.1120    2.5680 C   0  0  0  0  0  0  0  0  0  0  0  0
   -0.0920   -5.3610    2.6200 O   0  0  0  0  0  0  0  0  0  0  0  0
    0.5590   -3.2190    3.0520 N   0  0  0  0  0  0  0  0  0  0  0  0
    0.3120   -1.8930    2.9790 C   0  0  0  0  0  0  0  0  0  0  0  0
    1.1620   -1.1510    3.4630 O   0  0  0  0  0  0  0  0  0  0  0  0
   -0.8130   -1.3950    2.4090 C   0  0  0  0  0  0  0  0  0  0  0  0
    3.7940    2.1230    0.5770 C   0  0  2  0  0  0  0  0  0  0  0  0
    5.0560    2.6350   -0.1570 C   0  0  0  0  0  0  0  0  0  0  0  0
    4.1470    1.8870    1.8670 F   0  0  0  0  0  0  0  0  0  0  0  0
    2.9060    3.1800    0.4360 F   0  0  0  0  0  0  0  0  0  0  0  0
  1  2  1  0
  2  3  1  0
  3  4  1  0
  4  5  1  0
  4  6  2  3
  6  7  1  0
  7  8  2  3
  7 41  1  0
  8  9  1  0
  8 13  1  0
  9 10  1  0
 10 11  1  0
 11 12  1  0
 12 13  1  0
 13 14  2  3
 14 15  1  0
 15 16  1  0
 16 17  1  0
 17 18  2  0
 17 40  1  0
 18 19  1  0
 20 19  1  6
 19 32  2  0
 20 21  1  0
 20 25  1  0
 21 22  1  0
 22 23  1  0
 23 24  1  0
 24 25  1  0
 25 26  1  0
 26 27  1  0
 27 28  2  0
 27 31  1  0
 28 29  1  0
 29 30  2  0
 30 31  1  0
 32 33  1  0
 33 34  1  0
 33 40  2  0
 34 35  1  0
 35 36  2  0
 35 37  1  0
 37 38  1  0
 38 39  2  0
 38 40  1  0
 41 42  1  6
 41 43  1  0
 41 44  1  0
M  END
