
     RDKit          3D

 44 49  0  0  0  0  0  0  0  0999 V2000
   11.6210    0.3910   -2.1500 C   0  0  0  0  0  0  0  0  0  0  0  0
   11.1620   -0.3320   -0.9240 C   0  0  0  0  0  0  0  0  0  0  0  0
   10.0060    0.3260   -0.2640 C   0  0  0  0  0  0  0  0  0  0  0  0
   10.1320    1.0690    0.8890 C   0  0  0  0  0  0  0  0  0  0  0  0
    9.0200    1.6530    1.4510 C   0  0  0  0  0  0  0  0  0  0  0  0
    9.1160    2.3920    2.5910 F   0  0  0  0  0  0  0  0  0  0  0  0
    7.7360    1.5330    0.9020 C   0  0  0  0  0  0  0  0  0  0  0  0
    6.6290    2.1790    1.5180 N   0  0  0  0  0  0  0  0  0  0  0  0
    5.2960    1.9600    1.0250 C   0  0  0  0  0  0  0  0  0  0  0  0
    4.7450    0.5870    1.3190 C   0  0  0  0  0  0  0  0  0  0  0  0
    3.3870    0.5190    0.7400 C   0  0  0  0  0  0  0  0  0  0  0  0
    2.6520   -0.6380    0.8680 C   0  0  0  0  0  0  0  0  0  0  0  0
    1.3780   -0.7520    0.3440 C   0  0  0  0  0  0  0  0  0  0  0  0
    0.6170   -1.8940    0.4550 C   0  0  0  0  0  0  0  0  0  0  0  0
   -0.6520   -2.0020   -0.0690 C   0  0  0  0  0  0  0  0  0  0  0  0
   -1.3640   -3.1270    0.0570 F   0  0  0  0  0  0  0  0  0  0  0  0
   -1.2020   -0.9220   -0.7400 C   0  0  0  0  0  0  0  0  0  0  0  0
   -2.4170   -0.7000   -1.3700 C   0  0  0  0  0  0  0  0  0  0  0  0
   -3.4740   -1.6640   -1.4600 C   0  0  0  0  0  0  0  0  0  0  0  0
   -3.4860   -2.4410   -2.4560 O   0  0  0  0  0  0  0  0  0  0  0  0
   -4.4860   -1.7370   -0.4450 N   0  0  0  0  0  0  0  0  0  0  0  0
   -4.3960   -0.8080    0.6590 C   0  0  0  0  0  0  0  0  0  0  0  0
   -4.8930   -1.4710    1.8980 C   0  0  0  0  0  0  0  0  0  0  0  0
   -6.1470   -2.2630    1.7460 C   0  0  0  0  0  0  0  0  0  0  0  0
   -6.6490   -2.3990    0.3480 C   0  0  1  0  0  0  0  0  0  0  0  0
   -7.3300   -1.1690   -0.1680 C   0  0  0  0  0  0  0  0  0  0  0  0
   -6.8840   -0.6190   -1.1970 O   0  0  0  0  0  0  0  0  0  0  0  0
   -8.4530   -0.6210    0.4770 N   0  0  0  0  0  0  0  0  0  0  0  0
   -9.1750    0.5270    0.0830 C   0  0  0  0  0  0  0  0  0  0  0  0
   -9.0100    1.2320   -1.0700 C   0  0  0  0  0  0  0  0  0  0  0  0
   -9.7660    2.3460   -1.3430 C   0  0  0  0  0  0  0  0  0  0  0  0
  -10.7110    2.7860   -0.4660 C   0  0  0  0  0  0  0  0  0  0  0  0
  -10.8860    2.1040    0.6720 N   0  0  0  0  0  0  0  0  0  0  0  0
  -10.1610    1.0170    0.9570 C   0  0  0  0  0  0  0  0  0  0  0  0
   -5.5270   -2.7380   -0.5920 C   0  0  0  0  0  0  0  0  0  0  0  0
   -2.3580    0.5900   -1.8520 C   0  0  0  0  0  0  0  0  0  0  0  0
   -1.1740    1.1340   -1.5390 N   0  0  0  0  0  0  0  0  0  0  0  0
   -0.4540    0.2300   -0.8610 C   0  0  0  0  0  0  0  0  0  0  0  0
    0.8340    0.3190   -0.3220 C   0  0  0  0  0  0  0  0  0  0  0  0
    1.5960    1.4620   -0.4320 C   0  0  0  0  0  0  0  0  0  0  0  0
    2.8340    1.5520    0.0850 N   0  0  0  0  0  0  0  0  0  0  0  0
    7.6550    0.7860   -0.2470 C   0  0  0  0  0  0  0  0  0  0  0  0
    8.7630    0.1800   -0.8420 C   0  0  0  0  0  0  0  0  0  0  0  0
    8.6350   -0.5500   -1.9760 F   0  0  0  0  0  0  0  0  0  0  0  0
  1  2  1  0
  2  3  1  0
  3  4  2  0
  3 43  1  0
  4  5  1  0
  5  6  1  0
  5  7  2  0
  7  8  1  0
  7 42  1  0
  8  9  1  0
  9 10  1  0
 10 11  1  0
 11 12  2  0
 11 41  1  0
 12 13  1  0
 13 14  2  0
 13 39  1  0
 14 15  1  0
 15 16  1  0
 15 17  2  0
 17 18  1  0
 17 38  1  0
 18 19  1  0
 18 36  2  0
 19 20  2  0
 19 21  1  0
 21 22  1  0
 21 35  1  0
 22 23  1  0
 23 24  1  0
 24 25  1  0
 25 26  1  6
 25 35  1  0
 26 27  2  0
 26 28  1  0
 28 29  1  0
 29 30  2  0
 29 34  1  0
 30 31  1  0
 31 32  2  0
 32 33  1  0
 33 34  2  0
 36 37  1  0
 37 38  1  0
 38 39  2  0
 39 40  1  0
 40 41  2  0
 42 43  2  0
 43 44  1  0
M  END
