
     RDKit          3D

 44 49  0  0  0  0  0  0  0  0999 V2000
   -5.6390    7.0220   -0.6640 C   0  0  0  0  0  0  0  0  0  0  0  0
   -5.9640    5.6670   -1.0010 N   0  0  0  0  0  0  0  0  0  0  0  0
   -4.8620    4.8600   -0.7100 N   0  0  0  0  0  0  0  0  0  0  0  0
   -4.9730    3.5490   -1.3170 C   0  0  0  0  0  0  0  0  0  0  0  0
   -3.7410    2.7910   -0.9290 C   0  0  0  0  0  0  0  0  0  0  0  0
   -2.6110    2.8360   -1.7150 C   0  0  0  0  0  0  0  0  0  0  0  0
   -1.4830    2.1250   -1.3400 C   0  0  0  0  0  0  0  0  0  0  0  0
   -0.4540    2.1850   -2.0830 O   0  0  0  0  0  0  0  0  0  0  0  0
   -1.4360    1.3820   -0.2290 N   0  0  0  0  0  0  0  0  0  0  0  0
   -0.2410    0.6710    0.1700 C   0  0  0  0  0  0  0  0  0  0  0  0
   -0.1940   -0.7120   -0.4290 C   0  0  0  0  0  0  0  0  0  0  0  0
    1.0720   -1.3350    0.0700 C   0  0  0  0  0  0  0  0  0  0  0  0
    1.0400   -2.2350    1.1160 C   0  0  0  0  0  0  0  0  0  0  0  0
    2.1940   -2.7820    1.5930 C   0  0  0  0  0  0  0  0  0  0  0  0
    3.4380   -2.4680    1.0620 C   0  0  0  0  0  0  0  0  0  0  0  0
    3.5000   -1.5730    0.0080 C   0  0  0  0  0  0  0  0  0  0  0  0
    2.2940   -1.0350   -0.4500 C   0  0  0  0  0  0  0  0  0  0  0  0
    2.4070   -0.1440   -1.6390 C   0  0  0  0  0  0  0  0  0  0  0  0
    3.4340    0.9100   -1.4580 C   0  0  0  0  0  0  0  0  0  0  0  0
    4.7290    0.2820   -1.0610 C   0  0  0  0  0  0  0  0  0  0  0  0
    4.7490   -0.9290   -0.3290 C   0  0  0  0  0  0  0  0  0  0  0  0
    5.9680   -1.4740    0.0250 C   0  0  0  0  0  0  0  0  0  0  0  0
    6.0440   -2.7140    0.5830 C   0  0  0  0  0  0  0  0  0  0  0  0
    7.3020   -3.2890    0.8190 C   0  0  0  0  0  0  0  0  0  0  0  0
    8.4420   -2.6110    0.4830 C   0  0  0  0  0  0  0  0  0  0  0  0
    8.3630   -1.3640   -0.0900 C   0  0  0  0  0  0  0  0  0  0  0  0
    7.1350   -0.7940   -0.3230 C   0  0  0  0  0  0  0  0  0  0  0  0
    7.0850    0.3660   -1.0160 N   0  0  0  0  0  0  0  0  0  0  0  0
    5.9180    0.8770   -1.3720 C   0  0  0  0  0  0  0  0  0  0  0  0
    5.8860    1.9530   -2.0260 O   0  0  0  0  0  0  0  0  0  0  0  0
   -2.5660    1.3430    0.5470 C   0  0  0  0  0  0  0  0  0  0  0  0
   -2.5080    0.5940    1.6950 N   0  0  0  0  0  0  0  0  0  0  0  0
   -2.8870   -0.5140    2.0790 C   0  0  0  0  0  0  0  0  0  0  0  0
   -3.6120   -1.5350    1.3530 C   0  0  0  0  0  0  0  0  0  0  0  0
   -3.9040   -1.3960    0.0050 C   0  0  0  0  0  0  0  0  0  0  0  0
   -4.5720   -2.3970   -0.6940 C   0  0  0  0  0  0  0  0  0  0  0  0
   -4.9590   -3.5490   -0.0690 C   0  0  0  0  0  0  0  0  0  0  0  0
   -4.6820   -3.7140    1.2610 C   0  0  0  0  0  0  0  0  0  0  0  0
   -5.0670   -4.8650    1.8900 F   0  0  0  0  0  0  0  0  0  0  0  0
   -4.0110   -2.7100    1.9710 C   0  0  0  0  0  0  0  0  0  0  0  0
   -3.7900   -3.0040    3.4010 C   0  0  1  0  0  0  0  0  0  0  0  0
   -5.0360   -3.2240    4.0070 F   0  0  0  0  0  0  0  0  0  0  0  0
   -3.1340   -4.2340    3.5280 F   0  0  0  0  0  0  0  0  0  0  0  0
   -3.6850    2.0470    0.1760 N   0  0  0  0  0  0  0  0  0  0  0  0
  1  2  1  0
  2  3  1  0
  3  4  1  0
  4  5  1  0
  5  6  2  0
  5 44  1  0
  6  7  1  0
  7  8  2  0
  7  9  1  0
  9 10  1  0
  9 31  1  0
 10 11  1  0
 11 12  1  0
 12 13  2  0
 12 17  1  0
 13 14  1  0
 14 15  2  0
 15 16  1  0
 16 17  2  0
 16 21  1  0
 17 18  1  0
 18 19  1  0
 19 20  1  0
 20 21  2  0
 20 29  1  0
 21 22  1  0
 22 23  2  0
 22 27  1  0
 23 24  1  0
 24 25  2  0
 25 26  1  0
 26 27  2  0
 27 28  1  0
 28 29  1  0
 29 30  2  0
 31 32  1  0
 31 44  2  0
 32 33  2  3
 33 34  1  0
 34 35  2  0
 34 40  1  0
 35 36  1  0
 36 37  2  0
 37 38  1  0
 38 39  1  0
 38 40  2  0
 40 41  1  0
 41 42  1  1
 41 43  1  0
M  END
