
     RDKit          3D

 38 40  0  0  0  0  0  0  0  0999 V2000
   10.3830    0.7320    1.4240 C   0  0  0  0  0  0  0  0  0  0  0  0
    9.3160    0.7800    0.3500 C   0  0  0  0  0  0  0  0  0  0  0  0
    8.4430    0.8400   -0.5390 C   0  0  0  0  0  0  0  0  0  0  0  0
    7.3690    0.9010   -1.5990 C   0  0  0  0  0  0  0  0  0  0  0  0
    6.1260    0.4110   -1.3550 C   0  0  0  0  0  0  0  0  0  0  0  0
    5.2790    0.3370   -2.4350 C   0  0  0  0  0  0  0  0  0  0  0  0
    3.9150   -0.3510   -2.3010 C   0  0  0  0  0  0  0  0  0  0  0  0
    3.2330   -0.5430   -3.3610 O   0  0  0  0  0  0  0  0  0  0  0  0
    3.4720   -0.7380   -1.1060 O   0  0  0  0  0  0  0  0  0  0  0  0
    2.4030   -1.3830   -0.5310 C   0  0  1  0  0  0  0  0  0  0  0  0
    3.1200   -2.5980    0.1690 C   0  0  0  0  0  0  0  0  0  0  0  0
    1.8410   -0.5800    0.5980 C   0  0  0  0  0  0  0  0  0  0  0  0
    2.3750   -0.4960    1.8520 C   0  0  0  0  0  0  0  0  0  0  0  0
    1.8450    0.2980    2.8160 C   0  0  0  0  0  0  0  0  0  0  0  0
    2.4280    0.3080    4.1980 C   0  0  0  0  0  0  0  0  0  0  0  0
    0.7370    1.0450    2.5130 C   0  0  0  0  0  0  0  0  0  0  0  0
    0.1700    0.9800    1.2410 C   0  0  0  0  0  0  0  0  0  0  0  0
    0.6970    0.1960    0.3120 C   0  0  0  0  0  0  0  0  0  0  0  0
    0.1230   -0.0020   -1.0050 N   0  0  0  0  0  0  0  0  0  0  0  0
   -1.2960    0.1420   -1.1990 C   0  0  0  0  0  0  0  0  0  0  0  0
   -1.9650    0.4860   -0.1680 O   0  0  0  0  0  0  0  0  0  0  0  0
   -1.9770   -0.0910   -2.4620 C   0  0  0  0  0  0  0  0  0  0  0  0
   -3.4250    0.1960   -2.2610 C   0  0  0  0  0  0  0  0  0  0  0  0
   -4.2230   -0.7200   -1.6340 C   0  0  0  0  0  0  0  0  0  0  0  0
   -5.5450   -0.4240   -1.3220 C   0  0  0  0  0  0  0  0  0  0  0  0
   -6.3110   -1.4420   -0.6490 C   0  0  0  0  0  0  0  0  0  0  0  0
   -7.1410   -1.3850    0.3300 C   0  0  0  0  0  0  0  0  0  0  0  0
   -7.5800   -0.2380    1.1240 C   0  0  0  0  0  0  0  0  0  0  0  0
   -7.1810    0.9310    0.9890 O   0  0  0  0  0  0  0  0  0  0  0  0
   -8.5470   -0.4300    2.1700 N   0  0  0  0  0  0  0  0  0  0  0  0
   -8.9770    0.7080    2.9460 C   0  0  0  0  0  0  0  0  0  0  0  0
   -6.0140    0.7870   -1.6800 C   0  0  0  0  0  0  0  0  0  0  0  0
   -7.3190    1.1550   -1.5550 F   0  0  0  0  0  0  0  0  0  0  0  0
   -5.2010    1.7210   -2.3280 C   0  0  0  0  0  0  0  0  0  0  0  0
   -3.9100    1.4480   -2.6160 C   0  0  0  0  0  0  0  0  0  0  0  0
   -2.7410    2.6720   -3.4600 Br  0  0  0  0  0  0  0  0  0  0  0  0
    5.7530    0.7580   -3.6330 C   0  0  0  0  0  0  0  0  0  0  0  0
    7.4610    1.2770   -3.2420 S   0  0  0  0  0  0  0  0  0  0  0  0
  1  2  1  0
  2  3  3  0
  3  4  1  0
  4  5  2  0
  4 38  1  0
  5  6  1  0
  6  7  1  0
  6 37  2  0
  7  8  2  0
  7  9  1  0
  9 10  1  0
 10 11  1  1
 10 12  1  0
 12 13  2  0
 12 18  1  0
 13 14  1  0
 14 15  1  0
 14 16  2  0
 16 17  1  0
 17 18  2  0
 18 19  1  0
 19 20  1  0
 20 21  2  0
 20 22  1  0
 22 23  1  0
 23 24  2  0
 23 35  1  0
 24 25  1  0
 25 26  1  0
 25 32  2  0
 26 27  2  3
 27 28  1  0
 28 29  2  0
 28 30  1  0
 30 31  1  0
 32 33  1  0
 32 34  1  0
 34 35  2  0
 35 36  1  0
 37 38  1  0
M  END
