
     RDKit          3D

 39 42  0  0  0  0  0  0  0  0999 V2000
    5.7080   -1.4470   -0.5260 C   0  0  0  0  0  0  0  0  0  0  0  0
    4.6200   -1.2070    0.1880 C   0  0  0  0  0  0  0  0  0  0  0  0
    3.3000   -1.0750   -0.3720 C   0  0  0  0  0  0  0  0  0  0  0  0
    2.4990    0.0770   -0.0790 N   0  0  2  0  0  0  0  0  0  0  0  0
    1.1210   -0.3090   -0.3230 C   0  0  0  0  0  0  0  0  0  0  0  0
    0.6530   -1.1260    0.8570 C   0  0  0  0  0  0  0  0  0  0  0  0
    1.4960   -1.3050    1.9690 C   0  0  0  0  0  0  0  0  0  0  0  0
    1.0680   -2.0370    3.0860 C   0  0  0  0  0  0  0  0  0  0  0  0
   -0.2050   -2.5890    3.0780 C   0  0  0  0  0  0  0  0  0  0  0  0
   -0.9930   -2.4010    1.9780 C   0  0  0  0  0  0  0  0  0  0  0  0
   -0.5840   -1.6690    0.8560 C   0  0  0  0  0  0  0  0  0  0  0  0
   -1.5540   -1.5870   -0.2540 C   0  0  0  0  0  0  0  0  0  0  0  0
   -1.3310   -1.5490   -1.4330 O   0  0  0  0  0  0  0  0  0  0  0  0
   -2.9410   -1.5590    0.1680 N   0  0  0  0  0  0  0  0  0  0  0  0
   -4.1370   -1.5410   -0.6550 C   0  0  1  0  0  0  0  0  0  0  0  0
   -5.0510   -2.5560   -0.0310 C   0  0  0  0  0  0  0  0  0  0  0  0
   -6.3890   -2.7680   -0.6310 C   0  0  0  0  0  0  0  0  0  0  0  0
   -6.4690   -3.2750   -2.0230 C   0  0  0  0  0  0  0  0  0  0  0  0
   -4.8150   -0.2180   -0.5300 C   0  0  0  0  0  0  0  0  0  0  0  0
   -4.8820    0.3770    0.6970 C   0  0  0  0  0  0  0  0  0  0  0  0
   -5.3940    1.6450    0.8510 C   0  0  0  0  0  0  0  0  0  0  0  0
   -5.8470    2.3230   -0.2690 C   0  0  0  0  0  0  0  0  0  0  0  0
   -6.3420    3.5800   -0.0900 O   0  0  0  0  0  0  0  0  0  0  0  0
   -6.8130    4.4190   -1.0750 C   0  0  0  0  0  0  0  0  0  0  0  0
   -5.7900    1.7240   -1.5400 C   0  0  0  0  0  0  0  0  0  0  0  0
   -5.2600    0.4230   -1.6450 C   0  0  0  0  0  0  0  0  0  0  0  0
    2.9600    1.3760   -0.2980 C   0  0  0  0  0  0  0  0  0  0  0  0
    4.3700    1.4660   -0.7540 C   0  0  0  0  0  0  0  0  0  0  0  0
    4.7300    1.0570   -2.0360 C   0  0  0  0  0  0  0  0  0  0  0  0
    6.0130    1.2480   -2.5070 C   0  0  0  0  0  0  0  0  0  0  0  0
    6.9890    1.8480   -1.7410 C   0  0  0  0  0  0  0  0  0  0  0  0
    6.6570    2.2560   -0.4870 C   0  0  0  0  0  0  0  0  0  0  0  0
    5.3600    2.0690    0.0070 C   0  0  0  0  0  0  0  0  0  0  0  0
    5.1450    2.5560    1.3640 C   0  0  0  0  0  0  0  0  0  0  0  0
    4.0080    2.4990    1.9570 O   0  0  0  0  0  0  0  0  0  0  0  0
    6.1450    3.1060    2.1050 O   0  0  0  0  0  0  0  0  0  0  0  0
    7.8310    2.8220    0.0530 O   0  0  0  0  0  0  0  0  0  0  0  0
    8.9170    2.1000   -0.5980 C   0  0  0  0  0  0  0  0  0  0  0  0
    8.3550    2.1760   -1.9320 O   0  0  0  0  0  0  0  0  0  0  0  0
  1  2  2  0
  2  3  1  0
  4  3  1  6
  4  5  1  0
  4 27  1  0
  5  6  1  0
  6  7  2  0
  6 11  1  0
  7  8  1  0
  8  9  2  0
  9 10  1  0
 10 11  2  0
 11 12  1  0
 12 13  2  0
 12 14  1  0
 14 15  1  0
 15 16  1  1
 15 19  1  0
 16 17  1  0
 17 18  1  0
 19 20  2  0
 19 26  1  0
 20 21  1  0
 21 22  2  0
 22 23  1  0
 22 25  1  0
 23 24  1  0
 25 26  2  0
 27 28  1  0
 28 29  2  0
 28 33  1  0
 29 30  1  0
 30 31  2  0
 31 32  1  0
 31 39  1  0
 32 33  2  0
 32 37  1  0
 33 34  1  0
 34 35  2  0
 34 36  1  0
 37 38  1  0
 38 39  1  0
M  CHG  1   4   1
M  END
