
     RDKit          3D

 39 41  0  0  0  0  0  0  0  0999 V2000
   -8.2090   -0.5000    2.0630 C   0  0  0  0  0  0  0  0  0  0  0  0
   -8.8590    0.5730    2.9230 C   0  0  0  0  0  0  0  0  0  0  0  0
   -7.6820    1.9590    3.1610 S   0  0  0  0  0  0  0  0  0  0  0  0
   -7.4450    2.6530    1.4940 C   0  0  0  0  0  0  0  0  0  0  0  0
   -6.3480    2.3550    0.8170 C   0  0  0  0  0  0  0  0  0  0  0  0
   -6.1300    2.8900   -0.5120 C   0  0  0  0  0  0  0  0  0  0  0  0
   -7.0850    3.7250   -1.0750 C   0  0  0  0  0  0  0  0  0  0  0  0
   -6.8860    4.2150   -2.3750 C   0  0  0  0  0  0  0  0  0  0  0  0
   -7.8410    5.0280   -2.8950 F   0  0  0  0  0  0  0  0  0  0  0  0
   -5.7520    3.8510   -3.0400 C   0  0  0  0  0  0  0  0  0  0  0  0
   -5.4360    4.4840   -4.8010 Br  0  0  0  0  0  0  0  0  0  0  0  0
   -4.7880    3.0080   -2.4700 C   0  0  0  0  0  0  0  0  0  0  0  0
   -4.9710    2.5250   -1.2050 C   0  0  0  0  0  0  0  0  0  0  0  0
   -4.0240    1.7160   -0.5500 N   0  0  0  0  0  0  0  0  0  0  0  0
   -2.9170    1.0540   -1.1180 C   0  0  0  0  0  0  0  0  0  0  0  0
   -2.6930    1.1380   -2.3320 O   0  0  0  0  0  0  0  0  0  0  0  0
   -1.9770    0.2380   -0.3250 C   0  0  0  0  0  0  0  0  0  0  0  0
   -2.1800    0.1790    0.9050 O   0  0  0  0  0  0  0  0  0  0  0  0
   -0.9040   -0.4430   -0.9110 N   0  0  0  0  0  0  0  0  0  0  0  0
    0.0230   -1.2210   -0.2150 C   0  0  0  0  0  0  0  0  0  0  0  0
    0.0960   -1.4010    1.1390 C   0  0  0  0  0  0  0  0  0  0  0  0
    1.0910   -2.1880    1.7390 C   0  0  0  0  0  0  0  0  0  0  0  0
    2.0260   -2.8080    0.9950 C   0  0  0  0  0  0  0  0  0  0  0  0
    3.1010   -3.6480    1.5680 C   0  0  0  0  0  0  0  0  0  0  0  0
    4.2760   -2.7850    1.9200 C   0  0  0  0  0  0  0  0  0  0  0  0
    4.2290   -1.9720    2.8760 O   0  0  0  0  0  0  0  0  0  0  0  0
    5.4410   -2.8620    1.1920 O   0  0  0  0  0  0  0  0  0  0  0  0
    6.5960   -2.1060    1.4320 C   0  0  1  0  0  0  0  0  0  0  0  0
    7.7940   -2.9850    1.5690 C   0  0  0  0  0  0  0  0  0  0  0  0
    6.7230   -1.1770    0.2600 C   0  0  0  0  0  0  0  0  0  0  0  0
    6.5160   -1.5900   -1.0400 C   0  0  0  0  0  0  0  0  0  0  0  0
    6.6430   -0.6870   -2.0950 C   0  0  0  0  0  0  0  0  0  0  0  0
    6.9770    0.6200   -1.8350 C   0  0  0  0  0  0  0  0  0  0  0  0
    7.1090    1.5750   -2.9750 C   0  0  0  0  0  0  0  0  0  0  0  0
    7.1870    1.0510   -0.5480 C   0  0  0  0  0  0  0  0  0  0  0  0
    7.0520    0.1220    0.4900 C   0  0  0  0  0  0  0  0  0  0  0  0
    1.9960   -2.6570   -0.4020 C   0  0  0  0  0  0  0  0  0  0  0  0
    1.0210   -1.8880   -0.9460 C   0  0  0  0  0  0  0  0  0  0  0  0
    0.9880   -1.7390   -2.2930 F   0  0  0  0  0  0  0  0  0  0  0  0
  1  2  1  0
  2  3  1  0
  3  4  1  0
  4  5  2  3
  5  6  1  0
  6  7  2  0
  6 13  1  0
  7  8  1  0
  8  9  1  0
  8 10  2  0
 10 11  1  0
 10 12  1  0
 12 13  2  0
 13 14  1  0
 14 15  1  0
 15 16  2  0
 15 17  1  0
 17 18  2  0
 17 19  1  0
 19 20  1  0
 20 21  2  0
 20 38  1  0
 21 22  1  0
 22 23  2  0
 23 24  1  0
 23 37  1  0
 24 25  1  0
 25 26  2  0
 25 27  1  0
 27 28  1  0
 28 29  1  6
 28 30  1  0
 30 31  2  0
 30 36  1  0
 31 32  1  0
 32 33  2  0
 33 34  1  0
 33 35  1  0
 35 36  2  0
 37 38  2  0
 38 39  1  0
M  END
