
     RDKit          3D

 39 41  0  0  0  0  0  0  0  0999 V2000
    5.3640   -1.0850    2.3180 C   0  0  0  0  0  0  0  0  0  0  0  0
    5.3790   -2.0120    1.4000 C   0  0  0  0  0  0  0  0  0  0  0  0
    6.1810   -3.6800    2.0030 Br  0  0  0  0  0  0  0  0  0  0  0  0
    4.7870   -1.9480    0.0930 C   0  0  0  0  0  0  0  0  0  0  0  0
    4.8760   -2.8710   -0.8050 C   0  0  0  0  0  0  0  0  0  0  0  0
    5.5550   -4.1720   -0.7720 C   0  0  1  0  0  0  0  0  0  0  0  0
    6.8960   -4.1320   -0.5120 F   0  0  0  0  0  0  0  0  0  0  0  0
    4.9270   -5.0430    0.0870 F   0  0  0  0  0  0  0  0  0  0  0  0
    3.9100   -0.7700   -0.2170 C   0  0  0  0  0  0  0  0  0  0  0  0
    3.8380    0.1140    0.6360 O   0  0  0  0  0  0  0  0  0  0  0  0
    3.1760   -0.6700   -1.4520 C   0  0  0  0  0  0  0  0  0  0  0  0
    2.4130    0.3270   -1.8620 C   0  0  0  0  0  0  0  0  0  0  0  0
    1.6740   -0.0240   -3.4770 S   0  0  0  0  0  0  0  0  0  0  0  0
    1.2680   -1.7700   -3.6020 C   0  0  0  0  0  0  0  0  0  0  0  0
   -0.0340   -2.1610   -3.0280 C   0  0  0  0  0  0  0  0  0  0  0  0
   -1.0160   -2.0940   -3.8690 O   0  0  0  0  0  0  0  0  0  0  0  0
   -0.3480   -2.5820   -1.7420 N   0  0  0  0  0  0  0  0  0  0  0  0
    0.3840   -2.4800   -0.5160 C   0  0  0  0  0  0  0  0  0  0  0  0
    0.0620   -1.2470    0.2620 C   0  0  0  0  0  0  0  0  0  0  0  0
   -1.1310   -0.5550   -0.2760 C   0  0  1  0  0  0  0  0  0  0  0  0
   -2.1160   -0.1400    0.8440 C   0  0  0  0  0  0  0  0  0  0  0  0
   -3.2900    0.4920    0.1280 C   0  0  0  0  0  0  0  0  0  0  0  0
   -4.3030    0.9650    0.8800 O   0  0  0  0  0  0  0  0  0  0  0  0
   -4.8890    0.0450    1.7020 C   0  0  1  0  0  0  0  0  0  0  0  0
   -4.9390    0.5950    3.0790 C   0  0  0  0  0  0  0  0  0  0  0  0
   -6.1320   -0.0180    3.7330 C   0  0  0  0  0  0  0  0  0  0  0  0
   -6.9260   -0.7590    2.6790 C   0  0  0  0  0  0  0  0  0  0  0  0
   -6.3440   -0.2590    1.3660 C   0  0  0  0  0  0  0  0  0  0  0  0
   -0.9240    0.6100   -1.1400 C   0  0  0  0  0  0  0  0  0  0  0  0
   -1.4850    0.5030   -2.3200 O   0  0  0  0  0  0  0  0  0  0  0  0
   -0.2540    1.8330   -0.9700 N   0  0  0  0  0  0  0  0  0  0  0  0
    1.0900    2.1860   -0.7250 C   0  0  0  0  0  0  0  0  0  0  0  0
    1.2270    3.3930    0.0050 C   0  0  0  0  0  0  0  0  0  0  0  0
    0.0430    4.1750    0.4760 C   0  0  0  0  0  0  0  0  0  0  0  0
   -0.5710    5.0320   -0.5970 C   0  0  0  0  0  0  0  0  0  0  0  0
    2.4490    3.9510    0.3040 C   0  0  0  0  0  0  0  0  0  0  0  0
    3.6010    3.3400   -0.1060 C   0  0  0  0  0  0  0  0  0  0  0  0
    3.4820    2.1760   -0.8120 C   0  0  0  0  0  0  0  0  0  0  0  0
    2.2460    1.5770   -1.1330 C   0  0  0  0  0  0  0  0  0  0  0  0
  1  2  2  0
  2  3  1  0
  2  4  1  0
  4  5  2  3
  4  9  1  0
  5  6  1  0
  6  7  1  1
  6  8  1  0
  9 10  2  0
  9 11  1  0
 11 12  2  3
 12 13  1  0
 12 39  1  0
 13 14  1  0
 14 15  1  0
 15 16  2  0
 15 17  1  0
 17 18  1  0
 18 19  1  0
 19 20  1  0
 20 21  1  1
 20 29  1  0
 21 22  1  0
 22 23  1  0
 24 23  1  6
 24 25  1  0
 24 28  1  0
 25 26  1  0
 26 27  1  0
 27 28  1  0
 29 30  2  0
 29 31  1  0
 31 32  1  0
 32 33  2  0
 32 39  1  0
 33 34  1  0
 33 36  1  0
 34 35  1  0
 36 37  2  0
 37 38  1  0
 38 39  2  0
M  END
