
     RDKit          3D

 39 41  0  0  0  0  0  0  0  0999 V2000
   -6.1660    4.5280    0.5970 C   0  0  0  0  0  0  0  0  0  0  0  0
   -5.6930    4.2690   -0.7970 C   0  0  0  0  0  0  0  0  0  0  0  0
   -4.2810    3.8520   -0.8410 N   0  0  0  0  0  0  0  0  0  0  0  0
   -3.8450    2.6840   -0.1660 C   0  0  0  0  0  0  0  0  0  0  0  0
   -4.7410    2.0440    0.4640 O   0  0  0  0  0  0  0  0  0  0  0  0
   -2.4980    2.1800   -0.1410 C   0  0  0  0  0  0  0  0  0  0  0  0
   -1.5540    2.8230   -0.7870 C   0  0  0  0  0  0  0  0  0  0  0  0
   -0.1630    2.3320   -0.7830 C   0  0  0  0  0  0  0  0  0  0  0  0
    0.1890    1.2460   -0.1440 C   0  0  0  0  0  0  0  0  0  0  0  0
    1.8760    0.7540   -0.2040 S   0  0  0  0  0  0  0  0  0  0  0  0
    2.3330   -0.7030    0.6820 C   0  0  0  0  0  0  0  0  0  0  0  0
    3.8320   -0.8900    0.5210 C   0  0  0  0  0  0  0  0  0  0  0  0
    4.2880   -1.8890    1.0970 O   0  0  0  0  0  0  0  0  0  0  0  0
    4.5810    0.0020   -0.2150 N   0  0  0  0  0  0  0  0  0  0  0  0
    5.9560   -0.0790   -0.4260 C   0  0  0  0  0  0  0  0  0  0  0  0
    6.7630   -1.0740    0.0610 C   0  0  0  0  0  0  0  0  0  0  0  0
    8.1460   -1.0980   -0.1940 C   0  0  0  0  0  0  0  0  0  0  0  0
    9.0010   -2.2000    0.3510 C   0  0  0  0  0  0  0  0  0  0  0  0
    8.7580   -0.1230   -0.9450 C   0  0  0  0  0  0  0  0  0  0  0  0
   10.2150   -0.1940   -1.1860 C   0  0  0  0  0  0  0  0  0  0  0  0
    7.9620    0.8810   -1.4390 C   0  0  0  0  0  0  0  0  0  0  0  0
    6.6130    0.8990   -1.1870 C   0  0  0  0  0  0  0  0  0  0  0  0
    5.8240    1.9020   -1.6820 F   0  0  0  0  0  0  0  0  0  0  0  0
   -0.8020    0.4620    0.6020 C   0  0  2  0  0  0  0  0  0  0  0  0
   -0.3620    0.3480    2.0830 C   0  0  0  0  0  0  0  0  0  0  0  0
   -0.7160   -0.9670    0.0730 C   0  0  0  0  0  0  0  0  0  0  0  0
   -2.1960    0.9680    0.6040 C   0  0  2  0  0  0  0  0  0  0  0  0
   -3.0870   -0.0980    0.2930 O   0  0  0  0  0  0  0  0  0  0  0  0
   -3.9430   -0.6760    1.2020 C   0  0  0  0  0  0  0  0  0  0  0  0
   -3.8950   -0.2160    2.3760 O   0  0  0  0  0  0  0  0  0  0  0  0
   -4.8490   -1.7480    0.8450 C   0  0  0  0  0  0  0  0  0  0  0  0
   -5.4990   -2.4510    1.8680 C   0  0  0  0  0  0  0  0  0  0  0  0
   -6.3480   -3.4810    1.6350 C   0  0  0  0  0  0  0  0  0  0  0  0
   -6.6010   -3.8770    0.3380 C   0  0  0  0  0  0  0  0  0  0  0  0
   -7.4590   -4.9160    0.1320 F   0  0  0  0  0  0  0  0  0  0  0  0
   -5.9760   -3.2040   -0.6840 C   0  0  0  0  0  0  0  0  0  0  0  0
   -6.2340   -3.6130   -2.0820 C   0  0  0  0  0  0  0  0  0  0  0  0
   -5.1030   -2.1450   -0.4440 C   0  0  0  0  0  0  0  0  0  0  0  0
   -4.2960   -1.2380   -1.9130 Br  0  0  0  0  0  0  0  0  0  0  0  0
  1  2  1  0
  2  3  1  0
  3  4  1  0
  4  5  2  0
  4  6  1  0
  6  7  2  0
  6 27  1  0
  7  8  1  0
  8  9  2  0
  9 10  1  0
  9 24  1  0
 10 11  1  0
 11 12  1  0
 12 13  2  0
 12 14  1  0
 14 15  1  0
 15 16  2  0
 15 22  1  0
 16 17  1  0
 17 18  1  0
 17 19  2  0
 19 20  1  0
 19 21  1  0
 21 22  2  0
 22 23  1  0
 24 25  1  1
 24 26  1  0
 24 27  1  0
 27 28  1  6
 28 29  1  0
 29 30  2  0
 29 31  1  0
 31 32  2  0
 31 38  1  0
 32 33  1  0
 33 34  2  0
 34 35  1  0
 34 36  1  0
 36 37  1  0
 36 38  2  0
 38 39  1  0
M  END
