
     RDKit          3D

 34 37  0  0  0  0  0  0  0  0999 V2000
   -9.5480    0.7910    2.1480 C   0  0  0  0  0  0  0  0  0  0  0  0
   -8.8800   -0.0680    1.1280 C   0  0  0  0  0  0  0  0  0  0  0  0
   -9.6670   -0.9080    0.3920 C   0  0  0  0  0  0  0  0  0  0  0  0
   -9.0570   -1.7000   -0.5480 C   0  0  0  0  0  0  0  0  0  0  0  0
   -9.7410   -2.4820   -1.2430 O   0  0  0  0  0  0  0  0  0  0  0  0
   -7.6620   -1.6220   -0.7190 C   0  0  0  0  0  0  0  0  0  0  0  0
   -6.8900   -0.7760    0.0270 C   0  0  0  0  0  0  0  0  0  0  0  0
   -5.4930   -0.6580   -0.1010 N   0  0  0  0  0  0  0  0  0  0  0  0
   -4.6290   -1.3380   -0.9690 C   0  0  0  0  0  0  0  0  0  0  0  0
   -5.1510   -2.1870   -1.7520 O   0  0  0  0  0  0  0  0  0  0  0  0
   -3.1930   -1.1270   -1.0170 C   0  0  0  0  0  0  0  0  0  0  0  0
   -2.5590   -0.2840   -0.2630 C   0  0  0  0  0  0  0  0  0  0  0  0
   -1.0970   -0.0950   -0.3400 C   0  0  0  0  0  0  0  0  0  0  0  0
   -0.4830    0.7760    0.4430 C   0  0  0  0  0  0  0  0  0  0  0  0
    0.9390    1.0230    0.4330 C   0  0  0  0  0  0  0  0  0  0  0  0
    2.2250   -0.2880    0.2350 S   0  0  0  0  0  0  0  0  0  0  0  0
    3.5870    0.9520    0.3400 C   0  0  0  0  0  0  0  0  0  0  0  0
    4.9730    0.4770    0.2410 C   0  0  0  0  0  0  0  0  0  0  0  0
    5.3280   -0.8400    0.0910 C   0  0  0  0  0  0  0  0  0  0  0  0
    6.6450   -1.1700    0.0060 C   0  0  0  0  0  0  0  0  0  0  0  0
    7.6310   -0.2160    0.0690 C   0  0  0  0  0  0  0  0  0  0  0  0
    9.0840   -0.5730   -0.0220 C   0  0  1  0  0  0  0  0  0  0  0  0
    9.9490    0.2740   -0.8830 C   0  0  0  0  0  0  0  0  0  0  0  0
   10.0830    0.3030    0.6030 C   0  0  0  0  0  0  0  0  0  0  0  0
    7.2300    1.0580    0.2170 N   0  0  0  0  0  0  0  0  0  0  0  0
    5.9410    1.4290    0.3040 C   0  0  0  0  0  0  0  0  0  0  0  0
    5.6570    2.6540    0.4420 O   0  0  0  0  0  0  0  0  0  0  0  0
    2.9990    1.9500    0.4780 N   0  0  0  0  0  0  0  0  0  0  0  0
    1.7050    2.1440    0.5430 C   0  0  0  0  0  0  0  0  0  0  0  0
    1.0980    3.5130    0.7240 C   0  0  0  0  0  0  0  0  0  0  0  0
   -0.3970   -0.8820   -1.2870 N   0  0  0  0  0  0  0  0  0  0  0  0
    0.1650   -0.1860   -2.4220 C   0  0  0  0  0  0  0  0  0  0  0  0
   -0.2600   -2.3000   -1.1230 C   0  0  0  0  0  0  0  0  0  0  0  0
   -7.5510   -0.0120    0.9470 N   0  0  0  0  0  0  0  0  0  0  0  0
  1  2  1  0
  2  3  2  0
  2 34  1  0
  3  4  1  0
  4  5  2  0
  4  6  1  0
  6  7  2  0
  7  8  1  0
  7 34  1  0
  8  9  1  0
  9 10  2  0
  9 11  1  0
 11 12  2  3
 12 13  1  0
 13 14  2  3
 13 31  1  0
 14 15  1  0
 15 16  1  0
 15 29  2  0
 16 17  1  0
 17 18  1  0
 17 28  2  0
 18 19  2  0
 18 26  1  0
 19 20  1  0
 20 21  2  0
 22 21  1  1
 21 25  1  0
 22 23  1  0
 22 24  1  0
 23 24  1  0
 25 26  1  0
 26 27  2  0
 28 29  1  0
 29 30  1  0
 31 32  1  0
 31 33  1  0
M  END
