
     RDKit          3D

 34 37  0  0  0  0  0  0  0  0999 V2000
   -1.0290    0.3110   -4.5480 C   0  0  0  0  0  0  0  0  0  0  0  0
   -0.8570   -0.4280   -3.4660 C   0  0  0  0  0  0  0  0  0  0  0  0
   -1.8810   -0.4000   -2.3860 C   0  0  0  0  0  0  0  0  0  0  0  0
   -1.3530    0.0370   -1.1130 N   0  0  2  0  0  0  0  0  0  0  0  0
    0.0230   -0.1810   -0.8880 C   0  0  0  0  0  0  0  0  0  0  0  0
    0.6140   -1.5020   -0.8090 C   0  0  0  0  0  0  0  0  0  0  0  0
   -0.0350   -2.7020   -0.9640 C   0  0  0  0  0  0  0  0  0  0  0  0
    0.6870   -3.8960   -0.8990 C   0  0  0  0  0  0  0  0  0  0  0  0
    2.0440   -3.8880   -0.6810 C   0  0  0  0  0  0  0  0  0  0  0  0
    2.6840   -2.6860   -0.5270 C   0  0  0  0  0  0  0  0  0  0  0  0
    2.0030   -1.4950   -0.5850 C   0  0  0  0  0  0  0  0  0  0  0  0
    2.7570   -0.2660   -0.3600 C   0  0  0  0  0  0  0  0  0  0  0  0
    3.5590    0.0740   -1.2790 O   0  0  0  0  0  0  0  0  0  0  0  0
    2.6670    0.5540    0.7840 N   0  0  0  0  0  0  0  0  0  0  0  0
    3.4280    1.7840    0.9490 C   0  0  0  0  0  0  0  0  0  0  0  0
    4.8700    1.5420    1.1970 C   0  0  0  0  0  0  0  0  0  0  0  0
    5.3770    0.8910    2.2980 C   0  0  0  0  0  0  0  0  0  0  0  0
    6.7290    0.6970    2.5100 C   0  0  0  0  0  0  0  0  0  0  0  0
    7.6630    1.1670    1.5890 C   0  0  0  0  0  0  0  0  0  0  0  0
    7.1770    1.8200    0.4820 C   0  0  0  0  0  0  0  0  0  0  0  0
    5.8310    2.0070    0.2810 C   0  0  0  0  0  0  0  0  0  0  0  0
   -2.1860   -0.4280   -0.0640 C   0  0  0  0  0  0  0  0  0  0  0  0
   -3.3230    0.4470    0.3270 C   0  0  0  0  0  0  0  0  0  0  0  0
   -3.5740    1.6310   -0.2820 C   0  0  0  0  0  0  0  0  0  0  0  0
   -4.6850    2.3740    0.1630 C   0  0  0  0  0  0  0  0  0  0  0  0
   -5.5090    1.9540    1.1710 C   0  0  0  0  0  0  0  0  0  0  0  0
   -5.2280    0.7480    1.7690 C   0  0  0  0  0  0  0  0  0  0  0  0
   -4.1590    0.0030    1.3620 C   0  0  0  0  0  0  0  0  0  0  0  0
   -3.8850   -1.2550    2.0100 C   0  0  0  0  0  0  0  0  0  0  0  0
   -3.1540   -1.3840    3.0320 O   0  0  0  0  0  0  0  0  0  0  0  0
   -4.4620   -2.4100    1.4780 O   0  0  0  0  0  0  0  0  0  0  0  0
   -6.2200    0.5710    2.7500 O   0  0  0  0  0  0  0  0  0  0  0  0
   -7.3120    1.4300    2.4470 C   0  0  0  0  0  0  0  0  0  0  0  0
   -6.6560    2.5060    1.7820 O   0  0  0  0  0  0  0  0  0  0  0  0
  1  2  2  0
  2  3  1  0
  4  3  1  6
  4  5  1  0
  4 22  1  0
  5  6  1  0
  6  7  2  0
  6 11  1  0
  7  8  1  0
  8  9  2  0
  9 10  1  0
 10 11  2  0
 11 12  1  0
 12 13  2  0
 12 14  1  0
 14 15  1  0
 15 16  1  0
 16 17  2  0
 16 21  1  0
 17 18  1  0
 18 19  2  0
 19 20  1  0
 20 21  2  0
 22 23  1  0
 23 24  2  0
 23 28  1  0
 24 25  1  0
 25 26  2  0
 26 27  1  0
 26 34  1  0
 27 28  2  0
 27 32  1  0
 28 29  1  0
 29 30  2  0
 29 31  1  0
 32 33  1  0
 33 34  1  0
M  CHG  1   4   1
M  END
