
     RDKit          3D

 34 38  0  0  0  0  0  0  0  0999 V2000
   -9.9220    1.2160    2.3990 C   0  0  0  0  0  0  0  0  0  0  0  0
   -8.6190    0.6080    2.0250 C   0  0  0  0  0  0  0  0  0  0  0  0
   -8.5420   -0.6110    1.4950 C   0  0  0  0  0  0  0  0  0  0  0  0
   -7.1910   -1.1640    1.1410 C   0  0  0  0  0  0  0  0  0  0  0  0
   -6.3910   -0.0860    0.5390 N   0  0  0  0  0  0  0  0  0  0  0  0
   -5.4180   -0.4190   -0.4360 C   0  0  0  0  0  0  0  0  0  0  0  0
   -5.1540   -1.7040   -0.9180 C   0  0  0  0  0  0  0  0  0  0  0  0
   -4.1400   -1.5580   -1.8450 C   0  0  0  0  0  0  0  0  0  0  0  0
   -3.7890   -0.2570   -1.9370 N   0  0  0  0  0  0  0  0  0  0  0  0
   -2.7490    0.2010   -2.8340 C   0  0  0  0  0  0  0  0  0  0  0  0
   -1.4060    0.1970   -2.2010 C   0  0  0  0  0  0  0  0  0  0  0  0
   -0.7870    1.2430   -1.5540 C   0  0  0  0  0  0  0  0  0  0  0  0
    0.4350    0.8340   -1.1130 N   0  0  0  0  0  0  0  0  0  0  0  0
    0.5830   -0.4340   -1.4720 C   0  0  0  0  0  0  0  0  0  0  0  0
    1.7270   -1.3620   -1.2470 C   0  0  1  0  0  0  0  0  0  0  0  0
    2.8510   -0.8600   -2.1350 C   0  0  0  0  0  0  0  0  0  0  0  0
    4.1730   -1.4850   -1.7590 C   0  0  0  0  0  0  0  0  0  0  0  0
    4.4540   -1.3370   -0.3460 N   0  0  1  0  0  0  0  0  0  0  0  0
    5.7870   -0.8800   -0.0720 C   0  0  0  0  0  0  0  0  0  0  0  0
    6.0420    0.5430   -0.5130 C   0  0  0  0  0  0  0  0  0  0  0  0
    7.4020    0.9300   -0.2070 N   0  0  0  0  0  0  0  0  0  0  0  0
    7.8480    1.0950    1.1420 C   0  0  0  0  0  0  0  0  0  0  0  0
    8.3810    0.1790    1.9150 C   0  0  0  0  0  0  0  0  0  0  0  0
    8.5810   -1.1010    1.4990 F   0  0  0  0  0  0  0  0  0  0  0  0
    8.6980    0.7700    3.2240 C   0  0  0  0  0  0  0  0  0  0  0  0
    8.2710    2.1820    3.1070 C   0  0  0  0  0  0  0  0  0  0  0  0
    7.7830    2.3380    1.8900 C   0  0  0  0  0  0  0  0  0  0  0  0
    7.1340    3.8480    1.2410 Cl  0  0  0  0  0  0  0  0  0  0  0  0
    3.4170   -0.6050    0.3390 C   0  0  0  0  0  0  0  0  0  0  0  0
    2.1410   -1.4450    0.1910 C   0  0  0  0  0  0  0  0  0  0  0  0
   -0.5360   -0.8220   -2.1330 N   0  0  0  0  0  0  0  0  0  0  0  0
   -4.5580    0.4440   -1.0860 C   0  0  0  0  0  0  0  0  0  0  0  0
   -6.5780    1.2980    0.9170 C   0  0  0  0  0  0  0  0  0  0  0  0
   -7.3340    1.3340    2.2250 C   0  0  0  0  0  0  0  0  0  0  0  0
  1  2  1  0
  2  3  2  0
  2 34  1  0
  3  4  1  0
  4  5  1  0
  5  6  1  0
  5 33  1  0
  6  7  1  0
  6 32  2  0
  7  8  2  0
  8  9  1  0
  9 10  1  0
  9 32  1  0
 10 11  1  0
 11 12  2  0
 11 31  1  0
 12 13  1  0
 13 14  2  0
 15 14  1  1
 14 31  1  0
 15 16  1  0
 15 30  1  0
 16 17  1  0
 17 18  1  0
 18 19  1  6
 18 29  1  0
 19 20  1  0
 20 21  1  0
 21 22  1  0
 22 23  2  0
 22 27  1  0
 23 24  1  0
 23 25  1  0
 25 26  1  0
 26 27  2  0
 27 28  1  0
 29 30  1  0
 33 34  1  0
M  CHG  2  13   1  18   1
M  END
