
     RDKit          3D

 34 38  0  0  0  0  0  0  0  0999 V2000
    2.5720    0.5810    3.0450 C   0  0  0  0  0  0  0  0  0  0  0  0
    2.8690   -0.2080    1.8210 C   0  0  0  0  0  0  0  0  0  0  0  0
    3.8550   -1.1300    1.7280 N   0  0  0  0  0  0  0  0  0  0  0  0
    3.8830   -1.6910    0.5440 N   0  0  0  0  0  0  0  0  0  0  0  0
    4.7900   -2.7250    0.0500 C   0  0  1  0  0  0  0  0  0  0  0  0
    6.1030   -2.0250   -0.2730 C   0  0  0  0  0  0  0  0  0  0  0  0
    4.9960   -3.7570    1.1170 C   0  0  0  0  0  0  0  0  0  0  0  0
    2.8860   -1.1250   -0.1720 C   0  0  0  0  0  0  0  0  0  0  0  0
    2.5160   -1.4310   -1.5770 C   0  0  0  0  0  0  0  0  0  0  0  0
    2.2460   -0.2030    0.6000 C   0  0  0  0  0  0  0  0  0  0  0  0
    1.1030    0.6770    0.2210 C   0  0  0  0  0  0  0  0  0  0  0  0
    0.0270    0.1120   -0.1590 N   0  0  0  0  0  0  0  0  0  0  0  0
   -1.2070    0.7860   -0.5740 C   0  0  0  0  0  0  0  0  0  0  0  0
   -2.1770    0.0120   -0.9610 C   0  0  0  0  0  0  0  0  0  0  0  0
   -3.5220    0.1050   -1.4670 C   0  0  0  0  0  0  0  0  0  0  0  0
   -4.3070   -0.8520   -0.9020 C   0  0  0  0  0  0  0  0  0  0  0  0
   -5.1970   -0.7510    0.2810 C   0  0  0  0  0  0  0  0  0  0  0  0
   -4.2680   -0.6670    1.5390 C   0  0  0  0  0  0  0  0  0  0  0  0
   -3.3840   -1.9100    1.4220 C   0  0  0  0  0  0  0  0  0  0  0  0
   -2.0750   -1.6950    0.8070 C   0  0  0  0  0  0  0  0  0  0  0  0
   -1.8930   -1.4900   -0.6320 C   0  0  1  0  0  0  0  0  0  0  0  0
   -2.5200   -2.2850   -1.5870 N   0  0  0  0  0  0  0  0  0  0  0  0
   -3.9830   -2.1760   -1.6180 C   0  0  0  0  0  0  0  0  0  0  0  0
   -1.1250    2.2180   -0.5120 C   0  0  0  0  0  0  0  0  0  0  0  0
   -2.2420    2.9120   -0.5810 C   0  0  0  0  0  0  0  0  0  0  0  0
   -3.4430    2.3280   -0.6910 F   0  0  0  0  0  0  0  0  0  0  0  0
   -2.1520    4.3760   -0.5330 C   0  0  0  0  0  0  0  0  0  0  0  0
   -3.2900    5.0540   -0.5670 C   0  0  0  0  0  0  0  0  0  0  0  0
   -4.8030    4.2240   -0.6640 Cl  0  0  0  0  0  0  0  0  0  0  0  0
   -0.8430    5.0120   -0.4510 C   0  0  0  0  0  0  0  0  0  0  0  0
    0.2170    4.1530   -0.0640 N   0  0  0  0  0  0  0  0  0  0  0  0
    0.1210    2.8710   -0.0820 C   0  0  0  0  0  0  0  0  0  0  0  0
    1.2460    2.0710    0.2880 N   0  0  0  0  0  0  0  0  0  0  0  0
    2.4910    2.6750    0.6760 C   0  0  0  0  0  0  0  0  0  0  0  0
  1  2  1  0
  2  3  2  0
  2 10  1  0
  3  4  1  0
  4  5  1  0
  4  8  1  0
  5  6  1  1
  5  7  1  0
  8  9  1  0
  8 10  2  0
 10 11  1  0
 11 12  2  0
 11 33  1  0
 12 13  1  0
 13 14  2  3
 13 24  1  0
 14 15  1  0
 14 21  1  0
 15 16  2  0
 16 17  1  0
 16 23  1  0
 17 18  1  0
 18 19  1  0
 19 20  1  0
 21 20  1  1
 21 22  1  0
 22 23  1  0
 24 25  2  0
 24 32  1  0
 25 26  1  0
 25 27  1  0
 27 28  2  3
 27 30  1  0
 28 29  1  0
 30 31  1  0
 31 32  2  0
 32 33  1  0
 33 34  1  0
M  CHG  2  22   1  31   1
M  END
