
     RDKit          3D

 32 33  0  0  0  0  0  0  0  0999 V2000
   -5.3230    1.5750    0.9010 C   0  0  0  0  0  0  0  0  0  0  0  0
   -5.0320    0.2670    0.2050 C   0  0  1  0  0  0  0  0  0  0  0  0
   -3.5910   -0.1660    0.4400 C   0  0  0  0  0  0  0  0  0  0  0  0
   -2.6260    0.7800   -0.0380 N   0  0  0  0  0  0  0  0  0  0  0  0
   -1.6640    1.0500    0.9950 C   0  0  0  0  0  0  0  0  0  0  0  0
   -0.2440    0.8610    0.5500 C   0  0  0  0  0  0  0  0  0  0  0  0
   -0.0490   -0.5380    0.1400 N   0  0  2  0  0  0  0  0  0  0  0  0
    0.4930   -1.2240    1.2650 C   0  0  0  0  0  0  0  0  0  0  0  0
    1.6230   -2.1430    0.9740 C   0  0  0  0  0  0  0  0  0  0  0  0
    2.5240   -1.7420    0.0840 C   0  0  0  0  0  0  0  0  0  0  0  0
    3.6270   -2.5620   -0.2460 N   0  0  0  0  0  0  0  0  0  0  0  0
    3.7470   -3.8000    0.3860 N   0  0  0  0  0  0  0  0  0  0  0  0
    2.7820   -4.2240    1.3380 C   0  0  0  0  0  0  0  0  0  0  0  0
    1.7620   -3.4350    1.6240 C   0  0  0  0  0  0  0  0  0  0  0  0
    2.2530   -0.4100   -0.5040 C   0  0  1  0  0  0  0  0  0  0  0  0
    3.2600    0.1020   -1.4480 C   0  0  0  0  0  0  0  0  0  0  0  0
    4.5660    0.2590   -0.7740 C   0  0  0  0  0  0  0  0  0  0  0  0
    4.7420    0.0150    0.4640 O   0  0  0  0  0  0  0  0  0  0  0  0
    5.7350    0.7020   -1.4740 N   0  0  0  0  0  0  0  0  0  0  0  0
    6.9340    0.8440   -0.8240 O   0  0  0  0  0  0  0  0  0  0  0  0
    7.4690    2.1240   -0.7210 C   0  0  0  0  0  0  0  0  0  0  0  0
    6.8280    3.0760   -1.2250 O   0  0  0  0  0  0  0  0  0  0  0  0
    8.7660    2.3760   -0.0320 C   0  0  0  0  0  0  0  0  0  0  0  0
    9.0440    3.7360   -0.0880 O   0  0  0  0  0  0  0  0  0  0  0  0
    0.8320   -0.4720   -1.0180 C   0  0  0  0  0  0  0  0  0  0  0  0
   -5.8890   -0.7940    0.8490 C   0  0  0  0  0  0  0  0  0  0  0  0
   -7.3350   -0.5400    0.7700 C   0  0  0  0  0  0  0  0  0  0  0  0
   -7.9090    0.6300    0.2500 N   0  0  0  0  0  0  0  0  0  0  0  0
   -8.1430   -1.4320    1.2000 O   0  0  0  0  0  0  0  0  0  0  0  0
   -5.2480    0.2880   -1.2480 C   0  0  0  0  0  0  0  0  0  0  0  0
   -4.6250    1.2340   -2.1050 N   0  0  0  0  0  0  0  0  0  0  0  0
   -6.0160   -0.5660   -1.7570 O   0  0  0  0  0  0  0  0  0  0  0  0
  2  1  1  1
  2  3  1  0
  2 26  1  0
  2 30  1  0
  3  4  1  0
  4  5  1  0
  5  6  1  0
  7  6  1  1
  7  8  1  0
  7 25  1  0
  8  9  1  0
  9 10  2  0
  9 14  1  0
 10 11  1  0
 10 15  1  0
 11 12  1  0
 12 13  1  0
 13 14  2  0
 15 16  1  6
 15 25  1  0
 16 17  1  0
 17 18  2  0
 17 19  1  0
 19 20  1  0
 20 21  1  0
 21 22  2  0
 21 23  1  0
 23 24  1  0
 26 27  1  0
 27 28  1  0
 27 29  2  0
 30 31  1  0
 30 32  2  0
M  CHG  2   4   1   7   1
M  END
