
     RDKit          3D

 33 35  0  0  0  0  0  0  0  0999 V2000
    5.2410    2.1610    2.6110 C   0  0  0  0  0  0  0  0  0  0  0  0
    4.9100    2.6770    1.4540 C   0  0  0  0  0  0  0  0  0  0  0  0
    4.2950    2.0500    0.3240 C   0  0  0  0  0  0  0  0  0  0  0  0
    4.0170    2.7700   -0.7490 C   0  0  0  0  0  0  0  0  0  0  0  0
    4.3360    4.2210   -0.7860 C   0  0  0  0  0  0  0  0  0  0  0  0
    3.8000    0.6240    0.3380 C   0  0  0  0  0  0  0  0  0  0  0  0
    2.4210    0.4060    0.1280 C   0  0  0  0  0  0  0  0  0  0  0  0
    1.3230    1.3660   -0.0550 C   0  0  0  0  0  0  0  0  0  0  0  0
    0.0610    0.7330   -0.2480 N   0  0  0  0  0  0  0  0  0  0  0  0
   -0.1150   -0.0440   -1.4180 C   0  0  0  0  0  0  0  0  0  0  0  0
   -1.3890   -0.8950   -1.2900 C   0  0  0  0  0  0  0  0  0  0  0  0
   -2.4940   -0.0630   -0.8390 N   0  0  0  0  0  0  0  0  0  0  0  0
   -3.7610   -0.5680   -0.5370 C   0  0  0  0  0  0  0  0  0  0  0  0
   -3.9760   -1.8130   -0.6710 O   0  0  0  0  0  0  0  0  0  0  0  0
   -4.8820    0.2710   -0.0670 C   0  0  2  0  0  0  0  0  0  0  0  0
   -4.5430    0.7720    1.3250 C   0  0  0  0  0  0  0  0  0  0  0  0
   -6.1120   -0.5120   -0.0210 N   0  0  0  0  0  0  0  0  0  0  0  0
   -7.3380   -0.2200   -0.6980 C   0  0  0  0  0  0  0  0  0  0  0  0
   -7.9130   -1.5940   -0.9750 C   0  0  0  0  0  0  0  0  0  0  0  0
   -7.4980   -2.3540    0.1820 N   0  0  0  0  0  0  0  0  0  0  0  0
   -6.3300   -1.7120    0.7030 C   0  0  0  0  0  0  0  0  0  0  0  0
   -5.6480   -2.1730    1.6420 O   0  0  0  0  0  0  0  0  0  0  0  0
   -2.2460    1.3570   -0.7190 C   0  0  0  0  0  0  0  0  0  0  0  0
   -1.0290    1.5430    0.1550 C   0  0  0  0  0  0  0  0  0  0  0  0
    2.1980   -1.3940    0.1880 S   0  0  0  0  0  0  0  0  0  0  0  0
    4.0050   -1.7090    0.4930 C   0  0  0  0  0  0  0  0  0  0  0  0
    4.4040   -2.9490    0.6340 C   0  0  0  0  0  0  0  0  0  0  0  0
    3.3480   -4.0320    0.5340 C   0  0  0  0  0  0  0  0  0  0  0  0
    2.6480   -3.9660   -0.7210 N   0  0  0  0  0  0  0  0  0  0  0  0
    4.5490   -0.4820    0.5110 C   0  0  0  0  0  0  0  0  0  0  0  0
    5.9180   -0.3760    0.5150 C   0  0  0  0  0  0  0  0  0  0  0  0
    6.5620    0.8510    0.3320 O   0  0  0  0  0  0  0  0  0  0  0  0
    6.9820   -1.7240    0.7420 Cl  0  0  0  0  0  0  0  0  0  0  0  0
  1  2  2  0
  2  3  1  0
  3  4  2  3
  3  6  1  0
  4  5  1  0
  6  7  2  0
  6 30  1  0
  7  8  1  0
  7 25  1  0
  8  9  1  0
  9 10  1  0
  9 24  1  0
 10 11  1  0
 11 12  1  0
 12 13  1  0
 12 23  1  0
 13 14  2  0
 13 15  1  0
 15 16  1  1
 15 17  1  0
 17 18  1  0
 17 21  1  0
 18 19  1  0
 19 20  1  0
 20 21  1  0
 21 22  2  0
 23 24  1  0
 25 26  1  0
 26 27  2  3
 26 30  1  0
 27 28  1  0
 28 29  1  0
 30 31  2  3
 31 32  1  0
 31 33  1  0
M  CHG  1  29   1
M  END
