
     RDKit          3D

 12 12  0  0  0  0  0  0  0  0999 V2000
   -1.6210    0.5060    1.3940 C   0  0  0  0  0  0  0  0  0  0  0  0
   -0.9310    0.4710    0.0310 C   0  0  2  0  0  0  0  0  0  0  0  0
   -1.3800    1.5990   -0.6590 O   0  0  0  0  0  0  0  0  0  0  0  0
   -1.3270   -0.7940   -0.6420 C   0  0  1  0  0  0  0  0  0  0  0  0
   -2.5370   -0.5460   -1.3300 O   0  0  0  0  0  0  0  0  0  0  0  0
   -0.3600   -1.3440   -1.6130 C   0  0  0  0  0  0  0  0  0  0  0  0
    0.9620   -1.0830   -1.3590 O   0  0  0  0  0  0  0  0  0  0  0  0
    1.1590    0.2900   -1.1790 C   0  0  0  0  0  0  0  0  0  0  0  0
    0.5730    0.6210    0.1790 C   0  0  1  0  0  0  0  0  0  0  0  0
    0.8840    1.9020    0.5500 O   0  0  0  0  0  0  0  0  0  0  0  0
    1.1270   -0.3650    1.1840 C   0  0  0  0  0  0  0  0  0  0  0  0
    2.5660   -0.1940    1.2180 N   0  0  0  0  0  0  0  0  0  0  0  0
  2  1  1  1
  2  3  1  0
  2  4  1  0
  2  9  1  0
  4  5  1  6
  4  6  1  0
  6  7  1  0
  7  8  1  0
  8  9  1  0
  9 10  1  1
  9 11  1  0
 11 12  1  0
M  CHG  1  12   1
M  END
