
     RDKit          3D

 12 13  0  0  0  0  0  0  0  0999 V2000
    3.2600    0.0640   -0.1410 N   0  0  0  0  0  0  0  0  0  0  0  0
    2.0280    0.2710   -0.8370 C   0  0  0  0  0  0  0  0  0  0  0  0
    1.9350    1.1620   -1.6500 O   0  0  0  0  0  0  0  0  0  0  0  0
    0.8610   -0.5910   -0.5760 C   0  0  1  0  0  0  0  0  0  0  0  0
    0.4700   -0.4180    0.8730 C   0  0  0  0  0  0  0  0  0  0  0  0
   -0.9330    0.0770    0.7890 C   0  0  2  0  0  0  0  0  0  0  0  0
   -1.2280    1.0080    1.7470 O   0  0  0  0  0  0  0  0  0  0  0  0
   -1.9590   -1.0330    0.6940 C   0  0  0  0  0  0  0  0  0  0  0  0
   -2.9830   -0.4370    0.0090 O   0  0  0  0  0  0  0  0  0  0  0  0
   -2.4760    0.4180   -0.9280 C   0  0  0  0  0  0  0  0  0  0  0  0
   -1.0100    0.6330   -0.6290 C   0  0  2  0  0  0  0  0  0  0  0  0
   -0.2160   -0.2290   -1.3420 O   0  0  0  0  0  0  0  0  0  0  0  0
  1  2  1  0
  2  3  2  0
  4  2  1  6
  4  5  1  0
  4 12  1  0
  5  6  1  0
  6  7  1  1
  6  8  1  0
  6 11  1  0
  8  9  1  0
  9 10  1  0
 11 10  1  6
 11 12  1  0
M  CHG  1   1   1
M  END
