
     RDKit          3D

 12 12  0  0  0  0  0  0  0  0999 V2000
    3.6560    0.2770    0.1110 C   0  0  0  0  0  0  0  0  0  0  0  0
    2.3540    0.2690    0.5890 O   0  0  0  0  0  0  0  0  0  0  0  0
    1.4260    0.0170   -0.4290 C   0  0  0  0  0  0  0  0  0  0  0  0
    0.0660    0.0290    0.1850 C   0  0  1  0  0  0  0  0  0  0  0  0
    0.0090   -0.9620    1.1600 O   0  0  0  0  0  0  0  0  0  0  0  0
   -0.1250    1.4120    0.8210 C   0  0  0  0  0  0  0  0  0  0  0  0
   -1.5600    1.5080    1.2700 C   0  0  0  0  0  0  0  0  0  0  0  0
   -2.1520    0.2490    1.3240 O   0  0  0  0  0  0  0  0  0  0  0  0
   -2.3390   -0.3060    0.0630 C   0  0  2  0  0  0  0  0  0  0  0  0
   -2.5750   -1.6830    0.2710 O   0  0  0  0  0  0  0  0  0  0  0  0
   -1.0560   -0.1770   -0.7690 C   0  0  2  0  0  0  0  0  0  0  0  0
   -0.9570   -1.3520   -1.5770 N   0  0  0  0  0  0  0  0  0  0  0  0
  1  2  1  0
  2  3  1  0
  3  4  1  0
  4  5  1  1
  4  6  1  0
  4 11  1  0
  6  7  1  0
  7  8  1  0
  8  9  1  0
  9 10  1  1
  9 11  1  0
 11 12  1  1
M  CHG  1  12   1
M  END
