
     RDKit          3D

 10  9  0  0  0  0  0  0  0  0999 V2000
    3.1390    1.2430   -0.5630 C   0  0  0  0  0  0  0  0  0  0  0  0
    3.2150    0.0510    0.3680 C   0  0  0  0  0  0  0  0  0  0  0  0
    1.8360   -0.2060    0.9040 C   0  0  0  0  0  0  0  0  0  0  0  0
    0.8710   -0.5050   -0.2490 C   0  0  1  0  0  0  0  0  0  0  0  0
    1.3350   -1.6140   -0.9040 O   0  0  0  0  0  0  0  0  0  0  0  0
   -0.4890   -0.6960    0.3860 C   0  0  0  0  0  0  0  0  0  0  0  0
   -1.5630   -0.9970   -0.5950 C   0  0  0  0  0  0  0  0  0  0  0  0
   -2.7670   -1.1660    0.0640 O   0  0  0  0  0  0  0  0  0  0  0  0
   -3.1920   -0.0730    0.7740 C   0  0  0  0  0  0  0  0  0  0  0  0
   -3.3470    1.0930   -0.1850 C   0  0  0  0  0  0  0  0  0  0  0  0
  1  2  1  0
  2  3  1  0
  3  4  1  0
  4  5  1  1
  4  6  1  0
  6  7  1  0
  7  8  1  0
  8  9  1  0
  9 10  1  0
M  END
