
     RDKit          3D

 24 25  0  0  0  0  0  0  0  0999 V2000
   -4.2400    2.6030    5.9540 C   0  0  0  0  0  0  0  0  0  0  0  0
   -3.5230    1.8730    4.9020 C   0  0  0  0  0  0  0  0  0  0  0  0
   -2.2340    1.8840    4.6380 C   0  0  0  0  0  0  0  0  0  0  0  0
   -1.1980    2.5530    5.2400 C   0  0  0  0  0  0  0  0  0  0  0  0
   -1.2560    3.3880    6.2740 C   0  0  0  0  0  0  0  0  0  0  0  0
    0.4150    4.1700    6.8860 Br  0  0  0  0  0  0  0  0  0  0  0  0
   -0.1040    2.2110    4.5890 O   0  0  0  0  0  0  0  0  0  0  0  0
   -0.3350    1.3840    3.6230 C   0  0  0  0  0  0  0  0  0  0  0  0
    0.4310    0.7410    2.6720 C   0  0  0  0  0  0  0  0  0  0  0  0
   -0.0850   -0.1220    1.7240 C   0  0  0  0  0  0  0  0  0  0  0  0
    0.8050   -0.7270    0.7910 N   0  0  0  0  0  0  0  0  0  0  0  0
    0.4650   -1.4810   -0.3390 C   0  0  0  0  0  0  0  0  0  0  0  0
   -0.7320   -1.6850   -0.6230 O   0  0  0  0  0  0  0  0  0  0  0  0
    1.5070   -2.0340   -1.1950 N   0  0  0  0  0  0  0  0  0  0  0  0
    1.1630   -2.7930   -2.3320 C   0  0  0  0  0  0  0  0  0  0  0  0
    1.4900   -2.4080   -3.5490 C   0  0  0  0  0  0  0  0  0  0  0  0
    2.2240   -1.1670   -3.7290 C   0  0  0  0  0  0  0  0  0  0  0  0
    2.5210   -0.4620   -2.7180 O   0  0  0  0  0  0  0  0  0  0  0  0
    2.6170   -0.7470   -5.0960 C   0  0  0  0  0  0  0  0  0  0  0  0
    2.2310   -1.7910   -6.0890 C   0  0  0  0  0  0  0  0  0  0  0  0
    2.6130   -1.4240   -7.4470 N   0  0  0  0  0  0  0  0  0  0  0  0
   -1.4350   -0.3750    1.7020 C   0  0  0  0  0  0  0  0  0  0  0  0
   -2.2280    0.2680    2.6570 C   0  0  0  0  0  0  0  0  0  0  0  0
   -1.6940    1.1180    3.5860 C   0  0  0  0  0  0  0  0  0  0  0  0
  1  2  1  0
  2  3  2  3
  3  4  1  0
  3 24  1  0
  4  5  2  3
  4  7  1  0
  5  6  1  0
  7  8  1  0
  8  9  2  0
  8 24  1  0
  9 10  1  0
 10 11  1  0
 10 22  2  0
 11 12  1  0
 12 13  2  0
 12 14  1  0
 14 15  1  0
 15 16  2  3
 16 17  1  0
 17 18  2  0
 17 19  1  0
 19 20  1  0
 20 21  1  0
 22 23  1  0
 23 24  2  0
M  CHG  1  21   1
M  END
