
     RDKit          3D

 24 26  0  0  0  0  0  0  0  0999 V2000
    4.8680    2.2340    1.1240 N   0  0  0  0  0  0  0  0  0  0  0  0
    5.3760    0.8860    1.0430 C   0  0  0  0  0  0  0  0  0  0  0  0
    4.2870   -0.1100    0.7050 C   0  0  0  0  0  0  0  0  0  0  0  0
    3.2390   -0.0420    1.7920 C   0  0  0  0  0  0  0  0  0  0  0  0
    2.1810   -0.9470    1.5520 O   0  0  0  0  0  0  0  0  0  0  0  0
    1.3570   -0.9350    0.4560 C   0  0  0  0  0  0  0  0  0  0  0  0
    1.5500   -0.0450   -0.4190 O   0  0  0  0  0  0  0  0  0  0  0  0
    0.2970   -1.8910    0.2770 N   0  0  0  0  0  0  0  0  0  0  0  0
   -0.4790   -1.7630   -0.9050 C   0  0  0  0  0  0  0  0  0  0  0  0
   -0.1550   -2.4020   -2.0830 C   0  0  0  0  0  0  0  0  0  0  0  0
    1.3970   -3.5110   -2.1540 Br  0  0  0  0  0  0  0  0  0  0  0  0
   -0.9520   -2.2350   -3.1950 C   0  0  0  0  0  0  0  0  0  0  0  0
   -0.6800   -2.8130   -4.3000 O   0  0  0  0  0  0  0  0  0  0  0  0
   -2.0310   -1.4410   -3.0800 N   0  0  0  0  0  0  0  0  0  0  0  0
   -2.3690   -0.8060   -1.9430 C   0  0  0  0  0  0  0  0  0  0  0  0
   -3.4870    0.0070   -1.8520 C   0  0  0  0  0  0  0  0  0  0  0  0
   -3.8360    0.6600   -0.6820 C   0  0  0  0  0  0  0  0  0  0  0  0
   -4.9480    1.4690   -0.5910 C   0  0  0  0  0  0  0  0  0  0  0  0
   -5.3050    2.1270    0.5730 C   0  0  0  0  0  0  0  0  0  0  0  0
   -4.5300    1.9820    1.7060 C   0  0  0  0  0  0  0  0  0  0  0  0
   -3.4050    1.1670    1.6230 C   0  0  0  0  0  0  0  0  0  0  0  0
   -3.0580    0.5140    0.4510 C   0  0  0  0  0  0  0  0  0  0  0  0
   -1.9340   -0.2980    0.3730 C   0  0  0  0  0  0  0  0  0  0  0  0
   -1.6050   -0.9400   -0.8030 C   0  0  0  0  0  0  0  0  0  0  0  0
  1  2  1  0
  2  3  1  0
  3  4  1  0
  4  5  1  0
  5  6  1  0
  6  7  2  0
  6  8  1  0
  8  9  1  0
  9 10  2  0
  9 24  1  0
 10 11  1  0
 10 12  1  0
 12 13  2  0
 12 14  1  0
 14 15  1  0
 15 16  2  0
 15 24  1  0
 16 17  1  0
 17 18  2  0
 17 22  1  0
 18 19  1  0
 19 20  2  0
 20 21  1  0
 21 22  2  0
 22 23  1  0
 23 24  2  0
M  CHG  1   1   1
M  END
