
     RDKit          3D

 14 16  0  0  0  0  0  0  0  0999 V2000
   -1.0510    1.8070   -0.9380 C   0  0  0  0  0  0  0  0  0  0  0  0
   -0.7850    0.4920   -0.2360 C   0  0  1  0  0  0  0  0  0  0  0  0
   -1.6970    0.3820    0.9600 C   0  0  0  0  0  0  0  0  0  0  0  0
   -2.8450   -0.4530    0.3780 C   0  0  0  0  0  0  0  0  0  0  0  0
   -2.0860   -1.4810   -0.3260 N   0  0  0  0  0  0  0  0  0  0  0  0
   -1.1330   -0.6970   -1.0690 C   0  0  2  0  0  0  0  0  0  0  0  0
    0.1020   -1.3740   -1.3070 N   0  0  0  0  0  0  0  0  0  0  0  0
    1.1360   -0.7870   -0.5390 C   0  0  0  0  0  0  0  0  0  0  0  0
    2.4690   -1.1890   -0.3950 C   0  0  0  0  0  0  0  0  0  0  0  0
    3.3350   -0.4810    0.4070 C   0  0  0  0  0  0  0  0  0  0  0  0
    2.8430    0.6300    1.0560 C   0  0  0  0  0  0  0  0  0  0  0  0
    3.6860    1.3680    1.8710 O   0  0  0  0  0  0  0  0  0  0  0  0
    1.5300    1.0210    0.9100 C   0  0  0  0  0  0  0  0  0  0  0  0
    0.6400    0.3180    0.1050 C   0  0  0  0  0  0  0  0  0  0  0  0
  2  1  1  6
  2  3  1  0
  2  6  1  0
  2 14  1  0
  3  4  1  0
  4  5  1  0
  6  5  1  1
  6  7  1  0
  7  8  1  0
  8  9  2  0
  8 14  1  0
  9 10  1  0
 10 11  2  0
 11 12  1  0
 11 13  1  0
 13 14  2  0
M  CHG  1   5   1
M  END
