
     RDKit          3D

 24 26  0  0  0  0  0  0  0  0999 V2000
   -1.5000   -1.6550   -2.2420 C   0  0  0  0  0  0  0  0  0  0  0  0
   -1.8490   -2.0400   -0.8750 N   0  0  0  0  0  0  0  0  0  0  0  0
   -2.3640   -0.9310   -0.1570 C   0  0  0  0  0  0  0  0  0  0  0  0
   -3.7280   -0.7960    0.0390 C   0  0  0  0  0  0  0  0  0  0  0  0
   -4.8750   -2.1410   -0.6850 Br  0  0  0  0  0  0  0  0  0  0  0  0
   -4.2740    0.2650    0.7300 C   0  0  0  0  0  0  0  0  0  0  0  0
   -3.4260    1.2420    1.2550 C   0  0  0  0  0  0  0  0  0  0  0  0
   -2.0650    1.1160    1.0650 C   0  0  0  0  0  0  0  0  0  0  0  0
   -1.2460    2.0920    1.5910 C   0  0  0  0  0  0  0  0  0  0  0  0
    0.0970    1.9670    1.4030 C   0  0  0  0  0  0  0  0  0  0  0  0
    0.6800    0.8990    0.7050 C   0  0  0  0  0  0  0  0  0  0  0  0
    2.0880    0.9150    0.5950 N   0  0  0  0  0  0  0  0  0  0  0  0
    2.8740   -0.0540   -0.0280 C   0  0  0  0  0  0  0  0  0  0  0  0
    2.3460   -1.0520   -0.5570 O   0  0  0  0  0  0  0  0  0  0  0  0
    4.3740    0.0480   -0.0960 C   0  0  0  0  0  0  0  0  0  0  0  0
    4.9660   -1.1240   -0.8220 C   0  0  0  0  0  0  0  0  0  0  0  0
    6.4750   -0.9210   -0.8330 C   0  0  0  0  0  0  0  0  0  0  0  0
    7.0500   -1.9870   -1.4960 O   0  0  0  0  0  0  0  0  0  0  0  0
   -0.1680   -0.0340    0.2070 C   0  0  0  0  0  0  0  0  0  0  0  0
   -1.5510    0.0500    0.3730 C   0  0  0  0  0  0  0  0  0  0  0  0
   -4.1970    2.2310    1.9200 N   0  0  0  0  0  0  0  0  0  0  0  0
   -5.6020    1.9700    1.7550 C   0  0  0  0  0  0  0  0  0  0  0  0
   -5.6380    0.6550    1.0810 C   0  0  0  0  0  0  0  0  0  0  0  0
   -6.6480   -0.0490    0.8300 O   0  0  0  0  0  0  0  0  0  0  0  0
  1  2  1  0
  2  3  1  0
  3  4  2  0
  3 20  1  0
  4  5  1  0
  4  6  1  0
  6  7  2  0
  6 23  1  0
  7  8  1  0
  7 21  1  0
  8  9  2  0
  8 20  1  0
  9 10  1  0
 10 11  2  0
 11 12  1  0
 11 19  1  0
 12 13  1  0
 13 14  2  0
 13 15  1  0
 15 16  1  0
 16 17  1  0
 17 18  1  0
 19 20  2  0
 21 22  1  0
 22 23  1  0
 23 24  2  0
M  CHG  1   2   1
M  END
