
     RDKit          3D

 16 16  0  0  0  0  0  0  0  0999 V2000
   -2.7670    2.7390   -1.0630 N   0  0  0  0  0  0  0  0  0  0  0  0
   -1.9990    1.7430   -0.4090 C   0  0  0  0  0  0  0  0  0  0  0  0
   -2.1100    0.4910   -0.8010 C   0  0  0  0  0  0  0  0  0  0  0  0
   -1.3460   -0.5830   -0.1670 C   0  0  0  0  0  0  0  0  0  0  0  0
   -1.4930   -1.8190   -0.5980 C   0  0  0  0  0  0  0  0  0  0  0  0
   -0.7170   -2.9410    0.0390 C   0  0  0  0  0  0  0  0  0  0  0  0
   -1.8490   -4.1440    0.7260 Cl  0  0  0  0  0  0  0  0  0  0  0  0
   -0.4430   -0.3250    0.9060 N   0  0  0  0  0  0  0  0  0  0  0  0
    0.9420   -0.1160    0.7090 C   0  0  0  0  0  0  0  0  0  0  0  0
    1.4330   -0.1650   -0.5770 C   0  0  0  0  0  0  0  0  0  0  0  0
    2.6930    0.0410   -1.0310 N   0  0  0  0  0  0  0  0  0  0  0  0
    3.8230    0.2020   -0.3030 C   0  0  0  0  0  0  0  0  0  0  0  0
    3.9190    0.5060    1.0440 C   0  0  0  0  0  0  0  0  0  0  0  0
    3.0190    0.2340    2.0290 N   0  0  0  0  0  0  0  0  0  0  0  0
    1.6710    0.1190    1.8490 C   0  0  0  0  0  0  0  0  0  0  0  0
    0.9710    0.2480    2.8870 O   0  0  0  0  0  0  0  0  0  0  0  0
  1  2  1  0
  2  3  2  3
  3  4  1  0
  4  5  2  3
  4  8  1  0
  5  6  1  0
  6  7  1  0
  8  9  1  0
  9 10  2  0
  9 15  1  0
 10 11  1  0
 11 12  2  0
 12 13  1  0
 13 14  2  0
 14 15  1  0
 15 16  2  0
M  CHG  1   1   1
M  END
