
     RDKit          3D

 25 28  0  0  0  0  0  0  0  0999 V2000
   -3.2830   -2.0330    2.1510 C   0  0  0  0  0  0  0  0  0  0  0  0
   -3.2620   -1.9920    0.6280 C   0  0  1  0  0  0  0  0  0  0  0  0
   -2.9640   -3.3930    0.1390 C   0  0  0  0  0  0  0  0  0  0  0  0
   -4.6010   -1.5730    0.0980 C   0  0  0  0  0  0  0  0  0  0  0  0
   -2.1720   -1.0540    0.2090 C   0  0  0  0  0  0  0  0  0  0  0  0
   -0.8850   -1.3250    0.0700 N   0  0  0  0  0  0  0  0  0  0  0  0
   -0.1710   -0.2150   -0.3010 C   0  0  0  0  0  0  0  0  0  0  0  0
    1.2760   -0.2200   -0.5170 C   0  0  0  0  0  0  0  0  0  0  0  0
    1.8760   -0.4240   -1.7370 C   0  0  0  0  0  0  0  0  0  0  0  0
    3.2180   -0.4810   -1.8830 N   0  0  0  0  0  0  0  0  0  0  0  0
    4.0550   -0.3410   -0.8450 C   0  0  0  0  0  0  0  0  0  0  0  0
    5.4220   -0.4080   -0.9780 C   0  0  0  0  0  0  0  0  0  0  0  0
    6.2220   -0.2670    0.1290 C   0  0  0  0  0  0  0  0  0  0  0  0
    5.6920   -0.0560    1.4060 C   0  0  0  0  0  0  0  0  0  0  0  0
    4.3140    0.0070    1.5100 C   0  0  0  0  0  0  0  0  0  0  0  0
    3.4940   -0.1320    0.4000 C   0  0  0  0  0  0  0  0  0  0  0  0
    2.1120   -0.0720    0.5690 C   0  0  0  0  0  0  0  0  0  0  0  0
   -1.0900    0.7720   -0.3910 C   0  0  0  0  0  0  0  0  0  0  0  0
   -0.8640    2.1600   -0.7460 C   0  0  0  0  0  0  0  0  0  0  0  0
   -0.5990    2.5590   -2.0230 C   0  0  0  0  0  0  0  0  0  0  0  0
   -0.3870    3.9070   -2.2700 C   0  0  0  0  0  0  0  0  0  0  0  0
   -0.4470    4.7930   -1.2420 N   0  0  0  0  0  0  0  0  0  0  0  0
   -0.7040    4.4460    0.0220 C   0  0  0  0  0  0  0  0  0  0  0  0
   -0.9160    3.0910    0.2610 C   0  0  0  0  0  0  0  0  0  0  0  0
   -2.3190    0.2370   -0.0720 N   0  0  0  0  0  0  0  0  0  0  0  0
  2  1  1  1
  2  3  1  0
  2  4  1  0
  2  5  1  0
  5  6  2  0
  5 25  1  0
  6  7  1  0
  7  8  1  0
  7 18  2  0
  8  9  2  0
  8 17  1  0
  9 10  1  0
 10 11  2  0
 11 12  1  0
 11 16  1  0
 12 13  2  0
 13 14  1  0
 14 15  2  0
 15 16  1  0
 16 17  2  0
 18 19  1  0
 18 25  1  0
 19 20  2  0
 19 24  1  0
 20 21  1  0
 21 22  2  0
 22 23  1  0
 23 24  2  0
M  END
