
     RDKit          3D

 16 17  0  0  0  0  0  0  0  0999 V2000
   -2.8670    1.5300   -0.8940 C   0  0  0  0  0  0  0  0  0  0  0  0
   -2.5190    1.7110    0.3620 C   0  0  0  0  0  0  0  0  0  0  0  0
   -1.5700    0.8600    1.0720 C   0  0  0  0  0  0  0  0  0  0  0  0
   -0.9770   -0.2270    0.4010 N   0  0  0  0  0  0  0  0  0  0  0  0
   -1.7650   -1.4130   -0.0190 C   0  0  0  0  0  0  0  0  0  0  0  0
   -0.9810   -2.6300    0.3650 C   0  0  0  0  0  0  0  0  0  0  0  0
   -1.5550   -3.5670    0.9070 O   0  0  0  0  0  0  0  0  0  0  0  0
    0.3960   -2.6770    0.1000 N   0  0  0  0  0  0  0  0  0  0  0  0
    1.1180   -1.4460   -0.0220 C   0  0  0  0  0  0  0  0  0  0  0  0
    2.4780   -1.4510   -0.2880 C   0  0  0  0  0  0  0  0  0  0  0  0
    3.0890   -0.2760   -0.3920 N   0  0  0  0  0  0  0  0  0  0  0  0
    2.4630    0.9010   -0.2550 C   0  0  0  0  0  0  0  0  0  0  0  0
    3.1050    2.1670   -0.3660 N   0  0  0  0  0  0  0  0  0  0  0  0
    1.0970    0.9230    0.0110 C   0  0  0  0  0  0  0  0  0  0  0  0
    0.2750    2.4530    0.1880 Cl  0  0  0  0  0  0  0  0  0  0  0  0
    0.4140   -0.2680    0.1300 C   0  0  0  0  0  0  0  0  0  0  0  0
  1  2  2  0
  2  3  1  0
  3  4  1  0
  4  5  1  0
  4 16  1  0
  5  6  1  0
  6  7  2  0
  6  8  1  0
  8  9  1  0
  9 10  2  0
  9 16  1  0
 10 11  1  0
 11 12  2  0
 12 13  1  0
 12 14  1  0
 14 15  1  0
 14 16  2  0
M  CHG  1  11   1
M  END
