
     RDKit          3D

 16 17  0  0  0  0  0  0  0  0999 V2000
   -3.9870   -0.1350    0.0360 C   0  0  0  0  0  0  0  0  0  0  0  0
   -2.5280   -0.4440   -0.0510 C   0  0  0  0  0  0  0  0  0  0  0  0
   -1.5770    0.5540    0.0600 C   0  0  0  0  0  0  0  0  0  0  0  0
   -0.2230    0.3030   -0.0170 C   0  0  0  0  0  0  0  0  0  0  0  0
    0.2340   -0.9970   -0.2120 C   0  0  0  0  0  0  0  0  0  0  0  0
   -0.7190   -1.9890   -0.3220 C   0  0  0  0  0  0  0  0  0  0  0  0
   -2.0720   -1.7310   -0.2450 C   0  0  0  0  0  0  0  0  0  0  0  0
   -3.1980   -3.0640   -0.3970 Cl  0  0  0  0  0  0  0  0  0  0  0  0
    1.5750   -1.4570   -0.3170 N   0  0  0  0  0  0  0  0  0  0  0  0
    2.7800   -0.8200    0.0910 C   0  0  0  0  0  0  0  0  0  0  0  0
    3.8350   -1.5440    0.1080 N   0  0  0  0  0  0  0  0  0  0  0  0
    2.9710    0.5520    0.4940 N   0  0  0  0  0  0  0  0  0  0  0  0
    1.9730    1.5630    0.4880 C   0  0  0  0  0  0  0  0  0  0  0  0
    2.3390    2.7030    0.8550 O   0  0  0  0  0  0  0  0  0  0  0  0
    0.6000    1.4750    0.1220 N   0  0  0  0  0  0  0  0  0  0  0  0
   -0.1160    2.6960   -0.1600 C   0  0  0  0  0  0  0  0  0  0  0  0
  1  2  1  0
  2  3  2  0
  2  7  1  0
  3  4  1  0
  4  5  2  0
  4 15  1  0
  5  6  1  0
  5  9  1  0
  6  7  2  0
  7  8  1  0
  9 10  1  0
 10 11  2  0
 10 12  1  0
 12 13  1  0
 13 14  2  0
 13 15  1  0
 15 16  1  0
M  CHG  1  11   1
M  END
