
     RDKit          3D

 16 17  0  0  0  0  0  0  0  0999 V2000
    0.3290   -1.7340   -0.5570 O   0  0  0  0  0  0  0  0  0  0  0  0
    1.0520   -0.7190   -0.2990 C   0  0  0  0  0  0  0  0  0  0  0  0
    0.3580    0.4770    0.0190 N   0  0  0  0  0  0  0  0  0  0  0  0
   -1.0770    0.4910    0.0370 C   0  0  0  0  0  0  0  0  0  0  0  0
   -1.7400    1.2890   -0.7580 C   0  0  0  0  0  0  0  0  0  0  0  0
   -3.1930    1.3390   -0.7770 C   0  0  0  0  0  0  0  0  0  0  0  0
   -3.8640    0.4840    0.1070 N   0  0  0  0  0  0  0  0  0  0  0  0
   -3.1220   -0.3380    0.9230 C   0  0  0  0  0  0  0  0  0  0  0  0
   -1.8120   -0.3790    0.9360 C   0  0  0  0  0  0  0  0  0  0  0  0
    2.4900   -0.8600   -0.3510 C   0  0  0  0  0  0  0  0  0  0  0  0
    3.0730   -2.0660   -0.6710 C   0  0  0  0  0  0  0  0  0  0  0  0
    4.4080   -2.2340   -0.7280 N   0  0  0  0  0  0  0  0  0  0  0  0
    5.1690   -1.2090   -0.4690 N   0  0  0  0  0  0  0  0  0  0  0  0
    4.6990   -0.0030   -0.1500 C   0  0  0  0  0  0  0  0  0  0  0  0
    5.8200    1.2860    0.1750 Cl  0  0  0  0  0  0  0  0  0  0  0  0
    3.3390    0.1890   -0.0860 C   0  0  0  0  0  0  0  0  0  0  0  0
  1  2  2  0
  2  3  1  0
  2 10  1  0
  3  4  1  0
  4  5  2  0
  4  9  1  0
  5  6  1  0
  6  7  1  0
  7  8  1  0
  8  9  2  0
 10 11  2  0
 10 16  1  0
 11 12  1  0
 12 13  2  0
 13 14  1  0
 14 15  1  0
 14 16  2  0
M  CHG  1   7   1
M  END
