
     RDKit          3D

 23 25  0  0  0  0  0  0  0  0999 V2000
    1.3320   -0.3240    2.9400 O   0  0  0  0  0  0  0  0  0  0  0  0
    0.8630   -0.2830    1.7600 C   0  0  0  0  0  0  0  0  0  0  0  0
   -0.4570   -0.1780    1.5350 N   0  0  0  0  0  0  0  0  0  0  0  0
   -0.9960   -0.1320    0.3080 C   0  0  0  0  0  0  0  0  0  0  0  0
   -2.3530   -0.0210    0.1170 C   0  0  0  0  0  0  0  0  0  0  0  0
   -3.2680    0.0070    1.1910 N   0  0  0  0  0  0  0  0  0  0  0  0
   -4.6820    0.3240    1.0040 C   0  0  0  0  0  0  0  0  0  0  0  0
   -4.8590    1.8050    0.7910 C   0  0  1  0  0  0  0  0  0  0  0  0
   -6.2160    2.0870    0.6020 F   0  0  0  0  0  0  0  0  0  0  0  0
   -4.4810    2.4010    2.0140 F   0  0  0  0  0  0  0  0  0  0  0  0
   -4.0670    2.3550   -0.1520 F   0  0  0  0  0  0  0  0  0  0  0  0
   -2.7830    0.0200   -1.2120 C   0  0  0  0  0  0  0  0  0  0  0  0
   -1.9070   -0.0460   -2.2710 C   0  0  0  0  0  0  0  0  0  0  0  0
   -0.5620   -0.1560   -2.0620 C   0  0  0  0  0  0  0  0  0  0  0  0
   -0.0980   -0.2000   -0.7470 C   0  0  0  0  0  0  0  0  0  0  0  0
    1.2180   -0.3050   -0.5440 N   0  0  0  0  0  0  0  0  0  0  0  0
    1.7290   -0.3490    0.6730 C   0  0  0  0  0  0  0  0  0  0  0  0
    3.1090   -0.4590    0.9040 N   0  0  0  0  0  0  0  0  0  0  0  0
    4.0410   -0.5310   -0.1540 C   0  0  0  0  0  0  0  0  0  0  0  0
    3.8410   -0.5110   -1.4940 C   0  0  0  0  0  0  0  0  0  0  0  0
    5.0710   -0.6070   -2.1200 C   0  0  0  0  0  0  0  0  0  0  0  0
    5.9840   -0.6820   -1.1490 N   0  0  0  0  0  0  0  0  0  0  0  0
    5.4280   -0.6410    0.0500 C   0  0  0  0  0  0  0  0  0  0  0  0
  1  2  2  0
  2  3  1  0
  2 17  1  0
  3  4  1  0
  4  5  2  0
  4 15  1  0
  5  6  1  0
  5 12  1  0
  6  7  1  0
  7  8  1  0
  8  9  1  6
  8 10  1  0
  8 11  1  0
 12 13  2  0
 13 14  1  0
 14 15  2  0
 15 16  1  0
 16 17  2  0
 17 18  1  0
 18 19  1  0
 19 20  1  0
 19 23  2  0
 20 21  2  0
 21 22  1  0
 22 23  1  0
M  END
