
     RDKit          3D

 23 25  0  0  0  0  0  0  0  0999 V2000
    3.3720    1.5030   -2.3290 O   0  0  0  0  0  0  0  0  0  0  0  0
    2.2630    1.2050   -1.8080 C   0  0  0  0  0  0  0  0  0  0  0  0
    1.0360    1.5670   -2.2240 N   0  0  0  0  0  0  0  0  0  0  0  0
    0.1390    1.0330   -1.3820 C   0  0  0  0  0  0  0  0  0  0  0  0
   -1.2660    1.1960   -1.4970 N   0  0  0  0  0  0  0  0  0  0  0  0
   -2.2020    0.6370   -0.6160 C   0  0  0  0  0  0  0  0  0  0  0  0
   -3.3620    0.1970   -1.0710 C   0  0  0  0  0  0  0  0  0  0  0  0
   -4.3600   -0.3890   -0.1980 C   0  0  0  0  0  0  0  0  0  0  0  0
   -5.5310   -0.8230   -0.7240 C   0  0  0  0  0  0  0  0  0  0  0  0
   -5.8110   -0.7330   -2.0410 F   0  0  0  0  0  0  0  0  0  0  0  0
   -6.4450   -1.3630    0.1000 F   0  0  0  0  0  0  0  0  0  0  0  0
   -4.1340   -0.5230    1.2420 C   0  0  0  0  0  0  0  0  0  0  0  0
   -2.8270   -0.0110    1.6550 C   0  0  0  0  0  0  0  0  0  0  0  0
   -1.9790    0.5030    0.8170 C   0  0  0  0  0  0  0  0  0  0  0  0
    0.8340    0.3520   -0.4630 N   0  0  0  0  0  0  0  0  0  0  0  0
    2.1410    0.4470   -0.7100 N   0  0  0  0  0  0  0  0  0  0  0  0
    3.1550   -0.1680    0.0860 C   0  0  0  0  0  0  0  0  0  0  0  0
    4.3820    0.4000    0.2880 C   0  0  0  0  0  0  0  0  0  0  0  0
    5.3450   -0.2060    1.0570 C   0  0  0  0  0  0  0  0  0  0  0  0
    5.0860   -1.4180    1.6490 C   0  0  0  0  0  0  0  0  0  0  0  0
    6.0270   -2.0270    2.4100 F   0  0  0  0  0  0  0  0  0  0  0  0
    3.8440   -1.9800    1.4360 C   0  0  0  0  0  0  0  0  0  0  0  0
    2.9260   -1.3620    0.6800 N   0  0  0  0  0  0  0  0  0  0  0  0
  1  2  2  0
  2  3  1  0
  2 16  1  0
  3  4  1  0
  4  5  1  0
  4 15  2  0
  5  6  1  0
  6  7  2  0
  6 14  1  0
  7  8  1  0
  8  9  2  3
  8 12  1  0
  9 10  1  0
  9 11  1  0
 12 13  1  0
 13 14  2  0
 15 16  1  0
 16 17  1  0
 17 18  2  0
 17 23  1  0
 18 19  1  0
 19 20  2  0
 20 21  1  0
 20 22  1  0
 22 23  2  0
M  END
