
     RDKit          3D

 23 25  0  0  0  0  0  0  0  0999 V2000
    2.4620    0.5640    2.3160 O   0  0  0  0  0  0  0  0  0  0  0  0
    2.5730    0.2910    1.0980 C   0  0  0  0  0  0  0  0  0  0  0  0
    1.4110    0.3520    0.2820 N   0  0  0  0  0  0  0  0  0  0  0  0
    0.0960    0.7170    0.8020 C   0  0  1  0  0  0  0  0  0  0  0  0
   -0.3860    1.9730    0.2690 C   0  0  0  0  0  0  0  0  0  0  0  0
   -1.5860    2.1380   -0.2180 C   0  0  0  0  0  0  0  0  0  0  0  0
   -2.5920    1.0740   -0.2850 C   0  0  0  0  0  0  0  0  0  0  0  0
   -3.7680    1.2800   -0.7870 C   0  0  0  0  0  0  0  0  0  0  0  0
   -3.9840    2.5850   -1.2510 F   0  0  0  0  0  0  0  0  0  0  0  0
   -4.9260    0.4180   -0.9700 C   0  0  2  0  0  0  0  0  0  0  0  0
   -5.0960    0.1570   -2.3220 F   0  0  0  0  0  0  0  0  0  0  0  0
   -6.0650    1.1690   -0.5460 F   0  0  0  0  0  0  0  0  0  0  0  0
   -2.1200   -0.2220    0.2540 C   0  0  0  0  0  0  0  0  0  0  0  0
   -2.9910   -1.2490    0.2180 N   0  0  0  0  0  0  0  0  0  0  0  0
   -2.6520   -2.4550    0.6760 C   0  0  0  0  0  0  0  0  0  0  0  0
   -1.3620   -2.6300    1.1980 C   0  0  0  0  0  0  0  0  0  0  0  0
   -0.5120   -1.6090    1.2270 N   0  0  0  0  0  0  0  0  0  0  0  0
   -0.8550   -0.3730    0.7600 C   0  0  0  0  0  0  0  0  0  0  0  0
    3.8830   -0.0730    0.5790 C   0  0  0  0  0  0  0  0  0  0  0  0
    4.2430   -0.4080   -0.7070 C   0  0  0  0  0  0  0  0  0  0  0  0
    5.5540   -0.6630   -0.6990 N   0  0  0  0  0  0  0  0  0  0  0  0
    6.0540   -0.5080    0.5370 C   0  0  0  0  0  0  0  0  0  0  0  0
    5.0130   -0.1460    1.3010 N   0  0  0  0  0  0  0  0  0  0  0  0
  1  2  2  0
  2  3  1  0
  2 19  1  0
  4  3  1  6
  4  5  1  0
  4 18  1  0
  5  6  2  0
  6  7  1  0
  7  8  2  3
  7 13  1  0
  8  9  1  0
  8 10  1  0
 10 11  1  6
 10 12  1  0
 13 14  2  0
 13 18  1  0
 14 15  1  0
 15 16  2  0
 16 17  1  0
 17 18  2  0
 19 20  2  0
 19 23  1  0
 20 21  1  0
 21 22  1  0
 22 23  2  0
M  END
