
     RDKit          3D

 37 39  0  0  0  0  0  0  0  0999 V2000
   -7.5210   -1.1380   -0.1460 O   0  0  0  0  0  0  0  0  0  0  0  0
   -6.5290   -1.8770   -0.3660 C   0  0  0  0  0  0  0  0  0  0  0  0
   -6.6730   -3.2310   -0.0970 O   0  0  0  0  0  0  0  0  0  0  0  0
   -7.9250   -3.6950    0.4080 C   0  0  0  0  0  0  0  0  0  0  0  0
   -7.8610   -5.0720    0.6130 O   0  0  0  0  0  0  0  0  0  0  0  0
   -5.2250   -1.3210   -0.9020 C   0  0  1  0  0  0  0  0  0  0  0  0
   -5.4120    0.0220   -1.0420 O   0  0  0  0  0  0  0  0  0  0  0  0
   -4.1780   -1.7420    0.0680 C   0  0  0  0  0  0  0  0  0  0  0  0
   -2.8980   -1.2860   -0.1590 O   0  0  0  0  0  0  0  0  0  0  0  0
   -2.7380    0.0880   -0.0140 C   0  0  2  0  0  0  0  0  0  0  0  0
   -2.4690    0.7900   -1.2880 C   0  0  0  0  0  0  0  0  0  0  0  0
   -0.9860    0.9790   -1.4890 C   0  0  0  0  0  0  0  0  0  0  0  0
   -0.5240    2.2250   -1.0660 O   0  0  0  0  0  0  0  0  0  0  0  0
   -0.4840    2.1680    0.3500 C   0  0  2  0  0  0  0  0  0  0  0  0
   -0.5490    0.8420    0.7590 O   0  0  0  0  0  0  0  0  0  0  0  0
   -1.7880    0.4320    1.0710 C   0  0  0  0  0  0  0  0  0  0  0  0
   -1.4810    3.0560    0.9500 C   0  0  0  0  0  0  0  0  0  0  0  0
   -2.9140    3.0260    0.9400 N   0  0  0  0  0  0  0  0  0  0  0  0
   -3.6200    3.6270    1.8380 C   0  0  0  0  0  0  0  0  0  0  0  0
   -4.9940    3.6100    1.8480 O   0  0  0  0  0  0  0  0  0  0  0  0
   -0.8370    3.9960    1.5540 N   0  0  0  0  0  0  0  0  0  0  0  0
    0.5160    3.8350    1.4230 N   0  0  0  0  0  0  0  0  0  0  0  0
    0.8080    2.7860    0.7290 C   0  0  0  0  0  0  0  0  0  0  0  0
    2.1880    2.3700    0.4310 C   0  0  0  0  0  0  0  0  0  0  0  0
    2.5010    1.2720   -0.3030 C   0  0  0  0  0  0  0  0  0  0  0  0
    3.8310    0.8830   -0.5830 C   0  0  0  0  0  0  0  0  0  0  0  0
    4.0700   -0.2290   -1.3330 O   0  0  0  0  0  0  0  0  0  0  0  0
    5.3170   -0.7430   -1.6410 C   0  0  0  0  0  0  0  0  0  0  0  0
    6.0300   -1.2540   -0.4400 C   0  0  0  0  0  0  0  0  0  0  0  0
    7.4170   -1.7820   -0.7690 C   0  0  0  0  0  0  0  0  0  0  0  0
    7.9730   -2.2370    0.4250 O   0  0  0  0  0  0  0  0  0  0  0  0
    9.1910   -2.7100    0.2270 O   0  0  0  0  0  0  0  0  0  0  0  0
   10.0970   -1.7740    0.4910 O   0  0  0  0  0  0  0  0  0  0  0  0
   11.2710   -2.3700    0.4670 O   0  0  0  0  0  0  0  0  0  0  0  0
    4.8180    1.6770   -0.0730 C   0  0  0  0  0  0  0  0  0  0  0  0
    4.4890    2.8090    0.6850 C   0  0  0  0  0  0  0  0  0  0  0  0
    3.2040    3.1210    0.9130 N   0  0  0  0  0  0  0  0  0  0  0  0
  1  2  2  0
  2  3  1  0
  2  6  1  0
  3  4  1  0
  4  5  1  0
  6  7  1  1
  6  8  1  0
  8  9  1  0
 10  9  1  6
 10 11  1  0
 10 16  1  0
 11 12  1  0
 12 13  1  0
 14 13  1  6
 14 15  1  0
 14 17  1  0
 14 23  1  0
 15 16  1  0
 17 18  1  0
 17 21  2  0
 18 19  2  3
 19 20  1  0
 21 22  1  0
 22 23  2  0
 23 24  1  0
 24 25  2  0
 24 37  1  0
 25 26  1  0
 26 27  1  0
 26 35  2  0
 27 28  1  0
 28 29  1  0
 29 30  1  0
 30 31  1  0
 31 32  1  0
 32 33  1  0
 33 34  1  0
 35 36  1  0
 36 37  2  0
M  END
