
     RDKit          3D

 36 37  0  0  0  0  0  0  0  0999 V2000
   -5.9230    2.5450   -2.0250 O   0  0  0  0  0  0  0  0  0  0  0  0
   -5.1660    1.7100   -2.5950 C   0  0  0  0  0  0  0  0  0  0  0  0
   -3.9290    1.4560   -2.0500 O   0  0  0  0  0  0  0  0  0  0  0  0
   -3.5310    2.1140   -0.8900 C   0  0  0  0  0  0  0  0  0  0  0  0
   -2.1690    1.7450   -0.4080 C   0  0  0  0  0  0  0  0  0  0  0  0
   -1.9170    0.3420   -0.0370 C   0  0  2  0  0  0  0  0  0  0  0  0
   -2.1440   -0.5800   -1.2100 C   0  0  0  0  0  0  0  0  0  0  0  0
   -1.8680   -1.9690   -0.8250 N   0  0  0  0  0  0  0  0  0  0  0  0
   -2.0000   -3.0340   -1.7260 C   0  0  0  0  0  0  0  0  0  0  0  0
   -2.3690   -2.7920   -2.9120 O   0  0  0  0  0  0  0  0  0  0  0  0
   -1.7510   -4.3620   -1.4080 O   0  0  0  0  0  0  0  0  0  0  0  0
   -2.9020   -0.0650    1.0020 C   0  0  0  0  0  0  0  0  0  0  0  0
   -2.4810   -0.4720    2.1320 O   0  0  0  0  0  0  0  0  0  0  0  0
   -4.2720   -0.0340    0.8230 O   0  0  0  0  0  0  0  0  0  0  0  0
   -5.1760   -0.4330    1.8410 C   0  0  0  0  0  0  0  0  0  0  0  0
   -5.0410    0.3320    2.9870 O   0  0  0  0  0  0  0  0  0  0  0  0
   -0.5420    0.1250    0.4690 N   0  0  0  0  0  0  0  0  0  0  0  0
    0.5020    0.3930   -0.4430 C   0  0  0  0  0  0  0  0  0  0  0  0
    1.5630    1.0840   -0.2520 N   0  0  0  0  0  0  0  0  0  0  0  0
    1.9730    1.7690    0.9360 C   0  0  2  0  0  0  0  0  0  0  0  0
    2.2480    3.2460    0.6540 C   0  0  0  0  0  0  0  0  0  0  0  0
    0.9750    3.9130    0.1210 C   0  0  0  0  0  0  0  0  0  0  0  0
    1.3170    5.2540   -0.1080 O   0  0  0  0  0  0  0  0  0  0  0  0
    3.1830    1.2410    1.4170 O   0  0  0  0  0  0  0  0  0  0  0  0
    4.0470    1.0390    0.3630 C   0  0  0  0  0  0  0  0  0  0  0  0
    4.8930   -0.2040    0.5830 C   0  0  0  0  0  0  0  0  0  0  0  0
    4.5430   -1.1360   -0.3600 O   0  0  0  0  0  0  0  0  0  0  0  0
    4.3630   -2.5040   -0.3390 C   0  0  0  0  0  0  0  0  0  0  0  0
    3.2900   -3.1180    0.1080 C   0  0  0  0  0  0  0  0  0  0  0  0
    2.0670   -2.4610    0.6810 C   0  0  0  0  0  0  0  0  0  0  0  0
    1.8380   -1.6700    1.6610 C   0  0  0  0  0  0  0  0  0  0  0  0
    0.6340   -1.0210    2.2250 C   0  0  0  0  0  0  0  0  0  0  0  0
   -0.2810   -0.3220    1.7290 N   0  0  0  0  0  0  0  0  0  0  0  0
    3.4860   -4.5410   -0.0530 O   0  0  0  0  0  0  0  0  0  0  0  0
    4.9110   -4.7150   -0.0770 C   0  0  0  0  0  0  0  0  0  0  0  0
    5.2460   -3.5250   -0.7700 O   0  0  0  0  0  0  0  0  0  0  0  0
  1  2  2  0
  2  3  1  0
  3  4  1  0
  4  5  1  0
  6  5  1  6
  6  7  1  0
  6 12  1  0
  6 17  1  0
  7  8  1  0
  8  9  1  0
  9 10  2  0
  9 11  1  0
 12 13  2  0
 12 14  1  0
 14 15  1  0
 15 16  1  0
 17 18  1  0
 17 33  1  0
 18 19  2  0
 19 20  1  0
 20 21  1  6
 20 24  1  0
 21 22  1  0
 22 23  1  0
 24 25  1  0
 25 26  1  0
 26 27  1  0
 27 28  1  0
 28 29  2  0
 28 36  1  0
 29 30  1  0
 29 34  1  0
 30 31  2  0
 31 32  1  0
 32 33  2  0
 34 35  1  0
 35 36  1  0
M  END
