
     RDKit          3D

 36 37  0  0  0  0  0  0  0  0999 V2000
   -1.0600   -4.8070   -0.1460 C   0  0  0  0  0  0  0  0  0  0  0  0
   -1.6840   -3.4910    0.1890 C   0  0  0  0  0  0  0  0  0  0  0  0
   -2.9890   -3.4730    0.6300 C   0  0  0  0  0  0  0  0  0  0  0  0
   -3.8730   -4.6490    0.8440 C   0  0  0  0  0  0  0  0  0  0  0  0
   -5.0450   -4.4920    1.2470 O   0  0  0  0  0  0  0  0  0  0  0  0
   -3.4250   -5.9300    0.6040 O   0  0  0  0  0  0  0  0  0  0  0  0
   -3.2770   -2.2450    0.8160 O   0  0  0  0  0  0  0  0  0  0  0  0
   -2.2560   -1.4080    0.5330 C   0  0  0  0  0  0  0  0  0  0  0  0
   -1.1890   -2.1720    0.1190 C   0  0  0  0  0  0  0  0  0  0  0  0
    0.0470   -1.7780   -0.2690 O   0  0  0  0  0  0  0  0  0  0  0  0
    1.2850   -1.4880    0.1740 C   0  0  0  0  0  0  0  0  0  0  0  0
    1.3110   -1.0480    1.5890 C   0  0  0  0  0  0  0  0  0  0  0  0
    1.6100    0.3020    1.7510 O   0  0  0  0  0  0  0  0  0  0  0  0
    2.4590    0.6410    0.7710 N   0  0  0  0  0  0  0  0  0  0  0  0
    3.7640    0.0950    0.7060 C   0  0  0  0  0  0  0  0  0  0  0  0
    4.1530   -0.7420    1.5940 O   0  0  0  0  0  0  0  0  0  0  0  0
    4.7180    0.4000   -0.2860 N   0  0  0  0  0  0  0  0  0  0  0  0
    6.0490   -0.1910   -0.3070 C   0  0  0  0  0  0  0  0  0  0  0  0
    6.8640    0.2990   -1.4620 C   0  0  0  0  0  0  0  0  0  0  0  0
    7.0700    1.6840   -1.4810 O   0  0  0  0  0  0  0  0  0  0  0  0
    7.7140    2.3540   -0.4790 C   0  0  0  0  0  0  0  0  0  0  0  0
    8.1700    1.7650    0.5370 O   0  0  0  0  0  0  0  0  0  0  0  0
    2.0400    1.5770   -0.2320 C   0  0  0  0  0  0  0  0  0  0  0  0
    0.5260    1.6310   -0.3110 C   0  0  0  0  0  0  0  0  0  0  0  0
   -0.0600    1.2150    0.8650 O   0  0  0  0  0  0  0  0  0  0  0  0
   -1.3760    0.9900    1.2150 C   0  0  0  0  0  0  0  0  0  0  0  0
   -1.7360    1.7800    2.2170 O   0  0  0  0  0  0  0  0  0  0  0  0
   -2.3340    0.0700    0.6640 C   0  0  0  0  0  0  0  0  0  0  0  0
   -3.4740    0.6180    0.2460 C   0  0  0  0  0  0  0  0  0  0  0  0
   -3.8040    2.0280    0.2630 C   0  0  0  0  0  0  0  0  0  0  0  0
   -4.9610    2.4640   -0.1730 C   0  0  0  0  0  0  0  0  0  0  0  0
   -5.9370    1.5420   -0.6830 N   0  0  0  0  0  0  0  0  0  0  0  0
   -5.3050    3.8390   -0.1650 N   0  0  0  0  0  0  0  0  0  0  0  0
   -5.6240    4.5570   -1.3290 C   0  0  0  0  0  0  0  0  0  0  0  0
   -5.5950    3.9190   -2.4300 O   0  0  0  0  0  0  0  0  0  0  0  0
   -5.9570    5.9100   -1.2790 O   0  0  0  0  0  0  0  0  0  0  0  0
  1  2  1  0
  2  3  2  0
  2  9  1  0
  3  4  1  0
  3  7  1  0
  4  5  2  0
  4  6  1  0
  7  8  1  0
  8  9  2  0
  8 28  1  0
  9 10  1  0
 10 11  1  0
 11 12  1  0
 12 13  1  0
 13 14  1  0
 14 15  1  0
 14 23  1  0
 15 16  2  0
 15 17  1  0
 17 18  1  0
 18 19  1  0
 19 20  1  0
 20 21  1  0
 21 22  2  0
 23 24  1  0
 24 25  1  0
 25 26  1  0
 26 27  2  0
 26 28  1  0
 28 29  2  3
 29 30  1  0
 30 31  2  3
 31 32  1  0
 31 33  1  0
 33 34  1  0
 34 35  2  0
 34 36  1  0
M  END
