
     RDKit          3D

 38 41  0  0  0  0  0  0  0  0999 V2000
   -6.9970   -2.5040    0.6900 C   0  0  0  0  0  0  0  0  0  0  0  0
   -6.4960   -1.3140   -0.1030 C   0  0  2  0  0  0  0  0  0  0  0  0
   -5.2070   -1.4700   -0.5510 O   0  0  0  0  0  0  0  0  0  0  0  0
   -4.5220   -0.3020   -0.7650 C   0  0  2  0  0  0  0  0  0  0  0  0
   -3.8010    0.0150    0.3710 O   0  0  0  0  0  0  0  0  0  0  0  0
   -2.1520    0.0680    0.1190 P   0  0  2  0  0  0  0  0  0  0  0  0
   -1.5020    0.6100    1.3810 O   0  0  0  0  0  0  0  0  0  0  0  0
   -1.7540    1.1280   -1.1370 O   0  0  0  0  0  0  0  0  0  0  0  0
   -1.5140   -1.4500   -0.2630 O   0  0  0  0  0  0  0  0  0  0  0  0
    0.1600   -1.4880   -0.0620 P   0  0  2  0  0  0  0  0  0  0  0  0
    0.7390   -2.2000   -1.2780 O   0  0  0  0  0  0  0  0  0  0  0  0
    0.6180   -2.3810    1.2950 O   0  0  0  0  0  0  0  0  0  0  0  0
    0.7320    0.0720   -0.0430 O   0  0  0  0  0  0  0  0  0  0  0  0
    1.9990    0.1960    0.5120 C   0  0  0  0  0  0  0  0  0  0  0  0
    2.4910    1.6150    0.5170 C   0  0  1  0  0  0  0  0  0  0  0  0
    3.7420    1.6540    1.0780 O   0  0  0  0  0  0  0  0  0  0  0  0
    4.6760    1.9280    0.1100 C   0  0  1  0  0  0  0  0  0  0  0  0
    5.1310    0.7510   -0.6030 N   0  0  0  0  0  0  0  0  0  0  0  0
    5.0530    0.5680   -1.9280 C   0  0  0  0  0  0  0  0  0  0  0  0
    5.5790   -0.6420   -2.1830 N   0  0  0  0  0  0  0  0  0  0  0  0
    5.9810   -1.2060   -1.0200 C   0  0  0  0  0  0  0  0  0  0  0  0
    6.5740   -2.4110   -0.6980 C   0  0  0  0  0  0  0  0  0  0  0  0
    6.8310   -3.2140   -1.6250 O   0  0  0  0  0  0  0  0  0  0  0  0
    6.8430   -2.6530    0.5890 N   0  0  0  0  0  0  0  0  0  0  0  0
    6.5690   -1.7910    1.5910 C   0  0  0  0  0  0  0  0  0  0  0  0
    6.8980   -2.1500    2.9330 N   0  0  0  0  0  0  0  0  0  0  0  0
    5.9910   -0.6170    1.2850 N   0  0  0  0  0  0  0  0  0  0  0  0
    5.6920   -0.3110   -0.0140 C   0  0  0  0  0  0  0  0  0  0  0  0
    3.9460    2.8860   -0.7980 C   0  0  2  0  0  0  0  0  0  0  0  0
    3.7790    4.0750   -0.0930 O   0  0  0  0  0  0  0  0  0  0  0  0
    2.5640    2.2220   -0.8450 C   0  0  2  0  0  0  0  0  0  0  0  0
    1.5810    3.1680   -1.0760 O   0  0  0  0  0  0  0  0  0  0  0  0
   -5.4700    0.7970   -1.1910 C   0  0  1  0  0  0  0  0  0  0  0  0
   -6.1240    0.3490   -2.3440 O   0  0  0  0  0  0  0  0  0  0  0  0
   -6.4720    1.1410   -0.1380 C   0  0  2  0  0  0  0  0  0  0  0  0
   -6.1200    2.2690    0.5910 O   0  0  0  0  0  0  0  0  0  0  0  0
   -6.6920   -0.0690    0.7300 C   0  0  2  0  0  0  0  0  0  0  0  0
   -5.9550   -0.0600    1.8900 O   0  0  0  0  0  0  0  0  0  0  0  0
  2  1  1  1
  2  3  1  0
  2 37  1  0
  3  4  1  0
  4  5  1  1
  4 33  1  0
  5  6  1  0
  6  7  2  0
  6  8  1  6
  6  9  1  0
  9 10  1  0
 10 11  2  0
 10 12  1  1
 10 13  1  0
 13 14  1  0
 15 14  1  6
 15 16  1  0
 15 31  1  0
 16 17  1  0
 17 18  1  6
 17 29  1  0
 18 19  1  0
 18 28  1  0
 19 20  2  0
 20 21  1  0
 21 22  1  0
 21 28  2  0
 22 23  2  0
 22 24  1  0
 24 25  1  0
 25 26  1  0
 25 27  2  0
 27 28  1  0
 29 30  1  1
 29 31  1  0
 31 32  1  1
 33 34  1  6
 33 35  1  0
 35 36  1  1
 35 37  1  0
 37 38  1  1
M  END
