
     RDKit          3D

 36 38  0  0  0  0  0  0  0  0999 V2000
   -9.0770   -0.0750    0.4150 C   0  0  0  0  0  0  0  0  0  0  0  0
   -8.0280    0.5220   -0.4590 C   0  0  0  0  0  0  0  0  0  0  0  0
   -6.7410    0.5310    0.1440 O   0  0  0  0  0  0  0  0  0  0  0  0
   -5.6880    1.0630   -0.5820 C   0  0  0  0  0  0  0  0  0  0  0  0
   -5.9010    1.5090   -1.7210 O   0  0  0  0  0  0  0  0  0  0  0  0
   -4.3910    1.1290   -0.1090 O   0  0  0  0  0  0  0  0  0  0  0  0
   -3.3530    1.6650   -0.8550 C   0  0  1  0  0  0  0  0  0  0  0  0
   -2.6510    2.8310   -0.2090 C   0  0  0  0  0  0  0  0  0  0  0  0
   -2.0820    2.4520    1.0550 N   0  0  0  0  0  0  0  0  0  0  0  0
   -1.4980    1.1540    1.1630 C   0  0  0  0  0  0  0  0  0  0  0  0
   -0.7610    0.7870    2.0960 O   0  0  0  0  0  0  0  0  0  0  0  0
   -1.7730    0.1920    0.1290 N   0  0  0  0  0  0  0  0  0  0  0  0
   -1.5870   -1.1980    0.3630 C   0  0  0  0  0  0  0  0  0  0  0  0
   -1.5660   -1.5890    1.5430 O   0  0  0  0  0  0  0  0  0  0  0  0
   -1.4390   -2.0400   -0.8580 C   0  0  2  0  0  0  0  0  0  0  0  0
   -0.1560   -1.7570   -1.5890 C   0  0  0  0  0  0  0  0  0  0  0  0
    1.0290   -2.0400   -0.9420 O   0  0  0  0  0  0  0  0  0  0  0  0
    1.5660   -1.6580    0.2300 C   0  0  0  0  0  0  0  0  0  0  0  0
    2.2780   -0.4790    0.4910 C   0  0  0  0  0  0  0  0  0  0  0  0
    2.5090    0.4700   -0.4920 O   0  0  0  0  0  0  0  0  0  0  0  0
    3.2110    1.6620   -0.2870 C   0  0  0  0  0  0  0  0  0  0  0  0
    4.6390    1.4140    0.1800 C   0  0  0  0  0  0  0  0  0  0  0  0
    5.3450    0.6740   -0.7540 O   0  0  0  0  0  0  0  0  0  0  0  0
    6.6240    0.4240   -0.3260 C   0  0  0  0  0  0  0  0  0  0  0  0
    7.4570    1.6460   -0.0790 C   0  0  0  0  0  0  0  0  0  0  0  0
    8.7410    1.2800    0.3450 O   0  0  0  0  0  0  0  0  0  0  0  0
    9.4740    2.3510    0.5610 O   0  0  0  0  0  0  0  0  0  0  0  0
    8.7160    3.2910    1.1240 O   0  0  0  0  0  0  0  0  0  0  0  0
    2.6450   -0.4820    1.7850 N   0  0  0  0  0  0  0  0  0  0  0  0
    2.2180   -1.5660    2.3330 O   0  0  0  0  0  0  0  0  0  0  0  0
    1.5630   -2.3140    1.4490 C   0  0  0  0  0  0  0  0  0  0  0  0
    0.9410   -3.6380    1.7360 C   0  0  0  0  0  0  0  0  0  0  0  0
    1.8830   -4.7180    1.1720 C   0  0  0  0  0  0  0  0  0  0  0  0
   -2.5890   -1.7680   -1.7230 N   0  0  0  0  0  0  0  0  0  0  0  0
   -2.7390   -0.4080   -2.0670 C   0  0  0  0  0  0  0  0  0  0  0  0
   -2.2440    0.6300   -1.1480 C   0  0  1  0  0  0  0  0  0  0  0  0
  1  2  1  0
  2  3  1  0
  3  4  1  0
  4  5  2  0
  4  6  1  0
  7  6  1  1
  7  8  1  0
  7 36  1  0
  8  9  1  0
  9 10  1  0
 10 11  2  0
 10 12  1  0
 12 13  1  0
 12 36  1  0
 13 14  2  0
 13 15  1  0
 15 16  1  6
 15 34  1  0
 16 17  1  0
 17 18  1  0
 18 19  1  0
 18 31  2  0
 19 20  1  0
 19 29  2  0
 20 21  1  0
 21 22  1  0
 22 23  1  0
 23 24  1  0
 24 25  1  0
 25 26  1  0
 26 27  1  0
 27 28  1  0
 29 30  1  0
 30 31  1  0
 31 32  1  0
 32 33  1  0
 34 35  1  0
 36 35  1  1
M  END
