
     RDKit          3D

 20 20  0  0  0  0  0  0  0  0999 V2000
   -3.0480    1.3920    1.5590 N   0  0  0  0  0  0  0  0  0  0  0  0
   -2.3770    0.3300    0.8200 C   0  0  1  0  0  0  0  0  0  0  0  0
   -3.2480   -0.8820    0.7930 C   0  0  0  0  0  0  0  0  0  0  0  0
   -4.5990   -0.5640    0.1870 C   0  0  0  0  0  0  0  0  0  0  0  0
   -4.5230    0.3750   -0.9690 C   0  0  0  0  0  0  0  0  0  0  0  0
   -3.1520    0.4210   -1.5680 C   0  0  0  0  0  0  0  0  0  0  0  0
   -2.0720    0.7560   -0.5940 C   0  0  2  0  0  0  0  0  0  0  0  0
   -0.7820    0.2350   -1.0890 C   0  0  0  0  0  0  0  0  0  0  0  0
    0.1710    1.0000   -1.4690 O   0  0  0  0  0  0  0  0  0  0  0  0
   -0.4940   -1.1260   -1.1830 O   0  0  0  0  0  0  0  0  0  0  0  0
    0.7280   -1.6140   -1.6520 C   0  0  0  0  0  0  0  0  0  0  0  0
    1.8870   -1.1770   -0.8560 C   0  0  0  0  0  0  0  0  0  0  0  0
    1.6990   -0.4340    0.1360 O   0  0  0  0  0  0  0  0  0  0  0  0
    3.1720   -1.5570   -1.1660 O   0  0  0  0  0  0  0  0  0  0  0  0
    4.3460   -1.1920   -0.4750 C   0  0  0  0  0  0  0  0  0  0  0  0
    4.4920    0.3090   -0.5460 C   0  0  0  0  0  0  0  0  0  0  0  0
    5.5990    0.8110    0.0860 O   0  0  0  0  0  0  0  0  0  0  0  0
    5.5960    0.5390    1.4360 C   0  0  1  0  0  0  0  0  0  0  0  0
    6.7580   -0.1820    1.7160 O   0  0  0  0  0  0  0  0  0  0  0  0
    5.6250    1.7150    2.1860 O   0  0  0  0  0  0  0  0  0  0  0  0
  2  1  1  1
  2  3  1  0
  2  7  1  0
  3  4  1  0
  4  5  1  0
  5  6  1  0
  6  7  1  0
  7  8  1  6
  8  9  2  0
  8 10  1  0
 10 11  1  0
 11 12  1  0
 12 13  2  0
 12 14  1  0
 14 15  1  0
 15 16  1  0
 16 17  1  0
 17 18  1  0
 18 19  1  6
 18 20  1  0
M  CHG  2   1   1  19  -1
M  END
