
     RDKit          3D

 20 21  0  0  0  0  0  0  0  0999 V2000
    4.7890    1.8640   -1.3650 C   0  0  0  0  0  0  0  0  0  0  0  0
    4.0990    0.6680   -1.0390 O   0  0  0  0  0  0  0  0  0  0  0  0
    3.8070    0.3290    0.2620 C   0  0  0  0  0  0  0  0  0  0  0  0
    4.1390    1.0610    1.2250 O   0  0  0  0  0  0  0  0  0  0  0  0
    3.0810   -0.9420    0.5100 C   0  0  2  0  0  0  0  0  0  0  0  0
    1.7830   -0.9160   -0.2230 C   0  0  0  0  0  0  0  0  0  0  0  0
    0.8210   -1.4930    0.8120 C   0  0  2  0  0  0  0  0  0  0  0  0
   -0.4500   -0.7750    0.6900 C   0  0  0  0  0  0  0  0  0  0  0  0
   -0.9310   -0.1170    1.6750 O   0  0  0  0  0  0  0  0  0  0  0  0
   -1.2180   -0.7480   -0.4680 O   0  0  0  0  0  0  0  0  0  0  0  0
   -2.4100   -0.0540   -0.5270 C   0  0  0  0  0  0  0  0  0  0  0  0
   -2.4130    1.2090   -0.9050 C   0  0  0  0  0  0  0  0  0  0  0  0
   -3.6870    2.0050   -0.9850 C   0  0  0  0  0  0  0  0  0  0  0  0
   -4.8000    1.2500   -0.6200 O   0  0  0  0  0  0  0  0  0  0  0  0
   -4.8300   -0.0620   -0.2230 C   0  0  0  0  0  0  0  0  0  0  0  0
   -6.0240   -0.6890    0.1140 O   0  0  0  0  0  0  0  0  0  0  0  0
   -3.6560   -0.7150   -0.1740 C   0  0  0  0  0  0  0  0  0  0  0  0
   -3.6990   -2.0370    0.2280 O   0  0  0  0  0  0  0  0  0  0  0  0
    1.5100   -1.0310    2.1020 C   0  0  0  0  0  0  0  0  0  0  0  0
    2.8470   -1.1740    1.8380 O   0  0  0  0  0  0  0  0  0  0  0  0
  1  2  1  0
  2  3  1  0
  3  4  2  0
  5  3  1  1
  5  6  1  0
  5 20  1  0
  6  7  1  0
  7  8  1  6
  7 19  1  0
  8  9  2  0
  8 10  1  0
 10 11  1  0
 11 12  2  0
 11 17  1  0
 12 13  1  0
 13 14  1  0
 14 15  1  0
 15 16  1  0
 15 17  2  0
 17 18  1  0
 19 20  1  0
M  END
