
     RDKit          3D

 20 21  0  0  0  0  0  0  0  0999 V2000
   -1.3880    1.2910   -2.1890 C   0  0  0  0  0  0  0  0  0  0  0  0
   -2.1710    0.1610   -1.5590 C   0  0  0  0  0  0  0  0  0  0  0  0
   -1.7590   -0.1030   -0.1680 C   0  0  0  0  0  0  0  0  0  0  0  0
   -0.4590   -0.6910    0.1510 C   0  0  0  0  0  0  0  0  0  0  0  0
    0.6920    0.1250   -0.1330 N   0  0  0  0  0  0  0  0  0  0  0  0
    1.9950   -0.4160    0.0350 C   0  0  0  0  0  0  0  0  0  0  0  0
    2.2200   -1.7070    0.4650 C   0  0  0  0  0  0  0  0  0  0  0  0
    3.5140   -2.1660    0.6050 C   0  0  0  0  0  0  0  0  0  0  0  0
    4.6090   -1.3590    0.3240 C   0  0  0  0  0  0  0  0  0  0  0  0
    5.9090   -1.8210    0.4660 O   0  0  0  0  0  0  0  0  0  0  0  0
    4.3830   -0.0670   -0.1050 C   0  0  0  0  0  0  0  0  0  0  0  0
    3.0720    0.3960   -0.2470 C   0  0  0  0  0  0  0  0  0  0  0  0
    2.8490    1.7230   -0.6890 N   0  0  0  0  0  0  0  0  0  0  0  0
   -2.6190    0.1290    0.8310 C   0  0  0  0  0  0  0  0  0  0  0  0
   -2.3050   -0.1040    2.2620 C   0  0  0  0  0  0  0  0  0  0  0  0
   -3.4050    0.2520    2.9120 C   0  0  0  0  0  0  0  0  0  0  0  0
   -3.6140    0.1880    4.6640 Cl  0  0  0  0  0  0  0  0  0  0  0  0
   -4.3900    0.6910    2.0240 N   0  0  0  0  0  0  0  0  0  0  0  0
   -3.9780    0.6380    0.7980 C   0  0  0  0  0  0  0  0  0  0  0  0
   -4.7480    1.0220   -0.3230 N   0  0  0  0  0  0  0  0  0  0  0  0
  1  2  1  0
  2  3  1  0
  3  4  1  0
  3 14  2  3
  4  5  1  0
  5  6  1  0
  6  7  2  0
  6 12  1  0
  7  8  1  0
  8  9  2  0
  9 10  1  0
  9 11  1  0
 11 12  2  0
 12 13  1  0
 14 15  1  0
 14 19  1  0
 15 16  2  0
 16 17  1  0
 16 18  1  0
 18 19  2  0
 19 20  1  0
M  END
