
     RDKit          3D

 21 22  0  0  0  0  0  0  0  0999 V2000
   -6.4870    0.2770    1.6400 O   0  0  0  0  0  0  0  0  0  0  0  0
   -6.0440    0.0060    0.4970 N   0  0  0  0  0  0  0  0  0  0  0  0
   -6.8840   -0.2500   -0.5570 O   0  0  0  0  0  0  0  0  0  0  0  0
   -4.6350   -0.0270    0.3220 C   0  0  0  0  0  0  0  0  0  0  0  0
   -4.1230   -0.3240   -0.9310 C   0  0  0  0  0  0  0  0  0  0  0  0
   -2.7740   -0.3620   -1.1220 C   0  0  0  0  0  0  0  0  0  0  0  0
   -1.8580   -0.1090   -0.0850 C   0  0  0  0  0  0  0  0  0  0  0  0
   -0.5150   -0.1700   -0.3700 O   0  0  0  0  0  0  0  0  0  0  0  0
    0.5670    0.0430    0.4930 C   0  0  2  0  0  0  0  0  0  0  0  0
    1.2070    1.1650    0.0630 O   0  0  0  0  0  0  0  0  0  0  0  0
    2.5430    1.1800   -0.0800 C   0  0  2  0  0  0  0  0  0  0  0  0
    2.9800    2.3810   -0.8900 C   0  0  0  0  0  0  0  0  0  0  0  0
    4.3510    2.4250   -1.0560 O   0  0  0  0  0  0  0  0  0  0  0  0
    2.9510   -0.1120   -0.8000 C   0  0  2  0  0  0  0  0  0  0  0  0
    1.9810   -0.3710   -1.7760 O   0  0  0  0  0  0  0  0  0  0  0  0
    2.7970   -1.1560    0.2870 C   0  0  2  0  0  0  0  0  0  0  0  0
    3.2960   -2.3820   -0.1470 O   0  0  0  0  0  0  0  0  0  0  0  0
    1.3530   -1.2060    0.6410 C   0  0  1  0  0  0  0  0  0  0  0  0
    1.2780   -1.7460    1.9490 O   0  0  0  0  0  0  0  0  0  0  0  0
   -2.4010    0.1820    1.1460 C   0  0  0  0  0  0  0  0  0  0  0  0
   -3.7700    0.2260    1.3620 C   0  0  0  0  0  0  0  0  0  0  0  0
  1  2  2  0
  2  3  1  0
  2  4  1  0
  4  5  2  0
  4 21  1  0
  5  6  1  0
  6  7  2  0
  7  8  1  0
  7 20  1  0
  9  8  1  6
  9 10  1  0
  9 18  1  0
 10 11  1  0
 11 12  1  6
 11 14  1  0
 12 13  1  0
 14 15  1  6
 14 16  1  0
 16 17  1  6
 16 18  1  0
 18 19  1  1
 20 21  2  0
M  CHG  2   2   1   3  -1
M  END
