
     RDKit          3D

 20 20  0  0  0  0  0  0  0  0999 V2000
   -3.4840    0.8080   -1.5490 C   0  0  0  0  0  0  0  0  0  0  0  0
   -2.1820    0.2360   -1.4940 O   0  0  0  0  0  0  0  0  0  0  0  0
   -1.4030    0.6530   -0.3950 C   0  0  0  0  0  0  0  0  0  0  0  0
   -0.9000    1.8690   -0.3270 C   0  0  0  0  0  0  0  0  0  0  0  0
   -0.0860    2.4220    0.7410 C   0  0  0  0  0  0  0  0  0  0  0  0
    1.1370    2.0280    1.0830 C   0  0  0  0  0  0  0  0  0  0  0  0
    1.7320    2.7300    2.1760 O   0  0  0  0  0  0  0  0  0  0  0  0
    1.8480    1.0110    0.4630 O   0  0  0  0  0  0  0  0  0  0  0  0
    2.1840    0.9110   -0.8950 C   0  0  0  0  0  0  0  0  0  0  0  0
    3.1360   -0.2580   -1.0470 C   0  0  0  0  0  0  0  0  0  0  0  0
    3.2870   -1.0460    0.0790 O   0  0  0  0  0  0  0  0  0  0  0  0
    2.5200   -1.2390    1.1710 C   0  0  0  0  0  0  0  0  0  0  0  0
    2.9310   -0.9390    2.3300 O   0  0  0  0  0  0  0  0  0  0  0  0
    1.1810   -1.8000    1.0940 C   0  0  0  0  0  0  0  0  0  0  0  0
    0.5380   -2.0790    2.1670 O   0  0  0  0  0  0  0  0  0  0  0  0
    0.4510   -2.0970   -0.1620 C   0  0  0  0  0  0  0  0  0  0  0  0
   -1.0000   -1.7030   -0.0480 C   0  0  1  0  0  0  0  0  0  0  0  0
   -1.6970   -2.7550    0.5600 O   0  0  0  0  0  0  0  0  0  0  0  0
   -1.2190   -0.3930    0.6450 C   0  0  2  0  0  0  0  0  0  0  0  0
   -2.4770   -0.5150    1.2930 O   0  0  0  0  0  0  0  0  0  0  0  0
  1  2  1  0
  2  3  1  0
  3  4  2  0
  3 19  1  0
  4  5  1  0
  5  6  2  0
  6  7  1  0
  6  8  1  0
  8  9  1  0
  9 10  1  0
 10 11  1  0
 11 12  1  0
 12 13  2  0
 12 14  1  0
 14 15  2  0
 14 16  1  0
 16 17  1  0
 17 18  1  1
 17 19  1  0
 19 20  1  1
M  END
