
     RDKit          3D

 29 31  0  0  0  0  0  0  0  0999 V2000
    5.3970   -0.4650    2.8740 C   0  0  0  0  0  0  0  0  0  0  0  0
    5.8150   -0.5840    1.4390 C   0  0  1  0  0  0  0  0  0  0  0  0
    5.7100   -2.0170    0.9140 C   0  0  0  0  0  0  0  0  0  0  0  0
    5.4520   -1.7130   -0.5690 C   0  0  0  0  0  0  0  0  0  0  0  0
    4.4160   -0.7170   -0.4310 N   0  0  0  0  0  0  0  0  0  0  0  0
    3.1350   -0.6250   -1.0390 C   0  0  0  0  0  0  0  0  0  0  0  0
    2.3430    0.3330   -0.7950 O   0  0  0  0  0  0  0  0  0  0  0  0
    2.6550   -1.5980   -1.9610 N   0  0  0  0  0  0  0  0  0  0  0  0
    1.3360   -1.4840   -2.5720 C   0  0  1  0  0  0  0  0  0  0  0  0
    1.4520   -1.2480   -4.0670 C   0  0  0  0  0  0  0  0  0  0  0  0
    0.5010   -2.7090   -2.3560 C   0  0  0  0  0  0  0  0  0  0  0  0
    0.1690   -3.1320   -0.6620 S   0  0  0  0  0  0  0  0  0  0  0  0
   -0.9140   -1.9900    0.1670 C   0  0  0  0  0  0  0  0  0  0  0  0
   -1.1880   -2.1690    1.5130 C   0  0  0  0  0  0  0  0  0  0  0  0
   -2.0180   -1.3550    2.2370 C   0  0  0  0  0  0  0  0  0  0  0  0
   -2.6150   -0.2930    1.5800 C   0  0  0  0  0  0  0  0  0  0  0  0
   -2.3830   -0.0620    0.2400 C   0  0  0  0  0  0  0  0  0  0  0  0
   -3.0200    1.0600   -0.4380 C   0  0  0  0  0  0  0  0  0  0  0  0
   -2.7720    1.2400   -1.6510 O   0  0  0  0  0  0  0  0  0  0  0  0
   -3.8730    1.9230    0.1870 O   0  0  0  0  0  0  0  0  0  0  0  0
   -4.5080    3.0200   -0.4400 C   0  0  2  0  0  0  0  0  0  0  0  0
   -5.3740    3.7180    0.6000 C   0  0  0  0  0  0  0  0  0  0  0  0
   -5.3260    2.6400   -1.6310 C   0  0  0  0  0  0  0  0  0  0  0  0
   -3.4770    4.0660   -0.8800 C   0  0  0  0  0  0  0  0  0  0  0  0
   -1.5330   -0.9210   -0.4390 C   0  0  0  0  0  0  0  0  0  0  0  0
   -3.4590    0.4310    2.5760 C   0  0  0  0  0  0  0  0  0  0  0  0
   -2.8220    0.0910    3.8320 N   0  0  0  0  0  0  0  0  0  0  0  0
   -2.4850   -1.3030    3.6490 C   0  0  0  0  0  0  0  0  0  0  0  0
    4.9520    0.2450    0.5050 C   0  0  0  0  0  0  0  0  0  0  0  0
  2  1  1  1
  2  3  1  0
  2 29  1  0
  3  4  1  0
  4  5  1  0
  5  6  1  0
  5 29  1  0
  6  7  2  0
  6  8  1  0
  8  9  1  0
  9 10  1  6
  9 11  1  0
 11 12  1  0
 12 13  1  0
 13 14  2  0
 13 25  1  0
 14 15  1  0
 15 16  2  0
 15 28  1  0
 16 17  1  0
 16 26  1  0
 17 18  1  0
 17 25  2  0
 18 19  2  0
 18 20  1  0
 20 21  1  0
 21 22  1  1
 21 23  1  0
 21 24  1  0
 26 27  1  0
 27 28  1  0
M  END
