
     RDKit          3D

 29 31  0  0  0  0  0  0  0  0999 V2000
   -1.3020    3.7120    3.3280 C   0  0  0  0  0  0  0  0  0  0  0  0
   -2.3390    2.8460    3.4000 O   0  0  0  0  0  0  0  0  0  0  0  0
   -2.2080    1.6820    2.7410 C   0  0  0  0  0  0  0  0  0  0  0  0
   -2.0290    1.8910    1.2350 C   0  0  2  0  0  0  0  0  0  0  0  0
   -3.1610    2.7420    0.7380 C   0  0  0  0  0  0  0  0  0  0  0  0
   -4.4080    1.9240    0.6090 C   0  0  0  0  0  0  0  0  0  0  0  0
   -4.2700    0.7590   -0.2990 C   0  0  1  0  0  0  0  0  0  0  0  0
   -4.0290    1.1790   -1.7690 C   0  0  0  0  0  0  0  0  0  0  0  0
   -4.1010   -0.0260   -2.5980 C   0  0  0  0  0  0  0  0  0  0  0  0
   -4.1400   -1.0190   -3.2780 N   0  0  0  0  0  0  0  0  0  0  0  0
   -3.0790   -0.1100    0.1100 C   0  0  0  0  0  0  0  0  0  0  0  0
   -1.9760    0.5700    0.6710 N   0  0  0  0  0  0  0  0  0  0  0  0
   -0.6610   -0.0950    0.7240 C   0  0  0  0  0  0  0  0  0  0  0  0
    0.2100    0.6400    1.2560 O   0  0  0  0  0  0  0  0  0  0  0  0
   -0.5030   -1.3700    0.2230 N   0  0  0  0  0  0  0  0  0  0  0  0
    0.7960   -2.1220    0.2470 C   0  0  2  0  0  0  0  0  0  0  0  0
    1.8500   -1.0610    0.4110 C   0  0  0  0  0  0  0  0  0  0  0  0
    3.2750   -1.5530    0.5820 C   0  0  0  0  0  0  0  0  0  0  0  0
    3.9610   -1.7360   -0.6930 C   0  0  0  0  0  0  0  0  0  0  0  0
    4.5800   -0.4770   -1.1920 C   0  0  0  0  0  0  0  0  0  0  0  0
    4.9650    0.6160   -0.7100 C   0  0  0  0  0  0  0  0  0  0  0  0
    5.3850    1.6350   -1.4500 C   0  0  0  0  0  0  0  0  0  0  0  0
    5.3840    1.4120   -2.8520 C   0  0  0  0  0  0  0  0  0  0  0  0
    4.7720   -0.2430   -3.0170 S   0  0  0  0  0  0  0  0  0  0  0  0
    3.9080   -2.7210   -1.6140 C   0  0  0  0  0  0  0  0  0  0  0  0
    3.0650   -3.9170   -1.5380 C   0  0  0  0  0  0  0  0  0  0  0  0
    1.7190   -3.9290   -1.2570 C   0  0  0  0  0  0  0  0  0  0  0  0
    1.2580   -5.2820   -1.2520 O   0  0  0  0  0  0  0  0  0  0  0  0
    0.7290   -2.9080   -0.9860 C   0  0  0  0  0  0  0  0  0  0  0  0
  1  2  1  0
  2  3  1  0
  4  3  1  1
  4  5  1  0
  4 12  1  0
  5  6  1  0
  6  7  1  0
  7  8  1  6
  7 11  1  0
  8  9  1  0
  9 10  3  0
 11 12  1  0
 12 13  1  0
 13 14  2  0
 13 15  1  0
 16 15  1  6
 16 17  1  0
 16 29  1  0
 17 18  1  0
 18 19  1  0
 19 20  1  0
 19 25  2  0
 20 21  2  0
 20 24  1  0
 21 22  1  0
 22 23  2  0
 23 24  1  0
 25 26  1  0
 26 27  2  0
 27 28  1  0
 27 29  1  0
M  END
