
     RDKit          3D

 30 32  0  0  0  0  0  0  0  0999 V2000
    6.3420   -2.6030   -1.2460 C   0  0  0  0  0  0  0  0  0  0  0  0
    5.1360   -2.1590   -0.5180 N   0  0  0  0  0  0  0  0  0  0  0  0
    4.7150   -0.8060   -0.6140 C   0  0  0  0  0  0  0  0  0  0  0  0
    5.4200   -0.0560   -1.3240 O   0  0  0  0  0  0  0  0  0  0  0  0
    3.5010   -0.3390    0.1070 C   0  0  0  0  0  0  0  0  0  0  0  0
    3.4240    0.8800    0.6820 C   0  0  0  0  0  0  0  0  0  0  0  0
    4.5810    1.7960    0.9320 C   0  0  0  0  0  0  0  0  0  0  0  0
    4.8160    2.8890    1.2240 N   0  0  0  0  0  0  0  0  0  0  0  0
    5.9490    3.4970    1.3910 C   0  0  0  0  0  0  0  0  0  0  0  0
    7.0790    2.6840    1.1800 C   0  0  0  0  0  0  0  0  0  0  0  0
    6.3190    1.1150    0.7580 S   0  0  0  0  0  0  0  0  0  0  0  0
    1.9050    1.3600    1.3100 S   0  0  0  0  0  0  0  0  0  0  0  0
    0.6980    0.1880    1.1110 C   0  0  0  0  0  0  0  0  0  0  0  0
   -0.7320    0.3450    1.5710 C   0  0  0  0  0  0  0  0  0  0  0  0
   -1.5450    0.9320    0.5680 N   0  0  0  0  0  0  0  0  0  0  0  0
   -2.7230    0.2040    0.1660 C   0  0  1  0  0  0  0  0  0  0  0  0
   -2.6770    0.0660   -1.3530 C   0  0  0  0  0  0  0  0  0  0  0  0
   -2.6500    1.4390   -1.9760 C   0  0  0  0  0  0  0  0  0  0  0  0
   -2.6050    1.6060   -3.3780 N   0  0  0  0  0  0  0  0  0  0  0  0
   -2.6680    2.4580   -1.2510 O   0  0  0  0  0  0  0  0  0  0  0  0
   -2.8820   -1.1030    0.8550 C   0  0  0  0  0  0  0  0  0  0  0  0
   -4.0180   -1.9270    0.3060 C   0  0  0  0  0  0  0  0  0  0  0  0
   -5.3750   -1.5360    0.8250 C   0  0  0  0  0  0  0  0  0  0  0  0
   -5.9590   -0.4490   -0.0670 C   0  0  0  0  0  0  0  0  0  0  0  0
   -5.2830    0.8160    0.1470 N   0  0  0  0  0  0  0  0  0  0  0  0
   -3.9270    1.0320    0.4690 C   0  0  0  0  0  0  0  0  0  0  0  0
   -3.7320    2.1090    1.1190 O   0  0  0  0  0  0  0  0  0  0  0  0
    1.1420   -0.9470    0.4780 C   0  0  0  0  0  0  0  0  0  0  0  0
    2.4020   -1.1760    0.0310 C   0  0  0  0  0  0  0  0  0  0  0  0
    2.5920   -2.3140   -0.5370 O   0  0  0  0  0  0  0  0  0  0  0  0
  1  2  1  0
  2  3  1  0
  3  4  2  0
  3  5  1  0
  5  6  2  0
  5 29  1  0
  6  7  1  0
  6 12  1  0
  7  8  2  0
  7 11  1  0
  8  9  1  0
  9 10  2  0
 10 11  1  0
 12 13  1  0
 13 14  1  0
 13 28  2  0
 14 15  1  0
 15 16  1  0
 16 17  1  6
 16 21  1  0
 16 26  1  0
 17 18  1  0
 18 19  1  0
 18 20  2  0
 21 22  1  0
 22 23  1  0
 23 24  1  0
 24 25  1  0
 25 26  1  0
 26 27  2  0
 28 29  1  0
 29 30  2  0
M  CHG  1  15   1
M  END
