
     RDKit          3D

 25 26  0  0  0  0  0  0  0  0999 V2000
   -0.8160   -2.3140   -0.5200 C   0  0  0  0  0  0  0  0  0  0  0  0
   -1.4810   -1.0010   -0.2550 C   0  0  0  0  0  0  0  0  0  0  0  0
   -2.8220   -0.9680   -0.0240 N   0  0  0  0  0  0  0  0  0  0  0  0
   -3.2400    0.2960    0.1620 C   0  0  0  0  0  0  0  0  0  0  0  0
   -4.6320    0.7040    0.4370 C   0  0  0  0  0  0  0  0  0  0  0  0
   -5.6680   -0.2510    0.5140 N   0  0  0  0  0  0  0  0  0  0  0  0
   -4.9390    1.8980    0.6080 O   0  0  0  0  0  0  0  0  0  0  0  0
   -2.1040    1.0870    0.0430 C   0  0  0  0  0  0  0  0  0  0  0  0
   -2.1910    2.5480    0.1940 C   0  0  1  0  0  0  0  0  0  0  0  0
   -2.7260    2.8290    1.4750 F   0  0  0  0  0  0  0  0  0  0  0  0
   -1.0250    3.2390    0.1760 F   0  0  0  0  0  0  0  0  0  0  0  0
   -3.1180    3.0710   -0.7050 F   0  0  0  0  0  0  0  0  0  0  0  0
   -1.0270    0.2750   -0.2140 C   0  0  0  0  0  0  0  0  0  0  0  0
    0.3860    0.6890   -0.3750 C   0  0  0  0  0  0  0  0  0  0  0  0
    0.6660    1.8240   -0.7750 O   0  0  0  0  0  0  0  0  0  0  0  0
    1.4440   -0.1850   -0.0760 N   0  0  0  0  0  0  0  0  0  0  0  0
    2.8560   -0.0020   -0.1670 C   0  0  0  0  0  0  0  0  0  0  0  0
    3.4300    1.0880   -0.5720 C   0  0  0  0  0  0  0  0  0  0  0  0
    2.6650    2.1910   -0.9580 F   0  0  0  0  0  0  0  0  0  0  0  0
    4.8910    1.3680   -0.6970 C   0  0  0  0  0  0  0  0  0  0  0  0
    5.9700    0.0280   -0.2410 S   0  0  0  0  0  0  0  0  0  0  0  0
    4.9240   -1.3160    0.2650 C   0  0  0  0  0  0  0  0  0  0  0  0
    5.4720   -2.4930    0.6790 F   0  0  0  0  0  0  0  0  0  0  0  0
    3.6360   -1.1990    0.2490 C   0  0  0  0  0  0  0  0  0  0  0  0
    2.9530   -2.3750    0.6870 O   0  0  0  0  0  0  0  0  0  0  0  0
  1  2  1  0
  2  3  1  0
  2 13  2  0
  3  4  1  0
  4  5  1  0
  4  8  2  0
  5  6  1  0
  5  7  2  0
  8  9  1  0
  8 13  1  0
  9 10  1  1
  9 11  1  0
  9 12  1  0
 13 14  1  0
 14 15  2  0
 14 16  1  0
 16 17  1  0
 17 18  2  0
 17 24  1  0
 18 19  1  0
 18 20  1  0
 20 21  1  0
 21 22  1  0
 22 23  1  0
 22 24  2  0
 24 25  1  0
M  END
