
     RDKit          3D

 25 26  0  0  0  0  0  0  0  0999 V2000
   -4.8570    2.3650   -1.1210 C   0  0  0  0  0  0  0  0  0  0  0  0
   -4.7520    1.1460   -0.6310 C   0  0  0  0  0  0  0  0  0  0  0  0
   -3.4570    0.5640   -0.2980 C   0  0  0  0  0  0  0  0  0  0  0  0
   -2.2990    1.2470   -0.3060 N   0  0  0  0  0  0  0  0  0  0  0  0
   -1.3430    0.3720    0.0360 C   0  0  0  0  0  0  0  0  0  0  0  0
    0.0220    0.5370    0.1820 C   0  0  0  0  0  0  0  0  0  0  0  0
    0.8430   -0.5180    0.5470 C   0  0  0  0  0  0  0  0  0  0  0  0
    2.2870   -0.3240    0.6930 C   0  0  0  0  0  0  0  0  0  0  0  0
    2.9510   -1.1160    1.4370 O   0  0  0  0  0  0  0  0  0  0  0  0
    2.9330    0.7320    0.0160 N   0  0  0  0  0  0  0  0  0  0  0  0
    4.3060    0.9230    0.1520 N   0  0  0  0  0  0  0  0  0  0  0  0
    5.2430   -0.0670   -0.2520 C   0  0  0  0  0  0  0  0  0  0  0  0
    4.8360   -1.1670   -0.7580 O   0  0  0  0  0  0  0  0  0  0  0  0
    6.6800    0.1820   -0.0860 C   0  0  2  0  0  0  0  0  0  0  0  0
    7.0500    1.3300   -0.7620 F   0  0  0  0  0  0  0  0  0  0  0  0
    7.3760   -0.9160   -0.5580 F   0  0  0  0  0  0  0  0  0  0  0  0
    0.2480   -1.7370    0.7590 C   0  0  0  0  0  0  0  0  0  0  0  0
    1.0090   -2.7040    1.0940 O   0  0  0  0  0  0  0  0  0  0  0  0
   -1.0790   -1.9030    0.6180 N   0  0  0  0  0  0  0  0  0  0  0  0
   -1.8700   -0.8710    0.2640 C   0  0  0  0  0  0  0  0  0  0  0  0
   -3.2210   -0.7620    0.0540 C   0  0  0  0  0  0  0  0  0  0  0  0
   -4.2690   -1.7990    0.1610 C   0  0  2  0  0  0  0  0  0  0  0  0
   -5.1890   -1.3840    1.1390 F   0  0  0  0  0  0  0  0  0  0  0  0
   -3.7870   -3.0040    0.5750 F   0  0  0  0  0  0  0  0  0  0  0  0
   -4.9730   -1.9460   -1.0300 F   0  0  0  0  0  0  0  0  0  0  0  0
  1  2  2  0
  2  3  1  0
  3  4  1  0
  3 21  2  0
  4  5  1  0
  5  6  1  0
  5 20  2  0
  6  7  2  0
  7  8  1  0
  7 17  1  0
  8  9  2  0
  8 10  1  0
 10 11  1  0
 11 12  1  0
 12 13  2  0
 12 14  1  0
 14 15  1  6
 14 16  1  0
 17 18  2  0
 17 19  1  0
 19 20  1  0
 20 21  1  0
 21 22  1  0
 22 23  1  1
 22 24  1  0
 22 25  1  0
M  END
