
     RDKit          3D

 12 13  0  0  0  0  0  0  0  0999 V2000
   -3.5400   -0.5540   -0.2620 C   0  0  0  0  0  0  0  0  0  0  0  0
   -2.2140   -0.4930   -0.2630 C   0  0  0  0  0  0  0  0  0  0  0  0
   -1.4100   -1.3650   -0.8760 N   0  0  0  0  0  0  0  0  0  0  0  0
   -0.1470   -0.9790   -0.6550 C   0  0  0  0  0  0  0  0  0  0  0  0
   -0.1320    0.1280    0.0910 C   0  0  0  0  0  0  0  0  0  0  0  0
   -1.4750    0.4570    0.3540 C   0  0  0  0  0  0  0  0  0  0  0  0
   -1.8560    1.5000    1.0690 C   0  0  0  0  0  0  0  0  0  0  0  0
    1.0780    0.7390    0.4640 N   0  0  0  0  0  0  0  0  0  0  0  0
    2.2370    0.3670    0.1770 C   0  0  0  0  0  0  0  0  0  0  0  0
    3.3020    1.1940    0.7010 N   0  0  0  0  0  0  0  0  0  0  0  0
    2.7150   -0.7750   -0.6070 C   0  0  0  0  0  0  0  0  0  0  0  0
    1.3430   -1.7470   -1.2200 S   0  0  0  0  0  0  0  0  0  0  0  0
  1  2  2  0
  2  3  1  0
  2  6  1  0
  3  4  1  0
  4  5  2  0
  4 12  1  0
  5  6  1  0
  5  8  1  0
  6  7  2  0
  8  9  2  0
  9 10  1  0
  9 11  1  0
 11 12  1  0
M  END
