
     RDKit          3D

 12 12  0  0  0  0  0  0  0  0999 V2000
    1.2120   -1.0830    2.1150 C   0  0  0  0  0  0  0  0  0  0  0  0
    1.4010   -0.3950    1.0050 C   0  0  0  0  0  0  0  0  0  0  0  0
    2.8010   -0.0430    0.6230 C   0  0  0  0  0  0  0  0  0  0  0  0
    2.7940    1.3580    0.1670 N   0  0  0  0  0  0  0  0  0  0  0  0
    1.7800    1.8250   -0.6940 C   0  0  0  0  0  0  0  0  0  0  0  0
    2.0520    3.1010   -1.6410 S   0  0  0  0  0  0  0  0  0  0  0  0
    0.5010    1.1500   -0.7160 N   0  0  0  0  0  0  0  0  0  0  0  0
    0.3220    0.0480    0.1300 C   0  0  0  0  0  0  0  0  0  0  0  0
   -0.8010   -0.6190    0.1560 C   0  0  0  0  0  0  0  0  0  0  0  0
   -1.9210   -0.2340   -0.6890 C   0  0  0  0  0  0  0  0  0  0  0  0
   -3.0480   -0.9460   -0.6280 C   0  0  0  0  0  0  0  0  0  0  0  0
   -4.1300   -0.5820   -1.4370 N   0  0  0  0  0  0  0  0  0  0  0  0
  1  2  2  0
  2  3  1  0
  2  8  1  0
  3  4  1  0
  4  5  1  0
  5  6  2  0
  5  7  1  0
  7  8  1  0
  8  9  2  3
  9 10  1  0
 10 11  2  3
 11 12  1  0
M  END
