
     RDKit          3D

 10 10  0  0  0  0  0  0  0  0999 V2000
    2.6020    0.3160    0.8890 C   0  0  0  0  0  0  0  0  0  0  0  0
    1.3740   -0.0740    0.1210 C   0  0  0  0  0  0  0  0  0  0  0  0
    1.3080   -0.8300   -1.0180 C   0  0  0  0  0  0  0  0  0  0  0  0
   -0.0150   -0.9080   -1.3340 C   0  0  0  0  0  0  0  0  0  0  0  0
   -0.7160   -0.2040   -0.3860 C   0  0  0  0  0  0  0  0  0  0  0  0
   -2.1860    0.0020   -0.2990 C   0  0  0  0  0  0  0  0  0  0  0  0
   -2.5060    0.8030    0.8490 N   0  0  0  0  0  0  0  0  0  0  0  0
   -3.2400    0.3390    1.7260 O   0  0  0  0  0  0  0  0  0  0  0  0
   -2.0170    2.0660    0.9950 O   0  0  0  0  0  0  0  0  0  0  0  0
    0.1580    0.2770    0.4630 O   0  0  0  0  0  0  0  0  0  0  0  0
  1  2  1  0
  2  3  2  0
  2 10  1  0
  3  4  1  0
  4  5  2  0
  5  6  1  0
  5 10  1  0
  6  7  1  0
  7  8  2  0
  7  9  1  0
M  CHG  2   7   1   9  -1
M  END
