
     RDKit          3D

  9  9  0  0  0  0  0  0  0  0999 V2000
   -2.4560   -0.1430    0.0530 C   0  0  0  0  0  0  0  0  0  0  0  0
   -0.9730   -0.0980   -0.0120 C   0  0  0  0  0  0  0  0  0  0  0  0
   -0.1850   -1.2240   -0.0430 C   0  0  0  0  0  0  0  0  0  0  0  0
    1.2100   -1.1390   -0.1050 C   0  0  0  0  0  0  0  0  0  0  0  0
    1.8180    0.1010   -0.1360 C   0  0  0  0  0  0  0  0  0  0  0  0
    3.2080    0.2280   -0.1980 O   0  0  0  0  0  0  0  0  0  0  0  0
    0.9880    1.2040   -0.1030 C   0  0  0  0  0  0  0  0  0  0  0  0
   -0.3670    1.0990   -0.0430 N   0  0  0  0  0  0  0  0  0  0  0  0
   -1.1400    2.2290   -0.0130 O   0  0  0  0  0  0  0  0  0  0  0  0
  1  2  1  0
  2  3  2  0
  2  8  1  0
  3  4  1  0
  4  5  2  0
  5  6  1  0
  5  7  1  0
  7  8  2  0
  8  9  1  0
M  CHG  2   8   1   9  -1
M  END
