
     RDKit          3D

 10 10  0  0  0  0  0  0  0  0999 V2000
    3.8840   -0.0880    0.4260 O   0  0  0  0  0  0  0  0  0  0  0  0
    2.6430    0.1120    0.5940 C   0  0  0  0  0  0  0  0  0  0  0  0
    2.2690    0.8440    1.6970 O   0  0  0  0  0  0  0  0  0  0  0  0
    1.7040   -0.4470   -0.3990 C   0  0  0  0  0  0  0  0  0  0  0  0
    0.3550   -0.2920    0.0870 N   0  0  0  0  0  0  0  0  0  0  0  0
   -0.6180   -1.0320   -0.6960 C   0  0  0  0  0  0  0  0  0  0  0  0
   -1.9280   -0.9900    0.0370 C   0  0  0  0  0  0  0  0  0  0  0  0
   -2.0660    0.0260    0.9210 O   0  0  0  0  0  0  0  0  0  0  0  0
   -1.3730    1.1810    0.7520 C   0  0  0  0  0  0  0  0  0  0  0  0
   -0.1090    1.0860   -0.0380 C   0  0  0  0  0  0  0  0  0  0  0  0
  1  2  2  0
  2  3  1  0
  2  4  1  0
  4  5  1  0
  5  6  1  0
  5 10  1  0
  6  7  1  0
  7  8  1  0
  8  9  1  0
  9 10  1  0
M  CHG  1   3  -1
M  END
