
     RDKit          3D

 10  9  0  0  0  0  0  0  0  0999 V2000
   -1.2940    0.5890   -1.1130 C   0  0  0  0  0  0  0  0  0  0  0  0
   -0.6970   -0.1760    0.0750 C   0  0  1  0  0  0  0  0  0  0  0  0
   -1.0910    0.5950    1.3090 C   0  0  0  0  0  0  0  0  0  0  0  0
   -1.4000   -1.5120    0.1320 C   0  0  0  0  0  0  0  0  0  0  0  0
    0.7350   -0.3910   -0.0610 C   0  0  0  0  0  0  0  0  0  0  0  0
    1.1630   -1.5320   -0.0820 O   0  0  0  0  0  0  0  0  0  0  0  0
    1.7530    0.6930   -0.1820 C   0  0  0  0  0  0  0  0  0  0  0  0
    3.0900    0.1640   -0.3030 N   0  0  0  0  0  0  0  0  0  0  0  0
    3.9930    0.4300    0.5290 O   0  0  0  0  0  0  0  0  0  0  0  0
    3.4350   -0.6640   -1.3460 O   0  0  0  0  0  0  0  0  0  0  0  0
  2  1  1  6
  2  3  1  0
  2  4  1  0
  2  5  1  0
  5  6  2  0
  5  7  1  0
  7  8  1  0
  8  9  2  0
  8 10  1  0
M  CHG  2   8   1  10  -1
M  END
