
     RDKit          3D

 10 10  0  0  0  0  0  0  0  0999 V2000
   -2.2270   -1.7860   -0.6840 O   0  0  0  0  0  0  0  0  0  0  0  0
   -2.0860   -0.5650   -0.7990 N   0  0  0  0  0  0  0  0  0  0  0  0
   -2.2020   -0.0540   -2.0770 O   0  0  0  0  0  0  0  0  0  0  0  0
   -1.8460    0.3040    0.3140 C   0  0  0  0  0  0  0  0  0  0  0  0
   -0.6800    1.2020    0.1700 C   0  0  0  0  0  0  0  0  0  0  0  0
    0.6090    0.4910    0.0430 C   0  0  0  0  0  0  0  0  0  0  0  0
    0.8630   -0.8520    0.1520 C   0  0  0  0  0  0  0  0  0  0  0  0
    2.2340   -1.0800   -0.0450 C   0  0  0  0  0  0  0  0  0  0  0  0
    2.7400    0.1770   -0.2680 C   0  0  0  0  0  0  0  0  0  0  0  0
    1.7890    1.0540   -0.2120 O   0  0  0  0  0  0  0  0  0  0  0  0
  1  2  2  0
  2  3  1  0
  2  4  1  0
  4  5  1  0
  5  6  1  0
  6  7  2  0
  6 10  1  0
  7  8  1  0
  8  9  2  0
  9 10  1  0
M  CHG  2   2   1   3  -1
M  END
