
     RDKit          3D

 28 30  0  0  0  0  0  0  0  0999 V2000
   -3.5050    2.2210    0.8080 O   0  0  0  0  0  0  0  0  0  0  0  0
   -3.1980    1.3470    1.6490 C   0  0  0  0  0  0  0  0  0  0  0  0
   -2.9060   -0.0680    1.4070 C   0  0  0  0  0  0  0  0  0  0  0  0
   -2.8590   -0.5060   -0.0430 C   0  0  2  0  0  0  0  0  0  0  0  0
   -1.6050    0.3300   -0.9370 S   0  0  1  0  0  0  0  0  0  0  0  0
   -1.5800   -0.1390   -2.3920 O   0  0  0  0  0  0  0  0  0  0  0  0
   -1.8640    1.7980   -1.0240 O   0  0  0  0  0  0  0  0  0  0  0  0
   -0.0170    0.0840   -0.3180 C   0  0  0  0  0  0  0  0  0  0  0  0
    0.5660    0.8910    0.6300 C   0  0  0  0  0  0  0  0  0  0  0  0
    1.8520    0.6580    1.1060 C   0  0  0  0  0  0  0  0  0  0  0  0
    2.5740   -0.4100    0.6220 C   0  0  0  0  0  0  0  0  0  0  0  0
    3.8520   -0.5870    1.1390 O   0  0  0  0  0  0  0  0  0  0  0  0
    4.9050    0.0440    0.4910 C   0  0  0  0  0  0  0  0  0  0  0  0
    5.5560   -0.6200   -0.5160 C   0  0  0  0  0  0  0  0  0  0  0  0
    6.6220   -0.0490   -1.2120 C   0  0  0  0  0  0  0  0  0  0  0  0
    7.0200    1.2310   -0.8580 C   0  0  0  0  0  0  0  0  0  0  0  0
    8.3580    1.9610   -1.7230 Cl  0  0  0  0  0  0  0  0  0  0  0  0
    6.3700    1.9050    0.1540 C   0  0  0  0  0  0  0  0  0  0  0  0
    5.3170    1.3230    0.8320 C   0  0  0  0  0  0  0  0  0  0  0  0
    2.0130   -1.2290   -0.3240 C   0  0  0  0  0  0  0  0  0  0  0  0
    0.7280   -0.9750   -0.7830 C   0  0  0  0  0  0  0  0  0  0  0  0
   -4.2230   -0.2060   -0.6070 C   0  0  0  0  0  0  0  0  0  0  0  0
   -4.5980   -0.9420   -1.8400 C   0  0  0  0  0  0  0  0  0  0  0  0
   -4.2750   -2.2680   -1.8510 O   0  0  0  0  0  0  0  0  0  0  0  0
   -2.9760   -2.5350   -1.4440 C   0  0  0  0  0  0  0  0  0  0  0  0
   -2.6600   -2.0100   -0.1030 C   0  0  0  0  0  0  0  0  0  0  0  0
   -3.1400    1.8540    3.0160 N   0  0  0  0  0  0  0  0  0  0  0  0
   -3.3980    3.1330    3.2810 O   0  0  0  0  0  0  0  0  0  0  0  0
  1  2  2  0
  2  3  1  0
  2 27  1  0
  4  3  1  1
  4  5  1  0
  4 22  1  0
  4 26  1  0
  5  6  2  0
  5  7  2  0
  5  8  1  1
  8  9  2  0
  8 21  1  0
  9 10  1  0
 10 11  2  0
 11 12  1  0
 11 20  1  0
 12 13  1  0
 13 14  2  0
 13 19  1  0
 14 15  1  0
 15 16  2  0
 16 17  1  0
 16 18  1  0
 18 19  2  0
 20 21  2  0
 22 23  1  0
 23 24  1  0
 24 25  1  0
 25 26  1  0
 27 28  1  0
M  END
