
     RDKit          3D

 10 10  0  0  0  0  0  0  0  0999 V2000
    3.5220   -0.2700    0.0430 O   0  0  0  0  0  0  0  0  0  0  0  0
    2.2120    0.2460    0.1240 C   0  0  0  0  0  0  0  0  0  0  0  0
    1.2760   -0.7950    0.6920 C   0  0  0  0  0  0  0  0  0  0  0  0
   -0.0510   -0.3880    0.8160 O   0  0  0  0  0  0  0  0  0  0  0  0
   -0.9370    0.0040   -0.1420 C   0  0  0  0  0  0  0  0  0  0  0  0
   -0.8250    0.1120   -1.5130 C   0  0  0  0  0  0  0  0  0  0  0  0
   -1.9750    0.5390   -1.9760 O   0  0  0  0  0  0  0  0  0  0  0  0
   -2.8390    0.7220   -1.0150 C   0  0  0  0  0  0  0  0  0  0  0  0
   -2.2510    0.4020    0.1840 C   0  0  0  0  0  0  0  0  0  0  0  0
   -2.8040    0.4490    1.4590 O   0  0  0  0  0  0  0  0  0  0  0  0
  1  2  1  0
  2  3  1  0
  3  4  1  0
  4  5  1  0
  5  6  2  0
  5  9  1  0
  6  7  1  0
  7  8  1  0
  8  9  2  0
  9 10  1  0
M  END
