
     RDKit          3D

 10 10  0  0  0  0  0  0  0  0999 V2000
    3.4370    0.2860    0.1930 C   0  0  0  0  0  0  0  0  0  0  0  0
    2.1230    0.4320   -0.1720 O   0  0  0  0  0  0  0  0  0  0  0  0
    1.2890   -0.5620    0.2810 C   0  0  0  0  0  0  0  0  0  0  0  0
   -0.1120   -0.2640   -0.1970 C   0  0  1  0  0  0  0  0  0  0  0  0
   -0.1760   -0.2170   -1.5900 O   0  0  0  0  0  0  0  0  0  0  0  0
   -1.1150   -1.2940    0.2550 C   0  0  0  0  0  0  0  0  0  0  0  0
   -2.3510   -0.6950    0.8520 C   0  0  0  0  0  0  0  0  0  0  0  0
   -2.8600    0.3760    0.1840 O   0  0  0  0  0  0  0  0  0  0  0  0
   -1.9650    1.2640   -0.3280 C   0  0  0  0  0  0  0  0  0  0  0  0
   -0.6060    1.0760    0.3150 C   0  0  0  0  0  0  0  0  0  0  0  0
  1  2  1  0
  2  3  1  0
  3  4  1  0
  4  5  1  6
  4  6  1  0
  4 10  1  0
  6  7  1  0
  7  8  1  0
  8  9  1  0
  9 10  1  0
M  END
