
     RDKit          3D

 11 10  0  0  0  0  0  0  0  0999 V2000
    3.4980    1.4000   -1.3040 O   0  0  0  0  0  0  0  0  0  0  0  0
    2.9330    1.3440    0.0010 C   0  0  0  0  0  0  0  0  0  0  0  0
    1.4920    1.1380   -0.0520 C   0  0  0  0  0  0  0  0  0  0  0  0
    0.8670    0.1440    0.4600 C   0  0  0  0  0  0  0  0  0  0  0  0
    1.5060   -0.9550    1.1880 C   0  0  0  0  0  0  0  0  0  0  0  0
    0.9860   -0.9910    2.4930 O   0  0  0  0  0  0  0  0  0  0  0  0
   -0.6440    0.0840    0.3120 C   0  0  0  0  0  0  0  0  0  0  0  0
   -0.9970   -1.0600   -0.3650 O   0  0  0  0  0  0  0  0  0  0  0  0
   -2.3160   -1.2980   -0.5680 C   0  0  0  0  0  0  0  0  0  0  0  0
   -3.1000   -0.3130   -1.3530 C   0  0  0  0  0  0  0  0  0  0  0  0
   -3.1630    0.9660   -0.8540 O   0  0  0  0  0  0  0  0  0  0  0  0
  1  2  1  0
  2  3  1  0
  3  4  2  3
  4  5  1  0
  4  7  1  0
  5  6  1  0
  7  8  1  0
  8  9  1  0
  9 10  1  0
 10 11  1  0
M  END
