
     RDKit          3D

 10 10  0  0  0  0  0  0  0  0999 V2000
    2.7910    0.0640    0.3950 C   0  0  0  0  0  0  0  0  0  0  0  0
    1.8600   -0.7370   -0.3100 O   0  0  0  0  0  0  0  0  0  0  0  0
    0.5180   -0.4080   -0.1960 C   0  0  0  0  0  0  0  0  0  0  0  0
    0.1010    0.6730    0.5860 C   0  0  0  0  0  0  0  0  0  0  0  0
   -1.2410    0.9980    0.6970 C   0  0  0  0  0  0  0  0  0  0  0  0
   -1.6830    2.0700    1.4690 O   0  0  0  0  0  0  0  0  0  0  0  0
   -2.1370    0.2120    0.0070 C   0  0  0  0  0  0  0  0  0  0  0  0
   -1.7460   -0.8630   -0.7730 C   0  0  0  0  0  0  0  0  0  0  0  0
   -0.4110   -1.1680   -0.8700 C   0  0  0  0  0  0  0  0  0  0  0  0
    0.0480   -2.2310   -1.6340 O   0  0  0  0  0  0  0  0  0  0  0  0
  1  2  1  0
  2  3  1  0
  3  4  2  0
  3  9  1  0
  4  5  1  0
  5  6  1  0
  5  7  2  0
  7  8  1  0
  8  9  2  0
  9 10  1  0
M  END
