
     RDKit          3D

 13 13  0  0  0  0  0  0  0  0999 V2000
    3.4350    1.6250   -1.1390 O   0  0  0  0  0  0  0  0  0  0  0  0
    2.7720    0.6580   -0.3970 C   0  0  0  0  0  0  0  0  0  0  0  0
    2.6000    0.6350    0.9660 C   0  0  0  0  0  0  0  0  0  0  0  0
    1.9050   -0.4800    1.2080 N   0  0  0  0  0  0  0  0  0  0  0  0
    1.6540   -1.1280    0.0340 C   0  0  0  0  0  0  0  0  0  0  0  0
    0.9490   -2.3410   -0.1270 N   0  0  0  0  0  0  0  0  0  0  0  0
   -0.2470   -2.5170    0.1780 C   0  0  0  0  0  0  0  0  0  0  0  0
   -1.0720   -1.5260    0.7260 N   0  0  0  0  0  0  0  0  0  0  0  0
   -1.2360   -0.2590    0.0720 C   0  0  0  0  0  0  0  0  0  0  0  0
   -2.3170    0.8760    1.0840 P   0  0  0  0  0  0  0  0  0  0  0  0
   -2.1000    2.5260    0.6370 O   0  0  0  0  0  0  0  0  0  0  0  0
   -3.9730    0.3890    1.0210 O   0  0  0  0  0  0  0  0  0  0  0  0
    2.2010   -0.3930   -0.8990 O   0  0  0  0  0  0  0  0  0  0  0  0
  1  2  1  0
  2  3  2  0
  2 13  1  0
  3  4  1  0
  4  5  2  0
  5  6  1  0
  5 13  1  0
  6  7  2  3
  7  8  1  0
  8  9  1  0
  9 10  1  0
 10 11  1  0
 10 12  1  0
M  END
