
     RDKit          3D

 20 20  0  0  0  0  0  0  0  0999 V2000
    5.2790    0.7770   -1.2960 C   0  0  0  0  0  0  0  0  0  0  0  0
    3.8270    1.1740   -1.0340 C   0  0  0  0  0  0  0  0  0  0  0  0
    2.9950    0.4450   -1.8570 O   0  0  0  0  0  0  0  0  0  0  0  0
    3.1130   -0.8960   -1.6000 C   0  0  0  0  0  0  0  0  0  0  0  0
    2.6040   -1.3110   -0.2770 C   0  0  0  0  0  0  0  0  0  0  0  0
    2.8990   -2.4870    0.1540 O   0  0  0  0  0  0  0  0  0  0  0  0
    1.8010   -0.5140    0.5750 N   0  0  0  0  0  0  0  0  0  0  0  0
    1.3780   -1.0510    1.8600 C   0  0  0  0  0  0  0  0  0  0  0  0
    0.5390   -0.0120    2.5680 C   0  0  0  0  0  0  0  0  0  0  0  0
   -0.6080    0.3420    1.8390 O   0  0  0  0  0  0  0  0  0  0  0  0
   -1.6080   -0.5200    1.4650 C   0  0  0  0  0  0  0  0  0  0  0  0
   -1.5020   -1.7250    1.7950 O   0  0  0  0  0  0  0  0  0  0  0  0
   -2.7950   -0.0850    0.6960 C   0  0  0  0  0  0  0  0  0  0  0  0
   -2.9480    1.1670    0.3290 C   0  0  0  0  0  0  0  0  0  0  0  0
   -4.0700    1.6980   -0.4240 C   0  0  0  0  0  0  0  0  0  0  0  0
   -5.2550    0.7650   -0.8870 S   0  0  1  0  0  0  0  0  0  0  0  0
   -6.5000    1.2070   -0.1480 O   0  0  0  0  0  0  0  0  0  0  0  0
   -5.4900    0.8220   -2.5450 O   0  0  0  0  0  0  0  0  0  0  0  0
   -4.9070   -0.8430   -0.3310 C   0  0  0  0  0  0  0  0  0  0  0  0
   -3.7940   -1.0450    0.3450 C   0  0  0  0  0  0  0  0  0  0  0  0
  1  2  1  0
  2  3  1  0
  3  4  1  0
  4  5  1  0
  5  6  2  0
  5  7  1  0
  7  8  1  0
  8  9  1  0
  9 10  1  0
 10 11  1  0
 11 12  2  0
 11 13  1  0
 13 14  2  0
 13 20  1  0
 14 15  1  0
 15 16  2  0
 16 17  2  0
 16 18  1  6
 16 19  1  0
 19 20  2  0
M  END
