
     RDKit          3D

 21 22  0  0  0  0  0  0  0  0999 V2000
    5.5600    1.1970    1.4020 C   0  0  0  0  0  0  0  0  0  0  0  0
    4.9790    0.5040    0.4600 C   0  0  0  0  0  0  0  0  0  0  0  0
    3.5610    0.5940    0.1890 C   0  0  0  0  0  0  0  0  0  0  0  0
    2.8750   -0.0330   -0.7040 C   0  0  0  0  0  0  0  0  0  0  0  0
    1.4110    0.2570   -0.7600 C   0  0  0  0  0  0  0  0  0  0  0  0
    0.8680    1.0650    0.0160 O   0  0  0  0  0  0  0  0  0  0  0  0
    0.6110   -0.3870   -1.7030 O   0  0  0  0  0  0  0  0  0  0  0  0
   -0.7800   -0.1370   -1.7850 C   0  0  0  0  0  0  0  0  0  0  0  0
   -1.4710   -0.4780   -0.5150 C   0  0  0  0  0  0  0  0  0  0  0  0
   -2.7950   -0.3280   -0.3450 N   0  0  0  0  0  0  0  0  0  0  0  0
   -3.0850   -0.7220    0.8960 C   0  0  0  0  0  0  0  0  0  0  0  0
   -4.4390   -0.7330    1.5310 C   0  0  0  0  0  0  0  0  0  0  0  0
   -5.4210   -0.2590    0.6340 O   0  0  0  0  0  0  0  0  0  0  0  0
   -5.4030    0.9920    0.0820 C   0  0  0  0  0  0  0  0  0  0  0  0
   -4.4750    1.7890    0.3660 O   0  0  0  0  0  0  0  0  0  0  0  0
   -6.3730    1.4670   -0.8060 O   0  0  0  0  0  0  0  0  0  0  0  0
   -1.9150   -1.1180    1.4880 C   0  0  0  0  0  0  0  0  0  0  0  0
   -0.9650   -0.9530    0.5970 O   0  0  0  0  0  0  0  0  0  0  0  0
    3.4520   -0.9720   -1.6210 C   0  0  0  0  0  0  0  0  0  0  0  0
    4.7070   -1.2980   -1.6620 C   0  0  0  0  0  0  0  0  0  0  0  0
    5.9230   -0.6090   -0.5580 S   0  0  0  0  0  0  0  0  0  0  0  0
  1  2  2  0
  2  3  1  0
  2 21  1  0
  3  4  2  0
  4  5  1  0
  4 19  1  0
  5  6  2  0
  5  7  1  0
  7  8  1  0
  8  9  1  0
  9 10  2  0
  9 18  1  0
 10 11  1  0
 11 12  1  0
 11 17  2  0
 12 13  1  0
 13 14  1  0
 14 15  2  0
 14 16  1  0
 17 18  1  0
 19 20  2  0
 20 21  1  0
M  END
