
     RDKit          3D

 12 11  0  0  0  0  0  0  0  0999 V2000
   -3.5460    0.7250    1.5350 O   0  0  0  0  0  0  0  0  0  0  0  0
   -3.2120    0.9530    0.3390 C   0  0  0  0  0  0  0  0  0  0  0  0
   -3.7420    2.0550   -0.3550 O   0  0  0  0  0  0  0  0  0  0  0  0
   -2.3240    0.1010   -0.2620 O   0  0  0  0  0  0  0  0  0  0  0  0
   -1.7880   -1.0150    0.4440 C   0  0  0  0  0  0  0  0  0  0  0  0
   -0.8570   -1.7360   -0.4900 C   0  0  0  0  0  0  0  0  0  0  0  0
    0.1550   -0.9080   -0.9050 O   0  0  0  0  0  0  0  0  0  0  0  0
    0.9120   -0.4680    0.1380 C   0  0  0  0  0  0  0  0  0  0  0  0
    2.0680    0.4180   -0.3220 C   0  0  1  0  0  0  0  0  0  0  0  0
    1.5880    1.5340   -0.9890 O   0  0  0  0  0  0  0  0  0  0  0  0
    2.7530    0.9100    0.9450 C   0  0  0  0  0  0  0  0  0  0  0  0
    3.2370   -0.2140    1.6170 O   0  0  0  0  0  0  0  0  0  0  0  0
  1  2  2  0
  2  3  1  0
  2  4  1  0
  4  5  1  0
  5  6  1  0
  6  7  1  0
  7  8  1  0
  8  9  1  0
  9 10  1  1
  9 11  1  0
 11 12  1  0
M  END
