
     RDKit          3D

 13 12  0  0  0  0  0  0  0  0999 V2000
   -1.3880    1.0760   -1.3230 O   0  0  0  0  0  0  0  0  0  0  0  0
   -1.5550    1.2070   -0.0920 C   0  0  0  0  0  0  0  0  0  0  0  0
   -2.4170    2.2070    0.3330 O   0  0  0  0  0  0  0  0  0  0  0  0
   -0.8680    0.3430    0.8550 C   0  0  0  0  0  0  0  0  0  0  0  0
   -0.0070   -0.7290    0.2930 C   0  0  2  0  0  0  0  0  0  0  0  0
    0.5720   -1.4290    1.3930 O   0  0  0  0  0  0  0  0  0  0  0  0
    1.1540   -0.2590   -0.5230 C   0  0  0  0  0  0  0  0  0  0  0  0
    2.1200    0.5900    0.1820 C   0  0  0  0  0  0  0  0  0  0  0  0
    2.0070    0.8900    1.3870 O   0  0  0  0  0  0  0  0  0  0  0  0
    3.2120    1.0900   -0.5010 O   0  0  0  0  0  0  0  0  0  0  0  0
   -0.7650   -1.7440   -0.4710 C   0  0  0  0  0  0  0  0  0  0  0  0
   -0.7870   -2.9210   -0.0480 O   0  0  0  0  0  0  0  0  0  0  0  0
   -1.4590   -1.4800   -1.6360 O   0  0  0  0  0  0  0  0  0  0  0  0
  1  2  2  0
  2  3  1  0
  2  4  1  0
  4  5  1  0
  5  6  1  1
  5  7  1  0
  5 11  1  0
  7  8  1  0
  8  9  2  0
  8 10  1  0
 11 12  2  0
 11 13  1  0
M  END
