
     RDKit          3D

 12 11  0  0  0  0  0  0  0  0999 V2000
   -4.1760   -0.3980    0.7890 O   0  0  0  0  0  0  0  0  0  0  0  0
   -3.6080   -0.9890   -0.3320 C   0  0  0  0  0  0  0  0  0  0  0  0
   -2.6510   -0.0980   -0.8270 O   0  0  0  0  0  0  0  0  0  0  0  0
   -1.6940    0.1170    0.1730 C   0  0  0  0  0  0  0  0  0  0  0  0
   -0.6540    1.0800   -0.3530 C   0  0  1  0  0  0  0  0  0  0  0  0
   -1.3040    2.2740   -0.6800 O   0  0  0  0  0  0  0  0  0  0  0  0
    0.3190    1.2550    0.6030 O   0  0  0  0  0  0  0  0  0  0  0  0
    1.5930    0.9130    0.1940 C   0  0  0  0  0  0  0  0  0  0  0  0
    1.7360   -0.5180   -0.2150 C   0  0  2  0  0  0  0  0  0  0  0  0
    1.4120   -1.3320    0.8730 O   0  0  0  0  0  0  0  0  0  0  0  0
    3.1950   -0.7850   -0.5480 C   0  0  0  0  0  0  0  0  0  0  0  0
    3.9410   -0.4580    0.5840 O   0  0  0  0  0  0  0  0  0  0  0  0
  1  2  1  0
  2  3  1  0
  3  4  1  0
  4  5  1  0
  5  6  1  1
  5  7  1  0
  7  8  1  0
  8  9  1  0
  9 10  1  1
  9 11  1  0
 11 12  1  0
M  END
