
     RDKit          3D

 12 11  0  0  0  0  0  0  0  0999 V2000
    4.5440    0.8130    1.8930 O   0  0  0  0  0  0  0  0  0  0  0  0
    4.1310   -0.1590    0.9720 C   0  0  0  0  0  0  0  0  0  0  0  0
    2.7760    0.0480    0.7500 O   0  0  0  0  0  0  0  0  0  0  0  0
    2.3450   -0.9130   -0.1680 C   0  0  0  0  0  0  0  0  0  0  0  0
    0.8630   -0.6800   -0.4040 C   0  0  0  0  0  0  0  0  0  0  0  0
    0.7290    0.6150   -0.9120 O   0  0  0  0  0  0  0  0  0  0  0  0
   -0.6590    0.7990   -1.1200 C   0  0  0  0  0  0  0  0  0  0  0  0
   -1.2700    0.6480    0.0910 O   0  0  0  0  0  0  0  0  0  0  0  0
   -2.6250    0.7900    0.1000 C   0  0  2  0  0  0  0  0  0  0  0  0
   -3.0030    1.9080    0.8570 O   0  0  0  0  0  0  0  0  0  0  0  0
   -3.3800   -0.4450    0.5160 C   0  0  0  0  0  0  0  0  0  0  0  0
   -4.7410   -0.1270    0.4700 O   0  0  0  0  0  0  0  0  0  0  0  0
  1  2  1  0
  2  3  1  0
  3  4  1  0
  4  5  1  0
  5  6  1  0
  6  7  1  0
  7  8  1  0
  8  9  1  0
  9 10  1  1
  9 11  1  0
 11 12  1  0
M  END
