
     RDKit          3D

 12 11  0  0  0  0  0  0  0  0999 V2000
    3.1660   -0.6330   -1.4040 O   0  0  0  0  0  0  0  0  0  0  0  0
    3.5060   -0.9010   -0.0670 C   0  0  0  0  0  0  0  0  0  0  0  0
    2.4670   -0.5870    0.7890 O   0  0  0  0  0  0  0  0  0  0  0  0
    1.3210   -1.3280    0.4860 C   0  0  0  0  0  0  0  0  0  0  0  0
    0.2700   -1.0240    1.3360 O   0  0  0  0  0  0  0  0  0  0  0  0
   -0.0980    0.3110    1.2740 C   0  0  0  0  0  0  0  0  0  0  0  0
   -0.6050    0.7700   -0.0300 C   0  0  2  0  0  0  0  0  0  0  0  0
   -0.8970    2.1600    0.0670 O   0  0  0  0  0  0  0  0  0  0  0  0
   -1.8100    0.0870   -0.5710 C   0  0  1  0  0  0  0  0  0  0  0  0
   -1.6020   -1.2790   -0.6850 O   0  0  0  0  0  0  0  0  0  0  0  0
   -3.0940    0.3760    0.1270 C   0  0  0  0  0  0  0  0  0  0  0  0
   -3.3270    1.7440    0.2550 O   0  0  0  0  0  0  0  0  0  0  0  0
  1  2  1  0
  2  3  1  0
  3  4  1  0
  4  5  1  0
  5  6  1  0
  6  7  1  0
  7  8  1  1
  7  9  1  0
  9 10  1  1
  9 11  1  0
 11 12  1  0
M  END
