
     RDKit          3D

 22 22  0  0  0  0  0  0  0  0999 V2000
    4.8840    1.5460   -2.1620 C   0  0  0  0  0  0  0  0  0  0  0  0
    4.2550    0.1810   -2.1120 C   0  0  0  0  0  0  0  0  0  0  0  0
    3.6370   -0.1310   -0.8070 C   0  0  0  0  0  0  0  0  0  0  0  0
    2.2630   -0.1080   -0.6030 C   0  0  0  0  0  0  0  0  0  0  0  0
    1.7430   -0.4100    0.6380 C   0  0  0  0  0  0  0  0  0  0  0  0
    0.3700   -0.3710    0.7800 O   0  0  0  0  0  0  0  0  0  0  0  0
   -0.5260   -0.0440   -0.2530 C   0  0  0  0  0  0  0  0  0  0  0  0
   -1.9290   -0.1150    0.3120 C   0  0  0  0  0  0  0  0  0  0  0  0
   -2.9790    0.2250   -0.7450 C   0  0  1  0  0  0  0  0  0  0  0  0
   -2.7200    1.6080   -1.2250 C   0  0  0  0  0  0  0  0  0  0  0  0
   -2.8440   -0.6590   -1.8360 O   0  0  0  0  0  0  0  0  0  0  0  0
   -4.3440   -0.0040   -0.1800 C   0  0  2  0  0  0  0  0  0  0  0  0
   -4.5660    0.8840    1.0240 C   0  0  0  0  0  0  0  0  0  0  0  0
   -4.3970   -1.4540    0.3400 C   0  0  0  0  0  0  0  0  0  0  0  0
   -5.4570    0.1180   -1.1570 C   0  0  0  0  0  0  0  0  0  0  0  0
   -5.5990    1.3260   -1.7810 O   0  0  0  0  0  0  0  0  0  0  0  0
    2.5250   -0.7440    1.7240 C   0  0  0  0  0  0  0  0  0  0  0  0
    1.9520   -1.0430    2.9640 O   0  0  0  0  0  0  0  0  0  0  0  0
    2.7410   -1.3870    4.0840 C   0  0  0  0  0  0  0  0  0  0  0  0
    3.8890   -0.7650    1.5130 C   0  0  0  0  0  0  0  0  0  0  0  0
    4.4320   -0.4620    0.2660 C   0  0  0  0  0  0  0  0  0  0  0  0
    5.9100   -0.5000    0.1020 C   0  0  0  0  0  0  0  0  0  0  0  0
  1  2  1  0
  2  3  1  0
  3  4  2  0
  3 21  1  0
  4  5  1  0
  5  6  1  0
  5 17  2  0
  6  7  1  0
  7  8  1  0
  8  9  1  0
  9 10  1  6
  9 11  1  0
  9 12  1  0
 12 13  1  1
 12 14  1  0
 12 15  1  0
 15 16  1  0
 17 18  1  0
 17 20  1  0
 18 19  1  0
 20 21  2  0
 21 22  1  0
M  END
