
     RDKit          3D

 16 16  0  0  0  0  0  0  0  0999 V2000
   -0.8350    3.3530    0.7960 C   0  0  0  0  0  0  0  0  0  0  0  0
   -1.2910    2.0230    0.9420 O   0  0  0  0  0  0  0  0  0  0  0  0
   -0.7170    0.9860    0.2500 C   0  0  0  0  0  0  0  0  0  0  0  0
    0.3190    1.1920   -0.5160 C   0  0  0  0  0  0  0  0  0  0  0  0
    1.0160    0.1560   -1.3050 C   0  0  1  0  0  0  0  0  0  0  0  0
    1.8260    0.7430   -2.3040 O   0  0  0  0  0  0  0  0  0  0  0  0
    1.9540   -0.5550   -0.4000 C   0  0  0  0  0  0  0  0  0  0  0  0
    2.9870   -1.3580   -0.8650 C   0  0  0  0  0  0  0  0  0  0  0  0
    3.6190   -1.8290    0.2230 N   0  0  0  0  0  0  0  0  0  0  0  0
    3.0370   -1.3630    1.3330 C   0  0  0  0  0  0  0  0  0  0  0  0
    2.0140   -0.5810    0.9410 N   0  0  0  0  0  0  0  0  0  0  0  0
   -1.2960   -0.3700    0.3880 C   0  0  0  0  0  0  0  0  0  0  0  0
   -2.6530   -0.3340   -0.0520 O   0  0  0  0  0  0  0  0  0  0  0  0
   -3.3500   -1.5320    0.0120 C   0  0  0  0  0  0  0  0  0  0  0  0
   -4.7080   -1.6260   -0.3980 N   0  0  0  0  0  0  0  0  0  0  0  0
   -2.8070   -2.5930    0.4370 O   0  0  0  0  0  0  0  0  0  0  0  0
  1  2  1  0
  2  3  1  0
  3  4  2  3
  3 12  1  0
  4  5  1  0
  5  6  1  6
  5  7  1  0
  7  8  2  0
  7 11  1  0
  8  9  1  0
  9 10  1  0
 10 11  2  0
 12 13  1  0
 13 14  1  0
 14 15  1  0
 14 16  2  0
M  CHG  1  11   1
M  END
