
     RDKit          3D

 16 16  0  0  0  0  0  0  0  0999 V2000
   -2.6870    1.7940    1.6630 C   0  0  0  0  0  0  0  0  0  0  0  0
   -1.6300    1.1060    0.9580 N   0  0  0  0  0  0  0  0  0  0  0  0
   -0.3450    1.7570    0.8870 C   0  0  0  0  0  0  0  0  0  0  0  0
    0.6560    0.9730    0.1500 C   0  0  0  0  0  0  0  0  0  0  0  0
    0.3390   -0.1330   -0.3330 O   0  0  0  0  0  0  0  0  0  0  0  0
    1.9300    1.4560   -0.0060 O   0  0  0  0  0  0  0  0  0  0  0  0
    2.9550    0.7720   -0.6990 C   0  0  0  0  0  0  0  0  0  0  0  0
    3.2670   -0.5380   -0.1160 C   0  0  0  0  0  0  0  0  0  0  0  0
    4.2780   -1.3460   -0.7030 N   0  0  0  0  0  0  0  0  0  0  0  0
    2.6680   -0.9410    0.8640 O   0  0  0  0  0  0  0  0  0  0  0  0
   -1.9150   -0.1610    0.3810 C   0  0  0  0  0  0  0  0  0  0  0  0
   -1.7880   -1.3390    0.9590 C   0  0  0  0  0  0  0  0  0  0  0  0
   -2.1810   -2.4200    0.0400 C   0  0  0  0  0  0  0  0  0  0  0  0
   -2.5570   -1.7880   -1.1470 O   0  0  0  0  0  0  0  0  0  0  0  0
   -2.4090   -0.4330   -0.9760 C   0  0  0  0  0  0  0  0  0  0  0  0
   -2.6610    0.4740   -1.8610 N   0  0  0  0  0  0  0  0  0  0  0  0
  1  2  1  0
  2  3  1  0
  2 11  1  0
  3  4  1  0
  4  5  2  0
  4  6  1  0
  6  7  1  0
  7  8  1  0
  8  9  1  0
  8 10  2  0
 11 12  2  0
 11 15  1  0
 12 13  1  0
 13 14  1  0
 14 15  1  0
 15 16  2  0
M  CHG  1   9   1
M  END
