
     RDKit          3D

 16 16  0  0  0  0  0  0  0  0999 V2000
    2.4350    1.9390    1.0290 N   0  0  0  0  0  0  0  0  0  0  0  0
    1.3080    1.4470    0.6880 C   0  0  0  0  0  0  0  0  0  0  0  0
    0.1280    2.2280    0.7500 N   0  0  0  0  0  0  0  0  0  0  0  0
   -1.0120    1.8090    0.4310 C   0  0  0  0  0  0  0  0  0  0  0  0
   -2.1890    2.6700    0.5190 N   0  0  0  0  0  0  0  0  0  0  0  0
   -1.2420    0.4350   -0.0490 C   0  0  1  0  0  0  0  0  0  0  0  0
   -1.8670    0.4960   -1.3150 O   0  0  0  0  0  0  0  0  0  0  0  0
   -3.0760   -0.1480   -1.2500 C   0  0  0  0  0  0  0  0  0  0  0  0
   -2.8920   -1.6030   -0.9880 C   0  0  0  0  0  0  0  0  0  0  0  0
   -4.1080   -2.2890   -0.9160 O   0  0  0  0  0  0  0  0  0  0  0  0
   -0.0950   -0.3490   -0.1170 O   0  0  0  0  0  0  0  0  0  0  0  0
    1.1730    0.0860    0.2270 C   0  0  0  0  0  0  0  0  0  0  0  0
    2.1700   -0.7590    0.1160 C   0  0  0  0  0  0  0  0  0  0  0  0
    3.5410   -0.4890    0.4240 C   0  0  0  0  0  0  0  0  0  0  0  0
    4.4170   -1.4870    0.2430 C   0  0  0  0  0  0  0  0  0  0  0  0
    5.7460   -1.2710    0.5270 O   0  0  0  0  0  0  0  0  0  0  0  0
  1  2  2  0
  2  3  1  0
  2 12  1  0
  3  4  2  0
  4  5  1  0
  4  6  1  0
  6  7  1  6
  6 11  1  0
  7  8  1  0
  8  9  1  0
  9 10  1  0
 11 12  1  0
 12 13  2  3
 13 14  1  0
 14 15  2  3
 15 16  1  0
M  END
