
     RDKit          3D

 16 16  0  0  0  0  0  0  0  0999 V2000
    5.1760   -0.6400    0.0310 N   0  0  0  0  0  0  0  0  0  0  0  0
    3.7540   -0.5240   -0.1390 C   0  0  0  0  0  0  0  0  0  0  0  0
    3.2380   -1.3100   -0.9670 O   0  0  0  0  0  0  0  0  0  0  0  0
    3.0140    0.3990    0.5710 O   0  0  0  0  0  0  0  0  0  0  0  0
    1.6190    0.4920    0.3830 C   0  0  0  0  0  0  0  0  0  0  0  0
    1.2150    0.8340   -1.0210 C   0  0  0  0  0  0  0  0  0  0  0  0
   -0.1870    0.8930   -1.0680 O   0  0  0  0  0  0  0  0  0  0  0  0
   -1.0390   -0.1330   -0.7730 C   0  0  0  0  0  0  0  0  0  0  0  0
   -0.7010   -1.3930   -0.9480 C   0  0  0  0  0  0  0  0  0  0  0  0
   -1.6010   -2.5130   -0.6370 C   0  0  0  0  0  0  0  0  0  0  0  0
   -2.8240   -2.0770   -0.1460 O   0  0  0  0  0  0  0  0  0  0  0  0
   -3.2070   -0.7790    0.0480 C   0  0  0  0  0  0  0  0  0  0  0  0
   -2.3560    0.2090   -0.2480 C   0  0  0  0  0  0  0  0  0  0  0  0
   -2.7090    1.5640   -0.0640 N   0  0  0  0  0  0  0  0  0  0  0  0
   -2.3570    2.2800    1.0880 C   0  0  0  0  0  0  0  0  0  0  0  0
   -1.9610    1.6180    2.1210 N   0  0  0  0  0  0  0  0  0  0  0  0
  1  2  1  0
  2  3  2  0
  2  4  1  0
  4  5  1  0
  5  6  1  0
  6  7  1  0
  7  8  1  0
  8  9  2  0
  8 13  1  0
  9 10  1  0
 10 11  1  0
 11 12  1  0
 12 13  2  0
 13 14  1  0
 14 15  1  0
 15 16  2  0
M  CHG  1  16   1
M  END
