
     RDKit          3D

 30 32  0  0  0  0  0  0  0  0999 V2000
    0.7130   -3.8600   -0.0580 C   0  0  0  0  0  0  0  0  0  0  0  0
    0.2520   -2.9660   -1.2080 C   0  0  0  0  0  0  0  0  0  0  0  0
    0.5870   -1.5570   -0.7680 C   0  0  0  0  0  0  0  0  0  0  0  0
   -0.4200   -0.7300   -0.6720 C   0  0  0  0  0  0  0  0  0  0  0  0
   -0.1550    0.7000   -0.2370 C   0  0  2  0  0  0  0  0  0  0  0  0
   -1.0370    1.6380   -0.9430 C   0  0  0  0  0  0  0  0  0  0  0  0
   -2.4890    1.5640   -0.7530 C   0  0  0  0  0  0  0  0  0  0  0  0
   -3.3150    2.3220   -1.3120 O   0  0  0  0  0  0  0  0  0  0  0  0
   -3.0530    0.6030    0.0980 O   0  0  0  0  0  0  0  0  0  0  0  0
   -4.4410    0.5100    0.2980 C   0  0  1  0  0  0  0  0  0  0  0  0
   -5.0080   -0.8340   -0.0740 C   0  0  0  0  0  0  0  0  0  0  0  0
   -6.3880   -0.7670    0.5820 C   0  0  0  0  0  0  0  0  0  0  0  0
   -6.0180   -0.2690    1.9680 C   0  0  0  0  0  0  0  0  0  0  0  0
   -4.8160    0.6360    1.7590 C   0  0  0  0  0  0  0  0  0  0  0  0
   -0.5210    2.5440   -1.7430 C   0  0  0  0  0  0  0  0  0  0  0  0
   -1.4440    3.4930   -2.4560 C   0  0  0  0  0  0  0  0  0  0  0  0
    0.8450    2.6300   -1.9320 O   0  0  0  0  0  0  0  0  0  0  0  0
    1.7680    1.7700   -1.2890 C   0  0  0  0  0  0  0  0  0  0  0  0
    3.1660    2.0080   -1.6160 C   0  0  0  0  0  0  0  0  0  0  0  0
    1.2860    0.8680   -0.4930 C   0  0  0  0  0  0  0  0  0  0  0  0
    2.1170   -0.1150    0.2430 C   0  0  2  0  0  0  0  0  0  0  0  0
    3.3400    0.3030    0.7470 N   0  0  0  0  0  0  0  0  0  0  0  0
    4.3390   -0.4880    1.3570 C   0  0  0  0  0  0  0  0  0  0  0  0
    5.6020   -0.0180    1.4810 C   0  0  0  0  0  0  0  0  0  0  0  0
    5.9190    1.3550    0.9620 C   0  0  0  0  0  0  0  0  0  0  0  0
    6.8790   -0.9410    2.2120 Cl  0  0  0  0  0  0  0  0  0  0  0  0
    4.1100   -1.8500    1.8920 C   0  0  2  0  0  0  0  0  0  0  0  0
    2.9380   -1.9030    2.6300 F   0  0  0  0  0  0  0  0  0  0  0  0
    5.1010   -2.1670    2.8490 F   0  0  0  0  0  0  0  0  0  0  0  0
    1.9730   -1.3310   -0.5100 N   0  0  0  0  0  0  0  0  0  0  0  0
  1  2  1  0
  2  3  1  0
  3  4  2  0
  3 30  1  0
  5  4  1  6
  5  6  1  0
  5 20  1  0
  6  7  1  0
  6 15  2  0
  7  8  2  0
  7  9  1  0
 10  9  1  1
 10 11  1  0
 10 14  1  0
 11 12  1  0
 12 13  1  0
 13 14  1  0
 15 16  1  0
 15 17  1  0
 17 18  1  0
 18 19  1  0
 18 20  2  0
 20 21  1  0
 21 22  1  6
 21 30  1  0
 22 23  1  0
 23 24  2  3
 23 27  1  0
 24 25  1  0
 24 26  1  0
 27 28  1  1
 27 29  1  0
M  CHG  1  30   1
M  END
