
     RDKit          3D

 29 31  0  0  0  0  0  0  0  0999 V2000
    3.7820    2.0740    1.9140 O   0  0  0  0  0  0  0  0  0  0  0  0
    3.0430    1.2370    1.2370 C   0  0  0  0  0  0  0  0  0  0  0  0
    2.0080    1.8700    0.4630 C   0  0  0  0  0  0  0  0  0  0  0  0
    1.0450    1.3170   -0.2180 C   0  0  0  0  0  0  0  0  0  0  0  0
    0.8370   -0.0480   -0.3050 O   0  0  0  0  0  0  0  0  0  0  0  0
   -0.3450   -0.8060   -0.1420 C   0  0  0  0  0  0  0  0  0  0  0  0
   -1.6410   -0.2940   -0.5240 C   0  0  1  0  0  0  0  0  0  0  0  0
   -2.6420   -1.0220    0.3270 N   0  0  0  0  0  0  0  0  0  0  0  0
   -3.9460   -1.0400   -0.2630 C   0  0  1  0  0  0  0  0  0  0  0  0
   -4.4280   -2.4520   -0.5200 C   0  0  0  0  0  0  0  0  0  0  0  0
   -5.9320   -2.5150   -0.7380 C   0  0  0  0  0  0  0  0  0  0  0  0
   -6.5500   -2.0680    0.5510 C   0  0  0  0  0  0  0  0  0  0  0  0
   -6.0430   -1.0230    1.1510 C   0  0  0  0  0  0  0  0  0  0  0  0
   -6.6230   -0.6240    2.3390 F   0  0  0  0  0  0  0  0  0  0  0  0
   -4.9020   -0.2730    0.6010 C   0  0  0  0  0  0  0  0  0  0  0  0
   -2.0500    1.1180   -0.3840 C   0  0  0  0  0  0  0  0  0  0  0  0
   -1.2740    2.0700   -1.0780 O   0  0  0  0  0  0  0  0  0  0  0  0
    0.1060    2.2210   -0.9520 C   0  0  0  0  0  0  0  0  0  0  0  0
    0.6750    3.2560   -1.5340 C   0  0  0  0  0  0  0  0  0  0  0  0
   -0.1710    4.1760   -2.2600 C   0  0  0  0  0  0  0  0  0  0  0  0
    0.2650    5.2770   -2.9060 C   0  0  0  0  0  0  0  0  0  0  0  0
    1.9300    5.6820   -2.9050 Cl  0  0  0  0  0  0  0  0  0  0  0  0
    3.3040   -0.1270    1.3010 N   0  0  0  0  0  0  0  0  0  0  0  0
    4.3610   -0.7290    2.1090 C   0  0  1  0  0  0  0  0  0  0  0  0
    4.4840   -2.1740    1.7420 C   0  0  0  0  0  0  0  0  0  0  0  0
    4.6110   -2.2860    0.2730 C   0  0  0  0  0  0  0  0  0  0  0  0
    5.3430   -1.3390   -0.3650 C   0  0  0  0  0  0  0  0  0  0  0  0
    6.0060   -0.2290    0.3070 C   0  0  0  0  0  0  0  0  0  0  0  0
    5.7020   -0.0410    1.7430 C   0  0  0  0  0  0  0  0  0  0  0  0
  1  2  2  0
  2  3  1  0
  2 23  1  0
  3  4  2  3
  4  5  1  0
  4 18  1  0
  5  6  1  0
  6  7  1  0
  7  8  1  1
  7 16  1  0
  9  8  1  1
  9 10  1  0
  9 15  1  0
 10 11  1  0
 11 12  1  0
 12 13  2  0
 13 14  1  0
 13 15  1  0
 16 17  1  0
 17 18  1  0
 18 19  2  3
 19 20  1  0
 20 21  2  3
 21 22  1  0
 24 23  1  6
 24 25  1  0
 24 29  1  0
 25 26  1  0
 26 27  2  0
 27 28  1  0
 28 29  1  0
M  CHG  1   8   1
M  END
