
     RDKit          3D

 30 33  0  0  0  0  0  0  0  0999 V2000
   -5.7500    1.4090   -0.2250 C   0  0  0  0  0  0  0  0  0  0  0  0
   -4.5000    0.8500    0.4710 C   0  0  1  0  0  0  0  0  0  0  0  0
   -3.6270    2.0030    0.7860 C   0  0  0  0  0  0  0  0  0  0  0  0
   -5.0240    0.2970    1.8060 C   0  0  0  0  0  0  0  0  0  0  0  0
   -5.8420   -0.8010    1.6180 O   0  0  0  0  0  0  0  0  0  0  0  0
   -5.1970   -1.8780    1.0220 C   0  0  0  0  0  0  0  0  0  0  0  0
   -3.7700   -1.4940    0.6000 C   0  0  0  0  0  0  0  0  0  0  0  0
   -3.9240   -0.2720   -0.2790 C   0  0  2  0  0  0  0  0  0  0  0  0
   -2.7010   -0.0190   -1.0000 N   0  0  0  0  0  0  0  0  0  0  0  0
   -1.5170   -0.2650   -0.1640 C   0  0  0  0  0  0  0  0  0  0  0  0
   -0.3210   -0.1090   -1.0170 C   0  0  0  0  0  0  0  0  0  0  0  0
   -0.4140    0.2440   -2.3440 C   0  0  0  0  0  0  0  0  0  0  0  0
    0.7490    0.3860   -3.0640 C   0  0  0  0  0  0  0  0  0  0  0  0
    1.9930    0.1940   -2.5260 C   0  0  0  0  0  0  0  0  0  0  0  0
    2.0740   -0.1630   -1.1880 C   0  0  0  0  0  0  0  0  0  0  0  0
    3.3220   -0.3710   -0.6000 C   0  0  0  0  0  0  0  0  0  0  0  0
    3.4110   -0.7240    0.7200 C   0  0  0  0  0  0  0  0  0  0  0  0
    2.2840   -0.8650    1.4290 N   0  0  0  0  0  0  0  0  0  0  0  0
    1.0550   -0.6770    0.9100 C   0  0  0  0  0  0  0  0  0  0  0  0
    0.0230   -0.8190    1.6020 O   0  0  0  0  0  0  0  0  0  0  0  0
    0.9370   -0.3210   -0.4100 C   0  0  0  0  0  0  0  0  0  0  0  0
    4.7580   -0.9420    1.3650 C   0  0  0  0  0  0  0  0  0  0  0  0
    5.7380   -0.2050    0.4490 C   0  0  1  0  0  0  0  0  0  0  0  0
    5.5120    1.2690    0.4690 C   0  0  0  0  0  0  0  0  0  0  0  0
    7.1790   -0.4620    0.8920 C   0  0  1  0  0  0  0  0  0  0  0  0
    7.2710    0.0110    2.1910 F   0  0  0  0  0  0  0  0  0  0  0  0
    7.4920   -1.7850    0.7770 F   0  0  0  0  0  0  0  0  0  0  0  0
    8.2140    0.4950   -0.1970 Cl  0  0  0  0  0  0  0  0  0  0  0  0
    5.6220   -0.6620   -0.8530 O   0  0  0  0  0  0  0  0  0  0  0  0
    4.5090   -0.1930   -1.4890 C   0  0  0  0  0  0  0  0  0  0  0  0
  2  1  1  6
  2  3  1  0
  2  4  1  0
  2  8  1  0
  4  5  1  0
  5  6  1  0
  6  7  1  0
  7  8  1  0
  8  9  1  1
  9 10  1  0
 10 11  1  0
 11 12  2  0
 11 21  1  0
 12 13  1  0
 13 14  2  0
 14 15  1  0
 15 16  1  0
 15 21  2  0
 16 17  2  0
 16 30  1  0
 17 18  1  0
 17 22  1  0
 18 19  1  0
 19 20  2  0
 19 21  1  0
 22 23  1  0
 23 24  1  6
 23 25  1  0
 23 29  1  0
 25 26  1  1
 25 27  1  0
 25 28  1  0
 29 30  1  0
M  CHG  1   9   1
M  END
