
     RDKit          3D

 31 32  0  0  0  0  0  0  0  0999 V2000
   -7.1070   -0.0060    1.1090 C   0  0  0  0  0  0  0  0  0  0  0  0
   -6.0410   -0.1590    0.3340 C   0  0  0  0  0  0  0  0  0  0  0  0
   -5.6350    0.7650   -0.5620 N   0  0  0  0  0  0  0  0  0  0  0  0
   -4.5200    0.3700   -1.2270 C   0  0  0  0  0  0  0  0  0  0  0  0
   -3.8890    1.1550   -2.3050 C   0  0  0  0  0  0  0  0  0  0  0  0
   -2.7140    1.9800   -1.9850 C   0  0  0  0  0  0  0  0  0  0  0  0
   -3.1330    2.9550   -0.9630 N   0  0  0  0  0  0  0  0  0  0  0  0
   -4.1710   -0.8500   -0.7570 C   0  0  0  0  0  0  0  0  0  0  0  0
   -3.0270   -1.7040   -1.0750 C   0  0  0  0  0  0  0  0  0  0  0  0
   -1.8380   -1.7490   -0.2490 C   0  0  0  0  0  0  0  0  0  0  0  0
   -0.9990   -0.5880    0.0900 C   0  0  1  0  0  0  0  0  0  0  0  0
   -1.6350    0.5120    0.8610 C   0  0  0  0  0  0  0  0  0  0  0  0
    0.0800   -1.1240    0.9470 N   0  0  0  0  0  0  0  0  0  0  0  0
    1.4310   -1.0500    0.5370 C   0  0  0  0  0  0  0  0  0  0  0  0
    1.6690   -0.5190   -0.5750 O   0  0  0  0  0  0  0  0  0  0  0  0
    2.4850   -1.5670    1.3730 N   0  0  0  0  0  0  0  0  0  0  0  0
    3.8330   -1.4670    0.9070 C   0  0  0  0  0  0  0  0  0  0  0  0
    4.1700   -0.0360    0.7100 C   0  0  0  0  0  0  0  0  0  0  0  0
    3.2940    0.8420    0.9610 O   0  0  0  0  0  0  0  0  0  0  0  0
    5.4540    0.2880    0.2510 N   0  0  0  0  0  0  0  0  0  0  0  0
    6.5230   -0.6220   -0.0750 C   0  0  0  0  0  0  0  0  0  0  0  0
    7.7620    0.1450    0.3690 C   0  0  0  0  0  0  0  0  0  0  0  0
    7.3140    1.5390    0.7020 C   0  0  1  0  0  0  0  0  0  0  0  0
    8.1700    2.5880    0.1180 C   0  0  0  0  0  0  0  0  0  0  0  0
    8.2950    2.6830   -1.2870 N   0  0  0  0  0  0  0  0  0  0  0  0
    8.7750    3.3780    0.8630 O   0  0  0  0  0  0  0  0  0  0  0  0
    5.9560    1.6210    0.0230 C   0  0  0  0  0  0  0  0  0  0  0  0
   -5.1480   -1.1800    0.2360 C   0  0  0  0  0  0  0  0  0  0  0  0
   -5.1250   -2.3180    0.8970 C   0  0  0  0  0  0  0  0  0  0  0  0
   -6.0530   -2.7980    1.9200 C   0  0  0  0  0  0  0  0  0  0  0  0
   -7.2870   -3.2220    1.4170 O   0  0  0  0  0  0  0  0  0  0  0  0
  1  2  2  0
  2  3  1  0
  2 28  1  0
  3  4  1  0
  4  5  1  0
  4  8  2  0
  5  6  1  0
  6  7  1  0
  8  9  1  0
  8 28  1  0
  9 10  1  0
 10 11  1  0
 11 12  1  1
 11 13  1  0
 13 14  1  0
 14 15  2  0
 14 16  1  0
 16 17  1  0
 17 18  1  0
 18 19  2  0
 18 20  1  0
 20 21  1  0
 20 27  1  0
 21 22  1  0
 22 23  1  0
 23 24  1  6
 23 27  1  0
 24 25  1  0
 24 26  2  0
 28 29  2  3
 29 30  1  0
 30 31  1  0
M  CHG  1   7   1
M  END
