
     RDKit          3D

 38 40  0  0  0  0  0  0  0  0999 V2000
    1.4330   -4.4430    0.5980 C   0  0  0  0  0  0  0  0  0  0  0  0
    1.3900   -3.2910    1.5730 C   0  0  0  0  0  0  0  0  0  0  0  0
    0.1040   -2.5410    1.5280 C   0  0  0  0  0  0  0  0  0  0  0  0
   -0.0980   -1.9220    0.1650 C   0  0  1  0  0  0  0  0  0  0  0  0
   -1.4210   -1.2610    0.2790 N   0  0  0  0  0  0  0  0  0  0  0  0
   -2.5340   -1.6520   -0.5040 C   0  0  0  0  0  0  0  0  0  0  0  0
   -2.3470   -2.6020   -1.3130 O   0  0  0  0  0  0  0  0  0  0  0  0
   -3.8670   -0.9920   -0.3960 C   0  0  2  0  0  0  0  0  0  0  0  0
   -4.1800   -0.4070   -1.7520 C   0  0  0  0  0  0  0  0  0  0  0  0
   -5.5420    0.2920   -1.7230 C   0  0  0  0  0  0  0  0  0  0  0  0
   -5.6840    1.5700   -1.4170 C   0  0  0  0  0  0  0  0  0  0  0  0
   -6.9170    2.1700   -1.4010 C   0  0  0  0  0  0  0  0  0  0  0  0
   -8.0220    0.7910   -1.8680 S   0  0  0  0  0  0  0  0  0  0  0  0
   -6.7170   -0.4690   -2.0420 C   0  0  0  0  0  0  0  0  0  0  0  0
   -3.8700    0.0430    0.5450 O   0  0  0  0  0  0  0  0  0  0  0  0
   -4.7490    0.1280    1.6220 C   0  0  0  0  0  0  0  0  0  0  0  0
   -5.5890   -0.7920    1.7490 O   0  0  0  0  0  0  0  0  0  0  0  0
   -4.7080    1.2330    2.5710 C   0  0  0  0  0  0  0  0  0  0  0  0
   -5.5200    1.3510    3.6060 C   0  0  0  0  0  0  0  0  0  0  0  0
   -5.2200    2.5160    4.3120 O   0  0  0  0  0  0  0  0  0  0  0  0
   -4.4070    3.3480    3.4700 C   0  0  0  0  0  0  0  0  0  0  0  0
   -3.8350    2.3560    2.5810 N   0  0  0  0  0  0  0  0  0  0  0  0
    0.9410   -0.8560   -0.0240 C   0  0  0  0  0  0  0  0  0  0  0  0
    0.5120    0.3520    0.0100 O   0  0  0  0  0  0  0  0  0  0  0  0
    2.2360   -0.9720   -0.2200 O   0  0  0  0  0  0  0  0  0  0  0  0
    3.3940   -0.4030   -0.4160 C   0  0  0  0  0  0  0  0  0  0  0  0
    3.5790    0.9070   -0.5490 C   0  0  0  0  0  0  0  0  0  0  0  0
    2.4130    1.5730   -0.4570 O   0  0  0  0  0  0  0  0  0  0  0  0
    2.1630    2.8700   -0.8610 C   0  0  0  0  0  0  0  0  0  0  0  0
    4.7640    1.7790   -0.7690 C   0  0  0  0  0  0  0  0  0  0  0  0
    4.4710    2.9300   -1.4710 O   0  0  0  0  0  0  0  0  0  0  0  0
    5.3900    3.9470   -1.7350 C   0  0  0  0  0  0  0  0  0  0  0  0
    6.0400    1.6710   -0.4280 C   0  0  0  0  0  0  0  0  0  0  0  0
    6.8090    0.6390    0.3080 C   0  0  0  0  0  0  0  0  0  0  0  0
    6.6940   -0.6790    0.4420 C   0  0  0  0  0  0  0  0  0  0  0  0
    5.7030   -1.6130   -0.1320 C   0  0  0  0  0  0  0  0  0  0  0  0
    4.4380   -1.4890   -0.4560 C   0  0  0  0  0  0  0  0  0  0  0  0
    3.8760   -2.7340   -1.0210 C   0  0  0  0  0  0  0  0  0  0  0  0
  1  2  1  0
  2  3  1  0
  4  3  1  1
  4  5  1  0
  4 23  1  0
  5  6  1  0
  6  7  2  0
  6  8  1  0
  8  9  1  6
  8 15  1  0
  9 10  1  0
 10 11  1  0
 10 14  2  0
 11 12  2  0
 12 13  1  0
 13 14  1  0
 15 16  1  0
 16 17  2  0
 16 18  1  0
 18 19  2  0
 18 22  1  0
 19 20  1  0
 20 21  1  0
 21 22  1  0
 23 24  2  0
 23 25  1  0
 25 26  1  0
 26 27  2  0
 26 37  1  0
 27 28  1  0
 27 30  1  0
 28 29  1  0
 30 31  1  0
 30 33  2  0
 31 32  1  0
 33 34  1  0
 34 35  2  0
 35 36  1  0
 36 37  2  0
 37 38  1  0
M  END
