
     RDKit          3D

 38 41  0  0  0  0  0  0  0  0999 V2000
    9.0620   -2.5260    1.5830 C   0  0  0  0  0  0  0  0  0  0  0  0
    7.7090   -2.3380    0.9400 C   0  0  0  0  0  0  0  0  0  0  0  0
    7.7990   -2.0850   -0.5510 C   0  0  0  0  0  0  0  0  0  0  0  0
    6.3520   -1.9230   -1.0260 C   0  0  0  0  0  0  0  0  0  0  0  0
    5.7540   -0.8420   -0.3640 O   0  0  0  0  0  0  0  0  0  0  0  0
    4.4680   -0.4010   -0.5300 C   0  0  0  0  0  0  0  0  0  0  0  0
    3.5750   -0.9890   -1.4000 C   0  0  0  0  0  0  0  0  0  0  0  0
    2.2770   -0.4930   -1.5230 C   0  0  0  0  0  0  0  0  0  0  0  0
    1.8660    0.5910   -0.7800 C   0  0  0  0  0  0  0  0  0  0  0  0
    0.4850    1.1460   -0.8800 C   0  0  0  0  0  0  0  0  0  0  0  0
   -0.4350    0.4960    0.1200 C   0  0  0  0  0  0  0  0  0  0  0  0
   -1.8270    1.0660   -0.0590 C   0  0  0  0  0  0  0  0  0  0  0  0
   -2.7930    0.2730   -0.4830 C   0  0  0  0  0  0  0  0  0  0  0  0
   -2.6260   -1.1250   -0.8020 C   0  0  0  0  0  0  0  0  0  0  0  0
   -1.6620   -1.6190   -1.6260 C   0  0  0  0  0  0  0  0  0  0  0  0
   -1.5650   -2.9940   -1.8570 C   0  0  0  0  0  0  0  0  0  0  0  0
   -2.4500   -3.8630   -1.2480 C   0  0  0  0  0  0  0  0  0  0  0  0
   -3.4270   -3.3710   -0.4140 C   0  0  0  0  0  0  0  0  0  0  0  0
   -3.5200   -2.0090   -0.1880 C   0  0  0  0  0  0  0  0  0  0  0  0
   -4.4170   -4.2410    0.2760 C   0  0  2  0  0  0  0  0  0  0  0  0
   -4.0480   -4.3770    1.6160 O   0  0  0  0  0  0  0  0  0  0  0  0
   -4.5520   -5.5770   -0.3820 C   0  0  0  0  0  0  0  0  0  0  0  0
   -3.2960   -6.1390   -0.8130 N   0  0  0  0  0  0  0  0  0  0  0  0
   -2.3640   -5.2970   -1.4700 C   0  0  0  0  0  0  0  0  0  0  0  0
   -1.4760   -5.7700   -2.2300 O   0  0  0  0  0  0  0  0  0  0  0  0
   -2.0070    2.4580    0.2580 C   0  0  0  0  0  0  0  0  0  0  0  0
   -0.9340    3.0500    0.6970 O   0  0  0  0  0  0  0  0  0  0  0  0
   -3.1190    3.2600    0.1740 N   0  0  0  0  0  0  0  0  0  0  0  0
   -4.4600    3.0080   -0.2710 C   0  0  0  0  0  0  0  0  0  0  0  0
   -5.2730    4.3110   -0.2660 C   0  0  0  0  0  0  0  0  0  0  0  0
   -5.2600    4.9820    0.9930 N   0  0  0  0  0  0  0  0  0  0  0  0
   -5.5540    6.4000    0.8750 C   0  0  0  0  0  0  0  0  0  0  0  0
   -4.0090    4.8240    1.7110 C   0  0  0  0  0  0  0  0  0  0  0  0
   -2.9350    4.6820    0.6350 C   0  0  0  0  0  0  0  0  0  0  0  0
    2.7850    1.1510    0.0760 C   0  0  0  0  0  0  0  0  0  0  0  0
    4.0750    0.6900    0.2270 C   0  0  0  0  0  0  0  0  0  0  0  0
    4.9540    1.3090    1.1170 O   0  0  0  0  0  0  0  0  0  0  0  0
    4.4720    2.4160    1.8500 C   0  0  0  0  0  0  0  0  0  0  0  0
  1  2  1  0
  2  3  1  0
  3  4  1  0
  4  5  1  0
  5  6  1  0
  6  7  2  0
  6 36  1  0
  7  8  1  0
  8  9  2  0
  9 10  1  0
  9 35  1  0
 10 11  1  0
 11 12  1  0
 12 13  2  3
 12 26  1  0
 13 14  1  0
 14 15  2  0
 14 19  1  0
 15 16  1  0
 16 17  2  0
 17 18  1  0
 17 24  1  0
 18 19  2  0
 18 20  1  0
 20 21  1  1
 20 22  1  0
 22 23  1  0
 23 24  1  0
 24 25  2  0
 26 27  2  0
 26 28  1  0
 28 29  1  0
 28 34  1  0
 29 30  1  0
 30 31  1  0
 31 32  1  0
 31 33  1  0
 33 34  1  0
 35 36  2  0
 36 37  1  0
 37 38  1  0
M  END
