
     RDKit          3D

 38 40  0  0  0  0  0  0  0  0999 V2000
    2.0290    7.3190   -1.6790 C   0  0  0  0  0  0  0  0  0  0  0  0
    2.2460    5.8590   -1.2720 C   0  0  0  0  0  0  0  0  0  0  0  0
    2.0720    5.7670    0.0740 O   0  0  0  0  0  0  0  0  0  0  0  0
    2.2380    4.5240    0.5850 C   0  0  0  0  0  0  0  0  0  0  0  0
    1.3170    3.4780    0.1450 C   0  0  0  0  0  0  0  0  0  0  0  0
    0.3690    3.6910   -0.6430 O   0  0  0  0  0  0  0  0  0  0  0  0
    1.4290    2.1450    0.5780 O   0  0  0  0  0  0  0  0  0  0  0  0
    0.4810    1.1530    0.1020 C   0  0  2  0  0  0  0  0  0  0  0  0
   -0.1140    0.5140    1.2890 C   0  0  0  0  0  0  0  0  0  0  0  0
    0.3680    0.7440    2.4580 O   0  0  0  0  0  0  0  0  0  0  0  0
   -1.2190   -0.3710    1.2380 N   0  0  0  0  0  0  0  0  0  0  0  0
   -1.6360   -1.0180    2.4470 C   0  0  0  0  0  0  0  0  0  0  0  0
   -0.9550   -2.2520    2.8640 C   0  0  0  0  0  0  0  0  0  0  0  0
   -0.9860   -3.4340    2.0390 C   0  0  0  0  0  0  0  0  0  0  0  0
   -1.5930   -3.5940    0.9800 O   0  0  0  0  0  0  0  0  0  0  0  0
   -0.2000   -4.5660    2.5330 N   0  0  0  0  0  0  0  0  0  0  0  0
   -0.1780   -5.7910    1.7650 C   0  0  0  0  0  0  0  0  0  0  0  0
   -1.9770   -0.4840    0.0310 C   0  0  0  0  0  0  0  0  0  0  0  0
   -3.1370    0.5060    0.1650 C   0  0  2  0  0  0  0  0  0  0  0  0
   -3.9830    0.4640   -1.1150 C   0  0  0  0  0  0  0  0  0  0  0  0
   -5.3250    1.0520   -0.7380 C   0  0  2  0  0  0  0  0  0  0  0  0
   -6.1940    1.2930   -1.9490 C   0  0  0  0  0  0  0  0  0  0  0  0
   -5.0620    2.3150    0.0410 C   0  0  0  0  0  0  0  0  0  0  0  0
   -3.6260    2.7520   -0.0410 C   0  0  0  0  0  0  0  0  0  0  0  0
   -2.7270    1.7910    0.3380 O   0  0  0  0  0  0  0  0  0  0  0  0
    1.3990    0.1110   -0.4990 C   0  0  0  0  0  0  0  0  0  0  0  0
    2.4350   -0.2950    0.3400 C   0  0  0  0  0  0  0  0  0  0  0  0
    3.3340   -1.2310   -0.1320 C   0  0  0  0  0  0  0  0  0  0  0  0
    3.2610   -1.7840   -1.3890 C   0  0  0  0  0  0  0  0  0  0  0  0
    4.1890   -2.7740   -1.9010 C   0  0  0  0  0  0  0  0  0  0  0  0
    4.6410   -3.7900   -1.2310 C   0  0  0  0  0  0  0  0  0  0  0  0
    5.8080   -5.0580   -1.8300 S   0  0  0  0  0  0  0  0  0  0  0  0
    6.0230   -5.8830   -0.1980 C   0  0  0  0  0  0  0  0  0  0  0  0
    5.4690   -4.8960    0.6520 O   0  0  0  0  0  0  0  0  0  0  0  0
    4.3860   -4.2570    0.1280 C   0  0  0  0  0  0  0  0  0  0  0  0
    3.2840   -4.0790    0.7250 O   0  0  0  0  0  0  0  0  0  0  0  0
    2.1980   -1.3300   -2.1770 C   0  0  0  0  0  0  0  0  0  0  0  0
    1.2820   -0.4010   -1.7450 C   0  0  0  0  0  0  0  0  0  0  0  0
  1  2  1  0
  2  3  1  0
  3  4  1  0
  4  5  1  0
  5  6  2  0
  5  7  1  0
  8  7  1  1
  8  9  1  0
  8 26  1  0
  9 10  2  0
  9 11  1  0
 11 12  1  0
 11 18  1  0
 12 13  1  0
 13 14  1  0
 14 15  2  0
 14 16  1  0
 16 17  1  0
 19 18  1  6
 19 20  1  0
 19 25  1  0
 20 21  1  0
 21 22  1  6
 21 23  1  0
 23 24  1  0
 24 25  1  0
 26 27  2  0
 26 38  1  0
 27 28  1  0
 28 29  2  0
 29 30  1  0
 29 37  1  0
 30 31  2  3
 31 32  1  0
 31 35  1  0
 32 33  1  0
 33 34  1  0
 34 35  1  0
 35 36  2  0
 37 38  2  0
M  END
