
     RDKit          3D

 38 40  0  0  0  0  0  0  0  0999 V2000
    8.8800   -1.3380   -0.9270 C   0  0  0  0  0  0  0  0  0  0  0  0
    8.2900   -1.3860    0.4700 C   0  0  0  0  0  0  0  0  0  0  0  0
    7.3980   -0.2150    0.6640 C   0  0  0  0  0  0  0  0  0  0  0  0
    7.8850    0.9850    1.1590 C   0  0  0  0  0  0  0  0  0  0  0  0
    7.0830    2.0400    1.3340 N   0  0  0  0  0  0  0  0  0  0  0  0
    5.7710    1.9040    1.0120 C   0  0  0  0  0  0  0  0  0  0  0  0
    5.0540    2.9250    1.1920 O   0  0  0  0  0  0  0  0  0  0  0  0
    5.2080    0.7580    0.5190 C   0  0  0  0  0  0  0  0  0  0  0  0
    3.8170    0.5840    0.1660 C   0  0  0  0  0  0  0  0  0  0  0  0
    3.4780   -0.5550   -0.3000 O   0  0  0  0  0  0  0  0  0  0  0  0
    2.7860    1.5190    0.2710 N   0  0  0  0  0  0  0  0  0  0  0  0
    1.4080    1.2500   -0.1190 C   0  0  0  0  0  0  0  0  0  0  0  0
    1.2720    0.8890   -1.5480 C   0  0  0  0  0  0  0  0  0  0  0  0
   -0.1530    0.6240   -1.9050 C   0  0  0  0  0  0  0  0  0  0  0  0
   -0.7960   -0.5120   -1.2120 C   0  0  0  0  0  0  0  0  0  0  0  0
   -0.1390   -1.4950   -0.5280 C   0  0  0  0  0  0  0  0  0  0  0  0
   -0.7970   -2.5420    0.0710 C   0  0  0  0  0  0  0  0  0  0  0  0
   -0.0680   -3.5970    0.8110 C   0  0  0  0  0  0  0  0  0  0  0  0
   -2.1900   -2.6210   -0.0120 C   0  0  0  0  0  0  0  0  0  0  0  0
   -2.7700   -3.7100    0.5950 O   0  0  0  0  0  0  0  0  0  0  0  0
   -2.9830   -4.9180   -0.1070 C   0  0  0  0  0  0  0  0  0  0  0  0
   -2.8660   -1.6460   -0.6880 C   0  0  0  0  0  0  0  0  0  0  0  0
   -4.3070   -1.5810   -0.7280 C   0  0  0  0  0  0  0  0  0  0  0  0
   -5.1970   -1.7790    0.1650 C   0  0  0  0  0  0  0  0  0  0  0  0
   -5.1230   -2.1200    1.5460 C   0  0  0  0  0  0  0  0  0  0  0  0
   -6.4010   -2.3360    2.2430 N   0  0  0  0  0  0  0  0  0  0  0  0
   -4.1220   -2.2570    2.2760 O   0  0  0  0  0  0  0  0  0  0  0  0
   -2.1570   -0.5800   -1.2950 C   0  0  0  0  0  0  0  0  0  0  0  0
   -2.9270    0.3590   -1.9580 O   0  0  0  0  0  0  0  0  0  0  0  0
   -3.4370    1.4480   -1.2620 C   0  0  0  0  0  0  0  0  0  0  0  0
   -3.3210    1.6000    0.1030 C   0  0  0  0  0  0  0  0  0  0  0  0
   -3.8380    2.6990    0.7750 C   0  0  0  0  0  0  0  0  0  0  0  0
   -3.7150    2.8580    2.2550 C   0  0  0  0  0  0  0  0  0  0  0  0
   -4.4820    3.6580    0.0520 C   0  0  0  0  0  0  0  0  0  0  0  0
   -4.6320    3.5660   -1.3230 C   0  0  0  0  0  0  0  0  0  0  0  0
   -5.3340    4.6430   -2.0530 C   0  0  0  0  0  0  0  0  0  0  0  0
   -4.1030    2.4580   -1.9490 C   0  0  0  0  0  0  0  0  0  0  0  0
    6.0690   -0.3400    0.3420 C   0  0  0  0  0  0  0  0  0  0  0  0
  1  2  1  0
  2  3  1  0
  3  4  2  0
  3 38  1  0
  4  5  1  0
  5  6  1  0
  6  7  2  0
  6  8  1  0
  8  9  1  0
  8 38  2  0
  9 10  2  0
  9 11  1  0
 11 12  1  0
 12 13  1  0
 13 14  1  0
 14 15  1  0
 15 16  2  0
 15 28  1  0
 16 17  1  0
 17 18  1  0
 17 19  2  0
 19 20  1  0
 19 22  1  0
 20 21  1  0
 22 23  1  0
 22 28  2  0
 23 24  2  3
 24 25  1  0
 25 26  1  0
 25 27  2  0
 28 29  1  0
 29 30  1  0
 30 31  2  0
 30 37  1  0
 31 32  1  0
 32 33  1  0
 32 34  2  0
 34 35  1  0
 35 36  1  0
 35 37  2  0
M  END
