
     RDKit          3D

 38 40  0  0  0  0  0  0  0  0999 V2000
    7.0400    3.0500    2.4100 C   0  0  0  0  0  0  0  0  0  0  0  0
    6.5680    1.7520    1.7970 C   0  0  0  0  0  0  0  0  0  0  0  0
    7.0020    1.5610    0.4570 N   0  0  0  0  0  0  0  0  0  0  0  0
    6.4610    2.4260   -0.5340 C   0  0  0  0  0  0  0  0  0  0  0  0
    4.9990    2.1540   -0.7340 C   0  0  1  0  0  0  0  0  0  0  0  0
    4.3900    3.0450   -1.7960 C   0  0  0  0  0  0  0  0  0  0  0  0
    4.8080    0.7440   -1.1520 C   0  0  0  0  0  0  0  0  0  0  0  0
    4.2920    0.4670   -2.2650 O   0  0  0  0  0  0  0  0  0  0  0  0
    5.1970   -0.3150   -0.3150 O   0  0  0  0  0  0  0  0  0  0  0  0
    4.9850   -1.6190   -0.7680 C   0  0  0  0  0  0  0  0  0  0  0  0
    3.5400   -1.8520   -1.0170 C   0  0  0  0  0  0  0  0  0  0  0  0
    3.1710   -3.0070   -1.3980 O   0  0  0  0  0  0  0  0  0  0  0  0
    2.5480   -0.9090   -0.8670 O   0  0  0  0  0  0  0  0  0  0  0  0
    1.2070   -1.1590   -1.1030 C   0  0  0  0  0  0  0  0  0  0  0  0
    0.6210   -1.1550   -2.3410 C   0  0  0  0  0  0  0  0  0  0  0  0
   -0.7470   -1.4150   -2.5230 C   0  0  0  0  0  0  0  0  0  0  0  0
   -1.5790   -1.6880   -1.4650 C   0  0  0  0  0  0  0  0  0  0  0  0
   -2.9690   -1.9580   -1.5570 N   0  0  0  0  0  0  0  0  0  0  0  0
   -3.7380   -2.0240   -2.7390 C   0  0  0  0  0  0  0  0  0  0  0  0
   -3.2080   -1.8390   -3.8580 O   0  0  0  0  0  0  0  0  0  0  0  0
   -5.1810   -2.3200   -2.5940 C   0  0  0  0  0  0  0  0  0  0  0  0
   -5.8030   -2.4450   -3.8100 O   0  0  0  0  0  0  0  0  0  0  0  0
   -5.3830   -3.4740   -4.6000 C   0  0  0  0  0  0  0  0  0  0  0  0
   -0.9630   -1.6880   -0.2060 C   0  0  0  0  0  0  0  0  0  0  0  0
   -2.0220   -2.0320    1.2100 S   0  0  0  0  0  0  0  0  0  0  0  0
   -2.7320   -0.4910    1.8230 C   0  0  0  0  0  0  0  0  0  0  0  0
   -2.4370    0.7240    1.2300 C   0  0  0  0  0  0  0  0  0  0  0  0
   -2.9700    1.9150    1.6720 C   0  0  0  0  0  0  0  0  0  0  0  0
   -2.6790    3.1420    1.0840 O   0  0  0  0  0  0  0  0  0  0  0  0
   -1.7830    3.1210   -0.0260 C   0  0  0  0  0  0  0  0  0  0  0  0
   -3.8360    1.8770    2.7560 C   0  0  0  0  0  0  0  0  0  0  0  0
   -4.1350    0.6640    3.3530 C   0  0  0  0  0  0  0  0  0  0  0  0
   -3.5910   -0.5300    2.8990 C   0  0  0  0  0  0  0  0  0  0  0  0
   -4.1380   -1.5880    3.7860 C   0  0  0  0  0  0  0  0  0  0  0  0
   -5.4410   -0.9170    4.2370 C   0  0  2  0  0  0  0  0  0  0  0  0
   -6.3590   -0.8880    3.0430 C   0  0  0  0  0  0  0  0  0  0  0  0
   -4.9730    0.4080    4.4410 O   0  0  0  0  0  0  0  0  0  0  0  0
    0.3760   -1.4320   -0.0410 C   0  0  0  0  0  0  0  0  0  0  0  0
  1  2  1  0
  2  3  1  0
  3  4  1  0
  4  5  1  0
  5  6  1  6
  5  7  1  0
  7  8  2  0
  7  9  1  0
  9 10  1  0
 10 11  1  0
 11 12  2  0
 11 13  1  0
 13 14  1  0
 14 15  2  0
 14 38  1  0
 15 16  1  0
 16 17  2  0
 17 18  1  0
 17 24  1  0
 18 19  1  0
 19 20  2  0
 19 21  1  0
 21 22  1  0
 22 23  1  0
 24 25  1  0
 24 38  2  0
 25 26  1  0
 26 27  2  0
 26 33  1  0
 27 28  1  0
 28 29  1  0
 28 31  2  0
 29 30  1  0
 31 32  1  0
 32 33  2  0
 32 37  1  0
 33 34  1  0
 34 35  1  0
 35 36  1  6
 35 37  1  0
M  END
