
     RDKit          3D

 30 33  0  0  0  0  0  0  0  0999 V2000
   -8.2070   -0.2430   -1.3550 C   0  0  0  0  0  0  0  0  0  0  0  0
   -7.6460    0.1740   -0.0480 C   0  0  0  0  0  0  0  0  0  0  0  0
   -8.3530    0.7690    0.7980 O   0  0  0  0  0  0  0  0  0  0  0  0
   -6.2570   -0.1130    0.2530 C   0  0  0  0  0  0  0  0  0  0  0  0
   -5.4230   -0.7610   -0.6330 C   0  0  0  0  0  0  0  0  0  0  0  0
   -4.1020   -1.0160   -0.3180 C   0  0  0  0  0  0  0  0  0  0  0  0
   -3.5680   -0.6360    0.8830 C   0  0  0  0  0  0  0  0  0  0  0  0
   -2.1420   -0.8740    1.2450 C   0  0  0  0  0  0  0  0  0  0  0  0
   -1.3610    0.3280    1.0140 N   0  0  0  0  0  0  0  0  0  0  0  0
   -1.7610    1.5310    1.7350 C   0  0  0  0  0  0  0  0  0  0  0  0
   -0.2480    0.4200    0.1540 C   0  0  0  0  0  0  0  0  0  0  0  0
   -0.4600    0.2840   -1.2000 C   0  0  0  0  0  0  0  0  0  0  0  0
    0.6320    0.3960   -2.0480 C   0  0  0  0  0  0  0  0  0  0  0  0
    1.9010    0.6390   -1.5340 C   0  0  0  0  0  0  0  0  0  0  0  0
    2.1180    0.7770   -0.1820 C   0  0  0  0  0  0  0  0  0  0  0  0
    3.4410    1.0350    0.2960 N   0  0  0  0  0  0  0  0  0  0  0  0
    3.8410    2.1210    0.9760 N   0  0  0  0  0  0  0  0  0  0  0  0
    5.1510    2.0420    1.2690 C   0  0  0  0  0  0  0  0  0  0  0  0
    5.6330    0.8540    0.7600 C   0  0  0  0  0  0  0  0  0  0  0  0
    6.8570    0.2140    0.7310 C   0  0  0  0  0  0  0  0  0  0  0  0
    7.8530    0.7460    1.2690 O   0  0  0  0  0  0  0  0  0  0  0  0
    7.0260   -0.9880    0.1330 N   0  0  0  0  0  0  0  0  0  0  0  0
    8.3170   -1.6710    0.0990 C   0  0  0  0  0  0  0  0  0  0  0  0
    5.9580   -1.5290   -0.4290 N   0  0  0  0  0  0  0  0  0  0  0  0
    4.7360   -0.9660   -0.4400 C   0  0  0  0  0  0  0  0  0  0  0  0
    3.7370   -1.5030   -0.9820 O   0  0  0  0  0  0  0  0  0  0  0  0
    4.5300    0.2720    0.1680 C   0  0  0  0  0  0  0  0  0  0  0  0
    1.0400    0.6640    0.6440 C   0  0  0  0  0  0  0  0  0  0  0  0
   -4.3820    0.0120    1.7810 C   0  0  0  0  0  0  0  0  0  0  0  0
   -5.7080    0.2690    1.4690 C   0  0  0  0  0  0  0  0  0  0  0  0
  1  2  1  0
  2  3  2  0
  2  4  1  0
  4  5  2  0
  4 30  1  0
  5  6  1  0
  6  7  2  0
  7  8  1  0
  7 29  1  0
  8  9  1  0
  9 10  1  0
  9 11  1  0
 11 12  2  0
 11 28  1  0
 12 13  1  0
 13 14  2  0
 14 15  1  0
 15 16  1  0
 15 28  2  0
 16 17  1  0
 16 27  1  0
 17 18  2  0
 18 19  1  0
 19 20  1  0
 19 27  2  0
 20 21  2  0
 20 22  1  0
 22 23  1  0
 22 24  1  0
 24 25  1  0
 25 26  2  0
 25 27  1  0
 29 30  2  0
M  END
