
     RDKit          3D

 30 33  0  0  0  0  0  0  0  0999 V2000
    1.3130   -1.2950   -2.1450 C   0  0  0  0  0  0  0  0  0  0  0  0
    1.5420   -0.5510   -0.9170 C   0  0  0  0  0  0  0  0  0  0  0  0
    2.7760   -0.3430   -0.6070 N   0  0  0  0  0  0  0  0  0  0  0  0
    3.3460    0.3540    0.5330 C   0  0  0  0  0  0  0  0  0  0  0  0
    4.5880    0.7850    0.3690 C   0  0  0  0  0  0  0  0  0  0  0  0
    5.3600    1.5030    1.3560 C   0  0  0  0  0  0  0  0  0  0  0  0
    6.6130    1.9130    1.1800 C   0  0  0  0  0  0  0  0  0  0  0  0
    7.2810    1.6420   -0.0740 C   0  0  0  0  0  0  0  0  0  0  0  0
    6.6240    0.9960   -1.0090 C   0  0  0  0  0  0  0  0  0  0  0  0
    5.2630    0.4950   -0.9590 C   0  0  0  0  0  0  0  0  0  0  0  0
    2.6610    0.5970    1.8010 C   0  0  0  0  0  0  0  0  0  0  0  0
    1.5180    1.5710    1.5410 C   0  0  0  0  0  0  0  0  0  0  0  0
    0.3930    0.8460    0.8890 C   0  0  0  0  0  0  0  0  0  0  0  0
   -0.7420    1.1220    1.3290 O   0  0  0  0  0  0  0  0  0  0  0  0
    0.4220   -0.1140   -0.1580 N   0  0  0  0  0  0  0  0  0  0  0  0
   -0.8340   -0.7330   -0.4990 C   0  0  0  0  0  0  0  0  0  0  0  0
   -1.0620   -1.9880    0.3050 C   0  0  0  0  0  0  0  0  0  0  0  0
   -2.3030   -2.6820    0.0070 C   0  0  0  0  0  0  0  0  0  0  0  0
   -2.3920   -3.8170   -0.7260 N   0  0  0  0  0  0  0  0  0  0  0  0
   -3.6630   -4.1940   -0.7980 N   0  0  0  0  0  0  0  0  0  0  0  0
   -4.4190   -3.3230   -0.1220 C   0  0  0  0  0  0  0  0  0  0  0  0
   -3.5680   -2.3460    0.4020 C   0  0  0  0  0  0  0  0  0  0  0  0
   -4.0360   -1.2240    1.1920 C   0  0  0  0  0  0  0  0  0  0  0  0
   -4.0750   -1.2990    2.4500 O   0  0  0  0  0  0  0  0  0  0  0  0
   -4.4560   -0.0270    0.5180 N   0  0  0  0  0  0  0  0  0  0  0  0
   -4.4140    0.0640   -0.9250 C   0  0  0  0  0  0  0  0  0  0  0  0
   -3.9720    1.4230   -1.4000 C   0  0  0  0  0  0  0  0  0  0  0  0
   -4.5210    2.4550   -0.6530 O   0  0  0  0  0  0  0  0  0  0  0  0
   -4.2360    2.3420    0.6990 C   0  0  0  0  0  0  0  0  0  0  0  0
   -4.9460    1.1260    1.2420 C   0  0  0  0  0  0  0  0  0  0  0  0
  1  2  1  0
  2  3  2  0
  2 15  1  0
  3  4  1  0
  4  5  2  3
  4 11  1  0
  5  6  1  0
  5 10  1  0
  6  7  2  0
  7  8  1  0
  8  9  2  0
  9 10  1  0
 11 12  1  0
 12 13  1  0
 13 14  2  0
 13 15  1  0
 15 16  1  0
 16 17  1  0
 17 18  1  0
 18 19  1  0
 18 22  2  0
 19 20  1  0
 20 21  2  0
 21 22  1  0
 22 23  1  0
 23 24  2  0
 23 25  1  0
 25 26  1  0
 25 30  1  0
 26 27  1  0
 27 28  1  0
 28 29  1  0
 29 30  1  0
M  END
