
     RDKit          3D

 30 33  0  0  0  0  0  0  0  0999 V2000
   -6.6300    2.9910   -0.7220 N   0  0  0  0  0  0  0  0  0  0  0  0
   -6.1580    1.8590    0.0670 C   0  0  0  0  0  0  0  0  0  0  0  0
   -5.5680    0.8080   -0.7930 C   0  0  0  0  0  0  0  0  0  0  0  0
   -6.3820    0.1190   -1.6530 C   0  0  0  0  0  0  0  0  0  0  0  0
   -5.9310   -0.8930   -2.4510 C   0  0  0  0  0  0  0  0  0  0  0  0
   -4.5640   -1.2560   -2.3940 C   0  0  0  0  0  0  0  0  0  0  0  0
   -3.7460   -0.5850   -1.5470 C   0  0  0  0  0  0  0  0  0  0  0  0
   -2.2880   -0.9290   -1.3860 C   0  0  1  0  0  0  0  0  0  0  0  0
   -2.2030   -2.2000   -0.5660 C   0  0  0  0  0  0  0  0  0  0  0  0
   -0.7360   -2.4940   -0.2460 C   0  0  0  0  0  0  0  0  0  0  0  0
    0.0340   -2.1360   -1.4500 N   0  0  0  0  0  0  0  0  0  0  0  0
    1.3330   -1.6380   -1.3950 C   0  0  0  0  0  0  0  0  0  0  0  0
    1.8790   -1.2130   -2.4410 O   0  0  0  0  0  0  0  0  0  0  0  0
    2.1010   -1.5720   -0.1450 C   0  0  0  0  0  0  0  0  0  0  0  0
    1.9280   -2.3330    1.0480 C   0  0  0  0  0  0  0  0  0  0  0  0
    2.8890   -1.8330    1.9070 C   0  0  0  0  0  0  0  0  0  0  0  0
    3.5630   -0.8830    1.3250 C   0  0  0  0  0  0  0  0  0  0  0  0
    4.5990   -0.0530    1.7260 C   0  0  0  0  0  0  0  0  0  0  0  0
    5.7180    0.8630    2.1410 C   0  0  0  0  0  0  0  0  0  0  0  0
    6.6290    1.6190    2.4610 C   0  0  0  0  0  0  0  0  0  0  0  0
    6.7940    2.2010    3.7700 C   0  0  0  0  0  0  0  0  0  0  0  0
    7.7680    3.0160    4.1460 C   0  0  0  0  0  0  0  0  0  0  0  0
    8.7710    3.4080    3.2560 C   0  0  0  0  0  0  0  0  0  0  0  0
    8.6600    2.8780    1.9740 C   0  0  0  0  0  0  0  0  0  0  0  0
    7.6780    2.0530    1.5970 C   0  0  0  0  0  0  0  0  0  0  0  0
    7.5750    1.5440    0.3340 F   0  0  0  0  0  0  0  0  0  0  0  0
    3.0810   -0.7150    0.0430 O   0  0  0  0  0  0  0  0  0  0  0  0
   -0.7120   -2.3630   -2.6760 C   0  0  0  0  0  0  0  0  0  0  0  0
   -1.6900   -1.2010   -2.7530 C   0  0  0  0  0  0  0  0  0  0  0  0
   -4.2110    0.4580   -0.7200 C   0  0  0  0  0  0  0  0  0  0  0  0
  1  2  1  0
  2  3  1  0
  3  4  2  0
  3 30  1  0
  4  5  1  0
  5  6  2  0
  6  7  1  0
  8  7  1  6
  7 30  2  0
  8  9  1  0
  8 29  1  0
  9 10  1  0
 10 11  1  0
 11 12  1  0
 11 28  1  0
 12 13  2  0
 12 14  1  0
 14 15  2  0
 14 27  1  0
 15 16  1  0
 16 17  2  0
 17 18  1  0
 17 27  1  0
 18 19  3  0
 19 20  1  0
 20 21  2  0
 20 25  1  0
 21 22  1  0
 22 23  2  0
 23 24  1  0
 24 25  2  0
 25 26  1  0
 28 29  1  0
M  CHG  1   1   1
M  END
