
     RDKit          3D

 31 34  0  0  0  0  0  0  0  0999 V2000
   -4.6510    0.3480    4.5090 C   0  0  0  0  0  0  0  0  0  0  0  0
   -4.9650    0.4300    3.0650 C   0  0  0  0  0  0  0  0  0  0  0  0
   -6.2710    0.6470    2.6910 C   0  0  0  0  0  0  0  0  0  0  0  0
   -6.5700    0.7230    1.3950 N   0  0  0  0  0  0  0  0  0  0  0  0
   -5.6600    0.5990    0.4080 C   0  0  0  0  0  0  0  0  0  0  0  0
   -4.3570    0.3830    0.7550 C   0  0  0  0  0  0  0  0  0  0  0  0
   -3.9950    0.2970    2.0740 C   0  0  0  0  0  0  0  0  0  0  0  0
   -3.3370    0.2450   -0.2910 C   0  0  2  0  0  0  0  0  0  0  0  0
   -2.0140    0.5560    0.1380 N   0  0  0  0  0  0  0  0  0  0  0  0
   -0.9440   -0.3600    0.0560 C   0  0  0  0  0  0  0  0  0  0  0  0
   -1.1940   -1.4960   -0.4220 O   0  0  0  0  0  0  0  0  0  0  0  0
    0.3750   -0.1080    0.4650 N   0  0  0  0  0  0  0  0  0  0  0  0
    1.4370   -1.0850    0.3590 C   0  0  0  0  0  0  0  0  0  0  0  0
    2.7470   -0.4780    0.9100 C   0  0  0  0  0  0  0  0  0  0  0  0
    3.8140   -1.4570    0.7830 C   0  0  0  0  0  0  0  0  0  0  0  0
    4.0440   -2.2970    1.8480 N   0  0  0  0  0  0  0  0  0  0  0  0
    4.9450   -3.2840    1.7390 C   0  0  0  0  0  0  0  0  0  0  0  0
    5.6380   -3.4790    0.6080 N   0  0  0  0  0  0  0  0  0  0  0  0
    5.4380   -2.6660   -0.4640 C   0  0  0  0  0  0  0  0  0  0  0  0
    6.1450   -2.8560   -1.6340 O   0  0  0  0  0  0  0  0  0  0  0  0
    4.5060   -1.6320   -0.3710 C   0  0  0  0  0  0  0  0  0  0  0  0
    4.4040   -0.7190   -1.4900 C   0  0  0  0  0  0  0  0  0  0  0  0
    5.3830    0.4170   -1.3360 C   0  0  0  0  0  0  0  0  0  0  0  0
    6.3000    0.7800   -2.2470 C   0  0  0  0  0  0  0  0  0  0  0  0
    7.0960    1.9350   -1.7670 C   0  0  0  0  0  0  0  0  0  0  0  0
    6.5300    2.1920   -0.4460 C   0  0  0  0  0  0  0  0  0  0  0  0
    5.5570    1.3190   -0.2210 C   0  0  0  0  0  0  0  0  0  0  0  0
   -3.8020    1.1200   -1.4620 C   0  0  0  0  0  0  0  0  0  0  0  0
   -5.0530    0.4640   -1.9940 C   0  0  2  0  0  0  0  0  0  0  0  0
   -5.4400    0.8970   -3.3670 C   0  0  0  0  0  0  0  0  0  0  0  0
   -6.1490    0.7060   -0.9830 C   0  0  0  0  0  0  0  0  0  0  0  0
  1  2  1  0
  2  3  2  0
  2  7  1  0
  3  4  1  0
  4  5  2  0
  5  6  1  0
  5 31  1  0
  6  7  2  0
  6  8  1  0
  8  9  1  1
  8 28  1  0
  9 10  1  0
 10 11  2  0
 10 12  1  0
 12 13  1  0
 13 14  1  0
 14 15  1  0
 15 16  2  0
 15 21  1  0
 16 17  1  0
 17 18  2  0
 18 19  1  0
 19 20  1  0
 19 21  2  0
 21 22  1  0
 22 23  1  0
 23 24  2  0
 23 27  1  0
 24 25  1  0
 25 26  1  0
 26 27  2  0
 28 29  1  0
 29 30  1  6
 29 31  1  0
M  END
