
     RDKit          3D

 22 24  0  0  0  0  0  0  0  0999 V2000
   -7.2320    0.1980   -0.6620 O   0  0  0  0  0  0  0  0  0  0  0  0
   -6.3240    0.3940    0.3480 C   0  0  0  0  0  0  0  0  0  0  0  0
   -4.9400   -0.0950   -0.0280 C   0  0  1  0  0  0  0  0  0  0  0  0
   -4.3360    0.6940   -1.1530 C   0  0  0  0  0  0  0  0  0  0  0  0
   -2.8390    0.5380   -0.9080 C   0  0  0  0  0  0  0  0  0  0  0  0
   -2.8130   -0.1320    0.4250 C   0  0  1  0  0  0  0  0  0  0  0  0
   -1.6480    0.3290    1.2260 C   0  0  0  0  0  0  0  0  0  0  0  0
   -0.3650   -0.0110    0.4920 C   0  0  1  0  0  0  0  0  0  0  0  0
   -0.2910    0.5840   -0.7410 O   0  0  0  0  0  0  0  0  0  0  0  0
    0.7720    0.4630    1.3750 C   0  0  1  0  0  0  0  0  0  0  0  0
    0.6340   -0.1790    2.6050 O   0  0  0  0  0  0  0  0  0  0  0  0
    2.0880    0.2440    0.8470 C   0  0  0  0  0  0  0  0  0  0  0  0
    2.9010   -0.8300    0.7250 C   0  0  0  0  0  0  0  0  0  0  0  0
    4.1130   -0.7200    0.1710 C   0  0  0  0  0  0  0  0  0  0  0  0
    5.0610   -1.7450   -0.0210 C   0  0  0  0  0  0  0  0  0  0  0  0
    6.2600   -1.5070   -0.5970 C   0  0  0  0  0  0  0  0  0  0  0  0
    6.6620   -0.2930   -1.0370 C   0  0  0  0  0  0  0  0  0  0  0  0
    7.8930   -0.1150   -1.6140 O   0  0  0  0  0  0  0  0  0  0  0  0
    5.7560    0.7570   -0.8690 C   0  0  0  0  0  0  0  0  0  0  0  0
    4.5320    0.5100   -0.2800 C   0  0  0  0  0  0  0  0  0  0  0  0
    3.1370    1.5730    0.0990 S   0  0  0  0  0  0  0  0  0  0  0  0
   -4.0480    0.1210    1.0220 O   0  0  0  0  0  0  0  0  0  0  0  0
  1  2  1  0
  3  2  1  1
  3  4  1  0
  3 22  1  0
  4  5  1  0
  5  6  1  0
  6  7  1  1
  6 22  1  0
  7  8  1  0
  8  9  1  6
  8 10  1  0
 10 11  1  1
 10 12  1  0
 12 13  2  0
 12 21  1  0
 13 14  1  0
 14 15  2  0
 14 20  1  0
 15 16  1  0
 16 17  2  0
 17 18  1  0
 17 19  1  0
 19 20  2  0
 20 21  1  0
M  END
