
     RDKit          3D

 22 23  0  0  0  0  0  0  0  0999 V2000
    3.0970    2.6140   -0.2880 C   0  0  0  0  0  0  0  0  0  0  0  0
    3.0530    1.3000   -0.7640 O   0  0  0  0  0  0  0  0  0  0  0  0
    3.9200    0.2880   -0.3190 C   0  0  0  0  0  0  0  0  0  0  0  0
    5.0670    0.6120    0.2140 C   0  0  0  0  0  0  0  0  0  0  0  0
    6.1210   -0.2660    0.7440 C   0  0  0  0  0  0  0  0  0  0  0  0
    5.7140   -2.0000    0.6090 S   0  0  0  0  0  0  0  0  0  0  0  0
    4.1180   -2.1360   -0.1430 C   0  0  0  0  0  0  0  0  0  0  0  0
    3.4350   -1.0650   -0.5030 C   0  0  0  0  0  0  0  0  0  0  0  0
    2.1980   -1.2880   -1.0820 O   0  0  0  0  0  0  0  0  0  0  0  0
    1.0290   -1.3580   -0.2800 C   0  0  0  0  0  0  0  0  0  0  0  0
    1.2570   -1.2000    0.9400 O   0  0  0  0  0  0  0  0  0  0  0  0
   -0.2840   -1.5970   -0.9080 C   0  0  0  0  0  0  0  0  0  0  0  0
   -1.4870   -1.4230   -0.0690 C   0  0  2  0  0  0  0  0  0  0  0  0
   -2.5960   -1.7970   -0.9370 O   0  0  0  0  0  0  0  0  0  0  0  0
   -1.8550    0.0020    0.3030 C   0  0  1  0  0  0  0  0  0  0  0  0
   -0.8110    0.7480    1.0850 C   0  0  0  0  0  0  0  0  0  0  0  0
   -2.1000    0.8190   -0.9410 C   0  0  0  0  0  0  0  0  0  0  0  0
   -3.4690    1.4100   -1.0190 C   0  0  0  0  0  0  0  0  0  0  0  0
   -4.5760    0.4300   -0.7760 C   0  0  0  0  0  0  0  0  0  0  0  0
   -4.3660   -0.2520    0.5200 C   0  0  0  0  0  0  0  0  0  0  0  0
   -3.0660   -0.0600    1.2020 C   0  0  1  0  0  0  0  0  0  0  0  0
   -2.8620   -1.1430    2.0720 O   0  0  0  0  0  0  0  0  0  0  0  0
  1  2  1  0
  2  3  1  0
  3  4  2  0
  3  8  1  0
  4  5  1  0
  5  6  1  0
  6  7  1  0
  7  8  2  0
  8  9  1  0
  9 10  1  0
 10 11  2  0
 10 12  1  0
 12 13  1  0
 13 14  1  6
 13 15  1  0
 15 16  1  1
 15 17  1  0
 15 21  1  0
 17 18  1  0
 18 19  1  0
 19 20  1  0
 20 21  1  0
 21 22  1  1
M  END
