
     RDKit          3D

 22 24  0  0  0  0  0  0  0  0999 V2000
   -2.8130    0.2490   -2.2980 C   0  0  0  0  0  0  0  0  0  0  0  0
   -2.4120   -0.2020   -0.9240 C   0  0  1  0  0  0  0  0  0  0  0  0
   -2.7000   -1.5940   -0.8320 O   0  0  0  0  0  0  0  0  0  0  0  0
   -1.0050    0.0330   -0.6840 C   0  0  0  0  0  0  0  0  0  0  0  0
    0.1320    0.0160   -1.3800 C   0  0  0  0  0  0  0  0  0  0  0  0
    1.3190    0.2350   -0.8230 C   0  0  0  0  0  0  0  0  0  0  0  0
    1.3350    0.4920    0.5400 C   0  0  0  0  0  0  0  0  0  0  0  0
   -0.3350    0.4180    1.0170 S   0  0  0  0  0  0  0  0  0  0  0  0
    2.4780    0.7380    1.4880 C   0  0  0  0  0  0  0  0  0  0  0  0
    3.3540   -0.5160    1.4850 C   0  0  0  0  0  0  0  0  0  0  0  0
    4.2180   -0.6250    0.2480 C   0  0  2  0  0  0  0  0  0  0  0  0
    5.1820    0.4700    0.2130 C   0  0  0  0  0  0  0  0  0  0  0  0
    5.4160    1.1030   -0.8420 O   0  0  0  0  0  0  0  0  0  0  0  0
    5.8490    0.8100    1.3850 O   0  0  0  0  0  0  0  0  0  0  0  0
    3.4940   -0.8960   -1.0200 C   0  0  0  0  0  0  0  0  0  0  0  0
    2.6490    0.2020   -1.5680 C   0  0  0  0  0  0  0  0  0  0  0  0
   -3.3350    0.4340    0.0850 C   0  0  2  0  0  0  0  0  0  0  0  0
   -3.2500    1.8110    0.1280 O   0  0  0  0  0  0  0  0  0  0  0  0
   -3.1310   -0.1520    1.4730 C   0  0  0  0  0  0  0  0  0  0  0  0
   -4.5260   -0.1920    2.0100 C   0  0  0  0  0  0  0  0  0  0  0  0
   -5.4110   -0.2100    0.9460 O   0  0  0  0  0  0  0  0  0  0  0  0
   -4.7220   -0.0330   -0.2310 C   0  0  0  0  0  0  0  0  0  0  0  0
  2  1  1  6
  2  3  1  0
  2  4  1  0
  2 17  1  0
  4  5  2  0
  4  8  1  0
  5  6  1  0
  6  7  2  0
  6 16  1  0
  7  8  1  0
  7  9  1  0
  9 10  1  0
 10 11  1  0
 11 12  1  6
 11 15  1  0
 12 13  2  0
 12 14  1  0
 15 16  1  0
 17 18  1  1
 17 19  1  0
 17 22  1  0
 19 20  1  0
 20 21  1  0
 21 22  1  0
M  END
