
     RDKit          3D

 22 23  0  0  0  0  0  0  0  0999 V2000
    1.3890   -0.8730   -1.5680 C   0  0  0  0  0  0  0  0  0  0  0  0
    1.0370   -0.2120   -0.2430 C   0  0  1  0  0  0  0  0  0  0  0  0
    0.7880   -1.1110    0.7710 O   0  0  0  0  0  0  0  0  0  0  0  0
    2.1240    0.7280    0.1260 C   0  0  0  0  0  0  0  0  0  0  0  0
    3.4740    0.1220    0.2790 C   0  0  0  0  0  0  0  0  0  0  0  0
    4.4380    0.5400   -0.5260 C   0  0  0  0  0  0  0  0  0  0  0  0
    5.8150    0.0240   -0.4800 C   0  0  0  0  0  0  0  0  0  0  0  0
    5.9160   -1.3290    0.1850 C   0  0  0  0  0  0  0  0  0  0  0  0
    5.0890   -1.3720    1.3360 O   0  0  0  0  0  0  0  0  0  0  0  0
    3.7980   -0.8850    1.2670 C   0  0  0  0  0  0  0  0  0  0  0  0
    2.9570   -1.3330    2.0630 O   0  0  0  0  0  0  0  0  0  0  0  0
   -0.2880    0.5190   -0.4890 C   0  0  2  0  0  0  0  0  0  0  0  0
    0.0020    1.4320   -1.5230 O   0  0  0  0  0  0  0  0  0  0  0  0
   -0.7440    1.3260    0.6870 C   0  0  0  0  0  0  0  0  0  0  0  0
   -1.9360    2.1500    0.2830 C   0  0  0  0  0  0  0  0  0  0  0  0
   -2.7690    1.4590   -0.7540 C   0  0  0  0  0  0  0  0  0  0  0  0
   -2.7400   -0.0310   -0.5960 C   0  0  2  0  0  0  0  0  0  0  0  0
   -3.2420   -0.6420    0.9890 S   0  0  0  0  0  0  0  0  0  0  0  0
   -4.9360   -0.4020    1.4380 C   0  0  0  0  0  0  0  0  0  0  0  0
   -5.9220   -1.1720    0.5890 C   0  0  0  0  0  0  0  0  0  0  0  0
   -5.6720   -2.5200    0.6910 O   0  0  0  0  0  0  0  0  0  0  0  0
   -1.3360   -0.4830   -0.9390 C   0  0  0  0  0  0  0  0  0  0  0  0
  2  1  1  6
  2  3  1  0
  2  4  1  0
  2 12  1  0
  4  5  1  0
  5  6  2  0
  5 10  1  0
  6  7  1  0
  7  8  1  0
  8  9  1  0
  9 10  1  0
 10 11  2  0
 12 13  1  6
 12 14  1  0
 12 22  1  0
 14 15  1  0
 15 16  1  0
 16 17  1  0
 17 18  1  1
 17 22  1  0
 18 19  1  0
 19 20  1  0
 20 21  1  0
M  END
