
     RDKit          3D

 22 24  0  0  0  0  0  0  0  0999 V2000
    4.0140    0.0060   -2.5420 O   0  0  0  0  0  0  0  0  0  0  0  0
    4.7090    0.1250   -1.3270 C   0  0  0  0  0  0  0  0  0  0  0  0
    5.9740    0.4410   -1.3080 C   0  0  0  0  0  0  0  0  0  0  0  0
    6.7560    0.5810   -0.0950 C   0  0  2  0  0  0  0  0  0  0  0  0
    7.9550   -0.1840   -0.1680 O   0  0  0  0  0  0  0  0  0  0  0  0
    6.0370    0.3420    1.1640 C   0  0  0  0  0  0  0  0  0  0  0  0
    4.6200   -0.0050    1.0090 C   0  0  0  0  0  0  0  0  0  0  0  0
    3.9490   -0.1220   -0.1130 C   0  0  0  0  0  0  0  0  0  0  0  0
    2.6180   -0.4550   -0.1240 O   0  0  0  0  0  0  0  0  0  0  0  0
    1.6710    0.4740    0.3430 C   0  0  0  0  0  0  0  0  0  0  0  0
    0.3110   -0.0040    0.2760 C   0  0  0  0  0  0  0  0  0  0  0  0
   -0.2870   -1.1440   -0.1330 C   0  0  0  0  0  0  0  0  0  0  0  0
   -1.6230   -1.2670   -0.0580 C   0  0  0  0  0  0  0  0  0  0  0  0
   -2.3690   -0.2660    0.4200 C   0  0  0  0  0  0  0  0  0  0  0  0
   -3.7700   -0.0190    0.6530 C   0  0  0  0  0  0  0  0  0  0  0  0
   -4.5310    0.5940   -0.4640 C   0  0  1  0  0  0  0  0  0  0  0  0
   -4.5540   -0.1270   -1.6260 O   0  0  0  0  0  0  0  0  0  0  0  0
   -5.5320   -1.0930   -1.5400 C   0  0  0  0  0  0  0  0  0  0  0  0
   -6.4560   -0.7420   -0.4260 C   0  0  0  0  0  0  0  0  0  0  0  0
   -6.0040    0.6520   -0.0390 C   0  0  1  0  0  0  0  0  0  0  0  0
   -6.0260    0.7860    1.3500 O   0  0  0  0  0  0  0  0  0  0  0  0
   -1.1560    0.9620    0.8080 S   0  0  0  0  0  0  0  0  0  0  0  0
  1  2  1  0
  2  3  2  0
  2  8  1  0
  3  4  1  0
  4  5  1  6
  4  6  1  0
  6  7  1  0
  7  8  2  0
  8  9  1  0
  9 10  1  0
 10 11  1  0
 11 12  2  0
 11 22  1  0
 12 13  1  0
 13 14  2  0
 14 15  1  0
 14 22  1  0
 16 15  1  1
 16 17  1  0
 16 20  1  0
 17 18  1  0
 18 19  1  0
 19 20  1  0
 20 21  1  1
M  END
