
     RDKit          3D

 24 24  0  0  0  0  0  0  0  0999 V2000
    4.0830   -0.8020   -2.3710 C   0  0  0  0  0  0  0  0  0  0  0  0
    4.3390   -1.0170   -0.9130 C   0  0  0  0  0  0  0  0  0  0  0  0
    3.3850   -1.2630   -0.0440 C   0  0  0  0  0  0  0  0  0  0  0  0
    3.7110   -1.4680    1.3400 C   0  0  0  0  0  0  0  0  0  0  0  0
    2.8690   -1.7250    2.3200 C   0  0  0  0  0  0  0  0  0  0  0  0
    3.2860   -1.9670    3.9800 Cl  0  0  0  0  0  0  0  0  0  0  0  0
    1.9840   -1.2610   -0.5060 C   0  0  0  0  0  0  0  0  0  0  0  0
    1.1670    0.0370    0.4630 S   0  0  0  0  0  0  0  0  0  0  0  0
   -0.4540    0.4470   -0.1010 C   0  0  0  0  0  0  0  0  0  0  0  0
   -1.6330   -0.1350    0.2760 C   0  0  0  0  0  0  0  0  0  0  0  0
   -1.8210   -1.2410    1.1790 C   0  0  0  0  0  0  0  0  0  0  0  0
   -0.8160   -1.8510    1.6270 O   0  0  0  0  0  0  0  0  0  0  0  0
   -3.1050   -1.6600    1.5790 N   0  0  0  0  0  0  0  0  0  0  0  0
   -3.9320   -2.1310    0.4970 C   0  0  0  0  0  0  0  0  0  0  0  0
   -4.2710   -3.5950    0.7440 C   0  0  0  0  0  0  0  0  0  0  0  0
   -2.6330    0.5290   -0.3810 N   0  0  0  0  0  0  0  0  0  0  0  0
   -2.0570    1.4880   -1.1360 C   0  0  0  0  0  0  0  0  0  0  0  0
   -2.8740    2.5380   -2.1070 S   0  0  0  0  0  0  0  0  0  0  0  0
   -0.7270    1.4430   -0.9690 N   0  0  0  0  0  0  0  0  0  0  0  0
    0.2720    2.3120   -1.5680 C   0  0  0  0  0  0  0  0  0  0  0  0
    0.5370    3.4640   -0.6630 C   0  0  0  0  0  0  0  0  0  0  0  0
    1.5110    3.3950    0.1220 O   0  0  0  0  0  0  0  0  0  0  0  0
   -0.2410    4.6060   -0.6420 O   0  0  0  0  0  0  0  0  0  0  0  0
    0.0440    5.6710    0.2420 C   0  0  0  0  0  0  0  0  0  0  0  0
  1  2  1  0
  2  3  2  3
  3  4  1  0
  3  7  1  0
  4  5  2  3
  5  6  1  0
  7  8  1  0
  8  9  1  0
  9 10  2  0
  9 19  1  0
 10 11  1  0
 10 16  1  0
 11 12  2  0
 11 13  1  0
 13 14  1  0
 14 15  1  0
 16 17  1  0
 17 18  2  0
 17 19  1  0
 19 20  1  0
 20 21  1  0
 21 22  2  0
 21 23  1  0
 23 24  1  0
M  CHG  1  13   1
M  END
