
     RDKit          3D

 24 24  0  0  0  0  0  0  0  0999 V2000
   -2.3940   -3.5340   -2.4280 C   0  0  0  0  0  0  0  0  0  0  0  0
   -1.5800   -2.4720   -1.9330 O   0  0  0  0  0  0  0  0  0  0  0  0
   -2.0570   -1.5630   -1.0010 C   0  0  0  0  0  0  0  0  0  0  0  0
   -3.2440   -1.7420   -0.6290 O   0  0  0  0  0  0  0  0  0  0  0  0
   -1.2270   -0.4450   -0.4670 C   0  0  2  0  0  0  0  0  0  0  0  0
   -2.0270    0.2420    0.4630 N   0  0  0  0  0  0  0  0  0  0  0  0
   -2.4600   -0.4660    1.6070 C   0  0  0  0  0  0  0  0  0  0  0  0
   -2.9150    1.2310    0.1040 C   0  0  0  0  0  0  0  0  0  0  0  0
   -3.6060    1.7880    1.3260 C   0  0  0  0  0  0  0  0  0  0  0  0
   -4.7680    3.1030    0.8380 S   0  0  0  0  0  0  0  0  0  0  0  0
   -6.0830    2.3330   -0.1360 C   0  0  0  0  0  0  0  0  0  0  0  0
   -0.6920    0.3480   -1.6020 C   0  0  0  0  0  0  0  0  0  0  0  0
    0.7530    0.7490   -1.5170 C   0  0  0  0  0  0  0  0  0  0  0  0
    1.6110   -0.1900   -0.8890 N   0  0  0  0  0  0  0  0  0  0  0  0
    2.9550    0.1430   -0.6380 C   0  0  0  0  0  0  0  0  0  0  0  0
    3.4320    1.2580   -0.9520 O   0  0  0  0  0  0  0  0  0  0  0  0
    3.9940   -1.0770    0.1550 S   0  0  0  0  0  0  0  0  0  0  0  0
    5.6540   -0.4310    0.3570 C   0  0  0  0  0  0  0  0  0  0  0  0
    5.6810    0.7140    1.3160 C   0  0  0  0  0  0  0  0  0  0  0  0
    7.1310    1.1850    1.4150 C   0  0  0  0  0  0  0  0  0  0  0  0
    7.6600    1.6880   -0.2120 Cl  0  0  0  0  0  0  0  0  0  0  0  0
    1.0600   -1.4700   -0.5330 C   0  0  0  0  0  0  0  0  0  0  0  0
   -0.1320   -1.1240    0.3520 C   0  0  1  0  0  0  0  0  0  0  0  0
    0.3250   -0.2220    1.3790 N   0  0  0  0  0  0  0  0  0  0  0  0
  1  2  1  0
  2  3  1  0
  3  4  2  0
  3  5  1  0
  5  6  1  1
  5 12  1  0
  5 23  1  0
  6  7  1  0
  6  8  1  0
  8  9  1  0
  9 10  1  0
 10 11  1  0
 12 13  1  0
 13 14  1  0
 14 15  1  0
 14 22  1  0
 15 16  2  0
 15 17  1  0
 17 18  1  0
 18 19  1  0
 19 20  1  0
 20 21  1  0
 22 23  1  0
 23 24  1  1
M  CHG  1  24   1
M  END
