
     RDKit          3D

 24 25  0  0  0  0  0  0  0  0999 V2000
    2.7190   -1.8670   -0.4650 C   0  0  0  0  0  0  0  0  0  0  0  0
    3.0320   -0.4900   -0.9830 C   0  0  2  0  0  0  0  0  0  0  0  0
    4.4890   -0.2800   -1.2640 C   0  0  0  0  0  0  0  0  0  0  0  0
    5.5120   -0.4890    0.1580 S   0  0  2  0  0  0  0  0  0  0  0  0
    7.2060   -0.2140   -0.3050 C   0  0  0  0  0  0  0  0  0  0  0  0
    5.4130   -1.9390    0.5920 O   0  0  0  0  0  0  0  0  0  0  0  0
    5.1810    0.4400    1.2610 O   0  0  0  0  0  0  0  0  0  0  0  0
    2.5360    0.5520   -0.1040 N   0  0  0  0  0  0  0  0  0  0  0  0
    1.0900    0.4940   -0.1330 C   0  0  2  0  0  0  0  0  0  0  0  0
    0.5220    0.6690   -1.5000 C   0  0  0  0  0  0  0  0  0  0  0  0
   -0.8490    1.3310   -1.4130 C   0  0  0  0  0  0  0  0  0  0  0  0
   -1.5680    0.9440   -0.2230 N   0  0  0  0  0  0  0  0  0  0  0  0
   -2.9150    0.5370   -0.3450 C   0  0  0  0  0  0  0  0  0  0  0  0
   -3.4880    0.5120   -1.4910 O   0  0  0  0  0  0  0  0  0  0  0  0
   -3.6220    0.1570    0.8250 N   0  0  0  0  0  0  0  0  0  0  0  0
   -5.0040   -0.2580    0.6630 C   0  0  0  0  0  0  0  0  0  0  0  0
   -5.8910    0.4570    1.2840 C   0  0  0  0  0  0  0  0  0  0  0  0
   -7.3440    0.2440    1.2790 C   0  0  0  0  0  0  0  0  0  0  0  0
   -7.8210   -1.1570    0.3040 S   0  0  0  0  0  0  0  0  0  0  0  0
   -6.3810   -1.9110   -0.4040 C   0  0  0  0  0  0  0  0  0  0  0  0
   -5.1970   -1.4160   -0.1670 C   0  0  0  0  0  0  0  0  0  0  0  0
   -3.8060   -2.2410   -0.9130 Cl  0  0  0  0  0  0  0  0  0  0  0  0
   -0.9580    0.9600    1.0840 C   0  0  0  0  0  0  0  0  0  0  0  0
    0.4760    1.4590    0.8590 C   0  0  0  0  0  0  0  0  0  0  0  0
  2  1  1  1
  2  3  1  0
  2  8  1  0
  3  4  1  0
  4  5  1  6
  4  6  2  0
  4  7  2  0
  9  8  1  6
  9 10  1  0
  9 24  1  0
 10 11  1  0
 11 12  1  0
 12 13  1  0
 12 23  1  0
 13 14  2  0
 13 15  1  0
 15 16  1  0
 16 17  2  0
 16 21  1  0
 17 18  1  0
 18 19  1  0
 19 20  1  0
 20 21  2  0
 21 22  1  0
 23 24  1  0
M  CHG  1   8   1
M  END
