
     RDKit          3D

 22 23  0  0  0  0  0  0  0  0999 V2000
   -5.0820   -1.5950    1.5840 C   0  0  0  0  0  0  0  0  0  0  0  0
   -4.3080   -0.5500    0.8580 C   0  0  0  0  0  0  0  0  0  0  0  0
   -2.8800   -0.9790    0.5670 C   0  0  0  0  0  0  0  0  0  0  0  0
   -2.1270    0.1100   -0.1690 C   0  0  0  0  0  0  0  0  0  0  0  0
   -0.7650   -0.3560   -0.4290 C   0  0  0  0  0  0  0  0  0  0  0  0
   -0.5900   -1.2800   -1.4600 C   0  0  0  0  0  0  0  0  0  0  0  0
   -1.7080   -1.7680   -2.2760 C   0  0  0  0  0  0  0  0  0  0  0  0
    0.6670   -1.7050   -1.6790 N   0  0  0  0  0  0  0  0  0  0  0  0
    1.7370   -1.2850   -0.9620 C   0  0  0  0  0  0  0  0  0  0  0  0
    3.0150   -1.7370   -1.2140 C   0  0  0  0  0  0  0  0  0  0  0  0
    4.1080   -1.3050   -0.4860 C   0  0  0  0  0  0  0  0  0  0  0  0
    3.9650   -0.3940    0.5380 C   0  0  0  0  0  0  0  0  0  0  0  0
    5.0450    0.0570    1.2850 O   0  0  0  0  0  0  0  0  0  0  0  0
    6.3260   -0.4500    0.9650 C   0  0  0  0  0  0  0  0  0  0  0  0
    2.6730    0.0680    0.7980 C   0  0  0  0  0  0  0  0  0  0  0  0
    1.5950   -0.3720    0.0630 C   0  0  0  0  0  0  0  0  0  0  0  0
    0.3150    0.0900    0.3200 C   0  0  0  0  0  0  0  0  0  0  0  0
    0.1110    1.2880    1.6260 S   0  0  0  0  0  0  0  0  0  0  0  0
    0.3130    2.9730    1.0420 C   0  0  0  0  0  0  0  0  0  0  0  0
   -0.7300    3.4420    0.0880 C   0  0  0  0  0  0  0  0  0  0  0  0
   -0.4150    4.8200   -0.2870 C   0  0  0  0  0  0  0  0  0  0  0  0
   -0.1580    5.9150   -0.5830 N   0  0  0  0  0  0  0  0  0  0  0  0
  1  2  1  0
  2  3  1  0
  3  4  1  0
  4  5  1  0
  5  6  2  0
  5 17  1  0
  6  7  1  0
  6  8  1  0
  8  9  2  0
  9 10  1  0
  9 16  1  0
 10 11  2  0
 11 12  1  0
 12 13  1  0
 12 15  2  0
 13 14  1  0
 15 16  1  0
 16 17  2  0
 17 18  1  0
 18 19  1  0
 19 20  1  0
 20 21  1  0
 21 22  3  0
M  END
