
     RDKit          3D

 22 23  0  0  0  0  0  0  0  0999 V2000
   -3.9980   -4.1010    0.8760 C   0  0  0  0  0  0  0  0  0  0  0  0
   -3.7330   -2.8640    1.2180 C   0  0  0  0  0  0  0  0  0  0  0  0
   -3.2900   -1.8840    0.2350 C   0  0  0  0  0  0  0  0  0  0  0  0
   -3.0180   -0.6310    0.5630 C   0  0  0  0  0  0  0  0  0  0  0  0
   -2.5730    0.3450   -0.4370 C   0  0  2  0  0  0  0  0  0  0  0  0
   -1.1730    0.0090   -0.9950 C   0  0  0  0  0  0  0  0  0  0  0  0
   -0.2680    1.0100   -0.4490 C   0  0  0  0  0  0  0  0  0  0  0  0
    1.2060    1.1700   -0.6260 C   0  0  0  0  0  0  0  0  0  0  0  0
    2.0130    0.3040   -1.2730 C   0  0  0  0  0  0  0  0  0  0  0  0
    1.5870   -1.0730   -1.7380 C   0  0  0  0  0  0  0  0  0  0  0  0
    1.5770   -2.1260   -0.6880 C   0  0  0  0  0  0  0  0  0  0  0  0
    2.8570   -2.4650   -0.0130 C   0  0  0  0  0  0  0  0  0  0  0  0
    3.5240   -1.4400    0.8150 C   0  0  0  0  0  0  0  0  0  0  0  0
    3.3450    0.6250   -1.4910 C   0  0  0  0  0  0  0  0  0  0  0  0
    3.5180    2.2120   -0.7600 S   0  0  0  0  0  0  0  0  0  0  0  0
    1.8700    2.3750   -0.2180 C   0  0  0  0  0  0  0  0  0  0  0  0
    1.3530    3.5550    0.5250 C   0  0  0  0  0  0  0  0  0  0  0  0
    2.3600    4.6810    0.7780 C   0  0  0  0  0  0  0  0  0  0  0  0
    0.2240    3.6640    0.9220 O   0  0  0  0  0  0  0  0  0  0  0  0
   -0.9610    1.8730    0.2080 N   0  0  0  0  0  0  0  0  0  0  0  0
   -2.3100    1.6120    0.2070 N   0  0  0  0  0  0  0  0  0  0  0  0
   -3.3920    2.4360    0.7500 C   0  0  0  0  0  0  0  0  0  0  0  0
  1  2  2  0
  2  3  1  0
  3  4  2  3
  5  4  1  1
  5  6  1  0
  5 21  1  0
  6  7  1  0
  7  8  1  0
  7 20  2  0
  8  9  1  0
  8 16  2  0
  9 10  1  0
  9 14  2  0
 10 11  1  0
 11 12  1  0
 12 13  1  0
 14 15  1  0
 15 16  1  0
 16 17  1  0
 17 18  1  0
 17 19  2  0
 20 21  1  0
 21 22  1  0
M  END
