
     RDKit          3D

 22 22  0  0  0  0  0  0  0  0999 V2000
    2.5440   -2.4210    0.6870 C   0  0  0  0  0  0  0  0  0  0  0  0
    3.5760   -1.8240    1.1560 C   0  0  0  0  0  0  0  0  0  0  0  0
    3.9320   -0.3920    1.0260 C   0  0  0  0  0  0  0  0  0  0  0  0
    5.0610   -0.0630    1.5940 C   0  0  0  0  0  0  0  0  0  0  0  0
    5.7450    1.2390    1.6960 C   0  0  0  0  0  0  0  0  0  0  0  0
    3.0410    0.3760    0.1940 C   0  0  0  0  0  0  0  0  0  0  0  0
    1.6800    0.1710    0.3480 N   0  0  0  0  0  0  0  0  0  0  0  0
    0.7630    0.7620   -0.4010 C   0  0  0  0  0  0  0  0  0  0  0  0
   -0.9930    0.4900   -0.1930 S   0  0  0  0  0  0  0  0  0  0  0  0
   -1.4900   -0.8790   -1.2190 C   0  0  0  0  0  0  0  0  0  0  0  0
   -0.4660   -1.5600   -2.0460 C   0  0  0  0  0  0  0  0  0  0  0  0
   -2.7310   -1.2860   -1.2510 C   0  0  0  0  0  0  0  0  0  0  0  0
   -3.8400   -0.7270   -0.5050 C   0  0  0  0  0  0  0  0  0  0  0  0
   -4.9900   -1.2430   -0.6510 O   0  0  0  0  0  0  0  0  0  0  0  0
   -3.7190    0.4130    0.4210 C   0  0  0  0  0  0  0  0  0  0  0  0
   -5.0910    0.7250    1.0290 C   0  0  1  0  0  0  0  0  0  0  0  0
   -6.1030    1.0810   -0.0270 C   0  0  0  0  0  0  0  0  0  0  0  0
   -5.5920   -0.4860    1.7830 C   0  0  0  0  0  0  0  0  0  0  0  0
    1.1860    1.6250   -1.3870 C   0  0  0  0  0  0  0  0  0  0  0  0
    2.4800    1.8650   -1.5890 N   0  0  0  0  0  0  0  0  0  0  0  0
    3.4200    1.2320   -0.7930 C   0  0  0  0  0  0  0  0  0  0  0  0
    4.8460    1.4480   -1.1390 C   0  0  0  0  0  0  0  0  0  0  0  0
  1  2  2  0
  2  3  1  0
  3  4  2  3
  3  6  1  0
  4  5  1  0
  6  7  2  0
  6 21  1  0
  7  8  1  0
  8  9  1  0
  8 19  2  0
  9 10  1  0
 10 11  1  0
 10 12  2  3
 12 13  1  0
 13 14  2  0
 13 15  1  0
 15 16  1  0
 16 17  1  6
 16 18  1  0
 19 20  1  0
 20 21  2  0
 21 22  1  0
M  END
