
     RDKit          3D

 21 22  0  0  0  0  0  0  0  0999 V2000
    5.3590   -1.0860    1.1500 C   0  0  0  0  0  0  0  0  0  0  0  0
    4.0370   -0.4850    0.7350 C   0  0  0  0  0  0  0  0  0  0  0  0
    3.9110    0.0790   -0.4020 N   0  0  0  0  0  0  0  0  0  0  0  0
    2.7500    0.6790   -0.9140 C   0  0  0  0  0  0  0  0  0  0  0  0
    2.6790    1.3080   -2.2500 C   0  0  0  0  0  0  0  0  0  0  0  0
    1.6200    0.6990   -0.1720 C   0  0  0  0  0  0  0  0  0  0  0  0
    0.3990    1.3350   -0.7390 C   0  0  0  0  0  0  0  0  0  0  0  0
   -0.7370    0.4300   -0.9460 C   0  0  0  0  0  0  0  0  0  0  0  0
   -1.3940   -0.1950    0.0920 N   0  0  0  0  0  0  0  0  0  0  0  0
   -2.2320    0.5650    0.9440 C   0  0  0  0  0  0  0  0  0  0  0  0
   -3.3750    1.1880    0.1410 C   0  0  0  0  0  0  0  0  0  0  0  0
   -3.3900    2.4490   -0.3070 C   0  0  0  0  0  0  0  0  0  0  0  0
   -4.4090    2.9340   -1.0040 C   0  0  0  0  0  0  0  0  0  0  0  0
   -5.5580    1.5090   -1.1040 S   0  0  0  0  0  0  0  0  0  0  0  0
   -4.4630    0.4130   -0.1540 C   0  0  0  0  0  0  0  0  0  0  0  0
   -1.6810   -1.5800   -0.0220 C   0  0  2  0  0  0  0  0  0  0  0  0
   -2.0960   -2.1310    1.3240 C   0  0  0  0  0  0  0  0  0  0  0  0
   -0.5430   -2.3940   -0.5340 C   0  0  0  0  0  0  0  0  0  0  0  0
    1.7030    0.1480    1.1490 C   0  0  0  0  0  0  0  0  0  0  0  0
    0.7230    0.2880    1.9570 O   0  0  0  0  0  0  0  0  0  0  0  0
    2.8830   -0.5850    1.6320 C   0  0  0  0  0  0  0  0  0  0  0  0
  1  2  1  0
  2  3  2  0
  2 21  1  0
  3  4  1  0
  4  5  1  0
  4  6  2  0
  6  7  1  0
  6 19  1  0
  7  8  1  0
  8  9  1  0
  9 10  1  0
  9 16  1  0
 10 11  1  0
 11 12  1  0
 11 15  2  0
 12 13  2  0
 13 14  1  0
 14 15  1  0
 16 17  1  1
 16 18  1  0
 19 20  2  0
 19 21  1  0
M  END
