
     RDKit          3D

 22 23  0  0  0  0  0  0  0  0999 V2000
   -0.6180    2.3980   -0.1460 C   0  0  0  0  0  0  0  0  0  0  0  0
   -1.6900    2.2080    0.5360 C   0  0  0  0  0  0  0  0  0  0  0  0
   -2.4510    1.0310    0.6310 C   0  0  0  0  0  0  0  0  0  0  0  0
   -3.6200    1.1180    1.3060 C   0  0  0  0  0  0  0  0  0  0  0  0
   -4.6850    0.0780    1.5930 C   0  0  0  0  0  0  0  0  0  0  0  0
   -5.1670   -0.5090    0.2810 C   0  0  0  0  0  0  0  0  0  0  0  0
   -4.5430   -1.7840   -0.1230 C   0  0  0  0  0  0  0  0  0  0  0  0
   -3.5710   -1.5470   -1.2840 C   0  0  0  0  0  0  0  0  0  0  0  0
   -2.2390   -1.1610   -0.7050 C   0  0  0  0  0  0  0  0  0  0  0  0
   -1.3650   -2.1430   -1.0700 C   0  0  0  0  0  0  0  0  0  0  0  0
   -0.0420   -2.1170   -0.5840 C   0  0  0  0  0  0  0  0  0  0  0  0
    0.7840   -2.9980   -0.9010 O   0  0  0  0  0  0  0  0  0  0  0  0
    0.2910   -1.0950    0.2410 N   0  0  0  0  0  0  0  0  0  0  0  0
    1.6500   -1.0260    0.7710 C   0  0  0  0  0  0  0  0  0  0  0  0
    2.5110   -0.2230   -0.1760 C   0  0  0  0  0  0  0  0  0  0  0  0
    3.9100   -0.1890    0.4330 C   0  0  0  0  0  0  0  0  0  0  0  0
    4.8530    0.5860   -0.4280 C   0  0  1  0  0  0  0  0  0  0  0  0
    4.3380    2.0030   -0.5610 C   0  0  0  0  0  0  0  0  0  0  0  0
    6.2250    0.5460    0.1810 C   0  0  0  0  0  0  0  0  0  0  0  0
   -0.5920   -0.1560    0.5750 C   0  0  0  0  0  0  0  0  0  0  0  0
   -0.2480    0.9390    1.7200 S   0  0  0  0  0  0  0  0  0  0  0  0
   -1.8630   -0.1650    0.1080 N   0  0  0  0  0  0  0  0  0  0  0  0
  1  2  2  0
  2  3  1  0
  3  4  2  0
  3 22  1  0
  4  5  1  0
  5  6  1  0
  6  7  1  0
  7  8  1  0
  8  9  1  0
  9 10  2  0
  9 22  1  0
 10 11  1  0
 11 12  2  0
 11 13  1  0
 13 14  1  0
 13 20  1  0
 14 15  1  0
 15 16  1  0
 16 17  1  0
 17 18  1  1
 17 19  1  0
 20 21  2  0
 20 22  1  0
M  END
