
     RDKit          3D

 38 39  0  0  0  0  0  0  0  0999 V2000
    2.8830   -0.7830    1.6070 C   0  0  0  0  0  0  0  0  0  0  0  0
    3.1870   -0.0810    0.3850 N   0  0  0  0  0  0  0  0  0  0  0  0
    2.2100    0.8440   -0.1500 C   0  0  0  0  0  0  0  0  0  0  0  0
    1.0050    0.0380   -0.6320 C   0  0  2  0  0  0  0  0  0  0  0  0
    0.0050    0.7690   -1.1720 O   0  0  0  0  0  0  0  0  0  0  0  0
    0.0030    2.1210   -1.0330 C   0  0  0  0  0  0  0  0  0  0  0  0
   -1.3290    2.5370   -1.0750 O   0  0  0  0  0  0  0  0  0  0  0  0
   -1.6570    3.5230   -0.1750 C   0  0  1  0  0  0  0  0  0  0  0  0
   -1.7410    4.8610   -0.7520 C   0  0  0  0  0  0  0  0  0  0  0  0
   -1.5230    5.0340   -1.9680 O   0  0  0  0  0  0  0  0  0  0  0  0
   -2.0610    5.9470    0.0340 O   0  0  0  0  0  0  0  0  0  0  0  0
   -2.9530    3.2230    0.4880 C   0  0  0  0  0  0  0  0  0  0  0  0
   -3.5960    4.2030    0.9480 O   0  0  0  0  0  0  0  0  0  0  0  0
   -3.5050    1.9230    0.6350 N   0  0  0  0  0  0  0  0  0  0  0  0
   -4.9090    1.7530    0.6010 C   0  0  0  0  0  0  0  0  0  0  0  0
   -5.6910    2.7290    0.4430 O   0  0  0  0  0  0  0  0  0  0  0  0
   -5.4540    0.4890    0.7430 O   0  0  0  0  0  0  0  0  0  0  0  0
   -2.6850    0.7280    0.8250 C   0  0  0  0  0  0  0  0  0  0  0  0
   -2.9190   -0.2270   -0.2800 C   0  0  0  0  0  0  0  0  0  0  0  0
   -3.5240    0.2770   -1.2980 O   0  0  0  0  0  0  0  0  0  0  0  0
   -2.5830   -1.5740   -0.3740 N   0  0  0  0  0  0  0  0  0  0  0  0
   -3.6020   -2.4780   -0.8660 C   0  0  0  0  0  0  0  0  0  0  0  0
   -4.5100   -2.0530   -1.6570 O   0  0  0  0  0  0  0  0  0  0  0  0
   -3.6470   -3.7990   -0.5210 O   0  0  0  0  0  0  0  0  0  0  0  0
   -2.5500   -4.4310    0.0690 C   0  0  0  0  0  0  0  0  0  0  0  0
   -1.5330   -3.5340    0.6550 C   0  0  0  0  0  0  0  0  0  0  0  0
   -1.3250   -2.2100   -0.0530 C   0  0  1  0  0  0  0  0  0  0  0  0
   -0.6390   -2.5910   -1.3760 C   0  0  0  0  0  0  0  0  0  0  0  0
   -1.5300   -3.4780   -2.0170 O   0  0  0  0  0  0  0  0  0  0  0  0
   -0.4340   -1.4300    0.8220 C   0  0  0  0  0  0  0  0  0  0  0  0
   -0.7570   -1.3040    2.0290 O   0  0  0  0  0  0  0  0  0  0  0  0
    0.6990   -0.8600    0.3680 O   0  0  0  0  0  0  0  0  0  0  0  0
    4.4300   -0.3200   -0.2540 C   0  0  0  0  0  0  0  0  0  0  0  0
    4.5290   -1.4210   -0.9220 N   0  0  0  0  0  0  0  0  0  0  0  0
    5.5320    0.5490   -0.2020 N   0  0  0  0  0  0  0  0  0  0  0  0
    7.1240   -0.0650   -0.7530 P   0  0  0  0  0  0  0  0  0  0  0  0
    7.7750   -1.2260    0.3670 O   0  0  0  0  0  0  0  0  0  0  0  0
    8.2490    1.2050   -1.0370 O   0  0  0  0  0  0  0  0  0  0  0  0
  1  2  1  0
  2  3  1  0
  2 33  1  0
  4  3  1  1
  4  5  1  0
  4 32  1  0
  5  6  1  0
  6  7  1  0
  7  8  1  0
  8  9  1  6
  8 12  1  0
  9 10  2  0
  9 11  1  0
 12 13  2  0
 12 14  1  0
 14 15  1  0
 14 18  1  0
 15 16  2  0
 15 17  1  0
 18 19  1  0
 19 20  2  0
 19 21  1  0
 21 22  1  0
 21 27  1  0
 22 23  2  0
 22 24  1  0
 24 25  1  0
 25 26  1  0
 26 27  1  0
 27 28  1  6
 27 30  1  0
 28 29  1  0
 30 31  2  0
 30 32  1  0
 33 34  2  0
 33 35  1  0
 35 36  1  0
 36 37  1  0
 36 38  1  0
M  END
