
     RDKit          3D

 39 42  0  0  0  0  0  0  0  0999 V2000
    0.0210    1.1820    5.4540 C   0  0  0  0  0  0  0  0  0  0  0  0
    0.2440   -0.0300    4.8430 O   0  0  0  0  0  0  0  0  0  0  0  0
   -0.4020   -0.4760    3.6560 C   0  0  0  0  0  0  0  0  0  0  0  0
   -1.2840    0.3900    3.1450 C   0  0  0  0  0  0  0  0  0  0  0  0
   -2.1330    0.3580    2.0210 C   0  0  0  0  0  0  0  0  0  0  0  0
   -2.3920   -0.3910    0.9950 C   0  0  0  0  0  0  0  0  0  0  0  0
   -3.4250    0.1240    0.1690 O   0  0  0  0  0  0  0  0  0  0  0  0
   -3.9410   -0.3390   -1.0020 C   0  0  2  0  0  0  0  0  0  0  0  0
   -2.9320   -0.4520   -2.1260 C   0  0  0  0  0  0  0  0  0  0  0  0
   -3.4700    0.3200   -3.2930 C   0  0  0  0  0  0  0  0  0  0  0  0
   -4.7320    0.8580   -2.8030 C   0  0  0  0  0  0  0  0  0  0  0  0
   -4.9970    0.5140   -1.5780 C   0  0  0  0  0  0  0  0  0  0  0  0
   -6.1390    0.8990   -0.8860 O   0  0  0  0  0  0  0  0  0  0  0  0
   -6.6430    2.2020   -0.9210 C   0  0  0  0  0  0  0  0  0  0  0  0
   -1.8350   -1.6680    0.5130 C   0  0  0  0  0  0  0  0  0  0  0  0
   -2.7080   -2.7800    0.5810 C   0  0  0  0  0  0  0  0  0  0  0  0
   -2.3910   -4.0260    0.1530 C   0  0  0  0  0  0  0  0  0  0  0  0
   -1.1600   -4.2610   -0.3850 C   0  0  0  0  0  0  0  0  0  0  0  0
   -0.2960   -3.2050   -0.4670 C   0  0  0  0  0  0  0  0  0  0  0  0
   -0.5820   -1.8930   -0.0330 C   0  0  0  0  0  0  0  0  0  0  0  0
    0.4380   -0.9400   -0.2820 N   0  0  0  0  0  0  0  0  0  0  0  0
    1.3460   -0.2000    0.5040 C   0  0  0  0  0  0  0  0  0  0  0  0
    1.2200    1.0790    0.5080 O   0  0  0  0  0  0  0  0  0  0  0  0
    2.4370   -0.7300    1.3320 C   0  0  0  0  0  0  0  0  0  0  0  0
    3.7170   -0.0620    1.4040 C   0  0  0  0  0  0  0  0  0  0  0  0
    4.4180    0.7800    0.7940 C   0  0  0  0  0  0  0  0  0  0  0  0
    4.4540    1.6080   -0.3590 C   0  0  0  0  0  0  0  0  0  0  0  0
    5.4470    2.5480   -0.4460 C   0  0  0  0  0  0  0  0  0  0  0  0
    5.6920    3.5190   -1.5070 C   0  0  0  0  0  0  0  0  0  0  0  0
    4.8290    3.9350   -2.4550 C   0  0  0  0  0  0  0  0  0  0  0  0
    3.4810    3.4500   -2.5560 O   0  0  0  0  0  0  0  0  0  0  0  0
    3.2120    2.0440   -2.5180 C   0  0  0  0  0  0  0  0  0  0  0  0
    3.6680    1.2690   -1.5320 C   0  0  0  0  0  0  0  0  0  0  0  0
    3.4510   -0.5340   -1.9200 P   0  0  0  0  0  0  0  0  0  0  0  0
    4.5700   -1.4370   -0.9920 O   0  0  0  0  0  0  0  0  0  0  0  0
    3.8380   -0.7640   -3.6000 O   0  0  0  0  0  0  0  0  0  0  0  0
    2.1690   -1.6800    2.2390 C   0  0  0  0  0  0  0  0  0  0  0  0
    0.8850   -2.2800    2.5470 C   0  0  0  0  0  0  0  0  0  0  0  0
   -0.1000   -1.7060    3.1280 N   0  0  0  0  0  0  0  0  0  0  0  0
  1  2  1  0
  2  3  1  0
  3  4  2  0
  3 39  1  0
  4  5  1  0
  5  6  2  0
  6  7  1  0
  6 15  1  0
  8  7  1  1
  8  9  1  0
  8 12  1  0
  9 10  1  0
 10 11  1  0
 11 12  2  0
 12 13  1  0
 13 14  1  0
 15 16  2  0
 15 20  1  0
 16 17  1  0
 17 18  2  0
 18 19  1  0
 19 20  2  0
 20 21  1  0
 21 22  1  0
 22 23  2  0
 22 24  1  0
 24 25  1  0
 24 37  2  0
 25 26  2  3
 26 27  1  0
 27 28  2  0
 27 33  1  0
 28 29  1  0
 29 30  2  0
 30 31  1  0
 31 32  1  0
 32 33  2  0
 33 34  1  0
 34 35  1  0
 34 36  1  0
 37 38  1  0
 38 39  2  0
M  END
