
     RDKit          3D

 37 38  0  0  0  0  0  0  0  0999 V2000
    4.7850   -1.1280    1.5500 O   0  0  0  0  0  0  0  0  0  0  0  0
    5.1390   -1.8710    0.2800 P   0  0  2  0  0  0  0  0  0  0  0  0
    5.0490   -3.5450    0.5510 O   0  0  0  0  0  0  0  0  0  0  0  0
    6.7330   -1.4910   -0.1370 O   0  0  0  0  0  0  0  0  0  0  0  0
    4.0840   -1.4960   -1.0070 O   0  0  0  0  0  0  0  0  0  0  0  0
    3.0360   -0.6180   -0.9090 C   0  0  0  0  0  0  0  0  0  0  0  0
    3.2780    0.7220   -1.2000 C   0  0  0  0  0  0  0  0  0  0  0  0
    2.2780    1.6670   -1.1240 C   0  0  0  0  0  0  0  0  0  0  0  0
    2.5100    2.9980   -1.4110 O   0  0  0  0  0  0  0  0  0  0  0  0
    2.9970    4.0120   -0.1080 P   0  0  2  0  0  0  0  0  0  0  0  0
    2.1690    3.7540    1.1310 O   0  0  0  0  0  0  0  0  0  0  0  0
    2.9430    5.6440   -0.5680 O   0  0  0  0  0  0  0  0  0  0  0  0
    4.5950    3.5510    0.2680 O   0  0  0  0  0  0  0  0  0  0  0  0
    1.0110    1.2770   -0.7520 C   0  0  0  0  0  0  0  0  0  0  0  0
    0.7250   -0.0430   -0.4540 C   0  0  0  0  0  0  0  0  0  0  0  0
   -0.6250   -0.4090   -0.0690 C   0  0  0  0  0  0  0  0  0  0  0  0
   -1.1220   -0.2120    1.2020 C   0  0  0  0  0  0  0  0  0  0  0  0
   -0.3070    0.3650    2.1600 O   0  0  0  0  0  0  0  0  0  0  0  0
   -0.7830    0.6640    3.7560 P   0  0  1  0  0  0  0  0  0  0  0  0
    0.2760    1.4730    4.4530 O   0  0  0  0  0  0  0  0  0  0  0  0
   -2.2610    1.4820    3.8510 O   0  0  0  0  0  0  0  0  0  0  0  0
   -0.9720   -0.7820    4.6410 O   0  0  0  0  0  0  0  0  0  0  0  0
   -2.4080   -0.5750    1.5390 C   0  0  0  0  0  0  0  0  0  0  0  0
   -3.2080   -1.1490    0.5680 C   0  0  0  0  0  0  0  0  0  0  0  0
   -4.4960   -1.5130    0.9080 O   0  0  0  0  0  0  0  0  0  0  0  0
   -5.8500   -0.4910    0.7670 P   0  0  1  0  0  0  0  0  0  0  0  0
   -6.6940   -0.6050    2.0370 O   0  0  0  0  0  0  0  0  0  0  0  0
   -5.4200    1.1240    0.5170 O   0  0  0  0  0  0  0  0  0  0  0  0
   -6.8180   -1.0290   -0.5320 O   0  0  0  0  0  0  0  0  0  0  0  0
   -2.7440   -1.3670   -0.7340 C   0  0  0  0  0  0  0  0  0  0  0  0
   -1.4540   -0.9890   -1.0250 C   0  0  0  0  0  0  0  0  0  0  0  0
   -0.9380   -1.1780   -2.2930 O   0  0  0  0  0  0  0  0  0  0  0  0
   -1.9160   -1.8910   -3.4970 P   0  0  2  0  0  0  0  0  0  0  0  0
   -2.4630   -3.2370   -3.0860 O   0  0  0  0  0  0  0  0  0  0  0  0
   -1.0170   -2.0920   -4.9390 O   0  0  0  0  0  0  0  0  0  0  0  0
   -3.2480   -0.8890   -3.8380 O   0  0  0  0  0  0  0  0  0  0  0  0
    1.7530   -0.9590   -0.5420 C   0  0  0  0  0  0  0  0  0  0  0  0
  1  2  2  0
  2  3  1  1
  2  4  1  0
  2  5  1  0
  5  6  1  0
  6  7  2  0
  6 37  1  0
  7  8  1  0
  8  9  1  0
  8 14  2  0
  9 10  1  0
 10 11  2  0
 10 12  1  6
 10 13  1  0
 14 15  1  0
 15 16  1  0
 15 37  2  0
 16 17  2  0
 16 31  1  0
 17 18  1  0
 17 23  1  0
 18 19  1  0
 19 20  2  0
 19 21  1  6
 19 22  1  0
 23 24  2  0
 24 25  1  0
 24 30  1  0
 25 26  1  0
 26 27  2  0
 26 28  1  6
 26 29  1  0
 30 31  2  0
 31 32  1  0
 32 33  1  0
 33 34  2  0
 33 35  1  6
 33 36  1  0
M  END
