
     RDKit          3D

 39 40  0  0  0  0  0  0  0  0999 V2000
    5.5170   -1.7030    0.7640 C   0  0  0  0  0  0  0  0  0  0  0  0
    4.7920   -1.4050    1.8320 C   0  0  0  0  0  0  0  0  0  0  0  0
    4.7250   -0.1120    2.3280 N   0  0  0  0  0  0  0  0  0  0  0  0
    4.3680    1.0080    1.9390 C   0  0  0  0  0  0  0  0  0  0  0  0
    4.5160    2.0390    2.9520 O   0  0  0  0  0  0  0  0  0  0  0  0
    3.8440    1.4930    0.6700 C   0  0  1  0  0  0  0  0  0  0  0  0
    2.5290    1.5420    0.3970 O   0  0  0  0  0  0  0  0  0  0  0  0
    1.5910    0.4620    0.2630 C   0  0  0  0  0  0  0  0  0  0  0  0
    0.3450    0.7840    0.4930 C   0  0  0  0  0  0  0  0  0  0  0  0
   -0.9020   -0.0100    0.4530 C   0  0  0  0  0  0  0  0  0  0  0  0
   -1.6050   -0.3660   -0.6790 C   0  0  0  0  0  0  0  0  0  0  0  0
   -2.8120   -1.1530   -0.6210 N   0  0  0  0  0  0  0  0  0  0  0  0
   -4.0630   -0.8300    0.0850 C   0  0  1  0  0  0  0  0  0  0  0  0
   -5.0520   -0.1140   -0.7730 C   0  0  0  0  0  0  0  0  0  0  0  0
   -4.6820   -2.1190    0.6430 C   0  0  0  0  0  0  0  0  0  0  0  0
   -4.0610   -2.5460    1.9130 C   0  0  0  0  0  0  0  0  0  0  0  0
   -2.5970   -2.5330    2.0360 C   0  0  0  0  0  0  0  0  0  0  0  0
   -1.8990   -3.8290    2.3220 C   0  0  0  0  0  0  0  0  0  0  0  0
   -0.6200   -4.0160    2.2080 C   0  0  0  0  0  0  0  0  0  0  0  0
    0.5580   -3.2650    1.8330 C   0  0  0  0  0  0  0  0  0  0  0  0
    0.8010   -2.7940    0.6160 C   0  0  0  0  0  0  0  0  0  0  0  0
    1.9130   -2.0480    0.0290 C   0  0  0  0  0  0  0  0  0  0  0  0
    2.2050   -0.7970   -0.1020 C   0  0  0  0  0  0  0  0  0  0  0  0
   -0.2240   -3.0300   -0.3820 O   0  0  0  0  0  0  0  0  0  0  0  0
   -0.2600   -3.1600   -1.6890 C   0  0  0  0  0  0  0  0  0  0  0  0
   -0.3980   -2.3240   -2.6890 C   0  0  0  0  0  0  0  0  0  0  0  0
   -0.5790   -0.9110   -2.8790 C   0  0  0  0  0  0  0  0  0  0  0  0
   -1.1140    0.0170   -2.0370 C   0  0  0  0  0  0  0  0  0  0  0  0
   -1.1800    1.3140   -2.8000 C   0  0  0  0  0  0  0  0  0  0  0  0
   -1.6520    2.4510   -2.3880 C   0  0  0  0  0  0  0  0  0  0  0  0
   -1.6310    3.6030   -3.2690 C   0  0  0  0  0  0  0  0  0  0  0  0
   -2.1000    4.7510   -2.8990 C   0  0  0  0  0  0  0  0  0  0  0  0
   -2.3870    2.7520   -0.7320 P   0  0  0  0  0  0  0  0  0  0  0  0
   -3.9990    3.3750   -0.9800 O   0  0  0  0  0  0  0  0  0  0  0  0
   -1.4790    4.0510    0.0140 O   0  0  0  0  0  0  0  0  0  0  0  0
    4.3820    2.9130    0.5100 C   0  0  0  0  0  0  0  0  0  0  0  0
    3.5830    3.7920    0.1290 O   0  0  0  0  0  0  0  0  0  0  0  0
    5.6820    3.2410    0.7700 O   0  0  0  0  0  0  0  0  0  0  0  0
    6.1430    4.5930    0.6110 C   0  0  0  0  0  0  0  0  0  0  0  0
  1  2  2  0
  2  3  1  0
  3  4  2  3
  4  5  1  0
  4  6  1  0
  6  7  1  1
  6 36  1  0
  7  8  1  0
  8  9  2  0
  8 23  1  0
  9 10  1  0
 10 11  2  0
 11 12  1  0
 11 28  1  0
 12 13  1  0
 13 14  1  6
 13 15  1  0
 15 16  1  0
 16 17  1  0
 17 18  1  0
 18 19  2  0
 19 20  1  0
 20 21  2  0
 21 22  1  0
 21 24  1  0
 22 23  2  0
 24 25  1  0
 25 26  2  0
 26 27  1  0
 27 28  2  0
 28 29  1  0
 29 30  2  3
 30 31  1  0
 30 33  1  0
 31 32  2  0
 33 34  1  0
 33 35  1  0
 36 37  2  0
 36 38  1  0
 38 39  1  0
M  END
