
     RDKit          3D

 44 46  0  0  0  0  0  0  0  0999 V2000
    2.3600   -3.5790   -1.9120 C   0  0  0  0  0  0  0  0  0  0  0  0
    2.4100   -2.1560   -2.3910 C   0  0  0  0  0  0  0  0  0  0  0  0
    1.2450   -1.3040   -2.1820 C   0  0  0  0  0  0  0  0  0  0  0  0
    0.7360   -0.9660   -0.8190 C   0  0  1  0  0  0  0  0  0  0  0  0
    1.6150   -0.3080    0.0270 N   0  0  0  0  0  0  0  0  0  0  0  0
    2.4880    0.7650   -0.0550 C   0  0  0  0  0  0  0  0  0  0  0  0
    2.5620    1.3240   -1.1330 O   0  0  0  0  0  0  0  0  0  0  0  0
    3.2650    1.1820    1.0660 N   0  0  0  0  0  0  0  0  0  0  0  0
    4.2380    2.1720    1.0680 C   0  0  0  0  0  0  0  0  0  0  0  0
    4.9690    2.4840   -0.0510 C   0  0  0  0  0  0  0  0  0  0  0  0
    6.0610    3.3320    0.0830 C   0  0  0  0  0  0  0  0  0  0  0  0
    6.7840    3.6110   -1.0830 O   0  0  0  0  0  0  0  0  0  0  0  0
    7.9150    4.4130   -1.1600 C   0  0  0  0  0  0  0  0  0  0  0  0
    7.8020    5.8330   -0.7780 C   0  0  0  0  0  0  0  0  0  0  0  0
    6.4060    3.8530    1.2900 C   0  0  0  0  0  0  0  0  0  0  0  0
    5.6880    3.5680    2.4310 C   0  0  0  0  0  0  0  0  0  0  0  0
    4.6070    2.7160    2.2750 C   0  0  0  0  0  0  0  0  0  0  0  0
    3.9120    2.4570    3.4630 O   0  0  0  0  0  0  0  0  0  0  0  0
   -0.4240   -0.0290   -1.0360 C   0  0  0  0  0  0  0  0  0  0  0  0
   -0.4460    0.7140   -2.0840 O   0  0  0  0  0  0  0  0  0  0  0  0
   -1.4350    0.0810   -0.1800 O   0  0  0  0  0  0  0  0  0  0  0  0
   -2.6130    0.7610   -0.0540 C   0  0  0  0  0  0  0  0  0  0  0  0
   -3.6970    0.1070   -0.8690 C   0  0  0  0  0  0  0  0  0  0  0  0
   -3.3950   -0.5090   -1.8990 O   0  0  0  0  0  0  0  0  0  0  0  0
   -4.9520    0.2060   -0.3990 O   0  0  0  0  0  0  0  0  0  0  0  0
   -6.0720   -0.4100   -0.9550 C   0  0  1  0  0  0  0  0  0  0  0  0
   -6.4120   -1.5220    0.0940 C   0  0  0  0  0  0  0  0  0  0  0  0
   -7.1510    0.5780   -1.0530 C   0  0  0  0  0  0  0  0  0  0  0  0
   -8.3540    0.2000   -1.1760 O   0  0  0  0  0  0  0  0  0  0  0  0
   -6.8370    1.9920   -1.0170 N   0  0  0  0  0  0  0  0  0  0  0  0
   -7.8860    2.9590   -1.0970 C   0  0  0  0  0  0  0  0  0  0  0  0
   -8.8120    2.8650    0.1140 C   0  0  0  0  0  0  0  0  0  0  0  0
   -7.7750    3.1720    1.5650 S   0  0  0  0  0  0  0  0  0  0  0  0
   -8.1970    2.2740    2.7300 O   0  0  0  0  0  0  0  0  0  0  0  0
    0.2820   -2.1890   -0.1150 C   0  0  0  0  0  0  0  0  0  0  0  0
   -0.9280   -2.7920   -0.2830 C   0  0  0  0  0  0  0  0  0  0  0  0
   -1.2890   -3.9760    0.3250 C   0  0  0  0  0  0  0  0  0  0  0  0
   -0.3360   -4.5650    1.1570 C   0  0  0  0  0  0  0  0  0  0  0  0
    0.9070   -3.9570    1.3340 C   0  0  0  0  0  0  0  0  0  0  0  0
    1.2420   -2.7820    0.7190 C   0  0  0  0  0  0  0  0  0  0  0  0
    1.8030   -4.6280    2.1860 O   0  0  0  0  0  0  0  0  0  0  0  0
    1.8480   -6.0460    2.1350 C   0  0  0  0  0  0  0  0  0  0  0  0
    0.4810   -6.6420    2.2170 C   0  0  0  0  0  0  0  0  0  0  0  0
   -0.5630   -5.7610    1.8350 O   0  0  0  0  0  0  0  0  0  0  0  0
  1  2  1  0
  2  3  1  0
  4  3  1  6
  4  5  1  0
  4 19  1  0
  4 35  1  0
  5  6  1  0
  6  7  2  0
  6  8  1  0
  8  9  1  0
  9 10  2  0
  9 17  1  0
 10 11  1  0
 11 12  1  0
 11 15  2  0
 12 13  1  0
 13 14  1  0
 15 16  1  0
 16 17  2  0
 17 18  1  0
 19 20  2  0
 19 21  1  0
 21 22  1  0
 22 23  1  0
 23 24  2  0
 23 25  1  0
 25 26  1  0
 26 27  1  1
 26 28  1  0
 28 29  2  0
 28 30  1  0
 30 31  1  0
 31 32  1  0
 32 33  1  0
 33 34  2  0
 35 36  2  0
 35 40  1  0
 36 37  1  0
 37 38  2  0
 38 39  1  0
 38 44  1  0
 39 40  2  0
 39 41  1  0
 41 42  1  0
 42 43  1  0
 43 44  1  0
M  END
