
     RDKit          3D

 44 46  0  0  0  0  0  0  0  0999 V2000
    9.7160   -2.4830    3.9200 C   0  0  0  0  0  0  0  0  0  0  0  0
    9.5730   -1.1950    3.4550 O   0  0  0  0  0  0  0  0  0  0  0  0
   10.5660   -0.8450    2.5390 C   0  0  0  0  0  0  0  0  0  0  0  0
   10.3690    0.5750    2.0540 C   0  0  0  0  0  0  0  0  0  0  0  0
    9.1440    0.7710    1.4210 O   0  0  0  0  0  0  0  0  0  0  0  0
    8.7120    0.1080    0.2830 C   0  0  0  0  0  0  0  0  0  0  0  0
    9.4720   -0.7450   -0.2380 O   0  0  0  0  0  0  0  0  0  0  0  0
    7.3830    0.4550   -0.2360 C   0  0  0  0  0  0  0  0  0  0  0  0
    7.0260   -0.2870   -1.4270 N   0  0  0  0  0  0  0  0  0  0  0  0
    5.7530   -0.0100   -1.9980 C   0  0  0  0  0  0  0  0  0  0  0  0
    4.9910    0.8610   -1.4520 O   0  0  0  0  0  0  0  0  0  0  0  0
    5.2490   -0.6430   -3.1590 N   0  0  0  0  0  0  0  0  0  0  0  0
    3.9460   -0.2990   -3.6710 C   0  0  0  0  0  0  0  0  0  0  0  0
    2.8820   -0.5660   -2.6860 C   0  0  0  0  0  0  0  0  0  0  0  0
    2.8440   -1.6130   -1.7900 C   0  0  0  0  0  0  0  0  0  0  0  0
    1.6760   -1.4620   -1.0780 C   0  0  0  0  0  0  0  0  0  0  0  0
    1.0440   -0.3370   -1.5590 C   0  0  0  0  0  0  0  0  0  0  0  0
   -0.2320    0.2340   -1.1160 C   0  0  0  0  0  0  0  0  0  0  0  0
   -0.7190    1.3820   -1.6990 C   0  0  0  0  0  0  0  0  0  0  0  0
   -1.9340    1.9390   -1.2870 C   0  0  0  0  0  0  0  0  0  0  0  0
   -2.6750    1.3600   -0.2900 C   0  0  0  0  0  0  0  0  0  0  0  0
   -3.8840    1.8750    0.1540 O   0  0  0  0  0  0  0  0  0  0  0  0
   -4.4550    3.0490   -0.3880 C   0  0  0  0  0  0  0  0  0  0  0  0
   -5.7430    3.3450    0.2880 C   0  0  0  0  0  0  0  0  0  0  0  0
   -6.1510    2.5780    1.1880 O   0  0  0  0  0  0  0  0  0  0  0  0
   -6.4490    4.4740   -0.1110 O   0  0  0  0  0  0  0  0  0  0  0  0
   -7.6670    4.7390    0.5400 C   0  0  0  0  0  0  0  0  0  0  0  0
   -8.2490    5.9740   -0.0280 C   0  0  0  0  0  0  0  0  0  0  0  0
   -9.5030    6.4550    0.4780 N   0  0  0  0  0  0  0  0  0  0  0  0
   -7.6510    6.5820   -0.9340 O   0  0  0  0  0  0  0  0  0  0  0  0
   -2.1900    0.2090    0.2960 C   0  0  0  0  0  0  0  0  0  0  0  0
   -2.9250   -0.3920    1.3070 O   0  0  0  0  0  0  0  0  0  0  0  0
   -3.9000   -1.3220    0.9740 C   0  0  0  0  0  0  0  0  0  0  0  0
   -4.0750   -1.5810   -0.2430 O   0  0  0  0  0  0  0  0  0  0  0  0
   -4.6850   -1.9650    2.0570 C   0  0  0  0  0  0  0  0  0  0  0  0
   -5.6510   -2.9000    1.4550 C   0  0  0  0  0  0  0  0  0  0  0  0
   -5.2880   -4.2050    1.2420 C   0  0  0  0  0  0  0  0  0  0  0  0
   -6.2000   -5.0960    0.6730 C   0  0  0  0  0  0  0  0  0  0  0  0
   -7.4690   -4.6290    0.3330 C   0  0  0  0  0  0  0  0  0  0  0  0
   -7.8450   -3.3200    0.5420 C   0  0  0  0  0  0  0  0  0  0  0  0
   -9.4770   -2.7570    0.0950 S   0  0  0  0  0  0  0  0  0  0  0  0
   -6.9000   -2.4630    1.1140 C   0  0  0  0  0  0  0  0  0  0  0  0
   -0.9770   -0.3410   -0.1200 C   0  0  0  0  0  0  0  0  0  0  0  0
    1.8010    0.1520   -2.5070 O   0  0  0  0  0  0  0  0  0  0  0  0
  1  2  1  0
  2  3  1  0
  3  4  1  0
  4  5  1  0
  5  6  1  0
  6  7  2  0
  6  8  1  0
  8  9  1  0
  9 10  1  0
 10 11  2  0
 10 12  1  0
 12 13  1  0
 13 14  1  0
 14 15  2  0
 14 44  1  0
 15 16  1  0
 16 17  2  0
 17 18  1  0
 17 44  1  0
 18 19  2  0
 18 43  1  0
 19 20  1  0
 20 21  2  0
 21 22  1  0
 21 31  1  0
 22 23  1  0
 23 24  1  0
 24 25  2  0
 24 26  1  0
 26 27  1  0
 27 28  1  0
 28 29  1  0
 28 30  2  0
 31 32  1  0
 31 43  2  0
 32 33  1  0
 33 34  2  0
 33 35  1  0
 35 36  1  0
 36 37  2  0
 36 42  1  0
 37 38  1  0
 38 39  2  0
 39 40  1  0
 40 41  1  0
 40 42  2  0
M  END
