
     RDKit          3D

 44 47  0  0  0  0  0  0  0  0999 V2000
   12.1260   -0.1210   -1.2460 C   0  0  0  0  0  0  0  0  0  0  0  0
   10.8380   -0.5500   -0.6820 N   0  0  0  0  0  0  0  0  0  0  0  0
   11.0380   -1.6070    0.3090 C   0  0  1  0  0  0  0  0  0  0  0  0
   11.8580   -1.0690    1.4520 C   0  0  0  0  0  0  0  0  0  0  0  0
    9.7090   -2.0020    0.7910 C   0  0  0  0  0  0  0  0  0  0  0  0
    9.2300   -2.2660    2.0660 C   0  0  0  0  0  0  0  0  0  0  0  0
    7.9570   -2.6070    2.2110 C   0  0  0  0  0  0  0  0  0  0  0  0
    7.1110   -2.7060    1.1630 C   0  0  0  0  0  0  0  0  0  0  0  0
    5.7310   -3.0420    0.9700 C   0  0  0  0  0  0  0  0  0  0  0  0
    4.8420   -2.0120    1.2900 O   0  0  0  0  0  0  0  0  0  0  0  0
    4.9090   -0.8010    0.6470 C   0  0  0  0  0  0  0  0  0  0  0  0
    5.7720   -0.6140   -0.2310 O   0  0  0  0  0  0  0  0  0  0  0  0
    3.9650    0.2490    1.0060 C   0  0  0  0  0  0  0  0  0  0  0  0
    2.9550    0.1330    1.9640 C   0  0  0  0  0  0  0  0  0  0  0  0
    2.2910    1.3300    2.0040 C   0  0  0  0  0  0  0  0  0  0  0  0
    2.8970    2.1500    1.0810 C   0  0  0  0  0  0  0  0  0  0  0  0
    2.5160    3.5770    0.7610 C   0  0  0  0  0  0  0  0  0  0  0  0
    1.9690    3.6010   -0.5230 O   0  0  0  0  0  0  0  0  0  0  0  0
    0.8510    2.9060   -0.9370 C   0  0  0  0  0  0  0  0  0  0  0  0
    0.2580    2.1830   -0.0960 O   0  0  0  0  0  0  0  0  0  0  0  0
    0.3550    3.0110   -2.3540 C   0  0  0  0  0  0  0  0  0  0  0  0
   -0.7760    2.2130   -2.5840 O   0  0  0  0  0  0  0  0  0  0  0  0
   -1.9890    2.2990   -1.9600 C   0  0  0  0  0  0  0  0  0  0  0  0
   -2.1300    3.1840   -1.0810 O   0  0  0  0  0  0  0  0  0  0  0  0
   -3.1160    1.4340   -2.2530 C   0  0  0  0  0  0  0  0  0  0  0  0
   -2.9590    0.5570   -3.1160 O   0  0  0  0  0  0  0  0  0  0  0  0
   -4.3310    1.5890   -1.5850 N   0  0  0  0  0  0  0  0  0  0  0  0
   -5.5160    0.8490   -1.7450 C   0  0  0  0  0  0  0  0  0  0  0  0
   -5.6580   -0.0940   -2.7210 C   0  0  0  0  0  0  0  0  0  0  0  0
   -6.8570   -0.8100   -2.8290 C   0  0  0  0  0  0  0  0  0  0  0  0
   -7.9160   -0.6110   -1.9910 C   0  0  0  0  0  0  0  0  0  0  0  0
   -9.1290   -1.1420   -1.8840 O   0  0  0  0  0  0  0  0  0  0  0  0
   -9.7910   -0.6040   -0.8960 C   0  0  0  0  0  0  0  0  0  0  0  0
  -11.1740   -0.9400   -0.4710 C   0  0  0  0  0  0  0  0  0  0  0  0
  -11.8120   -1.8450   -1.0700 O   0  0  0  0  0  0  0  0  0  0  0  0
  -11.7830   -0.2540    0.5970 N   0  0  0  0  0  0  0  0  0  0  0  0
  -13.1170   -0.5400    1.0490 C   0  0  0  0  0  0  0  0  0  0  0  0
  -13.2040   -1.9610    1.5170 C   0  0  0  0  0  0  0  0  0  0  0  0
  -12.3070   -2.1660    2.5760 O   0  0  0  0  0  0  0  0  0  0  0  0
   -8.9640    0.3330   -0.3250 C   0  0  0  0  0  0  0  0  0  0  0  0
   -7.7670    0.3440   -1.0060 C   0  0  0  0  0  0  0  0  0  0  0  0
   -6.5860    1.0570   -0.8910 C   0  0  0  0  0  0  0  0  0  0  0  0
    3.8610    1.4590    0.5380 O   0  0  0  0  0  0  0  0  0  0  0  0
    8.2640   -2.2570   -0.2270 S   0  0  0  0  0  0  0  0  0  0  0  0
  1  2  1  0
  2  3  1  0
  3  4  1  1
  3  5  1  0
  5  6  2  0
  5 44  1  0
  6  7  1  0
  7  8  2  0
  8  9  1  0
  8 44  1  0
  9 10  1  0
 10 11  1  0
 11 12  2  0
 11 13  1  0
 13 14  2  0
 13 43  1  0
 14 15  1  0
 15 16  2  0
 16 17  1  0
 16 43  1  0
 17 18  1  0
 18 19  1  0
 19 20  2  0
 19 21  1  0
 21 22  1  0
 22 23  1  0
 23 24  2  0
 23 25  1  0
 25 26  2  0
 25 27  1  0
 27 28  1  0
 28 29  2  0
 28 42  1  0
 29 30  1  0
 30 31  2  0
 31 32  1  0
 31 41  1  0
 32 33  1  0
 33 34  1  0
 33 40  2  0
 34 35  2  0
 34 36  1  0
 36 37  1  0
 37 38  1  0
 38 39  1  0
 40 41  1  0
 41 42  2  0
M  END
