
     RDKit          3D

 14 14  0  0  0  0  0  0  0  0999 V2000
   -4.2300   -0.1390    0.3570 C   0  0  0  0  0  0  0  0  0  0  0  0
   -3.1590    0.5720   -0.2200 O   0  0  0  0  0  0  0  0  0  0  0  0
   -1.8560    0.3080    0.0870 C   0  0  0  0  0  0  0  0  0  0  0  0
   -1.1170   -0.4200   -0.7320 C   0  0  0  0  0  0  0  0  0  0  0  0
   -1.6980   -0.9180   -1.9270 N   0  0  0  0  0  0  0  0  0  0  0  0
    0.2890   -0.6540   -0.3160 C   0  0  1  0  0  0  0  0  0  0  0  0
    1.0460   -1.1330   -1.3760 O   0  0  0  0  0  0  0  0  0  0  0  0
    0.8510    0.6500    0.1640 C   0  0  2  0  0  0  0  0  0  0  0  0
    2.0660    0.4880    0.8700 O   0  0  0  0  0  0  0  0  0  0  0  0
    3.2010   -0.0600    0.3570 C   0  0  0  0  0  0  0  0  0  0  0  0
    4.3800    0.4230    0.7030 C   0  0  0  0  0  0  0  0  0  0  0  0
    5.5610   -0.1240    0.1900 O   0  0  0  0  0  0  0  0  0  0  0  0
    0.0070    1.3960    0.9420 O   0  0  0  0  0  0  0  0  0  0  0  0
   -1.1600    0.7920    1.3240 C   0  0  0  0  0  0  0  0  0  0  0  0
  1  2  1  0
  2  3  1  0
  3  4  2  0
  3 14  1  0
  4  5  1  0
  4  6  1  0
  6  7  1  6
  6  8  1  0
  8  9  1  1
  8 13  1  0
  9 10  1  0
 10 11  2  3
 11 12  1  0
 13 14  1  0
M  END
