
     RDKit          3D

 14 14  0  0  0  0  0  0  0  0999 V2000
   -1.4850   -2.1990    0.6040 N   0  0  0  0  0  0  0  0  0  0  0  0
   -1.3910   -1.4350   -0.6440 C   0  0  2  0  0  0  0  0  0  0  0  0
   -0.4630   -2.1270   -1.4460 O   0  0  0  0  0  0  0  0  0  0  0  0
   -0.7620   -0.1120   -0.2970 C   0  0  1  0  0  0  0  0  0  0  0  0
   -1.5320    0.6260    0.7700 C   0  0  0  0  0  0  0  0  0  0  0  0
   -2.9500    0.9260    0.3570 C   0  0  2  0  0  0  0  0  0  0  0  0
   -2.9450    1.7110   -0.7830 O   0  0  0  0  0  0  0  0  0  0  0  0
   -3.5200    1.6770    1.4020 O   0  0  0  0  0  0  0  0  0  0  0  0
    0.4960   -0.4030    0.2410 O   0  0  0  0  0  0  0  0  0  0  0  0
    1.5340    0.1490   -0.4600 C   0  0  1  0  0  0  0  0  0  0  0  0
    2.2940    1.0660    0.5060 C   0  0  0  0  0  0  0  0  0  0  0  0
    3.7360    0.6990    0.2090 C   0  0  0  0  0  0  0  0  0  0  0  0
    3.7110    0.0140   -1.0080 O   0  0  0  0  0  0  0  0  0  0  0  0
    2.6170   -0.8420   -0.8140 C   0  0  0  0  0  0  0  0  0  0  0  0
  2  1  1  1
  2  3  1  0
  2  4  1  0
  4  5  1  1
  4  9  1  0
  5  6  1  0
  6  7  1  6
  6  8  1  0
 10  9  1  1
 10 11  1  0
 10 14  1  0
 11 12  1  0
 12 13  1  0
 13 14  1  0
M  END
