
     RDKit          3D

 15 15  0  0  0  0  0  0  0  0999 V2000
    4.4480    0.3500   -0.4230 C   0  0  0  0  0  0  0  0  0  0  0  0
    3.0840    0.2600    0.1640 C   0  0  0  0  0  0  0  0  0  0  0  0
    2.9120    0.3430    1.4240 O   0  0  0  0  0  0  0  0  0  0  0  0
    1.9170    0.0800   -0.6250 N   0  0  0  0  0  0  0  0  0  0  0  0
    0.6130   -0.0040   -0.0400 C   0  0  1  0  0  0  0  0  0  0  0  0
   -0.3220    1.0710   -0.4830 C   0  0  2  0  0  0  0  0  0  0  0  0
   -0.7180    1.9050    0.5810 O   0  0  0  0  0  0  0  0  0  0  0  0
   -1.4140    0.6460   -1.1800 O   0  0  0  0  0  0  0  0  0  0  0  0
   -2.1970   -0.2990   -0.6050 C   0  0  2  0  0  0  0  0  0  0  0  0
   -3.4300    0.2190    0.0810 C   0  0  0  0  0  0  0  0  0  0  0  0
   -3.1720    1.0990    1.1020 O   0  0  0  0  0  0  0  0  0  0  0  0
   -1.4240   -1.2220    0.3450 C   0  0  2  0  0  0  0  0  0  0  0  0
   -1.2580   -0.5510    1.5320 O   0  0  0  0  0  0  0  0  0  0  0  0
   -0.0390   -1.3480   -0.2980 C   0  0  2  0  0  0  0  0  0  0  0  0
    0.6670   -2.4030    0.2080 O   0  0  0  0  0  0  0  0  0  0  0  0
  1  2  1  0
  2  3  2  0
  2  4  1  0
  5  4  1  6
  5  6  1  0
  5 14  1  0
  6  7  1  1
  6  8  1  0
  8  9  1  0
  9 10  1  1
  9 12  1  0
 10 11  1  0
 12 13  1  1
 12 14  1  0
 14 15  1  1
M  END
