
     RDKit          3D

 22 22  0  0  0  0  0  0  0  0999 V2000
    0.4520   -2.3320    1.7670 C   0  0  0  0  0  0  0  0  0  0  0  0
    0.8500   -2.1300    0.3390 C   0  0  0  0  0  0  0  0  0  0  0  0
    0.7410   -0.6960   -0.1190 C   0  0  2  0  0  0  0  0  0  0  0  0
    1.6040    0.1080    0.7020 N   0  0  0  0  0  0  0  0  0  0  0  0
    2.7120    0.7770    0.1170 C   0  0  0  0  0  0  0  0  0  0  0  0
    2.9160    0.6480   -1.1320 O   0  0  0  0  0  0  0  0  0  0  0  0
    3.6290    1.6190    0.9300 C   0  0  0  0  0  0  0  0  0  0  0  0
    4.7320    2.1990    0.0740 C   0  0  0  0  0  0  0  0  0  0  0  0
    5.5590    1.1690   -0.5630 C   0  0  0  0  0  0  0  0  0  0  0  0
    6.6050    1.5860   -1.4200 N   0  0  0  0  0  0  0  0  0  0  0  0
    5.3150   -0.0440   -0.3300 O   0  0  0  0  0  0  0  0  0  0  0  0
   -0.6550   -0.2070   -0.1260 C   0  0  0  0  0  0  0  0  0  0  0  0
   -0.9020    0.8150    0.5640 O   0  0  0  0  0  0  0  0  0  0  0  0
   -1.7070   -0.7980   -0.8380 N   0  0  0  0  0  0  0  0  0  0  0  0
   -3.0690   -0.3160   -0.8320 C   0  0  0  0  0  0  0  0  0  0  0  0
   -3.5670    0.1190   -1.9650 C   0  0  0  0  0  0  0  0  0  0  0  0
   -4.9270    0.6390   -2.1280 C   0  0  0  0  0  0  0  0  0  0  0  0
   -5.7120    0.6310   -0.8960 C   0  0  0  0  0  0  0  0  0  0  0  0
   -5.2630    0.2040    0.2670 C   0  0  0  0  0  0  0  0  0  0  0  0
   -3.8740   -0.3090    0.3640 C   0  0  0  0  0  0  0  0  0  0  0  0
   -3.4080   -0.7610    1.4910 C   0  0  0  0  0  0  0  0  0  0  0  0
   -4.4380   -0.7300    2.9390 S   0  0  0  0  0  0  0  0  0  0  0  0
  1  2  1  0
  3  2  1  1
  3  4  1  0
  3 12  1  0
  4  5  1  0
  5  6  2  0
  5  7  1  0
  7  8  1  0
  8  9  1  0
  9 10  1  0
  9 11  2  0
 12 13  2  0
 12 14  1  0
 14 15  1  0
 15 16  2  0
 15 20  1  0
 16 17  1  0
 17 18  1  0
 18 19  2  0
 19 20  1  0
 20 21  2  3
 21 22  1  0
M  END
