
     RDKit          3D

 22 24  0  0  0  0  0  0  0  0999 V2000
   -5.0360    0.3720   -1.7740 C   0  0  0  0  0  0  0  0  0  0  0  0
   -5.1010    0.8480   -0.3940 C   0  0  0  0  0  0  0  0  0  0  0  0
   -4.2380    0.5680    0.5340 C   0  0  0  0  0  0  0  0  0  0  0  0
   -4.4090    1.1160    1.9160 C   0  0  0  0  0  0  0  0  0  0  0  0
   -3.0630   -0.2810    0.3080 C   0  0  2  0  0  0  0  0  0  0  0  0
   -1.8380    0.5540    0.5890 C   0  0  0  0  0  0  0  0  0  0  0  0
   -0.6260   -0.0840   -0.0080 C   0  0  0  0  0  0  0  0  0  0  0  0
    0.5850    0.2680    0.4180 N   0  0  0  0  0  0  0  0  0  0  0  0
    1.7630   -0.2590   -0.0650 C   0  0  0  0  0  0  0  0  0  0  0  0
    2.9910    0.2450    0.5220 C   0  0  0  0  0  0  0  0  0  0  0  0
    4.3000    0.0020    0.3410 C   0  0  0  0  0  0  0  0  0  0  0  0
    5.0090    0.8120    1.2170 C   0  0  0  0  0  0  0  0  0  0  0  0
    6.4920    0.8090    1.2940 C   0  0  0  0  0  0  0  0  0  0  0  0
    4.1310    1.5400    1.9220 N   0  0  0  0  0  0  0  0  0  0  0  0
    2.9510    1.2040    1.5110 N   0  0  0  0  0  0  0  0  0  0  0  0
    1.7450   -1.2080   -1.0470 C   0  0  0  0  0  0  0  0  0  0  0  0
    2.9590   -1.7980   -1.5940 C   0  0  0  0  0  0  0  0  0  0  0  0
    0.4760   -1.6000   -1.5190 C   0  0  0  0  0  0  0  0  0  0  0  0
   -0.6640   -1.0380   -0.9970 C   0  0  0  0  0  0  0  0  0  0  0  0
   -1.9700   -1.4520   -1.4920 C   0  0  0  0  0  0  0  0  0  0  0  0
   -1.9960   -2.3260   -2.3970 O   0  0  0  0  0  0  0  0  0  0  0  0
   -3.0740   -0.8660   -0.9420 O   0  0  0  0  0  0  0  0  0  0  0  0
  1  2  1  0
  2  3  2  3
  3  4  1  0
  5  3  1  6
  5  6  1  0
  5 22  1  0
  6  7  1  0
  7  8  2  0
  7 19  1  0
  8  9  1  0
  9 10  1  0
  9 16  2  0
 10 11  1  0
 10 15  2  0
 11 12  2  0
 12 13  1  0
 12 14  1  0
 14 15  1  0
 16 17  1  0
 16 18  1  0
 18 19  2  0
 19 20  1  0
 20 21  2  0
 20 22  1  0
M  END
