
     RDKit          3D

 22 24  0  0  0  0  0  0  0  0999 V2000
    7.0120   -0.1300    1.1280 C   0  0  0  0  0  0  0  0  0  0  0  0
    6.3210   -0.9320    0.0230 C   0  0  0  0  0  0  0  0  0  0  0  0
    5.0810   -0.2890   -0.3590 N   0  0  0  0  0  0  0  0  0  0  0  0
    3.8920   -0.5570    0.2070 C   0  0  0  0  0  0  0  0  0  0  0  0
    2.9400    0.2330   -0.4040 C   0  0  0  0  0  0  0  0  0  0  0  0
    1.5190    0.2520   -0.0910 C   0  0  0  0  0  0  0  0  0  0  0  0
    1.1060   -0.5130    0.8140 O   0  0  0  0  0  0  0  0  0  0  0  0
    0.6400    1.1720   -0.8600 C   0  0  0  0  0  0  0  0  0  0  0  0
   -0.7020    0.9760   -0.4970 N   0  0  0  0  0  0  0  0  0  0  0  0
   -1.0980    1.3450    0.8090 C   0  0  0  0  0  0  0  0  0  0  0  0
   -2.6260    1.2110    0.8950 C   0  0  0  0  0  0  0  0  0  0  0  0
   -2.9280   -0.2490    0.9380 C   0  0  1  0  0  0  0  0  0  0  0  0
   -4.3820   -0.4740    0.6530 C   0  0  0  0  0  0  0  0  0  0  0  0
   -5.2750   -1.0050    1.4540 C   0  0  0  0  0  0  0  0  0  0  0  0
   -6.5880   -1.0300    0.7530 C   0  0  0  0  0  0  0  0  0  0  0  0
   -6.3120   -0.4370   -0.5550 C   0  0  0  0  0  0  0  0  0  0  0  0
   -5.0130   -0.1160   -0.6000 C   0  0  0  0  0  0  0  0  0  0  0  0
   -2.0570   -0.9840   -0.0220 C   0  0  0  0  0  0  0  0  0  0  0  0
   -1.3310   -0.1710   -1.0340 C   0  0  0  0  0  0  0  0  0  0  0  0
    3.5800    0.9770   -1.3430 N   0  0  0  0  0  0  0  0  0  0  0  0
    4.8660    0.6410   -1.2930 C   0  0  0  0  0  0  0  0  0  0  0  0
    5.7570    1.1450   -2.0400 O   0  0  0  0  0  0  0  0  0  0  0  0
  1  2  1  0
  2  3  1  0
  3  4  1  0
  3 21  1  0
  4  5  2  0
  5  6  1  0
  5 20  1  0
  6  7  2  0
  6  8  1  0
  8  9  1  0
  9 10  1  0
  9 19  1  0
 10 11  1  0
 11 12  1  0
 12 13  1  6
 12 18  1  0
 13 14  2  0
 13 17  1  0
 14 15  1  0
 15 16  1  0
 16 17  2  0
 18 19  1  0
 20 21  1  0
 21 22  2  0
M  END
