
     RDKit          3D

 21 23  0  0  0  0  0  0  0  0999 V2000
   -5.4710   -0.8390    1.3840 C   0  0  0  0  0  0  0  0  0  0  0  0
   -4.3660   -0.3270    0.5360 N   0  0  0  0  0  0  0  0  0  0  0  0
   -3.0420   -0.6200    0.9290 C   0  0  0  0  0  0  0  0  0  0  0  0
   -2.0110   -0.2020    0.2310 C   0  0  0  0  0  0  0  0  0  0  0  0
   -0.6250   -0.5210    0.6600 C   0  0  0  0  0  0  0  0  0  0  0  0
   -0.5220   -1.1920    1.6990 O   0  0  0  0  0  0  0  0  0  0  0  0
    0.4730   -0.0530   -0.1190 N   0  0  0  0  0  0  0  0  0  0  0  0
    1.8070   -0.3220    0.2360 C   0  0  0  0  0  0  0  0  0  0  0  0
    2.2040   -1.0410    1.3360 C   0  0  0  0  0  0  0  0  0  0  0  0
    3.5400   -1.2710    1.6300 C   0  0  0  0  0  0  0  0  0  0  0  0
    4.5080   -0.7860    0.8310 C   0  0  0  0  0  0  0  0  0  0  0  0
    4.1730   -0.0520   -0.2930 C   0  0  0  0  0  0  0  0  0  0  0  0
    5.2200    0.4210   -1.0780 C   0  0  0  0  0  0  0  0  0  0  0  0
    4.8900    1.1510   -2.1960 C   0  0  0  0  0  0  0  0  0  0  0  0
    3.5890    1.4080   -2.5340 C   0  0  0  0  0  0  0  0  0  0  0  0
    2.5830    0.9110   -1.7150 C   0  0  0  0  0  0  0  0  0  0  0  0
    2.8440    0.1750   -0.5850 C   0  0  0  0  0  0  0  0  0  0  0  0
   -2.2870    0.5530   -0.9300 N   0  0  0  0  0  0  0  0  0  0  0  0
   -3.4490    0.8520   -1.3410 C   0  0  0  0  0  0  0  0  0  0  0  0
   -3.6010    1.6170   -2.5230 O   0  0  0  0  0  0  0  0  0  0  0  0
   -4.6570    0.4370   -0.6380 C   0  0  0  0  0  0  0  0  0  0  0  0
  1  2  1  0
  2  3  1  0
  2 21  1  0
  3  4  2  0
  4  5  1  0
  4 18  1  0
  5  6  2  0
  5  7  1  0
  7  8  1  0
  8  9  2  0
  8 17  1  0
  9 10  1  0
 10 11  2  0
 11 12  1  0
 12 13  2  0
 12 17  1  0
 13 14  1  0
 14 15  2  0
 15 16  1  0
 16 17  2  0
 18 19  2  0
 19 20  1  0
 19 21  1  0
M  END
