
     RDKit          3D

 22 24  0  0  0  0  0  0  0  0999 V2000
    5.0130    3.0660   -0.7960 C   0  0  0  0  0  0  0  0  0  0  0  0
    3.7140    2.5010   -0.5930 N   0  0  0  0  0  0  0  0  0  0  0  0
    3.4950    1.2220   -0.4520 C   0  0  0  0  0  0  0  0  0  0  0  0
    2.1410    0.7430   -0.2500 C   0  0  0  0  0  0  0  0  0  0  0  0
    1.8940   -0.5260   -0.1060 C   0  0  0  0  0  0  0  0  0  0  0  0
    2.9230   -1.4830   -0.1400 N   0  0  0  0  0  0  0  0  0  0  0  0
    2.6490   -2.8600    0.0160 C   0  0  0  0  0  0  0  0  0  0  0  0
    3.6670   -3.6650   -0.0360 O   0  0  0  0  0  0  0  0  0  0  0  0
    1.3140   -3.3820    0.2260 C   0  0  0  0  0  0  0  0  0  0  0  0
    0.2910   -2.3750    0.2490 N   0  0  0  0  0  0  0  0  0  0  0  0
    0.5220   -1.0670    0.1030 C   0  0  0  0  0  0  0  0  0  0  0  0
   -0.5020   -0.1350    0.1360 C   0  0  0  0  0  0  0  0  0  0  0  0
   -1.8210   -0.5480    0.3240 C   0  0  0  0  0  0  0  0  0  0  0  0
   -2.9170    0.4070    0.3620 C   0  0  0  0  0  0  0  0  0  0  0  0
   -4.0200    0.1480    1.1330 C   0  0  0  0  0  0  0  0  0  0  0  0
   -5.0830    1.0330    1.1950 C   0  0  0  0  0  0  0  0  0  0  0  0
   -5.0550    2.2080    0.4730 C   0  0  0  0  0  0  0  0  0  0  0  0
   -3.9540    2.4890   -0.3100 C   0  0  0  0  0  0  0  0  0  0  0  0
   -2.9140    1.5910   -0.3510 C   0  0  0  0  0  0  0  0  0  0  0  0
   -2.0260   -1.8920    0.4710 C   0  0  0  0  0  0  0  0  0  0  0  0
   -1.0110   -2.7890    0.4360 C   0  0  0  0  0  0  0  0  0  0  0  0
   -1.2080   -4.0140    0.5710 O   0  0  0  0  0  0  0  0  0  0  0  0
  1  2  1  0
  2  3  2  3
  3  4  1  0
  4  5  2  3
  5  6  1  0
  5 11  1  0
  6  7  1  0
  7  8  2  0
  7  9  1  0
  9 10  1  0
 10 11  1  0
 10 21  1  0
 11 12  2  0
 12 13  1  0
 13 14  1  0
 13 20  2  0
 14 15  2  0
 14 19  1  0
 15 16  1  0
 16 17  2  0
 17 18  1  0
 18 19  2  0
 20 21  1  0
 21 22  2  0
M  END
