
     RDKit          3D

 22 24  0  0  0  0  0  0  0  0999 V2000
   -4.0180    2.3380   -2.0260 C   0  0  0  0  0  0  0  0  0  0  0  0
   -2.8310    1.6210   -1.6150 N   0  0  0  0  0  0  0  0  0  0  0  0
   -2.8730    0.8860   -0.3590 C   0  0  0  0  0  0  0  0  0  0  0  0
   -3.9620    0.9770    0.2120 O   0  0  0  0  0  0  0  0  0  0  0  0
   -1.7400    0.1770    0.0750 C   0  0  0  0  0  0  0  0  0  0  0  0
   -1.3420   -0.5690    1.0570 C   0  0  0  0  0  0  0  0  0  0  0  0
   -0.0190   -1.0610    1.0020 C   0  0  0  0  0  0  0  0  0  0  0  0
    0.8080   -0.7160   -0.1220 N   0  0  0  0  0  0  0  0  0  0  0  0
    2.0510   -0.4580    0.1030 C   0  0  0  0  0  0  0  0  0  0  0  0
    2.9380   -0.1030   -1.0020 C   0  0  0  0  0  0  0  0  0  0  0  0
    2.5570   -0.0110   -2.3310 C   0  0  0  0  0  0  0  0  0  0  0  0
    3.7070    0.3500   -3.0210 C   0  0  0  0  0  0  0  0  0  0  0  0
    4.7170    0.4590   -2.0960 C   0  0  0  0  0  0  0  0  0  0  0  0
    6.1500    0.8290   -2.3740 C   0  0  0  0  0  0  0  0  0  0  0  0
    4.2190    0.1830   -0.9150 O   0  0  0  0  0  0  0  0  0  0  0  0
    0.4850   -1.8590    2.0030 C   0  0  0  0  0  0  0  0  0  0  0  0
   -0.2520   -2.1950    3.0530 N   0  0  0  0  0  0  0  0  0  0  0  0
   -1.5220   -1.7630    3.1740 C   0  0  0  0  0  0  0  0  0  0  0  0
   -2.0490   -0.9520    2.1660 C   0  0  0  0  0  0  0  0  0  0  0  0
   -3.2850   -0.7010    2.5680 C   0  0  0  0  0  0  0  0  0  0  0  0
   -3.5670   -1.3600    3.8570 C   0  0  0  0  0  0  0  0  0  0  0  0
   -2.5030   -2.0070    4.2320 C   0  0  0  0  0  0  0  0  0  0  0  0
  1  2  1  0
  2  3  1  0
  3  4  2  0
  3  5  1  0
  5  6  2  3
  6  7  1  0
  6 19  1  0
  7  8  1  0
  7 16  2  0
  8  9  2  3
  9 10  1  0
 10 11  2  0
 10 15  1  0
 11 12  1  0
 12 13  2  0
 13 14  1  0
 13 15  1  0
 16 17  1  0
 17 18  2  0
 18 19  1  0
 18 22  1  0
 19 20  2  0
 20 21  1  0
 21 22  2  0
M  END
