
     RDKit          3D

 22 24  0  0  0  0  0  0  0  0999 V2000
   -3.3470    2.0040   -0.0960 C   0  0  0  0  0  0  0  0  0  0  0  0
   -3.7650    0.5560    0.0060 C   0  0  0  0  0  0  0  0  0  0  0  0
   -5.0370    0.1860   -0.3610 C   0  0  0  0  0  0  0  0  0  0  0  0
   -5.4790   -1.0640   -0.1500 N   0  0  0  0  0  0  0  0  0  0  0  0
   -4.6500   -1.9910    0.4370 C   0  0  0  0  0  0  0  0  0  0  0  0
   -3.3630   -1.6620    0.8200 C   0  0  0  0  0  0  0  0  0  0  0  0
   -2.9500   -0.3790    0.5880 C   0  0  0  0  0  0  0  0  0  0  0  0
   -1.5630    0.0860    0.9320 C   0  0  0  0  0  0  0  0  0  0  0  0
   -0.6340   -0.6790    0.1690 N   0  0  0  0  0  0  0  0  0  0  0  0
   -0.6210   -2.0460    0.1310 C   0  0  0  0  0  0  0  0  0  0  0  0
    0.7300   -2.6890   -0.1970 C   0  0  0  0  0  0  0  0  0  0  0  0
    1.7010   -2.1220    0.6950 O   0  0  0  0  0  0  0  0  0  0  0  0
    2.2220   -0.8610    0.3700 C   0  0  0  0  0  0  0  0  0  0  0  0
    3.5400   -0.6660    0.7710 C   0  0  0  0  0  0  0  0  0  0  0  0
    4.2340    0.5140    0.5120 C   0  0  0  0  0  0  0  0  0  0  0  0
    3.5570    1.5080   -0.1710 C   0  0  0  0  0  0  0  0  0  0  0  0
    4.2930    2.7120   -0.5520 C   0  0  0  0  0  0  0  0  0  0  0  0
    5.5130    2.8660   -0.3310 N   0  0  0  0  0  0  0  0  0  0  0  0
    6.4420    2.1250    0.2230 O   0  0  0  0  0  0  0  0  0  0  0  0
    2.2390    1.3780   -0.5860 C   0  0  0  0  0  0  0  0  0  0  0  0
    1.6070    0.1910   -0.3010 C   0  0  0  0  0  0  0  0  0  0  0  0
    0.1690    0.0920   -0.7380 C   0  0  0  0  0  0  0  0  0  0  0  0
  1  2  1  0
  2  3  2  0
  2  7  1  0
  3  4  1  0
  4  5  2  0
  5  6  1  0
  6  7  2  0
  7  8  1  0
  8  9  1  0
  9 10  1  0
  9 22  1  0
 10 11  1  0
 11 12  1  0
 12 13  1  0
 13 14  2  0
 13 21  1  0
 14 15  1  0
 15 16  2  0
 16 17  1  0
 16 20  1  0
 17 18  2  3
 18 19  1  0
 20 21  2  0
 21 22  1  0
M  END
