
     RDKit          3D

 24 24  0  0  0  0  0  0  0  0999 V2000
   -5.2750    1.1540    1.0880 C   0  0  0  0  0  0  0  0  0  0  0  0
   -4.8580    0.8810   -0.2970 C   0  0  0  0  0  0  0  0  0  0  0  0
   -3.5030    1.0940   -0.8060 C   0  0  2  0  0  0  0  0  0  0  0  0
   -3.6130    0.6590   -2.2990 C   0  0  0  0  0  0  0  0  0  0  0  0
   -2.7240    1.2200   -3.1410 O   0  0  0  0  0  0  0  0  0  0  0  0
   -2.2890    0.7150   -0.2400 N   0  0  1  0  0  0  0  0  0  0  0  0
   -2.1770    1.2210    1.1350 C   0  0  0  0  0  0  0  0  0  0  0  0
   -2.3600    0.0620    2.0580 C   0  0  0  0  0  0  0  0  0  0  0  0
   -2.6440   -1.0940    1.0790 C   0  0  0  0  0  0  0  0  0  0  0  0
   -1.8080   -0.5910   -0.0270 C   0  0  1  0  0  0  0  0  0  0  0  0
   -1.0750   -1.4050   -0.9430 C   0  0  0  0  0  0  0  0  0  0  0  0
    0.2000   -1.1860   -1.4090 N   0  0  0  0  0  0  0  0  0  0  0  0
    1.3630   -1.1460   -0.4500 C   0  0  0  0  0  0  0  0  0  0  0  0
    1.0120   -1.2860    0.6740 O   0  0  0  0  0  0  0  0  0  0  0  0
    2.5240   -0.9630   -1.1700 N   0  0  0  0  0  0  0  0  0  0  0  0
    3.6030   -1.1060    0.2010 C   0  0  0  0  0  0  0  0  0  0  0  0
    3.1180   -1.4640    1.1900 O   0  0  0  0  0  0  0  0  0  0  0  0
    4.9350   -0.7520   -0.1620 C   0  0  0  0  0  0  0  0  0  0  0  0
    5.2410   -0.0430   -1.1480 O   0  0  0  0  0  0  0  0  0  0  0  0
    6.0140   -1.2750    0.6870 N   0  0  0  0  0  0  0  0  0  0  0  0
    7.3230   -0.8410    0.2360 C   0  0  0  0  0  0  0  0  0  0  0  0
    7.4690    0.5970    0.5710 C   0  0  0  0  0  0  0  0  0  0  0  0
    6.4110    1.1450    1.4020 N   0  0  0  0  0  0  0  0  0  0  0  0
    8.3750    1.3520    0.2430 O   0  0  0  0  0  0  0  0  0  0  0  0
  1  2  1  0
  3  2  1  1
  3  4  1  0
  3  6  1  0
  4  5  1  0
  6  7  1  1
  6 10  1  0
  7  8  1  0
  8  9  1  0
  9 10  1  0
 10 11  1  6
 11 12  1  0
 12 13  1  0
 13 14  2  0
 13 15  1  0
 15 16  1  0
 16 17  2  0
 16 18  1  0
 18 19  2  0
 18 20  1  0
 20 21  1  0
 21 22  1  0
 22 23  1  0
 22 24  2  0
M  CHG  1   6   1
M  END
