
     RDKit          3D

 24 24  0  0  0  0  0  0  0  0999 V2000
   -7.4830    0.6630    1.3440 C   0  0  0  0  0  0  0  0  0  0  0  0
   -6.6720    0.0450    0.2910 N   0  0  0  0  0  0  0  0  0  0  0  0
   -5.2700    0.0590    0.4050 C   0  0  0  0  0  0  0  0  0  0  0  0
   -4.7670    0.6130    1.4440 O   0  0  0  0  0  0  0  0  0  0  0  0
   -4.3440   -0.5080   -0.5870 C   0  0  1  0  0  0  0  0  0  0  0  0
   -4.6570    0.0370   -1.9900 C   0  0  0  0  0  0  0  0  0  0  0  0
   -2.9570   -0.2420   -0.2720 N   0  0  0  0  0  0  0  0  0  0  0  0
   -1.8740   -1.1100   -0.5440 C   0  0  0  0  0  0  0  0  0  0  0  0
   -2.1200   -2.2150   -1.0860 O   0  0  0  0  0  0  0  0  0  0  0  0
   -0.4710   -0.7760   -0.2210 C   0  0  1  0  0  0  0  0  0  0  0  0
    0.2450   -0.7600   -1.5740 C   0  0  0  0  0  0  0  0  0  0  0  0
   -0.4290    0.5520    0.4450 C   0  0  0  0  0  0  0  0  0  0  0  0
    0.9920    0.9700    0.5970 C   0  0  0  0  0  0  0  0  0  0  0  0
    1.9220   -0.1140    1.0270 C   0  0  2  0  0  0  0  0  0  0  0  0
    3.1190   -0.0790    0.2710 N   0  0  0  0  0  0  0  0  0  0  0  0
    4.3710    0.5700    0.7870 C   0  0  0  0  0  0  0  0  0  0  0  0
    4.2570    1.0850    1.8410 O   0  0  0  0  0  0  0  0  0  0  0  0
    5.3890    0.3680   -0.1750 N   0  0  0  0  0  0  0  0  0  0  0  0
    6.6210    1.2740    0.6390 C   0  0  0  0  0  0  0  0  0  0  0  0
    6.2380    1.7460    1.6380 O   0  0  0  0  0  0  0  0  0  0  0  0
    7.8740    1.2720   -0.0590 C   0  0  0  0  0  0  0  0  0  0  0  0
    7.8780    0.7890   -1.3720 O   0  0  0  0  0  0  0  0  0  0  0  0
    1.3720   -1.4830    1.1560 C   0  0  0  0  0  0  0  0  0  0  0  0
    0.1560   -1.8180    0.5380 N   0  0  0  0  0  0  0  0  0  0  0  0
  1  2  1  0
  2  3  1  0
  3  4  2  0
  3  5  1  0
  5  6  1  6
  5  7  1  0
  7  8  1  0
  8  9  2  0
  8 10  1  0
 10 11  1  6
 10 12  1  0
 10 24  1  0
 12 13  1  0
 13 14  1  0
 14 15  1  6
 14 23  1  0
 15 16  1  0
 16 17  2  0
 16 18  1  0
 18 19  1  0
 19 20  2  0
 19 21  1  0
 21 22  1  0
 23 24  1  0
M  CHG  1  24   1
M  END
