
     RDKit          3D

 21 24  0  0  0  0  0  0  0  0999 V2000
    4.4140    1.1630   -0.6440 C   0  0  0  0  0  0  0  0  0  0  0  0
    3.5920   -0.0830   -0.7340 C   0  0  0  0  0  0  0  0  0  0  0  0
    2.3200    0.0180   -0.4730 C   0  0  0  0  0  0  0  0  0  0  0  0
    1.7710    1.2950   -0.1170 N   0  0  0  0  0  0  0  0  0  0  0  0
    0.3720    1.3560    0.1600 C   0  0  0  0  0  0  0  0  0  0  0  0
   -0.2100    2.5420    0.5040 N   0  0  0  0  0  0  0  0  0  0  0  0
   -1.5310    2.5540    0.7570 C   0  0  0  0  0  0  0  0  0  0  0  0
   -2.1210    3.8810    1.1310 C   0  0  0  0  0  0  0  0  0  0  0  0
   -2.2910    1.4490    0.6830 N   0  0  0  0  0  0  0  0  0  0  0  0
   -1.7150    0.2640    0.3390 C   0  0  0  0  0  0  0  0  0  0  0  0
   -2.4850   -0.9300    0.2490 N   0  0  0  0  0  0  0  0  0  0  0  0
   -3.9050   -0.8420    0.5360 C   0  0  1  0  0  0  0  0  0  0  0  0
   -4.7680   -2.0440    0.4620 C   0  0  0  0  0  0  0  0  0  0  0  0
   -4.3310   -1.5430    1.7980 C   0  0  0  0  0  0  0  0  0  0  0  0
   -0.3740    0.2010    0.0730 C   0  0  0  0  0  0  0  0  0  0  0  0
    0.2440   -1.0510   -0.2910 N   0  0  0  0  0  0  0  0  0  0  0  0
    1.4900   -1.1750   -0.5520 C   0  0  0  0  0  0  0  0  0  0  0  0
    2.0970   -2.4380   -0.9160 C   0  0  0  0  0  0  0  0  0  0  0  0
    3.3780   -2.5250   -1.1760 C   0  0  0  0  0  0  0  0  0  0  0  0
    4.1070   -4.0680   -1.6180 Cl  0  0  0  0  0  0  0  0  0  0  0  0
    4.2590   -1.3460   -1.1100 C   0  0  0  0  0  0  0  0  0  0  0  0
  1  2  1  0
  2  3  2  0
  2 21  1  0
  3  4  1  0
  3 17  1  0
  4  5  1  0
  5  6  2  0
  5 15  1  0
  6  7  1  0
  7  8  1  0
  7  9  2  0
  9 10  1  0
 10 11  1  0
 10 15  2  0
 12 11  1  6
 12 13  1  0
 12 14  1  0
 13 14  1  0
 15 16  1  0
 16 17  2  0
 17 18  1  0
 18 19  2  0
 19 20  1  0
 19 21  1  0
M  END
