
     RDKit          3D

 21 23  0  0  0  0  0  0  0  0999 V2000
    5.7140    1.1680   -0.3850 C   0  0  0  0  0  0  0  0  0  0  0  0
    4.8530    0.0040   -0.4300 N   0  0  0  0  0  0  0  0  0  0  0  0
    5.3420   -1.2360   -0.9940 C   0  0  0  0  0  0  0  0  0  0  0  0
    3.5190    0.0660    0.0800 C   0  0  0  0  0  0  0  0  0  0  0  0
    2.6750   -1.0200    0.0530 C   0  0  0  0  0  0  0  0  0  0  0  0
    1.4130   -0.8810    0.5590 C   0  0  0  0  0  0  0  0  0  0  0  0
    0.9900    0.3150    1.0870 C   0  0  0  0  0  0  0  0  0  0  0  0
   -0.2990    0.4700    1.6090 N   0  0  0  0  0  0  0  0  0  0  0  0
   -1.3590    0.4730    0.8520 C   0  0  0  0  0  0  0  0  0  0  0  0
   -2.6430    0.6350    1.4430 N   0  0  0  0  0  0  0  0  0  0  0  0
   -3.8400    0.2240    0.7950 C   0  0  0  0  0  0  0  0  0  0  0  0
   -5.0980    0.3650    1.3380 C   0  0  0  0  0  0  0  0  0  0  0  0
   -6.2450   -0.0420    0.6880 C   0  0  0  0  0  0  0  0  0  0  0  0
   -6.0970   -0.6180   -0.5670 C   0  0  0  0  0  0  0  0  0  0  0  0
   -4.8380   -0.7640   -1.1190 C   0  0  0  0  0  0  0  0  0  0  0  0
   -3.7050   -0.3490   -0.4520 C   0  0  0  0  0  0  0  0  0  0  0  0
   -2.4290   -0.5150   -1.0500 N   0  0  0  0  0  0  0  0  0  0  0  0
   -1.2940    0.3120   -0.6210 C   0  0  1  0  0  0  0  0  0  0  0  0
   -1.5350    1.9050   -1.4050 Cl  0  0  0  0  0  0  0  0  0  0  0  0
    1.8440    1.3920    1.1070 C   0  0  0  0  0  0  0  0  0  0  0  0
    3.0810    1.2420    0.6060 N   0  0  0  0  0  0  0  0  0  0  0  0
  1  2  1  0
  2  3  1  0
  2  4  1  0
  4  5  2  0
  4 21  1  0
  5  6  1  0
  6  7  2  0
  7  8  1  0
  7 20  1  0
  8  9  2  3
  9 10  1  0
  9 18  1  0
 10 11  1  0
 11 12  2  0
 11 16  1  0
 12 13  1  0
 13 14  2  0
 14 15  1  0
 15 16  2  0
 16 17  1  0
 17 18  1  0
 18 19  1  6
 20 21  2  0
M  END
