
     RDKit          3D

 27 31  0  0  0  0  0  0  0  0999 V2000
   -3.9750   -1.5210   -1.9360 C   0  0  0  0  0  0  0  0  0  0  0  0
   -3.3130   -1.9310   -0.6100 C   0  0  0  0  0  0  0  0  0  0  0  0
   -2.8850   -0.7190    0.0920 C   0  0  0  0  0  0  0  0  0  0  0  0
   -3.9050   -0.0420    0.7960 C   0  0  0  0  0  0  0  0  0  0  0  0
   -3.5790    1.1010    1.4550 C   0  0  0  0  0  0  0  0  0  0  0  0
   -2.2660    1.5870    1.4300 C   0  0  0  0  0  0  0  0  0  0  0  0
   -1.2920    0.9140    0.7390 C   0  0  0  0  0  0  0  0  0  0  0  0
   -1.5890   -0.2820    0.0390 C   0  0  0  0  0  0  0  0  0  0  0  0
   -0.5910   -0.9330   -0.6410 C   0  0  0  0  0  0  0  0  0  0  0  0
   -0.8320   -1.9830   -1.2650 O   0  0  0  0  0  0  0  0  0  0  0  0
    0.6640   -0.4870   -0.6700 N   0  0  0  0  0  0  0  0  0  0  0  0
    0.9680    0.6350   -0.0180 C   0  0  0  0  0  0  0  0  0  0  0  0
    2.3110    1.0640   -0.0840 C   0  0  0  0  0  0  0  0  0  0  0  0
    3.1800    0.4050   -0.7420 O   0  0  0  0  0  0  0  0  0  0  0  0
    3.9600   -0.0560   -1.6350 C   0  0  0  0  0  0  0  0  0  0  0  0
    3.8380    0.5690   -2.7950 O   0  0  0  0  0  0  0  0  0  0  0  0
    4.9530   -1.1690   -1.5400 C   0  0  2  0  0  0  0  0  0  0  0  0
    6.0170   -0.9190   -0.4550 C   0  0  0  0  0  0  0  0  0  0  0  0
    7.0480   -1.4470   -1.4180 C   0  0  0  0  0  0  0  0  0  0  0  0
    6.0890   -1.0470   -2.5430 C   0  0  0  0  0  0  0  0  0  0  0  0
    2.6260    2.2450    0.6030 C   0  0  0  0  0  0  0  0  0  0  0  0
    1.6930    2.9510    1.2990 C   0  0  0  0  0  0  0  0  0  0  0  0
    0.3800    2.5130    1.3490 C   0  0  0  0  0  0  0  0  0  0  0  0
    0.0360    1.3670    0.6940 C   0  0  0  0  0  0  0  0  0  0  0  0
   -4.8250    1.6240    2.1390 C   0  0  0  0  0  0  0  0  0  0  0  0
   -5.6320    0.3290    2.2790 C   0  0  0  0  0  0  0  0  0  0  0  0
   -5.3340   -0.3720    0.9550 C   0  0  0  0  0  0  0  0  0  0  0  0
  1  2  1  0
  2  3  1  0
  3  4  2  0
  3  8  1  0
  4  5  1  0
  4 27  1  0
  5  6  2  0
  5 25  1  0
  6  7  1  0
  7  8  2  0
  7 24  1  0
  8  9  1  0
  9 10  2  0
  9 11  1  0
 11 12  1  0
 12 13  2  0
 12 24  1  0
 13 14  1  0
 13 21  1  0
 14 15  1  0
 15 16  2  0
 17 15  1  6
 17 18  1  0
 17 20  1  0
 18 19  1  0
 19 20  1  0
 21 22  2  0
 22 23  1  0
 23 24  2  0
 25 26  1  0
 26 27  1  0
M  END
