
     RDKit          3D

 28 31  0  0  0  0  0  0  0  0999 V2000
    5.2570    0.2110   -2.7200 C   0  0  0  0  0  0  0  0  0  0  0  0
    4.3990    1.1280   -2.3710 C   0  0  0  0  0  0  0  0  0  0  0  0
    3.4340    0.9030   -1.3020 C   0  0  0  0  0  0  0  0  0  0  0  0
    2.4750    1.7860   -0.8350 C   0  0  0  0  0  0  0  0  0  0  0  0
    1.8060    1.1320    0.1760 C   0  0  0  0  0  0  0  0  0  0  0  0
    2.3720   -0.1250    0.2950 C   0  0  0  0  0  0  0  0  0  0  0  0
    3.3190   -0.1680   -0.6120 O   0  0  0  0  0  0  0  0  0  0  0  0
    1.9770   -1.1720    1.2450 C   0  0  0  0  0  0  0  0  0  0  0  0
    2.6690   -1.7410    2.2350 C   0  0  0  0  0  0  0  0  0  0  0  0
    1.9100   -2.7530    2.9620 C   0  0  0  0  0  0  0  0  0  0  0  0
    0.6150   -2.7170    2.2340 C   0  0  0  0  0  0  0  0  0  0  0  0
    0.6640   -1.8220    1.2650 C   0  0  0  0  0  0  0  0  0  0  0  0
   -0.3680   -1.5410    0.3950 O   0  0  0  0  0  0  0  0  0  0  0  0
   -0.2930   -1.4360   -1.0040 C   0  0  0  0  0  0  0  0  0  0  0  0
   -1.6890   -1.2030   -1.4470 C   0  0  0  0  0  0  0  0  0  0  0  0
   -1.9380   -1.8820   -2.6610 C   0  0  0  0  0  0  0  0  0  0  0  0
   -3.1520   -1.8370   -3.2870 C   0  0  0  0  0  0  0  0  0  0  0  0
   -4.1500   -1.1030   -2.7050 C   0  0  0  0  0  0  0  0  0  0  0  0
   -5.4000   -1.0200   -3.2910 F   0  0  0  0  0  0  0  0  0  0  0  0
   -3.8890   -0.4530   -1.5300 C   0  0  0  0  0  0  0  0  0  0  0  0
   -2.6590   -0.4670   -0.8470 C   0  0  0  0  0  0  0  0  0  0  0  0
   -2.6160    0.3040    0.3830 C   0  0  0  0  0  0  0  0  0  0  0  0
   -3.6240    0.1120    1.1920 O   0  0  0  0  0  0  0  0  0  0  0  0
   -1.6930    1.2330    0.8880 N   0  0  0  0  0  0  0  0  0  0  0  0
   -1.8860    1.7600    2.2650 C   0  0  0  0  0  0  0  0  0  0  0  0
   -2.7560    3.0170    2.2050 C   0  0  0  0  0  0  0  0  0  0  0  0
   -0.5360    1.7960    0.2520 C   0  0  0  0  0  0  0  0  0  0  0  0
    0.7270    1.6630    1.0100 C   0  0  0  0  0  0  0  0  0  0  0  0
  1  2  2  0
  2  3  1  0
  3  4  2  0
  3  7  1  0
  4  5  1  0
  5  6  2  0
  5 28  1  0
  6  7  1  0
  6  8  1  0
  8  9  2  0
  8 12  1  0
  9 10  1  0
 10 11  1  0
 11 12  2  0
 12 13  1  0
 13 14  1  0
 14 15  1  0
 15 16  2  0
 15 21  1  0
 16 17  1  0
 17 18  2  0
 18 19  1  0
 18 20  1  0
 20 21  2  0
 21 22  1  0
 22 23  2  0
 22 24  1  0
 24 25  1  0
 24 27  1  0
 25 26  1  0
 27 28  1  0
M  END
