
     RDKit          3D

 22 22  0  0  0  0  0  0  0  0999 V2000
    5.1470   -0.2630    1.8410 N   0  0  0  0  0  0  0  0  0  0  0  0
    4.4690    0.5650    0.8530 C   0  0  0  0  0  0  0  0  0  0  0  0
    3.0080    0.4410    0.9660 C   0  0  0  0  0  0  0  0  0  0  0  0
    2.5250   -0.3070    1.8400 O   0  0  0  0  0  0  0  0  0  0  0  0
    2.1540    1.1520    0.1050 N   0  0  0  0  0  0  0  0  0  0  0  0
    2.7150    2.0220   -0.9010 C   0  0  0  0  0  0  0  0  0  0  0  0
    2.8950    3.4340   -0.3970 C   0  0  0  0  0  0  0  0  0  0  0  0
    3.4360    4.2600   -1.3740 O   0  0  0  0  0  0  0  0  0  0  0  0
    0.7080    1.0290    0.2060 C   0  0  0  0  0  0  0  0  0  0  0  0
    0.2020   -0.0990   -0.6780 C   0  0  0  0  0  0  0  0  0  0  0  0
   -1.2890   -0.2050   -0.5570 C   0  0  0  0  0  0  0  0  0  0  0  0
   -1.9290    0.5740    0.1930 O   0  0  0  0  0  0  0  0  0  0  0  0
   -2.0180   -1.1800   -1.2790 N   0  0  0  0  0  0  0  0  0  0  0  0
   -3.4330   -1.2190   -1.1110 C   0  0  0  0  0  0  0  0  0  0  0  0
   -4.1790   -0.7290   -2.1190 C   0  0  0  0  0  0  0  0  0  0  0  0
   -5.9500   -0.6960   -2.0870 S   0  0  0  0  0  0  0  0  0  0  0  0
   -6.4210   -1.6160   -0.5900 C   0  0  0  0  0  0  0  0  0  0  0  0
   -5.3980   -1.6400    0.3390 O   0  0  0  0  0  0  0  0  0  0  0  0
   -4.0110   -1.6890    0.1200 C   0  0  0  0  0  0  0  0  0  0  0  0
   -3.3300   -2.2110    1.1160 C   0  0  0  0  0  0  0  0  0  0  0  0
   -1.8990   -2.4770    1.2780 C   0  0  0  0  0  0  0  0  0  0  0  0
   -1.3870   -1.7720    2.3420 O   0  0  0  0  0  0  0  0  0  0  0  0
  1  2  1  0
  2  3  1  0
  3  4  2  0
  3  5  1  0
  5  6  1  0
  5  9  1  0
  6  7  1  0
  7  8  1  0
  9 10  1  0
 10 11  1  0
 11 12  2  0
 11 13  1  0
 13 14  1  0
 14 15  2  0
 14 19  1  0
 15 16  1  0
 16 17  1  0
 17 18  1  0
 18 19  1  0
 19 20  2  3
 20 21  1  0
 21 22  1  0
M  CHG  1   1   1
M  END
