
     RDKit          3D

 28 32  0  0  0  0  0  0  0  0999 V2000
    0.3090    0.0140    2.6910 O   0  0  0  0  0  0  0  0  0  0  0  0
    0.2320   -0.1200    1.4500 C   0  0  0  0  0  0  0  0  0  0  0  0
   -1.0490   -0.4300    0.8740 N   0  0  0  0  0  0  0  0  0  0  0  0
   -2.2370   -0.6090    1.6100 C   0  0  0  0  0  0  0  0  0  0  0  0
   -2.2490   -0.9080    2.9530 C   0  0  0  0  0  0  0  0  0  0  0  0
   -3.4160   -1.1850    3.6750 C   0  0  0  0  0  0  0  0  0  0  0  0
   -4.6200   -1.1650    3.0330 C   0  0  0  0  0  0  0  0  0  0  0  0
   -4.6400   -0.8680    1.6930 C   0  0  0  0  0  0  0  0  0  0  0  0
   -5.6500   -0.7870    0.8830 O   0  0  0  0  0  0  0  0  0  0  0  0
   -5.2740   -0.4740   -0.3240 C   0  0  0  0  0  0  0  0  0  0  0  0
   -5.9530   -0.2690   -1.5150 C   0  0  0  0  0  0  0  0  0  0  0  0
   -5.3160    0.0670   -2.6860 C   0  0  0  0  0  0  0  0  0  0  0  0
   -3.9470    0.2000   -2.6530 C   0  0  0  0  0  0  0  0  0  0  0  0
   -3.3130    0.5320   -3.8040 F   0  0  0  0  0  0  0  0  0  0  0  0
   -3.2130    0.0020   -1.4720 C   0  0  0  0  0  0  0  0  0  0  0  0
   -3.8850   -0.3340   -0.3250 C   0  0  0  0  0  0  0  0  0  0  0  0
   -3.4690   -0.5910    0.9740 C   0  0  0  0  0  0  0  0  0  0  0  0
    1.4420    0.0420    0.6140 C   0  0  0  0  0  0  0  0  0  0  0  0
    1.4890   -0.4740   -0.6480 C   0  0  0  0  0  0  0  0  0  0  0  0
    2.6310   -0.3170   -1.4500 C   0  0  0  0  0  0  0  0  0  0  0  0
    3.6840    0.3710   -0.9100 C   0  0  0  0  0  0  0  0  0  0  0  0
    3.6280    0.8900    0.3680 C   0  0  0  0  0  0  0  0  0  0  0  0
    2.4880    0.7240    1.1480 C   0  0  0  0  0  0  0  0  0  0  0  0
    4.7850    1.6100    0.8770 C   0  0  0  0  0  0  0  0  0  0  0  0
    4.5780    2.5120    1.7570 O   0  0  0  0  0  0  0  0  0  0  0  0
    6.1680    1.3300    0.4100 C   0  0  0  0  0  0  0  0  0  0  0  0
    6.1010    0.2960   -0.6870 C   0  0  0  0  0  0  0  0  0  0  0  0
    4.9550    0.6120   -1.6470 C   0  0  0  0  0  0  0  0  0  0  0  0
  1  2  2  0
  2  3  1  0
  2 18  1  0
  3  4  1  0
  4  5  2  0
  4 17  1  0
  5  6  1  0
  6  7  2  0
  7  8  1  0
  8  9  1  0
  8 17  2  0
  9 10  1  0
 10 11  2  0
 10 16  1  0
 11 12  1  0
 12 13  2  0
 13 14  1  0
 13 15  1  0
 15 16  2  0
 16 17  1  0
 18 19  2  0
 18 23  1  0
 19 20  1  0
 20 21  2  0
 21 22  1  0
 21 28  1  0
 22 23  2  0
 22 24  1  0
 24 25  2  0
 24 26  1  0
 26 27  1  0
 27 28  1  0
M  END
