
     RDKit          3D

 13 14  0  0  0  0  0  0  0  0999 V2000
   -3.9810    0.5910    0.3620 N   0  0  0  0  0  0  0  0  0  0  0  0
   -2.6500    1.0980    0.5290 C   0  0  0  0  0  0  0  0  0  0  0  0
   -1.6220    0.0980    0.1200 C   0  0  0  0  0  0  0  0  0  0  0  0
   -1.9190   -1.1440   -0.3550 C   0  0  0  0  0  0  0  0  0  0  0  0
   -0.9030   -2.0080   -0.7110 C   0  0  0  0  0  0  0  0  0  0  0  0
    0.4400   -1.6510   -0.6020 C   0  0  0  0  0  0  0  0  0  0  0  0
    0.7380   -0.3930   -0.1210 C   0  0  0  0  0  0  0  0  0  0  0  0
    2.1150   -0.0450   -0.0170 N   0  0  0  0  0  0  0  0  0  0  0  0
    3.0410   -0.4400    0.8640 C   0  0  0  0  0  0  0  0  0  0  0  0
    4.2400    0.1840    0.5420 C   0  0  0  0  0  0  0  0  0  0  0  0
    4.0260    0.9750   -0.5620 C   0  0  0  0  0  0  0  0  0  0  0  0
    2.7030    0.8150   -0.8880 C   0  0  0  0  0  0  0  0  0  0  0  0
   -0.2930    0.4520    0.2280 C   0  0  0  0  0  0  0  0  0  0  0  0
  1  2  1  0
  2  3  1  0
  3  4  2  0
  3 13  1  0
  4  5  1  0
  5  6  2  0
  6  7  1  0
  7  8  1  0
  7 13  2  0
  8  9  1  0
  8 12  1  0
  9 10  2  0
 10 11  1  0
 11 12  2  0
M  CHG  1   1   1
M  END
