
     RDKit          3D

 10 11  0  0  0  0  0  0  0  0999 V2000
    3.0170   -0.6300    0.0060 N   0  0  0  0  0  0  0  0  0  0  0  0
    1.6480   -0.1930    0.0100 C   0  0  0  0  0  0  0  0  0  0  0  0
    1.3290    1.1120    0.0670 N   0  0  0  0  0  0  0  0  0  0  0  0
    0.0560    1.5620    0.0730 C   0  0  0  0  0  0  0  0  0  0  0  0
   -0.9960    0.6610    0.0190 C   0  0  0  0  0  0  0  0  0  0  0  0
   -2.3370    0.7690    0.0080 N   0  0  0  0  0  0  0  0  0  0  0  0
   -2.8620   -0.4400   -0.0530 N   0  0  0  0  0  0  0  0  0  0  0  0
   -1.8700   -1.3600   -0.0840 C   0  0  0  0  0  0  0  0  0  0  0  0
   -0.6630   -0.6770   -0.0390 C   0  0  0  0  0  0  0  0  0  0  0  0
    0.6320   -1.0730   -0.0420 N   0  0  0  0  0  0  0  0  0  0  0  0
  1  2  1  0
  2  3  2  0
  2 10  1  0
  3  4  1  0
  4  5  2  0
  5  6  1  0
  5  9  1  0
  6  7  1  0
  7  8  2  0
  8  9  1  0
  9 10  2  0
M  END
