
     RDKit          3D

  9  9  0  0  0  0  0  0  0  0999 V2000
   -2.1780   -0.3080   -1.4260 C   0  0  0  0  0  0  0  0  0  0  0  0
   -1.6730   -0.1450   -0.2430 C   0  0  0  0  0  0  0  0  0  0  0  0
   -2.5500   -0.0950    0.9000 N   0  0  0  0  0  0  0  0  0  0  0  0
   -0.2500   -0.0060    0.0210 C   0  0  0  0  0  0  0  0  0  0  0  0
    0.1680    0.1590    1.2950 C   0  0  0  0  0  0  0  0  0  0  0  0
    1.5930    0.2920    1.4960 C   0  0  0  0  0  0  0  0  0  0  0  0
    2.4730    0.2600    0.5260 C   0  0  0  0  0  0  0  0  0  0  0  0
    2.0640    0.0830   -0.8620 C   0  0  0  0  0  0  0  0  0  0  0  0
    0.6550   -0.0470   -1.0490 N   0  0  0  0  0  0  0  0  0  0  0  0
  1  2  2  0
  2  3  1  0
  2  4  1  0
  4  5  2  0
  4  9  1  0
  5  6  1  0
  6  7  2  0
  7  8  1  0
  8  9  1  0
M  END
