
     RDKit          3D

 13 14  0  0  0  0  0  0  0  0999 V2000
   -3.4520    1.0600    0.5030 N   0  0  0  0  0  0  0  0  0  0  0  0
   -2.8380    0.4550   -0.6880 C   0  0  0  0  0  0  0  0  0  0  0  0
   -1.6030   -0.2790   -0.3040 C   0  0  0  0  0  0  0  0  0  0  0  0
   -1.6920   -1.6170    0.0460 C   0  0  0  0  0  0  0  0  0  0  0  0
   -0.5700   -2.3330    0.4080 C   0  0  0  0  0  0  0  0  0  0  0  0
    0.6700   -1.7080    0.4250 C   0  0  0  0  0  0  0  0  0  0  0  0
    0.7800   -0.3760    0.0800 C   0  0  0  0  0  0  0  0  0  0  0  0
    2.0450    0.3090    0.0840 N   0  0  0  0  0  0  0  0  0  0  0  0
    3.2030   -0.1800   -0.4110 C   0  0  0  0  0  0  0  0  0  0  0  0
    4.2220    0.7470   -0.2400 C   0  0  0  0  0  0  0  0  0  0  0  0
    3.6080    1.8210    0.3860 C   0  0  0  0  0  0  0  0  0  0  0  0
    2.3090    1.5140    0.5590 N   0  0  0  0  0  0  0  0  0  0  0  0
   -0.3590    0.3240   -0.2810 C   0  0  0  0  0  0  0  0  0  0  0  0
  1  2  1  0
  2  3  1  0
  3  4  2  0
  3 13  1  0
  4  5  1  0
  5  6  2  0
  6  7  1  0
  7  8  1  0
  7 13  2  0
  8  9  1  0
  8 12  1  0
  9 10  2  0
 10 11  1  0
 11 12  2  0
M  CHG  1   1   1
M  END
