
     RDKit          3D

  9 10  0  0  0  0  0  0  0  0999 V2000
   -2.0780    1.5480   -0.0040 N   0  0  0  0  0  0  0  0  0  0  0  0
   -1.1970    0.4310    0.0030 C   0  0  0  0  0  0  0  0  0  0  0  0
    0.1230    0.4880    0.0020 C   0  0  0  0  0  0  0  0  0  0  0  0
    1.2750    1.4120   -0.0040 C   0  0  0  0  0  0  0  0  0  0  0  0
    2.3450    0.6670    0.0010 C   0  0  0  0  0  0  0  0  0  0  0  0
    2.0350   -0.7400    0.0090 C   0  0  0  0  0  0  0  0  0  0  0  0
    0.6910   -0.8490    0.0100 C   0  0  0  0  0  0  0  0  0  0  0  0
   -0.4480   -1.7910    0.0170 C   0  0  0  0  0  0  0  0  0  0  0  0
   -1.6010   -0.9240    0.0120 N   0  0  0  0  0  0  0  0  0  0  0  0
  1  2  1  0
  2  3  2  0
  2  9  1  0
  3  4  1  0
  3  7  1  0
  4  5  2  0
  5  6  1  0
  6  7  2  0
  7  8  1  0
  8  9  1  0
M  END
