
     RDKit          3D

  9  9  0  0  0  0  0  0  0  0999 V2000
   -2.5090   -0.7400   -0.0010 C   0  0  0  0  0  0  0  0  0  0  0  0
   -1.1740   -0.0940    0.0140 C   0  0  0  0  0  0  0  0  0  0  0  0
   -1.2080    1.2220    0.0880 C   0  0  0  0  0  0  0  0  0  0  0  0
   -0.0530    2.1290    0.1200 C   0  0  0  0  0  0  0  0  0  0  0  0
    1.2350    1.8420    0.0810 C   0  0  0  0  0  0  0  0  0  0  0  0
    1.8780    0.5880   -0.0020 N   0  0  0  0  0  0  0  0  0  0  0  0
    1.2670   -0.7070   -0.0610 C   0  0  0  0  0  0  0  0  0  0  0  0
    2.1200   -1.8450   -0.1370 N   0  0  0  0  0  0  0  0  0  0  0  0
   -0.0350   -0.9970   -0.0540 C   0  0  0  0  0  0  0  0  0  0  0  0
  1  2  1  0
  2  3  2  0
  2  9  1  0
  3  4  1  0
  4  5  2  0
  5  6  1  0
  6  7  1  0
  7  8  1  0
  7  9  2  0
M  END
