
     RDKit          3D

 12 12  0  0  0  0  0  0  0  0999 V2000
   -1.6010   -1.9240   -0.4340 C   0  0  0  0  0  0  0  0  0  0  0  0
   -0.6190   -0.8360   -0.1980 C   0  0  0  0  0  0  0  0  0  0  0  0
    0.6440   -1.1650   -0.5180 C   0  0  0  0  0  0  0  0  0  0  0  0
    1.9300   -0.4890   -0.4790 C   0  0  0  0  0  0  0  0  0  0  0  0
    3.2760   -1.6140   -0.7980 S   0  0  0  0  0  0  0  0  0  0  0  0
    2.3500    0.7380   -0.2690 C   0  0  0  0  0  0  0  0  0  0  0  0
    1.6170    1.9840    0.0300 C   0  0  0  0  0  0  0  0  0  0  0  0
    0.3720    2.3080    0.3430 C   0  0  0  0  0  0  0  0  0  0  0  0
    0.1890    4.1920    0.5880 Br  0  0  0  0  0  0  0  0  0  0  0  0
   -0.8840    1.5850    0.5450 C   0  0  0  0  0  0  0  0  0  0  0  0
   -1.2750    0.3430    0.3310 C   0  0  0  0  0  0  0  0  0  0  0  0
   -2.6120    0.0850    0.6850 N   0  0  0  0  0  0  0  0  0  0  0  0
  1  2  1  0
  2  3  2  0
  2 11  1  0
  3  4  1  0
  4  5  1  0
  4  6  2  0
  6  7  1  0
  7  8  2  0
  8  9  1  0
  8 10  1  0
 10 11  2  0
 11 12  1  0
M  END
