
     RDKit          3D

 12 12  0  0  0  0  0  0  0  0999 V2000
   -2.9080   -1.3550    0.0610 C   0  0  0  0  0  0  0  0  0  0  0  0
   -2.2820   -0.0310   -0.2120 C   0  0  0  0  0  0  0  0  0  0  0  0
   -0.9670    0.0280   -0.2710 C   0  0  0  0  0  0  0  0  0  0  0  0
   -0.2340   -1.2120   -0.0630 C   0  0  0  0  0  0  0  0  0  0  0  0
    1.0540   -1.3640    0.2100 C   0  0  0  0  0  0  0  0  0  0  0  0
    2.0870   -0.3390    0.3770 C   0  0  0  0  0  0  0  0  0  0  0  0
    3.3450   -0.7660    0.8500 N   0  0  0  0  0  0  0  0  0  0  0  0
    1.9710    0.9640    0.1300 C   0  0  0  0  0  0  0  0  0  0  0  0
    0.8210    1.7360   -0.3640 C   0  0  0  0  0  0  0  0  0  0  0  0
    1.2050    3.5470   -0.8120 Br  0  0  0  0  0  0  0  0  0  0  0  0
   -0.4330    1.3540   -0.5400 C   0  0  0  0  0  0  0  0  0  0  0  0
   -1.5230    2.6010   -1.1610 S   0  0  0  0  0  0  0  0  0  0  0  0
  1  2  1  0
  2  3  2  3
  3  4  1  0
  3 11  1  0
  4  5  2  0
  5  6  1  0
  6  7  1  0
  6  8  2  0
  8  9  1  0
  9 10  1  0
  9 11  2  0
 11 12  1  0
M  END
