
     RDKit          3D

 12 12  0  0  0  0  0  0  0  0999 V2000
   -3.5670   -0.4970   -0.0850 C   0  0  0  0  0  0  0  0  0  0  0  0
   -2.9750    0.8080   -0.3580 C   0  0  0  0  0  0  0  0  0  0  0  0
   -1.6500    0.9320   -0.4150 C   0  0  0  0  0  0  0  0  0  0  0  0
   -0.8460   -0.2390   -0.2020 C   0  0  0  0  0  0  0  0  0  0  0  0
    0.4300   -0.4160   -0.1980 C   0  0  0  0  0  0  0  0  0  0  0  0
    1.0530   -2.1060    0.1220 S   0  0  0  0  0  0  0  0  0  0  0  0
    2.8040   -1.9960    0.0580 C   0  0  0  0  0  0  0  0  0  0  0  0
    3.8180   -3.5650    0.3450 Br  0  0  0  0  0  0  0  0  0  0  0  0
    3.4060   -0.8620   -0.1810 C   0  0  0  0  0  0  0  0  0  0  0  0
    2.7510    0.3950   -0.4140 C   0  0  0  0  0  0  0  0  0  0  0  0
    1.4370    0.5770   -0.4190 C   0  0  0  0  0  0  0  0  0  0  0  0
    1.0150    1.9450   -0.6790 N   0  0  0  0  0  0  0  0  0  0  0  0
  1  2  1  0
  2  3  2  3
  3  4  1  0
  4  5  2  3
  5  6  1  0
  5 11  1  0
  6  7  1  0
  7  8  1  0
  7  9  2  0
  9 10  1  0
 10 11  2  0
 11 12  1  0
M  END
