
     RDKit          3D

 26 27  0  0  0  0  0  0  0  0999 V2000
    6.5260   -0.9320    0.9670 C   0  0  0  0  0  0  0  0  0  0  0  0
    5.4880   -0.2860    0.0640 C   0  0  2  0  0  0  0  0  0  0  0  0
    6.0540    1.0230   -0.5080 C   0  0  0  0  0  0  0  0  0  0  0  0
    4.2760    0.0940    0.7720 C   0  0  0  0  0  0  0  0  0  0  0  0
    3.1510   -0.4980    0.2020 C   0  0  0  0  0  0  0  0  0  0  0  0
    1.8590   -0.2550    0.7390 C   0  0  0  0  0  0  0  0  0  0  0  0
    1.7400    0.6090    1.6890 O   0  0  0  0  0  0  0  0  0  0  0  0
    0.5980   -0.8800    0.2860 C   0  0  0  0  0  0  0  0  0  0  0  0
    0.4370   -2.0310   -0.1320 O   0  0  0  0  0  0  0  0  0  0  0  0
   -0.5800   -0.0910    0.3350 N   0  0  0  0  0  0  0  0  0  0  0  0
   -1.9370   -0.2220    0.1640 C   0  0  0  0  0  0  0  0  0  0  0  0
   -2.7130   -0.6770    1.2250 C   0  0  0  0  0  0  0  0  0  0  0  0
   -4.0530   -0.3900    1.2340 C   0  0  0  0  0  0  0  0  0  0  0  0
   -5.0640   -1.0300    2.5950 S   0  0  0  0  0  0  0  0  0  0  0  0
   -4.7260    0.3220    0.2480 C   0  0  0  0  0  0  0  0  0  0  0  0
   -6.0630    0.8380    0.5710 C   0  0  0  0  0  0  0  0  0  0  0  0
   -7.3760    0.6170   -0.3730 S   0  0  0  0  0  0  0  0  0  0  0  0
   -7.3620    2.2320   -1.6980 O   0  0  0  0  0  0  0  0  0  0  0  0
   -8.4600   -0.1300   -0.5420 F   0  0  0  0  0  0  0  0  0  0  0  0
   -8.1770    1.8370    0.2870 F   0  0  0  0  0  0  0  0  0  0  0  0
   -6.5920    0.1830   -1.6060 F   0  0  0  0  0  0  0  0  0  0  0  0
   -3.9440    0.7560   -0.8000 C   0  0  0  0  0  0  0  0  0  0  0  0
   -2.5870    0.5000   -0.8530 C   0  0  0  0  0  0  0  0  0  0  0  0
   -1.7920    0.8700   -1.9680 N   0  0  0  0  0  0  0  0  0  0  0  0
    3.5680   -1.2250   -1.0090 C   0  0  0  0  0  0  0  0  0  0  0  0
    5.0890   -1.1970   -1.0760 C   0  0  0  0  0  0  0  0  0  0  0  0
  2  1  1  1
  2  3  1  0
  2  4  1  0
  2 26  1  0
  4  5  2  0
  5  6  1  0
  5 25  1  0
  6  7  2  0
  6  8  1  0
  8  9  2  0
  8 10  1  0
 10 11  1  0
 11 12  2  0
 11 23  1  0
 12 13  1  0
 13 14  1  0
 13 15  2  0
 15 16  1  0
 15 22  1  0
 16 17  1  0
 17 18  2  0
 17 19  1  0
 17 20  1  0
 17 21  1  0
 22 23  2  0
 23 24  1  0
 25 26  1  0
M  END
