
     RDKit          3D

 15 16  0  0  0  0  0  0  0  0999 V2000
   -3.9390    0.7780    0.9030 C   0  0  0  0  0  0  0  0  0  0  0  0
   -3.5870   -0.1530   -0.1520 N   0  0  2  0  0  0  0  0  0  0  0  0
   -2.9310   -1.3190    0.3400 C   0  0  0  0  0  0  0  0  0  0  0  0
   -1.7290   -1.6770   -0.5100 C   0  0  0  0  0  0  0  0  0  0  0  0
   -0.8120   -0.5660   -0.4600 N   0  0  0  0  0  0  0  0  0  0  0  0
    0.5920   -0.6940   -0.2810 C   0  0  0  0  0  0  0  0  0  0  0  0
    1.2350   -1.8980   -0.2090 C   0  0  0  0  0  0  0  0  0  0  0  0
    2.6230   -1.9440   -0.0280 C   0  0  0  0  0  0  0  0  0  0  0  0
    3.3710   -0.7900    0.0800 C   0  0  0  0  0  0  0  0  0  0  0  0
    2.7310    0.4260    0.0080 C   0  0  0  0  0  0  0  0  0  0  0  0
    3.4720    1.7030    0.1160 C   0  0  0  0  0  0  0  0  0  0  0  0
    4.8990    1.4760    0.2770 N   0  0  0  0  0  0  0  0  0  0  0  0
    1.3800    0.4400   -0.1680 C   0  0  0  0  0  0  0  0  0  0  0  0
   -1.3880    0.7600   -0.6070 C   0  0  0  0  0  0  0  0  0  0  0  0
   -2.8030    0.5740   -1.1310 C   0  0  0  0  0  0  0  0  0  0  0  0
  2  1  1  1
  2  3  1  0
  2 15  1  0
  3  4  1  0
  4  5  1  0
  5  6  1  0
  5 14  1  0
  6  7  2  0
  6 13  1  0
  7  8  1  0
  8  9  2  0
  9 10  1  0
 10 11  1  0
 10 13  2  0
 11 12  1  0
 14 15  1  0
M  CHG  2   2   1  12   1
M  END
