
     RDKit          3D

 20 22  0  0  0  0  0  0  0  0999 V2000
   -3.4220    0.5890   -1.8210 C   0  0  0  0  0  0  0  0  0  0  0  0
   -3.2350    0.2830   -0.3630 C   0  0  1  0  0  0  0  0  0  0  0  0
   -4.4490   -0.1530    0.3870 C   0  0  0  0  0  0  0  0  0  0  0  0
   -3.8580   -0.7760    1.5930 C   0  0  0  0  0  0  0  0  0  0  0  0
   -4.4300   -0.8030    2.7130 O   0  0  0  0  0  0  0  0  0  0  0  0
   -2.6220   -1.2770    1.2080 O   0  0  0  0  0  0  0  0  0  0  0  0
   -2.2630   -0.8540   -0.0730 C   0  0  2  0  0  0  0  0  0  0  0  0
   -1.1710    0.2250   -0.1030 C   0  0  2  0  0  0  0  0  0  0  0  0
   -0.1070    0.0220    0.8190 N   0  0  0  0  0  0  0  0  0  0  0  0
    1.2380    0.0170    0.3570 C   0  0  0  0  0  0  0  0  0  0  0  0
    1.4670    0.1970   -0.8870 O   0  0  0  0  0  0  0  0  0  0  0  0
    2.3540   -0.1740    1.1830 N   0  0  0  0  0  0  0  0  0  0  0  0
    3.6820   -0.1740    0.6950 C   0  0  0  0  0  0  0  0  0  0  0  0
    4.6400    0.6560    1.0680 C   0  0  0  0  0  0  0  0  0  0  0  0
    5.8570    0.3050    0.3130 C   0  0  0  0  0  0  0  0  0  0  0  0
    5.6450   -1.0240   -0.0300 O   0  0  0  0  0  0  0  0  0  0  0  0
    4.2770   -1.0950   -0.3230 C   0  0  2  0  0  0  0  0  0  0  0  0
    4.0010   -0.5110   -1.9760 Cl  0  0  0  0  0  0  0  0  0  0  0  0
    3.7230   -2.7590   -0.1180 Cl  0  0  0  0  0  0  0  0  0  0  0  0
   -2.2720    1.1750    0.3790 C   0  0  0  0  0  0  0  0  0  0  0  0
  2  1  1  6
  2  3  1  0
  2  7  1  0
  2 20  1  0
  3  4  1  0
  4  5  2  0
  4  6  1  0
  7  6  1  1
  7  8  1  0
  8  9  1  1
  8 20  1  0
  9 10  1  0
 10 11  2  0
 10 12  1  0
 12 13  1  0
 13 14  2  0
 13 17  1  0
 14 15  1  0
 15 16  1  0
 16 17  1  0
 17 18  1  6
 17 19  1  0
M  END
