
     RDKit          3D

 26 27  0  0  0  0  0  0  0  0999 V2000
    5.8650    1.4750    1.2720 C   0  0  0  0  0  0  0  0  0  0  0  0
    5.8320   -0.3350    1.3860 S   0  0  0  0  0  0  0  0  0  0  0  0
    4.8340   -1.0350    0.0330 C   0  0  2  0  0  0  0  0  0  0  0  0
    5.5130   -0.7680   -1.2950 C   0  0  0  0  0  0  0  0  0  0  0  0
    5.6170    0.6050   -1.4300 F   0  0  0  0  0  0  0  0  0  0  0  0
    3.4450   -0.5310    0.0580 C   0  0  0  0  0  0  0  0  0  0  0  0
    2.2420   -1.2010    0.2990 C   0  0  0  0  0  0  0  0  0  0  0  0
    1.1150   -0.4950    0.2580 C   0  0  0  0  0  0  0  0  0  0  0  0
    1.1740    0.8410   -0.0160 C   0  0  0  0  0  0  0  0  0  0  0  0
    0.0830    1.8400   -0.1230 C   0  0  0  0  0  0  0  0  0  0  0  0
   -1.1350    1.1700   -0.1340 O   0  0  0  0  0  0  0  0  0  0  0  0
   -1.5810    0.2460   -1.0330 C   0  0  0  0  0  0  0  0  0  0  0  0
   -0.7460   -0.0200   -1.9850 O   0  0  0  0  0  0  0  0  0  0  0  0
   -2.8520   -0.4510   -1.0370 C   0  0  0  0  0  0  0  0  0  0  0  0
   -3.0450   -1.3850   -2.0740 C   0  0  0  0  0  0  0  0  0  0  0  0
   -4.1820   -2.1290   -2.1910 C   0  0  0  0  0  0  0  0  0  0  0  0
   -4.3280   -3.0300   -3.2210 F   0  0  0  0  0  0  0  0  0  0  0  0
   -5.1590   -1.9460   -1.2570 C   0  0  0  0  0  0  0  0  0  0  0  0
   -6.2990   -2.6730   -1.3510 F   0  0  0  0  0  0  0  0  0  0  0  0
   -4.9680   -1.0230   -0.2340 C   0  0  0  0  0  0  0  0  0  0  0  0
   -3.8350   -0.2560   -0.0850 C   0  0  0  0  0  0  0  0  0  0  0  0
   -3.6610    0.6990    0.9370 N   0  0  0  0  0  0  0  0  0  0  0  0
   -4.5510    0.9100    2.0300 C   0  0  0  0  0  0  0  0  0  0  0  0
   -4.2410    1.9330    3.0030 N   0  0  0  0  0  0  0  0  0  0  0  0
   -5.5850    0.2240    2.1510 O   0  0  0  0  0  0  0  0  0  0  0  0
    2.8630    1.1270   -0.2230 S   0  0  0  0  0  0  0  0  0  0  0  0
  1  2  1  0
  2  3  1  0
  3  4  1  6
  3  6  1  0
  4  5  1  0
  6  7  2  0
  6 26  1  0
  7  8  1  0
  8  9  2  0
  9 10  1  0
  9 26  1  0
 10 11  1  0
 11 12  1  0
 12 13  2  0
 12 14  1  0
 14 15  2  0
 14 21  1  0
 15 16  1  0
 16 17  1  0
 16 18  2  0
 18 19  1  0
 18 20  1  0
 20 21  2  0
 21 22  1  0
 22 23  1  0
 23 24  1  0
 23 25  2  0
M  END
