
     RDKit          3D

 26 27  0  0  0  0  0  0  0  0999 V2000
   -2.2310   -4.1280   -0.4420 C   0  0  0  0  0  0  0  0  0  0  0  0
   -1.1560   -2.8460    0.1510 S   0  0  1  0  0  0  0  0  0  0  0  0
   -0.6190   -3.1800    1.4990 O   0  0  0  0  0  0  0  0  0  0  0  0
    0.0220   -2.8110   -0.8050 O   0  0  0  0  0  0  0  0  0  0  0  0
   -1.9240   -1.2940    0.0930 C   0  0  0  0  0  0  0  0  0  0  0  0
   -3.2100   -1.2100   -0.3770 C   0  0  0  0  0  0  0  0  0  0  0  0
   -3.8690    0.0250   -0.4400 C   0  0  0  0  0  0  0  0  0  0  0  0
   -3.2130    1.1560   -0.0260 C   0  0  0  0  0  0  0  0  0  0  0  0
   -3.7520    2.4460   -0.0590 N   0  0  0  0  0  0  0  0  0  0  0  0
   -4.9120    2.7990   -0.7830 C   0  0  0  0  0  0  0  0  0  0  0  0
   -5.3220    4.1870   -0.6890 N   0  0  0  0  0  0  0  0  0  0  0  0
   -5.5740    1.9930   -1.4760 O   0  0  0  0  0  0  0  0  0  0  0  0
   -1.8940    1.0290    0.4500 C   0  0  0  0  0  0  0  0  0  0  0  0
   -1.2360   -0.1740    0.5180 C   0  0  0  0  0  0  0  0  0  0  0  0
    0.1370   -0.3430    1.0070 C   0  0  0  0  0  0  0  0  0  0  0  0
    0.8750    1.2380    1.5210 S   0  0  0  0  0  0  0  0  0  0  0  0
    2.5630    0.9210    2.0600 C   0  0  0  0  0  0  0  0  0  0  0  0
    3.4810    0.5350    0.9630 C   0  0  0  0  0  0  0  0  0  0  0  0
    3.1720    0.4440   -0.3020 C   0  0  0  0  0  0  0  0  0  0  0  0
    4.0750    0.0600   -1.4020 C   0  0  2  0  0  0  0  0  0  0  0  0
    4.1100    1.1410   -2.2910 F   0  0  0  0  0  0  0  0  0  0  0  0
    3.5190   -1.0330   -2.0380 F   0  0  0  0  0  0  0  0  0  0  0  0
    5.4750   -0.2440   -0.9960 C   0  0  0  0  0  0  0  0  0  0  0  0
    5.7470   -0.1200    0.4470 C   0  0  0  0  0  0  0  0  0  0  0  0
    4.8550    0.2320    1.3480 C   0  0  0  0  0  0  0  0  0  0  0  0
    5.2350    0.3080    2.6520 F   0  0  0  0  0  0  0  0  0  0  0  0
  2  1  1  6
  2  3  2  0
  2  4  2  0
  2  5  1  0
  5  6  2  0
  5 14  1  0
  6  7  1  0
  7  8  2  0
  8  9  1  0
  8 13  1  0
  9 10  1  0
 10 11  1  0
 10 12  2  0
 13 14  2  0
 14 15  1  0
 15 16  1  0
 16 17  1  0
 17 18  1  0
 18 19  2  0
 18 25  1  0
 19 20  1  0
 20 21  1  6
 20 22  1  0
 20 23  1  0
 23 24  1  0
 24 25  2  0
 25 26  1  0
M  END
