
     RDKit          3D

 26 27  0  0  0  0  0  0  0  0999 V2000
    0.6490   -3.6140   -1.2110 C   0  0  0  0  0  0  0  0  0  0  0  0
   -0.1320   -2.5170   -0.4080 C   0  0  0  0  0  0  0  0  0  0  0  0
    0.2980   -1.1970   -1.0130 C   0  0  0  0  0  0  0  0  0  0  0  0
    0.3800   -0.1460   -0.2480 C   0  0  0  0  0  0  0  0  0  0  0  0
    0.0810   -0.0510    1.1480 C   0  0  0  0  0  0  0  0  0  0  0  0
    0.3790    1.1050    1.6790 O   0  0  0  0  0  0  0  0  0  0  0  0
   -0.4760   -0.9300    2.0700 N   0  0  0  0  0  0  0  0  0  0  0  0
   -0.6400   -0.5310    3.4880 C   0  0  0  0  0  0  0  0  0  0  0  0
   -1.2350   -1.5840    4.2730 C   0  0  0  0  0  0  0  0  0  0  0  0
   -2.5290   -1.8750    4.5180 C   0  0  0  0  0  0  0  0  0  0  0  0
   -2.8920   -2.8950    5.2740 C   0  0  0  0  0  0  0  0  0  0  0  0
   -1.8640   -3.7090    5.8460 C   0  0  0  0  0  0  0  0  0  0  0  0
   -0.3950   -2.8710    5.1960 S   0  0  0  0  0  0  0  0  0  0  0  0
    1.0200    1.4090   -1.0130 S   0  0  0  0  0  0  0  0  0  0  0  0
    0.9530    1.1950   -2.7440 C   0  0  0  0  0  0  0  0  0  0  0  0
    1.0330    2.2060   -3.5560 C   0  0  0  0  0  0  0  0  0  0  0  0
    1.1830    3.5510   -3.0120 C   0  0  0  0  0  0  0  0  0  0  0  0
    1.2410    3.7660   -1.6240 O   0  0  0  0  0  0  0  0  0  0  0  0
    1.2700    4.6120   -3.7840 C   0  0  0  0  0  0  0  0  0  0  0  0
    1.4210    5.9650   -3.2180 C   0  0  1  0  0  0  0  0  0  0  0  0
    1.2060    6.9060   -4.2020 F   0  0  0  0  0  0  0  0  0  0  0  0
    0.4880    6.1460   -2.2080 F   0  0  0  0  0  0  0  0  0  0  0  0
    2.6910    6.1440   -2.7000 F   0  0  0  0  0  0  0  0  0  0  0  0
    0.7960   -0.1520   -3.2610 C   0  0  0  0  0  0  0  0  0  0  0  0
    0.9480   -0.3210   -4.5240 O   0  0  0  0  0  0  0  0  0  0  0  0
    0.4910   -1.2350   -2.4310 N   0  0  0  0  0  0  0  0  0  0  0  0
  1  2  1  0
  2  3  1  0
  3  4  2  0
  3 26  1  0
  4  5  1  0
  4 14  1  0
  5  6  2  0
  5  7  1  0
  7  8  1  0
  8  9  1  0
  9 10  2  0
  9 13  1  0
 10 11  1  0
 11 12  2  0
 12 13  1  0
 14 15  1  0
 15 16  2  3
 15 24  1  0
 16 17  1  0
 17 18  1  0
 17 19  2  3
 19 20  1  0
 20 21  1  6
 20 22  1  0
 20 23  1  0
 24 25  2  0
 24 26  1  0
M  END
