
     RDKit          3D

 26 27  0  0  0  0  0  0  0  0999 V2000
   -0.0190   -0.1370    0.6690 O   0  0  0  0  0  0  0  0  0  0  0  0
    0.2770   -1.3110    0.4480 C   0  0  0  0  0  0  0  0  0  0  0  0
    1.4400   -1.8920    0.9940 N   0  0  0  0  0  0  0  0  0  0  0  0
    2.4460   -1.3270    1.8100 C   0  0  0  0  0  0  0  0  0  0  0  0
    3.3880   -0.3010    1.2720 C   0  0  2  0  0  0  0  0  0  0  0  0
    4.3070    0.0330    2.4620 C   0  0  1  0  0  0  0  0  0  0  0  0
    5.2590    0.9560    2.1550 F   0  0  0  0  0  0  0  0  0  0  0  0
    3.5130    0.4300    3.5250 F   0  0  0  0  0  0  0  0  0  0  0  0
    4.9630   -1.1640    2.7560 F   0  0  0  0  0  0  0  0  0  0  0  0
    2.7350    0.8800    0.7050 C   0  0  0  0  0  0  0  0  0  0  0  0
    3.7130    1.9760    0.2700 C   0  0  0  0  0  0  0  0  0  0  0  0
    4.7510    1.4270   -0.6410 C   0  0  0  0  0  0  0  0  0  0  0  0
    4.5500   -0.0380   -0.9570 C   0  0  0  0  0  0  0  0  0  0  0  0
    4.3270   -0.8990    0.2320 C   0  0  0  0  0  0  0  0  0  0  0  0
   -0.5780   -2.1050   -0.3850 N   0  0  0  0  0  0  0  0  0  0  0  0
   -1.7400   -1.4640   -0.9100 C   0  0  0  0  0  0  0  0  0  0  0  0
   -2.7340   -1.9770   -1.7330 C   0  0  0  0  0  0  0  0  0  0  0  0
   -3.7270   -1.1520   -2.0840 C   0  0  0  0  0  0  0  0  0  0  0  0
   -3.7270    0.1310   -1.6330 C   0  0  0  0  0  0  0  0  0  0  0  0
   -4.6650    1.2290   -1.9230 C   0  0  0  0  0  0  0  0  0  0  0  0
   -5.8350    1.2880   -1.0610 C   0  0  0  0  0  0  0  0  0  0  0  0
   -5.7600    1.5060    0.3880 C   0  0  0  0  0  0  0  0  0  0  0  0
   -4.9810    0.3080    1.3970 S   0  0  2  0  0  0  0  0  0  0  0  0
   -4.9350   -1.0630    0.8330 O   0  0  0  0  0  0  0  0  0  0  0  0
   -5.7680    0.1510    2.7240 O   0  0  0  0  0  0  0  0  0  0  0  0
   -2.2690    0.1980   -0.6670 S   0  0  0  0  0  0  0  0  0  0  0  0
  1  2  2  0
  2  3  1  0
  2 15  1  0
  3  4  1  0
  5  4  1  1
  5  6  1  0
  5 10  1  0
  5 14  1  0
  6  7  1  6
  6  8  1  0
  6  9  1  0
 10 11  1  0
 11 12  1  0
 12 13  1  0
 13 14  1  0
 15 16  1  0
 16 17  2  0
 16 26  1  0
 17 18  1  0
 18 19  2  0
 19 20  1  0
 19 26  1  0
 20 21  1  0
 21 22  1  0
 23 22  1  6
 23 24  2  0
 23 25  2  0
M  END
