
     RDKit          3D

 25 26  0  0  0  0  0  0  0  0999 V2000
   -2.1760    1.8450   -2.5050 C   0  0  0  0  0  0  0  0  0  0  0  0
   -0.8500    1.4260   -2.0070 C   0  0  0  0  0  0  0  0  0  0  0  0
    0.2660    1.9080   -2.5130 C   0  0  0  0  0  0  0  0  0  0  0  0
    1.5220    1.4880   -2.0270 N   0  0  0  0  0  0  0  0  0  0  0  0
    1.6530    0.6670   -0.8660 C   0  0  1  0  0  0  0  0  0  0  0  0
    2.3190    1.5550    0.2040 C   0  0  0  0  0  0  0  0  0  0  0  0
    3.6720    2.0120   -0.3180 C   0  0  0  0  0  0  0  0  0  0  0  0
    4.3590    2.8840    0.7340 C   0  0  0  0  0  0  0  0  0  0  0  0
    3.5160    3.9610    0.9470 F   0  0  0  0  0  0  0  0  0  0  0  0
    0.3510    0.1760   -0.3890 C   0  0  0  0  0  0  0  0  0  0  0  0
    0.4070   -0.7620    0.7830 C   0  0  0  0  0  0  0  0  0  0  0  0
    1.1320   -2.0370    0.4520 C   0  0  0  0  0  0  0  0  0  0  0  0
    1.1360   -3.0590    1.9160 S   0  0  1  0  0  0  0  0  0  0  0  0
    1.9630   -4.5300    1.5600 N   0  0  0  0  0  0  0  0  0  0  0  0
    1.8820   -2.3710    3.0160 O   0  0  0  0  0  0  0  0  0  0  0  0
   -0.2790   -3.3900    2.3150 O   0  0  0  0  0  0  0  0  0  0  0  0
   -0.7870    0.4940   -0.8710 C   0  0  0  0  0  0  0  0  0  0  0  0
   -2.0490   -0.0910   -0.3500 C   0  0  0  0  0  0  0  0  0  0  0  0
   -2.3950   -1.3550   -0.0990 C   0  0  0  0  0  0  0  0  0  0  0  0
   -3.6070   -1.6320    0.3960 C   0  0  0  0  0  0  0  0  0  0  0  0
   -4.4580   -0.5640    0.6290 C   0  0  0  0  0  0  0  0  0  0  0  0
   -5.8530   -0.5310    1.1620 C   0  0  1  0  0  0  0  0  0  0  0  0
   -5.9060    0.0940    2.4000 F   0  0  0  0  0  0  0  0  0  0  0  0
   -6.7240    0.1170    0.3330 F   0  0  0  0  0  0  0  0  0  0  0  0
   -3.4590    0.8160    0.1140 S   0  0  0  0  0  0  0  0  0  0  0  0
  1  2  1  0
  2  3  2  0
  2 17  1  0
  3  4  1  0
  4  5  1  0
  5  6  1  1
  5 10  1  0
  6  7  1  0
  7  8  1  0
  8  9  1  0
 10 11  1  0
 10 17  2  0
 11 12  1  0
 12 13  1  0
 13 14  1  6
 13 15  2  0
 13 16  2  0
 17 18  1  0
 18 19  2  0
 18 25  1  0
 19 20  1  0
 20 21  2  0
 21 22  1  0
 21 25  1  0
 22 23  1  1
 22 24  1  0
M  END
