
     RDKit          3D

 26 27  0  0  0  0  0  0  0  0999 V2000
    4.5980    1.9640   -0.9900 N   0  0  0  0  0  0  0  0  0  0  0  0
    3.8210    0.8080   -1.2930 C   0  0  0  0  0  0  0  0  0  0  0  0
    3.8110    0.2640   -2.5590 C   0  0  0  0  0  0  0  0  0  0  0  0
    3.0660   -0.8520   -2.8670 C   0  0  0  0  0  0  0  0  0  0  0  0
    2.3070   -1.4340   -1.8640 C   0  0  0  0  0  0  0  0  0  0  0  0
    1.5290   -2.5790   -2.1370 N   0  0  0  0  0  0  0  0  0  0  0  0
    2.2920   -0.9180   -0.5870 C   0  0  0  0  0  0  0  0  0  0  0  0
    1.5210   -1.5140    0.4250 O   0  0  0  0  0  0  0  0  0  0  0  0
    1.5120   -0.9860    1.7120 C   0  0  0  0  0  0  0  0  0  0  0  0
    0.7370    0.0220    2.0150 C   0  0  0  0  0  0  0  0  0  0  0  0
   -0.1410    0.6050    0.9710 C   0  0  0  0  0  0  0  0  0  0  0  0
   -1.4720    0.5330    1.3020 O   0  0  0  0  0  0  0  0  0  0  0  0
   -2.2340    1.0870    0.3080 C   0  0  2  0  0  0  0  0  0  0  0  0
   -3.0540    2.2590    0.8600 C   0  0  0  0  0  0  0  0  0  0  0  0
   -3.4200    3.1940   -0.2770 C   0  0  0  0  0  0  0  0  0  0  0  0
   -3.5250    2.2460   -1.8490 S   0  0  0  0  0  0  0  0  0  0  0  0
   -3.8950    0.5550   -1.3310 C   0  0  0  0  0  0  0  0  0  0  0  0
   -4.7950   -0.2160   -1.9420 F   0  0  0  0  0  0  0  0  0  0  0  0
   -3.2110    0.1070   -0.2820 C   0  0  0  0  0  0  0  0  0  0  0  0
   -3.4200   -1.5230    0.3990 S   0  0  0  0  0  0  0  0  0  0  0  0
   -4.6120   -2.5240   -0.5220 C   0  0  1  0  0  0  0  0  0  0  0  0
   -5.8870   -1.9700   -0.4140 F   0  0  0  0  0  0  0  0  0  0  0  0
   -4.2680   -2.6790   -1.8510 F   0  0  0  0  0  0  0  0  0  0  0  0
    2.3970   -1.5840    2.7380 C   0  0  0  0  0  0  0  0  0  0  0  0
    2.2700   -0.9480    3.9550 O   0  0  0  0  0  0  0  0  0  0  0  0
    3.0540    0.2000   -0.3250 C   0  0  0  0  0  0  0  0  0  0  0  0
  1  2  1  0
  2  3  2  0
  2 26  1  0
  3  4  1  0
  4  5  2  0
  5  6  1  0
  5  7  1  0
  7  8  1  0
  7 26  2  0
  8  9  1  0
  9 10  2  3
  9 24  1  0
 10 11  1  0
 11 12  1  0
 13 12  1  1
 13 14  1  0
 13 19  1  0
 14 15  1  0
 15 16  1  0
 16 17  1  0
 17 18  1  0
 17 19  2  0
 19 20  1  0
 20 21  1  0
 21 22  1  6
 21 23  1  0
 24 25  1  0
M  END
