
     RDKit          3D

 27 29  0  0  0  0  0  0  0  0999 V2000
    7.2040   -3.1480   -0.0910 C   0  0  0  0  0  0  0  0  0  0  0  0
    7.5140   -1.8750   -0.1640 C   0  0  0  0  0  0  0  0  0  0  0  0
    6.4640   -0.8790    0.0020 C   0  0  0  0  0  0  0  0  0  0  0  0
    5.1180   -1.0830    0.2380 C   0  0  0  0  0  0  0  0  0  0  0  0
    4.4860    0.1420    0.3280 C   0  0  0  0  0  0  0  0  0  0  0  0
    3.0610    0.3090    0.5710 C   0  0  0  0  0  0  0  0  0  0  0  0
    2.3220   -0.7030    0.6930 O   0  0  0  0  0  0  0  0  0  0  0  0
    2.4220    1.5550    0.6840 N   0  0  0  0  0  0  0  0  0  0  0  0
    1.0120    1.6700    0.9190 C   0  0  0  0  0  0  0  0  0  0  0  0
    0.0220    1.0060    1.0690 N   0  0  0  0  0  0  0  0  0  0  0  0
   -1.1890    1.3490    1.2860 C   0  0  0  0  0  0  0  0  0  0  0  0
   -2.3540    0.4170    1.4520 C   0  0  0  0  0  0  0  0  0  0  0  0
   -2.1660   -0.8320    1.3350 O   0  0  0  0  0  0  0  0  0  0  0  0
   -3.6330    0.8820    1.7310 N   0  0  0  0  0  0  0  0  0  0  0  0
   -4.8020    0.0400    1.9010 C   0  0  0  0  0  0  0  0  0  0  0  0
   -5.3560   -0.4340    0.6000 C   0  0  0  0  0  0  0  0  0  0  0  0
   -5.0090   -1.6530    0.1110 C   0  0  0  0  0  0  0  0  0  0  0  0
   -5.5210   -2.1100   -1.1100 C   0  0  0  0  0  0  0  0  0  0  0  0
   -6.3800   -1.2570   -1.7640 C   0  0  0  0  0  0  0  0  0  0  0  0
   -6.7040   -0.0330   -1.2360 C   0  0  0  0  0  0  0  0  0  0  0  0
   -7.6510    0.8280   -2.0170 C   0  0  0  0  0  0  0  0  0  0  0  0
   -6.2000    0.3770   -0.0670 N   0  0  0  0  0  0  0  0  0  0  0  0
   -1.4620    2.7440    1.3740 C   0  0  0  0  0  0  0  0  0  0  0  0
    0.2480    3.3730    1.1000 S   0  0  0  0  0  0  0  0  0  0  0  0
    5.4030    1.0620    0.1550 O   0  0  0  0  0  0  0  0  0  0  0  0
    6.5900    0.5070   -0.0410 C   0  0  0  0  0  0  0  0  0  0  0  0
    7.8830    1.1900   -0.2750 C   0  0  0  0  0  0  0  0  0  0  0  0
  1  2  2  0
  2  3  1  0
  3  4  1  0
  3 26  2  0
  4  5  2  0
  5  6  1  0
  5 25  1  0
  6  7  2  0
  6  8  1  0
  8  9  1  0
  9 10  2  0
  9 24  1  0
 10 11  1  0
 11 12  1  0
 11 23  2  0
 12 13  2  0
 12 14  1  0
 14 15  1  0
 15 16  1  0
 16 17  2  0
 16 22  1  0
 17 18  1  0
 18 19  2  0
 19 20  1  0
 20 21  1  0
 20 22  2  0
 23 24  1  0
 25 26  1  0
 26 27  1  0
M  END
