
     RDKit          3D

 27 29  0  0  0  0  0  0  0  0999 V2000
   -2.8290   -4.0700   -0.5540 C   0  0  0  0  0  0  0  0  0  0  0  0
   -3.3650   -2.7060   -0.7970 C   0  0  0  0  0  0  0  0  0  0  0  0
   -4.5760   -2.5620   -1.0220 O   0  0  0  0  0  0  0  0  0  0  0  0
   -2.4190   -1.5930   -0.7550 C   0  0  0  0  0  0  0  0  0  0  0  0
   -0.6360   -1.7890   -0.4390 S   0  0  0  0  0  0  0  0  0  0  0  0
   -0.3430    0.0420   -0.5930 C   0  0  0  0  0  0  0  0  0  0  0  0
    1.0100    0.5280   -0.4260 N   0  0  0  0  0  0  0  0  0  0  0  0
    2.1060   -0.3180   -0.1550 C   0  0  0  0  0  0  0  0  0  0  0  0
    1.9590   -1.5690   -0.0420 O   0  0  0  0  0  0  0  0  0  0  0  0
    3.4410    0.2940   -0.0060 C   0  0  0  0  0  0  0  0  0  0  0  0
    3.7620    1.5810   -0.0890 N   0  0  0  0  0  0  0  0  0  0  0  0
    5.0720    1.7930    0.0950 C   0  0  0  0  0  0  0  0  0  0  0  0
    5.8010    3.0850    0.0760 C   0  0  0  0  0  0  0  0  0  0  0  0
    5.6160    0.5420    0.3090 C   0  0  0  0  0  0  0  0  0  0  0  0
    7.0170    0.2380    0.5580 C   0  0  0  0  0  0  0  0  0  0  0  0
    7.5500    0.1940    1.6840 O   0  0  0  0  0  0  0  0  0  0  0  0
    4.6040   -0.4130    0.2490 C   0  0  0  0  0  0  0  0  0  0  0  0
    4.7540   -1.8960    0.4260 C   0  0  0  0  0  0  0  0  0  0  0  0
   -1.4310    0.4360   -0.8160 N   0  0  0  0  0  0  0  0  0  0  0  0
   -2.5460   -0.2470   -0.9240 C   0  0  0  0  0  0  0  0  0  0  0  0
   -3.8630    0.4160   -1.2020 C   0  0  0  0  0  0  0  0  0  0  0  0
   -4.7100    0.5740   -0.0100 C   0  0  0  0  0  0  0  0  0  0  0  0
   -5.9160    0.0780    0.1770 C   0  0  0  0  0  0  0  0  0  0  0  0
   -6.3930    0.4860    1.5160 C   0  0  0  0  0  0  0  0  0  0  0  0
   -5.3190    1.2570    2.0290 N   0  0  0  0  0  0  0  0  0  0  0  0
   -4.3600    1.3180    1.1840 C   0  0  0  0  0  0  0  0  0  0  0  0
   -3.0650    2.0550    1.3950 C   0  0  0  0  0  0  0  0  0  0  0  0
  1  2  1  0
  2  3  2  0
  2  4  1  0
  4  5  1  0
  4 20  2  0
  5  6  1  0
  6  7  1  0
  6 19  2  0
  7  8  1  0
  8  9  2  0
  8 10  1  0
 10 11  1  0
 10 17  2  0
 11 12  1  0
 12 13  1  0
 12 14  2  0
 14 15  1  0
 14 17  1  0
 15 16  2  0
 17 18  1  0
 19 20  1  0
 20 21  1  0
 21 22  1  0
 22 23  2  0
 22 26  1  0
 23 24  1  0
 24 25  1  0
 25 26  2  0
 26 27  1  0
M  END
