
     RDKit          3D

 31 33  0  0  0  0  0  0  0  0999 V2000
   -8.5690   -1.1120   -0.6300 C   0  0  0  0  0  0  0  0  0  0  0  0
   -7.6390   -0.7310    0.5080 C   0  0  0  0  0  0  0  0  0  0  0  0
   -6.5180    0.0910    0.0780 C   0  0  0  0  0  0  0  0  0  0  0  0
   -5.2670   -0.3560    0.2790 C   0  0  0  0  0  0  0  0  0  0  0  0
   -5.1140   -1.6570    0.9280 C   0  0  0  0  0  0  0  0  0  0  0  0
   -3.3220   -1.8550    1.0200 S   0  0  0  0  0  0  0  0  0  0  0  0
   -2.9520   -0.2970    0.2150 C   0  0  0  0  0  0  0  0  0  0  0  0
   -1.5980    0.1110    0.0080 N   0  0  0  0  0  0  0  0  0  0  0  0
   -0.5190   -0.7250    0.4160 C   0  0  0  0  0  0  0  0  0  0  0  0
   -0.7070   -1.8210    0.9590 O   0  0  0  0  0  0  0  0  0  0  0  0
    0.8700   -0.2670    0.1840 C   0  0  0  0  0  0  0  0  0  0  0  0
    1.0700    0.8320   -0.3600 O   0  0  0  0  0  0  0  0  0  0  0  0
    1.9520   -1.0820    0.5820 N   0  0  0  0  0  0  0  0  0  0  0  0
    3.3100   -0.7330    0.4100 C   0  0  0  0  0  0  0  0  0  0  0  0
    4.2710   -1.7430    0.6220 C   0  0  0  0  0  0  0  0  0  0  0  0
    5.6190   -1.5360    0.5030 C   0  0  0  0  0  0  0  0  0  0  0  0
    6.1120   -0.2970    0.1600 C   0  0  0  0  0  0  0  0  0  0  0  0
    7.4750   -0.1020    0.0430 O   0  0  0  0  0  0  0  0  0  0  0  0
    8.3910   -1.1520    0.2680 C   0  0  0  0  0  0  0  0  0  0  0  0
    9.7620   -0.6510    0.0710 C   0  0  0  0  0  0  0  0  0  0  0  0
   10.7390   -1.4090    0.2180 O   0  0  0  0  0  0  0  0  0  0  0  0
   10.0070    0.6730   -0.2810 O   0  0  0  0  0  0  0  0  0  0  0  0
   11.3500    1.1300   -0.4650 C   0  0  0  0  0  0  0  0  0  0  0  0
    5.1900    0.6890   -0.0480 C   0  0  0  0  0  0  0  0  0  0  0  0
    3.8070    0.4880    0.0720 C   0  0  0  0  0  0  0  0  0  0  0  0
   -4.0460    0.3170   -0.0860 C   0  0  0  0  0  0  0  0  0  0  0  0
   -3.9850    1.6240   -0.7830 C   0  0  0  0  0  0  0  0  0  0  0  0
   -3.0200    1.7960   -1.5750 O   0  0  0  0  0  0  0  0  0  0  0  0
   -4.8720    2.8150   -0.7310 C   0  0  0  0  0  0  0  0  0  0  0  0
   -6.0860    2.5290    0.1160 C   0  0  0  0  0  0  0  0  0  0  0  0
   -6.8600    1.4140   -0.5630 C   0  0  0  0  0  0  0  0  0  0  0  0
  1  2  1  0
  2  3  1  0
  3  4  2  0
  3 31  1  0
  4  5  1  0
  4 26  1  0
  5  6  1  0
  6  7  1  0
  7  8  1  0
  7 26  2  0
  8  9  1  0
  9 10  2  0
  9 11  1  0
 11 12  2  0
 11 13  1  0
 13 14  1  0
 14 15  2  0
 14 25  1  0
 15 16  1  0
 16 17  2  0
 17 18  1  0
 17 24  1  0
 18 19  1  0
 19 20  1  0
 20 21  2  0
 20 22  1  0
 22 23  1  0
 24 25  2  0
 26 27  1  0
 27 28  2  0
 27 29  1  0
 29 30  1  0
 30 31  1  0
M  END
