
     RDKit          3D

 31 33  0  0  0  0  0  0  0  0999 V2000
   -7.9180    3.0400   -1.7670 C   0  0  0  0  0  0  0  0  0  0  0  0
   -6.9310    2.1160   -1.1530 C   0  0  0  0  0  0  0  0  0  0  0  0
   -5.6510    2.0830   -1.4130 C   0  0  0  0  0  0  0  0  0  0  0  0
   -4.7500    1.1460   -0.7650 C   0  0  0  0  0  0  0  0  0  0  0  0
   -3.4050    1.0130   -0.9920 C   0  0  0  0  0  0  0  0  0  0  0  0
   -2.9090   -0.0010   -0.1470 C   0  0  0  0  0  0  0  0  0  0  0  0
   -1.5010   -0.3570   -0.0350 C   0  0  0  0  0  0  0  0  0  0  0  0
   -1.0820   -0.8450    1.0300 O   0  0  0  0  0  0  0  0  0  0  0  0
   -0.6440   -0.1490   -1.0870 O   0  0  0  0  0  0  0  0  0  0  0  0
    0.7210   -0.4430   -0.9160 C   0  0  0  0  0  0  0  0  0  0  0  0
    1.5950    0.6470   -1.0200 C   0  0  0  0  0  0  0  0  0  0  0  0
    2.9260    0.4270   -0.8500 C   0  0  0  0  0  0  0  0  0  0  0  0
    3.7950    1.5910   -0.8590 C   0  0  0  0  0  0  0  0  0  0  0  0
    3.9240    2.3100   -1.9050 O   0  0  0  0  0  0  0  0  0  0  0  0
    4.5340    2.0040    0.2850 N   0  0  0  0  0  0  0  0  0  0  0  0
    5.3810    3.1660    0.2720 C   0  0  0  0  0  0  0  0  0  0  0  0
    5.9610    3.3830    1.6720 C   0  0  0  0  0  0  0  0  0  0  0  0
    3.4020   -0.8220   -0.5860 C   0  0  0  0  0  0  0  0  0  0  0  0
    2.5610   -1.9230   -0.4800 C   0  0  0  0  0  0  0  0  0  0  0  0
    1.1810   -1.6870   -0.6560 C   0  0  0  0  0  0  0  0  0  0  0  0
    2.7840   -3.3200   -0.2060 C   0  0  0  0  0  0  0  0  0  0  0  0
    1.7770   -3.9480    0.2670 O   0  0  0  0  0  0  0  0  0  0  0  0
    3.9610   -4.0860   -0.3870 N   0  0  0  0  0  0  0  0  0  0  0  0
    5.3260   -3.7260   -0.5310 C   0  0  0  0  0  0  0  0  0  0  0  0
    5.5450   -2.1800   -1.4550 S   0  0  0  0  0  0  0  0  0  0  0  0
    4.9050   -0.8200   -0.4460 C   0  0  0  0  0  0  0  0  0  0  0  0
   -4.0160   -0.4270    0.5440 C   0  0  0  0  0  0  0  0  0  0  0  0
   -4.0270   -1.5040    1.5720 C   0  0  0  0  0  0  0  0  0  0  0  0
   -5.3550   -1.6290    2.0250 O   0  0  0  0  0  0  0  0  0  0  0  0
   -5.3740   -2.6500    2.9630 C   0  0  0  0  0  0  0  0  0  0  0  0
   -5.0790    0.2730    0.1530 O   0  0  0  0  0  0  0  0  0  0  0  0
  1  2  1  0
  2  3  2  3
  3  4  1  0
  4  5  2  0
  4 31  1  0
  5  6  1  0
  6  7  1  0
  6 27  2  0
  7  8  2  0
  7  9  1  0
  9 10  1  0
 10 11  2  0
 10 20  1  0
 11 12  1  0
 12 13  1  0
 12 18  2  0
 13 14  2  0
 13 15  1  0
 15 16  1  0
 16 17  1  0
 18 19  1  0
 18 26  1  0
 19 20  2  0
 19 21  1  0
 21 22  2  0
 21 23  1  0
 23 24  1  0
 24 25  1  0
 25 26  1  0
 27 28  1  0
 27 31  1  0
 28 29  1  0
 29 30  1  0
M  END
