
     RDKit          3D

 31 34  0  0  0  0  0  0  0  0999 V2000
   -3.3460   -4.2720    0.0920 C   0  0  0  0  0  0  0  0  0  0  0  0
   -2.1870   -3.3940   -0.3690 C   0  0  0  0  0  0  0  0  0  0  0  0
   -2.7030   -2.2610   -1.1890 C   0  0  0  0  0  0  0  0  0  0  0  0
   -3.6830   -1.3640   -0.4550 C   0  0  0  0  0  0  0  0  0  0  0  0
   -3.1210   -0.6460    0.7340 C   0  0  0  0  0  0  0  0  0  0  0  0
   -2.0590    0.3120    0.4470 C   0  0  0  0  0  0  0  0  0  0  0  0
   -0.7570   -0.1810    0.3130 N   0  0  0  0  0  0  0  0  0  0  0  0
    0.2800    0.5480   -0.0730 C   0  0  0  0  0  0  0  0  0  0  0  0
    1.5810    0.0120   -0.1860 N   0  0  0  0  0  0  0  0  0  0  0  0
    1.8970   -1.3570    0.1030 C   0  0  0  0  0  0  0  0  0  0  0  0
    0.9410   -2.0960    0.4630 O   0  0  0  0  0  0  0  0  0  0  0  0
    3.2820   -1.8750   -0.0170 C   0  0  1  0  0  0  0  0  0  0  0  0
    3.9050   -1.6420   -1.3440 C   0  0  0  0  0  0  0  0  0  0  0  0
    4.9210   -0.5750   -1.1510 C   0  0  0  0  0  0  0  0  0  0  0  0
    5.2180   -0.5400    0.2490 N   0  0  2  0  0  0  0  0  0  0  0  0
    6.5250   -1.0940    0.4690 C   0  0  2  0  0  0  0  0  0  0  0  0
    6.6210   -2.0690    1.6030 C   0  0  0  0  0  0  0  0  0  0  0  0
    7.5440    0.0060    0.7550 C   0  0  0  0  0  0  0  0  0  0  0  0
    4.1630   -1.1880    0.9720 C   0  0  0  0  0  0  0  0  0  0  0  0
    0.0920    1.8420   -0.3600 N   0  0  0  0  0  0  0  0  0  0  0  0
   -1.1340    2.4010   -0.2560 C   0  0  0  0  0  0  0  0  0  0  0  0
   -2.2350    1.6360    0.1580 C   0  0  0  0  0  0  0  0  0  0  0  0
   -3.5440    2.2980    0.4670 C   0  0  0  0  0  0  0  0  0  0  0  0
   -3.5490    3.6150    0.3240 C   0  0  0  0  0  0  0  0  0  0  0  0
   -4.7660    4.4750    0.5830 C   0  0  0  0  0  0  0  0  0  0  0  0
   -5.6110    3.6160    1.5440 C   0  0  0  0  0  0  0  0  0  0  0  0
   -5.9050    2.3610    0.7600 C   0  0  0  0  0  0  0  0  0  0  0  0
   -4.6370    1.4610    0.9190 C   0  0  0  0  0  0  0  0  0  0  0  0
   -2.3800    4.4170   -0.0600 C   0  0  0  0  0  0  0  0  0  0  0  0
   -2.3350    5.6670    0.1170 O   0  0  0  0  0  0  0  0  0  0  0  0
   -1.2220    3.7850   -0.6640 C   0  0  0  0  0  0  0  0  0  0  0  0
  1  2  1  0
  2  3  1  0
  3  4  1  0
  4  5  1  0
  5  6  1  0
  6  7  2  0
  6 22  1  0
  7  8  1  0
  8  9  1  0
  8 20  2  0
  9 10  1  0
 10 11  2  0
 12 10  1  6
 12 13  1  0
 12 19  1  0
 13 14  1  0
 15 14  1  6
 15 16  1  0
 15 19  1  0
 16 17  1  1
 16 18  1  0
 20 21  1  0
 21 22  2  0
 21 31  1  0
 22 23  1  0
 23 24  2  0
 23 28  1  0
 24 25  1  0
 24 29  1  0
 25 26  1  0
 26 27  1  0
 27 28  1  0
 29 30  2  0
 29 31  1  0
M  CHG  1  15   1
M  END
