
     RDKit          3D

 12 11  0  0  0  0  0  0  0  0999 V2000
   -4.8410    0.2940   -1.2420 O   0  0  0  0  0  0  0  0  0  0  0  0
   -4.4430    0.2810    0.0960 C   0  0  0  0  0  0  0  0  0  0  0  0
   -3.1470   -0.2230    0.2270 O   0  0  0  0  0  0  0  0  0  0  0  0
   -2.2710    0.5670   -0.4870 C   0  0  0  0  0  0  0  0  0  0  0  0
   -0.8610    0.0280   -0.3510 C   0  0  0  0  0  0  0  0  0  0  0  0
   -0.5270    0.0450    0.9920 O   0  0  0  0  0  0  0  0  0  0  0  0
    0.7830   -0.4590    1.0860 C   0  0  0  0  0  0  0  0  0  0  0  0
    1.5900    0.3830    0.3370 O   0  0  0  0  0  0  0  0  0  0  0  0
    2.9190    0.0130    0.3330 C   0  0  2  0  0  0  0  0  0  0  0  0
    3.7390    1.0030    0.8170 O   0  0  0  0  0  0  0  0  0  0  0  0
    3.2940   -0.3680   -1.0840 C   0  0  0  0  0  0  0  0  0  0  0  0
    4.6080   -0.7560   -1.2010 O   0  0  0  0  0  0  0  0  0  0  0  0
  1  2  1  0
  2  3  1  0
  3  4  1  0
  4  5  1  0
  5  6  1  0
  6  7  1  0
  7  8  1  0
  8  9  1  0
  9 10  1  6
  9 11  1  0
 11 12  1  0
M  END
