
     RDKit          3D

 12 11  0  0  0  0  0  0  0  0999 V2000
    2.8190   -1.4620    2.3570 O   0  0  0  0  0  0  0  0  0  0  0  0
    2.3090   -0.3270    1.7750 C   0  0  0  0  0  0  0  0  0  0  0  0
    1.4140   -0.7100    0.5900 C   0  0  0  0  0  0  0  0  0  0  0  0
    0.9430    0.4840    0.0630 O   0  0  0  0  0  0  0  0  0  0  0  0
    0.1170    0.3480   -1.0170 C   0  0  2  0  0  0  0  0  0  0  0  0
    0.8120    0.9460   -2.2290 C   0  0  0  0  0  0  0  0  0  0  0  0
    1.0890    2.2930   -2.0320 O   0  0  0  0  0  0  0  0  0  0  0  0
   -1.1110    0.8860   -0.7820 O   0  0  0  0  0  0  0  0  0  0  0  0
   -2.1950    0.0790   -0.9110 C   0  0  0  0  0  0  0  0  0  0  0  0
   -2.1370   -0.9800   -0.0370 O   0  0  0  0  0  0  0  0  0  0  0  0
   -2.1170   -0.5100    1.2580 C   0  0  0  0  0  0  0  0  0  0  0  0
   -3.2890    0.2230    1.4690 O   0  0  0  0  0  0  0  0  0  0  0  0
  1  2  1  0
  2  3  1  0
  3  4  1  0
  4  5  1  0
  5  6  1  6
  5  8  1  0
  6  7  1  0
  8  9  1  0
  9 10  1  0
 10 11  1  0
 11 12  1  0
M  END
