
     RDKit          3D

 12 11  0  0  0  0  0  0  0  0999 V2000
   -4.7600   -0.4230   -1.1260 O   0  0  0  0  0  0  0  0  0  0  0  0
   -4.4930    0.8410   -0.6260 C   0  0  0  0  0  0  0  0  0  0  0  0
   -3.0080    0.9950   -0.2740 C   0  0  0  0  0  0  0  0  0  0  0  0
   -2.7220    0.0430    0.6790 O   0  0  0  0  0  0  0  0  0  0  0  0
   -1.4110    0.0540    1.1020 C   0  0  0  0  0  0  0  0  0  0  0  0
   -0.5070   -0.1760    0.0700 O   0  0  0  0  0  0  0  0  0  0  0  0
    0.7830   -0.1410    0.6140 C   0  0  0  0  0  0  0  0  0  0  0  0
    1.8340   -0.3860   -0.4590 C   0  0  0  0  0  0  0  0  0  0  0  0
    3.0690   -0.3330    0.1730 O   0  0  0  0  0  0  0  0  0  0  0  0
    4.1330   -0.5360   -0.6640 C   0  0  2  0  0  0  0  0  0  0  0  0
    4.8880   -1.6570   -0.3480 O   0  0  0  0  0  0  0  0  0  0  0  0
    4.9490    0.5980   -0.7570 O   0  0  0  0  0  0  0  0  0  0  0  0
  1  2  1  0
  2  3  1  0
  3  4  1  0
  4  5  1  0
  5  6  1  0
  6  7  1  0
  7  8  1  0
  8  9  1  0
  9 10  1  0
 10 11  1  1
 10 12  1  0
M  END
