
     RDKit          3D

 12 11  0  0  0  0  0  0  0  0999 V2000
    3.7200    0.0580   -1.2500 O   0  0  0  0  0  0  0  0  0  0  0  0
    3.5220   -0.8570   -0.2060 C   0  0  0  0  0  0  0  0  0  0  0  0
    3.0980   -0.1040    1.0250 C   0  0  0  0  0  0  0  0  0  0  0  0
    1.9400    0.6080    0.8800 O   0  0  0  0  0  0  0  0  0  0  0  0
    0.8150   -0.1110    0.5620 C   0  0  0  0  0  0  0  0  0  0  0  0
   -0.2380    0.8070    0.4680 O   0  0  0  0  0  0  0  0  0  0  0  0
   -1.3980    0.0880    0.1430 C   0  0  2  0  0  0  0  0  0  0  0  0
   -1.9040    0.5770   -1.2020 C   0  0  0  0  0  0  0  0  0  0  0  0
   -3.0550   -0.1530   -1.4990 O   0  0  0  0  0  0  0  0  0  0  0  0
   -2.4790    0.3370    1.1690 C   0  0  2  0  0  0  0  0  0  0  0  0
   -3.6020   -0.3990    0.7970 O   0  0  0  0  0  0  0  0  0  0  0  0
   -2.7800    1.7000    1.1510 O   0  0  0  0  0  0  0  0  0  0  0  0
  1  2  1  0
  2  3  1  0
  3  4  1  0
  4  5  1  0
  5  6  1  0
  6  7  1  0
  7  8  1  6
  7 10  1  0
  8  9  1  0
 10 11  1  6
 10 12  1  0
M  END
