
     RDKit          3D

 19 21  0  0  0  0  0  0  0  0999 V2000
   -3.4120    2.1340    1.3370 N   0  0  0  0  0  0  0  0  0  0  0  0
   -3.1530    1.0560    0.4270 C   0  0  1  0  0  0  0  0  0  0  0  0
   -2.2580    1.4940   -0.7400 C   0  0  0  0  0  0  0  0  0  0  0  0
   -1.7720    0.1560   -1.2380 C   0  0  0  0  0  0  0  0  0  0  0  0
   -1.4710   -0.5460   -0.0170 N   0  0  0  0  0  0  0  0  0  0  0  0
   -0.5090   -1.5690    0.1000 C   0  0  0  0  0  0  0  0  0  0  0  0
   -0.9880   -2.6840    0.5800 N   0  0  0  0  0  0  0  0  0  0  0  0
   -0.3380   -3.9040    0.8350 N   0  0  0  0  0  0  0  0  0  0  0  0
    0.9950   -4.2880    0.5820 C   0  0  0  0  0  0  0  0  0  0  0  0
    1.9650   -3.5350    0.0920 C   0  0  0  0  0  0  0  0  0  0  0  0
    1.9040   -2.1130   -0.3130 C   0  0  0  0  0  0  0  0  0  0  0  0
    0.8630   -1.3010   -0.3050 C   0  0  0  0  0  0  0  0  0  0  0  0
    1.1270   -0.0390   -0.7400 O   0  0  0  0  0  0  0  0  0  0  0  0
    1.4190    1.0720    0.0630 C   0  0  1  0  0  0  0  0  0  0  0  0
    2.6440    0.9000    0.9130 C   0  0  0  0  0  0  0  0  0  0  0  0
    3.6960    1.6510    0.1060 C   0  0  0  0  0  0  0  0  0  0  0  0
    3.1570    1.7990   -1.1740 O   0  0  0  0  0  0  0  0  0  0  0  0
    1.8430    2.1990   -0.8630 C   0  0  0  0  0  0  0  0  0  0  0  0
   -2.3020   -0.0350    1.0430 C   0  0  0  0  0  0  0  0  0  0  0  0
  2  1  1  1
  2  3  1  0
  2 19  1  0
  3  4  1  0
  4  5  1  0
  5  6  1  0
  5 19  1  0
  6  7  2  0
  6 12  1  0
  7  8  1  0
  8  9  1  0
  9 10  2  0
 10 11  1  0
 11 12  2  0
 12 13  1  0
 14 13  1  6
 14 15  1  0
 14 18  1  0
 15 16  1  0
 16 17  1  0
 17 18  1  0
M  CHG  1   1   1
M  END
