
     RDKit          3D

 21 22  0  0  0  0  0  0  0  0999 V2000
   -5.3330    0.4510    1.1800 O   0  0  0  0  0  0  0  0  0  0  0  0
   -3.9700    0.6420    1.3990 C   0  0  0  0  0  0  0  0  0  0  0  0
   -3.2830    0.9850    0.0940 C   0  0  1  0  0  0  0  0  0  0  0  0
   -1.9410    1.1880    0.2200 O   0  0  0  0  0  0  0  0  0  0  0  0
   -1.1540    0.0980    0.4060 C   0  0  2  0  0  0  0  0  0  0  0  0
    0.0960    0.3790   -0.1930 O   0  0  0  0  0  0  0  0  0  0  0  0
    1.1140    0.4420    0.7410 C   0  0  2  0  0  0  0  0  0  0  0  0
    1.7620    1.8010    0.8050 C   0  0  0  0  0  0  0  0  0  0  0  0
    2.5180    2.1430   -0.3620 N   0  0  0  0  0  0  0  0  0  0  0  0
    3.4480    1.1300   -0.7830 C   0  0  0  0  0  0  0  0  0  0  0  0
    3.5460    0.0890    0.3050 C   0  0  2  0  0  0  0  0  0  0  0  0
    4.4860   -0.9950   -0.2250 C   0  0  0  0  0  0  0  0  0  0  0  0
    4.6410   -1.9980    0.7020 O   0  0  0  0  0  0  0  0  0  0  0  0
    2.1720   -0.5760    0.3870 C   0  0  1  0  0  0  0  0  0  0  0  0
    2.1840   -1.6230    1.3020 O   0  0  0  0  0  0  0  0  0  0  0  0
   -1.6770   -1.2040   -0.0620 C   0  0  2  0  0  0  0  0  0  0  0  0
   -0.6050   -1.9450   -0.6130 O   0  0  0  0  0  0  0  0  0  0  0  0
   -2.7420   -1.1480   -1.0950 C   0  0  1  0  0  0  0  0  0  0  0  0
   -3.5100   -2.3310   -0.9870 O   0  0  0  0  0  0  0  0  0  0  0  0
   -3.6880   -0.0020   -0.9580 C   0  0  2  0  0  0  0  0  0  0  0  0
   -3.7550    0.6460   -2.1940 O   0  0  0  0  0  0  0  0  0  0  0  0
  1  2  1  0
  3  2  1  1
  3  4  1  0
  3 20  1  0
  4  5  1  0
  5  6  1  6
  5 16  1  0
  7  6  1  6
  7  8  1  0
  7 14  1  0
  8  9  1  0
  9 10  1  0
 10 11  1  0
 11 12  1  6
 11 14  1  0
 12 13  1  0
 14 15  1  1
 16 17  1  6
 16 18  1  0
 18 19  1  1
 18 20  1  0
 20 21  1  6
M  CHG  1   9   1
M  END
