
     RDKit          3D

 21 21  0  0  0  0  0  0  0  0999 V2000
   -0.5850    1.2470   -1.3680 C   0  0  0  0  0  0  0  0  0  0  0  0
   -0.3670    0.1520   -0.3780 C   0  0  2  0  0  0  0  0  0  0  0  0
   -1.5950   -0.7330   -0.2860 C   0  0  2  0  0  0  0  0  0  0  0  0
   -1.8410   -1.1910   -1.6730 N   0  0  0  0  0  0  0  0  0  0  0  0
   -2.8030   -0.1670    0.3220 C   0  0  2  0  0  0  0  0  0  0  0  0
   -2.5930    0.2540    1.6260 O   0  0  0  0  0  0  0  0  0  0  0  0
   -3.8830   -1.2590    0.4330 C   0  0  0  0  0  0  0  0  0  0  0  0
   -3.4780   -2.3010    1.2190 O   0  0  0  0  0  0  0  0  0  0  0  0
   -3.4850    0.9630   -0.3860 C   0  0  0  0  0  0  0  0  0  0  0  0
   -4.6960    1.1720    0.3310 O   0  0  0  0  0  0  0  0  0  0  0  0
    0.1170    0.6160    0.9770 C   0  0  0  0  0  0  0  0  0  0  0  0
    1.6000    0.2570    1.1890 C   0  0  0  0  0  0  0  0  0  0  0  0
    2.2990    0.7350   -0.0590 C   0  0  1  0  0  0  0  0  0  0  0  0
    1.9780    2.0720   -0.2490 O   0  0  0  0  0  0  0  0  0  0  0  0
    3.8050    0.6730    0.0850 C   0  0  0  0  0  0  0  0  0  0  0  0
    4.2620   -0.6450    0.2850 O   0  0  0  0  0  0  0  0  0  0  0  0
    5.6260   -0.8410    0.4320 C   0  0  0  0  0  0  0  0  0  0  0  0
    6.4060    0.1580    0.3830 O   0  0  0  0  0  0  0  0  0  0  0  0
    6.2160   -2.0720    0.6340 O   0  0  0  0  0  0  0  0  0  0  0  0
    1.8020   -0.1440   -1.1740 C   0  0  0  0  0  0  0  0  0  0  0  0
    0.5960   -0.7280   -0.9360 O   0  0  0  0  0  0  0  0  0  0  0  0
  2  1  1  6
  2  3  1  0
  2 11  1  0
  2 21  1  0
  3  4  1  6
  3  5  1  0
  5  6  1  1
  5  7  1  0
  5  9  1  0
  7  8  1  0
  9 10  1  0
 11 12  1  0
 12 13  1  0
 13 14  1  6
 13 15  1  0
 13 20  1  0
 15 16  1  0
 16 17  1  0
 17 18  2  0
 17 19  1  0
 20 21  1  0
M  CHG  1   4   1
M  END
