
     RDKit          3D

 20 21  0  0  0  0  0  0  0  0999 V2000
    3.3840   -2.1750    0.9740 O   0  0  0  0  0  0  0  0  0  0  0  0
    3.0430   -1.6680   -0.3020 C   0  0  2  0  0  0  0  0  0  0  0  0
    3.2110   -2.7910   -1.1550 O   0  0  0  0  0  0  0  0  0  0  0  0
    3.8780   -0.7110   -0.7260 O   0  0  0  0  0  0  0  0  0  0  0  0
    3.4730    0.5030   -1.1040 C   0  0  0  0  0  0  0  0  0  0  0  0
    2.8340    1.4300   -0.1710 C   0  0  1  0  0  0  0  0  0  0  0  0
    2.4750    2.6540   -0.8000 O   0  0  0  0  0  0  0  0  0  0  0  0
    1.7950    3.3640    0.1790 C   0  0  0  0  0  0  0  0  0  0  0  0
    1.1960    2.3860    1.1240 C   0  0  0  0  0  0  0  0  0  0  0  0
    1.5120    1.0510    0.4220 C   0  0  1  0  0  0  0  0  0  0  0  0
    0.4690    0.8430   -0.5340 N   0  0  0  0  0  0  0  0  0  0  0  0
   -0.6930    0.3240    0.1540 C   0  0  0  0  0  0  0  0  0  0  0  0
   -1.4410   -0.6990   -0.6940 C   0  0  1  0  0  0  0  0  0  0  0  0
   -0.6650   -1.7770   -1.0210 O   0  0  0  0  0  0  0  0  0  0  0  0
   -2.6820   -1.0780    0.0910 C   0  0  1  0  0  0  0  0  0  0  0  0
   -2.3670   -1.7100    1.2930 O   0  0  0  0  0  0  0  0  0  0  0  0
   -3.5190    0.1320    0.4150 C   0  0  0  0  0  0  0  0  0  0  0  0
   -4.9270   -0.4080    0.1690 C   0  0  0  0  0  0  0  0  0  0  0  0
   -4.7300   -1.1990   -0.9630 O   0  0  0  0  0  0  0  0  0  0  0  0
   -3.6120   -1.9640   -0.6980 C   0  0  0  0  0  0  0  0  0  0  0  0
  2  1  1  1
  2  3  1  0
  2  4  1  0
  4  5  1  0
  6  5  1  6
  6  7  1  0
  6 10  1  0
  7  8  1  0
  8  9  1  0
  9 10  1  0
 10 11  1  6
 11 12  1  0
 12 13  1  0
 13 14  1  1
 13 15  1  0
 15 16  1  1
 15 17  1  0
 15 20  1  0
 17 18  1  0
 18 19  1  0
 19 20  1  0
M  CHG  1  11   1
M  END
