
     RDKit          3D

 21 22  0  0  0  0  0  0  0  0999 V2000
   -2.3870    2.4250    0.5050 N   0  0  0  0  0  0  0  0  0  0  0  0
   -1.7770    1.2860    1.1220 C   0  0  0  0  0  0  0  0  0  0  0  0
   -1.3570    0.2970    0.0260 C   0  0  1  0  0  0  0  0  0  0  0  0
   -0.3950    0.8030   -0.9630 C   0  0  0  0  0  0  0  0  0  0  0  0
    0.9260    0.6100   -0.7370 O   0  0  0  0  0  0  0  0  0  0  0  0
    1.4350    1.1050    0.4230 C   0  0  0  0  0  0  0  0  0  0  0  0
    2.9120    1.2180    0.4720 C   0  0  2  0  0  0  0  0  0  0  0  0
    3.2610    2.5610    0.2000 O   0  0  0  0  0  0  0  0  0  0  0  0
    3.6470    0.3860   -0.5140 C   0  0  0  0  0  0  0  0  0  0  0  0
    4.8620    0.7470   -0.6400 O   0  0  0  0  0  0  0  0  0  0  0  0
    3.1260   -0.6420   -1.2180 O   0  0  0  0  0  0  0  0  0  0  0  0
    2.7190   -1.9190   -0.8760 C   0  0  0  0  0  0  0  0  0  0  0  0
    2.1980   -2.1110    0.4750 C   0  0  0  0  0  0  0  0  0  0  0  0
    3.0130   -2.1540    1.4340 O   0  0  0  0  0  0  0  0  0  0  0  0
    0.8590   -2.2480    0.7580 O   0  0  0  0  0  0  0  0  0  0  0  0
   -0.1970   -1.9350   -0.1280 C   0  0  0  0  0  0  0  0  0  0  0  0
   -1.1860   -1.0620    0.5450 C   0  0  1  0  0  0  0  0  0  0  0  0
   -1.0680   -1.1140    1.9490 O   0  0  0  0  0  0  0  0  0  0  0  0
   -2.6120   -1.4440    0.1270 C   0  0  0  0  0  0  0  0  0  0  0  0
   -2.6410   -0.1730   -0.6720 C   0  0  2  0  0  0  0  0  0  0  0  0
   -2.4720   -0.3380   -2.0460 O   0  0  0  0  0  0  0  0  0  0  0  0
  1  2  1  0
  3  2  1  1
  3  4  1  0
  3 17  1  0
  3 20  1  0
  4  5  1  0
  5  6  1  0
  6  7  1  0
  7  8  1  6
  7  9  1  0
  9 10  2  0
  9 11  1  0
 11 12  1  0
 12 13  1  0
 13 14  2  0
 13 15  1  0
 15 16  1  0
 16 17  1  0
 17 18  1  1
 17 19  1  0
 19 20  1  0
 20 21  1  6
M  CHG  1   1   1
M  END
