
     RDKit          3D

 20 20  0  0  0  0  0  0  0  0999 V2000
   -4.7040    0.1330    0.1470 C   0  0  0  0  0  0  0  0  0  0  0  0
   -3.3840    0.7650    0.5290 C   0  0  2  0  0  0  0  0  0  0  0  0
   -3.5370    1.3200    1.7970 O   0  0  0  0  0  0  0  0  0  0  0  0
   -3.0980    1.8610   -0.4460 C   0  0  0  0  0  0  0  0  0  0  0  0
   -4.1420    2.7630   -0.4590 O   0  0  0  0  0  0  0  0  0  0  0  0
   -2.2610   -0.2840    0.5160 C   0  0  1  0  0  0  0  0  0  0  0  0
   -2.1750   -0.7970   -0.8100 N   0  0  0  0  0  0  0  0  0  0  0  0
   -1.0380    0.2810    1.1270 C   0  0  0  0  0  0  0  0  0  0  0  0
    0.0460   -0.4960    1.3020 O   0  0  0  0  0  0  0  0  0  0  0  0
    0.7190   -1.0340    0.2650 C   0  0  2  0  0  0  0  0  0  0  0  0
    0.6720   -2.5640    0.4780 C   0  0  0  0  0  0  0  0  0  0  0  0
    1.1300   -3.2160   -0.6590 O   0  0  0  0  0  0  0  0  0  0  0  0
    2.2800   -2.5730   -1.0960 C   0  0  0  0  0  0  0  0  0  0  0  0
    2.8810   -1.8970   -0.0600 O   0  0  0  0  0  0  0  0  0  0  0  0
    2.2170   -0.7310    0.2960 C   0  0  1  0  0  0  0  0  0  0  0  0
    2.5880    0.3510   -0.6700 C   0  0  0  0  0  0  0  0  0  0  0  0
    4.0720    0.6010   -0.5920 C   0  0  1  0  0  0  0  0  0  0  0  0
    4.4590    1.6160   -1.4920 O   0  0  0  0  0  0  0  0  0  0  0  0
    4.4930    1.0920    0.7760 C   0  0  0  0  0  0  0  0  0  0  0  0
    3.8500    2.3060    1.0840 O   0  0  0  0  0  0  0  0  0  0  0  0
  2  1  1  6
  2  3  1  0
  2  4  1  0
  2  6  1  0
  4  5  1  0
  6  7  1  6
  6  8  1  0
  8  9  1  0
 10  9  1  1
 10 11  1  0
 10 15  1  0
 11 12  1  0
 12 13  1  0
 13 14  1  0
 14 15  1  0
 15 16  1  6
 16 17  1  0
 17 18  1  6
 17 19  1  0
 19 20  1  0
M  CHG  1   7   1
M  END
