
     RDKit          3D

 17 19  0  0  0  0  0  0  0  0999 V2000
   -4.2690   -1.9120    0.5000 C   0  0  0  0  0  0  0  0  0  0  0  0
   -2.8370   -1.4960    0.4210 C   0  0  0  0  0  0  0  0  0  0  0  0
   -2.6530   -0.0640    0.5990 N   0  0  0  0  0  0  0  0  0  0  0  0
   -1.3090    0.2720    0.2860 C   0  0  0  0  0  0  0  0  0  0  0  0
   -0.2830   -0.5950    0.2810 N   0  0  0  0  0  0  0  0  0  0  0  0
    0.8290    0.0710   -0.0580 N   0  0  0  0  0  0  0  0  0  0  0  0
    2.1160   -0.5140   -0.1680 C   0  0  0  0  0  0  0  0  0  0  0  0
    3.2280    0.1060   -0.4980 C   0  0  0  0  0  0  0  0  0  0  0  0
    4.3460   -0.8500   -0.5000 C   0  0  0  0  0  0  0  0  0  0  0  0
    3.7330   -2.1460   -0.1200 C   0  0  0  0  0  0  0  0  0  0  0  0
    2.4500   -1.9110    0.0620 C   0  0  0  0  0  0  0  0  0  0  0  0
    0.5290    1.3780   -0.2760 C   0  0  0  0  0  0  0  0  0  0  0  0
    1.3150    2.4120   -0.6320 N   0  0  0  0  0  0  0  0  0  0  0  0
    0.7630    3.6330   -0.7870 C   0  0  0  0  0  0  0  0  0  0  0  0
   -0.5930    3.7580   -0.5690 C   0  0  0  0  0  0  0  0  0  0  0  0
   -1.3820    2.7210   -0.2100 N   0  0  0  0  0  0  0  0  0  0  0  0
   -0.8230    1.5100   -0.0590 C   0  0  0  0  0  0  0  0  0  0  0  0
  1  2  1  0
  2  3  1  0
  3  4  1  0
  4  5  2  0
  4 17  1  0
  5  6  1  0
  6  7  1  0
  6 12  1  0
  7  8  2  0
  7 11  1  0
  8  9  1  0
  9 10  1  0
 10 11  2  0
 12 13  2  0
 12 17  1  0
 13 14  1  0
 14 15  2  0
 15 16  1  0
 16 17  2  0
M  CHG  1   3   1
M  END
