
     RDKit          3D

 17 18  0  0  0  0  0  0  0  0999 V2000
   -2.8850   -3.1320   -0.2600 C   0  0  0  0  0  0  0  0  0  0  0  0
   -2.6800   -1.8600   -0.5480 C   0  0  0  0  0  0  0  0  0  0  0  0
   -3.7740   -1.1360   -1.0570 N   0  0  0  0  0  0  0  0  0  0  0  0
   -1.3840   -1.2540   -0.3330 C   0  0  0  0  0  0  0  0  0  0  0  0
   -1.0640   -0.0130   -0.5830 C   0  0  0  0  0  0  0  0  0  0  0  0
   -1.9850    0.9330   -1.1210 N   0  0  0  0  0  0  0  0  0  0  0  0
   -2.0200    2.3070   -0.6530 C   0  0  0  0  0  0  0  0  0  0  0  0
   -0.6290    2.8540   -0.4330 C   0  0  0  0  0  0  0  0  0  0  0  0
    0.4290    1.9320   -0.6480 N   0  0  0  0  0  0  0  0  0  0  0  0
    0.2680    0.5320   -0.3210 C   0  0  0  0  0  0  0  0  0  0  0  0
    1.2480   -0.1740    0.1650 C   0  0  0  0  0  0  0  0  0  0  0  0
    2.5810    0.4170    0.4150 C   0  0  0  0  0  0  0  0  0  0  0  0
    3.5700   -0.2990    0.9070 C   0  0  0  0  0  0  0  0  0  0  0  0
    4.9240    0.1550    1.1990 C   0  0  0  0  0  0  0  0  0  0  0  0
    5.5550   -0.8660    1.6630 N   0  0  0  0  0  0  0  0  0  0  0  0
    4.7250   -1.9840    1.7060 N   0  0  0  0  0  0  0  0  0  0  0  0
    3.5570   -1.7200    1.2800 C   0  0  0  0  0  0  0  0  0  0  0  0
  1  2  2  0
  2  3  1  0
  2  4  1  0
  4  5  2  3
  5  6  1  0
  5 10  1  0
  6  7  1  0
  7  8  1  0
  8  9  1  0
  9 10  1  0
 10 11  2  3
 11 12  1  0
 12 13  2  3
 13 14  1  0
 13 17  1  0
 14 15  2  0
 15 16  1  0
 16 17  2  0
M  END
