
     RDKit          3D

 17 19  0  0  0  0  0  0  0  0999 V2000
    2.2570    2.0130    0.0370 C   0  0  0  0  0  0  0  0  0  0  0  0
    2.5300    0.6050    0.3340 C   0  0  0  0  0  0  0  0  0  0  0  0
    3.5700   -0.1560   -0.1930 C   0  0  0  0  0  0  0  0  0  0  0  0
    4.5670    0.2480   -1.1060 N   0  0  0  0  0  0  0  0  0  0  0  0
    3.4340   -1.3980    0.3580 C   0  0  0  0  0  0  0  0  0  0  0  0
    2.3720   -1.3790    1.1690 N   0  0  0  0  0  0  0  0  0  0  0  0
    1.8170   -0.1770    1.1630 N   0  0  0  0  0  0  0  0  0  0  0  0
    0.6490    0.2120    1.9220 C   0  0  0  0  0  0  0  0  0  0  0  0
   -0.6130   -0.0120    1.1710 C   0  0  0  0  0  0  0  0  0  0  0  0
   -1.3530   -1.1300    1.1810 N   0  0  0  0  0  0  0  0  0  0  0  0
   -2.4340   -0.9880    0.3860 C   0  0  0  0  0  0  0  0  0  0  0  0
   -3.4940   -1.8020    0.0410 C   0  0  0  0  0  0  0  0  0  0  0  0
   -4.4790   -1.3720   -0.8200 C   0  0  0  0  0  0  0  0  0  0  0  0
   -4.4280   -0.0890   -1.3700 C   0  0  0  0  0  0  0  0  0  0  0  0
   -3.3610    0.6980   -1.0070 C   0  0  0  0  0  0  0  0  0  0  0  0
   -2.3640    0.2860   -0.1460 C   0  0  0  0  0  0  0  0  0  0  0  0
   -1.2340    0.8530    0.3580 N   0  0  0  0  0  0  0  0  0  0  0  0
  1  2  1  0
  2  3  2  0
  2  7  1  0
  3  4  1  0
  3  5  1  0
  5  6  2  0
  6  7  1  0
  7  8  1  0
  8  9  1  0
  9 10  1  0
  9 17  2  0
 10 11  1  0
 11 12  2  0
 11 16  1  0
 12 13  1  0
 13 14  2  0
 14 15  1  0
 15 16  2  0
 16 17  1  0
M  CHG  1  17   1
M  END
