
     RDKit          3D

 15 16  0  0  0  0  0  0  0  0999 V2000
    3.3870    0.1070    0.3030 N   0  0  0  0  0  0  0  0  0  0  0  0
    2.1500   -0.5850    0.4110 C   0  0  0  0  0  0  0  0  0  0  0  0
    2.1100   -1.7090    0.9360 O   0  0  0  0  0  0  0  0  0  0  0  0
    0.9530    0.0430   -0.1000 C   0  0  0  0  0  0  0  0  0  0  0  0
    1.0520    1.3120   -0.5820 N   0  0  0  0  0  0  0  0  0  0  0  0
    0.1250    2.2920   -0.5150 C   0  0  0  0  0  0  0  0  0  0  0  0
    0.6720    3.7310   -1.0670 S   0  0  0  0  0  0  0  0  0  0  0  0
   -1.1400    2.2190   -0.0660 N   0  0  0  0  0  0  0  0  0  0  0  0
   -1.8340    1.1090    0.2370 C   0  0  0  0  0  0  0  0  0  0  0  0
   -2.9670    1.2680    0.7450 O   0  0  0  0  0  0  0  0  0  0  0  0
   -1.4880   -0.1780    0.0730 N   0  0  0  0  0  0  0  0  0  0  0  0
   -2.3000   -1.2360    0.0210 C   0  0  0  0  0  0  0  0  0  0  0  0
   -1.5590   -2.3840   -0.1670 C   0  0  0  0  0  0  0  0  0  0  0  0
   -0.2560   -2.0020   -0.2310 N   0  0  0  0  0  0  0  0  0  0  0  0
   -0.2220   -0.6630   -0.0840 C   0  0  0  0  0  0  0  0  0  0  0  0
  1  2  1  0
  2  3  2  0
  2  4  1  0
  4  5  2  0
  4 15  1  0
  5  6  1  0
  6  7  2  0
  6  8  1  0
  8  9  1  0
  9 10  2  0
  9 11  1  0
 11 12  1  0
 11 15  1  0
 12 13  2  0
 13 14  1  0
 14 15  2  0
M  CHG  1  14   1
M  END
