
     RDKit          3D

 14 14  0  0  0  0  0  0  0  0999 V2000
   -2.0230    3.1020   -0.7870 N   0  0  0  0  0  0  0  0  0  0  0  0
   -1.0580    2.2580   -0.0940 C   0  0  0  0  0  0  0  0  0  0  0  0
    0.1870    2.6680   -0.0510 C   0  0  0  0  0  0  0  0  0  0  0  0
    1.3240    2.0730    0.5360 N   0  0  0  0  0  0  0  0  0  0  0  0
    1.9810    1.0330    0.1630 C   0  0  0  0  0  0  0  0  0  0  0  0
    3.1380    0.5400    0.8790 N   0  0  0  0  0  0  0  0  0  0  0  0
    1.6220    0.0370   -1.2790 S   0  0  0  0  0  0  0  0  0  0  0  0
    1.7440   -1.6830   -0.7640 C   0  0  0  0  0  0  0  0  0  0  0  0
    0.4410   -2.4030   -0.7130 C   0  0  0  0  0  0  0  0  0  0  0  0
   -0.0080   -2.5130    0.6140 O   0  0  0  0  0  0  0  0  0  0  0  0
   -1.3860   -2.4710    0.5690 C   0  0  0  0  0  0  0  0  0  0  0  0
   -1.8770   -1.1030    0.2570 C   0  0  0  0  0  0  0  0  0  0  0  0
   -1.0260   -0.0830    0.7050 O   0  0  0  0  0  0  0  0  0  0  0  0
   -1.6370    1.0930    0.4610 N   0  0  0  0  0  0  0  0  0  0  0  0
  1  2  1  0
  2  3  2  0
  2 14  1  0
  3  4  1  0
  4  5  2  0
  5  6  1  0
  5  7  1  0
  7  8  1  0
  8  9  1  0
  9 10  1  0
 10 11  1  0
 11 12  1  0
 12 13  1  0
 13 14  1  0
M  CHG  1   4   1
M  END
