
     RDKit          3D

 24 24  0  0  0  0  0  0  0  0999 V2000
   -2.3750    4.3790    0.7850 O   0  0  0  0  0  0  0  0  0  0  0  0
   -1.4950    3.5970    0.3430 C   0  0  0  0  0  0  0  0  0  0  0  0
   -1.9730    2.2310    0.0150 C   0  0  0  0  0  0  0  0  0  0  0  0
   -2.2340    1.4670    1.1650 O   0  0  0  0  0  0  0  0  0  0  0  0
   -2.2100    0.0820    1.1800 C   0  0  0  0  0  0  0  0  0  0  0  0
   -2.6300   -0.5060    2.2070 O   0  0  0  0  0  0  0  0  0  0  0  0
   -1.7150   -0.7360    0.0480 C   0  0  2  0  0  0  0  0  0  0  0  0
   -2.5300   -2.0370    0.0560 C   0  0  0  0  0  0  0  0  0  0  0  0
   -2.0850   -2.8360   -1.0060 O   0  0  0  0  0  0  0  0  0  0  0  0
   -2.7710   -3.9430   -1.0080 O   0  0  0  0  0  0  0  0  0  0  0  0
   -0.2540   -1.0580    0.2150 C   0  0  0  0  0  0  0  0  0  0  0  0
    0.4510   -0.3890   -0.7760 O   0  0  0  0  0  0  0  0  0  0  0  0
    1.3100    0.5740   -0.2500 C   0  0  2  0  0  0  0  0  0  0  0  0
    2.6310   -0.0580    0.0390 C   0  0  0  0  0  0  0  0  0  0  0  0
    3.5910    0.5960    0.5240 O   0  0  0  0  0  0  0  0  0  0  0  0
    2.8520   -1.4030   -0.2180 O   0  0  0  0  0  0  0  0  0  0  0  0
    4.0390   -1.9820    0.0390 O   0  0  0  0  0  0  0  0  0  0  0  0
    4.8300   -1.9300   -1.0140 O   0  0  0  0  0  0  0  0  0  0  0  0
    5.9530   -1.3110   -0.7880 O   0  0  0  0  0  0  0  0  0  0  0  0
    0.8380    1.1090    0.9590 O   0  0  0  0  0  0  0  0  0  0  0  0
    1.1450    2.3280    1.5020 C   0  0  0  0  0  0  0  0  0  0  0  0
    1.6080    2.4430    2.7000 O   0  0  0  0  0  0  0  0  0  0  0  0
    0.9280    3.4310    0.6890 O   0  0  0  0  0  0  0  0  0  0  0  0
   -0.1860    3.8820    0.1450 O   0  0  0  0  0  0  0  0  0  0  0  0
  1  2  2  0
  2  3  1  0
  2 24  1  0
  3  4  1  0
  4  5  1  0
  5  6  2  0
  5  7  1  0
  7  8  1  1
  7 11  1  0
  8  9  1  0
  9 10  1  0
 11 12  1  0
 12 13  1  0
 13 14  1  1
 13 20  1  0
 14 15  2  0
 14 16  1  0
 16 17  1  0
 17 18  1  0
 18 19  1  0
 20 21  1  0
 21 22  2  0
 21 23  1  0
 23 24  1  0
M  END
