
     RDKit          3D

 24 26  0  0  0  0  0  0  0  0999 V2000
    5.9420    1.4960    0.1650 O   0  0  0  0  0  0  0  0  0  0  0  0
    4.7980    0.9640    0.5460 O   0  0  0  0  0  0  0  0  0  0  0  0
    4.8270   -0.3580    0.4840 O   0  0  0  0  0  0  0  0  0  0  0  0
    3.6180   -0.7840    0.2440 O   0  0  0  0  0  0  0  0  0  0  0  0
    3.4770   -1.3690   -0.9790 C   0  0  0  0  0  0  0  0  0  0  0  0
    2.1450   -1.8870   -1.3560 C   0  0  0  0  0  0  0  0  0  0  0  0
    1.0830   -1.0870   -1.4380 O   0  0  0  0  0  0  0  0  0  0  0  0
    0.6440   -0.4120   -0.3660 C   0  0  2  0  0  0  0  0  0  0  0  0
    1.4840    0.4920    0.2330 O   0  0  0  0  0  0  0  0  0  0  0  0
    0.9080    1.6750    0.2390 O   0  0  0  0  0  0  0  0  0  0  0  0
   -0.4450    1.2730    0.3520 C   0  0  1  0  0  0  0  0  0  0  0  0
   -0.6200    0.6630    1.6860 C   0  0  0  0  0  0  0  0  0  0  0  0
   -0.2030   -0.6240    1.8450 O   0  0  0  0  0  0  0  0  0  0  0  0
    0.0470   -1.3380    0.7140 C   0  0  1  0  0  0  0  0  0  0  0  0
   -1.1650   -1.7920    0.1960 O   0  0  0  0  0  0  0  0  0  0  0  0
   -2.0050   -2.1480    1.1380 O   0  0  0  0  0  0  0  0  0  0  0  0
   -3.3080   -1.7300    0.8910 C   0  0  0  0  0  0  0  0  0  0  0  0
   -3.2960   -0.8330   -0.1470 O   0  0  0  0  0  0  0  0  0  0  0  0
   -4.2810    0.0120   -0.1340 O   0  0  0  0  0  0  0  0  0  0  0  0
   -4.0800    0.8850   -1.1130 O   0  0  0  0  0  0  0  0  0  0  0  0
   -3.5590    2.0800   -0.6240 C   0  0  0  0  0  0  0  0  0  0  0  0
   -2.0910    2.2400   -0.9590 C   0  0  0  0  0  0  0  0  0  0  0  0
   -1.2970    2.3480    0.1550 O   0  0  0  0  0  0  0  0  0  0  0  0
   -0.4950    0.3750   -0.7120 O   0  0  0  0  0  0  0  0  0  0  0  0
  1  2  1  0
  2  3  1  0
  3  4  1  0
  4  5  1  0
  5  6  1  0
  6  7  1  0
  8  7  1  6
  8  9  1  0
  8 14  1  0
  8 24  1  0
  9 10  1  0
 10 11  1  0
 11 12  1  1
 11 23  1  0
 11 24  1  0
 12 13  1  0
 14 13  1  1
 14 15  1  0
 15 16  1  0
 16 17  1  0
 17 18  1  0
 18 19  1  0
 19 20  1  0
 20 21  1  0
 21 22  1  0
 22 23  1  0
M  END
