
     RDKit          3D

 20 21  0  0  0  0  0  0  0  0999 V2000
   -4.8100   -1.0150    1.2040 N   0  0  0  0  0  0  0  0  0  0  0  0
   -3.9830   -0.9690    0.0470 C   0  0  0  0  0  0  0  0  0  0  0  0
   -3.8610   -2.0040   -0.6570 O   0  0  0  0  0  0  0  0  0  0  0  0
   -3.2480    0.2470   -0.3780 C   0  0  1  0  0  0  0  0  0  0  0  0
   -3.4770    1.3020    0.4920 O   0  0  0  0  0  0  0  0  0  0  0  0
   -2.7780    1.2110    1.6780 C   0  0  0  0  0  0  0  0  0  0  0  0
   -1.2770    1.1510    1.4550 C   0  0  0  0  0  0  0  0  0  0  0  0
   -1.0510    1.0540    0.0530 N   0  0  0  0  0  0  0  0  0  0  0  0
    0.2610    1.3230   -0.3930 C   0  0  0  0  0  0  0  0  0  0  0  0
    1.2780    0.3280    0.0090 C   0  0  0  0  0  0  0  0  0  0  0  0
    0.9640   -0.6710    0.6910 O   0  0  0  0  0  0  0  0  0  0  0  0
    2.6300    0.4860   -0.3740 N   0  0  0  0  0  0  0  0  0  0  0  0
    3.6720   -0.4200   -0.0340 C   0  0  0  0  0  0  0  0  0  0  0  0
    4.4180   -1.0780   -0.9050 C   0  0  0  0  0  0  0  0  0  0  0  0
    5.3830   -1.9140   -0.1640 C   0  0  0  0  0  0  0  0  0  0  0  0
    5.4520   -1.3570    1.1720 N   0  0  0  0  0  0  0  0  0  0  0  0
    4.1300   -0.8090    1.3360 C   0  0  0  0  0  0  0  0  0  0  0  0
   -1.7490   -0.0270   -0.5520 C   0  0  2  0  0  0  0  0  0  0  0  0
   -1.4970   -0.1490   -2.0210 C   0  0  0  0  0  0  0  0  0  0  0  0
   -1.8720    1.0750   -2.6690 N   0  0  0  0  0  0  0  0  0  0  0  0
  1  2  1  0
  2  3  2  0
  4  2  1  1
  4  5  1  0
  4 18  1  0
  5  6  1  0
  6  7  1  0
  7  8  1  0
  8  9  1  0
  8 18  1  0
  9 10  1  0
 10 11  2  0
 10 12  1  0
 12 13  1  0
 13 14  2  0
 13 17  1  0
 14 15  1  0
 15 16  1  0
 16 17  1  0
 18 19  1  6
 19 20  1  0
M  CHG  1  20   1
M  END
