
     RDKit          3D

 19 21  0  0  0  0  0  0  0  0999 V2000
    4.0080    2.1560   -1.7550 N   0  0  0  0  0  0  0  0  0  0  0  0
    3.4280    1.3780   -0.7200 C   0  0  0  0  0  0  0  0  0  0  0  0
    2.2340    0.7540   -0.9200 N   0  0  0  0  0  0  0  0  0  0  0  0
    1.6920    0.0190    0.0680 C   0  0  0  0  0  0  0  0  0  0  0  0
    0.3920   -0.6950   -0.0480 C   0  0  2  0  0  0  0  0  0  0  0  0
    0.4190   -1.8020    0.8800 N   0  0  0  0  0  0  0  0  0  0  0  0
    0.1050   -1.1760   -1.4360 C   0  0  0  0  0  0  0  0  0  0  0  0
   -1.2620   -1.7710   -1.4820 C   0  0  0  0  0  0  0  0  0  0  0  0
   -2.1070   -1.4920   -0.4740 O   0  0  0  0  0  0  0  0  0  0  0  0
   -2.0320   -0.2980    0.1480 C   0  0  1  0  0  0  0  0  0  0  0  0
   -3.0530    0.6770   -0.4380 C   0  0  0  0  0  0  0  0  0  0  0  0
   -3.9030    1.0320    0.7700 C   0  0  0  0  0  0  0  0  0  0  0  0
   -3.9310   -0.1710    1.5100 O   0  0  0  0  0  0  0  0  0  0  0  0
   -2.5880   -0.4690    1.5640 C   0  0  0  0  0  0  0  0  0  0  0  0
   -0.6870    0.3130    0.2820 C   0  0  0  0  0  0  0  0  0  0  0  0
    2.3650   -0.0650    1.2210 N   0  0  0  0  0  0  0  0  0  0  0  0
    3.5530    0.5490    1.4390 C   0  0  0  0  0  0  0  0  0  0  0  0
    4.1670    0.4520    2.5410 O   0  0  0  0  0  0  0  0  0  0  0  0
    4.0670    1.2720    0.4380 N   0  0  0  0  0  0  0  0  0  0  0  0
  1  2  1  0
  2  3  2  0
  2 19  1  0
  3  4  1  0
  4  5  1  0
  4 16  2  0
  5  6  1  1
  5  7  1  0
  5 15  1  0
  7  8  1  0
  8  9  1  0
  9 10  1  0
 10 11  1  6
 10 14  1  0
 10 15  1  0
 11 12  1  0
 12 13  1  0
 13 14  1  0
 16 17  1  0
 17 18  2  0
 17 19  1  0
M  CHG  1   6   1
M  END
