
     RDKit          3D

 20 22  0  0  0  0  0  0  0  0999 V2000
   -3.0400    0.5810   -1.2940 N   0  0  0  0  0  0  0  0  0  0  0  0
   -1.9700    0.4690   -0.2870 C   0  0  1  0  0  0  0  0  0  0  0  0
   -2.6080   -0.0190    0.9570 C   0  0  0  0  0  0  0  0  0  0  0  0
   -2.9850    0.4870    2.1790 C   0  0  0  0  0  0  0  0  0  0  0  0
   -3.5420   -0.5190    2.8950 N   0  0  0  0  0  0  0  0  0  0  0  0
   -3.5340   -1.6490    2.1770 N   0  0  0  0  0  0  0  0  0  0  0  0
   -2.9670   -1.3480    0.9990 C   0  0  0  0  0  0  0  0  0  0  0  0
   -2.6460   -2.1250   -0.2390 C   0  0  0  0  0  0  0  0  0  0  0  0
   -1.1590   -1.9230   -0.4330 C   0  0  0  0  0  0  0  0  0  0  0  0
   -0.9050   -0.4730   -0.7330 C   0  0  2  0  0  0  0  0  0  0  0  0
    0.4250   -0.0590   -0.3070 N   0  0  0  0  0  0  0  0  0  0  0  0
    1.4400    0.3210   -1.2130 C   0  0  0  0  0  0  0  0  0  0  0  0
    1.1240    0.2800   -2.4490 O   0  0  0  0  0  0  0  0  0  0  0  0
    2.7650    0.7330   -0.7860 C   0  0  0  0  0  0  0  0  0  0  0  0
    3.1260    0.7860    0.4790 C   0  0  0  0  0  0  0  0  0  0  0  0
    4.4060    1.1820    0.9430 N   0  0  0  0  0  0  0  0  0  0  0  0
    5.3780    1.5510   -0.0180 C   0  0  0  0  0  0  0  0  0  0  0  0
    6.5580    1.7820    0.3080 O   0  0  0  0  0  0  0  0  0  0  0  0
    4.9770    1.6600   -1.4250 C   0  0  0  0  0  0  0  0  0  0  0  0
    3.7420    1.1020   -1.7300 O   0  0  0  0  0  0  0  0  0  0  0  0
  2  1  1  6
  2  3  1  0
  2 10  1  0
  3  4  2  0
  3  7  1  0
  4  5  1  0
  5  6  1  0
  6  7  2  0
  7  8  1  0
  8  9  1  0
  9 10  1  0
 10 11  1  1
 11 12  1  0
 12 13  2  0
 12 14  1  0
 14 15  2  0
 14 20  1  0
 15 16  1  0
 16 17  1  0
 17 18  2  0
 17 19  1  0
 19 20  1  0
M  CHG  1   6   1
M  END
