
     RDKit          3D

 20 21  0  0  0  0  0  0  0  0999 V2000
   -4.6620    1.6810   -0.1360 C   0  0  0  0  0  0  0  0  0  0  0  0
   -4.0650    0.2970    0.1510 C   0  0  1  0  0  0  0  0  0  0  0  0
   -5.1180   -0.4700    0.6500 O   0  0  0  0  0  0  0  0  0  0  0  0
   -3.5970   -0.2460   -1.1750 C   0  0  0  0  0  0  0  0  0  0  0  0
   -2.3450    0.5640   -1.5440 C   0  0  0  0  0  0  0  0  0  0  0  0
   -1.3180    0.0430   -0.6610 N   0  0  0  0  0  0  0  0  0  0  0  0
   -0.0420   -0.2520   -1.1840 C   0  0  0  0  0  0  0  0  0  0  0  0
    0.1870   -0.0460   -2.4450 O   0  0  0  0  0  0  0  0  0  0  0  0
    1.0880   -0.7750   -0.4570 C   0  0  0  0  0  0  0  0  0  0  0  0
    0.9980   -1.0500    0.9150 N   0  0  0  0  0  0  0  0  0  0  0  0
    2.2000   -0.9920   -1.0900 N   0  0  0  0  0  0  0  0  0  0  0  0
    3.3380   -1.4900   -0.4880 N   0  0  0  0  0  0  0  0  0  0  0  0
    4.4920   -0.6740   -0.2170 C   0  0  0  0  0  0  0  0  0  0  0  0
    5.3140   -0.1390   -1.0920 C   0  0  0  0  0  0  0  0  0  0  0  0
    6.3480    0.6130   -0.3590 C   0  0  0  0  0  0  0  0  0  0  0  0
    6.0230    0.4450    1.0280 N   0  0  0  0  0  0  0  0  0  0  0  0
    4.9670   -0.2870    1.1010 C   0  0  0  0  0  0  0  0  0  0  0  0
   -1.6360   -0.1530    0.7020 C   0  0  0  0  0  0  0  0  0  0  0  0
   -2.9520    0.4800    1.1150 C   0  0  2  0  0  0  0  0  0  0  0  0
   -3.3200   -0.1630    2.3200 O   0  0  0  0  0  0  0  0  0  0  0  0
  2  1  1  6
  2  3  1  0
  2  4  1  0
  2 19  1  0
  4  5  1  0
  5  6  1  0
  6  7  1  0
  6 18  1  0
  7  8  2  0
  7  9  1  0
  9 10  1  0
  9 11  2  3
 11 12  1  0
 12 13  1  0
 13 14  2  0
 13 17  1  0
 14 15  1  0
 15 16  1  0
 16 17  2  0
 18 19  1  0
 19 20  1  1
M  CHG  1  16   1
M  END
