
     RDKit          3D

 20 21  0  0  0  0  0  0  0  0999 V2000
    5.1330    2.2270    0.3840 C   0  0  0  0  0  0  0  0  0  0  0  0
    4.0020    1.5970   -0.1940 O   0  0  0  0  0  0  0  0  0  0  0  0
    3.2600    0.7010    0.5230 C   0  0  0  0  0  0  0  0  0  0  0  0
    3.5640    0.4130    1.7120 O   0  0  0  0  0  0  0  0  0  0  0  0
    2.0480   -0.0050   -0.0260 C   0  0  1  0  0  0  0  0  0  0  0  0
    1.8930    0.4710   -1.3790 N   0  0  0  0  0  0  0  0  0  0  0  0
    2.3720   -1.4810    0.0050 C   0  0  0  0  0  0  0  0  0  0  0  0
    1.1630   -2.3230    0.2830 C   0  0  0  0  0  0  0  0  0  0  0  0
   -0.1120   -1.6370   -0.2330 C   0  0  1  0  0  0  0  0  0  0  0  0
   -1.1470   -2.6220   -0.1170 N   0  0  0  0  0  0  0  0  0  0  0  0
   -0.3390   -0.4560    0.6790 C   0  0  2  0  0  0  0  0  0  0  0  0
   -1.4400    0.4310    0.2530 C   0  0  0  0  0  0  0  0  0  0  0  0
   -1.1640    1.6390   -0.0670 O   0  0  0  0  0  0  0  0  0  0  0  0
   -2.7950    0.0760    0.1600 N   0  0  0  0  0  0  0  0  0  0  0  0
   -3.8530    0.9290   -0.2520 C   0  0  0  0  0  0  0  0  0  0  0  0
   -3.8180    2.2430   -0.6410 C   0  0  0  0  0  0  0  0  0  0  0  0
   -5.0740    2.6190   -0.9390 N   0  0  0  0  0  0  0  0  0  0  0  0
   -5.9170    1.6210   -0.7640 N   0  0  0  0  0  0  0  0  0  0  0  0
   -5.1850    0.5770   -0.3430 C   0  0  0  0  0  0  0  0  0  0  0  0
    0.9020    0.3550    0.8630 C   0  0  0  0  0  0  0  0  0  0  0  0
  1  2  1  0
  2  3  1  0
  3  4  2  0
  3  5  1  0
  5  6  1  6
  5  7  1  0
  5 20  1  0
  7  8  1  0
  8  9  1  0
  9 10  1  1
  9 11  1  0
 11 12  1  6
 11 20  1  0
 12 13  2  0
 12 14  1  0
 14 15  1  0
 15 16  1  0
 15 19  2  0
 16 17  2  0
 17 18  1  0
 18 19  1  0
M  CHG  1  10   1
M  END
