
     RDKit          3D

 24 26  0  0  0  0  0  0  0  0999 V2000
   -6.5500    1.8530    0.9800 C   0  0  0  0  0  0  0  0  0  0  0  0
   -5.2610    1.9520    0.3130 N   0  0  0  0  0  0  0  0  0  0  0  0
   -4.4720    0.7660    0.1600 C   0  0  0  0  0  0  0  0  0  0  0  0
   -4.9190   -0.4510    0.6340 C   0  0  0  0  0  0  0  0  0  0  0  0
   -4.1660   -1.5950    0.4900 C   0  0  0  0  0  0  0  0  0  0  0  0
   -2.9290   -1.5140   -0.1470 C   0  0  0  0  0  0  0  0  0  0  0  0
   -2.0030   -2.3930   -0.4310 O   0  0  0  0  0  0  0  0  0  0  0  0
   -0.9890   -1.8500   -1.0510 C   0  0  0  0  0  0  0  0  0  0  0  0
    0.2510   -2.5430   -1.5310 C   0  0  0  0  0  0  0  0  0  0  0  0
    1.2860   -2.5630   -0.5130 N   0  0  0  0  0  0  0  0  0  0  0  0
    1.8100   -1.3150    0.0160 C   0  0  0  0  0  0  0  0  0  0  0  0
    1.2960   -0.2970   -0.4810 O   0  0  0  0  0  0  0  0  0  0  0  0
    2.8040   -1.2860    0.9960 N   0  0  0  0  0  0  0  0  0  0  0  0
    3.4630   -0.2120    1.6120 C   0  0  0  0  0  0  0  0  0  0  0  0
    4.3440    0.7050    0.8740 C   0  0  0  0  0  0  0  0  0  0  0  0
    5.6910    0.6410    1.1260 C   0  0  0  0  0  0  0  0  0  0  0  0
    6.4950   -0.4310    2.2450 Cl  0  0  0  0  0  0  0  0  0  0  0  0
    6.3820    1.6460    0.3240 C   0  0  0  0  0  0  0  0  0  0  0  0
    5.2860    2.3080   -0.3870 C   0  0  0  0  0  0  0  0  0  0  0  0
    4.1080    1.7620   -0.0700 C   0  0  0  0  0  0  0  0  0  0  0  0
    2.5570    2.3790   -0.6960 Cl  0  0  0  0  0  0  0  0  0  0  0  0
   -1.2750   -0.5440   -1.1750 N   0  0  0  0  0  0  0  0  0  0  0  0
   -2.4690   -0.3080   -0.6240 C   0  0  0  0  0  0  0  0  0  0  0  0
   -3.2600    0.8100   -0.4570 C   0  0  0  0  0  0  0  0  0  0  0  0
  1  2  1  0
  2  3  1  0
  3  4  2  0
  3 24  1  0
  4  5  1  0
  5  6  2  0
  6  7  1  0
  6 23  1  0
  7  8  1  0
  8  9  1  0
  8 22  2  0
  9 10  1  0
 10 11  1  0
 11 12  2  0
 11 13  1  0
 13 14  1  0
 14 15  1  0
 15 16  2  0
 15 20  1  0
 16 17  1  0
 16 18  1  0
 18 19  1  0
 19 20  2  0
 20 21  1  0
 22 23  1  0
 23 24  2  0
M  END
