
     RDKit          3D

 24 26  0  0  0  0  0  0  0  0999 V2000
   -4.9680   -2.4130    0.5680 O   0  0  0  0  0  0  0  0  0  0  0  0
   -4.6950   -1.1800    0.6240 C   0  0  0  0  0  0  0  0  0  0  0  0
   -3.4070   -0.5200    0.7340 C   0  0  0  0  0  0  0  0  0  0  0  0
   -3.5430    0.7870    0.7640 C   0  0  0  0  0  0  0  0  0  0  0  0
   -2.5430    1.8790    0.8670 C   0  0  0  0  0  0  0  0  0  0  0  0
   -1.1920    1.4240    0.9370 N   0  0  0  0  0  0  0  0  0  0  0  0
   -0.5970    0.7320   -0.1300 C   0  0  0  0  0  0  0  0  0  0  0  0
   -1.2990    0.5920   -1.3090 C   0  0  0  0  0  0  0  0  0  0  0  0
   -0.7130   -0.0930   -2.3500 C   0  0  0  0  0  0  0  0  0  0  0  0
    0.5500   -0.6200   -2.1960 C   0  0  0  0  0  0  0  0  0  0  0  0
    1.3160   -1.4920   -3.5180 Cl  0  0  0  0  0  0  0  0  0  0  0  0
    1.2750   -0.4850   -1.0010 C   0  0  0  0  0  0  0  0  0  0  0  0
    2.5250   -1.1090   -0.9140 N   0  0  0  0  0  0  0  0  0  0  0  0
    3.5900   -0.8610   -0.0260 C   0  0  0  0  0  0  0  0  0  0  0  0
    3.8070    0.2950    0.6820 C   0  0  0  0  0  0  0  0  0  0  0  0
    4.9470    0.4540    1.4920 C   0  0  0  0  0  0  0  0  0  0  0  0
    5.8890   -0.5390    1.6050 C   0  0  0  0  0  0  0  0  0  0  0  0
    5.6620   -1.6600    0.9060 N   0  0  0  0  0  0  0  0  0  0  0  0
    4.5820   -1.8390    0.1260 C   0  0  0  0  0  0  0  0  0  0  0  0
    4.3580   -3.3460   -0.7540 Cl  0  0  0  0  0  0  0  0  0  0  0  0
    0.6840    0.2020    0.0410 C   0  0  0  0  0  0  0  0  0  0  0  0
   -4.9800    1.0770    0.6730 C   0  0  0  0  0  0  0  0  0  0  0  0
   -5.5330    2.2240    0.6690 O   0  0  0  0  0  0  0  0  0  0  0  0
   -5.6720   -0.1630    0.5870 N   0  0  0  0  0  0  0  0  0  0  0  0
  1  2  2  0
  2  3  1  0
  2 24  1  0
  3  4  2  0
  4  5  1  0
  4 22  1  0
  5  6  1  0
  6  7  1  0
  7  8  2  0
  7 21  1  0
  8  9  1  0
  9 10  2  0
 10 11  1  0
 10 12  1  0
 12 13  1  0
 12 21  2  0
 13 14  1  0
 14 15  2  0
 14 19  1  0
 15 16  1  0
 16 17  2  0
 17 18  1  0
 18 19  2  0
 19 20  1  0
 22 23  2  0
 22 24  1  0
M  END
