
     RDKit          3D

 24 26  0  0  0  0  0  0  0  0999 V2000
   -2.9210    2.3830   -0.2380 C   0  0  0  0  0  0  0  0  0  0  0  0
   -2.5370    1.0240    0.1170 C   0  0  0  0  0  0  0  0  0  0  0  0
   -1.2440    0.6220    0.1160 N   0  0  0  0  0  0  0  0  0  0  0  0
   -0.8480   -0.6180    0.4430 C   0  0  0  0  0  0  0  0  0  0  0  0
    0.5640   -0.9860    0.4250 C   0  0  0  0  0  0  0  0  0  0  0  0
    1.1560   -2.1370    0.7080 N   0  0  0  0  0  0  0  0  0  0  0  0
    2.4540   -1.9880    0.5510 O   0  0  0  0  0  0  0  0  0  0  0  0
    2.7230   -0.7630    0.1710 C   0  0  0  0  0  0  0  0  0  0  0  0
    4.0460   -0.2100   -0.1050 C   0  0  0  0  0  0  0  0  0  0  0  0
    4.1940    1.1050   -0.4930 C   0  0  0  0  0  0  0  0  0  0  0  0
    5.4710    1.6100   -0.7520 C   0  0  0  0  0  0  0  0  0  0  0  0
    6.5920    0.8170   -0.6250 C   0  0  0  0  0  0  0  0  0  0  0  0
    8.1970    1.4400   -0.9460 Cl  0  0  0  0  0  0  0  0  0  0  0  0
    6.4510   -0.4980   -0.2370 C   0  0  0  0  0  0  0  0  0  0  0  0
    7.5760   -1.2860   -0.1120 O   0  0  0  0  0  0  0  0  0  0  0  0
    5.1740   -0.9790    0.0140 C   0  0  0  0  0  0  0  0  0  0  0  0
    1.5490   -0.1350    0.0910 N   0  0  0  0  0  0  0  0  0  0  0  0
   -1.8110   -1.5360    0.8000 C   0  0  0  0  0  0  0  0  0  0  0  0
   -3.1230   -1.1340    0.8020 C   0  0  0  0  0  0  0  0  0  0  0  0
   -4.0870   -2.1220    1.1800 N   0  0  0  0  0  0  0  0  0  0  0  0
   -3.5240    0.1600    0.4590 C   0  0  0  0  0  0  0  0  0  0  0  0
   -4.9170    0.4390    0.4910 C   0  0  0  0  0  0  0  0  0  0  0  0
   -5.7620    0.4940   -0.6950 C   0  0  0  0  0  0  0  0  0  0  0  0
   -5.7330   -1.0960   -1.5530 Cl  0  0  0  0  0  0  0  0  0  0  0  0
  1  2  1  0
  2  3  2  0
  2 21  1  0
  3  4  1  0
  4  5  1  0
  4 18  2  0
  5  6  2  0
  5 17  1  0
  6  7  1  0
  7  8  1  0
  8  9  1  0
  8 17  2  0
  9 10  2  0
  9 16  1  0
 10 11  1  0
 11 12  2  0
 12 13  1  0
 12 14  1  0
 14 15  1  0
 14 16  2  0
 18 19  1  0
 19 20  1  0
 19 21  2  0
 21 22  1  0
 22 23  1  0
 23 24  1  0
M  END
