
     RDKit          3D

 24 26  0  0  0  0  0  0  0  0999 V2000
   -2.0240   -3.7030    1.2090 C   0  0  0  0  0  0  0  0  0  0  0  0
   -2.8340   -2.6450    0.5570 C   0  0  0  0  0  0  0  0  0  0  0  0
   -4.0370   -2.7410   -0.0320 N   0  0  0  0  0  0  0  0  0  0  0  0
   -4.4100   -1.5490   -0.4930 N   0  0  0  0  0  0  0  0  0  0  0  0
   -3.4790   -0.6230   -0.2300 C   0  0  0  0  0  0  0  0  0  0  0  0
   -3.4710    0.8000   -0.5490 C   0  0  0  0  0  0  0  0  0  0  0  0
   -4.4750    1.4720   -1.2120 C   0  0  0  0  0  0  0  0  0  0  0  0
   -4.1390    2.8000   -1.3430 C   0  0  0  0  0  0  0  0  0  0  0  0
   -2.8860    2.8840   -0.7250 C   0  0  0  0  0  0  0  0  0  0  0  0
   -2.5630    1.6930   -0.2910 O   0  0  0  0  0  0  0  0  0  0  0  0
   -2.4760   -1.3140    0.4360 C   0  0  0  0  0  0  0  0  0  0  0  0
   -1.2730   -0.7340    0.9160 N   0  0  0  0  0  0  0  0  0  0  0  0
   -0.1100   -0.6810    0.0840 C   0  0  0  0  0  0  0  0  0  0  0  0
   -0.1360   -1.1470   -1.0810 O   0  0  0  0  0  0  0  0  0  0  0  0
    1.1570   -0.0790    0.5650 C   0  0  0  0  0  0  0  0  0  0  0  0
    2.1670   -0.1470   -0.4460 N   0  0  0  0  0  0  0  0  0  0  0  0
    3.4570    0.3650   -0.2120 C   0  0  0  0  0  0  0  0  0  0  0  0
    4.4350    0.3020   -1.1840 C   0  0  0  0  0  0  0  0  0  0  0  0
    5.6950    0.8130   -0.9280 C   0  0  0  0  0  0  0  0  0  0  0  0
    5.9980    1.3960    0.3040 C   0  0  0  0  0  0  0  0  0  0  0  0
    7.6000    2.0390    0.6130 Cl  0  0  0  0  0  0  0  0  0  0  0  0
    5.0190    1.4560    1.2690 C   0  0  0  0  0  0  0  0  0  0  0  0
    5.3690    2.1780    2.8200 Cl  0  0  0  0  0  0  0  0  0  0  0  0
    3.7660    0.9420    1.0010 C   0  0  0  0  0  0  0  0  0  0  0  0
  1  2  1  0
  2  3  2  0
  2 11  1  0
  3  4  1  0
  4  5  1  0
  5  6  1  0
  5 11  2  0
  6  7  2  0
  6 10  1  0
  7  8  1  0
  8  9  2  0
  9 10  1  0
 11 12  1  0
 12 13  1  0
 13 14  2  0
 13 15  1  0
 15 16  1  0
 16 17  1  0
 17 18  2  0
 17 24  1  0
 18 19  1  0
 19 20  2  0
 20 21  1  0
 20 22  1  0
 22 23  1  0
 22 24  2  0
M  END
