
     RDKit          3D

 28 31  0  0  0  0  0  0  0  0999 V2000
   -4.5880   -2.8800   -1.1700 C   0  0  0  0  0  0  0  0  0  0  0  0
   -4.5620   -1.7480   -0.2180 N   0  0  0  0  0  0  0  0  0  0  0  0
   -4.8780   -0.4440   -0.6470 C   0  0  0  0  0  0  0  0  0  0  0  0
   -5.1960   -0.3400   -1.9050 O   0  0  0  0  0  0  0  0  0  0  0  0
   -4.8850    0.7500    0.1570 C   0  0  0  0  0  0  0  0  0  0  0  0
   -5.7260    1.7970   -0.2620 C   0  0  0  0  0  0  0  0  0  0  0  0
   -5.7940    2.9290    0.4970 C   0  0  0  0  0  0  0  0  0  0  0  0
   -5.0750    3.1000    1.6600 C   0  0  0  0  0  0  0  0  0  0  0  0
   -4.2510    2.0740    2.0680 C   0  0  0  0  0  0  0  0  0  0  0  0
   -4.1760    0.9160    1.2990 C   0  0  0  0  0  0  0  0  0  0  0  0
   -3.0340   -0.3330    1.8740 S   0  0  0  0  0  0  0  0  0  0  0  0
   -1.4570   -0.0420    1.1050 C   0  0  0  0  0  0  0  0  0  0  0  0
   -0.4170   -0.8800    1.4370 C   0  0  0  0  0  0  0  0  0  0  0  0
    0.8280   -0.6730    0.8410 C   0  0  0  0  0  0  0  0  0  0  0  0
    1.0160    0.3580   -0.0690 C   0  0  0  0  0  0  0  0  0  0  0  0
    2.1070    0.7610   -0.7920 C   0  0  0  0  0  0  0  0  0  0  0  0
    3.4860    0.3220   -0.8060 C   0  0  0  0  0  0  0  0  0  0  0  0
    4.1000   -0.4690    0.0240 C   0  0  0  0  0  0  0  0  0  0  0  0
    5.5250   -0.8560   -0.0910 C   0  0  0  0  0  0  0  0  0  0  0  0
    6.3320   -0.4260   -1.1050 C   0  0  0  0  0  0  0  0  0  0  0  0
    7.6830   -0.7910   -1.2000 C   0  0  0  0  0  0  0  0  0  0  0  0
    8.2080   -1.6120   -0.2370 C   0  0  0  0  0  0  0  0  0  0  0  0
    7.3680   -2.0300    0.7740 C   0  0  0  0  0  0  0  0  0  0  0  0
    6.0800   -1.6600    0.8330 N   0  0  0  0  0  0  0  0  0  0  0  0
    1.6520    1.8340   -1.5360 N   0  0  0  0  0  0  0  0  0  0  0  0
    0.3980    2.0610   -1.2820 N   0  0  0  0  0  0  0  0  0  0  0  0
   -0.0530    1.1930   -0.3900 C   0  0  0  0  0  0  0  0  0  0  0  0
   -1.2890    0.9850    0.2040 C   0  0  0  0  0  0  0  0  0  0  0  0
  1  2  1  0
  2  3  1  0
  3  4  2  0
  3  5  1  0
  5  6  2  0
  5 10  1  0
  6  7  1  0
  7  8  2  0
  8  9  1  0
  9 10  2  0
 10 11  1  0
 11 12  1  0
 12 13  1  0
 12 28  2  0
 13 14  2  0
 14 15  1  0
 15 16  2  0
 15 27  1  0
 16 17  1  0
 16 25  1  0
 17 18  2  3
 18 19  1  0
 19 20  2  0
 19 24  1  0
 20 21  1  0
 21 22  2  0
 22 23  1  0
 23 24  2  0
 25 26  1  0
 26 27  2  0
 27 28  1  0
M  END
