
     RDKit          3D

 10  9  0  0  0  0  0  0  0  0999 V2000
    2.7940   -0.5480    0.0830 C   0  0  0  0  0  0  0  0  0  0  0  0
    1.5380    0.1120   -0.3620 C   0  0  0  0  0  0  0  0  0  0  0  0
    1.7130    1.1480   -1.4140 C   0  0  0  0  0  0  0  0  0  0  0  0
    0.3930   -0.2450    0.1760 C   0  0  0  0  0  0  0  0  0  0  0  0
    0.4690   -1.3240    1.2290 C   0  0  0  0  0  0  0  0  0  0  0  0
   -0.8970    0.2950   -0.1490 C   0  0  0  0  0  0  0  0  0  0  0  0
   -0.9580    1.3390   -1.1690 N   0  0  0  0  0  0  0  0  0  0  0  0
   -2.0430   -0.0480    0.3740 C   0  0  0  0  0  0  0  0  0  0  0  0
   -2.2260   -1.0170    1.3600 N   0  0  0  0  0  0  0  0  0  0  0  0
   -3.2460    0.5990   -0.0720 N   0  0  0  0  0  0  0  0  0  0  0  0
  1  2  1  0
  2  3  1  0
  2  4  2  3
  4  5  1  0
  4  6  1  0
  6  7  1  0
  6  8  2  3
  8  9  1  0
  8 10  1  0
M  END
