
     RDKit          3D

  9  8  0  0  0  0  0  0  0  0999 V2000
    1.9960   -2.4290   -1.2860 C   0  0  0  0  0  0  0  0  0  0  0  0
    1.8020   -1.1360   -1.1050 C   0  0  0  0  0  0  0  0  0  0  0  0
    2.9310   -0.2790   -1.0190 N   0  0  0  0  0  0  0  0  0  0  0  0
    0.4060   -0.5700   -0.9920 C   0  0  0  0  0  0  0  0  0  0  0  0
    0.3220    0.0450    0.2900 N   0  0  0  0  0  0  0  0  0  0  0  0
   -0.9390    0.6560    0.6140 C   0  0  1  0  0  0  0  0  0  0  0  0
   -2.0770   -0.3220    0.6600 C   0  0  0  0  0  0  0  0  0  0  0  0
   -0.7830    1.2050    2.0410 C   0  0  0  0  0  0  0  0  0  0  0  0
   -1.3150    1.8090   -0.2510 C   0  0  0  0  0  0  0  0  0  0  0  0
  1  2  2  0
  2  3  1  0
  2  4  1  0
  4  5  1  0
  5  6  1  0
  6  7  1  1
  6  8  1  0
  6  9  1  0
M  END
