
     RDKit          3D

 19 21  0  0  0  0  0  0  0  0999 V2000
    6.3170    0.3610    0.9520 C   0  0  0  0  0  0  0  0  0  0  0  0
    4.9830   -0.0320    0.4180 C   0  0  0  0  0  0  0  0  0  0  0  0
    4.8290   -0.9400   -0.6110 C   0  0  0  0  0  0  0  0  0  0  0  0
    3.4710   -1.0350   -0.8110 C   0  0  0  0  0  0  0  0  0  0  0  0
    2.8530   -0.1990    0.0850 C   0  0  0  0  0  0  0  0  0  0  0  0
    1.4140   -0.0210    0.1860 C   0  0  0  0  0  0  0  0  0  0  0  0
    0.4770   -0.6220   -0.5540 N   0  0  0  0  0  0  0  0  0  0  0  0
   -0.7740   -0.2040   -0.1710 C   0  0  0  0  0  0  0  0  0  0  0  0
   -1.9880   -0.6230   -0.7250 N   0  0  0  0  0  0  0  0  0  0  0  0
   -3.2640   -0.1820   -0.3170 C   0  0  0  0  0  0  0  0  0  0  0  0
   -3.5150    0.7230    0.6820 C   0  0  0  0  0  0  0  0  0  0  0  0
   -4.8210    1.1140    1.0300 C   0  0  0  0  0  0  0  0  0  0  0  0
   -5.9110    0.5980    0.3750 C   0  0  0  0  0  0  0  0  0  0  0  0
   -7.5420    1.0990    0.8250 Cl  0  0  0  0  0  0  0  0  0  0  0  0
   -5.6840   -0.3110   -0.6300 C   0  0  0  0  0  0  0  0  0  0  0  0
   -4.4070   -0.6870   -0.9640 C   0  0  0  0  0  0  0  0  0  0  0  0
   -0.5360    0.6580    0.8130 N   0  0  0  0  0  0  0  0  0  0  0  0
    0.7540    0.7880    1.0470 N   0  0  0  0  0  0  0  0  0  0  0  0
    3.8030    0.3630    0.7810 O   0  0  0  0  0  0  0  0  0  0  0  0
  1  2  1  0
  2  3  2  0
  2 19  1  0
  3  4  1  0
  4  5  2  0
  5  6  1  0
  5 19  1  0
  6  7  2  0
  6 18  1  0
  7  8  1  0
  8  9  1  0
  8 17  2  0
  9 10  1  0
 10 11  2  0
 10 16  1  0
 11 12  1  0
 12 13  2  0
 13 14  1  0
 13 15  1  0
 15 16  2  0
 17 18  1  0
M  END
