
     RDKit          3D

 12 12  0  0  0  0  0  0  0  0999 V2000
   -0.2520   -2.5390   -0.8050 O   0  0  0  0  0  0  0  0  0  0  0  0
   -1.1070   -1.5150   -0.4540 C   0  0  0  0  0  0  0  0  0  0  0  0
   -0.5290   -0.4970    0.4800 C   0  0  2  0  0  0  0  0  0  0  0  0
   -1.6080    0.5250    0.7420 C   0  0  0  0  0  0  0  0  0  0  0  0
   -1.1750    1.7690    1.0720 O   0  0  0  0  0  0  0  0  0  0  0  0
   -0.2360    2.3540    0.2730 C   0  0  0  0  0  0  0  0  0  0  0  0
    0.3580    1.3940   -0.7520 C   0  0  0  0  0  0  0  0  0  0  0  0
    0.7120    0.1710    0.0410 C   0  0  1  0  0  0  0  0  0  0  0  0
    1.3880    0.5900    1.2100 O   0  0  0  0  0  0  0  0  0  0  0  0
    1.6880   -0.6440   -0.7460 C   0  0  1  0  0  0  0  0  0  0  0  0
    2.1610   -1.7620   -0.0990 O   0  0  0  0  0  0  0  0  0  0  0  0
    1.2680   -0.8630   -2.0410 F   0  0  0  0  0  0  0  0  0  0  0  0
  1  2  1  0
  3  2  1  6
  3  4  1  0
  3  8  1  0
  4  5  1  0
  5  6  1  0
  6  7  1  0
  7  8  1  0
  8  9  1  1
  8 10  1  0
 10 11  1  1
 10 12  1  0
M  END
