
     RDKit          3D

 13 13  0  0  0  0  0  0  0  0999 V2000
   -1.6400    1.0000    0.8990 C   0  0  0  0  0  0  0  0  0  0  0  0
   -1.7430   -0.1370    0.0700 N   0  0  1  0  0  0  0  0  0  0  0  0
   -3.0490   -0.3700   -0.4530 C   0  0  0  0  0  0  0  0  0  0  0  0
   -0.7250   -0.3760   -0.9040 C   0  0  0  0  0  0  0  0  0  0  0  0
    0.6160    0.0160   -0.4270 C   0  0  0  0  0  0  0  0  0  0  0  0
    1.1620    1.2560   -0.5290 C   0  0  0  0  0  0  0  0  0  0  0  0
    2.4950    1.4830   -0.1810 C   0  0  0  0  0  0  0  0  0  0  0  0
    3.3600    3.3880   -0.4750 I   0  0  0  0  0  0  0  0  0  0  0  0
    3.2410    0.4320    0.2790 C   0  0  0  0  0  0  0  0  0  0  0  0
    2.7450   -0.8430    0.4150 C   0  0  0  0  0  0  0  0  0  0  0  0
    3.8490   -2.4890    1.1350 I   0  0  0  0  0  0  0  0  0  0  0  0
    1.4320   -1.0460    0.0570 C   0  0  0  0  0  0  0  0  0  0  0  0
    0.8350   -2.2610    0.1540 O   0  0  0  0  0  0  0  0  0  0  0  0
  2  1  1  6
  2  3  1  0
  2  4  1  0
  4  5  1  0
  5  6  2  0
  5 12  1  0
  6  7  1  0
  7  8  1  0
  7  9  2  0
  9 10  1  0
 10 11  1  0
 10 12  2  0
 12 13  1  0
M  CHG  1   2   1
M  END
