
     RDKit          3D

 19 21  0  0  0  0  0  0  0  0999 V2000
   -2.2620    2.1700   -1.6100 C   0  0  0  0  0  0  0  0  0  0  0  0
   -2.2490    1.0680   -0.8690 C   0  0  0  0  0  0  0  0  0  0  0  0
   -1.0310    0.6280   -0.1910 C   0  0  0  0  0  0  0  0  0  0  0  0
   -0.9930   -0.4650    0.5510 C   0  0  0  0  0  0  0  0  0  0  0  0
    0.2500   -0.8940    1.2300 C   0  0  0  0  0  0  0  0  0  0  0  0
    1.3530   -0.0190    0.9920 N   0  0  0  0  0  0  0  0  0  0  0  0
    1.6870    1.0480    1.7340 C   0  0  0  0  0  0  0  0  0  0  0  0
    0.8650    1.6500    3.1840 Cl  0  0  0  0  0  0  0  0  0  0  0  0
    2.8060    1.5860    1.1380 C   0  0  0  0  0  0  0  0  0  0  0  0
    3.1660    0.8520    0.0250 C   0  0  0  0  0  0  0  0  0  0  0  0
    4.0320    0.7100   -1.0020 N   0  0  0  0  0  0  0  0  0  0  0  0
    3.6160   -0.3740   -1.6780 C   0  0  0  0  0  0  0  0  0  0  0  0
    4.2190   -0.7860   -2.7120 O   0  0  0  0  0  0  0  0  0  0  0  0
    2.5310   -0.9110   -1.1150 N   0  0  0  0  0  0  0  0  0  0  0  0
    2.2160   -0.1700   -0.0420 C   0  0  0  0  0  0  0  0  0  0  0  0
   -2.2340   -1.2180    0.6630 C   0  0  0  0  0  0  0  0  0  0  0  0
   -2.2660   -2.4580    1.4810 C   0  0  0  0  0  0  0  0  0  0  0  0
   -3.3170   -0.8520    0.0760 N   0  0  0  0  0  0  0  0  0  0  0  0
   -3.4920    0.3010   -0.7490 C   0  0  0  0  0  0  0  0  0  0  0  0
  1  2  2  0
  2  3  1  0
  2 19  1  0
  3  4  2  0
  4  5  1  0
  4 16  1  0
  5  6  1  0
  6  7  1  0
  6 15  1  0
  7  8  1  0
  7  9  2  0
  9 10  1  0
 10 11  1  0
 10 15  2  0
 11 12  1  0
 12 13  2  0
 12 14  1  0
 14 15  1  0
 16 17  1  0
 16 18  2  0
 18 19  1  0
M  END
