
     RDKit          3D

 19 21  0  0  0  0  0  0  0  0999 V2000
    2.4040    3.0620   -0.7740 N   0  0  0  0  0  0  0  0  0  0  0  0
    1.5500    2.9510    0.3670 C   0  0  0  0  0  0  0  0  0  0  0  0
    0.2570    2.2580    0.0220 C   0  0  0  0  0  0  0  0  0  0  0  0
   -0.7340    2.7630   -0.7510 N   0  0  0  0  0  0  0  0  0  0  0  0
   -1.7460    1.8900   -0.8430 C   0  0  0  0  0  0  0  0  0  0  0  0
   -1.3940    0.7850   -0.1050 C   0  0  0  0  0  0  0  0  0  0  0  0
   -2.1950   -0.4450    0.0940 C   0  0  0  0  0  0  0  0  0  0  0  0
   -3.4440   -0.6520   -0.4570 C   0  0  0  0  0  0  0  0  0  0  0  0
   -3.8810   -1.9070   -0.0560 C   0  0  0  0  0  0  0  0  0  0  0  0
   -2.8560   -2.3970    0.7300 C   0  0  0  0  0  0  0  0  0  0  0  0
   -2.8200   -3.9580    1.5340 Cl  0  0  0  0  0  0  0  0  0  0  0  0
   -1.9110   -1.5020    0.7750 O   0  0  0  0  0  0  0  0  0  0  0  0
   -0.1750    1.0430    0.4040 N   0  0  0  0  0  0  0  0  0  0  0  0
    0.5420    0.1200    1.2600 C   0  0  0  0  0  0  0  0  0  0  0  0
    1.3890   -0.8450    0.5270 C   0  0  0  0  0  0  0  0  0  0  0  0
    1.2560   -2.1800    0.5770 C   0  0  0  0  0  0  0  0  0  0  0  0
    2.2690   -2.8390   -0.2780 C   0  0  0  0  0  0  0  0  0  0  0  0
    2.9880   -1.7250   -0.8130 N   0  0  0  0  0  0  0  0  0  0  0  0
    2.4950   -0.5950   -0.3610 C   0  0  0  0  0  0  0  0  0  0  0  0
  1  2  1  0
  2  3  1  0
  3  4  2  0
  3 13  1  0
  4  5  1  0
  5  6  2  0
  6  7  1  0
  6 13  1  0
  7  8  2  0
  7 12  1  0
  8  9  1  0
  9 10  2  0
 10 11  1  0
 10 12  1  0
 13 14  1  0
 14 15  1  0
 15 16  2  0
 15 19  1  0
 16 17  1  0
 17 18  1  0
 18 19  2  0
M  END
