
     RDKit          3D

 19 21  0  0  0  0  0  0  0  0999 V2000
   -5.3920   -3.4640   -0.1450 Cl  0  0  0  0  0  0  0  0  0  0  0  0
   -5.0340   -1.7570   -0.0760 C   0  0  0  0  0  0  0  0  0  0  0  0
   -6.0940   -0.8690   -0.0310 C   0  0  0  0  0  0  0  0  0  0  0  0
   -5.8180    0.4700    0.0230 C   0  0  0  0  0  0  0  0  0  0  0  0
   -4.5500    0.8680    0.0290 N   0  0  0  0  0  0  0  0  0  0  0  0
   -3.4980    0.0300   -0.0140 C   0  0  0  0  0  0  0  0  0  0  0  0
   -2.1520    0.6140   -0.0000 C   0  0  0  0  0  0  0  0  0  0  0  0
   -1.0980   -0.3550   -0.0500 N   0  0  0  0  0  0  0  0  0  0  0  0
    0.2540    0.1210   -0.0410 C   0  0  0  0  0  0  0  0  0  0  0  0
    0.5470    1.4680    0.0140 C   0  0  0  0  0  0  0  0  0  0  0  0
    1.8220    1.9840    0.0260 C   0  0  0  0  0  0  0  0  0  0  0  0
    2.8860    1.0690   -0.0220 C   0  0  0  0  0  0  0  0  0  0  0  0
    2.6510   -0.2830   -0.0780 C   0  0  0  0  0  0  0  0  0  0  0  0
    1.3280   -0.7420   -0.0870 C   0  0  0  0  0  0  0  0  0  0  0  0
    3.7420   -1.1890   -0.1250 N   0  0  0  0  0  0  0  0  0  0  0  0
    5.0100   -0.6790   -0.6080 C   0  0  0  0  0  0  0  0  0  0  0  0
    5.2520    0.6160    0.1790 C   0  0  0  0  0  0  0  0  0  0  0  0
    4.1930    1.5220   -0.0140 O   0  0  0  0  0  0  0  0  0  0  0  0
   -3.7560   -1.2890   -0.0670 N   0  0  0  0  0  0  0  0  0  0  0  0
  1  2  1  0
  2  3  2  0
  2 19  1  0
  3  4  1  0
  4  5  2  0
  5  6  1  0
  6  7  1  0
  6 19  2  0
  7  8  1  0
  8  9  1  0
  9 10  2  0
  9 14  1  0
 10 11  1  0
 11 12  2  0
 12 13  1  0
 12 18  1  0
 13 14  2  0
 13 15  1  0
 15 16  1  0
 16 17  1  0
 17 18  1  0
M  END
