
     RDKit          3D

 27 28  0  0  0  0  0  0  0  0999 V2000
   -7.0780    2.7520    0.7810 C   0  0  0  0  0  0  0  0  0  0  0  0
   -7.0770    1.5580    0.1040 O   0  0  0  0  0  0  0  0  0  0  0  0
   -6.6740    0.4780    0.8590 C   0  0  0  0  0  0  0  0  0  0  0  0
   -6.7270   -0.7390   -0.0590 C   0  0  0  0  0  0  0  0  0  0  0  0
   -5.8720   -0.5560   -1.1850 N   0  0  0  0  0  0  0  0  0  0  0  0
   -4.4930   -0.7700   -0.9500 C   0  0  0  0  0  0  0  0  0  0  0  0
   -3.9270   -2.0200   -1.2130 C   0  0  0  0  0  0  0  0  0  0  0  0
   -2.5960   -2.3000   -1.0070 C   0  0  0  0  0  0  0  0  0  0  0  0
   -1.7550   -1.3130   -0.5150 C   0  0  0  0  0  0  0  0  0  0  0  0
   -0.3470   -1.5820   -0.3330 N   0  0  0  0  0  0  0  0  0  0  0  0
    0.2770   -1.1380    0.8540 C   0  0  0  0  0  0  0  0  0  0  0  0
    1.6980   -0.9670    0.9520 C   0  0  0  0  0  0  0  0  0  0  0  0
    2.4060   -0.6880    1.8340 O   0  0  0  0  0  0  0  0  0  0  0  0
    2.5420   -1.2140   -0.5410 N   0  0  0  0  0  0  0  0  0  0  0  0
    3.8360   -1.0290   -0.0500 C   0  0  0  0  0  0  0  0  0  0  0  0
    4.3070   -0.8430    1.0320 O   0  0  0  0  0  0  0  0  0  0  0  0
    4.8050   -1.0810   -1.2080 N   0  0  0  0  0  0  0  0  0  0  0  0
    6.1720   -0.9080   -1.0130 C   0  0  0  0  0  0  0  0  0  0  0  0
    6.6360    0.3780   -0.4710 C   0  0  0  0  0  0  0  0  0  0  0  0
    5.8500    1.4520   -0.1590 C   0  0  0  0  0  0  0  0  0  0  0  0
    6.4010    2.6340    0.3530 C   0  0  0  0  0  0  0  0  0  0  0  0
    7.7580    2.7530    0.5600 C   0  0  0  0  0  0  0  0  0  0  0  0
    8.5550    1.6720    0.2450 C   0  0  0  0  0  0  0  0  0  0  0  0
    7.9980    0.5160   -0.2580 C   0  0  0  0  0  0  0  0  0  0  0  0
    9.0450   -0.8330   -0.6410 Cl  0  0  0  0  0  0  0  0  0  0  0  0
   -2.3050   -0.0830   -0.2560 C   0  0  0  0  0  0  0  0  0  0  0  0
   -3.6460    0.2010   -0.4630 C   0  0  0  0  0  0  0  0  0  0  0  0
  1  2  1  0
  2  3  1  0
  3  4  1  0
  4  5  1  0
  5  6  1  0
  6  7  2  0
  6 27  1  0
  7  8  1  0
  8  9  2  0
  9 10  1  0
  9 26  1  0
 10 11  1  0
 11 12  1  0
 12 13  2  0
 12 14  1  0
 14 15  1  0
 15 16  2  0
 15 17  1  0
 17 18  1  0
 18 19  1  0
 19 20  2  0
 19 24  1  0
 20 21  1  0
 21 22  2  0
 22 23  1  0
 23 24  2  0
 24 25  1  0
 26 27  2  0
M  CHG  1   5   1
M  END
