
     RDKit          3D

 27 28  0  0  0  0  0  0  0  0999 V2000
   -8.5030    1.2910    1.0230 C   0  0  0  0  0  0  0  0  0  0  0  0
   -7.5790    0.1430    0.8080 C   0  0  0  0  0  0  0  0  0  0  0  0
   -7.7060   -1.1260    1.2330 N   0  0  0  0  0  0  0  0  0  0  0  0
   -6.6470   -1.8480    0.8210 C   0  0  0  0  0  0  0  0  0  0  0  0
   -5.8040   -1.0290    0.1060 C   0  0  0  0  0  0  0  0  0  0  0  0
   -4.5480   -1.3990   -0.5170 C   0  0  0  0  0  0  0  0  0  0  0  0
   -4.1520   -2.5860   -0.4180 O   0  0  0  0  0  0  0  0  0  0  0  0
   -3.8030   -0.4210   -1.2190 N   0  0  0  0  0  0  0  0  0  0  0  0
   -2.6840    0.0480   -0.7520 C   0  0  0  0  0  0  0  0  0  0  0  0
   -1.9760    0.9950   -1.4470 O   0  0  0  0  0  0  0  0  0  0  0  0
   -2.2100   -0.4670    0.5310 C   0  0  0  0  0  0  0  0  0  0  0  0
   -0.9640   -1.1640    0.5180 N   0  0  0  0  0  0  0  0  0  0  0  0
    0.3000   -0.5680    0.1170 C   0  0  0  0  0  0  0  0  0  0  0  0
    0.2550    0.6210   -0.2240 O   0  0  0  0  0  0  0  0  0  0  0  0
    1.5040   -1.3230    0.1240 C   0  0  0  0  0  0  0  0  0  0  0  0
    2.6820   -0.9260   -0.2030 C   0  0  0  0  0  0  0  0  0  0  0  0
    3.8720   -1.8800   -0.1350 C   0  0  0  0  0  0  0  0  0  0  0  0
    4.8710   -1.2150    0.7560 C   0  0  0  0  0  0  0  0  0  0  0  0
    5.2280    0.0780    0.1450 N   0  0  2  0  0  0  0  0  0  0  0  0
    6.4010    0.5320    0.8240 C   0  0  0  0  0  0  0  0  0  0  0  0
    7.5240    0.6840   -0.1730 C   0  0  0  0  0  0  0  0  0  0  0  0
    7.1760    1.6880   -1.2190 C   0  0  0  0  0  0  0  0  0  0  0  0
    6.8910    3.2560   -0.4040 Cl  0  0  0  0  0  0  0  0  0  0  0  0
    4.0630    0.9470    0.3520 C   0  0  0  0  0  0  0  0  0  0  0  0
    3.0170    0.4240   -0.6600 C   0  0  0  0  0  0  0  0  0  0  0  0
   -6.3810    0.2190    0.0930 C   0  0  0  0  0  0  0  0  0  0  0  0
   -5.8550    1.4600   -0.5550 C   0  0  0  0  0  0  0  0  0  0  0  0
  1  2  1  0
  2  3  1  0
  2 26  2  0
  3  4  1  0
  4  5  2  0
  5  6  1  0
  5 26  1  0
  6  7  2  0
  6  8  1  0
  8  9  2  3
  9 10  1  0
  9 11  1  0
 11 12  1  0
 12 13  1  0
 13 14  2  0
 13 15  1  0
 15 16  2  3
 16 17  1  0
 16 25  1  0
 17 18  1  0
 18 19  1  0
 19 20  1  1
 19 24  1  0
 20 21  1  0
 21 22  1  0
 22 23  1  0
 24 25  1  0
 26 27  1  0
M  CHG  1  19   1
M  END
