
     RDKit          3D

 10 10  0  0  0  0  0  0  0  0999 V2000
    0.6620    1.7950   -0.0290 N   0  0  0  0  0  0  0  0  0  0  0  0
    0.9080    0.4310   -0.3480 C   0  0  1  0  0  0  0  0  0  0  0  0
    2.1410   -0.1230    0.3440 C   0  0  0  0  0  0  0  0  0  0  0  0
    2.2870   -1.4640   -0.0380 O   0  0  0  0  0  0  0  0  0  0  0  0
   -0.2620   -0.4850   -0.1370 C   0  0  2  0  0  0  0  0  0  0  0  0
    0.1140   -1.7680   -0.4820 O   0  0  0  0  0  0  0  0  0  0  0  0
   -1.3710   -0.0470   -1.0690 C   0  0  0  0  0  0  0  0  0  0  0  0
   -2.5790   -0.0670   -0.1780 C   0  0  0  0  0  0  0  0  0  0  0  0
   -2.0650    0.3680    1.0340 O   0  0  0  0  0  0  0  0  0  0  0  0
   -0.8860   -0.3950    1.2060 C   0  0  0  0  0  0  0  0  0  0  0  0
  2  1  1  1
  2  3  1  0
  2  5  1  0
  3  4  1  0
  5  6  1  6
  5  7  1  0
  5 10  1  0
  7  8  1  0
  8  9  1  0
  9 10  1  0
M  CHG  1   1   1
M  END
