
     RDKit          3D

 11 11  0  0  0  0  0  0  0  0999 V2000
    2.6060    0.4510    0.1350 N   0  0  0  0  0  0  0  0  0  0  0  0
    1.2630    0.7600   -0.3240 C   0  0  0  0  0  0  0  0  0  0  0  0
    0.3280   -0.2160    0.3070 C   0  0  2  0  0  0  0  0  0  0  0  0
    0.5920   -1.6450   -0.0160 C   0  0  0  0  0  0  0  0  0  0  0  0
   -0.5660   -2.3050    0.2960 O   0  0  0  0  0  0  0  0  0  0  0  0
   -1.6230   -1.4340    0.2600 C   0  0  0  0  0  0  0  0  0  0  0  0
   -1.0970   -0.0840   -0.1840 C   0  0  2  0  0  0  0  0  0  0  0  0
   -1.1690   -0.0140   -1.5590 O   0  0  0  0  0  0  0  0  0  0  0  0
   -1.7900    1.0380    0.4780 C   0  0  0  0  0  0  0  0  0  0  0  0
   -1.8300    1.1400    1.7070 O   0  0  0  0  0  0  0  0  0  0  0  0
   -2.4060    1.9900   -0.3490 O   0  0  0  0  0  0  0  0  0  0  0  0
  1  2  1  0
  3  2  1  6
  3  4  1  0
  3  7  1  0
  4  5  1  0
  5  6  1  0
  6  7  1  0
  7  8  1  6
  7  9  1  0
  9 10  2  0
  9 11  1  0
M  CHG  1   1   1
M  END
