
     RDKit          3D

 14 15  0  0  0  0  0  0  0  0999 V2000
   -5.6840   -0.2480   -0.4950 C   0  0  0  0  0  0  0  0  0  0  0  0
   -4.3030   -0.4770   -0.0380 C   0  0  0  0  0  0  0  0  0  0  0  0
   -3.3670    0.3090   -0.4220 N   0  0  0  0  0  0  0  0  0  0  0  0
   -2.0560    0.0830    0.0180 N   0  0  0  0  0  0  0  0  0  0  0  0
   -1.6020   -1.0360    0.5530 N   0  0  0  0  0  0  0  0  0  0  0  0
   -0.3190   -0.8670    0.8390 N   0  0  0  0  0  0  0  0  0  0  0  0
    0.0630    0.3760    0.4860 C   0  0  0  0  0  0  0  0  0  0  0  0
    1.4200    0.9240    0.6530 C   0  0  0  0  0  0  0  0  0  0  0  0
    2.3030    0.6750   -0.5490 C   0  0  2  0  0  0  0  0  0  0  0  0
    2.4680   -0.8050   -0.8310 C   0  0  0  0  0  0  0  0  0  0  0  0
    3.1830   -1.2070    0.2990 O   0  0  0  0  0  0  0  0  0  0  0  0
    4.2280   -0.2850    0.3130 C   0  0  0  0  0  0  0  0  0  0  0  0
    3.6750    0.9840   -0.1100 N   0  0  0  0  0  0  0  0  0  0  0  0
   -1.0460    0.9460   -0.0250 N   0  0  0  0  0  0  0  0  0  0  0  0
  1  2  1  0
  2  3  2  3
  3  4  1  0
  4  5  1  0
  4 14  1  0
  5  6  2  0
  6  7  1  0
  7  8  1  0
  7 14  2  0
  9  8  1  1
  9 10  1  0
  9 13  1  0
 10 11  1  0
 11 12  1  0
 12 13  1  0
M  END
