
     RDKit          3D

 11 10  0  0  0  0  0  0  0  0999 V2000
   -1.8480   -1.2390    0.2270 C   0  0  0  0  0  0  0  0  0  0  0  0
   -1.7430    0.2520    0.1190 C   0  0  2  0  0  0  0  0  0  0  0  0
   -2.7870    0.7960    0.8800 O   0  0  0  0  0  0  0  0  0  0  0  0
   -1.8920    0.7390   -1.3070 C   0  0  0  0  0  0  0  0  0  0  0  0
   -3.1050    0.3460   -1.8510 O   0  0  0  0  0  0  0  0  0  0  0  0
   -0.4580    0.7120    0.7350 C   0  0  0  0  0  0  0  0  0  0  0  0
    0.6650    0.2000    0.0160 N   0  0  0  0  0  0  0  0  0  0  0  0
    1.6980   -0.3470    0.8750 C   0  0  0  0  0  0  0  0  0  0  0  0
    2.9950   -0.3110    0.0570 C   0  0  2  0  0  0  0  0  0  0  0  0
    4.0540   -0.8110    0.7790 O   0  0  0  0  0  0  0  0  0  0  0  0
    3.1850    1.0280   -0.3050 O   0  0  0  0  0  0  0  0  0  0  0  0
  2  1  1  6
  2  3  1  0
  2  4  1  0
  2  6  1  0
  4  5  1  0
  6  7  1  0
  7  8  1  0
  8  9  1  0
  9 10  1  1
  9 11  1  0
M  CHG  1   7   1
M  END
