
     RDKit          3D

 24 25  0  0  0  0  0  0  0  0999 V2000
   -5.5190   -0.4770    0.1790 C   0  0  0  0  0  0  0  0  0  0  0  0
   -4.5430   -0.0980   -0.8940 C   0  0  0  0  0  0  0  0  0  0  0  0
   -3.4320    0.6870   -0.4050 N   0  0  1  0  0  0  0  0  0  0  0  0
   -3.9620    1.7980    0.3380 C   0  0  0  0  0  0  0  0  0  0  0  0
   -4.3200    2.8660   -0.6800 C   0  0  0  0  0  0  0  0  0  0  0  0
   -2.5650   -0.1460    0.3490 C   0  0  2  0  0  0  0  0  0  0  0  0
   -1.2730    0.5000    0.7430 C   0  0  0  0  0  0  0  0  0  0  0  0
   -0.1040    0.1890   -0.1130 C   0  0  0  0  0  0  0  0  0  0  0  0
   -0.0390   -1.1100   -0.6860 N   0  0  1  0  0  0  0  0  0  0  0  0
    1.1670   -1.7890   -0.5190 C   0  0  0  0  0  0  0  0  0  0  0  0
    2.3180   -1.2140    0.1040 C   0  0  0  0  0  0  0  0  0  0  0  0
    3.3160   -0.3420   -0.3820 C   0  0  0  0  0  0  0  0  0  0  0  0
    4.4800   -0.2150    0.2430 C   0  0  0  0  0  0  0  0  0  0  0  0
    5.5780    0.7000   -0.0570 C   0  0  0  0  0  0  0  0  0  0  0  0
    6.4500    1.4360   -0.2870 C   0  0  0  0  0  0  0  0  0  0  0  0
    7.6060    2.3840   -0.5770 C   0  0  0  0  0  0  0  0  0  0  0  0
    7.6800    2.7100   -1.8540 O   0  0  0  0  0  0  0  0  0  0  0  0
    4.8010   -0.9260    1.4300 C   0  0  0  0  0  0  0  0  0  0  0  0
    3.8350   -1.7800    1.9370 C   0  0  0  0  0  0  0  0  0  0  0  0
    4.2270   -2.7100    3.8170 I   0  0  0  0  0  0  0  0  0  0  0  0
    2.6670   -1.9160    1.3110 C   0  0  0  0  0  0  0  0  0  0  0  0
    1.6140   -2.7310    1.7630 O   0  0  0  0  0  0  0  0  0  0  0  0
   -1.0770   -1.9960    0.0190 C   0  0  0  0  0  0  0  0  0  0  0  0
   -2.3960   -1.4350   -0.4350 C   0  0  0  0  0  0  0  0  0  0  0  0
  1  2  1  0
  3  2  1  1
  3  4  1  0
  3  6  1  0
  4  5  1  0
  6  7  1  6
  6 24  1  0
  7  8  1  0
  8  9  1  0
  9 10  1  1
  9 23  1  0
 10 11  1  0
 11 12  2  0
 11 21  1  0
 12 13  1  0
 13 14  1  0
 13 18  2  0
 14 15  3  0
 15 16  1  0
 16 17  1  0
 18 19  1  0
 19 20  1  0
 19 21  2  0
 21 22  1  0
 23 24  1  0
M  CHG  2   3   1   9   1
M  END
