
     RDKit          3D

 31 33  0  0  0  0  0  0  0  0999 V2000
    3.3700   -2.0040   -1.0530 C   0  0  0  0  0  0  0  0  0  0  0  0
    3.5860   -1.0400    0.0660 C   0  0  2  0  0  0  0  0  0  0  0  0
    4.2750    0.0690   -0.4940 O   0  0  0  0  0  0  0  0  0  0  0  0
    4.3730   -1.5920    1.2240 C   0  0  0  0  0  0  0  0  0  0  0  0
    5.7490   -2.0490    0.8690 C   0  0  0  0  0  0  0  0  0  0  0  0
    6.3340   -2.5280    2.0640 O   0  0  0  0  0  0  0  0  0  0  0  0
    2.2430   -0.5530    0.5640 C   0  0  2  0  0  0  0  0  0  0  0  0
    1.5070   -1.5930    1.1250 O   0  0  0  0  0  0  0  0  0  0  0  0
    1.4910   -0.0280   -0.6270 C   0  0  0  0  0  0  0  0  0  0  0  0
    0.1400    0.4940   -0.3100 C   0  0  0  0  0  0  0  0  0  0  0  0
   -0.2550    1.7320   -0.4470 C   0  0  0  0  0  0  0  0  0  0  0  0
    0.7270    2.7180   -0.9610 C   0  0  0  0  0  0  0  0  0  0  0  0
    1.9180    2.5010   -0.7030 O   0  0  0  0  0  0  0  0  0  0  0  0
    0.2560    3.8190   -1.6960 O   0  0  0  0  0  0  0  0  0  0  0  0
   -1.0780    4.2900   -1.4470 C   0  0  1  0  0  0  0  0  0  0  0  0
   -1.4720    5.2180   -2.4660 N   0  0  0  0  0  0  0  0  0  0  0  0
   -1.9820    3.0670   -1.4270 C   0  0  0  0  0  0  0  0  0  0  0  0
   -1.5950    2.2970   -0.1950 C   0  0  1  0  0  0  0  0  0  0  0  0
   -2.5150    1.3390    0.3490 C   0  0  0  0  0  0  0  0  0  0  0  0
   -3.8220    1.6390    0.7130 C   0  0  0  0  0  0  0  0  0  0  0  0
   -4.3500    3.2840    0.5760 Cl  0  0  0  0  0  0  0  0  0  0  0  0
   -4.7120    0.7180    1.2020 C   0  0  0  0  0  0  0  0  0  0  0  0
   -4.2840   -0.5830    1.3420 C   0  0  0  0  0  0  0  0  0  0  0  0
   -3.0090   -0.9490    1.0040 C   0  0  0  0  0  0  0  0  0  0  0  0
   -2.5180   -2.2450    1.1200 O   0  0  0  0  0  0  0  0  0  0  0  0
   -3.3510   -3.2740    1.5850 C   0  0  0  0  0  0  0  0  0  0  0  0
   -4.4770   -3.4390    0.6420 C   0  0  0  0  0  0  0  0  0  0  0  0
   -5.3920   -4.2860    0.8940 O   0  0  0  0  0  0  0  0  0  0  0  0
   -4.5880   -2.7030   -0.5300 O   0  0  0  0  0  0  0  0  0  0  0  0
   -2.1250    0.0340    0.5050 C   0  0  0  0  0  0  0  0  0  0  0  0
   -0.8280   -0.3790    0.1810 O   0  0  0  0  0  0  0  0  0  0  0  0
  2  1  1  6
  2  3  1  0
  2  4  1  0
  2  7  1  0
  4  5  1  0
  5  6  1  0
  7  8  1  6
  7  9  1  0
  9 10  1  0
 10 11  2  0
 10 31  1  0
 11 12  1  0
 11 18  1  0
 12 13  2  0
 12 14  1  0
 14 15  1  0
 15 16  1  6
 15 17  1  0
 18 17  1  6
 18 19  1  0
 19 20  2  0
 19 30  1  0
 20 21  1  0
 20 22  1  0
 22 23  2  0
 23 24  1  0
 24 25  1  0
 24 30  2  0
 25 26  1  0
 26 27  1  0
 27 28  2  0
 27 29  1  0
 30 31  1  0
M  END
