
     RDKit          3D

 29 30  0  0  0  0  0  0  0  0999 V2000
    8.4520    1.7800   -1.7430 C   0  0  0  0  0  0  0  0  0  0  0  0
    7.2480    2.1190   -0.9280 C   0  0  0  0  0  0  0  0  0  0  0  0
    6.1370    1.1580   -1.1110 C   0  0  0  0  0  0  0  0  0  0  0  0
    5.6490    0.4680   -0.1200 C   0  0  0  0  0  0  0  0  0  0  0  0
    4.5620   -0.4520   -0.3750 N   0  0  0  0  0  0  0  0  0  0  0  0
    3.3250   -0.2930    0.2780 C   0  0  0  0  0  0  0  0  0  0  0  0
    3.2650    0.7040    1.0830 O   0  0  0  0  0  0  0  0  0  0  0  0
    2.1760   -1.0930    0.1430 N   0  0  0  0  0  0  0  0  0  0  0  0
    2.2270   -2.2120   -0.7660 C   0  0  0  0  0  0  0  0  0  0  0  0
    2.1770   -3.5370    0.0020 C   0  0  0  0  0  0  0  0  0  0  0  0
    0.7770   -4.0130    0.1700 C   0  0  0  0  0  0  0  0  0  0  0  0
   -0.1510   -2.8590    0.3420 C   0  0  0  0  0  0  0  0  0  0  0  0
    0.3510   -1.9750    1.4330 C   0  0  0  0  0  0  0  0  0  0  0  0
    1.0120   -0.7020    0.9680 C   0  0  2  0  0  0  0  0  0  0  0  0
    0.0870    0.1810    0.2230 C   0  0  0  0  0  0  0  0  0  0  0  0
   -1.0820    0.6060    0.9640 N   0  0  1  0  0  0  0  0  0  0  0  0
   -0.7060    1.4220    2.1110 C   0  0  0  0  0  0  0  0  0  0  0  0
   -1.7290    1.1580    3.1490 C   0  0  0  0  0  0  0  0  0  0  0  0
   -1.3020    1.0330    4.3180 O   0  0  0  0  0  0  0  0  0  0  0  0
   -3.1140    1.0450    2.8890 N   0  0  0  0  0  0  0  0  0  0  0  0
   -3.8510    1.2040    1.6360 C   0  0  0  0  0  0  0  0  0  0  0  0
   -5.3030    1.1520    1.7520 C   0  0  0  0  0  0  0  0  0  0  0  0
   -3.3800    1.3660    0.4250 C   0  0  0  0  0  0  0  0  0  0  0  0
   -4.3010    1.5050   -0.6580 C   0  0  2  0  0  0  0  0  0  0  0  0
   -5.3330    2.5380   -0.5250 N   0  0  0  0  0  0  0  0  0  0  0  0
   -4.7670    0.4390   -1.5440 C   0  0  0  0  0  0  0  0  0  0  0  0
   -3.8400   -0.3540   -2.3700 C   0  0  0  0  0  0  0  0  0  0  0  0
   -2.8300   -1.2120   -1.7420 C   0  0  0  0  0  0  0  0  0  0  0  0
   -1.8940    1.3840    0.1110 C   0  0  0  0  0  0  0  0  0  0  0  0
  1  2  1  0
  2  3  1  0
  3  4  2  3
  4  5  1  0
  5  6  1  0
  6  7  2  0
  6  8  1  0
  8  9  1  0
  8 14  1  0
  9 10  1  0
 10 11  1  0
 11 12  1  0
 12 13  1  0
 13 14  1  0
 14 15  1  6
 16 15  1  6
 16 17  1  0
 16 29  1  0
 17 18  1  0
 18 19  2  0
 18 20  1  0
 20 21  1  0
 21 22  1  0
 21 23  2  0
 23 24  1  0
 23 29  1  0
 24 25  1  1
 24 26  1  0
 26 27  1  0
 27 28  1  0
M  CHG  2  16   1  25   1
M  END
