
     RDKit          3D

 31 33  0  0  0  0  0  0  0  0999 V2000
    4.7610   -1.7860   -2.2490 O   0  0  0  0  0  0  0  0  0  0  0  0
    4.1410   -1.1440   -1.3700 C   0  0  0  0  0  0  0  0  0  0  0  0
    4.8650   -0.5990   -0.3260 O   0  0  0  0  0  0  0  0  0  0  0  0
    6.2690   -0.7460   -0.2270 C   0  0  2  0  0  0  0  0  0  0  0  0
    6.5450   -1.5800    0.9980 C   0  0  0  0  0  0  0  0  0  0  0  0
    6.5440   -0.8370    2.1710 O   0  0  0  0  0  0  0  0  0  0  0  0
    7.6930   -0.0230    2.1090 C   0  0  0  0  0  0  0  0  0  0  0  0
    7.4380    1.0390    1.1050 C   0  0  0  0  0  0  0  0  0  0  0  0
    6.9450    0.5870   -0.2110 C   0  0  1  0  0  0  0  0  0  0  0  0
    7.9720    0.5830   -1.1680 O   0  0  0  0  0  0  0  0  0  0  0  0
    2.6950   -0.9670   -1.4320 C   0  0  0  0  0  0  0  0  0  0  0  0
    1.8670   -1.4650   -2.4260 C   0  0  0  0  0  0  0  0  0  0  0  0
    0.6070   -1.0680   -2.0920 C   0  0  0  0  0  0  0  0  0  0  0  0
    0.6940   -0.3520   -0.9250 C   0  0  0  0  0  0  0  0  0  0  0  0
   -0.4720    0.2670   -0.2140 C   0  0  0  0  0  0  0  0  0  0  0  0
   -1.7110   -0.0250   -0.9770 C   0  0  0  0  0  0  0  0  0  0  0  0
   -2.9780    0.6020   -0.3260 C   0  0  2  0  0  0  0  0  0  0  0  0
   -2.7800    1.9850   -0.2770 O   0  0  0  0  0  0  0  0  0  0  0  0
   -3.1550   -0.0060    1.0160 C   0  0  0  0  0  0  0  0  0  0  0  0
   -4.1890    0.4890    1.7560 O   0  0  0  0  0  0  0  0  0  0  0  0
   -4.0560    0.3000   -1.3270 C   0  0  2  0  0  0  0  0  0  0  0  0
   -3.5870    0.6600   -2.6340 O   0  0  0  0  0  0  0  0  0  0  0  0
   -5.3250    0.8840   -1.1810 N   0  0  0  0  0  0  0  0  0  0  0  0
   -6.2570    0.6540   -0.1440 C   0  0  0  0  0  0  0  0  0  0  0  0
   -6.7760    1.6830    0.5380 C   0  0  0  0  0  0  0  0  0  0  0  0
   -7.7500    1.5400    1.6300 C   0  0  0  0  0  0  0  0  0  0  0  0
   -8.1330    0.2160    1.8580 O   0  0  0  0  0  0  0  0  0  0  0  0
   -7.6260   -0.8670    1.1810 C   0  0  0  0  0  0  0  0  0  0  0  0
   -6.7190   -0.6770    0.2110 C   0  0  0  0  0  0  0  0  0  0  0  0
   -6.0890   -2.0800   -0.6610 Cl  0  0  0  0  0  0  0  0  0  0  0  0
    1.9530   -0.3220   -0.5770 O   0  0  0  0  0  0  0  0  0  0  0  0
  1  2  2  0
  2  3  1  0
  2 11  1  0
  4  3  1  1
  4  5  1  0
  4  9  1  0
  5  6  1  0
  6  7  1  0
  7  8  1  0
  8  9  1  0
  9 10  1  6
 11 12  2  0
 11 31  1  0
 12 13  1  0
 13 14  2  0
 14 15  1  0
 14 31  1  0
 15 16  1  0
 16 17  1  0
 17 18  1  1
 17 19  1  0
 17 21  1  0
 19 20  1  0
 21 22  1  6
 21 23  1  0
 23 24  1  0
 24 25  2  0
 24 29  1  0
 25 26  1  0
 26 27  1  0
 27 28  1  0
 28 29  2  0
 29 30  1  0
M  END
