
     RDKit          3D

 28 30  0  0  0  0  0  0  0  0999 V2000
    7.6060   -1.3000   -0.4390 C   0  0  0  0  0  0  0  0  0  0  0  0
    6.3640   -1.1870    0.3960 C   0  0  1  0  0  0  0  0  0  0  0  0
    6.0640    0.2580    0.7880 C   0  0  0  0  0  0  0  0  0  0  0  0
    4.9430    0.7620    0.0670 N   0  0  0  0  0  0  0  0  0  0  0  0
    3.7930    1.0950    0.8120 C   0  0  0  0  0  0  0  0  0  0  0  0
    2.7140    1.5200   -0.0300 N   0  0  0  0  0  0  0  0  0  0  0  0
    2.5030    2.8860   -0.4520 C   0  0  0  0  0  0  0  0  0  0  0  0
    3.2650    3.8390   -0.1430 O   0  0  0  0  0  0  0  0  0  0  0  0
    1.3620    2.9700   -1.2260 O   0  0  0  0  0  0  0  0  0  0  0  0
    0.6240    1.7680   -1.0180 C   0  0  2  0  0  0  0  0  0  0  0  0
   -0.3050    2.0060    0.1710 C   0  0  0  0  0  0  0  0  0  0  0  0
   -1.0960    0.7700    0.4010 C   0  0  0  0  0  0  0  0  0  0  0  0
   -1.0010   -0.2640   -0.3350 O   0  0  0  0  0  0  0  0  0  0  0  0
   -2.0270    0.6780    1.4910 N   0  0  0  0  0  0  0  0  0  0  0  0
   -2.8020   -0.4950    1.7180 C   0  0  0  0  0  0  0  0  0  0  0  0
   -3.7610   -0.7810    0.6270 C   0  0  0  0  0  0  0  0  0  0  0  0
   -3.9210    0.0400   -0.3890 C   0  0  0  0  0  0  0  0  0  0  0  0
   -4.8600   -0.1340   -1.5660 C   0  0  0  0  0  0  0  0  0  0  0  0
   -6.2630   -0.0870   -0.9920 C   0  0  0  0  0  0  0  0  0  0  0  0
   -6.8070   -1.4500   -0.6800 C   0  0  0  0  0  0  0  0  0  0  0  0
   -6.4230   -1.9330    0.6960 C   0  0  2  0  0  0  0  0  0  0  0  0
   -6.7830   -0.9800    1.7860 C   0  0  0  0  0  0  0  0  0  0  0  0
   -4.6770   -2.3470    0.8240 S   0  0  0  0  0  0  0  0  0  0  0  0
    1.6410    0.7850   -0.5880 C   0  0  0  0  0  0  0  0  0  0  0  0
    1.5630   -0.4470   -0.6970 O   0  0  0  0  0  0  0  0  0  0  0  0
    4.7610    0.2790   -1.2410 C   0  0  0  0  0  0  0  0  0  0  0  0
    4.8020   -1.2370   -1.3210 C   0  0  0  0  0  0  0  0  0  0  0  0
    5.2590   -1.8110   -0.1600 O   0  0  0  0  0  0  0  0  0  0  0  0
  2  1  1  6
  2  3  1  0
  2 28  1  0
  3  4  1  0
  4  5  1  0
  4 26  1  0
  5  6  1  0
  6  7  1  0
  6 24  1  0
  7  8  2  0
  7  9  1  0
  9 10  1  0
 10 11  1  1
 10 24  1  0
 11 12  1  0
 12 13  2  0
 12 14  1  0
 14 15  1  0
 15 16  1  0
 16 17  2  0
 16 23  1  0
 17 18  1  0
 18 19  1  0
 19 20  1  0
 20 21  1  0
 21 22  1  1
 21 23  1  0
 24 25  2  0
 26 27  1  0
 27 28  1  0
M  END
