
     RDKit          3D

 29 31  0  0  0  0  0  0  0  0999 V2000
    8.0630    1.0300    0.1100 C   0  0  0  0  0  0  0  0  0  0  0  0
    6.6760    0.6840   -0.1390 N   0  0  0  0  0  0  0  0  0  0  0  0
    6.1260    0.7960   -1.4250 C   0  0  0  0  0  0  0  0  0  0  0  0
    6.7450    1.4370   -2.3060 O   0  0  0  0  0  0  0  0  0  0  0  0
    4.8230    0.1870   -1.8170 C   0  0  0  0  0  0  0  0  0  0  0  0
    3.9650    0.0160   -0.6740 N   0  0  0  0  0  0  0  0  0  0  0  0
    2.5950    0.0170   -1.0510 C   0  0  0  0  0  0  0  0  0  0  0  0
    2.3810   -0.2530   -2.2550 O   0  0  0  0  0  0  0  0  0  0  0  0
    1.4080    0.3040   -0.1690 C   0  0  0  0  0  0  0  0  0  0  0  0
    1.3480   -0.6630    0.9850 C   0  0  0  0  0  0  0  0  0  0  0  0
    0.0020   -1.2700    1.1960 C   0  0  0  0  0  0  0  0  0  0  0  0
   -1.0400   -0.3000    1.4970 C   0  0  0  0  0  0  0  0  0  0  0  0
   -0.7880    0.5320    2.4360 O   0  0  0  0  0  0  0  0  0  0  0  0
   -2.2820   -0.1900    0.8580 N   0  0  0  0  0  0  0  0  0  0  0  0
   -2.6340   -1.0830   -0.2100 C   0  0  0  0  0  0  0  0  0  0  0  0
   -4.1420   -1.3530   -0.0500 C   0  0  2  0  0  0  0  0  0  0  0  0
   -4.5930   -2.3690   -1.0850 C   0  0  0  0  0  0  0  0  0  0  0  0
   -6.3720   -2.6180   -0.8200 S   0  0  0  0  0  0  0  0  0  0  0  0
   -4.7700   -0.1700   -0.3050 O   0  0  0  0  0  0  0  0  0  0  0  0
   -4.5190    0.8400    0.5850 C   0  0  2  0  0  0  0  0  0  0  0  0
   -4.7940    2.1520   -0.1660 C   0  0  0  0  0  0  0  0  0  0  0  0
   -6.2620    2.0960   -0.5930 C   0  0  0  0  0  0  0  0  0  0  0  0
   -7.3330    1.9510    0.8000 Cl  0  0  0  0  0  0  0  0  0  0  0  0
   -3.2070    0.8240    1.2550 C   0  0  0  0  0  0  0  0  0  0  0  0
    2.3590   -1.0010    1.7550 C   0  0  0  0  0  0  0  0  0  0  0  0
    3.7690   -0.5620    1.7180 C   0  0  0  0  0  0  0  0  0  0  0  0
    4.4620   -0.1200    0.6540 C   0  0  0  0  0  0  0  0  0  0  0  0
    5.8360    0.2170    0.9330 C   0  0  0  0  0  0  0  0  0  0  0  0
    6.2900    0.1060    2.0870 O   0  0  0  0  0  0  0  0  0  0  0  0
  1  2  1  0
  2  3  1  0
  2 28  1  0
  3  4  2  0
  3  5  1  0
  5  6  1  0
  6  7  1  0
  6 27  1  0
  7  8  2  0
  7  9  1  0
  9 10  1  0
 10 11  1  0
 10 25  2  0
 11 12  1  0
 12 13  2  0
 12 14  1  0
 14 15  1  0
 14 24  1  0
 15 16  1  0
 16 17  1  6
 16 19  1  0
 17 18  1  0
 19 20  1  0
 20 21  1  6
 20 24  1  0
 21 22  1  0
 22 23  1  0
 25 26  1  0
 26 27  2  0
 27 28  1  0
 28 29  2  0
M  END
