
     RDKit          3D

 31 33  0  0  0  0  0  0  0  0999 V2000
   -1.1710    1.2710   -1.0560 C   0  0  0  0  0  0  0  0  0  0  0  0
   -2.0830    0.0430   -0.5960 C   0  0  0  0  0  0  0  0  0  0  0  0
   -3.3140    0.3840   -1.1220 N   0  0  0  0  0  0  0  0  0  0  0  0
   -4.1040    1.4810   -0.5970 C   0  0  0  0  0  0  0  0  0  0  0  0
   -4.0140    1.8310    0.6570 C   0  0  0  0  0  0  0  0  0  0  0  0
   -2.9570    1.0300    1.8050 Cl  0  0  0  0  0  0  0  0  0  0  0  0
   -4.8250    2.9670    1.2220 C   0  0  0  0  0  0  0  0  0  0  0  0
   -5.6460    3.5820    0.2770 O   0  0  0  0  0  0  0  0  0  0  0  0
   -5.7390    3.2120   -1.0430 C   0  0  0  0  0  0  0  0  0  0  0  0
   -5.0000    2.2010   -1.4730 C   0  0  0  0  0  0  0  0  0  0  0  0
   -1.4270   -0.8250    0.0600 C   0  0  0  0  0  0  0  0  0  0  0  0
    0.0450   -0.5920    0.3020 C   0  0  0  0  0  0  0  0  0  0  0  0
    0.5940    0.4680   -0.1230 N   0  0  0  0  0  0  0  0  0  0  0  0
    1.9730    0.6820    0.1060 C   0  0  0  0  0  0  0  0  0  0  0  0
    2.8000    0.9660   -0.8950 C   0  0  0  0  0  0  0  0  0  0  0  0
    4.2310    1.1900   -0.6730 C   0  0  0  0  0  0  0  0  0  0  0  0
    5.0970    0.2030   -1.4350 C   0  0  0  0  0  0  0  0  0  0  0  0
    6.4950    0.4100   -1.2280 N   0  0  0  0  0  0  0  0  0  0  0  0
    7.1340    0.3390    0.0390 C   0  0  0  0  0  0  0  0  0  0  0  0
    8.5540    0.5660    0.1420 N   0  0  0  0  0  0  0  0  0  0  0  0
    6.4600    0.0800    1.0620 O   0  0  0  0  0  0  0  0  0  0  0  0
    0.8220   -1.5750    1.0220 C   0  0  0  0  0  0  0  0  0  0  0  0
    0.3220   -2.6710    1.4850 C   0  0  0  0  0  0  0  0  0  0  0  0
   -1.0890   -2.9690    1.2940 C   0  0  0  0  0  0  0  0  0  0  0  0
   -1.5730   -4.1510    1.8120 C   0  0  0  0  0  0  0  0  0  0  0  0
   -0.7330   -4.9790    2.4630 F   0  0  0  0  0  0  0  0  0  0  0  0
   -2.8920   -4.4870    1.6710 C   0  0  0  0  0  0  0  0  0  0  0  0
   -3.7470   -3.6630    1.0200 C   0  0  0  0  0  0  0  0  0  0  0  0
   -3.2690   -2.4580    0.4880 C   0  0  0  0  0  0  0  0  0  0  0  0
   -4.4450   -1.4630   -0.2910 Cl  0  0  0  0  0  0  0  0  0  0  0  0
   -1.9580   -2.0960    0.6110 C   0  0  0  0  0  0  0  0  0  0  0  0
  1  2  1  0
  2  3  1  0
  2 11  2  3
  3  4  1  0
  4  5  2  0
  4 10  1  0
  5  6  1  0
  5  7  1  0
  7  8  1  0
  8  9  1  0
  9 10  2  0
 11 12  1  0
 11 31  1  0
 12 13  2  3
 12 22  1  0
 13 14  1  0
 14 15  2  3
 15 16  1  0
 16 17  1  0
 17 18  1  0
 18 19  1  0
 19 20  1  0
 19 21  2  0
 22 23  2  0
 23 24  1  0
 24 25  2  0
 24 31  1  0
 25 26  1  0
 25 27  1  0
 27 28  2  0
 28 29  1  0
 29 30  1  0
 29 31  2  0
M  END
