
     RDKit          3D

 31 34  0  0  0  0  0  0  0  0999 V2000
   -3.9290   -3.6290   -0.3200 C   0  0  0  0  0  0  0  0  0  0  0  0
   -3.9070   -2.3110    0.4610 C   0  0  0  0  0  0  0  0  0  0  0  0
   -4.3790   -1.2550   -0.5100 C   0  0  0  0  0  0  0  0  0  0  0  0
   -4.3970    0.0810    0.1150 N   0  0  0  0  0  0  0  0  0  0  0  0
   -3.1670    0.6400    0.5290 C   0  0  0  0  0  0  0  0  0  0  0  0
   -1.9880    0.1650   -0.0520 C   0  0  0  0  0  0  0  0  0  0  0  0
   -0.7420    0.7300    0.2030 C   0  0  0  0  0  0  0  0  0  0  0  0
    0.4080    0.2030   -0.4290 N   0  0  0  0  0  0  0  0  0  0  0  0
    1.7290    0.5350   -0.1590 C   0  0  0  0  0  0  0  0  0  0  0  0
    2.0050    1.3680    0.7140 O   0  0  0  0  0  0  0  0  0  0  0  0
    2.8760   -0.0600   -0.8710 C   0  0  0  0  0  0  0  0  0  0  0  0
    2.7240   -1.0020   -1.8670 C   0  0  0  0  0  0  0  0  0  0  0  0
    3.8820   -1.4990   -2.4750 C   0  0  0  0  0  0  0  0  0  0  0  0
    5.1230   -1.0570   -2.0850 C   0  0  0  0  0  0  0  0  0  0  0  0
    6.2920   -1.5290   -2.6650 C   0  0  0  0  0  0  0  0  0  0  0  0
    7.5250   -1.0790   -2.2650 C   0  0  0  0  0  0  0  0  0  0  0  0
    7.6240   -0.1530   -1.2820 N   0  0  0  0  0  0  0  0  0  0  0  0
    6.5040    0.3220   -0.7010 C   0  0  0  0  0  0  0  0  0  0  0  0
    6.5440    1.1840    0.2180 O   0  0  0  0  0  0  0  0  0  0  0  0
    5.2480   -0.1160   -1.0860 C   0  0  0  0  0  0  0  0  0  0  0  0
    4.1190    0.3340   -0.5320 N   0  0  0  0  0  0  0  0  0  0  0  0
   -0.7460    1.7870    1.0650 C   0  0  0  0  0  0  0  0  0  0  0  0
   -1.9160    2.2830    1.6650 C   0  0  0  0  0  0  0  0  0  0  0  0
   -1.8190    3.3460    2.5390 C   0  0  0  0  0  0  0  0  0  0  0  0
   -0.6040    3.8850    2.7710 F   0  0  0  0  0  0  0  0  0  0  0  0
   -2.9570    3.8290    3.1500 C   0  0  0  0  0  0  0  0  0  0  0  0
   -2.8260    5.1710    4.2510 Cl  0  0  0  0  0  0  0  0  0  0  0  0
   -4.1800    3.2830    2.9150 C   0  0  0  0  0  0  0  0  0  0  0  0
   -4.2840    2.2050    2.0290 C   0  0  0  0  0  0  0  0  0  0  0  0
   -5.8630    1.4690    1.8010 Cl  0  0  0  0  0  0  0  0  0  0  0  0
   -3.1530    1.7080    1.4020 C   0  0  0  0  0  0  0  0  0  0  0  0
  1  2  1  0
  2  3  1  0
  3  4  1  0
  4  5  1  0
  5  6  2  0
  5 31  1  0
  6  7  1  0
  7  8  1  0
  7 22  2  0
  8  9  1  0
  9 10  2  0
  9 11  1  0
 11 12  2  0
 11 21  1  0
 12 13  1  0
 13 14  2  0
 14 15  1  0
 14 20  1  0
 15 16  2  0
 16 17  1  0
 17 18  1  0
 18 19  2  0
 18 20  1  0
 20 21  2  0
 22 23  1  0
 23 24  2  0
 23 31  1  0
 24 25  1  0
 24 26  1  0
 26 27  1  0
 26 28  2  0
 28 29  1  0
 29 30  1  0
 29 31  2  0
M  END
