
     RDKit          3D

 28 30  0  0  0  0  0  0  0  0999 V2000
    6.7780   -1.1420   -0.7310 C   0  0  0  0  0  0  0  0  0  0  0  0
    5.2950   -1.2770   -0.6190 C   0  0  0  0  0  0  0  0  0  0  0  0
    4.5530    0.0170   -0.8830 C   0  0  2  0  0  0  0  0  0  0  0  0
    4.9290    1.0820    0.0510 C   0  0  0  0  0  0  0  0  0  0  0  0
    6.5950    1.6160    0.0960 Cl  0  0  0  0  0  0  0  0  0  0  0  0
    4.0750    1.6710    0.8720 C   0  0  0  0  0  0  0  0  0  0  0  0
    2.6890    1.2880    0.8940 N   0  0  0  0  0  0  0  0  0  0  0  0
    2.2490    0.3640    0.1140 C   0  0  0  0  0  0  0  0  0  0  0  0
    0.8650   -0.2100   -0.0510 C   0  0  1  0  0  0  0  0  0  0  0  0
   -0.1840    0.8040    0.2200 C   0  0  0  0  0  0  0  0  0  0  0  0
   -1.5690    0.2340    0.0790 N   0  0  0  0  0  0  0  0  0  0  0  0
   -2.1120    0.3580   -1.2280 C   0  0  0  0  0  0  0  0  0  0  0  0
   -2.9390    1.6030   -1.4060 C   0  0  0  0  0  0  0  0  0  0  0  0
   -3.4580    1.7950   -2.5300 O   0  0  0  0  0  0  0  0  0  0  0  0
   -3.1250    2.5050   -0.3800 O   0  0  0  0  0  0  0  0  0  0  0  0
   -3.8930    3.6700   -0.5310 C   0  0  0  0  0  0  0  0  0  0  0  0
   -2.1570   -0.3580    1.1830 C   0  0  0  0  0  0  0  0  0  0  0  0
   -1.3400   -0.3810    2.2260 O   0  0  0  0  0  0  0  0  0  0  0  0
   -3.4400   -0.9510    1.4650 C   0  0  0  0  0  0  0  0  0  0  0  0
   -4.4210   -1.0200    0.5980 C   0  0  0  0  0  0  0  0  0  0  0  0
   -5.7360   -1.6340    0.8950 C   0  0  0  0  0  0  0  0  0  0  0  0
   -5.8300   -2.1310    2.1890 O   0  0  0  0  0  0  0  0  0  0  0  0
   -4.8140   -2.0700    3.1160 C   0  0  0  0  0  0  0  0  0  0  0  0
   -3.6770   -1.5260    2.8190 C   0  0  0  0  0  0  0  0  0  0  0  0
    0.9240   -0.6350   -1.4890 C   0  0  0  0  0  0  0  0  0  0  0  0
    2.3200   -1.2290   -1.5200 C   0  0  0  0  0  0  0  0  0  0  0  0
    2.6710   -2.3010   -2.0640 O   0  0  0  0  0  0  0  0  0  0  0  0
    3.1280   -0.2890   -0.7930 N   0  0  0  0  0  0  0  0  0  0  0  0
  1  2  1  0
  3  2  1  1
  3  4  1  0
  3 28  1  0
  4  5  1  0
  4  6  2  0
  6  7  1  0
  7  8  2  0
  8  9  1  0
  8 28  1  0
  9 10  1  6
  9 25  1  0
 10 11  1  0
 11 12  1  0
 11 17  1  0
 12 13  1  0
 13 14  2  0
 13 15  1  0
 15 16  1  0
 17 18  2  0
 17 19  1  0
 19 20  2  0
 19 24  1  0
 20 21  1  0
 21 22  1  0
 22 23  1  0
 23 24  2  0
 25 26  1  0
 26 27  2  0
 26 28  1  0
M  END
