
     RDKit          3D

 31 33  0  0  0  0  0  0  0  0999 V2000
   -6.7680    2.1340   -0.7750 C   0  0  0  0  0  0  0  0  0  0  0  0
   -7.0300    0.8740   -0.3860 C   0  0  0  0  0  0  0  0  0  0  0  0
   -8.3960    0.3700   -0.6020 C   0  0  0  0  0  0  0  0  0  0  0  0
   -8.5760   -0.9970   -0.0810 C   0  0  0  0  0  0  0  0  0  0  0  0
   -7.6030   -1.6620    0.4980 C   0  0  0  0  0  0  0  0  0  0  0  0
   -6.2440   -1.1500    0.6990 C   0  0  0  0  0  0  0  0  0  0  0  0
   -6.0070    0.0720    0.2600 C   0  0  0  0  0  0  0  0  0  0  0  0
   -4.6410    0.6730    0.4690 C   0  0  0  0  0  0  0  0  0  0  0  0
   -4.0940    0.8970   -0.8110 N   0  0  0  0  0  0  0  0  0  0  0  0
   -2.9170    1.5400   -0.8580 N   0  0  0  0  0  0  0  0  0  0  0  0
   -1.6140    1.0230   -0.7660 C   0  0  0  0  0  0  0  0  0  0  0  0
   -0.6360    1.5530   -1.6470 C   0  0  0  0  0  0  0  0  0  0  0  0
    0.6670    1.1430   -1.6020 C   0  0  0  0  0  0  0  0  0  0  0  0
    1.1280    0.1820   -0.6940 C   0  0  0  0  0  0  0  0  0  0  0  0
    2.4950   -0.1870   -0.7160 N   0  0  0  0  0  0  0  0  0  0  0  0
    3.2070   -0.8860    0.2710 C   0  0  0  0  0  0  0  0  0  0  0  0
    2.6140   -1.2490    1.3100 O   0  0  0  0  0  0  0  0  0  0  0  0
    4.6460   -1.2040    0.1140 C   0  0  0  0  0  0  0  0  0  0  0  0
    5.2910   -0.9020   -0.8960 O   0  0  0  0  0  0  0  0  0  0  0  0
    5.3140   -1.8810    1.1630 N   0  0  0  0  0  0  0  0  0  0  0  0
    6.7220   -2.2190    1.0610 C   0  0  0  0  0  0  0  0  0  0  0  0
    7.5470   -1.0020    0.8800 C   0  0  0  0  0  0  0  0  0  0  0  0
    8.3390   -0.7590   -0.1510 C   0  0  0  0  0  0  0  0  0  0  0  0
    8.5310   -1.5750   -1.2130 F   0  0  0  0  0  0  0  0  0  0  0  0
    8.9820    0.5480    0.0310 C   0  0  0  0  0  0  0  0  0  0  0  0
    8.5890    1.0900    1.1520 C   0  0  0  0  0  0  0  0  0  0  0  0
    7.6460    0.1470    1.7820 C   0  0  1  0  0  0  0  0  0  0  0  0
    6.0980    0.9840    2.0400 Cl  0  0  0  0  0  0  0  0  0  0  0  0
    8.3630   -0.3780    3.3360 Cl  0  0  0  0  0  0  0  0  0  0  0  0
    0.1970   -0.3400    0.1620 C   0  0  0  0  0  0  0  0  0  0  0  0
   -1.1400    0.0940    0.1000 C   0  0  0  0  0  0  0  0  0  0  0  0
  1  2  2  0
  2  3  1  0
  2  7  1  0
  3  4  1  0
  4  5  2  0
  5  6  1  0
  6  7  2  0
  7  8  1  0
  8  9  1  0
  9 10  1  0
 10 11  1  0
 11 12  2  0
 11 31  1  0
 12 13  1  0
 13 14  2  0
 14 15  1  0
 14 30  1  0
 15 16  1  0
 16 17  2  0
 16 18  1  0
 18 19  2  0
 18 20  1  0
 20 21  1  0
 21 22  1  0
 22 23  2  0
 22 27  1  0
 23 24  1  0
 23 25  1  0
 25 26  2  0
 26 27  1  0
 27 28  1  1
 27 29  1  0
 30 31  2  0
M  END
