
     RDKit          3D

 30 32  0  0  0  0  0  0  0  0999 V2000
   -7.0830   -1.3920   -0.7410 C   0  0  0  0  0  0  0  0  0  0  0  0
   -6.7370   -0.1940    0.0810 C   0  0  0  0  0  0  0  0  0  0  0  0
   -5.5660    0.5340   -0.3480 N   0  0  1  0  0  0  0  0  0  0  0  0
   -5.6710    1.9080    0.1200 C   0  0  0  0  0  0  0  0  0  0  0  0
   -5.7020    2.8790   -1.0480 C   0  0  0  0  0  0  0  0  0  0  0  0
   -4.3450   -0.0030    0.1720 C   0  0  2  0  0  0  0  0  0  0  0  0
   -3.1960    0.8950   -0.1630 C   0  0  0  0  0  0  0  0  0  0  0  0
   -2.0470    0.2050   -0.8830 C   0  0  0  0  0  0  0  0  0  0  0  0
   -1.6480   -1.0220   -0.3750 N   0  0  1  0  0  0  0  0  0  0  0  0
   -0.5460   -1.1700    0.4920 C   0  0  0  0  0  0  0  0  0  0  0  0
    0.8500   -1.1480    0.0280 C   0  0  0  0  0  0  0  0  0  0  0  0
    1.6290   -0.0380   -0.2370 C   0  0  0  0  0  0  0  0  0  0  0  0
    2.9780   -0.1630   -0.3950 C   0  0  0  0  0  0  0  0  0  0  0  0
    3.9270    0.9350   -0.3010 C   0  0  0  0  0  0  0  0  0  0  0  0
    4.7090    1.8510   -0.2030 C   0  0  0  0  0  0  0  0  0  0  0  0
    5.7160    3.0320   -0.0490 C   0  0  0  0  0  0  0  0  0  0  0  0
    6.3150    2.5220    1.1610 O   0  0  0  0  0  0  0  0  0  0  0  0
    7.3380    1.5540    1.0340 C   0  0  0  0  0  0  0  0  0  0  0  0
    7.9400    0.9590    2.1130 C   0  0  0  0  0  0  0  0  0  0  0  0
    8.9400    0.0150    1.9560 C   0  0  0  0  0  0  0  0  0  0  0  0
    9.3630   -0.3570    0.7010 C   0  0  0  0  0  0  0  0  0  0  0  0
    8.7690    0.2340   -0.3770 C   0  0  0  0  0  0  0  0  0  0  0  0
    7.7700    1.1770   -0.2260 C   0  0  0  0  0  0  0  0  0  0  0  0
    3.6040   -1.4210   -0.3090 C   0  0  0  0  0  0  0  0  0  0  0  0
    2.8470   -2.5220   -0.0490 C   0  0  0  0  0  0  0  0  0  0  0  0
    3.7530   -4.4350    0.0880 I   0  0  0  0  0  0  0  0  0  0  0  0
    1.5060   -2.4150    0.1220 C   0  0  0  0  0  0  0  0  0  0  0  0
    0.6770   -3.4870    0.3950 O   0  0  0  0  0  0  0  0  0  0  0  0
   -2.7640   -1.8120    0.2250 C   0  0  0  0  0  0  0  0  0  0  0  0
   -4.0640   -1.3920   -0.3500 C   0  0  0  0  0  0  0  0  0  0  0  0
  1  2  1  0
  3  2  1  1
  3  4  1  0
  3  6  1  0
  4  5  1  0
  6  7  1  6
  6 30  1  0
  7  8  1  0
  8  9  1  0
  9 10  1  1
  9 29  1  0
 10 11  1  0
 11 12  2  0
 11 27  1  0
 12 13  1  0
 13 14  1  0
 13 24  2  0
 14 15  3  0
 15 16  1  0
 16 17  1  0
 17 18  1  0
 18 19  2  0
 18 23  1  0
 19 20  1  0
 20 21  2  0
 21 22  1  0
 22 23  2  0
 24 25  1  0
 25 26  1  0
 25 27  2  0
 27 28  1  0
 29 30  1  0
M  CHG  2   3   1   9   1
M  END
