
     RDKit          3D

 29 31  0  0  0  0  0  0  0  0999 V2000
   -4.9840   -2.0800    1.5190 C   0  0  0  0  0  0  0  0  0  0  0  0
   -4.4980   -1.2130    0.4680 N   0  0  0  0  0  0  0  0  0  0  0  0
   -4.8760    0.0240    0.4430 C   0  0  0  0  0  0  0  0  0  0  0  0
   -5.9790    0.8020    1.6190 S   0  0  0  0  0  0  0  0  0  0  0  0
   -6.1310    2.3380    0.7580 C   0  0  0  0  0  0  0  0  0  0  0  0
   -6.9610    3.4510    1.1990 C   0  0  0  0  0  0  0  0  0  0  0  0
   -7.6370    3.3670    2.2540 O   0  0  0  0  0  0  0  0  0  0  0  0
   -5.3790    2.2770   -0.3050 C   0  0  0  0  0  0  0  0  0  0  0  0
   -4.6440    1.0690   -0.5640 C   0  0  0  0  0  0  0  0  0  0  0  0
   -3.7440    0.9250   -1.5240 C   0  0  0  0  0  0  0  0  0  0  0  0
   -3.7140    2.3800   -2.6760 Cl  0  0  0  0  0  0  0  0  0  0  0  0
   -2.6190    0.0870   -1.6800 C   0  0  0  0  0  0  0  0  0  0  0  0
   -2.1950    0.1160   -2.9640 O   0  0  0  0  0  0  0  0  0  0  0  0
   -1.8520   -0.7240   -0.8840 N   0  0  0  0  0  0  0  0  0  0  0  0
   -0.9590   -1.7160   -1.5580 C   0  0  0  0  0  0  0  0  0  0  0  0
    0.4300   -1.0780   -1.5210 C   0  0  0  0  0  0  0  0  0  0  0  0
    0.7640   -0.8660   -0.1290 N   0  0  0  0  0  0  0  0  0  0  0  0
    2.0670   -1.1820    0.3380 C   0  0  0  0  0  0  0  0  0  0  0  0
    2.3370   -1.0460    1.5810 O   0  0  0  0  0  0  0  0  0  0  0  0
    3.1030   -1.6620   -0.5950 C   0  0  2  0  0  0  0  0  0  0  0  0
    4.1670   -2.1560    0.1780 O   0  0  0  0  0  0  0  0  0  0  0  0
    3.6010   -0.5290   -1.4820 C   0  0  0  0  0  0  0  0  0  0  0  0
    4.1190    0.5440   -0.8410 O   0  0  0  0  0  0  0  0  0  0  0  0
    5.2590    0.3350   -0.1390 C   0  0  1  0  0  0  0  0  0  0  0  0
    6.3760    1.3610   -0.4290 C   0  0  0  0  0  0  0  0  0  0  0  0
    6.6810    1.3400    1.0530 C   0  0  0  0  0  0  0  0  0  0  0  0
    5.2330    0.9600    1.2730 C   0  0  0  0  0  0  0  0  0  0  0  0
   -0.1520   -0.3220    0.8160 C   0  0  0  0  0  0  0  0  0  0  0  0
   -1.6350   -0.6100    0.5290 C   0  0  0  0  0  0  0  0  0  0  0  0
  1  2  1  0
  2  3  2  3
  3  4  1  0
  3  9  1  0
  4  5  1  0
  5  6  1  0
  5  8  2  0
  6  7  2  0
  8  9  1  0
  9 10  2  3
 10 11  1  0
 10 12  1  0
 12 13  2  0
 12 14  1  0
 14 15  1  0
 14 29  1  0
 15 16  1  0
 16 17  1  0
 17 18  1  0
 17 28  1  0
 18 19  2  0
 18 20  1  0
 20 21  1  1
 20 22  1  0
 22 23  1  0
 24 23  1  6
 24 25  1  0
 24 27  1  0
 25 26  1  0
 26 27  1  0
 28 29  1  0
M  END
