
     RDKit          3D

 30 32  0  0  0  0  0  0  0  0999 V2000
   -3.0930   -1.6540    2.4920 C   0  0  0  0  0  0  0  0  0  0  0  0
   -3.1910   -2.1080    1.1590 O   0  0  0  0  0  0  0  0  0  0  0  0
   -4.0560   -1.4390    0.3050 C   0  0  0  0  0  0  0  0  0  0  0  0
   -5.3510   -1.9100    0.2600 C   0  0  0  0  0  0  0  0  0  0  0  0
   -5.8080   -3.0680    1.0770 C   0  0  0  0  0  0  0  0  0  0  0  0
   -6.2560   -1.2870   -0.5690 C   0  0  0  0  0  0  0  0  0  0  0  0
   -5.8350   -0.2020   -1.3370 C   0  0  0  0  0  0  0  0  0  0  0  0
   -4.5360    0.2470   -1.2730 C   0  0  0  0  0  0  0  0  0  0  0  0
   -3.6320   -0.3550   -0.4620 C   0  0  0  0  0  0  0  0  0  0  0  0
   -2.2180    0.0250   -0.2900 C   0  0  0  0  0  0  0  0  0  0  0  0
   -1.7570    1.1150   -1.0630 N   0  0  2  0  0  0  0  0  0  0  0  0
   -1.5780    0.9640   -2.4530 C   0  0  0  0  0  0  0  0  0  0  0  0
   -1.7330   -0.3500   -3.0560 C   0  0  0  0  0  0  0  0  0  0  0  0
   -2.0070   -1.3550   -2.4490 O   0  0  0  0  0  0  0  0  0  0  0  0
   -0.5680    1.6750   -0.4250 C   0  0  2  0  0  0  0  0  0  0  0  0
   -0.0890    2.9390   -1.1080 C   0  0  0  0  0  0  0  0  0  0  0  0
    0.7090    3.6880   -0.0310 C   0  0  0  0  0  0  0  0  0  0  0  0
    1.8440    2.7940    0.3180 C   0  0  0  0  0  0  0  0  0  0  0  0
    2.9730    3.4150    0.8240 C   0  0  0  0  0  0  0  0  0  0  0  0
    3.0150    4.9080    0.9960 C   0  0  0  0  0  0  0  0  0  0  0  0
    4.0540    2.6310    1.1640 C   0  0  0  0  0  0  0  0  0  0  0  0
    4.0340    1.2810    1.0150 C   0  0  0  0  0  0  0  0  0  0  0  0
    2.9010    0.6780    0.5100 C   0  0  0  0  0  0  0  0  0  0  0  0
    2.8420   -0.8060    0.3320 C   0  0  0  0  0  0  0  0  0  0  0  0
    4.0700   -1.4060    0.7500 N   0  0  0  0  0  0  0  0  0  0  0  0
    4.0460   -2.8460    0.6340 C   0  0  2  0  0  0  0  0  0  0  0  0
    5.4590   -3.3460    0.8570 C   0  0  0  0  0  0  0  0  0  0  0  0
    3.6030   -3.2750   -0.7380 C   0  0  0  0  0  0  0  0  0  0  0  0
    1.7710    1.4290    0.1470 C   0  0  0  0  0  0  0  0  0  0  0  0
    0.5760    0.7180   -0.3940 C   0  0  0  0  0  0  0  0  0  0  0  0
  1  2  1  0
  2  3  1  0
  3  4  2  0
  3  9  1  0
  4  5  1  0
  4  6  1  0
  6  7  2  0
  7  8  1  0
  8  9  2  0
  9 10  1  0
 11 10  1  1
 11 12  1  0
 11 15  1  0
 12 13  1  0
 13 14  2  0
 15 16  1  6
 15 30  1  0
 16 17  1  0
 17 18  1  0
 18 19  2  0
 18 29  1  0
 19 20  1  0
 19 21  1  0
 21 22  2  0
 22 23  1  0
 23 24  1  0
 23 29  2  0
 24 25  1  0
 25 26  1  0
 26 27  1  6
 26 28  1  0
 29 30  1  0
M  CHG  2  11   1  25   1
M  END
