
     RDKit          3D

 29 31  0  0  0  0  0  0  0  0999 V2000
    5.1100    1.7390   -1.3570 N   0  0  0  0  0  0  0  0  0  0  0  0
    4.3960    1.3000   -0.1370 C   0  0  1  0  0  0  0  0  0  0  0  0
    2.9850    1.1000   -0.5210 C   0  0  0  0  0  0  0  0  0  0  0  0
    2.0220    1.2080    0.3410 C   0  0  0  0  0  0  0  0  0  0  0  0
    2.2990    1.5270    1.7020 N   0  0  0  0  0  0  0  0  0  0  0  0
    1.2160    1.6360    2.6090 C   0  0  0  0  0  0  0  0  0  0  0  0
    1.5150    1.9230    3.8130 O   0  0  0  0  0  0  0  0  0  0  0  0
   -0.1180    1.4370    2.1920 N   0  0  0  0  0  0  0  0  0  0  0  0
   -0.4230    1.1180    0.8430 C   0  0  0  0  0  0  0  0  0  0  0  0
   -1.6810    0.9290    0.4470 N   0  0  0  0  0  0  0  0  0  0  0  0
   -2.0390    0.6270   -0.8040 C   0  0  0  0  0  0  0  0  0  0  0  0
   -3.4770    0.4270   -1.1870 C   0  0  1  0  0  0  0  0  0  0  0  0
   -4.0240   -0.6480   -0.2740 C   0  0  0  0  0  0  0  0  0  0  0  0
   -5.4430   -1.0240   -0.6460 C   0  0  0  0  0  0  0  0  0  0  0  0
   -6.3930    0.0750   -0.4350 C   0  0  0  0  0  0  0  0  0  0  0  0
   -7.6820   -0.1240   -0.6250 C   0  0  0  0  0  0  0  0  0  0  0  0
   -8.1860   -1.4470   -1.0500 C   0  0  0  0  0  0  0  0  0  0  0  0
   -9.3270   -2.1220    0.1430 Cl  0  0  0  0  0  0  0  0  0  0  0  0
   -5.9450    1.4440   -0.0020 C   0  0  0  0  0  0  0  0  0  0  0  0
   -4.4320    1.9430   -0.8840 S   0  0  0  0  0  0  0  0  0  0  0  0
   -1.0520    0.5120   -1.7010 N   0  0  0  0  0  0  0  0  0  0  0  0
    0.2640    0.6920   -1.3670 C   0  0  0  0  0  0  0  0  0  0  0  0
    0.6140    1.0030   -0.0750 C   0  0  0  0  0  0  0  0  0  0  0  0
    4.9690   -0.0110    0.3060 C   0  0  0  0  0  0  0  0  0  0  0  0
    4.5440   -0.6230    1.3070 O   0  0  0  0  0  0  0  0  0  0  0  0
    6.0090   -0.6040   -0.3860 O   0  0  0  0  0  0  0  0  0  0  0  0
    6.5480   -1.8250    0.0210 C   0  0  0  0  0  0  0  0  0  0  0  0
    7.1280   -1.8120    1.4090 C   0  0  0  0  0  0  0  0  0  0  0  0
    8.1650   -0.8800    1.5310 O   0  0  0  0  0  0  0  0  0  0  0  0
  2  1  1  6
  2  3  1  0
  2 24  1  0
  3  4  2  3
  4  5  1  0
  4 23  1  0
  5  6  1  0
  6  7  2  0
  6  8  1  0
  8  9  1  0
  9 10  2  0
  9 23  1  0
 10 11  1  0
 12 11  1  1
 11 21  2  0
 12 13  1  0
 12 20  1  0
 13 14  1  0
 14 15  1  0
 15 16  2  3
 15 19  1  0
 16 17  1  0
 17 18  1  0
 19 20  1  0
 21 22  1  0
 22 23  2  0
 24 25  2  0
 24 26  1  0
 26 27  1  0
 27 28  1  0
 28 29  1  0
M  CHG  1   1   1
M  END
