
     RDKit          3D

 29 30  0  0  0  0  0  0  0  0999 V2000
   -4.3570    3.5660   -0.3720 C   0  0  0  0  0  0  0  0  0  0  0  0
   -4.0240    2.1490   -0.5730 C   0  0  0  0  0  0  0  0  0  0  0  0
   -4.7610    1.0740   -0.4500 C   0  0  0  0  0  0  0  0  0  0  0  0
   -6.1780    1.2200   -0.0390 C   0  0  0  0  0  0  0  0  0  0  0  0
   -6.9390    0.1620    0.0920 C   0  0  0  0  0  0  0  0  0  0  0  0
   -8.3660    0.2290    0.4990 C   0  0  0  0  0  0  0  0  0  0  0  0
   -8.7710    1.6250    0.7220 N   0  0  0  0  0  0  0  0  0  0  0  0
   -4.1570   -0.1630   -0.7520 C   0  0  0  0  0  0  0  0  0  0  0  0
   -2.8710   -0.1430   -1.1430 C   0  0  0  0  0  0  0  0  0  0  0  0
   -2.0690   -1.3400   -1.5100 C   0  0  0  0  0  0  0  0  0  0  0  0
   -0.8830   -1.4390   -0.7400 N   0  0  0  0  0  0  0  0  0  0  0  0
    0.1630   -0.5960   -0.8400 C   0  0  0  0  0  0  0  0  0  0  0  0
    0.1060    0.3420   -1.7310 O   0  0  0  0  0  0  0  0  0  0  0  0
    1.3130   -0.5100   -0.1880 N   0  0  0  0  0  0  0  0  0  0  0  0
    2.4560   -0.4800    0.5130 C   0  0  0  0  0  0  0  0  0  0  0  0
    3.1980    0.4970    0.0900 O   0  0  0  0  0  0  0  0  0  0  0  0
    2.8940   -1.2840    1.5260 N   0  0  0  0  0  0  0  0  0  0  0  0
    4.1670   -1.0890    2.1530 C   0  0  0  0  0  0  0  0  0  0  0  0
    5.2400   -1.2220    1.1100 C   0  0  0  0  0  0  0  0  0  0  0  0
    4.9340   -1.4670   -0.0820 O   0  0  0  0  0  0  0  0  0  0  0  0
    6.6150   -1.0770    1.4340 N   0  0  0  0  0  0  0  0  0  0  0  0
    7.6580   -1.1960    0.4740 C   0  0  0  0  0  0  0  0  0  0  0  0
    8.5670   -0.3210    0.1020 C   0  0  0  0  0  0  0  0  0  0  0  0
    9.4640   -0.8740   -0.9380 C   0  0  0  0  0  0  0  0  0  0  0  0
    8.9180   -2.2450   -1.1160 C   0  0  0  0  0  0  0  0  0  0  0  0
    7.8790   -2.4280   -0.3020 C   0  0  0  0  0  0  0  0  0  0  0  0
    6.9470   -3.9060   -0.1970 Cl  0  0  0  0  0  0  0  0  0  0  0  0
   -2.4090    1.5530   -1.0180 S   0  0  0  0  0  0  0  0  0  0  0  0
   -1.4770    1.8080    0.1920 O   0  0  0  0  0  0  0  0  0  0  0  0
  1  2  1  0
  2  3  2  0
 28  2  1  1
  3  4  1  0
  3  8  1  0
  4  5  2  3
  5  6  1  0
  6  7  1  0
  8  9  2  0
  9 10  1  0
  9 28  1  0
 10 11  1  0
 11 12  1  0
 12 13  2  0
 12 14  1  0
 14 15  1  0
 15 16  2  0
 15 17  1  0
 17 18  1  0
 18 19  1  0
 19 20  2  0
 19 21  1  0
 21 22  1  0
 22 23  2  0
 22 26  1  0
 23 24  1  0
 24 25  1  0
 25 26  2  0
 26 27  1  0
 28 29  2  0
M  CHG  1   7   1
M  END
