
     RDKit          3D

 31 33  0  0  0  0  0  0  0  0999 V2000
    7.3070   -1.8730    1.9150 C   0  0  0  0  0  0  0  0  0  0  0  0
    7.3340   -0.9220    0.7540 C   0  0  0  0  0  0  0  0  0  0  0  0
    5.9820   -0.7030    0.3080 N   0  0  0  0  0  0  0  0  0  0  0  0
    5.8530    0.1510   -0.8140 C   0  0  0  0  0  0  0  0  0  0  0  0
    5.1220    1.4390   -0.5730 C   0  0  0  0  0  0  0  0  0  0  0  0
    3.7390    1.2410   -0.1090 C   0  0  0  0  0  0  0  0  0  0  0  0
    3.4460    1.4730    1.2240 C   0  0  0  0  0  0  0  0  0  0  0  0
    2.1730    1.3150    1.7250 C   0  0  0  0  0  0  0  0  0  0  0  0
    1.8200    1.5590    3.1570 C   0  0  0  0  0  0  0  0  0  0  0  0
    1.1450    0.9130    0.8860 C   0  0  0  0  0  0  0  0  0  0  0  0
    1.4270    0.6800   -0.4400 C   0  0  0  0  0  0  0  0  0  0  0  0
    0.4680    0.2740   -1.3560 O   0  0  0  0  0  0  0  0  0  0  0  0
   -0.8840    0.0470   -1.1610 C   0  0  1  0  0  0  0  0  0  0  0  0
   -1.7590    0.9040   -2.0570 C   0  0  0  0  0  0  0  0  0  0  0  0
   -2.6210    1.8510   -1.2240 C   0  0  0  0  0  0  0  0  0  0  0  0
   -3.7660    2.3440   -1.9090 N   0  0  0  0  0  0  0  0  0  0  0  0
   -4.8410    1.4350   -2.1110 C   0  0  0  0  0  0  0  0  0  0  0  0
   -5.4700    0.8880   -0.8730 C   0  0  0  0  0  0  0  0  0  0  0  0
   -6.2700   -0.3500   -1.1180 C   0  0  0  0  0  0  0  0  0  0  0  0
   -5.6860   -1.5950   -0.4290 C   0  0  0  0  0  0  0  0  0  0  0  0
   -4.2110   -1.5780   -0.4060 C   0  0  0  0  0  0  0  0  0  0  0  0
   -3.5770   -1.4370    0.9320 C   0  0  0  0  0  0  0  0  0  0  0  0
   -4.2980   -1.0780    2.0370 C   0  0  0  0  0  0  0  0  0  0  0  0
   -3.6910   -0.9740    3.2670 C   0  0  0  0  0  0  0  0  0  0  0  0
   -2.3440   -1.2300    3.4060 C   0  0  0  0  0  0  0  0  0  0  0  0
   -1.6340   -1.5900    2.2810 C   0  0  0  0  0  0  0  0  0  0  0  0
   -2.1980   -1.7100    1.0110 C   0  0  0  0  0  0  0  0  0  0  0  0
   -1.4590   -2.0660   -0.0730 O   0  0  0  0  0  0  0  0  0  0  0  0
   -1.2260   -1.4360   -1.2890 C   0  0  0  0  0  0  0  0  0  0  0  0
    2.7360    0.8430   -0.9490 C   0  0  0  0  0  0  0  0  0  0  0  0
    2.9510    0.5630   -2.4050 C   0  0  0  0  0  0  0  0  0  0  0  0
  1  2  1  0
  2  3  1  0
  3  4  1  0
  4  5  1  0
  5  6  1  0
  6  7  2  0
  6 30  1  0
  7  8  1  0
  8  9  1  0
  8 10  2  0
 10 11  1  0
 11 12  1  0
 11 30  2  0
 13 12  1  6
 13 14  1  0
 13 29  1  0
 14 15  1  0
 15 16  1  0
 16 17  1  0
 17 18  1  0
 18 19  1  0
 19 20  1  0
 20 21  1  0
 21 22  1  0
 22 23  2  0
 22 27  1  0
 23 24  1  0
 24 25  2  0
 25 26  1  0
 26 27  2  0
 27 28  1  0
 28 29  1  0
 30 31  1  0
M  CHG  2   3   1  16   1
M  END
