
     RDKit          3D

 31 33  0  0  0  0  0  0  0  0999 V2000
   -3.0520    6.9680   -0.8460 C   0  0  0  0  0  0  0  0  0  0  0  0
   -3.0200    5.9890   -2.0010 C   0  0  0  0  0  0  0  0  0  0  0  0
   -2.1280    4.8640   -1.6640 C   0  0  0  0  0  0  0  0  0  0  0  0
   -2.0100    3.9200   -2.4920 O   0  0  0  0  0  0  0  0  0  0  0  0
   -1.3950    4.7550   -0.4920 O   0  0  0  0  0  0  0  0  0  0  0  0
   -0.5680    3.6520   -0.2420 C   0  0  0  0  0  0  0  0  0  0  0  0
    0.7450    3.5790   -0.6430 C   0  0  0  0  0  0  0  0  0  0  0  0
    1.4880    2.4390   -0.3470 C   0  0  0  0  0  0  0  0  0  0  0  0
    0.9610    1.3580    0.3440 C   0  0  0  0  0  0  0  0  0  0  0  0
    1.7860    0.2280    0.6230 N   0  0  0  0  0  0  0  0  0  0  0  0
    2.4500   -0.3070   -0.5220 C   0  0  0  0  0  0  0  0  0  0  0  0
    3.5380   -1.2480   -0.2120 C   0  0  0  0  0  0  0  0  0  0  0  0
    3.8180   -1.5280    1.1040 C   0  0  0  0  0  0  0  0  0  0  0  0
    4.8490   -2.4180    1.3830 C   0  0  0  0  0  0  0  0  0  0  0  0
    5.5740   -3.0070    0.3760 C   0  0  0  0  0  0  0  0  0  0  0  0
    6.6810   -3.9630    0.6980 C   0  0  0  0  0  0  0  0  0  0  0  0
    5.2730   -2.7090   -0.9400 C   0  0  0  0  0  0  0  0  0  0  0  0
    4.2710   -1.8430   -1.2420 C   0  0  0  0  0  0  0  0  0  0  0  0
    3.9060   -1.4880   -2.6580 C   0  0  0  0  0  0  0  0  0  0  0  0
   -0.3540    1.4680    0.7280 C   0  0  0  0  0  0  0  0  0  0  0  0
   -0.9630    0.3310    1.4660 C   0  0  1  0  0  0  0  0  0  0  0  0
   -2.3370    0.6770    1.9970 C   0  0  0  0  0  0  0  0  0  0  0  0
   -2.7500   -0.4500    2.9220 C   0  0  0  0  0  0  0  0  0  0  0  0
   -3.8790   -1.1800    2.2020 C   0  0  0  0  0  0  0  0  0  0  0  0
   -3.2070   -2.0560    1.1680 C   0  0  0  0  0  0  0  0  0  0  0  0
   -2.3990   -1.3120    0.1680 C   0  0  2  0  0  0  0  0  0  0  0  0
   -2.1550   -2.2550   -0.9420 N   0  0  1  0  0  0  0  0  0  0  0  0
   -2.0610   -3.6100   -0.5120 C   0  0  0  0  0  0  0  0  0  0  0  0
   -3.2240   -2.1580   -1.9260 C   0  0  0  0  0  0  0  0  0  0  0  0
   -1.0250   -0.9020    0.6350 C   0  0  0  0  0  0  0  0  0  0  0  0
   -1.1180    2.6050    0.4400 C   0  0  0  0  0  0  0  0  0  0  0  0
  1  2  1  0
  2  3  1  0
  3  4  2  0
  3  5  1  0
  5  6  1  0
  6  7  2  0
  6 31  1  0
  7  8  1  0
  8  9  2  0
  9 10  1  0
  9 20  1  0
 10 11  1  0
 11 12  1  0
 12 13  2  0
 12 18  1  0
 13 14  1  0
 14 15  2  0
 15 16  1  0
 15 17  1  0
 17 18  2  0
 18 19  1  0
 21 20  1  6
 20 31  2  0
 21 22  1  0
 21 30  1  0
 22 23  1  0
 23 24  1  0
 24 25  1  0
 26 25  1  1
 26 27  1  0
 26 30  1  0
 27 28  1  1
 27 29  1  0
M  CHG  2  10   1  27   1
M  END
