
     RDKit          3D

 14 14  0  0  0  0  0  0  0  0999 V2000
    4.1860    1.2130    0.4990 C   0  0  0  0  0  0  0  0  0  0  0  0
    2.9270    0.5660    0.4480 O   0  0  0  0  0  0  0  0  0  0  0  0
    2.6840   -0.5840   -0.2760 C   0  0  0  0  0  0  0  0  0  0  0  0
    3.6620   -1.0660   -0.9210 O   0  0  0  0  0  0  0  0  0  0  0  0
    1.3410   -1.2510   -0.3140 C   0  0  0  0  0  0  0  0  0  0  0  0
    0.4260   -0.4300    0.5470 C   0  0  0  0  0  0  0  0  0  0  0  0
   -0.9760   -0.9600    0.6230 C   0  0  1  0  0  0  0  0  0  0  0  0
   -0.9470   -2.2440    1.1510 O   0  0  0  0  0  0  0  0  0  0  0  0
   -1.7420   -0.0970    1.6000 C   0  0  0  0  0  0  0  0  0  0  0  0
   -1.8310    1.3340    1.2020 C   0  0  0  0  0  0  0  0  0  0  0  0
   -2.1540    1.5530   -0.2590 C   0  0  0  0  0  0  0  0  0  0  0  0
   -2.5870    0.2560   -0.8220 C   0  0  0  0  0  0  0  0  0  0  0  0
   -3.6520    0.1920   -1.3930 O   0  0  0  0  0  0  0  0  0  0  0  0
   -1.7140   -0.9320   -0.6770 C   0  0  0  0  0  0  0  0  0  0  0  0
  1  2  1  0
  2  3  1  0
  3  4  2  0
  3  5  1  0
  5  6  1  0
  6  7  1  0
  7  8  1  1
  7  9  1  0
  7 14  1  0
  9 10  1  0
 10 11  1  0
 11 12  1  0
 12 13  2  0
 12 14  1  0
M  END
