
     RDKit          3D

 17 18  0  0  0  0  0  0  0  0999 V2000
   -5.8600   -0.0360   -1.2840 C   0  0  0  0  0  0  0  0  0  0  0  0
   -5.0280    0.5040   -0.4140 C   0  0  0  0  0  0  0  0  0  0  0  0
   -4.2270   -0.3650    0.4860 C   0  0  0  0  0  0  0  0  0  0  0  0
   -2.8180   -0.1000    0.2240 N   0  0  0  0  0  0  0  0  0  0  0  0
   -1.8670   -0.8150    0.9670 C   0  0  0  0  0  0  0  0  0  0  0  0
   -2.1700   -1.6560    1.8300 O   0  0  0  0  0  0  0  0  0  0  0  0
   -0.4460   -0.5420    0.6960 C   0  0  0  0  0  0  0  0  0  0  0  0
    0.1270    0.2960   -0.1620 C   0  0  0  0  0  0  0  0  0  0  0  0
    1.4730    0.3890   -0.2480 C   0  0  0  0  0  0  0  0  0  0  0  0
    2.2720    1.2030   -1.0810 C   0  0  0  0  0  0  0  0  0  0  0  0
    3.6410    1.1640   -1.0300 C   0  0  0  0  0  0  0  0  0  0  0  0
    4.3740    1.9980   -1.8830 O   0  0  0  0  0  0  0  0  0  0  0  0
    4.3260    0.3420   -0.1780 C   0  0  0  0  0  0  0  0  0  0  0  0
    3.5820   -0.4750    0.6560 C   0  0  0  0  0  0  0  0  0  0  0  0
    4.1780   -1.4080    1.6210 C   0  0  0  0  0  0  0  0  0  0  0  0
    2.1960   -0.4180    0.5880 C   0  0  0  0  0  0  0  0  0  0  0  0
    0.9120   -1.3180    1.5050 S   0  0  0  0  0  0  0  0  0  0  0  0
  1  2  2  0
  2  3  1  0
  3  4  1  0
  4  5  1  0
  5  6  2  0
  5  7  1  0
  7  8  2  0
  7 17  1  0
  8  9  1  0
  9 10  2  0
  9 16  1  0
 10 11  1  0
 11 12  1  0
 11 13  2  0
 13 14  1  0
 14 15  1  0
 14 16  2  0
 16 17  1  0
M  END
