
     RDKit          3D

 17 18  0  0  0  0  0  0  0  0999 V2000
    5.3630   -0.3790    0.0720 C   0  0  0  0  0  0  0  0  0  0  0  0
    3.8770   -0.3210   -0.0350 C   0  0  0  0  0  0  0  0  0  0  0  0
    3.1080    0.0440    1.0440 C   0  0  0  0  0  0  0  0  0  0  0  0
    1.7240    0.1050    0.9670 C   0  0  0  0  0  0  0  0  0  0  0  0
    1.0490   -0.1980   -0.1970 C   0  0  0  0  0  0  0  0  0  0  0  0
   -0.4110   -0.1220   -0.2380 C   0  0  0  0  0  0  0  0  0  0  0  0
   -1.0950   -0.3900   -1.2830 O   0  0  0  0  0  0  0  0  0  0  0  0
   -1.1850    0.2520    0.8740 N   0  0  0  0  0  0  0  0  0  0  0  0
   -2.6170    0.3070    0.7670 C   0  0  0  0  0  0  0  0  0  0  0  0
   -3.2250    1.4270    0.9830 C   0  0  0  0  0  0  0  0  0  0  0  0
   -4.6670    1.7350    0.9360 C   0  0  0  0  0  0  0  0  0  0  0  0
   -5.6810    0.3210    0.5150 S   0  0  0  0  0  0  0  0  0  0  0  0
   -4.5390   -1.0500    0.2830 C   0  0  0  0  0  0  0  0  0  0  0  0
   -3.2510   -0.9600    0.4120 C   0  0  0  0  0  0  0  0  0  0  0  0
    1.7990   -0.5650   -1.2870 C   0  0  0  0  0  0  0  0  0  0  0  0
    1.2490   -0.8880   -2.4940 O   0  0  0  0  0  0  0  0  0  0  0  0
    3.2140   -0.6210   -1.1890 C   0  0  0  0  0  0  0  0  0  0  0  0
  1  2  1  0
  2  3  2  0
  2 17  1  0
  3  4  1  0
  4  5  2  0
  5  6  1  0
  5 15  1  0
  6  7  2  0
  6  8  1  0
  8  9  1  0
  9 10  2  0
  9 14  1  0
 10 11  1  0
 11 12  1  0
 12 13  1  0
 13 14  2  0
 15 16  1  0
 15 17  2  0
M  END
