
     RDKit          3D

 17 18  0  0  0  0  0  0  0  0999 V2000
   -4.8820    0.1250   -0.4550 C   0  0  0  0  0  0  0  0  0  0  0  0
   -3.4370   -0.0650   -0.1710 C   0  0  0  0  0  0  0  0  0  0  0  0
   -2.5190    0.8000   -0.6870 C   0  0  0  0  0  0  0  0  0  0  0  0
   -1.1700    0.6170   -0.4190 C   0  0  0  0  0  0  0  0  0  0  0  0
   -0.2110    1.4660   -0.9200 C   0  0  0  0  0  0  0  0  0  0  0  0
    1.1510    1.2840   -0.6520 C   0  0  0  0  0  0  0  0  0  0  0  0
    1.5780    0.2430    0.1280 C   0  0  0  0  0  0  0  0  0  0  0  0
    2.9250   -0.0310    0.4370 N   0  0  0  0  0  0  0  0  0  0  0  0
    4.0530    0.5550   -0.1710 C   0  0  0  0  0  0  0  0  0  0  0  0
    3.9460    1.4050   -1.0820 O   0  0  0  0  0  0  0  0  0  0  0  0
    5.4470    0.1750    0.2600 C   0  0  0  0  0  0  0  0  0  0  0  0
    5.4160   -0.7660    1.2660 O   0  0  0  0  0  0  0  0  0  0  0  0
    0.5710   -0.5980    0.6200 C   0  0  0  0  0  0  0  0  0  0  0  0
   -0.7630   -0.4460    0.3760 C   0  0  0  0  0  0  0  0  0  0  0  0
   -1.6990   -1.3330    0.9060 C   0  0  0  0  0  0  0  0  0  0  0  0
   -3.0280   -1.1200    0.6180 C   0  0  0  0  0  0  0  0  0  0  0  0
   -4.3090   -2.2080    1.2550 S   0  0  0  0  0  0  0  0  0  0  0  0
  1  2  1  0
  2  3  2  0
  2 16  1  0
  3  4  1  0
  4  5  2  0
  4 14  1  0
  5  6  1  0
  6  7  2  0
  7  8  1  0
  7 13  1  0
  8  9  1  0
  9 10  2  0
  9 11  1  0
 11 12  1  0
 13 14  2  0
 14 15  1  0
 15 16  2  0
 16 17  1  0
M  END
