
     RDKit          3D

 12 13  0  0  0  0  0  0  0  0999 V2000
   -3.4430    1.3420    0.2870 O   0  0  0  0  0  0  0  0  0  0  0  0
   -3.0280    0.1710    0.1600 C   0  0  0  0  0  0  0  0  0  0  0  0
   -1.6110   -0.1010    0.0680 C   0  0  0  0  0  0  0  0  0  0  0  0
   -1.2250   -1.4240   -0.0720 C   0  0  0  0  0  0  0  0  0  0  0  0
    0.0710   -1.7570   -0.1640 N   0  0  0  0  0  0  0  0  0  0  0  0
    1.0610   -0.8570   -0.1290 C   0  0  0  0  0  0  0  0  0  0  0  0
    2.4550   -0.9260   -0.2020 C   0  0  0  0  0  0  0  0  0  0  0  0
    2.9150    0.3600   -0.1070 C   0  0  0  0  0  0  0  0  0  0  0  0
    1.8640    1.2470    0.0250 C   0  0  0  0  0  0  0  0  0  0  0  0
    0.6830    0.5400    0.0170 C   0  0  0  0  0  0  0  0  0  0  0  0
   -0.6700    0.8940    0.1140 C   0  0  0  0  0  0  0  0  0  0  0  0
   -0.9120    2.2310    0.2480 O   0  0  0  0  0  0  0  0  0  0  0  0
  1  2  2  0
  2  3  1  0
  3  4  2  0
  3 11  1  0
  4  5  1  0
  5  6  1  0
  6  7  2  0
  6 10  1  0
  7  8  1  0
  8  9  2  0
  9 10  1  0
 10 11  2  0
 11 12  1  0
M  END
