
     RDKit          3D

 12 13  0  0  0  0  0  0  0  0999 V2000
    4.2570    0.4270    0.2510 O   0  0  0  0  0  0  0  0  0  0  0  0
    3.1530    0.9840   -0.3580 C   0  0  0  0  0  0  0  0  0  0  0  0
    1.8900    0.2940    0.0430 C   0  0  0  0  0  0  0  0  0  0  0  0
    1.7550   -0.7750    0.9100 C   0  0  0  0  0  0  0  0  0  0  0  0
    0.4460   -1.0980    1.0000 N   0  0  0  0  0  0  0  0  0  0  0  0
   -0.2800   -0.2760    0.2220 C   0  0  0  0  0  0  0  0  0  0  0  0
   -1.7380   -0.3220    0.0640 C   0  0  0  0  0  0  0  0  0  0  0  0
   -2.5310    0.4930   -0.7170 C   0  0  0  0  0  0  0  0  0  0  0  0
   -3.8570    0.0960   -0.5670 C   0  0  0  0  0  0  0  0  0  0  0  0
   -3.7890   -0.9680    0.3220 C   0  0  0  0  0  0  0  0  0  0  0  0
   -2.5520   -1.1620    0.6490 O   0  0  0  0  0  0  0  0  0  0  0  0
    0.6090    0.5890   -0.3740 C   0  0  0  0  0  0  0  0  0  0  0  0
  1  2  1  0
  2  3  1  0
  3  4  2  0
  3 12  1  0
  4  5  1  0
  5  6  1  0
  6  7  1  0
  6 12  2  0
  7  8  2  0
  7 11  1  0
  8  9  1  0
  9 10  2  0
 10 11  1  0
M  END
