
     RDKit          3D

 12 13  0  0  0  0  0  0  0  0999 V2000
   -2.4230    1.8670    0.1630 O   0  0  0  0  0  0  0  0  0  0  0  0
   -2.4800    0.6280    0.0860 C   0  0  0  0  0  0  0  0  0  0  0  0
   -3.7140    0.0300    0.0760 O   0  0  0  0  0  0  0  0  0  0  0  0
   -1.2910   -0.2260    0.0050 C   0  0  0  0  0  0  0  0  0  0  0  0
   -1.2560   -1.6010   -0.0830 C   0  0  0  0  0  0  0  0  0  0  0  0
    0.0420   -2.0080   -0.1380 N   0  0  0  0  0  0  0  0  0  0  0  0
    0.8550   -0.9330   -0.0880 C   0  0  0  0  0  0  0  0  0  0  0  0
    2.2240   -0.7680   -0.1080 C   0  0  0  0  0  0  0  0  0  0  0  0
    2.7530    0.4970   -0.0390 C   0  0  0  0  0  0  0  0  0  0  0  0
    1.9620    1.6330    0.0500 C   0  0  0  0  0  0  0  0  0  0  0  0
    0.5960    1.4420    0.0690 C   0  0  0  0  0  0  0  0  0  0  0  0
    0.0350    0.1790    0.0010 C   0  0  0  0  0  0  0  0  0  0  0  0
  1  2  2  0
  2  3  1  0
  2  4  1  0
  4  5  2  0
  4 12  1  0
  5  6  1  0
  6  7  1  0
  7  8  2  0
  7 12  1  0
  8  9  1  0
  9 10  2  0
 10 11  1  0
 11 12  2  0
M  END
