
     RDKit          3D

 12 13  0  0  0  0  0  0  0  0999 V2000
    3.3730    0.7290    0.5520 O   0  0  0  0  0  0  0  0  0  0  0  0
    2.1600    0.0840    0.3170 C   0  0  0  0  0  0  0  0  0  0  0  0
    2.0910   -1.2820    0.1790 C   0  0  0  0  0  0  0  0  0  0  0  0
    0.8560   -1.8390   -0.0500 C   0  0  0  0  0  0  0  0  0  0  0  0
   -0.3110   -1.0900   -0.1470 C   0  0  0  0  0  0  0  0  0  0  0  0
   -1.4890   -1.6990   -0.3730 N   0  0  0  0  0  0  0  0  0  0  0  0
   -2.6400   -1.0110   -0.4730 C   0  0  0  0  0  0  0  0  0  0  0  0
   -2.6180    0.3610   -0.3410 C   0  0  0  0  0  0  0  0  0  0  0  0
   -1.4030    1.0190   -0.1050 C   0  0  0  0  0  0  0  0  0  0  0  0
   -1.3850    2.3820    0.0250 O   0  0  0  0  0  0  0  0  0  0  0  0
   -0.2420    0.2980   -0.0070 C   0  0  0  0  0  0  0  0  0  0  0  0
    1.0000    0.8630    0.2240 C   0  0  0  0  0  0  0  0  0  0  0  0
  1  2  1  0
  2  3  2  0
  2 12  1  0
  3  4  1  0
  4  5  2  0
  5  6  1  0
  5 11  1  0
  6  7  2  0
  7  8  1  0
  8  9  2  0
  9 10  1  0
  9 11  1  0
 11 12  2  0
M  END
