
     RDKit          3D

 23 25  0  0  0  0  0  0  0  0999 V2000
    4.7240    0.1310    2.9110 C   0  0  0  0  0  0  0  0  0  0  0  0
    4.1720    0.1540    1.5310 C   0  0  0  0  0  0  0  0  0  0  0  0
    2.8280    0.1460    1.3320 N   0  0  0  0  0  0  0  0  0  0  0  0
    2.3390    0.1670    0.0930 C   0  0  0  0  0  0  0  0  0  0  0  0
    0.9180    0.1600   -0.1830 N   0  0  0  0  0  0  0  0  0  0  0  0
    0.3890    1.2780   -0.9070 C   0  0  0  0  0  0  0  0  0  0  0  0
    0.2170   -0.9680    0.3050 C   0  0  0  0  0  0  0  0  0  0  0  0
   -1.2240   -0.9230    0.0010 C   0  0  0  0  0  0  0  0  0  0  0  0
   -2.1610   -1.9390    0.3460 C   0  0  0  0  0  0  0  0  0  0  0  0
   -3.4160   -1.7240   -0.0100 C   0  0  0  0  0  0  0  0  0  0  0  0
   -3.7500   -0.5540   -0.6830 C   0  0  0  0  0  0  0  0  0  0  0  0
   -5.0750   -0.1050   -1.1750 C   0  0  0  0  0  0  0  0  0  0  0  0
   -5.7180    0.6340   -0.1340 N   0  0  0  0  0  0  0  0  0  0  0  0
   -7.0280    1.1230   -0.5130 C   0  0  0  0  0  0  0  0  0  0  0  0
   -5.7470   -0.0700    1.1300 C   0  0  0  0  0  0  0  0  0  0  0  0
   -2.1860    0.2450   -0.7930 S   0  0  0  0  0  0  0  0  0  0  0  0
    3.1650    0.1980   -1.0090 C   0  0  0  0  0  0  0  0  0  0  0  0
    2.9190    0.2240   -2.3660 C   0  0  0  0  0  0  0  0  0  0  0  0
    4.1190    0.2480   -2.9780 N   0  0  0  0  0  0  0  0  0  0  0  0
    5.0850    0.2380   -2.0620 N   0  0  0  0  0  0  0  0  0  0  0  0
    4.5420    0.2070   -0.8410 C   0  0  0  0  0  0  0  0  0  0  0  0
    5.0170    0.1850    0.4540 C   0  0  0  0  0  0  0  0  0  0  0  0
    6.4970    0.1950    0.6310 C   0  0  0  0  0  0  0  0  0  0  0  0
  1  2  1  0
  2  3  2  0
  2 22  1  0
  3  4  1  0
  4  5  1  0
  4 17  2  0
  5  6  1  0
  5  7  1  0
  7  8  1  0
  8  9  2  0
  8 16  1  0
  9 10  1  0
 10 11  2  0
 11 12  1  0
 11 16  1  0
 12 13  1  0
 13 14  1  0
 13 15  1  0
 17 18  1  0
 17 21  1  0
 18 19  2  0
 19 20  1  0
 20 21  1  0
 21 22  2  0
 22 23  1  0
M  END
