
     RDKit          3D

 11 12  0  0  0  0  0  0  0  0999 V2000
   -2.5770   -0.3070    0.4590 C   0  0  0  0  0  0  0  0  0  0  0  0
   -1.1500   -0.4610    0.2400 N   0  0  0  0  0  0  0  0  0  0  0  0
   -0.6050   -1.6800    0.2750 C   0  0  0  0  0  0  0  0  0  0  0  0
    0.7200   -1.8100    0.0700 N   0  0  0  0  0  0  0  0  0  0  0  0
    1.5340   -0.7770   -0.1690 C   0  0  0  0  0  0  0  0  0  0  0  0
    2.9370   -0.9150   -0.3860 N   0  0  0  0  0  0  0  0  0  0  0  0
    1.0040    0.5040   -0.2130 C   0  0  0  0  0  0  0  0  0  0  0  0
    1.4940    1.7210   -0.4190 N   0  0  0  0  0  0  0  0  0  0  0  0
    0.4760    2.6170   -0.3430 C   0  0  0  0  0  0  0  0  0  0  0  0
   -0.6780    1.9690   -0.0870 N   0  0  0  0  0  0  0  0  0  0  0  0
   -0.4420    0.6660    0.0080 C   0  0  0  0  0  0  0  0  0  0  0  0
  1  2  1  0
  2  3  1  0
  2 11  1  0
  3  4  2  0
  4  5  1  0
  5  6  1  0
  5  7  2  0
  7  8  1  0
  7 11  1  0
  8  9  2  0
  9 10  1  0
 10 11  2  0
M  END
