
     RDKit          3D

 22 24  0  0  0  0  0  0  0  0999 V2000
    6.9950   -0.0690   -0.7910 C   0  0  0  0  0  0  0  0  0  0  0  0
    6.3270   -1.2820   -0.2970 C   0  0  0  0  0  0  0  0  0  0  0  0
    5.3130   -1.2550    0.5700 C   0  0  0  0  0  0  0  0  0  0  0  0
    4.8320    0.0490    1.0600 C   0  0  0  0  0  0  0  0  0  0  0  0
    3.4060    0.2850    0.7880 C   0  0  0  0  0  0  0  0  0  0  0  0
    2.0830    0.1900    1.9960 S   0  0  0  0  0  0  0  0  0  0  0  0
    0.7700    0.6260    0.7480 C   0  0  0  0  0  0  0  0  0  0  0  0
   -0.6010    0.7000    1.2090 N   0  0  0  0  0  0  0  0  0  0  0  0
   -1.4940    0.3040    0.3990 C   0  0  0  0  0  0  0  0  0  0  0  0
   -1.3560   -0.1880   -0.8570 N   0  0  0  0  0  0  0  0  0  0  0  0
   -2.5480   -0.4780   -1.3470 N   0  0  0  0  0  0  0  0  0  0  0  0
   -3.4350   -0.1670   -0.3930 C   0  0  0  0  0  0  0  0  0  0  0  0
   -4.8060   -0.2770   -0.3990 C   0  0  0  0  0  0  0  0  0  0  0  0
   -5.5600   -0.8060   -1.5740 C   0  0  0  0  0  0  0  0  0  0  0  0
   -5.5510    0.1030    0.6960 C   0  0  0  0  0  0  0  0  0  0  0  0
   -7.0410   -0.0220    0.6780 C   0  0  0  0  0  0  0  0  0  0  0  0
   -4.8670    0.5920    1.7810 C   0  0  0  0  0  0  0  0  0  0  0  0
   -3.5000    0.7060    1.7980 C   0  0  0  0  0  0  0  0  0  0  0  0
   -2.8270    0.3170    0.6940 N   0  0  0  0  0  0  0  0  0  0  0  0
    1.4320    0.7550   -0.2300 N   0  0  0  0  0  0  0  0  0  0  0  0
    2.7230    0.6180   -0.3500 C   0  0  0  0  0  0  0  0  0  0  0  0
    3.4570    0.8100   -1.6620 C   0  0  0  0  0  0  0  0  0  0  0  0
  1  2  1  0
  2  3  2  3
  3  4  1  0
  4  5  1  0
  5  6  1  0
  5 21  2  0
  6  7  1  0
  7  8  1  0
  7 20  2  0
  8  9  2  3
  9 10  1  0
  9 19  1  0
 10 11  1  0
 11 12  2  0
 12 13  1  0
 12 19  1  0
 13 14  1  0
 13 15  2  0
 15 16  1  0
 15 17  1  0
 17 18  2  0
 18 19  1  0
 20 21  1  0
 21 22  1  0
M  END
