
     RDKit          3D

 23 25  0  0  0  0  0  0  0  0999 V2000
   -4.0330   -0.5700   -0.5910 C   0  0  0  0  0  0  0  0  0  0  0  0
   -3.5810    0.8210   -0.3740 C   0  0  0  0  0  0  0  0  0  0  0  0
   -4.4370    1.9410   -0.4220 C   0  0  0  0  0  0  0  0  0  0  0  0
   -3.6400    2.9840   -0.1840 N   0  0  0  0  0  0  0  0  0  0  0  0
   -2.3960    2.6070    0.0010 N   0  0  0  0  0  0  0  0  0  0  0  0
   -1.2750    3.4790    0.2810 C   0  0  0  0  0  0  0  0  0  0  0  0
   -2.3160    1.2530   -0.1090 C   0  0  0  0  0  0  0  0  0  0  0  0
   -1.1130    0.5170    0.0410 N   0  0  0  0  0  0  0  0  0  0  0  0
   -1.0090   -0.8860   -0.0390 C   0  0  0  0  0  0  0  0  0  0  0  0
    0.3390   -1.4820   -0.0130 C   0  0  0  0  0  0  0  0  0  0  0  0
    0.5140   -2.8870   -0.0780 C   0  0  0  0  0  0  0  0  0  0  0  0
   -0.5710   -3.8670   -0.1670 C   0  0  0  0  0  0  0  0  0  0  0  0
    1.8500   -3.1650   -0.0440 C   0  0  0  0  0  0  0  0  0  0  0  0
    2.4020   -4.5540   -0.0950 C   0  0  0  0  0  0  0  0  0  0  0  0
    2.4720   -2.0090    0.0380 N   0  0  0  0  0  0  0  0  0  0  0  0
    1.5700   -0.9940    0.0570 N   0  0  0  0  0  0  0  0  0  0  0  0
    2.0720    0.3270    0.1370 C   0  0  0  0  0  0  0  0  0  0  0  0
    2.3080    1.0680   -0.9950 C   0  0  0  0  0  0  0  0  0  0  0  0
    2.8230    2.3490   -0.9020 C   0  0  0  0  0  0  0  0  0  0  0  0
    3.1010    2.8860    0.3340 C   0  0  0  0  0  0  0  0  0  0  0  0
    3.7680    4.5330    0.5480 S   0  0  0  0  0  0  0  0  0  0  0  0
    2.8610    2.1370    1.4550 C   0  0  0  0  0  0  0  0  0  0  0  0
    2.3530    0.8730    1.3690 C   0  0  0  0  0  0  0  0  0  0  0  0
  1  2  1  0
  2  3  1  0
  2  7  2  0
  3  4  2  0
  4  5  1  0
  5  6  1  0
  5  7  1  0
  7  8  1  0
  8  9  1  0
  9 10  1  0
 10 11  2  0
 10 16  1  0
 11 12  1  0
 11 13  1  0
 13 14  1  0
 13 15  2  0
 15 16  1  0
 16 17  1  0
 17 18  2  0
 17 23  1  0
 18 19  1  0
 19 20  2  0
 20 21  1  0
 20 22  1  0
 22 23  2  0
M  END
