
     RDKit          3D

 23 25  0  0  0  0  0  0  0  0999 V2000
    1.8540    2.9450   -1.3560 C   0  0  0  0  0  0  0  0  0  0  0  0
    2.6510    2.2630   -0.2920 C   0  0  0  0  0  0  0  0  0  0  0  0
    3.8320    2.7060    0.1970 C   0  0  0  0  0  0  0  0  0  0  0  0
    4.2380    1.8390    1.1270 N   0  0  0  0  0  0  0  0  0  0  0  0
    3.3350    0.8410    1.2480 N   0  0  0  0  0  0  0  0  0  0  0  0
    3.4780   -0.2580    2.1830 C   0  0  0  0  0  0  0  0  0  0  0  0
    2.3460    1.0760    0.3840 C   0  0  0  0  0  0  0  0  0  0  0  0
    1.1400    0.3280    0.1200 N   0  0  0  0  0  0  0  0  0  0  0  0
    0.8190   -0.8770    0.7570 C   0  0  0  0  0  0  0  0  0  0  0  0
   -0.5250   -1.4480    0.5450 C   0  0  0  0  0  0  0  0  0  0  0  0
   -0.9420   -2.6700    1.1330 C   0  0  0  0  0  0  0  0  0  0  0  0
   -0.0920   -3.5030    2.0030 C   0  0  0  0  0  0  0  0  0  0  0  0
   -2.2270   -2.9060    0.7500 C   0  0  0  0  0  0  0  0  0  0  0  0
   -3.1000   -4.0800    1.1210 C   0  0  0  0  0  0  0  0  0  0  0  0
   -2.5900   -1.9050   -0.0230 N   0  0  0  0  0  0  0  0  0  0  0  0
   -1.5620   -1.0240   -0.1460 N   0  0  0  0  0  0  0  0  0  0  0  0
   -1.8030    0.1310   -0.9560 C   0  0  0  0  0  0  0  0  0  0  0  0
   -2.2430    1.3220   -0.4260 C   0  0  0  0  0  0  0  0  0  0  0  0
   -2.5020    2.4340   -1.2130 C   0  0  0  0  0  0  0  0  0  0  0  0
   -2.3060    2.3230   -2.5760 C   0  0  0  0  0  0  0  0  0  0  0  0
   -2.6300    3.7340   -3.6120 S   0  0  0  0  0  0  0  0  0  0  0  0
   -1.8720    1.1550   -3.1210 C   0  0  0  0  0  0  0  0  0  0  0  0
   -1.6160    0.0530   -2.3290 C   0  0  0  0  0  0  0  0  0  0  0  0
  1  2  1  0
  2  3  1  0
  2  7  2  0
  3  4  2  0
  4  5  1  0
  5  6  1  0
  5  7  1  0
  7  8  1  0
  8  9  1  0
  9 10  1  0
 10 11  2  0
 10 16  1  0
 11 12  1  0
 11 13  1  0
 13 14  1  0
 13 15  2  0
 15 16  1  0
 16 17  1  0
 17 18  2  0
 17 23  1  0
 18 19  1  0
 19 20  2  0
 20 21  1  0
 20 22  1  0
 22 23  2  0
M  END
