
     RDKit          3D

 23 25  0  0  0  0  0  0  0  0999 V2000
    5.9780    1.0690   -1.9670 C   0  0  0  0  0  0  0  0  0  0  0  0
    5.1290    0.0760   -2.1200 C   0  0  0  0  0  0  0  0  0  0  0  0
    4.5540   -0.5530   -0.9460 C   0  0  0  0  0  0  0  0  0  0  0  0
    3.7000   -1.5420   -1.1320 C   0  0  0  0  0  0  0  0  0  0  0  0
    4.8500   -0.1360    0.4080 C   0  0  0  0  0  0  0  0  0  0  0  0
    6.0690    0.0320    0.9930 N   0  0  0  0  0  0  0  0  0  0  0  0
    5.9080    0.4500    2.2380 N   0  0  0  0  0  0  0  0  0  0  0  0
    4.6050    0.5580    2.4790 C   0  0  0  0  0  0  0  0  0  0  0  0
    3.9320    0.1960    1.3450 C   0  0  0  0  0  0  0  0  0  0  0  0
    2.4350    0.1890    1.1200 C   0  0  0  0  0  0  0  0  0  0  0  0
    1.6130    0.0160    0.3740 N   0  0  0  0  0  0  0  0  0  0  0  0
    0.3010    0.0950    0.4480 C   0  0  0  0  0  0  0  0  0  0  0  0
   -0.6000   -0.1880   -0.7330 C   0  0  0  0  0  0  0  0  0  0  0  0
   -1.9480   -0.2120   -0.3740 N   0  0  0  0  0  0  0  0  0  0  0  0
   -2.4100   -1.1580    0.5600 C   0  0  0  0  0  0  0  0  0  0  0  0
   -3.6330   -0.7290    1.3330 C   0  0  0  0  0  0  0  0  0  0  0  0
   -4.9030   -0.9560    0.5420 C   0  0  0  0  0  0  0  0  0  0  0  0
   -5.0920    0.0450   -0.4830 N   0  0  0  0  0  0  0  0  0  0  0  0
   -5.4940    1.3210    0.0190 C   0  0  0  0  0  0  0  0  0  0  0  0
   -4.0490    0.0870   -1.4550 C   0  0  0  0  0  0  0  0  0  0  0  0
   -2.8280    0.7750   -0.8400 C   0  0  0  0  0  0  0  0  0  0  0  0
   -0.1260    0.4610    1.6890 C   0  0  0  0  0  0  0  0  0  0  0  0
    1.3830    0.6650    2.6560 S   0  0  0  0  0  0  0  0  0  0  0  0
  1  2  2  0
  2  3  1  0
  3  4  2  0
  3  5  1  0
  5  6  1  0
  5  9  2  0
  6  7  1  0
  7  8  2  0
  8  9  1  0
  9 10  1  0
 10 11  2  0
 10 23  1  0
 11 12  1  0
 12 13  1  0
 12 22  2  0
 13 14  1  0
 14 15  1  0
 14 21  1  0
 15 16  1  0
 16 17  1  0
 17 18  1  0
 18 19  1  0
 18 20  1  0
 20 21  1  0
 22 23  1  0
M  END
