
     RDKit          3D

 11 12  0  0  0  0  0  0  0  0999 V2000
    2.6400   -0.1230    0.1110 C   0  0  0  0  0  0  0  0  0  0  0  0
    1.1920   -0.3670    0.0700 N   0  0  0  0  0  0  0  0  0  0  0  0
    0.7460   -1.6310    0.1260 C   0  0  0  0  0  0  0  0  0  0  0  0
   -0.5920   -1.8530    0.0880 N   0  0  0  0  0  0  0  0  0  0  0  0
   -1.4810   -0.8530   -0.0030 C   0  0  0  0  0  0  0  0  0  0  0  0
   -2.8700   -1.1330   -0.0400 N   0  0  0  0  0  0  0  0  0  0  0  0
   -1.0620    0.4460   -0.0620 C   0  0  0  0  0  0  0  0  0  0  0  0
   -1.6170    1.6600   -0.1540 N   0  0  0  0  0  0  0  0  0  0  0  0
   -0.6810    2.6260   -0.1740 C   0  0  0  0  0  0  0  0  0  0  0  0
    0.5170    2.0230   -0.0930 N   0  0  0  0  0  0  0  0  0  0  0  0
    0.3910    0.6810   -0.0210 C   0  0  0  0  0  0  0  0  0  0  0  0
  1  2  1  0
  2  3  1  0
  2 11  1  0
  3  4  2  0
  4  5  1  0
  5  6  1  0
  5  7  2  0
  7  8  1  0
  7 11  1  0
  8  9  2  0
  9 10  1  0
 10 11  2  0
M  END
