
     RDKit          3D

 23 25  0  0  0  0  0  0  0  0999 V2000
   -4.3260   -2.2380    0.8330 C   0  0  0  0  0  0  0  0  0  0  0  0
   -3.9720   -1.4060   -0.4130 C   0  0  1  0  0  0  0  0  0  0  0  0
   -5.1890   -1.0210   -1.1670 C   0  0  0  0  0  0  0  0  0  0  0  0
   -3.0640   -0.3530   -0.0390 N   0  0  0  0  0  0  0  0  0  0  0  0
   -1.7020   -0.5210    0.0790 C   0  0  0  0  0  0  0  0  0  0  0  0
   -0.9660   -1.7620   -0.3020 C   0  0  0  0  0  0  0  0  0  0  0  0
    0.2620   -1.3670   -1.5530 S   0  0  0  0  0  0  0  0  0  0  0  0
    1.7890   -0.9150   -0.7400 C   0  0  0  0  0  0  0  0  0  0  0  0
    2.9490   -0.4120   -1.2020 N   0  0  0  0  0  0  0  0  0  0  0  0
    3.8450   -0.2740   -0.1830 C   0  0  0  0  0  0  0  0  0  0  0  0
    5.2340    0.2070   -0.1760 C   0  0  1  0  0  0  0  0  0  0  0  0
    5.4030    1.6440   -0.5180 C   0  0  0  0  0  0  0  0  0  0  0  0
    5.8680   -0.0280    1.1900 C   0  0  0  0  0  0  0  0  0  0  0  0
    6.0740   -0.6370   -1.1510 C   0  0  0  0  0  0  0  0  0  0  0  0
    3.2000   -0.7050    0.9330 N   0  0  0  0  0  0  0  0  0  0  0  0
    1.9990   -1.0780    0.6090 N   0  0  0  0  0  0  0  0  0  0  0  0
   -1.1570    0.6160    0.4830 N   0  0  0  0  0  0  0  0  0  0  0  0
   -2.1500    1.5230    0.6280 C   0  0  0  0  0  0  0  0  0  0  0  0
   -2.1780    2.8620    1.0180 C   0  0  0  0  0  0  0  0  0  0  0  0
   -3.3420    3.5640    1.0850 C   0  0  0  0  0  0  0  0  0  0  0  0
   -4.5130    2.9180    0.7510 C   0  0  0  0  0  0  0  0  0  0  0  0
   -4.5300    1.5920    0.3550 C   0  0  0  0  0  0  0  0  0  0  0  0
   -3.3380    0.9100    0.3000 C   0  0  0  0  0  0  0  0  0  0  0  0
  2  1  1  1
  2  3  1  0
  2  4  1  0
  4  5  1  0
  4 23  1  0
  5  6  1  0
  5 17  2  0
  6  7  1  0
  7  8  1  0
  8  9  2  0
  8 16  1  0
  9 10  1  0
 10 11  1  0
 10 15  2  0
 11 12  1  6
 11 13  1  0
 11 14  1  0
 15 16  1  0
 17 18  1  0
 18 19  2  0
 18 23  1  0
 19 20  1  0
 20 21  2  0
 21 22  1  0
 22 23  2  0
M  END
