
     RDKit          3D

 19 20  0  0  0  0  0  0  0  0999 V2000
   -1.6860    0.4300   -2.8740 C   0  0  0  0  0  0  0  0  0  0  0  0
   -0.8970    0.2260   -1.5790 C   0  0  0  0  0  0  0  0  0  0  0  0
   -1.8040   -0.1010   -0.4750 C   0  0  0  0  0  0  0  0  0  0  0  0
   -3.1080   -0.1910   -0.6400 C   0  0  0  0  0  0  0  0  0  0  0  0
   -4.0680   -0.5130    0.4180 C   0  0  0  0  0  0  0  0  0  0  0  0
   -3.5150   -0.7400    1.7060 N   0  0  0  0  0  0  0  0  0  0  0  0
   -2.1240   -0.6310    1.8160 C   0  0  0  0  0  0  0  0  0  0  0  0
   -1.2750   -0.3400    0.8540 C   0  0  0  0  0  0  0  0  0  0  0  0
    0.1720   -0.2510    1.0770 C   0  0  0  0  0  0  0  0  0  0  0  0
    0.6160   -0.4610    2.2400 O   0  0  0  0  0  0  0  0  0  0  0  0
    1.0790    0.0480    0.1040 O   0  0  0  0  0  0  0  0  0  0  0  0
    2.4640    0.1370    0.3010 C   0  0  2  0  0  0  0  0  0  0  0  0
    3.0700   -1.1570    0.8020 C   0  0  0  0  0  0  0  0  0  0  0  0
    2.8600    1.2560    1.1190 N   0  0  0  0  0  0  0  0  0  0  0  0
    4.2030    1.5580    0.7110 C   0  0  0  0  0  0  0  0  0  0  0  0
    5.1060    2.1530    1.3540 O   0  0  0  0  0  0  0  0  0  0  0  0
    4.3820    1.0510   -0.6260 N   0  0  0  0  0  0  0  0  0  0  0  0
    3.1390    0.4550   -0.9890 C   0  0  0  0  0  0  0  0  0  0  0  0
    2.7270    0.2540   -2.1600 O   0  0  0  0  0  0  0  0  0  0  0  0
  1  2  1  0
  2  3  1  0
  3  4  2  0
  3  8  1  0
  4  5  1  0
  5  6  1  0
  6  7  1  0
  7  8  2  0
  8  9  1  0
  9 10  2  0
  9 11  1  0
 11 12  1  0
 12 13  1  1
 12 14  1  0
 12 18  1  0
 14 15  1  0
 15 16  2  0
 15 17  1  0
 17 18  1  0
 18 19  2  0
M  CHG  1   6   1
M  END
