
     RDKit          3D

 19 20  0  0  0  0  0  0  0  0999 V2000
   -3.3720    2.1720    0.1780 C   0  0  0  0  0  0  0  0  0  0  0  0
   -2.7080    1.3770   -0.9580 C   0  0  0  0  0  0  0  0  0  0  0  0
   -2.2130    0.1540   -0.4480 N   0  0  0  0  0  0  0  0  0  0  0  0
   -0.7980   -0.0190   -0.3580 C   0  0  0  0  0  0  0  0  0  0  0  0
    0.1180    0.6970   -1.0730 C   0  0  0  0  0  0  0  0  0  0  0  0
    1.4970    0.5160   -0.9720 C   0  0  0  0  0  0  0  0  0  0  0  0
    1.9830   -0.4290   -0.1130 C   0  0  0  0  0  0  0  0  0  0  0  0
    3.3560   -0.5970   -0.0230 O   0  0  0  0  0  0  0  0  0  0  0  0
    4.2580    0.1580   -0.7710 C   0  0  0  0  0  0  0  0  0  0  0  0
    5.6410   -0.2380   -0.4690 C   0  0  0  0  0  0  0  0  0  0  0  0
    6.7470    0.3820   -1.1050 N   0  0  0  0  0  0  0  0  0  0  0  0
    5.8500   -1.1430    0.3680 O   0  0  0  0  0  0  0  0  0  0  0  0
    1.0930   -1.1750    0.6280 C   0  0  0  0  0  0  0  0  0  0  0  0
    1.5900   -2.1340    1.5000 O   0  0  0  0  0  0  0  0  0  0  0  0
   -0.2740   -0.9850    0.5180 C   0  0  0  0  0  0  0  0  0  0  0  0
   -1.1490   -1.7490    1.2770 O   0  0  0  0  0  0  0  0  0  0  0  0
   -2.4820   -1.2620    1.4400 C   0  0  0  0  0  0  0  0  0  0  0  0
   -2.9800   -0.9660    0.0190 C   0  0  1  0  0  0  0  0  0  0  0  0
   -4.3710   -0.8870    0.0430 N   0  0  0  0  0  0  0  0  0  0  0  0
  1  2  1  0
  2  3  1  0
  3  4  1  0
  3 18  1  0
  4  5  2  0
  4 15  1  0
  5  6  1  0
  6  7  2  0
  7  8  1  0
  7 13  1  0
  8  9  1  0
  9 10  1  0
 10 11  1  0
 10 12  2  0
 13 14  1  0
 13 15  2  0
 15 16  1  0
 16 17  1  0
 17 18  1  0
 18 19  1  1
M  CHG  1  19   1
M  END
