
     RDKit          3D

 18 20  0  0  0  0  0  0  0  0999 V2000
   -6.1750    0.6150   -1.9470 Cl  0  0  0  0  0  0  0  0  0  0  0  0
   -4.9570    0.2990   -0.7220 C   0  0  0  0  0  0  0  0  0  0  0  0
   -5.2890   -0.4170    0.4240 C   0  0  0  0  0  0  0  0  0  0  0  0
   -4.2930   -0.6340    1.3500 C   0  0  0  0  0  0  0  0  0  0  0  0
   -2.9890   -0.1860    1.2100 C   0  0  0  0  0  0  0  0  0  0  0  0
   -2.6690    0.5190    0.0770 C   0  0  0  0  0  0  0  0  0  0  0  0
   -1.3590    0.9900   -0.1770 N   0  0  0  0  0  0  0  0  0  0  0  0
   -0.1630    0.2890    0.1050 C   0  0  0  0  0  0  0  0  0  0  0  0
    1.1370    0.7750   -0.1480 C   0  0  0  0  0  0  0  0  0  0  0  0
    2.0360   -0.1990    0.2190 C   0  0  0  0  0  0  0  0  0  0  0  0
    3.4960   -0.1570    0.1440 C   0  0  0  0  0  0  0  0  0  0  0  0
    4.3010    0.8630   -0.3100 C   0  0  0  0  0  0  0  0  0  0  0  0
    5.6010    0.4270   -0.1810 C   0  0  0  0  0  0  0  0  0  0  0  0
    5.5950   -0.8180    0.3350 N   0  0  0  0  0  0  0  0  0  0  0  0
    4.3270   -1.1820    0.5360 C   0  0  0  0  0  0  0  0  0  0  0  0
    1.2810   -1.2090    0.6670 N   0  0  0  0  0  0  0  0  0  0  0  0
   -0.0030   -0.9350    0.6040 N   0  0  0  0  0  0  0  0  0  0  0  0
   -3.6730    0.7530   -0.8830 C   0  0  0  0  0  0  0  0  0  0  0  0
  1  2  1  0
  2  3  2  0
  2 18  1  0
  3  4  1  0
  4  5  2  0
  5  6  1  0
  6  7  1  0
  6 18  2  0
  7  8  1  0
  8  9  2  0
  8 17  1  0
  9 10  1  0
 10 11  1  0
 10 16  2  0
 11 12  1  0
 11 15  2  0
 12 13  2  0
 13 14  1  0
 14 15  1  0
 16 17  1  0
M  END
