
     RDKit          3D

 19 21  0  0  0  0  0  0  0  0999 V2000
   -5.1420    1.7370   -0.5100 N   0  0  0  0  0  0  0  0  0  0  0  0
   -4.2540    0.6600   -0.1750 C   0  0  0  0  0  0  0  0  0  0  0  0
   -4.6240   -0.6070    0.2070 C   0  0  0  0  0  0  0  0  0  0  0  0
   -3.4610   -1.3200    0.4350 C   0  0  0  0  0  0  0  0  0  0  0  0
   -2.3980   -0.4820    0.1900 C   0  0  0  0  0  0  0  0  0  0  0  0
   -0.9730   -0.8190    0.3050 C   0  0  0  0  0  0  0  0  0  0  0  0
   -0.4290   -2.0190    0.6750 C   0  0  0  0  0  0  0  0  0  0  0  0
    0.9050   -1.8720    0.6430 N   0  0  0  0  0  0  0  0  0  0  0  0
    1.2540   -0.6540    0.2750 N   0  0  0  0  0  0  0  0  0  0  0  0
    2.5820   -0.1610    0.1370 C   0  0  0  0  0  0  0  0  0  0  0  0
    2.9780    1.0580    0.6340 C   0  0  0  0  0  0  0  0  0  0  0  0
    4.2810    1.5380    0.4970 C   0  0  0  0  0  0  0  0  0  0  0  0
    4.7420    3.1110    1.1530 Cl  0  0  0  0  0  0  0  0  0  0  0  0
    5.1980    0.7470   -0.1660 C   0  0  0  0  0  0  0  0  0  0  0  0
    4.8330   -0.4870   -0.6800 C   0  0  0  0  0  0  0  0  0  0  0  0
    3.5320   -0.9280   -0.5230 C   0  0  0  0  0  0  0  0  0  0  0  0
    3.0410   -2.4840   -1.1610 Cl  0  0  0  0  0  0  0  0  0  0  0  0
    0.1050    0.0110    0.0620 C   0  0  0  0  0  0  0  0  0  0  0  0
   -2.9180    0.6970   -0.1740 N   0  0  0  0  0  0  0  0  0  0  0  0
  1  2  1  0
  2  3  2  0
  2 19  1  0
  3  4  1  0
  4  5  2  0
  5  6  1  0
  5 19  1  0
  6  7  1  0
  6 18  2  0
  7  8  2  0
  8  9  1  0
  9 10  1  0
  9 18  1  0
 10 11  2  0
 10 16  1  0
 11 12  1  0
 12 13  1  0
 12 14  2  0
 14 15  1  0
 15 16  2  0
 16 17  1  0
M  END
