
     RDKit          3D

 19 21  0  0  0  0  0  0  0  0999 V2000
    5.3710   -0.7250    0.0490 N   0  0  0  0  0  0  0  0  0  0  0  0
    4.2100   -0.2030   -0.1170 C   0  0  0  0  0  0  0  0  0  0  0  0
    4.0060    1.0800   -0.4140 N   0  0  0  0  0  0  0  0  0  0  0  0
    2.6680    1.2430   -0.5060 C   0  0  0  0  0  0  0  0  0  0  0  0
    1.9010    2.3520   -0.7880 C   0  0  0  0  0  0  0  0  0  0  0  0
    0.5350    2.1950   -0.8090 C   0  0  0  0  0  0  0  0  0  0  0  0
   -0.0960    0.9700   -0.5590 C   0  0  0  0  0  0  0  0  0  0  0  0
   -1.5200    0.8830   -0.6320 N   0  0  0  0  0  0  0  0  0  0  0  0
   -2.3150   -0.0780    0.0280 C   0  0  0  0  0  0  0  0  0  0  0  0
   -1.9320   -0.7110    1.1780 C   0  0  0  0  0  0  0  0  0  0  0  0
   -2.7550   -1.6580    1.7420 C   0  0  0  0  0  0  0  0  0  0  0  0
   -2.2950   -2.4890    3.2130 Cl  0  0  0  0  0  0  0  0  0  0  0  0
   -3.9610   -1.9650    1.1460 C   0  0  0  0  0  0  0  0  0  0  0  0
   -4.3610   -1.3300   -0.0200 C   0  0  0  0  0  0  0  0  0  0  0  0
   -5.8850   -1.7100   -0.7820 Cl  0  0  0  0  0  0  0  0  0  0  0  0
   -3.5400   -0.3950   -0.5700 C   0  0  0  0  0  0  0  0  0  0  0  0
    0.6840   -0.1220   -0.2820 C   0  0  0  0  0  0  0  0  0  0  0  0
    2.0790    0.0230   -0.2570 C   0  0  0  0  0  0  0  0  0  0  0  0
    3.0570   -0.8760   -0.0140 N   0  0  0  0  0  0  0  0  0  0  0  0
  1  2  2  0
  2  3  1  0
  2 19  1  0
  3  4  1  0
  4  5  2  0
  4 18  1  0
  5  6  1  0
  6  7  2  0
  7  8  1  0
  7 17  1  0
  8  9  1  0
  9 10  2  0
  9 16  1  0
 10 11  1  0
 11 12  1  0
 11 13  2  0
 13 14  1  0
 14 15  1  0
 14 16  2  0
 17 18  2  0
 18 19  1  0
M  END
