
     RDKit          3D

 28 31  0  0  0  0  0  0  0  0999 V2000
   -4.2730   -3.4540   -1.0980 C   0  0  0  0  0  0  0  0  0  0  0  0
   -2.9540   -2.8290   -0.8770 C   0  0  0  0  0  0  0  0  0  0  0  0
   -1.7680   -3.4590   -1.1570 C   0  0  0  0  0  0  0  0  0  0  0  0
   -0.5610   -2.8300   -0.9330 C   0  0  0  0  0  0  0  0  0  0  0  0
   -0.4760   -1.5520   -0.4230 C   0  0  0  0  0  0  0  0  0  0  0  0
    0.8270   -0.9190   -0.2000 C   0  0  0  0  0  0  0  0  0  0  0  0
    0.9900    0.4310   -0.3120 C   0  0  0  0  0  0  0  0  0  0  0  0
    2.2380    1.0070   -0.0960 C   0  0  0  0  0  0  0  0  0  0  0  0
    3.3480    0.2670    0.2330 C   0  0  0  0  0  0  0  0  0  0  0  0
    4.6670    0.8980    0.4540 C   0  0  0  0  0  0  0  0  0  0  0  0
    4.7560    2.2040    0.3230 C   0  0  0  0  0  0  0  0  0  0  0  0
    5.9790    3.0000    0.5050 C   0  0  0  0  0  0  0  0  0  0  0  0
    7.3260    2.1670    0.9020 S   0  0  0  0  0  0  0  0  0  0  0  0
    8.8750    2.8800    1.1660 O   0  0  0  0  0  0  0  0  0  0  0  0
    7.0230    0.3980    1.0380 C   0  0  0  0  0  0  0  0  0  0  0  0
    5.7790    0.0170    0.8040 C   0  0  0  0  0  0  0  0  0  0  0  0
    3.1470   -1.0910    0.3370 C   0  0  0  0  0  0  0  0  0  0  0  0
    1.9220   -1.6910    0.1290 C   0  0  0  0  0  0  0  0  0  0  0  0
   -1.6730   -0.9150   -0.1400 C   0  0  0  0  0  0  0  0  0  0  0  0
   -2.8920   -1.5390   -0.3620 C   0  0  0  0  0  0  0  0  0  0  0  0
   -4.1660   -0.8620   -0.0730 C   0  0  0  0  0  0  0  0  0  0  0  0
   -4.0400    0.4490    0.4730 N   0  0  0  0  0  0  0  0  0  0  0  0
   -3.4540    0.6380    1.7700 C   0  0  0  0  0  0  0  0  0  0  0  0
   -4.4880    1.5850   -0.2520 C   0  0  0  0  0  0  0  0  0  0  0  0
   -5.0750    1.6400   -1.5040 C   0  0  0  0  0  0  0  0  0  0  0  0
   -5.3400    2.9340   -1.8050 N   0  0  0  0  0  0  0  0  0  0  0  0
   -4.9380    3.6730   -0.7860 N   0  0  0  0  0  0  0  0  0  0  0  0
   -4.4290    2.8820    0.1430 N   0  0  0  0  0  0  0  0  0  0  0  0
  1  2  1  0
  2  3  2  0
  2 20  1  0
  3  4  1  0
  4  5  2  0
  5  6  1  0
  5 19  1  0
  6  7  2  0
  6 18  1  0
  7  8  1  0
  8  9  2  0
  9 10  1  0
  9 17  1  0
 10 11  2  0
 10 16  1  0
 11 12  1  0
 12 13  2  0
 13 14  1  0
 13 15  1  0
 15 16  2  0
 17 18  2  0
 19 20  2  0
 20 21  1  0
 21 22  1  0
 22 23  1  0
 22 24  1  0
 24 25  1  0
 24 28  2  0
 25 26  2  0
 26 27  1  0
 27 28  1  0
M  END
