
     RDKit          3D

 28 31  0  0  0  0  0  0  0  0999 V2000
    6.2700    1.8470    1.1240 C   0  0  0  0  0  0  0  0  0  0  0  0
    5.4960    1.5600   -0.1080 C   0  0  0  0  0  0  0  0  0  0  0  0
    4.5790    0.5890   -0.1390 C   0  0  0  0  0  0  0  0  0  0  0  0
    3.8200    0.2970   -1.3230 C   0  0  0  0  0  0  0  0  0  0  0  0
    2.9270   -0.6320   -1.3900 C   0  0  0  0  0  0  0  0  0  0  0  0
    2.5660   -1.4900   -0.3230 N   0  0  0  0  0  0  0  0  0  0  0  0
    3.4380   -2.5870    0.0080 C   0  0  0  0  0  0  0  0  0  0  0  0
    1.3350   -1.2530    0.3360 C   0  0  0  0  0  0  0  0  0  0  0  0
    0.1470   -1.2870   -0.4390 C   0  0  0  0  0  0  0  0  0  0  0  0
   -1.0550   -1.0650    0.1740 C   0  0  0  0  0  0  0  0  0  0  0  0
   -1.1160   -0.8110    1.5270 C   0  0  0  0  0  0  0  0  0  0  0  0
    0.0300   -0.7720    2.3050 C   0  0  0  0  0  0  0  0  0  0  0  0
    1.2600   -1.0010    1.6660 C   0  0  0  0  0  0  0  0  0  0  0  0
    2.4480   -0.9430    2.5330 C   0  0  0  0  0  0  0  0  0  0  0  0
   -2.4670   -0.5800    2.1160 C   0  0  0  0  0  0  0  0  0  0  0  0
   -3.3550    0.1490    1.1670 C   0  0  0  0  0  0  0  0  0  0  0  0
   -4.2620    1.0620    1.5550 N   0  0  0  0  0  0  0  0  0  0  0  0
   -5.0590    1.7080    0.6510 C   0  0  0  0  0  0  0  0  0  0  0  0
   -5.9030    2.5600    1.0240 O   0  0  0  0  0  0  0  0  0  0  0  0
   -4.9640    1.4500   -0.6930 C   0  0  0  0  0  0  0  0  0  0  0  0
   -5.7580    2.0910   -1.6150 C   0  0  0  0  0  0  0  0  0  0  0  0
   -5.6400    1.8110   -2.9490 N   0  0  0  0  0  0  0  0  0  0  0  0
   -4.7410    0.9010   -3.3690 C   0  0  0  0  0  0  0  0  0  0  0  0
   -4.6440    0.6080   -4.9750 S   0  0  0  0  0  0  0  0  0  0  0  0
   -3.9630    0.2730   -2.4700 N   0  0  0  0  0  0  0  0  0  0  0  0
   -4.0510    0.5230   -1.1370 C   0  0  0  0  0  0  0  0  0  0  0  0
   -3.2780   -0.0950   -0.1970 C   0  0  0  0  0  0  0  0  0  0  0  0
   -2.2790   -1.1010   -0.6270 C   0  0  0  0  0  0  0  0  0  0  0  0
  1  2  1  0
  2  3  2  3
  3  4  1  0
  4  5  2  3
  5  6  1  0
  6  7  1  0
  6  8  1  0
  8  9  2  0
  8 13  1  0
  9 10  1  0
 10 11  2  0
 10 28  1  0
 11 12  1  0
 11 15  1  0
 12 13  2  0
 13 14  1  0
 15 16  1  0
 16 17  1  0
 16 27  2  0
 17 18  1  0
 18 19  2  0
 18 20  1  0
 20 21  2  0
 20 26  1  0
 21 22  1  0
 22 23  1  0
 23 24  2  0
 23 25  1  0
 25 26  2  0
 26 27  1  0
 27 28  1  0
M  END
