
     RDKit          3D

 27 30  0  0  0  0  0  0  0  0999 V2000
    7.5130    0.5810   -0.3940 C   0  0  0  0  0  0  0  0  0  0  0  0
    6.8060   -0.4680    0.3270 N   0  0  0  0  0  0  0  0  0  0  0  0
    6.0650   -1.4730   -0.3040 C   0  0  0  0  0  0  0  0  0  0  0  0
    4.8150   -1.6600   -0.5200 C   0  0  0  0  0  0  0  0  0  0  0  0
    3.7350   -0.7860   -0.1240 C   0  0  0  0  0  0  0  0  0  0  0  0
    3.9640    0.4010    0.5550 C   0  0  0  0  0  0  0  0  0  0  0  0
    2.9600    1.2530    0.9430 C   0  0  0  0  0  0  0  0  0  0  0  0
    3.2780    2.5010    1.6630 C   0  0  0  0  0  0  0  0  0  0  0  0
    1.6630    0.9050    0.6400 C   0  0  0  0  0  0  0  0  0  0  0  0
    1.3360   -0.2450   -0.0260 C   0  0  0  0  0  0  0  0  0  0  0  0
    0.0180   -0.6350   -0.3600 N   0  0  0  0  0  0  0  0  0  0  0  0
   -1.1350    0.0840   -0.0400 C   0  0  0  0  0  0  0  0  0  0  0  0
   -1.0990    1.1580    0.5850 O   0  0  0  0  0  0  0  0  0  0  0  0
   -2.4740   -0.4010   -0.4320 C   0  0  0  0  0  0  0  0  0  0  0  0
   -2.7550   -1.5580   -1.1250 N   0  0  0  0  0  0  0  0  0  0  0  0
   -4.1390   -1.5250   -1.2210 C   0  0  0  0  0  0  0  0  0  0  0  0
   -5.5810   -2.4230   -1.8590 S   0  0  0  0  0  0  0  0  0  0  0  0
   -6.7580   -1.1440   -1.2170 C   0  0  0  0  0  0  0  0  0  0  0  0
   -5.8990   -0.2460   -0.6270 C   0  0  0  0  0  0  0  0  0  0  0  0
   -4.6340   -0.5310   -0.6870 N   0  0  0  0  0  0  0  0  0  0  0  0
   -3.6440    0.2530   -0.1510 C   0  0  0  0  0  0  0  0  0  0  0  0
   -3.9810    1.5270    0.5630 C   0  0  0  0  0  0  0  0  0  0  0  0
   -5.3530    1.2650    1.2020 C   0  0  2  0  0  0  0  0  0  0  0  0
   -5.2560   -0.0040    2.0220 C   0  0  0  0  0  0  0  0  0  0  0  0
   -6.3230    1.0300    0.0670 C   0  0  0  0  0  0  0  0  0  0  0  0
    2.4050   -1.0870   -0.4030 C   0  0  0  0  0  0  0  0  0  0  0  0
    2.0220   -2.3120   -1.1090 C   0  0  0  0  0  0  0  0  0  0  0  0
  1  2  1  0
  2  3  1  0
  3  4  2  3
  4  5  1  0
  5  6  2  0
  5 26  1  0
  6  7  1  0
  7  8  1  0
  7  9  2  0
  9 10  1  0
 10 11  1  0
 10 26  2  0
 11 12  1  0
 12 13  2  0
 12 14  1  0
 14 15  1  0
 14 21  2  0
 15 16  2  0
 16 17  1  0
 16 20  1  0
 17 18  1  0
 18 19  2  0
 19 20  1  0
 19 25  1  0
 20 21  1  0
 21 22  1  0
 22 23  1  0
 23 24  1  1
 23 25  1  0
 26 27  1  0
M  END
