
     RDKit          3D

 28 31  0  0  0  0  0  0  0  0999 V2000
   -3.1600    2.7820   -0.6290 C   0  0  0  0  0  0  0  0  0  0  0  0
   -3.6590    1.9470   -1.7920 C   0  0  0  0  0  0  0  0  0  0  0  0
   -4.3370    0.7490   -1.3820 N   0  0  0  0  0  0  0  0  0  0  0  0
   -3.7400   -0.2880   -0.6390 C   0  0  0  0  0  0  0  0  0  0  0  0
   -2.4170   -0.1750   -0.2860 C   0  0  0  0  0  0  0  0  0  0  0  0
   -1.7380   -1.1600    0.4510 C   0  0  0  0  0  0  0  0  0  0  0  0
   -0.3690   -0.9870    0.7680 N   0  0  0  0  0  0  0  0  0  0  0  0
    0.3700   -1.7420    1.7080 C   0  0  0  0  0  0  0  0  0  0  0  0
   -0.1170   -2.7300    2.4660 N   0  0  0  0  0  0  0  0  0  0  0  0
    0.6290   -3.4140    3.3420 C   0  0  0  0  0  0  0  0  0  0  0  0
    1.9840   -3.0850    3.4770 C   0  0  0  0  0  0  0  0  0  0  0  0
    2.4580   -2.0620    2.6820 C   0  0  0  0  0  0  0  0  0  0  0  0
    4.0530   -1.6180    2.7880 S   0  0  0  0  0  0  0  0  0  0  0  0
    1.6880   -1.3940    1.8130 N   0  0  0  0  0  0  0  0  0  0  0  0
    2.2610   -0.3450    1.0270 C   0  0  0  0  0  0  0  0  0  0  0  0
    1.9760    0.9730    1.3090 C   0  0  0  0  0  0  0  0  0  0  0  0
    2.5280    2.0100    0.5500 C   0  0  0  0  0  0  0  0  0  0  0  0
    3.3670    1.7510   -0.4970 C   0  0  0  0  0  0  0  0  0  0  0  0
    3.6580    0.4330   -0.7870 C   0  0  0  0  0  0  0  0  0  0  0  0
    3.1080   -0.5990   -0.0300 C   0  0  0  0  0  0  0  0  0  0  0  0
    4.5760    0.1950   -1.9330 C   0  0  0  0  0  0  0  0  0  0  0  0
    5.5970    1.1330   -1.8320 O   0  0  0  0  0  0  0  0  0  0  0  0
    5.1920    2.4260   -2.0520 C   0  0  0  0  0  0  0  0  0  0  0  0
    3.9620    2.8390   -1.3140 C   0  0  0  0  0  0  0  0  0  0  0  0
   -2.4550   -2.2660    0.8170 C   0  0  0  0  0  0  0  0  0  0  0  0
   -3.7950   -2.3580    0.4480 C   0  0  0  0  0  0  0  0  0  0  0  0
   -4.4620   -1.3980   -0.2720 C   0  0  0  0  0  0  0  0  0  0  0  0
   -5.8940   -1.5780   -0.6240 C   0  0  0  0  0  0  0  0  0  0  0  0
  1  2  1  0
  2  3  1  0
  3  4  1  0
  4  5  2  0
  4 27  1  0
  5  6  1  0
  6  7  1  0
  6 25  2  0
  7  8  1  0
  8  9  2  0
  8 14  1  0
  9 10  1  0
 10 11  2  0
 11 12  1  0
 12 13  2  0
 12 14  1  0
 14 15  1  0
 15 16  2  0
 15 20  1  0
 16 17  1  0
 17 18  2  0
 18 19  1  0
 18 24  1  0
 19 20  2  0
 19 21  1  0
 21 22  1  0
 22 23  1  0
 23 24  1  0
 25 26  1  0
 26 27  2  0
 27 28  1  0
M  END
