
     RDKit          3D

 28 31  0  0  0  0  0  0  0  0999 V2000
   -4.0080    2.5190    2.4100 C   0  0  0  0  0  0  0  0  0  0  0  0
   -3.3250    1.8970    1.3730 O   0  0  0  0  0  0  0  0  0  0  0  0
   -3.3430    0.5600    1.0370 C   0  0  0  0  0  0  0  0  0  0  0  0
   -4.0560   -0.3350    1.7760 C   0  0  0  0  0  0  0  0  0  0  0  0
   -4.0890   -1.6850    1.4380 C   0  0  0  0  0  0  0  0  0  0  0  0
   -4.8530   -2.6060    2.2220 N   0  0  0  0  0  0  0  0  0  0  0  0
   -3.3720   -2.0650    0.3290 C   0  0  0  0  0  0  0  0  0  0  0  0
   -3.3590   -3.5010   -0.0470 C   0  0  0  0  0  0  0  0  0  0  0  0
   -2.6470   -1.1970   -0.4360 C   0  0  0  0  0  0  0  0  0  0  0  0
   -2.6070    0.1310   -0.1100 C   0  0  0  0  0  0  0  0  0  0  0  0
   -1.7810    1.1330   -0.7430 C   0  0  2  0  0  0  0  0  0  0  0  0
   -1.7790    1.0820   -2.2850 C   0  0  0  0  0  0  0  0  0  0  0  0
   -1.4010    2.5450   -2.6160 C   0  0  0  0  0  0  0  0  0  0  0  0
   -0.0760    2.9140   -2.0360 C   0  0  0  0  0  0  0  0  0  0  0  0
    0.2090    2.3740   -0.6590 C   0  0  0  0  0  0  0  0  0  0  0  0
   -0.3410    1.0510   -0.4180 N   0  0  0  0  0  0  0  0  0  0  0  0
    0.4120    0.1300   -1.1790 C   0  0  0  0  0  0  0  0  0  0  0  0
    1.7110   -0.2480   -0.6030 C   0  0  0  0  0  0  0  0  0  0  0  0
    2.0710   -1.2200    0.3020 C   0  0  0  0  0  0  0  0  0  0  0  0
    3.3020   -1.3990    0.5850 N   0  0  0  0  0  0  0  0  0  0  0  0
    4.2990   -0.7610    0.1140 C   0  0  0  0  0  0  0  0  0  0  0  0
    5.7160   -0.7860    0.2600 C   0  0  0  0  0  0  0  0  0  0  0  0
    6.2560   -1.7120    1.1190 C   0  0  0  0  0  0  0  0  0  0  0  0
    7.6060   -1.7950    1.3390 C   0  0  0  0  0  0  0  0  0  0  0  0
    8.4460   -0.9280    0.6800 C   0  0  0  0  0  0  0  0  0  0  0  0
    7.9060   -0.0370   -0.1540 N   0  0  0  0  0  0  0  0  0  0  0  0
    6.5630    0.0700   -0.3920 C   0  0  0  0  0  0  0  0  0  0  0  0
    3.3710    0.4050   -1.0200 S   0  0  0  0  0  0  0  0  0  0  0  0
  1  2  1  0
  2  3  1  0
  3  4  2  0
  3 10  1  0
  4  5  1  0
  5  6  1  0
  5  7  2  0
  7  8  1  0
  7  9  1  0
  9 10  2  0
 11 10  1  1
 11 12  1  0
 11 16  1  0
 12 13  1  0
 13 14  1  0
 14 15  1  0
 15 16  1  0
 16 17  1  0
 17 18  1  0
 18 19  2  0
 18 28  1  0
 19 20  1  0
 20 21  2  0
 21 22  1  0
 21 28  1  0
 22 23  2  0
 22 27  1  0
 23 24  1  0
 24 25  2  0
 25 26  1  0
 26 27  2  0
M  END
