
     RDKit          3D

 18 18  0  0  0  0  0  0  0  0999 V2000
    3.6150   -2.3880   -0.0950 C   0  0  0  0  0  0  0  0  0  0  0  0
    3.0530   -1.6120   -1.2640 C   0  0  0  0  0  0  0  0  0  0  0  0
    2.1000   -0.6700   -0.9490 O   0  0  0  0  0  0  0  0  0  0  0  0
    0.8900   -0.8210   -0.3430 C   0  0  0  0  0  0  0  0  0  0  0  0
    0.5780   -2.0300   -0.0320 O   0  0  0  0  0  0  0  0  0  0  0  0
   -0.0740    0.1820   -0.0110 C   0  0  0  0  0  0  0  0  0  0  0  0
    0.1590    1.4910   -0.2370 C   0  0  0  0  0  0  0  0  0  0  0  0
    1.4370    1.9090   -0.8440 C   0  0  0  0  0  0  0  0  0  0  0  0
   -0.8320    2.4190    0.1480 N   0  0  0  0  0  0  0  0  0  0  0  0
   -0.9890    3.6200   -0.6680 C   0  0  0  0  0  0  0  0  0  0  0  0
   -1.6480    2.1700    1.3070 C   0  0  0  0  0  0  0  0  0  0  0  0
   -1.4980    0.7740    1.7450 N   0  0  0  0  0  0  0  0  0  0  0  0
   -1.4320   -0.0560    0.5720 C   0  0  2  0  0  0  0  0  0  0  0  0
   -1.8380   -1.4260    0.7030 C   0  0  0  0  0  0  0  0  0  0  0  0
   -2.1090   -2.2080   -0.5640 C   0  0  0  0  0  0  0  0  0  0  0  0
   -1.9800   -2.0740    1.8300 C   0  0  0  0  0  0  0  0  0  0  0  0
   -1.7360   -1.4550    3.0100 F   0  0  0  0  0  0  0  0  0  0  0  0
   -2.3830   -3.3880    1.8620 F   0  0  0  0  0  0  0  0  0  0  0  0
  1  2  1  0
  2  3  1  0
  3  4  1  0
  4  5  2  0
  4  6  1  0
  6  7  2  0
  6 13  1  0
  7  8  1  0
  7  9  1  0
  9 10  1  0
  9 11  1  0
 11 12  1  0
 12 13  1  0
 13 14  1  1
 14 15  1  0
 14 16  2  3
 16 17  1  0
 16 18  1  0
M  END
