
     RDKit          3D

 18 18  0  0  0  0  0  0  0  0999 V2000
   -2.2580   -2.8510   -0.5040 C   0  0  0  0  0  0  0  0  0  0  0  0
   -1.5210   -1.7740    0.2100 C   0  0  0  0  0  0  0  0  0  0  0  0
   -2.1000   -0.5840    0.2380 C   0  0  0  0  0  0  0  0  0  0  0  0
   -3.4030   -0.2330   -0.3750 C   0  0  1  0  0  0  0  0  0  0  0  0
   -3.2880    0.7130   -1.3900 F   0  0  0  0  0  0  0  0  0  0  0  0
   -4.2060   -1.2590   -0.7200 F   0  0  0  0  0  0  0  0  0  0  0  0
   -1.4310    0.5660    0.9550 C   0  0  0  0  0  0  0  0  0  0  0  0
   -1.2550    1.7600    0.0420 C   0  0  0  0  0  0  0  0  0  0  0  0
   -0.0650    2.4660    0.4930 N   0  0  0  0  0  0  0  0  0  0  0  0
    0.9830    3.0210   -0.2500 C   0  0  0  0  0  0  0  0  0  0  0  0
    2.0590    2.5730   -0.8140 C   0  0  0  0  0  0  0  0  0  0  0  0
    2.7010    1.3000   -0.9510 C   0  0  0  0  0  0  0  0  0  0  0  0
    3.7790    1.2480   -1.7150 O   0  0  0  0  0  0  0  0  0  0  0  0
    2.4430    0.0160   -0.4340 N   0  0  0  0  0  0  0  0  0  0  0  0
    3.4510   -0.6880    0.4030 C   0  0  0  0  0  0  0  0  0  0  0  0
    1.2660   -0.8120   -0.6180 C   0  0  0  0  0  0  0  0  0  0  0  0
    0.9570   -1.5260    0.6550 C   0  0  0  0  0  0  0  0  0  0  0  0
   -0.3290   -2.0160    0.7950 O   0  0  0  0  0  0  0  0  0  0  0  0
  1  2  1  0
  2  3  2  0
  2 18  1  0
  3  4  1  0
  3  7  1  0
  4  5  1  6
  4  6  1  0
  7  8  1  0
  8  9  1  0
  9 10  1  0
 10 11  2  0
 11 12  1  0
 12 13  2  0
 12 14  1  0
 14 15  1  0
 14 16  1  0
 16 17  1  0
 17 18  1  0
M  END
