
     RDKit          3D

 15 14  0  0  0  0  0  0  0  0999 V2000
   -1.6390    2.4650    0.4570 C   0  0  0  0  0  0  0  0  0  0  0  0
   -1.8660    1.8240   -0.7260 C   0  0  0  0  0  0  0  0  0  0  0  0
   -3.2110    1.9050   -1.3100 C   0  0  0  0  0  0  0  0  0  0  0  0
   -0.7620    1.1140   -1.3080 C   0  0  0  0  0  0  0  0  0  0  0  0
   -0.7880    0.4500   -2.4250 C   0  0  0  0  0  0  0  0  0  0  0  0
   -1.8590    0.2180   -3.3880 C   0  0  0  0  0  0  0  0  0  0  0  0
    0.4560    1.1650   -0.5660 O   0  0  0  0  0  0  0  0  0  0  0  0
    0.7770    0.1640    0.3850 C   0  0  2  0  0  0  0  0  0  0  0  0
    2.1150    0.4900    0.9980 C   0  0  0  0  0  0  0  0  0  0  0  0
    2.0920    1.8420    1.6940 C   0  0  0  0  0  0  0  0  0  0  0  0
    3.3590    2.0540    2.2240 O   0  0  0  0  0  0  0  0  0  0  0  0
    0.8690   -1.1770   -0.2970 C   0  0  0  0  0  0  0  0  0  0  0  0
    1.2150   -2.2810    0.6780 C   0  0  0  0  0  0  0  0  0  0  0  0
    0.1660   -2.3950    1.7610 C   0  0  0  0  0  0  0  0  0  0  0  0
    0.5470   -3.5240    2.7230 C   0  0  0  0  0  0  0  0  0  0  0  0
  1  2  2  0
  2  3  1  0
  2  4  1  0
  4  5  2  3
  4  7  1  0
  5  6  1  0
  7  8  1  0
  8  9  1  6
  8 12  1  0
  9 10  1  0
 10 11  1  0
 12 13  1  0
 13 14  1  0
 14 15  1  0
M  END
