
     RDKit          3D

 15 14  0  0  0  0  0  0  0  0999 V2000
    0.8760    2.7790   -1.1150 C   0  0  0  0  0  0  0  0  0  0  0  0
   -0.0750    1.9210   -0.7420 C   0  0  0  0  0  0  0  0  0  0  0  0
   -0.8500    2.1990    0.4850 C   0  0  0  0  0  0  0  0  0  0  0  0
   -0.3160    0.7460   -1.5810 C   0  0  0  0  0  0  0  0  0  0  0  0
   -0.0780   -0.5870   -0.9630 C   0  0  2  0  0  0  0  0  0  0  0  0
   -0.3730   -1.5410   -1.9770 O   0  0  0  0  0  0  0  0  0  0  0  0
   -1.0090   -0.9420    0.1700 C   0  0  0  0  0  0  0  0  0  0  0  0
   -2.4500   -0.9560   -0.2810 C   0  0  0  0  0  0  0  0  0  0  0  0
   -3.4020   -1.3030    0.8130 C   0  0  0  0  0  0  0  0  0  0  0  0
   -4.8030   -1.2860    0.2520 C   0  0  0  0  0  0  0  0  0  0  0  0
    1.3620   -0.8280   -0.6060 C   0  0  0  0  0  0  0  0  0  0  0  0
    1.8430    0.0040    0.3680 O   0  0  0  0  0  0  0  0  0  0  0  0
    3.1710   -0.3040    0.6170 C   0  0  2  0  0  0  0  0  0  0  0  0
    3.4070   -0.7420    2.0410 C   0  0  0  0  0  0  0  0  0  0  0  0
    4.0920    0.8610    0.3280 C   0  0  0  0  0  0  0  0  0  0  0  0
  1  2  2  0
  2  3  1  0
  2  4  1  0
  4  5  1  0
  5  6  1  6
  5  7  1  0
  5 11  1  0
  7  8  1  0
  8  9  1  0
  9 10  1  0
 11 12  1  0
 12 13  1  0
 13 14  1  1
 13 15  1  0
M  END
