
     RDKit          3D

 15 14  0  0  0  0  0  0  0  0999 V2000
    5.9800   -0.0430   -0.3500 C   0  0  0  0  0  0  0  0  0  0  0  0
    4.8010   -0.0960    0.2590 C   0  0  0  0  0  0  0  0  0  0  0  0
    3.9290    1.1030    0.3060 C   0  0  0  0  0  0  0  0  0  0  0  0
    2.7320    0.8340   -0.3070 O   0  0  0  0  0  0  0  0  0  0  0  0
    2.0270   -0.2020    0.2950 C   0  0  2  0  0  0  0  0  0  0  0  0
    1.8170   -1.1650   -0.7180 O   0  0  0  0  0  0  0  0  0  0  0  0
    0.6330    0.3370    0.6480 C   0  0  0  0  0  0  0  0  0  0  0  0
    0.0310    0.7620   -0.6940 C   0  0  0  0  0  0  0  0  0  0  0  0
   -1.3210    1.3150   -0.5800 C   0  0  0  0  0  0  0  0  0  0  0  0
   -2.3800    0.4260   -0.0130 C   0  0  0  0  0  0  0  0  0  0  0  0
   -2.8630    0.7890    1.1340 C   0  0  0  0  0  0  0  0  0  0  0  0
   -3.8940    0.1870    1.9870 C   0  0  0  0  0  0  0  0  0  0  0  0
   -2.8030   -0.7430   -0.7170 C   0  0  0  0  0  0  0  0  0  0  0  0
   -2.2960   -1.0350   -1.9380 C   0  0  0  0  0  0  0  0  0  0  0  0
   -3.7920   -1.7350   -0.2230 C   0  0  0  0  0  0  0  0  0  0  0  0
  1  2  2  0
  2  3  1  0
  3  4  1  0
  4  5  1  0
  5  6  1  6
  5  7  1  0
  7  8  1  0
  8  9  1  0
  9 10  1  0
 10 11  2  3
 10 13  1  0
 11 12  1  0
 13 14  2  0
 13 15  1  0
M  END
