
     RDKit          3D

 15 16  0  0  0  0  0  0  0  0999 V2000
    3.5270    2.0430    0.5700 C   0  0  0  0  0  0  0  0  0  0  0  0
    2.3160    1.5290    0.5370 C   0  0  0  0  0  0  0  0  0  0  0  0
    1.3160    2.0360    1.3650 O   0  0  0  0  0  0  0  0  0  0  0  0
    0.0280    1.5980    1.4290 C   0  0  0  0  0  0  0  0  0  0  0  0
   -0.2810    0.4680    0.5030 C   0  0  0  0  0  0  0  0  0  0  0  0
   -1.5830   -0.0480    0.5000 C   0  0  0  0  0  0  0  0  0  0  0  0
   -1.9790   -1.0820   -0.3070 C   0  0  0  0  0  0  0  0  0  0  0  0
   -3.3660   -1.5950   -0.2750 C   0  0  0  0  0  0  0  0  0  0  0  0
   -4.1340   -0.8920    0.6480 O   0  0  0  0  0  0  0  0  0  0  0  0
   -1.0560   -1.6380   -1.1520 C   0  0  0  0  0  0  0  0  0  0  0  0
    0.2580   -1.1450   -1.1760 C   0  0  0  0  0  0  0  0  0  0  0  0
    1.3150   -1.9530   -2.3010 Cl  0  0  0  0  0  0  0  0  0  0  0  0
    0.6400   -0.1000   -0.3530 C   0  0  0  0  0  0  0  0  0  0  0  0
    2.0220    0.4150   -0.3810 C   0  0  0  0  0  0  0  0  0  0  0  0
    2.9420   -0.0660   -1.1570 C   0  0  0  0  0  0  0  0  0  0  0  0
  1  2  2  0
  2  3  1  0
  2 14  1  0
  3  4  1  0
  4  5  1  0
  5  6  2  0
  5 13  1  0
  6  7  1  0
  7  8  1  0
  7 10  2  0
  8  9  1  0
 10 11  1  0
 11 12  1  0
 11 13  2  0
 13 14  1  0
 14 15  2  0
M  END
