
     RDKit          3D

 15 16  0  0  0  0  0  0  0  0999 V2000
   -2.5790    1.6850    0.5230 C   0  0  0  0  0  0  0  0  0  0  0  0
   -1.4030    0.8070    0.2540 C   0  0  0  0  0  0  0  0  0  0  0  0
   -0.1240    1.3200    0.3610 C   0  0  0  0  0  0  0  0  0  0  0  0
    1.0230    0.5800    0.1290 C   0  0  0  0  0  0  0  0  0  0  0  0
    2.2860    1.1220    0.2440 C   0  0  0  0  0  0  0  0  0  0  0  0
    2.4790    2.4230    0.5940 O   0  0  0  0  0  0  0  0  0  0  0  0
    3.4310    0.3570    0.0060 C   0  0  0  0  0  0  0  0  0  0  0  0
    3.2530   -0.9530   -0.3460 C   0  0  0  0  0  0  0  0  0  0  0  0
    4.6590   -1.9650   -0.6590 Cl  0  0  0  0  0  0  0  0  0  0  0  0
    1.9830   -1.4930   -0.4610 C   0  0  0  0  0  0  0  0  0  0  0  0
    0.8390   -0.7600   -0.2310 C   0  0  0  0  0  0  0  0  0  0  0  0
   -0.4230   -1.2900   -0.3440 C   0  0  0  0  0  0  0  0  0  0  0  0
   -0.6410   -2.5910   -0.6930 O   0  0  0  0  0  0  0  0  0  0  0  0
   -1.5620   -0.5140   -0.1020 C   0  0  0  0  0  0  0  0  0  0  0  0
   -2.9260   -1.1030   -0.2280 C   0  0  0  0  0  0  0  0  0  0  0  0
  1  2  1  0
  2  3  2  0
  2 14  1  0
  3  4  1  0
  4  5  2  0
  4 11  1  0
  5  6  1  0
  5  7  1  0
  7  8  2  0
  8  9  1  0
  8 10  1  0
 10 11  2  0
 11 12  1  0
 12 13  1  0
 12 14  2  0
 14 15  1  0
M  END
