
     RDKit          3D

 15 16  0  0  0  0  0  0  0  0999 V2000
    4.0430   -0.2200   -0.4250 C   0  0  0  0  0  0  0  0  0  0  0  0
    2.5810   -0.1520   -0.2720 C   0  0  0  0  0  0  0  0  0  0  0  0
    1.8710    1.0040   -0.1260 C   0  0  0  0  0  0  0  0  0  0  0  0
    0.5050    1.0330    0.0260 C   0  0  0  0  0  0  0  0  0  0  0  0
   -0.1470    2.2410    0.1800 C   0  0  0  0  0  0  0  0  0  0  0  0
   -1.4890    2.2810    0.3420 C   0  0  0  0  0  0  0  0  0  0  0  0
   -2.2340    1.0940    0.3560 C   0  0  0  0  0  0  0  0  0  0  0  0
   -3.5780    1.1530    0.5280 O   0  0  0  0  0  0  0  0  0  0  0  0
   -1.6140   -0.1330    0.2040 C   0  0  0  0  0  0  0  0  0  0  0  0
   -2.4100   -1.3690    0.2530 C   0  0  0  0  0  0  0  0  0  0  0  0
   -3.5040   -1.2710   -0.6740 O   0  0  0  0  0  0  0  0  0  0  0  0
   -0.2300   -0.1400    0.0410 C   0  0  0  0  0  0  0  0  0  0  0  0
    0.4790   -1.3130   -0.1050 C   0  0  0  0  0  0  0  0  0  0  0  0
    1.8740   -1.3310   -0.2600 C   0  0  0  0  0  0  0  0  0  0  0  0
    2.6800   -2.8800   -0.4300 Cl  0  0  0  0  0  0  0  0  0  0  0  0
  1  2  1  0
  2  3  2  0
  2 14  1  0
  3  4  1  0
  4  5  2  0
  4 12  1  0
  5  6  1  0
  6  7  2  0
  7  8  1  0
  7  9  1  0
  9 10  1  0
  9 12  2  0
 10 11  1  0
 12 13  1  0
 13 14  2  0
 14 15  1  0
M  END
