
     RDKit          3D

 15 16  0  0  0  0  0  0  0  0999 V2000
   -4.8300    0.8250    0.0220 O   0  0  0  0  0  0  0  0  0  0  0  0
   -3.5090    0.3400    0.0680 C   0  0  0  0  0  0  0  0  0  0  0  0
   -3.2410   -0.9410    0.5070 C   0  0  0  0  0  0  0  0  0  0  0  0
   -1.9610   -1.4550    0.5670 C   0  0  0  0  0  0  0  0  0  0  0  0
   -0.8890   -0.6740    0.1770 C   0  0  0  0  0  0  0  0  0  0  0  0
    0.4170   -1.1170    0.2090 C   0  0  0  0  0  0  0  0  0  0  0  0
    1.4820   -0.3250   -0.1830 C   0  0  0  0  0  0  0  0  0  0  0  0
    2.8460   -0.8710   -0.1130 C   0  0  0  0  0  0  0  0  0  0  0  0
    3.6510   -0.4120    1.0550 C   0  0  0  0  0  0  0  0  0  0  0  0
    3.9120    1.3220    1.1550 Cl  0  0  0  0  0  0  0  0  0  0  0  0
    1.2090    0.9500   -0.6190 C   0  0  0  0  0  0  0  0  0  0  0  0
    2.2100    1.8070   -1.0290 O   0  0  0  0  0  0  0  0  0  0  0  0
   -0.1180    1.3900   -0.6480 C   0  0  0  0  0  0  0  0  0  0  0  0
   -1.1600    0.5920   -0.2560 C   0  0  0  0  0  0  0  0  0  0  0  0
   -2.4480    1.1230   -0.3210 C   0  0  0  0  0  0  0  0  0  0  0  0
  1  2  1  0
  2  3  2  0
  2 15  1  0
  3  4  1  0
  4  5  2  0
  5  6  1  0
  5 14  1  0
  6  7  2  0
  7  8  1  0
  7 11  1  0
  8  9  1  0
  9 10  1  0
 11 12  1  0
 11 13  2  0
 13 14  1  0
 14 15  2  0
M  END
