
     RDKit          3D

 11 10  0  0  0  0  0  0  0  0999 V2000
   -2.8420    1.3960    0.6820 C   0  0  0  0  0  0  0  0  0  0  0  0
   -2.7980    0.1160    1.0060 O   0  0  0  0  0  0  0  0  0  0  0  0
   -1.7650   -0.6490    1.2890 C   0  0  0  0  0  0  0  0  0  0  0  0
   -0.6990   -0.7850    0.2140 C   0  0  2  0  0  0  0  0  0  0  0  0
   -1.4920   -1.1950   -1.0460 C   0  0  0  0  0  0  0  0  0  0  0  0
    0.2050   -1.9580    0.4680 C   0  0  0  0  0  0  0  0  0  0  0  0
    1.0240   -2.1940   -0.5930 O   0  0  0  0  0  0  0  0  0  0  0  0
   -0.0590    0.4670    0.0100 N   0  0  0  0  0  0  0  0  0  0  0  0
    1.3520    0.4980    0.3020 C   0  0  0  0  0  0  0  0  0  0  0  0
    2.0780    1.1230   -0.8850 C   0  0  0  0  0  0  0  0  0  0  0  0
    3.4840    1.1440   -0.5840 N   0  0  0  0  0  0  0  0  0  0  0  0
  1  2  1  0
  2  3  1  0
  3  4  1  0
  4  5  1  6
  4  6  1  0
  4  8  1  0
  6  7  1  0
  8  9  1  0
  9 10  1  0
 10 11  1  0
M  CHG  2   8   1  11   1
M  END
