
     RDKit          3D

 24 27  0  0  0  0  0  0  0  0999 V2000
    5.2600    2.3980    1.2720 O   0  0  0  0  0  0  0  0  0  0  0  0
    4.4400    1.3090    0.9330 C   0  0  0  0  0  0  0  0  0  0  0  0
    3.1370    1.2740    1.3910 C   0  0  0  0  0  0  0  0  0  0  0  0
    2.3300    0.2080    1.0610 C   0  0  0  0  0  0  0  0  0  0  0  0
    2.7640   -0.8390    0.2860 C   0  0  0  0  0  0  0  0  0  0  0  0
    1.9230   -1.9850   -0.0790 C   0  0  0  0  0  0  0  0  0  0  0  0
    1.1730   -1.7860   -1.3450 C   0  0  0  0  0  0  0  0  0  0  0  0
    1.6090   -2.1130   -2.5710 N   0  0  0  0  0  0  0  0  0  0  0  0
    0.7030   -1.8050   -3.4760 N   0  0  0  0  0  0  0  0  0  0  0  0
   -0.3430   -1.2680   -2.8280 C   0  0  0  0  0  0  0  0  0  0  0  0
   -1.5150   -0.7960   -3.3150 N   0  0  0  0  0  0  0  0  0  0  0  0
   -2.3940   -0.3050   -2.3990 C   0  0  0  0  0  0  0  0  0  0  0  0
   -2.1430   -0.2720   -1.0510 C   0  0  0  0  0  0  0  0  0  0  0  0
   -3.0900    0.2570   -0.0790 C   0  0  0  0  0  0  0  0  0  0  0  0
   -4.3220    0.7750   -0.3830 C   0  0  0  0  0  0  0  0  0  0  0  0
   -5.1770    1.2640    0.6130 C   0  0  0  0  0  0  0  0  0  0  0  0
   -4.8100    1.2430    1.9390 C   0  0  0  0  0  0  0  0  0  0  0  0
   -5.6150    1.7100    2.9300 F   0  0  0  0  0  0  0  0  0  0  0  0
   -3.5730    0.7240    2.2490 C   0  0  0  0  0  0  0  0  0  0  0  0
   -2.7330    0.2420    1.2680 C   0  0  0  0  0  0  0  0  0  0  0  0
   -0.9410   -0.7670   -0.6590 N   0  0  0  0  0  0  0  0  0  0  0  0
   -0.0560   -1.2550   -1.5190 N   0  0  0  0  0  0  0  0  0  0  0  0
    4.0740   -0.7830   -0.1620 C   0  0  0  0  0  0  0  0  0  0  0  0
    4.9080    0.2710    0.1510 C   0  0  0  0  0  0  0  0  0  0  0  0
  1  2  1  0
  2  3  2  0
  2 24  1  0
  3  4  1  0
  4  5  2  0
  5  6  1  0
  5 23  1  0
  6  7  1  0
  7  8  2  0
  7 22  1  0
  8  9  1  0
  9 10  2  0
 10 11  1  0
 10 22  1  0
 11 12  2  0
 12 13  1  0
 13 14  1  0
 13 21  2  0
 14 15  2  0
 14 20  1  0
 15 16  1  0
 16 17  2  0
 17 18  1  0
 17 19  1  0
 19 20  2  0
 21 22  1  0
 23 24  2  0
M  END
