
     RDKit          3D

 24 26  0  0  0  0  0  0  0  0999 V2000
    7.8730    1.2190   -1.2310 C   0  0  0  0  0  0  0  0  0  0  0  0
    6.5650    0.5640   -1.1810 N   0  0  0  0  0  0  0  0  0  0  0  0
    5.9510    0.3710   -0.0680 C   0  0  0  0  0  0  0  0  0  0  0  0
    6.5720    0.8100    1.1270 N   0  0  0  0  0  0  0  0  0  0  0  0
    4.6300   -0.2990   -0.0960 C   0  0  0  0  0  0  0  0  0  0  0  0
    3.6300    0.6650    0.4980 C   0  0  0  0  0  0  0  0  0  0  0  0
    2.2620    0.1440    0.5410 C   0  0  0  0  0  0  0  0  0  0  0  0
    1.3960    0.8310   -0.1210 N   0  0  0  0  0  0  0  0  0  0  0  0
    0.0270    0.6740   -0.3250 N   0  0  0  0  0  0  0  0  0  0  0  0
   -0.8180   -0.3190    0.2410 C   0  0  0  0  0  0  0  0  0  0  0  0
   -2.1260   -0.1110    0.0230 N   0  0  0  0  0  0  0  0  0  0  0  0
   -3.0510   -0.9630    0.4960 C   0  0  0  0  0  0  0  0  0  0  0  0
   -4.4940   -0.7020    0.2360 C   0  0  1  0  0  0  0  0  0  0  0  0
   -4.8430    0.6670    0.8050 C   0  0  0  0  0  0  0  0  0  0  0  0
   -5.0800    1.6490   -0.3140 C   0  0  0  0  0  0  0  0  0  0  0  0
   -6.1610    1.2540   -1.1630 N   0  0  0  0  0  0  0  0  0  0  0  0
   -6.1970   -0.1700   -1.4250 C   0  0  0  0  0  0  0  0  0  0  0  0
   -4.7790   -0.7010   -1.2690 C   0  0  0  0  0  0  0  0  0  0  0  0
   -2.7060   -2.0830    1.2210 C   0  0  0  0  0  0  0  0  0  0  0  0
   -1.3710   -2.3310    1.4650 C   0  0  0  0  0  0  0  0  0  0  0  0
   -0.4530   -1.4330    0.9640 C   0  0  0  0  0  0  0  0  0  0  0  0
    0.8780   -1.8620    1.3220 N   0  0  0  0  0  0  0  0  0  0  0  0
    2.0550   -1.0680    1.3150 C   0  0  0  0  0  0  0  0  0  0  0  0
    2.9860   -1.4760    2.0580 O   0  0  0  0  0  0  0  0  0  0  0  0
  1  2  1  0
  2  3  2  3
  3  4  1  0
  3  5  1  0
  5  6  1  0
  6  7  1  0
  7  8  2  0
  7 23  1  0
  8  9  1  0
  9 10  1  0
 10 11  2  0
 10 21  1  0
 11 12  1  0
 13 12  1  6
 12 19  2  0
 13 14  1  0
 13 18  1  0
 14 15  1  0
 15 16  1  0
 16 17  1  0
 17 18  1  0
 19 20  1  0
 20 21  2  0
 21 22  1  0
 22 23  1  0
 23 24  2  0
M  CHG  2   2   1  16   1
M  END
