
     RDKit          3D

 24 26  0  0  0  0  0  0  0  0999 V2000
   -0.6650    4.1180   -0.3840 C   0  0  0  0  0  0  0  0  0  0  0  0
   -1.8520    3.2910   -0.2360 N   0  0  0  0  0  0  0  0  0  0  0  0
   -1.7600    1.9230    0.1010 C   0  0  0  0  0  0  0  0  0  0  0  0
   -0.5010    1.3590    0.2750 C   0  0  0  0  0  0  0  0  0  0  0  0
   -0.4180    0.0150    0.5990 C   0  0  0  0  0  0  0  0  0  0  0  0
    0.8710   -0.5430    0.7720 N   0  0  0  0  0  0  0  0  0  0  0  0
    2.0300    0.2170    0.6260 N   0  0  0  0  0  0  0  0  0  0  0  0
    3.0880   -0.3240    0.1440 C   0  0  0  0  0  0  0  0  0  0  0  0
    3.0340   -1.7550   -0.2440 C   0  0  0  0  0  0  0  0  0  0  0  0
    4.2560   -2.2090   -0.7300 O   0  0  0  0  0  0  0  0  0  0  0  0
    4.9230   -1.2900   -1.5020 C   0  0  0  0  0  0  0  0  0  0  0  0
    5.4430   -0.2020   -0.5520 C   0  0  2  0  0  0  0  0  0  0  0  0
    6.3790    0.7400   -1.2430 C   0  0  0  0  0  0  0  0  0  0  0  0
    6.1390   -0.8970    0.6230 C   0  0  0  0  0  0  0  0  0  0  0  0
    4.2720    0.4380   -0.0080 N   0  0  0  0  0  0  0  0  0  0  0  0
   -1.5070   -0.7510    0.7480 N   0  0  0  0  0  0  0  0  0  0  0  0
   -2.7390   -0.2280    0.5850 C   0  0  0  0  0  0  0  0  0  0  0  0
   -2.8460    1.0990    0.2650 C   0  0  0  0  0  0  0  0  0  0  0  0
   -4.1890    1.6870    0.0870 C   0  0  0  0  0  0  0  0  0  0  0  0
   -5.2230    0.9220    0.7100 N   0  0  0  0  0  0  0  0  0  0  0  0
   -5.2020   -0.4840    0.4440 C   0  0  0  0  0  0  0  0  0  0  0  0
   -3.8760   -1.1260    0.7590 C   0  0  1  0  0  0  0  0  0  0  0  0
   -3.6600   -2.3410   -0.1530 C   0  0  0  0  0  0  0  0  0  0  0  0
   -4.7630   -3.2740   -0.0230 N   0  0  0  0  0  0  0  0  0  0  0  0
  1  2  1  0
  2  3  1  0
  3  4  2  0
  3 18  1  0
  4  5  1  0
  5  6  1  0
  5 16  2  0
  6  7  1  0
  7  8  2  3
  8  9  1  0
  8 15  1  0
  9 10  1  0
 10 11  1  0
 11 12  1  0
 12 13  1  6
 12 14  1  0
 12 15  1  0
 16 17  1  0
 17 18  2  0
 17 22  1  0
 18 19  1  0
 19 20  1  0
 20 21  1  0
 21 22  1  0
 22 23  1  6
 23 24  1  0
M  CHG  2  20   1  24   1
M  END
