
     RDKit          3D

 42 46  0  0  0  0  0  0  0  0999 V2000
   -8.0200    0.2830   -2.7340 C   0  0  0  0  0  0  0  0  0  0  0  0
   -8.7830    1.3880   -2.0710 C   0  0  1  0  0  0  0  0  0  0  0  0
  -10.2640    1.1000   -1.9560 C   0  0  0  0  0  0  0  0  0  0  0  0
  -10.6330    1.6110   -0.5840 C   0  0  0  0  0  0  0  0  0  0  0  0
   -9.5120    2.1430   -0.0000 O   0  0  0  0  0  0  0  0  0  0  0  0
   -8.4000    1.6140   -0.6460 C   0  0  1  0  0  0  0  0  0  0  0  0
   -7.8640    0.4240    0.0440 C   0  0  0  0  0  0  0  0  0  0  0  0
   -6.8580   -0.1610   -0.4260 O   0  0  0  0  0  0  0  0  0  0  0  0
   -8.4430   -0.0950    1.2330 N   0  0  0  0  0  0  0  0  0  0  0  0
   -7.8740   -1.2640    1.8670 C   0  0  0  0  0  0  0  0  0  0  0  0
   -6.4480   -1.0410    2.2830 C   0  0  0  0  0  0  0  0  0  0  0  0
   -5.9750    0.0740    2.0350 O   0  0  0  0  0  0  0  0  0  0  0  0
   -5.6960   -2.0440    2.9190 N   0  0  0  0  0  0  0  0  0  0  0  0
   -4.3380   -1.9260    3.3350 C   0  0  0  0  0  0  0  0  0  0  0  0
   -3.3920   -1.7400    2.2150 C   0  0  2  0  0  0  0  0  0  0  0  0
   -1.9440   -1.6640    2.7890 C   0  0  0  0  0  0  0  0  0  0  0  0
   -1.1100   -1.2410    1.5880 C   0  0  2  0  0  0  0  0  0  0  0  0
    0.3220   -1.1820    2.0480 C   0  0  0  0  0  0  0  0  0  0  0  0
    1.2240   -0.7710    0.9230 C   0  0  0  0  0  0  0  0  0  0  0  0
    0.7170   -0.5550   -0.1920 O   0  0  0  0  0  0  0  0  0  0  0  0
    2.6150   -0.6270    1.1030 N   0  0  0  0  0  0  0  0  0  0  0  0
    3.5770   -0.2480    0.1410 C   0  0  0  0  0  0  0  0  0  0  0  0
    3.2640    0.1460   -1.1430 C   0  0  0  0  0  0  0  0  0  0  0  0
    4.2530    0.5280   -2.0120 C   0  0  0  0  0  0  0  0  0  0  0  0
    5.6150    0.5500   -1.6790 C   0  0  0  0  0  0  0  0  0  0  0  0
    6.5900    0.9470   -2.6620 C   0  0  0  0  0  0  0  0  0  0  0  0
    6.1620    1.3550   -3.8030 O   0  0  0  0  0  0  0  0  0  0  0  0
    7.9190    0.9280   -2.4930 O   0  0  0  0  0  0  0  0  0  0  0  0
    8.9090    1.3010   -3.4140 C   0  0  1  0  0  0  0  0  0  0  0  0
    9.8530    2.3620   -2.8480 C   0  0  0  0  0  0  0  0  0  0  0  0
   10.7930    1.5170   -2.0150 C   0  0  0  0  0  0  0  0  0  0  0  0
   10.9390    0.3340   -2.7830 O   0  0  0  0  0  0  0  0  0  0  0  0
    9.8300    0.1520   -3.5910 C   0  0  0  0  0  0  0  0  0  0  0  0
    9.6270   -0.8200   -4.3500 O   0  0  0  0  0  0  0  0  0  0  0  0
    5.9030    0.1570   -0.4030 C   0  0  0  0  0  0  0  0  0  0  0  0
    4.9140   -0.2450    0.5190 C   0  0  0  0  0  0  0  0  0  0  0  0
    5.4260   -0.6630    1.8400 C   0  0  0  0  0  0  0  0  0  0  0  0
    6.5090   -1.7280    1.5860 C   0  0  0  0  0  0  0  0  0  0  0  0
    7.5400   -1.2740    0.6090 C   0  0  0  0  0  0  0  0  0  0  0  0
    7.2750    0.1460    0.1360 C   0  0  0  0  0  0  0  0  0  0  0  0
   -1.6170    0.1580    1.2100 C   0  0  0  0  0  0  0  0  0  0  0  0
   -3.4240   -0.1190    1.4140 S   0  0  0  0  0  0  0  0  0  0  0  0
  2  1  1  1
  2  3  1  0
  2  6  1  0
  3  4  1  0
  4  5  1  0
  5  6  1  0
  6  7  1  1
  7  8  2  0
  7  9  1  0
  9 10  1  0
 10 11  1  0
 11 12  2  0
 11 13  1  0
 13 14  1  0
 15 14  1  1
 15 16  1  0
 15 42  1  0
 16 17  1  0
 17 18  1  1
 17 41  1  0
 18 19  1  0
 19 20  2  0
 19 21  1  0
 21 22  1  0
 22 23  2  0
 22 36  1  0
 23 24  1  0
 24 25  2  0
 25 26  1  0
 25 35  1  0
 26 27  2  0
 26 28  1  0
 29 28  1  1
 29 30  1  0
 29 33  1  0
 30 31  1  0
 31 32  1  0
 32 33  1  0
 33 34  2  0
 35 36  2  0
 35 40  1  0
 36 37  1  0
 37 38  1  0
 38 39  1  0
 39 40  1  0
 41 42  1  0
M  END
