
     RDKit          3D

 42 47  0  0  0  0  0  0  0  0999 V2000
  -10.3660   -0.5720   -0.4480 C   0  0  0  0  0  0  0  0  0  0  0  0
   -9.6120   -1.0410    0.7110 N   0  0  1  0  0  0  0  0  0  0  0  0
   -9.0410   -2.3300    0.4560 C   0  0  0  0  0  0  0  0  0  0  0  0
   -7.8250   -2.0210   -0.4020 C   0  0  0  0  0  0  0  0  0  0  0  0
   -7.2690   -0.7960    0.2780 C   0  0  1  0  0  0  0  0  0  0  0  0
   -6.6630    0.1410   -0.5850 N   0  0  2  0  0  0  0  0  0  0  0  0
   -6.0210   -0.3580   -1.7580 C   0  0  0  0  0  0  0  0  0  0  0  0
   -4.6950   -1.0540   -1.5260 C   0  0  0  0  0  0  0  0  0  0  0  0
   -3.7850   -0.1260   -0.9200 N   0  0  0  0  0  0  0  0  0  0  0  0
   -3.2570    0.8990   -1.7830 C   0  0  0  0  0  0  0  0  0  0  0  0
   -2.2760    1.7460   -0.9970 C   0  0  0  0  0  0  0  0  0  0  0  0
   -2.3480    3.0310   -0.5540 C   0  0  0  0  0  0  0  0  0  0  0  0
   -1.1500    3.2690    0.1360 C   0  0  0  0  0  0  0  0  0  0  0  0
   -0.4150    2.1420    0.0780 C   0  0  0  0  0  0  0  0  0  0  0  0
    0.8600    1.7790    0.5890 C   0  0  0  0  0  0  0  0  0  0  0  0
    1.4450    2.5000    1.6940 C   0  0  0  0  0  0  0  0  0  0  0  0
    2.6100    1.9440    2.1770 C   0  0  0  0  0  0  0  0  0  0  0  0
    3.2730    0.8840    1.7960 C   0  0  0  0  0  0  0  0  0  0  0  0
    2.5880    0.0230    0.4580 C   0  0  0  0  0  0  0  0  0  0  0  0
    3.6560   -0.8420    0.5700 O   0  0  0  0  0  0  0  0  0  0  0  0
    3.9490   -1.9710   -0.1520 C   0  0  0  0  0  0  0  0  0  0  0  0
    5.4740   -2.1910   -0.1300 C   0  0  0  0  0  0  0  0  0  0  0  0
    5.9890   -3.2380   -0.3000 O   0  0  0  0  0  0  0  0  0  0  0  0
    6.1510   -0.9390    0.1010 N   0  0  0  0  0  0  0  0  0  0  0  0
    7.5600   -0.8010    0.1280 C   0  0  0  0  0  0  0  0  0  0  0  0
    8.0430    0.4450    0.6200 C   0  0  0  0  0  0  0  0  0  0  0  0
    9.3860    0.6840    0.6060 C   0  0  0  0  0  0  0  0  0  0  0  0
   10.3020   -0.2740    0.1210 C   0  0  0  0  0  0  0  0  0  0  0  0
   11.7180    0.0190    0.0960 N   0  0  0  0  0  0  0  0  0  0  0  0
   12.2230    1.2160   -0.2550 C   0  0  0  0  0  0  0  0  0  0  0  0
   13.6180    1.1210   -0.1630 C   0  0  0  0  0  0  0  0  0  0  0  0
   13.9010   -0.1600    0.2480 N   0  0  0  0  0  0  0  0  0  0  0  0
   12.7440   -0.7850    0.3930 C   0  0  0  0  0  0  0  0  0  0  0  0
   12.4790   -2.1890    0.7790 C   0  0  0  0  0  0  0  0  0  0  0  0
   12.2530   -3.3200    1.0730 N   0  0  0  0  0  0  0  0  0  0  0  0
    9.7990   -1.3980   -0.3090 N   0  0  0  0  0  0  0  0  0  0  0  0
    8.4490   -1.6970   -0.3230 C   0  0  0  0  0  0  0  0  0  0  0  0
    1.6750    0.7220    0.3270 C   0  0  0  0  0  0  0  0  0  0  0  0
   -1.1470    1.2460   -0.6290 O   0  0  0  0  0  0  0  0  0  0  0  0
   -4.3760    0.3260    0.2930 C   0  0  0  0  0  0  0  0  0  0  0  0
   -5.7410    0.9620    0.1200 C   0  0  0  0  0  0  0  0  0  0  0  0
   -8.4700   -0.2070    0.9960 C   0  0  0  0  0  0  0  0  0  0  0  0
  2  1  1  6
  2  3  1  0
  2 42  1  0
  3  4  1  0
  5  4  1  6
  5  6  1  0
  5 42  1  0
  6  7  1  6
  6 41  1  0
  7  8  1  0
  8  9  1  0
  9 10  1  0
  9 40  1  0
 10 11  1  0
 11 12  2  0
 11 39  1  0
 12 13  1  0
 13 14  2  0
 14 15  1  0
 14 39  1  0
 15 16  2  0
 15 38  1  0
 16 17  1  0
 17 18  2  0
 18 19  1  0
 19 20  1  0
 19 38  2  0
 20 21  1  0
 21 22  1  0
 22 23  2  0
 22 24  1  0
 24 25  1  0
 25 26  2  0
 25 37  1  0
 26 27  1  0
 27 28  2  0
 28 29  1  0
 28 36  1  0
 29 30  1  0
 29 33  1  0
 30 31  2  0
 31 32  1  0
 32 33  2  0
 33 34  1  0
 34 35  3  0
 36 37  2  0
 40 41  1  0
M  CHG  2   2   1   6   1
M  END
