
     RDKit          3D

 42 46  0  0  0  0  0  0  0  0999 V2000
   -7.5680   -4.6390    0.8990 C   0  0  0  0  0  0  0  0  0  0  0  0
   -6.5170   -3.8970    0.6640 C   0  0  0  0  0  0  0  0  0  0  0  0
   -6.0780   -2.7860    1.5370 C   0  0  0  0  0  0  0  0  0  0  0  0
   -4.6210   -2.5200    1.2220 C   0  0  0  0  0  0  0  0  0  0  0  0
   -4.3620   -2.1530   -0.1310 N   0  0  1  0  0  0  0  0  0  0  0  0
   -2.9230   -2.1810   -0.3370 C   0  0  0  0  0  0  0  0  0  0  0  0
   -2.1230   -1.5800    0.7580 C   0  0  0  0  0  0  0  0  0  0  0  0
   -0.7070   -1.6890    0.3520 N   0  0  0  0  0  0  0  0  0  0  0  0
   -0.1110   -2.9740    0.3110 C   0  0  0  0  0  0  0  0  0  0  0  0
    1.3160   -2.9450    0.6510 C   0  0  0  0  0  0  0  0  0  0  0  0
    1.9560   -4.0940    1.0940 C   0  0  0  0  0  0  0  0  0  0  0  0
    3.3180   -4.0490    1.2530 C   0  0  0  0  0  0  0  0  0  0  0  0
    4.0290   -2.9540    1.0010 N   0  0  0  0  0  0  0  0  0  0  0  0
    3.4340   -1.8030    0.5660 C   0  0  0  0  0  0  0  0  0  0  0  0
    4.2950   -0.6350    0.2810 C   0  0  0  0  0  0  0  0  0  0  0  0
    3.8690    0.4950    0.0680 O   0  0  0  0  0  0  0  0  0  0  0  0
    5.6930   -0.8120    0.2480 N   0  0  0  0  0  0  0  0  0  0  0  0
    6.7530    0.0470    0.0560 N   0  0  0  0  0  0  0  0  0  0  0  0
    6.8050    1.3490    0.2420 C   0  0  0  0  0  0  0  0  0  0  0  0
    5.8120    2.1000    1.0160 C   0  0  0  0  0  0  0  0  0  0  0  0
    7.8990    2.0430   -0.1860 N   0  0  0  0  0  0  0  0  0  0  0  0
    8.9450    1.4900   -0.7880 C   0  0  0  0  0  0  0  0  0  0  0  0
    8.9280    0.1300   -0.9940 C   0  0  0  0  0  0  0  0  0  0  0  0
    7.8420   -0.5690   -0.5740 C   0  0  0  0  0  0  0  0  0  0  0  0
    7.8360   -1.8020   -0.7650 O   0  0  0  0  0  0  0  0  0  0  0  0
    2.0710   -1.8220    0.4000 C   0  0  0  0  0  0  0  0  0  0  0  0
    1.3800   -0.5900    0.0760 C   0  0  0  0  0  0  0  0  0  0  0  0
    0.0310   -0.5190    0.0390 C   0  0  0  0  0  0  0  0  0  0  0  0
   -0.6130    0.7180   -0.3430 C   0  0  0  0  0  0  0  0  0  0  0  0
   -1.9360    0.6440   -0.3520 O   0  0  0  0  0  0  0  0  0  0  0  0
   -0.1680    1.9790   -0.7060 N   0  0  0  0  0  0  0  0  0  0  0  0
    1.1630    2.4410   -0.8260 C   0  0  0  0  0  0  0  0  0  0  0  0
    1.1670    3.8770   -1.3680 C   0  0  0  0  0  0  0  0  0  0  0  0
    0.3910    4.8230   -0.4770 C   0  0  0  0  0  0  0  0  0  0  0  0
   -0.9750    4.2410   -0.1650 C   0  0  1  0  0  0  0  0  0  0  0  0
   -1.1300    3.8920    1.2990 C   0  0  0  0  0  0  0  0  0  0  0  0
   -2.0090    5.2800   -0.5070 C   0  0  0  0  0  0  0  0  0  0  0  0
   -1.7980    6.4810    0.2790 N   0  0  0  0  0  0  0  0  0  0  0  0
   -1.2030    3.0030   -1.0130 C   0  0  0  0  0  0  0  0  0  0  0  0
   -4.9380   -3.0410   -1.1230 C   0  0  0  0  0  0  0  0  0  0  0  0
   -5.7140   -4.1540   -0.5190 C   0  0  0  0  0  0  0  0  0  0  0  0
   -5.6500   -5.3550   -1.0730 C   0  0  0  0  0  0  0  0  0  0  0  0
  1  2  2  0
  2  3  1  0
  2 41  1  0
  3  4  1  0
  4  5  1  0
  5  6  1  1
  5 40  1  0
  6  7  1  0
  7  8  1  0
  8  9  1  0
  8 28  1  0
  9 10  1  0
 10 11  2  0
 10 26  1  0
 11 12  1  0
 12 13  2  0
 13 14  1  0
 14 15  1  0
 14 26  2  0
 15 16  2  0
 15 17  1  0
 17 18  1  0
 18 19  1  0
 18 24  1  0
 19 20  1  0
 19 21  2  0
 21 22  1  0
 22 23  2  0
 23 24  1  0
 24 25  2  0
 26 27  1  0
 27 28  2  0
 28 29  1  0
 29 30  2  0
 29 31  1  0
 31 32  1  0
 31 39  1  0
 32 33  1  0
 33 34  1  0
 34 35  1  0
 35 36  1  1
 35 37  1  0
 35 39  1  0
 37 38  1  0
 40 41  1  0
 41 42  2  0
M  CHG  2   5   1  38   1
M  END
