
     RDKit          3D

 42 47  0  0  0  0  0  0  0  0999 V2000
    9.0240   -2.3090   -1.2630 C   0  0  0  0  0  0  0  0  0  0  0  0
    9.5630   -0.9820   -1.3380 O   0  0  0  0  0  0  0  0  0  0  0  0
    9.0110   -0.3830   -0.1250 C   0  0  1  0  0  0  0  0  0  0  0  0
   10.0460    0.2700    0.6800 C   0  0  0  0  0  0  0  0  0  0  0  0
    7.9210    0.3550   -0.4960 N   0  0  0  0  0  0  0  0  0  0  0  0
    6.9600    0.9640    0.3410 C   0  0  0  0  0  0  0  0  0  0  0  0
    6.1000   -0.1390    0.9500 C   0  0  0  0  0  0  0  0  0  0  0  0
    6.6360   -1.1030    1.7240 C   0  0  0  0  0  0  0  0  0  0  0  0
    5.8040   -2.0430    2.2840 C   0  0  0  0  0  0  0  0  0  0  0  0
    4.4670   -2.0290    2.0950 C   0  0  0  0  0  0  0  0  0  0  0  0
    3.8330   -1.0350    1.3010 C   0  0  0  0  0  0  0  0  0  0  0  0
    4.7570   -0.0940    0.7400 C   0  0  0  0  0  0  0  0  0  0  0  0
    4.2220    0.9660   -0.0630 N   0  0  0  0  0  0  0  0  0  0  0  0
    3.9720    2.2260    0.5990 C   0  0  0  0  0  0  0  0  0  0  0  0
    3.0140    3.0120   -0.3490 C   0  0  0  0  0  0  0  0  0  0  0  0
    2.0900    2.0040   -0.7610 N   0  0  0  0  0  0  0  0  0  0  0  0
    0.8370    1.7980   -0.2220 C   0  0  0  0  0  0  0  0  0  0  0  0
    0.4990    0.5760    0.2370 N   0  0  0  0  0  0  0  0  0  0  0  0
   -0.8160    0.6190    0.7030 C   0  0  0  0  0  0  0  0  0  0  0  0
   -1.4540   -0.3590    1.2420 O   0  0  0  0  0  0  0  0  0  0  0  0
   -1.2850    1.9600    0.4910 C   0  0  0  0  0  0  0  0  0  0  0  0
   -2.6830    2.4800    0.5380 C   0  0  0  0  0  0  0  0  0  0  0  0
   -2.8320    3.6950    0.6510 O   0  0  0  0  0  0  0  0  0  0  0  0
   -3.7260    1.5260    0.4290 N   0  0  0  0  0  0  0  0  0  0  0  0
   -3.5960    0.7050   -0.8490 C   0  0  0  0  0  0  0  0  0  0  0  0
   -4.6200   -0.3600   -0.8170 C   0  0  0  0  0  0  0  0  0  0  0  0
   -4.4630   -1.1260    0.4030 N   0  0  2  0  0  0  0  0  0  0  0  0
   -5.2390   -2.3060    0.3460 C   0  0  0  0  0  0  0  0  0  0  0  0
   -6.6170   -2.1580   -0.1660 C   0  0  0  0  0  0  0  0  0  0  0  0
   -7.5020   -1.3110    0.4560 C   0  0  0  0  0  0  0  0  0  0  0  0
   -8.8200   -1.2630   -0.0490 C   0  0  0  0  0  0  0  0  0  0  0  0
   -9.8080   -0.4010    0.6680 C   0  0  1  0  0  0  0  0  0  0  0  0
   -9.5410    1.1160    0.7270 C   0  0  0  0  0  0  0  0  0  0  0  0
  -10.6090    0.5330   -0.1800 C   0  0  0  0  0  0  0  0  0  0  0  0
   -9.1490   -2.0030   -1.0660 N   0  0  0  0  0  0  0  0  0  0  0  0
   -8.2890   -2.8360   -1.6950 C   0  0  0  0  0  0  0  0  0  0  0  0
   -7.0440   -2.8900   -1.2220 N   0  0  0  0  0  0  0  0  0  0  0  0
   -4.6690   -0.3650    1.5740 C   0  0  0  0  0  0  0  0  0  0  0  0
   -4.7300    1.1510    1.3070 C   0  0  0  0  0  0  0  0  0  0  0  0
   -0.2940    2.6740   -0.0570 C   0  0  0  0  0  0  0  0  0  0  0  0
    2.5110    1.0320   -1.7930 C   0  0  0  0  0  0  0  0  0  0  0  0
    3.9870    0.7210   -1.4920 C   0  0  0  0  0  0  0  0  0  0  0  0
  1  2  1  0
  2  3  1  0
  3  4  1  6
  3  5  1  0
  5  6  1  0
  6  7  1  0
  7  8  2  0
  7 12  1  0
  8  9  1  0
  9 10  2  0
 10 11  1  0
 11 12  2  0
 12 13  1  0
 13 14  1  0
 13 42  1  0
 14 15  1  0
 15 16  1  0
 16 17  1  0
 16 41  1  0
 17 18  2  0
 17 40  1  0
 18 19  1  0
 19 20  2  0
 19 21  1  0
 21 22  1  0
 21 40  2  0
 22 23  2  0
 22 24  1  0
 24 25  1  0
 24 39  1  0
 25 26  1  0
 26 27  1  0
 27 28  1  6
 27 38  1  0
 28 29  1  0
 29 30  2  0
 29 37  1  0
 30 31  1  0
 32 31  1  6
 31 35  2  0
 32 33  1  0
 32 34  1  0
 33 34  1  0
 35 36  1  0
 36 37  2  0
 38 39  1  0
 41 42  1  0
M  CHG  2  27   1  37   1
M  END
