
     RDKit          3D

 27 30  0  0  0  0  0  0  0  0999 V2000
    6.5260   -1.2110   -2.4810 C   0  0  0  0  0  0  0  0  0  0  0  0
    5.4880   -2.3120   -2.7330 C   0  0  0  0  0  0  0  0  0  0  0  0
    4.7450   -2.4350   -1.4740 N   0  0  0  0  0  0  0  0  0  0  0  0
    3.6310   -1.7340   -1.1690 C   0  0  0  0  0  0  0  0  0  0  0  0
    3.2080   -2.1090    0.0930 C   0  0  0  0  0  0  0  0  0  0  0  0
    2.0090   -1.5880    0.8390 C   0  0  0  0  0  0  0  0  0  0  0  0
    2.4460   -0.4490    1.6010 N   0  0  0  0  0  0  0  0  0  0  0  0
    1.8870    0.7230    1.4940 C   0  0  0  0  0  0  0  0  0  0  0  0
    0.8130    0.8420    0.5870 N   0  0  0  0  0  0  0  0  0  0  0  0
   -0.4200    0.8600    0.9250 C   0  0  0  0  0  0  0  0  0  0  0  0
   -1.5380    0.9820   -0.0040 C   0  0  0  0  0  0  0  0  0  0  0  0
   -1.4730    1.0940   -1.3210 C   0  0  0  0  0  0  0  0  0  0  0  0
   -2.6280    1.2130   -2.1810 C   0  0  0  0  0  0  0  0  0  0  0  0
   -2.5960    1.3260   -3.4980 C   0  0  0  0  0  0  0  0  0  0  0  0
   -3.9760    1.4240   -4.0260 C   0  0  0  0  0  0  0  0  0  0  0  0
   -4.8310    1.3520   -2.8260 C   0  0  0  0  0  0  0  0  0  0  0  0
   -4.0130    1.2290   -1.7640 C   0  0  0  0  0  0  0  0  0  0  0  0
   -2.6980    0.9540    0.8270 N   0  0  0  0  0  0  0  0  0  0  0  0
   -2.3910    0.8340    2.0750 C   0  0  0  0  0  0  0  0  0  0  0  0
   -3.2190    0.7610    3.2740 C   0  0  0  0  0  0  0  0  0  0  0  0
   -4.7020    0.8290    3.1340 C   0  0  0  0  0  0  0  0  0  0  0  0
   -2.6550    0.6360    4.4670 C   0  0  0  0  0  0  0  0  0  0  0  0
   -1.2070    0.5690    4.6150 C   0  0  0  0  0  0  0  0  0  0  0  0
   -0.4240    0.6320    3.5430 C   0  0  0  0  0  0  0  0  0  0  0  0
   -0.9650    0.7670    2.2290 N   0  0  0  0  0  0  0  0  0  0  0  0
    4.0910   -3.0330    0.5120 N   0  0  0  0  0  0  0  0  0  0  0  0
    5.0030   -3.2140   -0.4410 N   0  0  0  0  0  0  0  0  0  0  0  0
  1  2  1  0
  2  3  1  0
  3  4  1  0
  3 27  1  0
  4  5  2  0
  5  6  1  0
  5 26  1  0
  6  7  1  0
  7  8  2  3
  8  9  1  0
  9 10  2  3
 10 11  1  0
 10 25  1  0
 11 12  2  3
 11 18  1  0
 12 13  1  0
 13 14  2  0
 13 17  1  0
 14 15  1  0
 15 16  1  0
 16 17  2  0
 18 19  2  0
 19 20  1  0
 19 25  1  0
 20 21  1  0
 20 22  2  0
 22 23  1  0
 23 24  2  0
 24 25  1  0
 26 27  2  0
M  END
