
     RDKit          3D

 26 30  0  0  0  0  0  0  0  0999 V2000
   -4.4200    1.9980    1.6920 C   0  0  0  0  0  0  0  0  0  0  0  0
   -4.2620    0.8810    1.0160 C   0  0  0  0  0  0  0  0  0  0  0  0
   -2.9250    0.5240    0.5340 C   0  0  2  0  0  0  0  0  0  0  0  0
   -2.7490   -0.8620    0.0300 C   0  0  0  0  0  0  0  0  0  0  0  0
   -3.6390   -1.0890   -1.0840 N   0  0  0  0  0  0  0  0  0  0  0  0
   -4.8830   -1.5850   -1.0020 C   0  0  0  0  0  0  0  0  0  0  0  0
   -5.4200   -1.6510   -2.2450 N   0  0  0  0  0  0  0  0  0  0  0  0
   -4.5000   -1.1930   -3.1070 C   0  0  0  0  0  0  0  0  0  0  0  0
   -3.4270   -0.8580   -2.3740 N   0  0  0  0  0  0  0  0  0  0  0  0
   -2.0090    0.8020    1.7430 C   0  0  1  0  0  0  0  0  0  0  0  0
   -0.7090    0.1450    1.6060 C   0  0  0  0  0  0  0  0  0  0  0  0
   -0.1850   -0.7670    2.5000 C   0  0  0  0  0  0  0  0  0  0  0  0
    1.0020   -1.1450    2.0480 N   0  0  0  0  0  0  0  0  0  0  0  0
    1.2660   -0.5240    0.9110 N   0  0  0  0  0  0  0  0  0  0  0  0
    2.4430   -0.6780    0.1370 C   0  0  0  0  0  0  0  0  0  0  0  0
    2.5800   -1.6910   -0.7320 N   0  0  0  0  0  0  0  0  0  0  0  0
    3.7010   -1.8440   -1.4730 C   0  0  0  0  0  0  0  0  0  0  0  0
    4.7500   -0.9420   -1.3480 C   0  0  0  0  0  0  0  0  0  0  0  0
    4.5860    0.0880   -0.4510 C   0  0  0  0  0  0  0  0  0  0  0  0
    3.4480    0.1910    0.2600 N   0  0  0  0  0  0  0  0  0  0  0  0
    5.8050    0.9480   -0.4560 C   0  0  0  0  0  0  0  0  0  0  0  0
    6.4770    0.5800   -1.7720 C   0  0  0  0  0  0  0  0  0  0  0  0
    6.0820   -0.8540   -2.0150 C   0  0  0  0  0  0  0  0  0  0  0  0
    0.2120    0.2840    0.6180 C   0  0  0  0  0  0  0  0  0  0  0  0
   -1.9250    2.3090    1.8000 C   0  0  0  0  0  0  0  0  0  0  0  0
   -3.2770    2.8990    1.9760 C   0  0  0  0  0  0  0  0  0  0  0  0
  1  2  2  0
  1 26  1  0
  2  3  1  0
  3  4  1  1
  3 10  1  0
  4  5  1  0
  5  6  1  0
  5  9  1  0
  6  7  2  0
  7  8  1  0
  8  9  2  0
 10 11  1  6
 10 25  1  0
 11 12  1  0
 11 24  2  0
 12 13  2  0
 13 14  1  0
 14 15  1  0
 14 24  1  0
 15 16  2  0
 15 20  1  0
 16 17  1  0
 17 18  2  0
 18 19  1  0
 18 23  1  0
 19 20  2  0
 19 21  1  0
 21 22  1  0
 22 23  1  0
 25 26  1  0
M  END
