
     RDKit          3D

 27 31  0  0  0  0  0  0  0  0999 V2000
    2.0920   -3.2360    1.1770 C   0  0  0  0  0  0  0  0  0  0  0  0
    1.8770   -2.8630   -0.2850 C   0  0  0  0  0  0  0  0  0  0  0  0
    0.5400   -2.2060   -0.3690 C   0  0  0  0  0  0  0  0  0  0  0  0
   -0.6180   -2.9260   -0.5320 N   0  0  0  0  0  0  0  0  0  0  0  0
   -1.6430   -2.0980   -0.4950 N   0  0  0  0  0  0  0  0  0  0  0  0
   -3.0370   -2.4320   -0.6190 C   0  0  0  0  0  0  0  0  0  0  0  0
   -3.5550   -3.6340   -0.7850 C   0  0  0  0  0  0  0  0  0  0  0  0
   -5.0310   -3.5320   -0.8640 C   0  0  0  0  0  0  0  0  0  0  0  0
   -5.2520   -2.0630   -0.7140 C   0  0  0  0  0  0  0  0  0  0  0  0
   -4.1060   -1.5100   -0.5820 N   0  0  0  0  0  0  0  0  0  0  0  0
   -1.1800   -0.8570   -0.3140 C   0  0  0  0  0  0  0  0  0  0  0  0
   -1.7810    0.3370   -0.2350 N   0  0  0  0  0  0  0  0  0  0  0  0
   -1.1070    1.5060   -0.0790 C   0  0  0  0  0  0  0  0  0  0  0  0
   -1.8270    2.7310   -0.0190 N   0  0  0  0  0  0  0  0  0  0  0  0
   -3.2370    2.8960   -0.2800 C   0  0  0  0  0  0  0  0  0  0  0  0
   -3.5240    4.3580   -0.3060 C   0  0  0  0  0  0  0  0  0  0  0  0
   -2.1700    5.0230   -0.3800 C   0  0  0  0  0  0  0  0  0  0  0  0
   -1.2730    4.0200    0.3170 C   0  0  0  0  0  0  0  0  0  0  0  0
    0.2270    1.4480   -0.0020 N   0  0  0  0  0  0  0  0  0  0  0  0
    0.9040    0.2640   -0.0760 C   0  0  0  0  0  0  0  0  0  0  0  0
    2.3500    0.3240   -0.0070 N   0  0  0  0  0  0  0  0  0  0  0  0
    2.9760    0.1580    1.2490 C   0  0  0  0  0  0  0  0  0  0  0  0
    4.3500   -0.3710    1.1760 C   0  0  0  0  0  0  0  0  0  0  0  0
    5.1890    0.0670    0.0100 C   0  0  0  0  0  0  0  0  0  0  0  0
    4.4260    0.0170   -1.2880 C   0  0  0  0  0  0  0  0  0  0  0  0
    3.0790    0.6070   -1.2120 C   0  0  0  0  0  0  0  0  0  0  0  0
    0.2230   -0.8860   -0.2290 C   0  0  0  0  0  0  0  0  0  0  0  0
  1  2  1  0
  2  3  1  0
  3  4  2  0
  3 27  1  0
  4  5  1  0
  5  6  1  0
  5 11  1  0
  6  7  2  0
  6 10  1  0
  7  8  1  0
  8  9  1  0
  9 10  2  0
 11 12  2  0
 11 27  1  0
 12 13  1  0
 13 14  1  0
 13 19  2  0
 14 15  1  0
 14 18  1  0
 15 16  1  0
 16 17  1  0
 17 18  1  0
 19 20  1  0
 20 21  1  0
 20 27  2  0
 21 22  1  0
 21 26  1  0
 22 23  1  0
 23 24  1  0
 24 25  1  0
 25 26  1  0
M  END
