
     RDKit          3D

 26 30  0  0  0  0  0  0  0  0999 V2000
    7.0020    1.0310    0.2840 C   0  0  0  0  0  0  0  0  0  0  0  0
    5.7380    1.6140    0.3380 C   0  0  0  0  0  0  0  0  0  0  0  0
    4.6190    0.8330    0.4270 C   0  0  0  0  0  0  0  0  0  0  0  0
    3.4100    1.4550    0.4970 N   0  0  0  0  0  0  0  0  0  0  0  0
    2.2820    0.7660    0.6030 C   0  0  0  0  0  0  0  0  0  0  0  0
    0.9360    1.3810    0.6990 C   0  0  0  0  0  0  0  0  0  0  0  0
    0.0550    0.7900   -0.2050 N   0  0  0  0  0  0  0  0  0  0  0  0
    0.2690    0.8760   -1.5930 C   0  0  0  0  0  0  0  0  0  0  0  0
   -0.8150   -0.0140   -2.2380 C   0  0  0  0  0  0  0  0  0  0  0  0
   -1.0660   -1.1760   -1.2550 C   0  0  0  0  0  0  0  0  0  0  0  0
   -1.8130   -0.6050   -0.0310 C   0  0  2  0  0  0  0  0  0  0  0  0
   -3.2090   -0.9330   -0.1510 C   0  0  0  0  0  0  0  0  0  0  0  0
   -3.6400   -1.9850   -0.8920 N   0  0  0  0  0  0  0  0  0  0  0  0
   -4.9310   -2.0950   -0.7940 N   0  0  0  0  0  0  0  0  0  0  0  0
   -5.4410   -1.1430    0.0020 C   0  0  0  0  0  0  0  0  0  0  0  0
   -6.6620   -0.7710    0.4460 N   0  0  0  0  0  0  0  0  0  0  0  0
   -6.8460    0.2950    1.2690 C   0  0  0  0  0  0  0  0  0  0  0  0
   -5.7660    1.0040    1.6540 N   0  0  0  0  0  0  0  0  0  0  0  0
   -4.5180    0.6720    1.2380 C   0  0  0  0  0  0  0  0  0  0  0  0
   -4.3470   -0.4100    0.4060 C   0  0  0  0  0  0  0  0  0  0  0  0
   -1.3560    0.7690    0.1770 C   0  0  0  0  0  0  0  0  0  0  0  0
    2.3430   -0.6290    0.6420 C   0  0  0  0  0  0  0  0  0  0  0  0
    3.5820   -1.2730    0.5700 C   0  0  0  0  0  0  0  0  0  0  0  0
    4.7330   -0.5320    0.4620 C   0  0  0  0  0  0  0  0  0  0  0  0
    5.9950   -1.1170    0.4060 C   0  0  0  0  0  0  0  0  0  0  0  0
    7.0610   -0.3140    0.3200 N   0  0  0  0  0  0  0  0  0  0  0  0
  1  2  2  0
  1 26  1  0
  2  3  1  0
  3  4  2  0
  3 24  1  0
  4  5  1  0
  5  6  1  0
  5 22  2  0
  6  7  1  0
  7  8  1  0
  7 21  1  0
  8  9  1  0
  9 10  1  0
 10 11  1  0
 11 12  1  6
 11 21  1  0
 12 13  2  0
 12 20  1  0
 13 14  1  0
 14 15  1  0
 15 16  2  0
 15 20  1  0
 16 17  1  0
 17 18  2  0
 18 19  1  0
 19 20  2  0
 22 23  1  0
 23 24  2  0
 24 25  1  0
 25 26  2  0
M  END
