
     RDKit          3D

 13 14  0  0  0  0  0  0  0  0999 V2000
   -2.2320   -1.7880    0.4640 N   0  0  0  0  0  0  0  0  0  0  0  0
   -1.7790   -1.1460   -0.7680 C   0  0  0  0  0  0  0  0  0  0  0  0
   -1.5180    0.3240   -0.5260 C   0  0  0  0  0  0  0  0  0  0  0  0
   -2.4170    1.3080   -0.6640 N   0  0  0  0  0  0  0  0  0  0  0  0
   -1.8300    2.4750   -0.3650 C   0  0  0  0  0  0  0  0  0  0  0  0
   -0.5300    2.2140   -0.0320 C   0  0  0  0  0  0  0  0  0  0  0  0
   -0.3690    0.8880   -0.1390 N   0  0  0  0  0  0  0  0  0  0  0  0
    0.8660    0.2300    0.1300 C   0  0  0  0  0  0  0  0  0  0  0  0
    1.1860   -0.2460    1.3830 C   0  0  0  0  0  0  0  0  0  0  0  0
    2.3900   -0.8790    1.6080 C   0  0  0  0  0  0  0  0  0  0  0  0
    3.2960   -1.0380    0.5540 C   0  0  0  0  0  0  0  0  0  0  0  0
    2.9880   -0.5650   -0.7080 C   0  0  0  0  0  0  0  0  0  0  0  0
    1.7770    0.0660   -0.9160 C   0  0  0  0  0  0  0  0  0  0  0  0
  1  2  1  0
  2  3  1  0
  3  4  2  0
  3  7  1  0
  4  5  1  0
  5  6  2  0
  6  7  1  0
  7  8  1  0
  8  9  2  0
  8 13  1  0
  9 10  1  0
 10 11  2  0
 11 12  1  0
 12 13  2  0
M  CHG  1   4   1
M  END
