
     RDKit          3D

 13 13  0  0  0  0  0  0  0  0999 V2000
   -3.0860   -1.7070    1.1690 C   0  0  0  0  0  0  0  0  0  0  0  0
   -2.5840   -0.8800    0.2820 C   0  0  0  0  0  0  0  0  0  0  0  0
   -1.2090   -1.0680   -0.2230 C   0  0  0  0  0  0  0  0  0  0  0  0
   -0.4530   -0.0110   -0.5110 C   0  0  0  0  0  0  0  0  0  0  0  0
    0.8920   -0.2180   -1.0050 C   0  0  0  0  0  0  0  0  0  0  0  0
    1.9660    0.3140   -0.2450 N   0  0  0  0  0  0  0  0  0  0  0  0
    2.2620    1.7190   -0.0590 C   0  0  0  0  0  0  0  0  0  0  0  0
    2.8600   -0.5900    0.4100 C   0  0  0  0  0  0  0  0  0  0  0  0
    2.6910   -0.7340    1.8070 N   0  0  0  0  0  0  0  0  0  0  0  0
    3.7670   -1.2320   -0.2450 N   0  0  0  0  0  0  0  0  0  0  0  0
   -1.1450    1.2690   -0.2670 C   0  0  0  0  0  0  0  0  0  0  0  0
   -2.4820    1.2260   -0.9960 C   0  0  0  0  0  0  0  0  0  0  0  0
   -3.3820    0.2770   -0.2430 C   0  0  0  0  0  0  0  0  0  0  0  0
  1  2  2  0
  2  3  1  0
  2 13  1  0
  3  4  2  0
  4  5  1  0
  4 11  1  0
  5  6  1  0
  6  7  1  0
  6  8  1  0
  8  9  1  0
  8 10  2  0
 11 12  1  0
 12 13  1  0
M  CHG  1  10   1
M  END
