
     RDKit          3D

 13 14  0  0  0  0  0  0  0  0999 V2000
    4.7080   -0.9560   -0.5330 C   0  0  0  0  0  0  0  0  0  0  0  0
    3.3740   -0.3500   -0.2730 C   0  0  0  0  0  0  0  0  0  0  0  0
    3.2150    0.9460    0.1340 C   0  0  0  0  0  0  0  0  0  0  0  0
    1.9470    1.4280    0.3520 C   0  0  0  0  0  0  0  0  0  0  0  0
    0.8020    0.6460    0.1770 C   0  0  0  0  0  0  0  0  0  0  0  0
   -0.4910    1.1450    0.3980 N   0  0  0  0  0  0  0  0  0  0  0  0
   -1.7150    0.4440    0.3270 C   0  0  0  0  0  0  0  0  0  0  0  0
   -2.7650    0.8160    1.0800 C   0  0  0  0  0  0  0  0  0  0  0  0
   -3.9050   -0.0540    0.8300 C   0  0  0  0  0  0  0  0  0  0  0  0
   -3.5970   -0.5750   -0.4920 N   0  0  0  0  0  0  0  0  0  0  0  0
   -2.1320   -0.7090   -0.4680 C   0  0  0  0  0  0  0  0  0  0  0  0
    1.0400   -0.6370   -0.2300 C   0  0  0  0  0  0  0  0  0  0  0  0
    2.2990   -1.1160   -0.4470 N   0  0  0  0  0  0  0  0  0  0  0  0
  1  2  1  0
  2  3  2  0
  2 13  1  0
  3  4  1  0
  4  5  2  0
  5  6  1  0
  5 12  1  0
  6  7  1  0
  7  8  2  0
  7 11  1  0
  8  9  1  0
  9 10  1  0
 10 11  1  0
 12 13  2  0
M  CHG  1  10   1
M  END
