
     RDKit          3D

 13 13  0  0  0  0  0  0  0  0999 V2000
   -3.7140   -0.7440    1.2300 O   0  0  0  0  0  0  0  0  0  0  0  0
   -3.5780    0.0230    0.0850 C   0  0  0  0  0  0  0  0  0  0  0  0
   -2.3360   -0.3850   -0.7080 C   0  0  0  0  0  0  0  0  0  0  0  0
   -1.1680   -0.1940    0.1340 N   0  0  0  0  0  0  0  0  0  0  0  0
   -0.1820    0.5670   -0.6110 C   0  0  0  0  0  0  0  0  0  0  0  0
    1.2200    0.1350   -0.3130 C   0  0  1  0  0  0  0  0  0  0  0  0
    2.1740    0.9450   -1.1380 C   0  0  1  0  0  0  0  0  0  0  0  0
    3.4830    0.5510   -0.8500 O   0  0  0  0  0  0  0  0  0  0  0  0
    1.9660    0.7050   -2.4860 O   0  0  0  0  0  0  0  0  0  0  0  0
    1.5500    0.1290    1.1450 C   0  0  0  0  0  0  0  0  0  0  0  0
    2.4990   -1.0080    1.2540 C   0  0  0  0  0  0  0  0  0  0  0  0
    2.3610   -1.7290    0.2160 N   0  0  0  0  0  0  0  0  0  0  0  0
    1.4070   -1.2380   -0.6460 O   0  0  0  0  0  0  0  0  0  0  0  0
  1  2  1  0
  2  3  1  0
  3  4  1  0
  4  5  1  0
  6  5  1  1
  6  7  1  0
  6 10  1  0
  6 13  1  0
  7  8  1  1
  7  9  1  0
 10 11  1  0
 11 12  2  0
 12 13  1  0
M  CHG  1   4   1
M  END
