
     RDKit          3D

 13 13  0  0  0  0  0  0  0  0999 V2000
    4.2680   -0.3640    0.3540 N   0  0  0  0  0  0  0  0  0  0  0  0
    3.3560    0.0540   -0.6530 C   0  0  0  0  0  0  0  0  0  0  0  0
    3.7940    0.4740   -1.7350 O   0  0  0  0  0  0  0  0  0  0  0  0
    1.9070   -0.0210   -0.3840 C   0  0  1  0  0  0  0  0  0  0  0  0
    1.1430    0.4150   -1.4430 O   0  0  0  0  0  0  0  0  0  0  0  0
   -0.1790    0.5640   -1.0680 C   0  0  0  0  0  0  0  0  0  0  0  0
   -0.7020   -0.6260   -0.3580 C   0  0  0  0  0  0  0  0  0  0  0  0
   -1.9670   -0.6870   -0.0300 C   0  0  0  0  0  0  0  0  0  0  0  0
   -2.9130    0.4100   -0.3470 C   0  0  0  0  0  0  0  0  0  0  0  0
   -3.4440    0.8770    0.9370 N   0  0  0  0  0  0  0  0  0  0  0  0
    0.1420   -1.6840   -0.0360 O   0  0  0  0  0  0  0  0  0  0  0  0
    1.5070   -1.4180   -0.0790 C   0  0  0  0  0  0  0  0  0  0  0  0
    2.3890   -2.2920    0.1250 O   0  0  0  0  0  0  0  0  0  0  0  0
  1  2  1  0
  2  3  2  0
  4  2  1  6
  4  5  1  0
  4 12  1  0
  5  6  1  0
  6  7  1  0
  7  8  2  3
  7 11  1  0
  8  9  1  0
  9 10  1  0
 11 12  1  0
 12 13  2  0
M  CHG  1  10   1
M  END
