
     RDKit          3D

 12 12  0  0  0  0  0  0  0  0999 V2000
    3.3850    1.3860    0.5280 N   0  0  0  0  0  0  0  0  0  0  0  0
    2.0600    1.4600    0.4340 O   0  0  0  0  0  0  0  0  0  0  0  0
    1.5740    0.6090   -0.5830 C   0  0  0  0  0  0  0  0  0  0  0  0
    0.5520   -0.2680    0.1240 C   0  0  2  0  0  0  0  0  0  0  0  0
    1.1660   -1.6900   -0.0030 C   0  0  0  0  0  0  0  0  0  0  0  0
    0.3410   -2.4960    0.7570 O   0  0  0  0  0  0  0  0  0  0  0  0
   -0.8590   -2.5950    0.0890 C   0  0  0  0  0  0  0  0  0  0  0  0
   -1.6110   -1.2940   -0.0490 C   0  0  0  0  0  0  0  0  0  0  0  0
   -0.7090   -0.2330   -0.3580 N   0  0  0  0  0  0  0  0  0  0  0  0
   -1.3220    1.0490   -0.5370 C   0  0  0  0  0  0  0  0  0  0  0  0
   -2.4220    1.2850    0.4830 C   0  0  0  0  0  0  0  0  0  0  0  0
   -2.7410    2.6360    0.4190 O   0  0  0  0  0  0  0  0  0  0  0  0
  1  2  1  0
  2  3  1  0
  4  3  1  6
  4  5  1  0
  4  9  1  0
  5  6  1  0
  6  7  1  0
  7  8  1  0
  8  9  1  0
  9 10  1  0
 10 11  1  0
 11 12  1  0
M  CHG  1   1   1
M  END
