
     RDKit          3D

 13 13  0  0  0  0  0  0  0  0999 V2000
    0.7230    1.6040    0.6300 C   0  0  0  0  0  0  0  0  0  0  0  0
    0.3200    0.1960    0.3590 C   0  0  1  0  0  0  0  0  0  0  0  0
    1.2290   -0.3460   -0.7460 C   0  0  0  0  0  0  0  0  0  0  0  0
    2.5910   -0.2470   -0.2440 N   0  0  0  0  0  0  0  0  0  0  0  0
    0.5690   -0.6600    1.4870 O   0  0  0  0  0  0  0  0  0  0  0  0
   -0.0430   -1.9260    1.3920 C   0  0  0  0  0  0  0  0  0  0  0  0
    0.4570   -2.8930    2.0390 O   0  0  0  0  0  0  0  0  0  0  0  0
   -1.2500   -2.1540    0.5610 C   0  0  0  0  0  0  0  0  0  0  0  0
   -1.2900   -1.2530   -0.5140 O   0  0  0  0  0  0  0  0  0  0  0  0
   -1.1290    0.0200    0.0220 C   0  0  2  0  0  0  0  0  0  0  0  0
   -1.6680    1.0860   -0.8470 C   0  0  0  0  0  0  0  0  0  0  0  0
   -1.0100    2.0710   -1.2880 N   0  0  0  0  0  0  0  0  0  0  0  0
   -3.0130    0.9660   -1.1890 O   0  0  0  0  0  0  0  0  0  0  0  0
  2  1  1  1
  2  3  1  0
  2  5  1  0
  2 10  1  0
  3  4  1  0
  5  6  1  0
  6  7  2  0
  6  8  1  0
  8  9  1  0
  9 10  1  0
 10 11  1  6
 11 12  2  0
 11 13  1  0
M  CHG  1   4   1
M  END
