
     RDKit          3D

 13 13  0  0  0  0  0  0  0  0999 V2000
    4.5520    0.2790   -0.5390 N   0  0  0  0  0  0  0  0  0  0  0  0
    3.1490    0.3800   -0.3620 C   0  0  0  0  0  0  0  0  0  0  0  0
    2.3940    0.9030   -1.3320 C   0  0  0  0  0  0  0  0  0  0  0  0
    1.0310    0.9750   -1.1020 O   0  0  0  0  0  0  0  0  0  0  0  0
    0.3930   -0.2040   -0.5900 C   0  0  2  0  0  0  0  0  0  0  0  0
   -0.8220    0.2190   -0.0920 O   0  0  0  0  0  0  0  0  0  0  0  0
   -1.8280   -0.3170   -0.8850 C   0  0  0  0  0  0  0  0  0  0  0  0
   -3.2040    0.1000   -0.4060 C   0  0  0  0  0  0  0  0  0  0  0  0
   -3.3880   -0.3440    0.8960 O   0  0  0  0  0  0  0  0  0  0  0  0
   -4.6290    0.0490    1.2870 N   0  0  0  0  0  0  0  0  0  0  0  0
    1.2380   -0.9030    0.4480 C   0  0  0  0  0  0  0  0  0  0  0  0
    2.4300   -0.0630    0.8540 C   0  0  1  0  0  0  0  0  0  0  0  0
    3.2760   -0.7460    1.6900 O   0  0  0  0  0  0  0  0  0  0  0  0
  1  2  1  0
  2  3  2  0
  2 12  1  0
  3  4  1  0
  4  5  1  0
  5  6  1  1
  5 11  1  0
  6  7  1  0
  7  8  1  0
  8  9  1  0
  9 10  1  0
 11 12  1  0
 12 13  1  1
M  CHG  1  10   1
M  END
