
     RDKit          3D

 15 15  0  0  0  0  0  0  0  0999 V2000
    2.7490    1.9400   -0.4850 C   0  0  0  0  0  0  0  0  0  0  0  0
    2.4710    0.6150    0.1580 C   0  0  0  0  0  0  0  0  0  0  0  0
    2.0620    0.6740    1.3450 O   0  0  0  0  0  0  0  0  0  0  0  0
    2.6620   -0.6010   -0.5430 N   0  0  0  0  0  0  0  0  0  0  0  0
    2.3770   -1.8530    0.0970 C   0  0  0  0  0  0  0  0  0  0  0  0
    0.9700   -2.0200    0.4670 C   0  0  0  0  0  0  0  0  0  0  0  0
    0.5880   -3.0760    1.0870 O   0  0  0  0  0  0  0  0  0  0  0  0
   -0.0300   -1.0610    0.1730 N   0  0  0  0  0  0  0  0  0  0  0  0
   -1.4100   -1.2400    0.5640 C   0  0  0  0  0  0  0  0  0  0  0  0
   -1.6340   -2.3320    1.1930 O   0  0  0  0  0  0  0  0  0  0  0  0
   -2.4320   -0.2880    0.2780 C   0  0  0  0  0  0  0  0  0  0  0  0
   -2.3210    0.8470   -0.3490 C   0  0  0  0  0  0  0  0  0  0  0  0
   -3.4550    1.5610   -0.4860 O   0  0  0  0  0  0  0  0  0  0  0  0
   -4.4930    1.3390    0.4110 C   0  0  0  0  0  0  0  0  0  0  0  0
   -4.1420   -0.4470    0.7430 S   0  0  0  0  0  0  0  0  0  0  0  0
  1  2  1  0
  2  3  2  0
  2  4  1  0
  4  5  1  0
  5  6  1  0
  6  7  2  0
  6  8  1  0
  8  9  1  0
  9 10  2  0
  9 11  1  0
 11 12  2  0
 11 15  1  0
 12 13  1  0
 13 14  1  0
 14 15  1  0
M  END
