
     RDKit          3D

 15 15  0  0  0  0  0  0  0  0999 V2000
    4.0220   -1.1010   -1.1960 N   0  0  0  0  0  0  0  0  0  0  0  0
    3.5950   -0.7950    0.1050 C   0  0  0  0  0  0  0  0  0  0  0  0
    4.0660   -1.3850    1.1010 O   0  0  0  0  0  0  0  0  0  0  0  0
    2.5830    0.2300    0.3020 C   0  0  0  0  0  0  0  0  0  0  0  0
    2.0870    0.8480   -0.7010 O   0  0  0  0  0  0  0  0  0  0  0  0
    2.1160    0.5840    1.5530 O   0  0  0  0  0  0  0  0  0  0  0  0
    1.1370    1.5680    1.7190 C   0  0  0  0  0  0  0  0  0  0  0  0
   -0.1650    1.2190    1.0930 C   0  0  0  0  0  0  0  0  0  0  0  0
   -1.1140    2.0840    1.0950 O   0  0  0  0  0  0  0  0  0  0  0  0
   -0.4560   -0.0190    0.4790 N   0  0  0  0  0  0  0  0  0  0  0  0
   -1.7880   -0.2410   -0.1110 C   0  0  0  0  0  0  0  0  0  0  0  0
   -1.9980   -0.5120   -1.3540 C   0  0  0  0  0  0  0  0  0  0  0  0
   -3.3740   -0.7110   -1.8130 C   0  0  0  0  0  0  0  0  0  0  0  0
   -4.1740   -1.0980   -0.1940 S   0  0  0  0  0  0  0  0  0  0  0  0
   -2.9700   -0.1400    0.7640 C   0  0  0  0  0  0  0  0  0  0  0  0
  1  2  1  0
  2  3  2  0
  2  4  1  0
  4  5  2  0
  4  6  1  0
  6  7  1  0
  7  8  1  0
  8  9  2  0
  8 10  1  0
 10 11  1  0
 11 12  2  0
 11 15  1  0
 12 13  1  0
 13 14  1  0
 14 15  1  0
M  END
