
     RDKit          3D

 15 15  0  0  0  0  0  0  0  0999 V2000
   -5.1110   -0.7800    0.6270 O   0  0  0  0  0  0  0  0  0  0  0  0
   -4.7920    0.4380    0.7100 C   0  0  0  0  0  0  0  0  0  0  0  0
   -3.4470    0.8760    0.5680 N   0  0  0  0  0  0  0  0  0  0  0  0
   -2.4600   -0.1550    0.3240 C   0  0  0  0  0  0  0  0  0  0  0  0
   -1.0860    0.4730    0.1990 C   0  0  0  0  0  0  0  0  0  0  0  0
   -0.9650    1.7020    0.3090 O   0  0  0  0  0  0  0  0  0  0  0  0
    0.0410   -0.3360   -0.0420 N   0  0  0  0  0  0  0  0  0  0  0  0
    1.3900    0.0800   -0.1860 C   0  0  0  0  0  0  0  0  0  0  0  0
    1.7370    1.3940   -0.0980 C   0  0  0  0  0  0  0  0  0  0  0  0
    3.4160    1.7800   -0.2910 S   0  0  0  0  0  0  0  0  0  0  0  0
    4.3680    0.4130   -0.5640 C   0  0  0  0  0  0  0  0  0  0  0  0
    5.6230    0.3980   -0.7400 O   0  0  0  0  0  0  0  0  0  0  0  0
    3.6560   -0.7680   -0.5870 C   0  0  0  0  0  0  0  0  0  0  0  0
    2.3230   -0.9330   -0.4200 C   0  0  0  0  0  0  0  0  0  0  0  0
    1.8210   -2.2420   -0.4850 O   0  0  0  0  0  0  0  0  0  0  0  0
  1  2  2  0
  2  3  1  0
  3  4  1  0
  4  5  1  0
  5  6  2  0
  5  7  1  0
  7  8  1  0
  8  9  2  0
  8 14  1  0
  9 10  1  0
 10 11  1  0
 11 12  2  0
 11 13  1  0
 13 14  2  0
 14 15  1  0
M  END
