
     RDKit          3D

 33 37  0  0  0  0  0  0  0  0999 V2000
   -1.3420    2.0840    1.2100 C   0  0  0  0  0  0  0  0  0  0  0  0
   -0.6230    0.7810    1.0490 C   0  0  0  0  0  0  0  0  0  0  0  0
    0.7390    0.7670    1.2570 C   0  0  0  0  0  0  0  0  0  0  0  0
    1.5160   -0.4020    1.1880 C   0  0  0  0  0  0  0  0  0  0  0  0
    2.9550   -0.2500    1.3910 C   0  0  0  0  0  0  0  0  0  0  0  0
    3.4310   -0.3750    2.5250 O   0  0  0  0  0  0  0  0  0  0  0  0
    3.7210    0.0520    0.2310 N   0  0  0  0  0  0  0  0  0  0  0  0
    5.1370    0.2760    0.2770 C   0  0  2  0  0  0  0  0  0  0  0  0
    5.4520    1.4920   -0.5870 C   0  0  0  0  0  0  0  0  0  0  0  0
    6.9530    1.5950   -0.8150 C   0  0  0  0  0  0  0  0  0  0  0  0
    7.6320    0.6650    0.0280 N   0  0  2  0  0  0  0  0  0  0  0  0
    9.0520    0.6890   -0.1030 C   0  0  0  0  0  0  0  0  0  0  0  0
    9.4830   -0.6700    0.4790 C   0  0  0  0  0  0  0  0  0  0  0  0
    8.1990   -1.5070    0.4700 C   0  0  0  0  0  0  0  0  0  0  0  0
    7.3220   -0.6770   -0.4530 C   0  0  1  0  0  0  0  0  0  0  0  0
    5.8580   -0.9440   -0.2790 C   0  0  0  0  0  0  0  0  0  0  0  0
    0.8640   -1.5740    0.9010 C   0  0  0  0  0  0  0  0  0  0  0  0
   -0.4950   -1.5640    0.6870 C   0  0  0  0  0  0  0  0  0  0  0  0
   -1.2550   -0.3700    0.7590 C   0  0  0  0  0  0  0  0  0  0  0  0
   -2.6710   -0.4520    0.3860 C   0  0  0  0  0  0  0  0  0  0  0  0
   -3.5100    0.5490   -0.0540 C   0  0  0  0  0  0  0  0  0  0  0  0
   -4.7400    0.0120   -0.3840 C   0  0  0  0  0  0  0  0  0  0  0  0
   -5.9400    0.7520   -0.8180 C   0  0  0  0  0  0  0  0  0  0  0  0
   -5.6090    2.1920   -0.8990 N   0  0  1  0  0  0  0  0  0  0  0  0
   -6.7100    2.8570   -1.5770 C   0  0  0  0  0  0  0  0  0  0  0  0
   -5.4940    2.6720    0.4800 C   0  0  0  0  0  0  0  0  0  0  0  0
   -4.6670   -1.3460   -0.1560 C   0  0  0  0  0  0  0  0  0  0  0  0
   -5.6150   -2.3730   -0.5570 C   0  0  1  0  0  0  0  0  0  0  0  0
   -6.5360   -2.9120    0.5080 C   0  0  0  0  0  0  0  0  0  0  0  0
   -7.9180   -2.5470   -0.0670 C   0  0  0  0  0  0  0  0  0  0  0  0
   -7.7330   -1.9120   -1.2950 O   0  0  0  0  0  0  0  0  0  0  0  0
   -6.4490   -2.2280   -1.7550 C   0  0  0  0  0  0  0  0  0  0  0  0
   -3.4040   -1.5750    0.3110 N   0  0  0  0  0  0  0  0  0  0  0  0
  1  2  1  0
  2  3  2  0
  2 19  1  0
  3  4  1  0
  4  5  1  0
  4 17  2  0
  5  6  2  0
  5  7  1  0
  8  7  1  6
  8  9  1  0
  8 16  1  0
  9 10  1  0
 11 10  1  6
 11 12  1  0
 11 15  1  0
 12 13  1  0
 13 14  1  0
 15 14  1  1
 15 16  1  0
 17 18  1  0
 18 19  2  0
 19 20  1  0
 20 21  2  0
 20 33  1  0
 21 22  1  0
 22 23  1  0
 22 27  2  0
 23 24  1  0
 24 25  1  1
 24 26  1  0
 28 27  1  1
 27 33  1  0
 28 29  1  0
 28 32  1  0
 29 30  1  0
 30 31  1  0
 31 32  1  0
M  CHG  2  11   1  24   1
M  END
