
     RDKit          3D

 33 37  0  0  0  0  0  0  0  0999 V2000
    2.2430    2.7850   -1.5820 C   0  0  0  0  0  0  0  0  0  0  0  0
    1.2420    2.2350   -0.7190 N   0  0  1  0  0  0  0  0  0  0  0  0
    0.1970    1.5160   -1.4710 C   0  0  0  0  0  0  0  0  0  0  0  0
   -0.9410    1.3950   -0.4760 C   0  0  0  0  0  0  0  0  0  0  0  0
   -0.6260    0.7820    0.6400 C   0  0  0  0  0  0  0  0  0  0  0  0
   -1.5510    0.5480    1.7380 C   0  0  0  0  0  0  0  0  0  0  0  0
   -2.9440    1.0110    1.5330 C   0  0  0  0  0  0  0  0  0  0  0  0
   -3.6390    0.3730    0.4500 N   0  0  0  0  0  0  0  0  0  0  0  0
   -4.7520   -0.4550    0.9590 C   0  0  2  0  0  0  0  0  0  0  0  0
   -4.3410   -1.8860    1.0920 C   0  0  0  0  0  0  0  0  0  0  0  0
   -5.0480   -2.8360    0.1770 C   0  0  0  0  0  0  0  0  0  0  0  0
   -5.3440   -2.1730   -1.1660 C   0  0  0  0  0  0  0  0  0  0  0  0
   -6.2870   -1.0570   -0.8540 C   0  0  0  0  0  0  0  0  0  0  0  0
   -7.4180   -0.9050   -1.6200 C   0  0  0  0  0  0  0  0  0  0  0  0
   -8.2730    0.1440   -1.2990 C   0  0  0  0  0  0  0  0  0  0  0  0
   -8.0110    1.0020   -0.2620 C   0  0  0  0  0  0  0  0  0  0  0  0
   -6.8570    0.8010    0.4750 C   0  0  0  0  0  0  0  0  0  0  0  0
   -5.9790   -0.2330    0.1870 C   0  0  0  0  0  0  0  0  0  0  0  0
    0.8030    0.3080    0.7410 C   0  0  0  0  0  0  0  0  0  0  0  0
    1.7330    1.4800    0.3900 C   0  0  1  0  0  0  0  0  0  0  0  0
    3.0990    0.9280    0.2170 C   0  0  0  0  0  0  0  0  0  0  0  0
    3.5010    0.2930   -0.9300 C   0  0  0  0  0  0  0  0  0  0  0  0
    4.7830   -0.1950   -1.0260 C   0  0  0  0  0  0  0  0  0  0  0  0
    5.7130   -0.0830   -0.0120 C   0  0  0  0  0  0  0  0  0  0  0  0
    5.3110    0.5560    1.1440 C   0  0  0  0  0  0  0  0  0  0  0  0
    4.0200    1.0460    1.2360 C   0  0  0  0  0  0  0  0  0  0  0  0
    6.3700    0.5480    1.9830 N   0  0  0  0  0  0  0  0  0  0  0  0
    7.3910   -0.0720    1.3700 C   0  0  0  0  0  0  0  0  0  0  0  0
    8.5320   -0.2350    1.9150 O   0  0  0  0  0  0  0  0  0  0  0  0
    6.9930   -0.4580    0.1530 N   0  0  0  0  0  0  0  0  0  0  0  0
    7.7710   -1.1570   -0.8380 C   0  0  0  0  0  0  0  0  0  0  0  0
    7.6650   -2.6610   -0.7180 C   0  0  0  0  0  0  0  0  0  0  0  0
    8.0940   -3.1470    0.4950 O   0  0  0  0  0  0  0  0  0  0  0  0
  2  1  1  6
  2  3  1  0
  2 20  1  0
  3  4  1  0
  4  5  2  0
  5  6  1  0
  5 19  1  0
  6  7  1  0
  7  8  1  0
  9  8  1  6
  9 10  1  0
  9 18  1  0
 10 11  1  0
 11 12  1  0
 12 13  1  0
 13 14  2  0
 13 18  1  0
 14 15  1  0
 15 16  2  0
 16 17  1  0
 17 18  2  0
 19 20  1  0
 20 21  1  6
 21 22  2  0
 21 26  1  0
 22 23  1  0
 23 24  2  0
 24 25  1  0
 24 30  1  0
 25 26  2  0
 25 27  1  0
 27 28  1  0
 28 29  2  0
 28 30  1  0
 30 31  1  0
 31 32  1  0
 32 33  1  0
M  CHG  2   2   1   8   1
M  END
