
     RDKit          3D

 32 35  0  0  0  0  0  0  0  0999 V2000
   -8.5740    0.8820    1.1900 C   0  0  0  0  0  0  0  0  0  0  0  0
   -7.8300   -0.2470    0.8210 O   0  0  0  0  0  0  0  0  0  0  0  0
   -6.4640   -0.1040    0.5490 C   0  0  0  0  0  0  0  0  0  0  0  0
   -5.8540    1.1290    0.6410 C   0  0  0  0  0  0  0  0  0  0  0  0
   -4.5120    1.3300    0.3850 C   0  0  0  0  0  0  0  0  0  0  0  0
   -3.9450    2.5590    0.4860 N   0  0  0  0  0  0  0  0  0  0  0  0
   -2.6410    2.7810    0.2410 C   0  0  0  0  0  0  0  0  0  0  0  0
   -1.8660    1.7040   -0.1250 C   0  0  0  0  0  0  0  0  0  0  0  0
   -2.4230    0.4390   -0.2350 C   0  0  0  0  0  0  0  0  0  0  0  0
   -1.6610   -0.6600   -0.6020 O   0  0  0  0  0  0  0  0  0  0  0  0
   -0.3130   -0.4570   -0.8590 C   0  0  0  0  0  0  0  0  0  0  0  0
    0.6310   -0.5580    0.1390 C   0  0  0  0  0  0  0  0  0  0  0  0
    1.9780   -0.3590   -0.0980 C   0  0  0  0  0  0  0  0  0  0  0  0
    2.4310   -0.0480   -1.3560 C   0  0  0  0  0  0  0  0  0  0  0  0
    3.7710    0.1770   -1.7210 N   0  0  0  0  0  0  0  0  0  0  0  0
    4.8980    0.1230   -0.8540 C   0  0  0  0  0  0  0  0  0  0  0  0
    4.7370   -0.1450    0.3520 O   0  0  0  0  0  0  0  0  0  0  0  0
    6.2180    0.3770   -1.3740 N   0  0  0  0  0  0  0  0  0  0  0  0
    7.3410    0.3290   -0.5390 C   0  0  0  0  0  0  0  0  0  0  0  0
    7.4660    0.0650    0.8020 C   0  0  0  0  0  0  0  0  0  0  0  0
    8.8270    0.1480    1.1320 C   0  0  0  0  0  0  0  0  0  0  0  0
    9.3580   -0.0760    2.5000 C   0  0  0  0  0  0  0  0  0  0  0  0
    9.4460    0.4460    0.0290 O   0  0  0  0  0  0  0  0  0  0  0  0
    8.6250    0.5590   -0.9570 N   0  0  0  0  0  0  0  0  0  0  0  0
    1.4980    0.0650   -2.4010 C   0  0  0  0  0  0  0  0  0  0  0  0
    2.0200    0.4610   -4.0350 Cl  0  0  0  0  0  0  0  0  0  0  0  0
    0.1740   -0.1430   -2.1090 C   0  0  0  0  0  0  0  0  0  0  0  0
   -3.7740    0.2230    0.0210 C   0  0  0  0  0  0  0  0  0  0  0  0
   -4.3640   -1.0200   -0.0770 C   0  0  0  0  0  0  0  0  0  0  0  0
   -5.7140   -1.2080    0.1830 C   0  0  0  0  0  0  0  0  0  0  0  0
   -6.3230   -2.4520    0.0890 O   0  0  0  0  0  0  0  0  0  0  0  0
   -5.5280   -3.5660   -0.2880 C   0  0  0  0  0  0  0  0  0  0  0  0
  1  2  1  0
  2  3  1  0
  3  4  2  0
  3 30  1  0
  4  5  1  0
  5  6  2  0
  5 28  1  0
  6  7  1  0
  7  8  2  0
  8  9  1  0
  9 10  1  0
  9 28  2  0
 10 11  1  0
 11 12  2  0
 11 27  1  0
 12 13  1  0
 13 14  2  0
 14 15  1  0
 14 25  1  0
 15 16  1  0
 16 17  2  0
 16 18  1  0
 18 19  1  0
 19 20  1  0
 19 24  2  0
 20 21  2  0
 21 22  1  0
 21 23  1  0
 23 24  1  0
 25 26  1  0
 25 27  2  0
 28 29  1  0
 29 30  2  0
 30 31  1  0
 31 32  1  0
M  END
