
     RDKit          3D

 32 35  0  0  0  0  0  0  0  0999 V2000
   -2.6740    5.1220    0.0040 C   0  0  0  0  0  0  0  0  0  0  0  0
   -3.1680    4.1510   -0.9520 N   0  0  0  0  0  0  0  0  0  0  0  0
   -4.4520    3.6380   -0.6520 C   0  0  0  0  0  0  0  0  0  0  0  0
   -4.5550    2.3510    0.0540 C   0  0  0  0  0  0  0  0  0  0  0  0
   -3.3830    1.4460   -0.1090 C   0  0  0  0  0  0  0  0  0  0  0  0
   -2.3350    1.8760   -0.7320 C   0  0  0  0  0  0  0  0  0  0  0  0
   -2.1790    3.1860   -1.3220 C   0  0  0  0  0  0  0  0  0  0  0  0
   -1.1690    0.9690   -0.6960 C   0  0  0  0  0  0  0  0  0  0  0  0
    0.0010    1.5140   -0.8580 N   0  0  0  0  0  0  0  0  0  0  0  0
    1.1890    0.7680   -0.8220 C   0  0  0  0  0  0  0  0  0  0  0  0
    2.4800    1.3290   -1.0300 N   0  0  0  0  0  0  0  0  0  0  0  0
    3.7120    0.5570   -1.0020 C   0  0  0  0  0  0  0  0  0  0  0  0
    3.9650    0.1000    0.3690 C   0  0  0  0  0  0  0  0  0  0  0  0
    3.1170    0.4510    1.2580 O   0  0  0  0  0  0  0  0  0  0  0  0
    5.0710   -0.7010    0.7830 N   0  0  0  0  0  0  0  0  0  0  0  0
    5.1430   -1.0820    2.2110 C   0  0  0  0  0  0  0  0  0  0  0  0
    6.1060   -1.1310   -0.1190 C   0  0  0  0  0  0  0  0  0  0  0  0
    7.2980   -0.2430   -0.1940 C   0  0  2  0  0  0  0  0  0  0  0  0
    7.0180    1.0160   -0.5980 F   0  0  0  0  0  0  0  0  0  0  0  0
    8.1740   -0.8140   -1.1100 F   0  0  0  0  0  0  0  0  0  0  0  0
    1.0960   -0.4540   -0.6020 N   0  0  0  0  0  0  0  0  0  0  0  0
   -0.1190   -1.2490   -0.3580 C   0  0  2  0  0  0  0  0  0  0  0  0
    0.0460   -1.7180    1.0790 C   0  0  0  0  0  0  0  0  0  0  0  0
    0.0690   -2.4180   -1.3250 C   0  0  0  0  0  0  0  0  0  0  0  0
   -1.3620   -0.5030   -0.6050 C   0  0  1  0  0  0  0  0  0  0  0  0
   -2.5940   -0.8460    0.1020 C   0  0  0  0  0  0  0  0  0  0  0  0
   -3.0570   -2.1250    0.6100 C   0  0  0  0  0  0  0  0  0  0  0  0
   -4.2410   -2.2900    1.2330 C   0  0  0  0  0  0  0  0  0  0  0  0
   -4.4200   -3.6780    1.6170 C   0  0  0  0  0  0  0  0  0  0  0  0
   -3.2420   -4.3530    1.1370 C   0  0  0  0  0  0  0  0  0  0  0  0
   -2.4670   -3.4200    0.5590 C   0  0  0  0  0  0  0  0  0  0  0  0
   -3.4920    0.1300    0.2940 N   0  0  0  0  0  0  0  0  0  0  0  0
  1  2  1  0
  2  3  1  0
  2  7  1  0
  3  4  1  0
  4  5  1  0
  5  6  2  0
  5 32  1  0
  6  7  1  0
  6  8  1  0
  8  9  2  0
  8 25  1  0
  9 10  1  0
 10 11  1  0
 10 21  2  0
 11 12  1  0
 12 13  1  0
 13 14  2  0
 13 15  1  0
 15 16  1  0
 15 17  1  0
 17 18  1  0
 18 19  1  6
 18 20  1  0
 21 22  1  0
 22 23  1  1
 22 24  1  0
 22 25  1  0
 25 26  1  1
 26 27  1  0
 26 32  2  0
 27 28  2  0
 27 31  1  0
 28 29  1  0
 29 30  1  0
 30 31  2  0
M  END
