
     RDKit          3D

 32 36  0  0  0  0  0  0  0  0999 V2000
   -7.1840   -0.8170   -0.6080 C   0  0  0  0  0  0  0  0  0  0  0  0
   -7.1770    0.3680   -0.1020 C   0  0  0  0  0  0  0  0  0  0  0  0
   -6.0380    1.1830    0.2740 C   0  0  0  0  0  0  0  0  0  0  0  0
   -6.2440    2.3940    0.7870 C   0  0  0  0  0  0  0  0  0  0  0  0
   -5.1600    3.3080    1.2040 C   0  0  0  0  0  0  0  0  0  0  0  0
   -3.8130    2.7370    0.9920 C   0  0  0  0  0  0  0  0  0  0  0  0
   -3.5840    1.5380    0.4850 C   0  0  0  0  0  0  0  0  0  0  0  0
   -2.3900    0.8000    0.1990 N   0  0  0  0  0  0  0  0  0  0  0  0
   -2.8390   -0.5660    0.0240 C   0  0  2  0  0  0  0  0  0  0  0  0
   -2.7900   -1.3540    1.2970 C   0  0  0  0  0  0  0  0  0  0  0  0
   -1.3960   -1.4990    1.8530 C   0  0  0  0  0  0  0  0  0  0  0  0
   -0.4700   -1.6790    0.7540 N   0  0  0  0  0  0  0  0  0  0  0  0
    0.8830   -1.3410    0.9370 C   0  0  0  0  0  0  0  0  0  0  0  0
    1.2920   -0.8940    2.0160 O   0  0  0  0  0  0  0  0  0  0  0  0
    1.8360   -1.5230   -0.1890 C   0  0  0  0  0  0  0  0  0  0  0  0
    3.2400   -1.0880    0.2500 C   0  0  0  0  0  0  0  0  0  0  0  0
    4.1400   -1.3060   -0.9460 C   0  0  0  0  0  0  0  0  0  0  0  0
    5.5090   -0.9310   -0.6670 N   0  0  0  0  0  0  0  0  0  0  0  0
    6.4860   -1.7210   -0.1730 C   0  0  0  0  0  0  0  0  0  0  0  0
    7.6260   -1.0150   -0.0490 N   0  0  0  0  0  0  0  0  0  0  0  0
    7.4020    0.2560   -0.4660 C   0  0  0  0  0  0  0  0  0  0  0  0
    8.2140    1.3690   -0.5480 C   0  0  0  0  0  0  0  0  0  0  0  0
    7.6960    2.5520   -1.0230 C   0  0  0  0  0  0  0  0  0  0  0  0
    8.4770    3.6800   -1.1180 F   0  0  0  0  0  0  0  0  0  0  0  0
    6.3720    2.5950   -1.4070 C   0  0  0  0  0  0  0  0  0  0  0  0
    5.8700    3.7630   -1.8730 F   0  0  0  0  0  0  0  0  0  0  0  0
    5.5880    1.4820   -1.3170 C   0  0  0  0  0  0  0  0  0  0  0  0
    6.0680    0.2750   -0.8460 C   0  0  0  0  0  0  0  0  0  0  0  0
   -1.0050   -2.2040   -0.4860 C   0  0  0  0  0  0  0  0  0  0  0  0
   -1.9690   -1.2000   -1.0380 C   0  0  0  0  0  0  0  0  0  0  0  0
   -4.2210   -0.4580   -0.3840 N   0  0  0  0  0  0  0  0  0  0  0  0
   -4.7110    0.7490    0.1210 N   0  0  0  0  0  0  0  0  0  0  0  0
  1  2  2  0
  2  3  1  0
  3  4  2  0
  3 32  1  0
  4  5  1  0
  5  6  1  0
  6  7  2  0
  7  8  1  0
  7 32  1  0
  8  9  1  0
  9 10  1  1
  9 30  1  0
  9 31  1  0
 10 11  1  0
 11 12  1  0
 12 13  1  0
 12 29  1  0
 13 14  2  0
 13 15  1  0
 15 16  1  0
 16 17  1  0
 17 18  1  0
 18 19  1  0
 18 28  1  0
 19 20  2  0
 20 21  1  0
 21 22  2  0
 21 28  1  0
 22 23  1  0
 23 24  1  0
 23 25  2  0
 25 26  1  0
 25 27  1  0
 27 28  2  0
 29 30  1  0
 31 32  1  0
M  END
