
     RDKit          3D

 27 29  0  0  0  0  0  0  0  0999 V2000
   -8.6980   -0.1240   -0.7810 C   0  0  0  0  0  0  0  0  0  0  0  0
   -7.4840   -0.8610   -0.8590 N   0  0  0  0  0  0  0  0  0  0  0  0
   -6.1770   -0.5810   -0.4510 C   0  0  0  0  0  0  0  0  0  0  0  0
   -4.8510   -1.8150   -0.7260 S   0  0  0  0  0  0  0  0  0  0  0  0
   -3.5560   -0.8930   -0.0320 C   0  0  0  0  0  0  0  0  0  0  0  0
   -2.1500   -1.3080    0.0900 C   0  0  0  0  0  0  0  0  0  0  0  0
   -1.7500   -2.4120   -0.2930 O   0  0  0  0  0  0  0  0  0  0  0  0
   -1.2640   -0.4300    0.6490 O   0  0  0  0  0  0  0  0  0  0  0  0
    0.0920   -0.5880    0.8700 C   0  0  0  0  0  0  0  0  0  0  0  0
    0.9210   -0.8530   -0.3060 C   0  0  0  0  0  0  0  0  0  0  0  0
    0.4110   -0.9970   -1.4420 O   0  0  0  0  0  0  0  0  0  0  0  0
    2.3260   -0.9510   -0.1750 N   0  0  0  0  0  0  0  0  0  0  0  0
    3.0370   -0.7970    1.0690 C   0  0  0  0  0  0  0  0  0  0  0  0
    4.4900   -0.8040    0.6920 C   0  0  0  0  0  0  0  0  0  0  0  0
    4.4800   -0.5020   -0.7400 C   0  0  0  0  0  0  0  0  0  0  0  0
    5.3230    0.2280   -1.4110 C   0  0  0  0  0  0  0  0  0  0  0  0
    6.4710    0.8960   -0.8140 C   0  0  0  0  0  0  0  0  0  0  0  0
    6.8970    2.1830   -1.1640 C   0  0  0  0  0  0  0  0  0  0  0  0
    7.9840    2.4610   -0.4170 N   0  0  0  0  0  0  0  0  0  0  0  0
    8.2410    1.4390    0.3540 N   0  0  0  0  0  0  0  0  0  0  0  0
    7.3510    0.4630    0.1500 C   0  0  0  0  0  0  0  0  0  0  0  0
    3.2870   -1.2130   -1.2560 C   0  0  0  0  0  0  0  0  0  0  0  0
   -4.1520    0.2570    0.3620 C   0  0  0  0  0  0  0  0  0  0  0  0
   -3.2730    1.3100    1.0290 C   0  0  0  0  0  0  0  0  0  0  0  0
   -5.4840    0.4160    0.1500 C   0  0  0  0  0  0  0  0  0  0  0  0
   -6.2100    1.6670    0.5610 C   0  0  0  0  0  0  0  0  0  0  0  0
   -7.3940    1.8880    0.4070 O   0  0  0  0  0  0  0  0  0  0  0  0
  1  2  1  0
  2  3  1  0
  3  4  1  0
  3 25  2  0
  4  5  1  0
  5  6  1  0
  5 23  2  0
  6  7  2  0
  6  8  1  0
  8  9  1  0
  9 10  1  0
 10 11  2  0
 10 12  1  0
 12 13  1  0
 12 22  1  0
 13 14  1  0
 14 15  1  0
 15 16  2  3
 15 22  1  0
 16 17  1  0
 17 18  1  0
 17 21  2  0
 18 19  2  0
 19 20  1  0
 20 21  1  0
 23 24  1  0
 23 25  1  0
 25 26  1  0
 26 27  2  0
M  END
