
     RDKit          3D

 27 29  0  0  0  0  0  0  0  0999 V2000
    7.7440    0.8880    1.1820 C   0  0  0  0  0  0  0  0  0  0  0  0
    7.0930   -0.4580    1.4130 C   0  0  0  0  0  0  0  0  0  0  0  0
    6.2250   -0.7530    0.2640 C   0  0  0  0  0  0  0  0  0  0  0  0
    6.1100    0.0450   -0.7010 O   0  0  0  0  0  0  0  0  0  0  0  0
    5.4550   -1.9630    0.1650 N   0  0  0  0  0  0  0  0  0  0  0  0
    4.6440   -2.1970   -0.9490 N   0  0  0  0  0  0  0  0  0  0  0  0
    3.5420   -1.5580   -1.1550 C   0  0  0  0  0  0  0  0  0  0  0  0
    3.1140   -0.5560   -0.2060 C   0  0  0  0  0  0  0  0  0  0  0  0
    1.9620    0.0910   -0.4510 C   0  0  0  0  0  0  0  0  0  0  0  0
    1.3490    1.0180    0.2140 O   0  0  0  0  0  0  0  0  0  0  0  0
    0.2250    1.4040   -0.3610 C   0  0  0  0  0  0  0  0  0  0  0  0
   -0.6490    2.4500    0.2080 C   0  0  0  0  0  0  0  0  0  0  0  0
   -1.7850    1.8310    1.4230 S   0  0  0  0  0  0  0  0  0  0  0  0
   -3.0590    0.8290    0.7230 C   0  0  0  0  0  0  0  0  0  0  0  0
   -3.8730    0.1320    1.4620 N   0  0  0  0  0  0  0  0  0  0  0  0
   -4.8110   -0.5930    0.6620 C   0  0  1  0  0  0  0  0  0  0  0  0
   -6.2480   -0.2070    0.9650 C   0  0  2  0  0  0  0  0  0  0  0  0
   -7.1830   -0.9990    0.0970 C   0  0  0  0  0  0  0  0  0  0  0  0
   -6.4490    1.2720    0.8160 C   0  0  0  0  0  0  0  0  0  0  0  0
   -4.4300   -0.2600   -0.7200 C   0  0  0  0  0  0  0  0  0  0  0  0
   -4.9360   -0.6650   -1.7910 O   0  0  0  0  0  0  0  0  0  0  0  0
   -3.3350    0.6450   -0.6530 N   0  0  0  0  0  0  0  0  0  0  0  0
    0.0850    0.6780   -1.4910 C   0  0  0  0  0  0  0  0  0  0  0  0
    1.2040   -0.1720   -1.5550 C   0  0  0  0  0  0  0  0  0  0  0  0
    1.5060   -1.0720   -2.4890 C   0  0  0  0  0  0  0  0  0  0  0  0
    2.7450   -1.8450   -2.3290 C   0  0  0  0  0  0  0  0  0  0  0  0
    3.1190   -2.7130   -3.1490 O   0  0  0  0  0  0  0  0  0  0  0  0
  1  2  1  0
  2  3  1  0
  3  4  2  0
  3  5  1  0
  5  6  1  0
  6  7  2  3
  7  8  1  0
  7 26  1  0
  8  9  2  0
  9 10  1  0
  9 24  1  0
 10 11  1  0
 11 12  1  0
 11 23  2  0
 12 13  1  0
 13 14  1  0
 14 15  2  0
 14 22  1  0
 16 15  1  1
 16 17  1  0
 16 20  1  0
 17 18  1  6
 17 19  1  0
 20 21  2  0
 20 22  1  0
 23 24  1  0
 24 25  2  0
 25 26  1  0
 26 27  2  0
M  END
