
     RDKit          3D

 24 26  0  0  0  0  0  0  0  0999 V2000
    0.1840   -2.7470    0.0130 C   0  0  0  0  0  0  0  0  0  0  0  0
   -1.2530   -2.4040    0.0630 C   0  0  0  0  0  0  0  0  0  0  0  0
   -1.7270   -1.2240    0.4130 C   0  0  0  0  0  0  0  0  0  0  0  0
   -1.4440    0.1350    0.8460 C   0  0  0  0  0  0  0  0  0  0  0  0
    0.0440    0.6950    1.5680 S   0  0  2  0  0  0  0  0  0  0  0  0
    0.6740   -0.2920    2.4680 O   0  0  0  0  0  0  0  0  0  0  0  0
   -0.3110    1.8920    2.4800 O   0  0  0  0  0  0  0  0  0  0  0  0
    1.1630    1.3230    0.4500 N   0  0  0  0  0  0  0  0  0  0  0  0
    2.4340    0.7800    0.1500 C   0  0  0  0  0  0  0  0  0  0  0  0
    2.8640   -0.4510    0.5690 C   0  0  0  0  0  0  0  0  0  0  0  0
    4.1240   -0.9480    0.2530 C   0  0  0  0  0  0  0  0  0  0  0  0
    4.5200   -2.2300    0.7130 N   0  0  0  0  0  0  0  0  0  0  0  0
    4.9690   -0.1810   -0.5070 C   0  0  0  0  0  0  0  0  0  0  0  0
    4.5460    1.0590   -0.9340 C   0  0  0  0  0  0  0  0  0  0  0  0
    3.3100    1.5610   -0.6310 C   0  0  0  0  0  0  0  0  0  0  0  0
    2.8980    2.8590   -1.0900 N   0  0  0  0  0  0  0  0  0  0  0  0
   -2.4960    0.9360    0.6120 C   0  0  0  0  0  0  0  0  0  0  0  0
   -2.5520    2.3170    0.9130 N   0  0  0  0  0  0  0  0  0  0  0  0
   -2.7550    3.2630   -0.1570 C   0  0  0  0  0  0  0  0  0  0  0  0
   -2.7860    4.9400    0.5110 S   0  0  0  0  0  0  0  0  0  0  0  0
   -3.6080    0.1340   -0.0200 C   0  0  0  0  0  0  0  0  0  0  0  0
   -3.2470   -1.2820    0.3710 C   0  0  1  0  0  0  0  0  0  0  0  0
   -3.4550   -2.2950   -0.7160 C   0  0  0  0  0  0  0  0  0  0  0  0
   -2.3740   -3.3200   -0.2930 C   0  0  0  0  0  0  0  0  0  0  0  0
  1  2  1  0
  2  3  2  0
  2 24  1  0
  3  4  1  0
  3 22  1  0
  4  5  1  0
  4 17  2  0
  5  6  2  0
  5  7  2  0
  5  8  1  6
  8  9  1  0
  9 10  2  0
  9 15  1  0
 10 11  1  0
 11 12  1  0
 11 13  2  0
 13 14  1  0
 14 15  2  0
 15 16  1  0
 17 18  1  0
 17 21  1  0
 18 19  1  0
 19 20  1  0
 22 21  1  6
 22 23  1  0
 23 24  1  0
M  END
