
     RDKit          3D

 24 25  0  0  0  0  0  0  0  0999 V2000
   -5.9230    1.3550   -1.8450 C   0  0  0  0  0  0  0  0  0  0  0  0
   -4.7990    1.1590   -1.2340 C   0  0  0  0  0  0  0  0  0  0  0  0
   -3.6070    0.8780   -2.0040 C   0  0  0  0  0  0  0  0  0  0  0  0
   -3.7780    0.2510   -3.1360 C   0  0  0  0  0  0  0  0  0  0  0  0
   -2.6560   -0.1080   -4.0410 C   0  0  0  0  0  0  0  0  0  0  0  0
   -2.2110    1.2190   -1.6410 C   0  0  0  0  0  0  0  0  0  0  0  0
   -1.6320    1.2920   -0.4460 C   0  0  0  0  0  0  0  0  0  0  0  0
   -0.2550    1.6510   -0.4260 N   0  0  0  0  0  0  0  0  0  0  0  0
    0.7160    0.7310    0.1470 C   0  0  0  0  0  0  0  0  0  0  0  0
    0.1650   -0.3130    0.5670 O   0  0  0  0  0  0  0  0  0  0  0  0
    2.1090    1.0580    0.1850 C   0  0  0  0  0  0  0  0  0  0  0  0
    3.1450    0.4730    0.6070 C   0  0  0  0  0  0  0  0  0  0  0  0
    3.4080   -0.7850    1.2420 C   0  0  0  0  0  0  0  0  0  0  0  0
    2.6410   -1.8310    1.6340 C   0  0  0  0  0  0  0  0  0  0  0  0
    3.4380   -2.8280    2.2190 C   0  0  0  0  0  0  0  0  0  0  0  0
    4.7010   -2.3600    2.1710 C   0  0  0  0  0  0  0  0  0  0  0  0
    5.8940   -3.0730    2.6760 C   0  0  0  0  0  0  0  0  0  0  0  0
    6.8800   -2.3380    3.3690 N   0  0  0  0  0  0  0  0  0  0  0  0
    6.1020   -4.6750    2.4550 S   0  0  0  0  0  0  0  0  0  0  0  0
    4.6830   -1.1640    1.5990 N   0  0  0  0  0  0  0  0  0  0  0  0
   -2.3030    1.0220    0.8520 C   0  0  0  0  0  0  0  0  0  0  0  0
   -3.3570    1.9370    1.1560 N   0  0  0  0  0  0  0  0  0  0  0  0
   -4.8630    1.2910    0.5360 S   0  0  0  0  0  0  0  0  0  0  0  0
   -6.0630    2.0670    1.0040 O   0  0  0  0  0  0  0  0  0  0  0  0
  1  2  2  0
  2  3  1  0
  2 23  1  0
  3  4  2  3
  3  6  1  0
  4  5  1  0
  6  7  2  0
  7  8  1  0
  7 21  1  0
  8  9  1  0
  9 10  2  0
  9 11  1  0
 11 12  2  3
 12 13  1  0
 13 14  2  0
 13 20  1  0
 14 15  1  0
 15 16  2  0
 16 17  1  0
 16 20  1  0
 17 18  1  0
 17 19  2  0
 21 22  1  0
 23 22  1  6
 23 24  2  0
M  END
