
     RDKit          3D

 24 26  0  0  0  0  0  0  0  0999 V2000
    0.6680    3.7420   -1.0420 C   0  0  0  0  0  0  0  0  0  0  0  0
    1.2210    3.7170    0.3440 C   0  0  0  0  0  0  0  0  0  0  0  0
    1.9140    2.1560    0.8150 S   0  0  2  0  0  0  0  0  0  0  0  0
    2.4170    2.3070    2.2460 O   0  0  0  0  0  0  0  0  0  0  0  0
    3.0910    1.9150   -0.0790 O   0  0  0  0  0  0  0  0  0  0  0  0
    0.7610    0.8690    0.7780 C   0  0  0  0  0  0  0  0  0  0  0  0
   -0.5590    1.2050    0.4390 C   0  0  0  0  0  0  0  0  0  0  0  0
   -1.5420    0.2510    0.4160 C   0  0  0  0  0  0  0  0  0  0  0  0
   -1.2090   -1.0540    0.7350 C   0  0  0  0  0  0  0  0  0  0  0  0
    0.0800   -1.3580    1.0610 C   0  0  0  0  0  0  0  0  0  0  0  0
    1.0980   -0.4260    1.0940 C   0  0  0  0  0  0  0  0  0  0  0  0
    2.7470   -0.8820    1.5490 S   0  0  0  0  0  0  0  0  0  0  0  0
    3.7400   -1.5640    0.2470 C   0  0  1  0  0  0  0  0  0  0  0  0
    3.3060   -2.9240   -0.2710 C   0  0  0  0  0  0  0  0  0  0  0  0
    3.8630   -2.4740   -1.6290 C   0  0  0  0  0  0  0  0  0  0  0  0
    3.5950   -1.0440   -1.1400 C   0  0  0  0  0  0  0  0  0  0  0  0
   -2.2490   -2.0210    0.7040 N   0  0  0  0  0  0  0  0  0  0  0  0
   -3.5790   -1.6680    0.3610 C   0  0  0  0  0  0  0  0  0  0  0  0
   -4.5700   -2.6810    0.3480 N   0  0  0  0  0  0  0  0  0  0  0  0
   -3.8910   -0.4250    0.0580 C   0  0  0  0  0  0  0  0  0  0  0  0
   -5.2460   -0.1250   -0.2800 C   0  0  0  0  0  0  0  0  0  0  0  0
   -6.3510    0.1100   -0.5650 N   0  0  0  0  0  0  0  0  0  0  0  0
   -2.9180    0.6710    0.0510 C   0  0  1  0  0  0  0  0  0  0  0  0
   -3.4180    1.6920    0.9830 N   0  0  0  0  0  0  0  0  0  0  0  0
  1  2  1  0
  3  2  1  6
  3  4  2  0
  3  5  2  0
  3  6  1  0
  6  7  2  0
  6 11  1  0
  7  8  1  0
  8  9  2  0
  8 23  1  0
  9 10  1  0
  9 17  1  0
 10 11  2  0
 11 12  1  0
 13 12  1  1
 13 14  1  0
 13 16  1  0
 14 15  1  0
 15 16  1  0
 17 18  1  0
 18 19  1  0
 18 20  2  0
 20 21  1  0
 20 23  1  0
 21 22  3  0
 23 24  1  1
M  END
