
     RDKit          3D

 24 26  0  0  0  0  0  0  0  0999 V2000
    6.3870    1.7520   -0.1000 N   0  0  0  0  0  0  0  0  0  0  0  0
    6.4120    0.3340   -0.1400 C   0  0  0  0  0  0  0  0  0  0  0  0
    7.5180   -0.2390    0.0050 O   0  0  0  0  0  0  0  0  0  0  0  0
    5.2630   -0.4760   -0.3340 N   0  0  0  0  0  0  0  0  0  0  0  0
    4.1810   -0.1090    0.2590 C   0  0  0  0  0  0  0  0  0  0  0  0
    3.9870    1.3140    1.2990 S   0  0  0  0  0  0  0  0  0  0  0  0
    2.2830    1.0560    1.6590 N   0  0  0  0  0  0  0  0  0  0  0  0
    1.9830   -0.0310    1.0070 C   0  0  0  0  0  0  0  0  0  0  0  0
    0.2720   -0.6830    1.0980 S   0  0  0  0  0  0  0  0  0  0  0  0
   -0.7260    0.0280   -0.2230 C   0  0  2  0  0  0  0  0  0  0  0  0
   -0.9350    1.5150   -0.0730 C   0  0  0  0  0  0  0  0  0  0  0  0
   -2.2410    1.7560    0.6280 C   0  0  0  0  0  0  0  0  0  0  0  0
   -3.3280    2.2560   -0.3000 C   0  0  0  0  0  0  0  0  0  0  0  0
   -3.5220    1.1720   -1.3570 C   0  0  0  0  0  0  0  0  0  0  0  0
   -3.2750   -0.1600   -0.7450 C   0  0  0  0  0  0  0  0  0  0  0  0
   -4.3860   -0.9720   -0.6690 C   0  0  0  0  0  0  0  0  0  0  0  0
   -4.3320   -2.2280   -0.1340 C   0  0  0  0  0  0  0  0  0  0  0  0
   -3.1510   -2.6990    0.3410 C   0  0  0  0  0  0  0  0  0  0  0  0
   -2.0050   -1.8980    0.2770 C   0  0  0  0  0  0  0  0  0  0  0  0
   -2.0580   -0.6290   -0.2630 C   0  0  0  0  0  0  0  0  0  0  0  0
    2.9140   -0.6680    0.2750 C   0  0  0  0  0  0  0  0  0  0  0  0
    2.7190   -1.9210   -0.5230 C   0  0  0  0  0  0  0  0  0  0  0  0
    1.4520   -2.5450   -0.5500 N   0  0  0  0  0  0  0  0  0  0  0  0
    3.6320   -2.4490   -1.1770 O   0  0  0  0  0  0  0  0  0  0  0  0
  1  2  1  0
  2  3  2  0
  2  4  1  0
  4  5  2  3
  5  6  1  0
  5 21  1  0
  6  7  1  0
  7  8  1  0
  8  9  1  0
  8 21  2  0
 10  9  1  1
 10 11  1  0
 10 20  1  0
 11 12  1  0
 12 13  1  0
 13 14  1  0
 14 15  1  0
 15 16  2  0
 15 20  1  0
 16 17  1  0
 17 18  2  0
 18 19  1  0
 19 20  2  0
 21 22  1  0
 22 23  1  0
 22 24  2  0
M  END
