
     RDKit          3D

 24 25  0  0  0  0  0  0  0  0999 V2000
   -3.3300   -0.5420    3.7720 C   0  0  0  0  0  0  0  0  0  0  0  0
   -2.7220   -0.9330    2.4420 C   0  0  0  0  0  0  0  0  0  0  0  0
   -2.9360   -0.2340    1.3600 C   0  0  0  0  0  0  0  0  0  0  0  0
   -2.3970   -0.5480    0.0890 C   0  0  0  0  0  0  0  0  0  0  0  0
   -2.7220    0.2640   -0.9410 C   0  0  0  0  0  0  0  0  0  0  0  0
   -3.5620    1.3830   -0.7510 N   0  0  0  0  0  0  0  0  0  0  0  0
   -2.1770   -0.1300   -2.2630 C   0  0  0  0  0  0  0  0  0  0  0  0
   -2.5080   -1.5760   -2.4970 C   0  0  2  0  0  0  0  0  0  0  0  0
   -4.0080   -1.6850   -2.6790 C   0  0  0  0  0  0  0  0  0  0  0  0
   -2.0900   -2.4680   -1.3900 C   0  0  0  0  0  0  0  0  0  0  0  0
   -1.5030   -1.7070   -0.1880 C   0  0  1  0  0  0  0  0  0  0  0  0
    0.1080   -1.1390   -0.6920 S   0  0  0  0  0  0  0  0  0  0  0  0
    1.0730   -0.3350    0.5440 C   0  0  0  0  0  0  0  0  0  0  0  0
    0.5360   -0.2410    2.0710 S   0  0  0  0  0  0  0  0  0  0  0  0
    2.3680    0.2350    0.1990 N   0  0  0  0  0  0  0  0  0  0  0  0
    3.1220    0.8560    1.2180 C   0  0  0  0  0  0  0  0  0  0  0  0
    2.6050    0.8750    2.3990 O   0  0  0  0  0  0  0  0  0  0  0  0
    4.4070    1.4590    1.0280 C   0  0  0  0  0  0  0  0  0  0  0  0
    5.1320    2.0270    2.0280 N   0  0  0  0  0  0  0  0  0  0  0  0
    6.2900    2.5140    1.5690 C   0  0  0  0  0  0  0  0  0  0  0  0
    7.1600    3.0960    2.2840 O   0  0  0  0  0  0  0  0  0  0  0  0
    6.3000    2.2530    0.2700 N   0  0  0  0  0  0  0  0  0  0  0  0
    5.1560    1.6030   -0.1050 C   0  0  0  0  0  0  0  0  0  0  0  0
    4.8690    1.1780   -1.4910 C   0  0  0  0  0  0  0  0  0  0  0  0
  1  2  1  0
  2  3  2  3
  3  4  1  0
  4  5  2  0
  4 11  1  0
  5  6  1  0
  5  7  1  0
  7  8  1  0
  8  9  1  1
  8 10  1  0
 10 11  1  0
 11 12  1  6
 12 13  1  0
 13 14  2  0
 13 15  1  0
 15 16  1  0
 16 17  2  0
 16 18  1  0
 18 19  1  0
 18 23  2  0
 19 20  1  0
 20 21  2  0
 20 22  1  0
 22 23  1  0
 23 24  1  0
M  END
