
     RDKit          3D

 23 24  0  0  0  0  0  0  0  0999 V2000
    3.3290   -1.6960    2.5170 C   0  0  0  0  0  0  0  0  0  0  0  0
    2.3020   -1.0950    1.7530 O   0  0  0  0  0  0  0  0  0  0  0  0
    2.4990    0.0630    1.0090 C   0  0  0  0  0  0  0  0  0  0  0  0
    3.6550    0.5450    1.0590 O   0  0  0  0  0  0  0  0  0  0  0  0
    1.4700    0.7280    0.2000 C   0  0  1  0  0  0  0  0  0  0  0  0
    2.0900    1.8930   -0.5300 C   0  0  0  0  0  0  0  0  0  0  0  0
    2.9700    1.3790   -1.6110 C   0  0  0  0  0  0  0  0  0  0  0  0
    2.4820    0.1950   -2.3670 C   0  0  0  0  0  0  0  0  0  0  0  0
    1.7180   -0.7040   -1.6920 O   0  0  0  0  0  0  0  0  0  0  0  0
    0.7940   -0.1440   -0.8160 C   0  0  2  0  0  0  0  0  0  0  0  0
   -0.0920    0.7620   -1.6650 C   0  0  0  0  0  0  0  0  0  0  0  0
   -0.0340   -1.2480   -0.2790 C   0  0  2  0  0  0  0  0  0  0  0  0
   -0.6860   -1.8780   -1.3370 O   0  0  0  0  0  0  0  0  0  0  0  0
   -0.9570   -0.9650    0.8350 C   0  0  2  0  0  0  0  0  0  0  0  0
   -1.6530   -2.3080    1.1470 C   0  0  0  0  0  0  0  0  0  0  0  0
   -2.5500   -2.1460    2.1910 O   0  0  0  0  0  0  0  0  0  0  0  0
   -2.0420   -0.0190    0.5900 C   0  0  0  0  0  0  0  0  0  0  0  0
   -2.1850    1.0570    1.3410 C   0  0  0  0  0  0  0  0  0  0  0  0
   -3.2600    2.0650    1.1560 C   0  0  0  0  0  0  0  0  0  0  0  0
   -4.1340    1.7950    0.1130 O   0  0  0  0  0  0  0  0  0  0  0  0
   -3.9880    0.6690   -0.6770 C   0  0  0  0  0  0  0  0  0  0  0  0
   -4.9250    0.4980   -1.7000 O   0  0  0  0  0  0  0  0  0  0  0  0
   -3.0020   -0.2220   -0.4820 C   0  0  0  0  0  0  0  0  0  0  0  0
  1  2  1  0
  2  3  1  0
  3  4  2  0
  5  3  1  6
  5  6  1  0
  5 10  1  0
  6  7  1  0
  7  8  1  0
  8  9  1  0
  9 10  1  0
 10 11  1  6
 10 12  1  0
 12 13  1  6
 12 14  1  0
 14 15  1  6
 14 17  1  0
 15 16  1  0
 17 18  2  0
 17 23  1  0
 18 19  1  0
 19 20  1  0
 20 21  1  0
 21 22  1  0
 21 23  2  0
M  END
