
     RDKit          3D

 23 24  0  0  0  0  0  0  0  0999 V2000
    4.0070   -1.9200    0.0990 C   0  0  0  0  0  0  0  0  0  0  0  0
    3.3320   -1.3380   -1.1360 C   0  0  0  0  0  0  0  0  0  0  0  0
    2.5600   -0.1190   -0.7860 C   0  0  0  0  0  0  0  0  0  0  0  0
    3.2590    0.9120   -0.2260 O   0  0  0  0  0  0  0  0  0  0  0  0
    1.2830   -0.0820   -1.0130 C   0  0  0  0  0  0  0  0  0  0  0  0
    0.6660   -1.2160   -1.5850 O   0  0  0  0  0  0  0  0  0  0  0  0
   -0.7080   -1.0870   -1.7870 C   0  0  0  0  0  0  0  0  0  0  0  0
   -1.2100   -1.5540   -2.8250 O   0  0  0  0  0  0  0  0  0  0  0  0
   -1.5670   -0.4100   -0.7950 C   0  0  1  0  0  0  0  0  0  0  0  0
   -1.9650   -1.3460    0.3490 C   0  0  2  0  0  0  0  0  0  0  0  0
   -2.6990   -2.4340   -0.2000 O   0  0  0  0  0  0  0  0  0  0  0  0
   -2.7980   -0.7060    1.2330 O   0  0  0  0  0  0  0  0  0  0  0  0
   -0.7550   -1.8770    1.0610 C   0  0  0  0  0  0  0  0  0  0  0  0
   -1.0360   -2.7570    2.0490 O   0  0  0  0  0  0  0  0  0  0  0  0
   -1.7980   -2.3830    3.1040 C   0  0  0  0  0  0  0  0  0  0  0  0
   -0.9290    0.8260   -0.2150 C   0  0  2  0  0  0  0  0  0  0  0  0
   -1.8740    1.9500   -0.3720 C   0  0  0  0  0  0  0  0  0  0  0  0
   -1.7800    3.2410   -0.5720 C   0  0  0  0  0  0  0  0  0  0  0  0
   -0.5660    4.0350   -0.7160 C   0  0  0  0  0  0  0  0  0  0  0  0
   -0.7070    5.4090   -0.6510 O   0  0  0  0  0  0  0  0  0  0  0  0
    0.6660    3.5670   -0.9050 C   0  0  0  0  0  0  0  0  0  0  0  0
    1.0480    2.1580   -1.0050 C   0  0  0  0  0  0  0  0  0  0  0  0
    0.4220    1.0500   -0.7220 C   0  0  0  0  0  0  0  0  0  0  0  0
  1  2  1  0
  2  3  1  0
  3  4  1  0
  3  5  2  3
  5  6  1  0
  5 23  1  0
  6  7  1  0
  7  8  2  0
  9  7  1  6
  9 10  1  0
  9 16  1  0
 10 11  1  6
 10 12  1  0
 10 13  1  0
 13 14  1  0
 14 15  1  0
 16 17  1  6
 16 23  1  0
 17 18  2  0
 18 19  1  0
 19 20  1  0
 19 21  2  0
 21 22  1  0
 22 23  2  0
M  END
