
     RDKit          3D

 23 24  0  0  0  0  0  0  0  0999 V2000
    3.0820    1.3470    1.0130 O   0  0  0  0  0  0  0  0  0  0  0  0
    3.1290    0.3810    0.2270 C   0  0  0  0  0  0  0  0  0  0  0  0
    4.3960   -0.0920   -0.1110 O   0  0  0  0  0  0  0  0  0  0  0  0
    5.5810    0.4790    0.4010 C   0  0  0  0  0  0  0  0  0  0  0  0
    6.7540   -0.2820   -0.1760 C   0  0  0  0  0  0  0  0  0  0  0  0
    7.9600    0.2570    0.3100 O   0  0  0  0  0  0  0  0  0  0  0  0
    1.8920   -0.2140   -0.3060 C   0  0  2  0  0  0  0  0  0  0  0  0
    1.8520   -0.1290   -1.8380 C   0  0  0  0  0  0  0  0  0  0  0  0
    0.4160   -0.4060   -2.2280 C   0  0  0  0  0  0  0  0  0  0  0  0
   -0.3100   -1.0130   -1.2410 O   0  0  0  0  0  0  0  0  0  0  0  0
   -0.5990   -0.1800   -0.1570 C   0  0  2  0  0  0  0  0  0  0  0  0
   -0.8100   -1.0950    1.0070 C   0  0  0  0  0  0  0  0  0  0  0  0
   -1.8100   -2.0160    0.7970 O   0  0  0  0  0  0  0  0  0  0  0  0
   -1.6050    0.8540   -0.4370 C   0  0  0  0  0  0  0  0  0  0  0  0
   -2.9610    0.4790   -0.8370 C   0  0  1  0  0  0  0  0  0  0  0  0
   -3.0700   -0.3090   -1.9840 O   0  0  0  0  0  0  0  0  0  0  0  0
   -3.9680    0.1710    0.2000 C   0  0  0  0  0  0  0  0  0  0  0  0
   -3.7440    0.3890    1.4580 C   0  0  0  0  0  0  0  0  0  0  0  0
   -4.7200    0.0950    2.5220 C   0  0  0  0  0  0  0  0  0  0  0  0
   -5.9390   -0.3460    2.0110 O   0  0  0  0  0  0  0  0  0  0  0  0
   -6.1760   -0.5780    0.6780 C   0  0  0  0  0  0  0  0  0  0  0  0
   -5.2790   -0.3540   -0.2450 C   0  0  0  0  0  0  0  0  0  0  0  0
    0.7010    0.5820    0.1820 C   0  0  0  0  0  0  0  0  0  0  0  0
  1  2  2  0
  2  3  1  0
  7  2  1  1
  3  4  1  0
  4  5  1  0
  5  6  1  0
  7  8  1  0
  7 23  1  0
  8  9  1  0
  9 10  1  0
 10 11  1  0
 11 12  1  1
 11 14  1  0
 11 23  1  0
 12 13  1  0
 14 15  1  0
 15 16  1  6
 15 17  1  0
 17 18  2  0
 17 22  1  0
 18 19  1  0
 19 20  1  0
 20 21  1  0
 21 22  2  0
M  END
