
     RDKit          3D

 23 25  0  0  0  0  0  0  0  0999 V2000
    4.9370    2.6750   -0.0310 O   0  0  0  0  0  0  0  0  0  0  0  0
    5.1860    1.3300   -0.3620 C   0  0  1  0  0  0  0  0  0  0  0  0
    5.6370    0.6550    0.9290 C   0  0  0  0  0  0  0  0  0  0  0  0
    4.3440    0.2180    1.6310 C   0  0  0  0  0  0  0  0  0  0  0  0
    3.8560   -0.8600    0.9370 O   0  0  0  0  0  0  0  0  0  0  0  0
    3.6410   -0.6480   -0.3980 C   0  0  1  0  0  0  0  0  0  0  0  0
    2.1580   -0.9520   -0.7100 C   0  0  0  0  0  0  0  0  0  0  0  0
    1.3510   -0.1370    0.0170 O   0  0  0  0  0  0  0  0  0  0  0  0
    0.0080   -0.2200   -0.1380 C   0  0  0  0  0  0  0  0  0  0  0  0
   -0.5670   -1.5450    0.1810 C   0  0  2  0  0  0  0  0  0  0  0  0
   -0.1200   -2.6030   -0.5930 O   0  0  0  0  0  0  0  0  0  0  0  0
   -2.0970   -1.5770    0.1860 C   0  0  1  0  0  0  0  0  0  0  0  0
   -2.6480   -0.6470    1.1450 C   0  0  0  0  0  0  0  0  0  0  0  0
   -3.6590    0.1440    0.8670 C   0  0  0  0  0  0  0  0  0  0  0  0
   -4.1930    1.0440    1.7840 O   0  0  0  0  0  0  0  0  0  0  0  0
   -5.4730    1.6220    1.5470 C   0  0  0  0  0  0  0  0  0  0  0  0
   -5.5350    2.0920    0.1020 C   0  0  0  0  0  0  0  0  0  0  0  0
   -5.3220    0.9400   -0.7120 O   0  0  0  0  0  0  0  0  0  0  0  0
   -4.2570    0.0810   -0.4620 C   0  0  0  0  0  0  0  0  0  0  0  0
   -3.8120   -0.7470   -1.3780 C   0  0  0  0  0  0  0  0  0  0  0  0
   -2.6980   -1.6540   -1.1290 C   0  0  1  0  0  0  0  0  0  0  0  0
   -1.7230   -1.3300   -2.1300 O   0  0  0  0  0  0  0  0  0  0  0  0
    3.8860    0.7530   -0.8590 C   0  0  0  0  0  0  0  0  0  0  0  0
  2  1  1  1
  2  3  1  0
  2 23  1  0
  3  4  1  0
  4  5  1  0
  5  6  1  0
  6  7  1  1
  6 23  1  0
  7  8  1  0
  8  9  1  0
  9 10  1  0
 10 11  1  6
 10 12  1  0
 12 13  1  6
 12 21  1  0
 13 14  2  0
 14 15  1  0
 14 19  1  0
 15 16  1  0
 16 17  1  0
 17 18  1  0
 18 19  1  0
 19 20  2  0
 20 21  1  0
 21 22  1  6
M  END
