
     RDKit          3D

 23 24  0  0  0  0  0  0  0  0999 V2000
    4.4570   -0.2290    1.2650 C   0  0  0  0  0  0  0  0  0  0  0  0
    4.0290    1.0500    1.3880 O   0  0  0  0  0  0  0  0  0  0  0  0
    3.7740    1.7270    0.2470 C   0  0  0  0  0  0  0  0  0  0  0  0
    2.6830    1.1990   -0.6400 C   0  0  1  0  0  0  0  0  0  0  0  0
    2.6910    2.0410   -1.8870 C   0  0  0  0  0  0  0  0  0  0  0  0
    3.0340   -0.0780   -1.0400 O   0  0  0  0  0  0  0  0  0  0  0  0
    1.3780    1.1460    0.0690 C   0  0  1  0  0  0  0  0  0  0  0  0
    0.1870    0.7810   -0.6970 C   0  0  0  0  0  0  0  0  0  0  0  0
   -0.2580   -0.5330   -0.1790 C   0  0  1  0  0  0  0  0  0  0  0  0
   -0.0020   -1.4680   -1.2210 O   0  0  0  0  0  0  0  0  0  0  0  0
    0.6680   -0.8200    0.9350 C   0  0  2  0  0  0  0  0  0  0  0  0
    0.0670   -1.3630    2.1920 C   0  0  0  0  0  0  0  0  0  0  0  0
   -1.2250   -2.0650    2.0770 C   0  0  0  0  0  0  0  0  0  0  0  0
   -1.8540   -2.0560    0.7250 C   0  0  0  0  0  0  0  0  0  0  0  0
   -1.7150   -0.6790    0.0890 C   0  0  1  0  0  0  0  0  0  0  0  0
   -2.3560    0.3080    0.9640 C   0  0  0  0  0  0  0  0  0  0  0  0
   -3.8290   -0.0200    1.1000 C   0  0  0  0  0  0  0  0  0  0  0  0
   -4.4730    0.9190    1.9310 O   0  0  0  0  0  0  0  0  0  0  0  0
   -2.4080   -0.6490   -1.2270 C   0  0  0  0  0  0  0  0  0  0  0  0
   -3.0890   -1.6530   -1.5470 O   0  0  0  0  0  0  0  0  0  0  0  0
   -2.3360    0.4100   -2.0860 O   0  0  0  0  0  0  0  0  0  0  0  0
   -2.9790    0.4780   -3.3430 C   0  0  0  0  0  0  0  0  0  0  0  0
    1.3670    0.3410    1.1930 O   0  0  0  0  0  0  0  0  0  0  0  0
  1  2  1  0
  2  3  1  0
  3  4  1  0
  4  5  1  6
  4  6  1  0
  4  7  1  0
  7  8  1  6
  7 23  1  0
  8  9  1  0
  9 10  1  6
  9 11  1  0
  9 15  1  0
 11 12  1  1
 11 23  1  0
 12 13  1  0
 13 14  1  0
 14 15  1  0
 15 16  1  1
 15 19  1  0
 16 17  1  0
 17 18  1  0
 19 20  2  0
 19 21  1  0
 21 22  1  0
M  END
