
     RDKit          3D

 28 28  0  0  0  0  0  0  0  0999 V2000
    0.9570   -3.6200   -0.8350 C   0  0  0  0  0  0  0  0  0  0  0  0
    0.4810   -2.3930   -0.4890 C   0  0  0  0  0  0  0  0  0  0  0  0
   -0.5310   -2.3860    0.5340 C   0  0  0  0  0  0  0  0  0  0  0  0
   -0.0930   -2.9800    1.6270 O   0  0  0  0  0  0  0  0  0  0  0  0
   -1.8550   -1.8670    0.5520 N   0  0  0  0  0  0  0  0  0  0  0  0
   -2.6830   -1.2620   -0.3780 C   0  0  0  0  0  0  0  0  0  0  0  0
   -3.6010   -2.0050   -0.9170 O   0  0  0  0  0  0  0  0  0  0  0  0
   -2.7490    0.1110   -0.9090 C   0  0  1  0  0  0  0  0  0  0  0  0
   -3.4700    1.0970   -0.0620 C   0  0  0  0  0  0  0  0  0  0  0  0
   -4.8880    0.8930    0.2500 C   0  0  2  0  0  0  0  0  0  0  0  0
   -5.2450   -0.3590    1.0010 C   0  0  0  0  0  0  0  0  0  0  0  0
   -5.8150    1.0720   -0.9440 C   0  0  0  0  0  0  0  0  0  0  0  0
   -1.5090    0.6870   -1.3500 N   0  0  0  0  0  0  0  0  0  0  0  0
   -0.7880    1.7510   -0.7860 C   0  0  0  0  0  0  0  0  0  0  0  0
   -0.4740    2.7430   -1.5640 O   0  0  0  0  0  0  0  0  0  0  0  0
   -0.3490    1.8860    0.5500 N   0  0  0  0  0  0  0  0  0  0  0  0
    0.5010    0.9650    1.2780 C   0  0  2  0  0  0  0  0  0  0  0  0
    0.8700    1.5670    2.6050 C   0  0  0  0  0  0  0  0  0  0  0  0
    1.5230    2.7870    2.5230 O   0  0  0  0  0  0  0  0  0  0  0  0
    1.6890    0.4800    0.4970 C   0  0  0  0  0  0  0  0  0  0  0  0
    2.8650    0.6710    1.0570 C   0  0  0  0  0  0  0  0  0  0  0  0
    4.1640    0.3010    0.5150 C   0  0  0  0  0  0  0  0  0  0  0  0
    4.4530   -0.3550   -0.7550 C   0  0  0  0  0  0  0  0  0  0  0  0
    5.2330    0.6050    1.2820 C   0  0  0  0  0  0  0  0  0  0  0  0
    6.6180    0.2970    0.8770 C   0  0  0  0  0  0  0  0  0  0  0  0
    1.5950   -0.1460   -0.7860 C   0  0  0  0  0  0  0  0  0  0  0  0
    1.1130   -1.2970   -1.2040 C   0  0  0  0  0  0  0  0  0  0  0  0
    1.2450   -1.5310   -2.7050 C   0  0  0  0  0  0  0  0  0  0  0  0
  1  2  2  0
  2  3  1  0
  2 27  1  0
  3  4  2  0
  3  5  1  0
  5  6  1  0
  6  7  2  0
  6  8  1  0
  8  9  1  1
  8 13  1  0
  9 10  1  0
 10 11  1  6
 10 12  1  0
 13 14  1  0
 14 15  2  0
 14 16  1  0
 16 17  1  0
 17 18  1  1
 17 20  1  0
 18 19  1  0
 20 21  2  3
 20 26  1  0
 21 22  1  0
 22 23  1  0
 22 24  2  3
 24 25  1  0
 26 27  2  0
 27 28  1  0
M  END
