
     RDKit          3D

 28 29  0  0  0  0  0  0  0  0999 V2000
    1.9120   -3.4820    1.0090 C   0  0  0  0  0  0  0  0  0  0  0  0
    0.7450   -2.9680    0.2460 C   0  0  0  0  0  0  0  0  0  0  0  0
   -0.3830   -3.6400    0.2650 C   0  0  0  0  0  0  0  0  0  0  0  0
   -1.6110   -3.2880   -0.4150 C   0  0  0  0  0  0  0  0  0  0  0  0
   -2.2250   -4.2440   -1.0190 O   0  0  0  0  0  0  0  0  0  0  0  0
   -2.2060   -2.0120   -0.4880 N   0  0  0  0  0  0  0  0  0  0  0  0
   -2.4990   -1.1400    0.6240 C   0  0  0  0  0  0  0  0  0  0  0  0
   -3.0360    0.1770    0.0770 C   0  0  2  0  0  0  0  0  0  0  0  0
   -2.2360    0.7010   -1.0400 C   0  0  0  0  0  0  0  0  0  0  0  0
   -1.7080    2.0570   -0.9910 C   0  0  0  0  0  0  0  0  0  0  0  0
   -0.7510    2.5860   -0.2610 C   0  0  0  0  0  0  0  0  0  0  0  0
    0.0940    1.9240    0.7640 C   0  0  0  0  0  0  0  0  0  0  0  0
    1.4900    1.6350    0.3860 C   0  0  0  0  0  0  0  0  0  0  0  0
    1.7590    1.0670   -0.9520 C   0  0  0  0  0  0  0  0  0  0  0  0
    2.7800    0.0060   -0.8680 N   0  0  0  0  0  0  0  0  0  0  0  0
    4.1440    0.4180   -0.9080 C   0  0  0  0  0  0  0  0  0  0  0  0
    4.7640    0.7150    0.4100 C   0  0  0  0  0  0  0  0  0  0  0  0
    6.1660    1.1230    0.2150 C   0  0  0  0  0  0  0  0  0  0  0  0
    6.9690    1.4580    1.3180 N   0  0  0  0  0  0  0  0  0  0  0  0
    6.6410    1.1720   -0.9360 O   0  0  0  0  0  0  0  0  0  0  0  0
    2.3620   -1.3730   -0.7500 C   0  0  0  0  0  0  0  0  0  0  0  0
    3.2610   -2.2430   -0.8650 O   0  0  0  0  0  0  0  0  0  0  0  0
    0.9240   -1.6980   -0.5060 C   0  0  0  0  0  0  0  0  0  0  0  0
   -3.4190    1.1370    1.1540 C   0  0  0  0  0  0  0  0  0  0  0  0
   -4.4990    1.9900    0.4880 C   0  0  0  0  0  0  0  0  0  0  0  0
   -5.3200    0.9640   -0.2070 C   0  0  0  0  0  0  0  0  0  0  0  0
   -4.4230   -0.1960   -0.4730 C   0  0  1  0  0  0  0  0  0  0  0  0
   -4.4080   -0.4280   -1.8400 O   0  0  0  0  0  0  0  0  0  0  0  0
  1  2  1  0
  2  3  2  0
  2 23  1  0
  3  4  1  0
  4  5  2  0
  4  6  1  0
  6  7  1  0
  8  7  1  1
  8  9  1  0
  8 24  1  0
  8 27  1  0
  9 10  1  0
 10 11  2  0
 11 12  1  0
 12 13  1  0
 13 14  1  0
 14 15  1  0
 15 16  1  0
 15 21  1  0
 16 17  1  0
 17 18  1  0
 18 19  1  0
 18 20  2  0
 21 22  2  0
 21 23  1  0
 24 25  1  0
 25 26  1  0
 26 27  1  0
 27 28  1  6
M  END
