
     RDKit          3D

 28 29  0  0  0  0  0  0  0  0999 V2000
   -3.5680   -2.8570   -2.4870 C   0  0  0  0  0  0  0  0  0  0  0  0
   -2.8720   -1.9220   -1.5550 C   0  0  0  0  0  0  0  0  0  0  0  0
   -3.4760   -1.3910   -0.4850 C   0  0  0  0  0  0  0  0  0  0  0  0
   -2.7690   -0.4720    0.3270 C   0  0  0  0  0  0  0  0  0  0  0  0
   -3.5250    0.1430    1.4500 C   0  0  1  0  0  0  0  0  0  0  0  0
   -3.5660   -0.8060    2.6280 C   0  0  0  0  0  0  0  0  0  0  0  0
   -3.4000    1.5820    1.6950 C   0  0  0  0  0  0  0  0  0  0  0  0
   -1.4650   -0.1240    0.0340 C   0  0  0  0  0  0  0  0  0  0  0  0
   -0.8190   -0.6590   -1.0440 C   0  0  0  0  0  0  0  0  0  0  0  0
   -1.5880   -1.5680   -1.8250 C   0  0  0  0  0  0  0  0  0  0  0  0
   -0.9480   -2.1430   -3.0790 C   0  0  0  0  0  0  0  0  0  0  0  0
    0.5900   -0.4930   -1.3450 N   0  0  0  0  0  0  0  0  0  0  0  0
    1.7830   -0.6790   -0.6470 C   0  0  0  0  0  0  0  0  0  0  0  0
    2.5610   -1.6800   -1.1490 O   0  0  0  0  0  0  0  0  0  0  0  0
    2.5410   -0.1840    0.4680 C   0  0  1  0  0  0  0  0  0  0  0  0
    2.5470   -1.3440    1.5100 C   0  0  0  0  0  0  0  0  0  0  0  0
    4.0750   -0.2300    0.0380 C   0  0  0  0  0  0  0  0  0  0  0  0
    4.9120    0.2880    1.1730 C   0  0  0  0  0  0  0  0  0  0  0  0
    6.2570    0.2500    0.7810 O   0  0  0  0  0  0  0  0  0  0  0  0
    2.3560    1.0380    1.1650 C   0  0  0  0  0  0  0  0  0  0  0  0
    1.9690    0.9900    2.3970 O   0  0  0  0  0  0  0  0  0  0  0  0
    2.5440    2.3750    0.7090 N   0  0  0  0  0  0  0  0  0  0  0  0
    2.3190    2.8390   -0.5820 N   0  0  0  0  0  0  0  0  0  0  0  0
    1.1630    2.6430   -1.3480 C   0  0  0  0  0  0  0  0  0  0  0  0
    1.2900    2.6100   -2.6120 O   0  0  0  0  0  0  0  0  0  0  0  0
   -0.1950    2.4700   -0.8400 C   0  0  0  0  0  0  0  0  0  0  0  0
   -0.3330    2.0360    0.5580 C   0  0  0  0  0  0  0  0  0  0  0  0
   -0.8980    0.8890    0.9290 C   0  0  0  0  0  0  0  0  0  0  0  0
  1  2  1  0
  2  3  2  0
  2 10  1  0
  3  4  1  0
  4  5  1  0
  4  8  2  0
  5  6  1  1
  5  7  1  0
  8  9  1  0
  8 28  1  0
  9 10  2  0
  9 12  1  0
 10 11  1  0
 12 13  1  0
 13 14  2  0
 13 15  1  0
 15 16  1  1
 15 17  1  0
 15 20  1  0
 17 18  1  0
 18 19  1  0
 20 21  2  0
 20 22  1  0
 22 23  1  0
 23 24  1  0
 24 25  2  0
 24 26  1  0
 26 27  1  0
 27 28  2  0
M  END
