
     RDKit          3D

 18 20  0  0  0  0  0  0  0  0999 V2000
   -5.6070    0.3190   -1.5530 N   0  0  0  0  0  0  0  0  0  0  0  0
   -4.7110    1.0100   -0.2480 S   0  0  1  0  0  0  0  0  0  0  0  0
   -4.2390    2.3800   -0.5480 O   0  0  0  0  0  0  0  0  0  0  0  0
   -5.6230    0.9840    0.9620 O   0  0  0  0  0  0  0  0  0  0  0  0
   -3.3020    0.0100    0.0100 C   0  0  0  0  0  0  0  0  0  0  0  0
   -2.0020    0.2520   -0.0400 C   0  0  0  0  0  0  0  0  0  0  0  0
   -1.0990   -0.7150    0.2060 C   0  0  0  0  0  0  0  0  0  0  0  0
    0.3740   -0.4660    0.1550 C   0  0  0  0  0  0  0  0  0  0  0  0
    1.1070    0.4090   -0.0570 N   0  0  0  0  0  0  0  0  0  0  0  0
    2.4240    0.3950   -0.0440 C   0  0  0  0  0  0  0  0  0  0  0  0
    3.3110    1.4460   -0.2980 C   0  0  0  0  0  0  0  0  0  0  0  0
    4.6550    1.2290   -0.2350 C   0  0  0  0  0  0  0  0  0  0  0  0
    5.2410    0.0070    0.0730 C   0  0  0  0  0  0  0  0  0  0  0  0
    4.3600   -1.0270    0.3230 C   0  0  0  0  0  0  0  0  0  0  0  0
    2.9960   -0.8050    0.2580 C   0  0  0  0  0  0  0  0  0  0  0  0
    1.5790   -1.8520    0.5070 S   0  0  0  0  0  0  0  0  0  0  0  0
   -1.6490   -1.9700    0.5130 C   0  0  0  0  0  0  0  0  0  0  0  0
   -3.3740   -1.7350    0.4420 S   0  0  0  0  0  0  0  0  0  0  0  0
  2  1  1  6
  2  3  2  0
  2  4  2  0
  2  5  1  0
  5  6  2  0
  5 18  1  0
  6  7  1  0
  7  8  1  0
  7 17  2  0
  8  9  2  0
  8 16  1  0
  9 10  1  0
 10 11  2  0
 10 15  1  0
 11 12  1  0
 12 13  2  0
 13 14  1  0
 14 15  2  0
 15 16  1  0
 17 18  1  0
M  END
