
     RDKit          3D

 28 30  0  0  0  0  0  0  0  0999 V2000
    8.2630    1.4580   -1.5080 C   0  0  0  0  0  0  0  0  0  0  0  0
    7.4950    0.3610   -0.9130 N   0  0  0  0  0  0  0  0  0  0  0  0
    6.1810    0.5960   -0.4230 C   0  0  0  0  0  0  0  0  0  0  0  0
    5.5460   -0.2890    0.3500 C   0  0  0  0  0  0  0  0  0  0  0  0
    4.2310   -0.0240    0.8250 N   0  0  0  0  0  0  0  0  0  0  0  0
    3.1220   -0.8490    0.5290 C   0  0  0  0  0  0  0  0  0  0  0  0
    3.2770   -1.8710   -0.1850 O   0  0  0  0  0  0  0  0  0  0  0  0
    1.7910   -0.5420    1.0360 C   0  0  0  0  0  0  0  0  0  0  0  0
    1.3170    0.4390    1.7950 C   0  0  0  0  0  0  0  0  0  0  0  0
    0.0100    0.4780    2.1180 C   0  0  0  0  0  0  0  0  0  0  0  0
   -0.7970   -0.5120    1.6440 C   0  0  0  0  0  0  0  0  0  0  0  0
   -2.2510   -0.7810    1.7980 C   0  0  0  0  0  0  0  0  0  0  0  0
   -2.9840   -0.1320    0.7390 N   0  0  0  0  0  0  0  0  0  0  0  0
   -4.4060   -0.2710    0.7110 C   0  0  0  0  0  0  0  0  0  0  0  0
   -4.9170   -0.9520    1.6140 O   0  0  0  0  0  0  0  0  0  0  0  0
   -5.1260    0.3660   -0.3280 N   0  0  0  0  0  0  0  0  0  0  0  0
   -6.5130    0.2840   -0.4520 C   0  0  0  0  0  0  0  0  0  0  0  0
   -7.3070   -0.5790    0.2220 C   0  0  0  0  0  0  0  0  0  0  0  0
   -8.6780   -0.5810    0.0510 N   0  0  0  0  0  0  0  0  0  0  0  0
   -9.2360    0.2910   -0.8030 C   0  0  0  0  0  0  0  0  0  0  0  0
   -8.4760    1.1900   -1.5140 C   0  0  0  0  0  0  0  0  0  0  0  0
   -9.0520    2.1050   -2.4090 O   0  0  0  0  0  0  0  0  0  0  0  0
   -7.1250    1.1720   -1.3270 C   0  0  0  0  0  0  0  0  0  0  0  0
    0.3300   -1.5280    0.7130 S   0  0  0  0  0  0  0  0  0  0  0  0
    6.2810   -1.5070    0.6600 C   0  0  0  0  0  0  0  0  0  0  0  0
    5.7290   -2.3730    1.3830 O   0  0  0  0  0  0  0  0  0  0  0  0
    7.5930   -1.7810    0.1900 N   0  0  0  0  0  0  0  0  0  0  0  0
    8.1440   -0.9350   -0.8610 C   0  0  0  0  0  0  0  0  0  0  0  0
  1  2  1  0
  2  3  1  0
  2 28  1  0
  3  4  2  0
  4  5  1  0
  4 25  1  0
  5  6  1  0
  6  7  2  0
  6  8  1  0
  8  9  2  0
  8 24  1  0
  9 10  1  0
 10 11  2  0
 11 12  1  0
 11 24  1  0
 12 13  1  0
 13 14  1  0
 14 15  2  0
 14 16  1  0
 16 17  1  0
 17 18  2  0
 17 23  1  0
 18 19  1  0
 19 20  2  0
 20 21  1  0
 21 22  1  0
 21 23  2  0
 25 26  2  0
 25 27  1  0
 27 28  1  0
M  CHG  1  19   1
M  END
