
     RDKit          3D

 16 17  0  0  0  0  0  0  0  0999 V2000
    0.1890    1.4550   -0.6930 O   0  0  0  0  0  0  0  0  0  0  0  0
   -0.9550    0.9610   -0.4420 C   0  0  0  0  0  0  0  0  0  0  0  0
   -2.0190    1.2810   -1.3290 N   0  0  0  0  0  0  0  0  0  0  0  0
   -3.3890    1.4820   -1.0350 C   0  0  0  0  0  0  0  0  0  0  0  0
   -3.9920    0.6980    0.0460 C   0  0  0  0  0  0  0  0  0  0  0  0
   -3.2640   -0.4360    0.6350 C   0  0  0  0  0  0  0  0  0  0  0  0
   -2.1570   -0.0810    1.6070 C   0  0  0  0  0  0  0  0  0  0  0  0
   -0.9540    0.1320    0.7550 C   0  0  0  0  0  0  0  0  0  0  0  0
    0.1150   -0.5090    1.1400 C   0  0  0  0  0  0  0  0  0  0  0  0
    1.4060   -0.5490    0.5310 C   0  0  0  0  0  0  0  0  0  0  0  0
    1.7480   -0.7670   -0.7830 C   0  0  0  0  0  0  0  0  0  0  0  0
    3.0370   -0.7430   -1.1240 C   0  0  0  0  0  0  0  0  0  0  0  0
    3.9910   -0.5030   -0.1710 C   0  0  0  0  0  0  0  0  0  0  0  0
    5.4240   -0.4090   -0.2010 C   0  0  0  0  0  0  0  0  0  0  0  0
    6.0890   -1.6170   -0.0030 O   0  0  0  0  0  0  0  0  0  0  0  0
    2.9350   -0.3040    1.3100 S   0  0  0  0  0  0  0  0  0  0  0  0
  1  2  2  0
  2  3  1  0
  2  8  1  0
  3  4  1  0
  4  5  1  0
  5  6  1  0
  6  7  1  0
  7  8  1  0
  8  9  2  3
  9 10  1  0
 10 11  2  0
 10 16  1  0
 11 12  1  0
 12 13  2  0
 13 14  1  0
 13 16  1  0
 14 15  1  0
M  END
