
     RDKit          3D

 16 17  0  0  0  0  0  0  0  0999 V2000
   -0.1170   -2.5500    0.5390 N   0  0  0  0  0  0  0  0  0  0  0  0
    0.7240   -1.4080    0.3460 C   0  0  0  0  0  0  0  0  0  0  0  0
    2.1080   -1.5990    0.3760 C   0  0  0  0  0  0  0  0  0  0  0  0
    2.9940   -0.5610    0.2000 C   0  0  0  0  0  0  0  0  0  0  0  0
    2.4860    0.7020   -0.0110 C   0  0  0  0  0  0  0  0  0  0  0  0
    3.5990    2.0400   -0.2380 S   0  0  1  0  0  0  0  0  0  0  0  0
    2.8260    3.2990   -0.5070 O   0  0  0  0  0  0  0  0  0  0  0  0
    4.3750    2.2330    1.0460 O   0  0  0  0  0  0  0  0  0  0  0  0
    1.1090    0.8880   -0.0400 C   0  0  0  0  0  0  0  0  0  0  0  0
    0.2180   -0.1520    0.1360 C   0  0  0  0  0  0  0  0  0  0  0  0
   -1.2280    0.0310    0.1070 C   0  0  0  0  0  0  0  0  0  0  0  0
   -2.0280   -0.8310   -0.5890 C   0  0  0  0  0  0  0  0  0  0  0  0
   -3.3850   -0.6370   -0.6000 C   0  0  0  0  0  0  0  0  0  0  0  0
   -4.0200    0.3910    0.0580 C   0  0  0  0  0  0  0  0  0  0  0  0
   -3.2030    1.2680    0.7660 C   0  0  0  0  0  0  0  0  0  0  0  0
   -1.8370    1.0870    0.7870 C   0  0  0  0  0  0  0  0  0  0  0  0
  1  2  1  0
  2  3  2  0
  2 10  1  0
  3  4  1  0
  4  5  2  0
  6  5  1  1
  5  9  1  0
  6  7  2  0
  6  8  2  0
  9 10  2  0
 10 11  1  0
 11 12  2  0
 11 16  1  0
 12 13  1  0
 13 14  2  0
 14 15  1  0
 15 16  2  0
M  END
