
     RDKit          3D

 17 18  0  0  0  0  0  0  0  0999 V2000
    6.0310    1.5750   -0.5290 C   0  0  0  0  0  0  0  0  0  0  0  0
    4.8790    0.5850   -0.3410 C   0  0  0  0  0  0  0  0  0  0  0  0
    5.1060   -0.7160   -0.8390 C   0  0  0  0  0  0  0  0  0  0  0  0
    3.5290   -1.4580   -0.3910 S   0  0  0  0  0  0  0  0  0  0  0  0
    2.7800   -0.0120    0.3750 C   0  0  0  0  0  0  0  0  0  0  0  0
    1.5070    0.1000    0.9610 N   0  0  0  0  0  0  0  0  0  0  0  0
    0.4900    0.6280    0.0650 C   0  0  0  0  0  0  0  0  0  0  0  0
   -0.5480   -0.4330   -0.1060 C   0  0  2  0  0  0  0  0  0  0  0  0
   -1.7530   -0.0120   -0.9110 C   0  0  0  0  0  0  0  0  0  0  0  0
   -2.9060   -0.6920   -0.4380 N   0  0  0  0  0  0  0  0  0  0  0  0
   -3.7570    0.0060    0.4580 C   0  0  0  0  0  0  0  0  0  0  0  0
   -4.5160    1.1600   -0.0950 C   0  0  0  0  0  0  0  0  0  0  0  0
   -3.7720    2.1860   -0.6130 O   0  0  0  0  0  0  0  0  0  0  0  0
   -2.6410   -2.0110    0.0850 C   0  0  0  0  0  0  0  0  0  0  0  0
   -1.5150   -2.0320    1.0870 C   0  0  0  0  0  0  0  0  0  0  0  0
   -1.0590   -0.6970    1.1910 O   0  0  0  0  0  0  0  0  0  0  0  0
    3.7980    0.8740    0.2110 N   0  0  0  0  0  0  0  0  0  0  0  0
  1  2  1  0
  2  3  2  0
  2 17  1  0
  3  4  1  0
  4  5  1  0
  5  6  1  0
  5 17  2  0
  6  7  1  0
  8  7  1  1
  8  9  1  0
  8 16  1  0
  9 10  1  0
 10 11  1  0
 10 14  1  0
 11 12  1  0
 12 13  1  0
 14 15  1  0
 15 16  1  0
M  CHG  1   6   1
M  END
