
     RDKit          3D

 22 23  0  0  0  0  0  0  0  0999 V2000
    8.0630   -1.8170   -0.1910 O   0  0  0  0  0  0  0  0  0  0  0  0
    7.6470   -0.5320   -0.5700 C   0  0  0  0  0  0  0  0  0  0  0  0
    6.1930   -0.4300   -0.4510 C   0  0  0  0  0  0  0  0  0  0  0  0
    4.9750   -0.3440   -0.3700 C   0  0  0  0  0  0  0  0  0  0  0  0
    3.5360   -0.2630   -0.2870 C   0  0  0  0  0  0  0  0  0  0  0  0
    2.7410   -0.3370   -1.4290 C   0  0  0  0  0  0  0  0  0  0  0  0
    1.3750   -0.2560   -1.3060 C   0  0  0  0  0  0  0  0  0  0  0  0
    0.7370   -0.1020   -0.0810 C   0  0  0  0  0  0  0  0  0  0  0  0
   -0.6270   -0.0300   -0.0440 O   0  0  0  0  0  0  0  0  0  0  0  0
   -1.4330    0.1260    1.0760 C   0  0  1  0  0  0  0  0  0  0  0  0
   -2.1810    1.2990    0.9780 O   0  0  0  0  0  0  0  0  0  0  0  0
   -2.9760    1.2260   -0.1660 C   0  0  2  0  0  0  0  0  0  0  0  0
   -3.5080    2.5410   -0.6120 C   0  0  0  0  0  0  0  0  0  0  0  0
   -4.2830    2.3010   -1.7660 O   0  0  0  0  0  0  0  0  0  0  0  0
   -4.0520    0.2030    0.1190 C   0  0  1  0  0  0  0  0  0  0  0  0
   -5.1000    0.2430   -0.7900 O   0  0  0  0  0  0  0  0  0  0  0  0
   -3.3350   -1.1530    0.0740 C   0  0  2  0  0  0  0  0  0  0  0  0
   -4.1860   -2.2070    0.2610 O   0  0  0  0  0  0  0  0  0  0  0  0
   -2.3190   -1.0920    1.2210 C   0  0  2  0  0  0  0  0  0  0  0  0
   -2.9710   -1.0670    2.4390 O   0  0  0  0  0  0  0  0  0  0  0  0
    1.5310   -0.0310    1.0230 C   0  0  0  0  0  0  0  0  0  0  0  0
    2.9260   -0.1100    0.9350 C   0  0  0  0  0  0  0  0  0  0  0  0
  1  2  1  0
  2  3  1  0
  3  4  3  0
  4  5  1  0
  5  6  2  0
  5 22  1  0
  6  7  1  0
  7  8  2  0
  8  9  1  0
  8 21  1  0
 10  9  1  6
 10 11  1  0
 10 19  1  0
 11 12  1  0
 12 13  1  1
 12 15  1  0
 13 14  1  0
 15 16  1  6
 15 17  1  0
 17 18  1  1
 17 19  1  0
 19 20  1  1
 21 22  2  0
M  END
