
     RDKit          3D

 24 26  0  0  0  0  0  0  0  0999 V2000
    3.7370    0.3270   -0.3350 O   0  0  0  0  0  0  0  0  0  0  0  0
    3.2090   -0.0830    0.7010 C   0  0  0  0  0  0  0  0  0  0  0  0
    4.1070   -0.4230    1.7860 N   0  0  0  0  0  0  0  0  0  0  0  0
    5.5290   -0.2690    1.5980 C   0  0  0  0  0  0  0  0  0  0  0  0
    6.0990   -1.0970    0.4830 C   0  0  0  0  0  0  0  0  0  0  0  0
    7.4840   -0.8260    0.4430 O   0  0  0  0  0  0  0  0  0  0  0  0
    1.8270   -0.2100    0.8180 N   0  0  0  0  0  0  0  0  0  0  0  0
    0.8920    0.1010   -0.1950 C   0  0  0  0  0  0  0  0  0  0  0  0
    1.1740    0.5500   -1.4510 C   0  0  0  0  0  0  0  0  0  0  0  0
    0.1960    0.8430   -2.4110 C   0  0  0  0  0  0  0  0  0  0  0  0
   -1.1250    0.6760   -2.0980 C   0  0  0  0  0  0  0  0  0  0  0  0
   -1.4510    0.2200   -0.8320 C   0  0  0  0  0  0  0  0  0  0  0  0
   -0.4780   -0.0600    0.0950 C   0  0  0  0  0  0  0  0  0  0  0  0
   -2.9120    0.0770   -0.6020 C   0  0  1  0  0  0  0  0  0  0  0  0
   -3.2180   -0.4440    0.7210 C   0  0  0  0  0  0  0  0  0  0  0  0
   -3.8780    0.1480    1.7100 C   0  0  0  0  0  0  0  0  0  0  0  0
   -4.4070    1.3850    1.6710 F   0  0  0  0  0  0  0  0  0  0  0  0
   -3.9520   -0.7600    2.8970 C   0  0  0  0  0  0  0  0  0  0  0  0
   -3.2350   -1.9500    2.4260 C   0  0  0  0  0  0  0  0  0  0  0  0
   -2.8170   -1.7680    1.1840 C   0  0  0  0  0  0  0  0  0  0  0  0
   -1.9330   -3.0050    0.3090 Cl  0  0  0  0  0  0  0  0  0  0  0  0
   -3.5260    1.3530   -0.8960 N   0  0  0  0  0  0  0  0  0  0  0  0
   -3.2150    1.8340   -2.2070 C   0  0  0  0  0  0  0  0  0  0  0  0
   -2.2670    0.9520   -2.9960 C   0  0  0  0  0  0  0  0  0  0  0  0
  1  2  2  0
  2  3  1  0
  2  7  1  0
  3  4  1  0
  4  5  1  0
  5  6  1  0
  7  8  1  0
  8  9  2  0
  8 13  1  0
  9 10  1  0
 10 11  2  0
 11 12  1  0
 11 24  1  0
 12 13  2  0
 12 14  1  0
 14 15  1  1
 14 22  1  0
 15 16  2  0
 15 20  1  0
 16 17  1  0
 16 18  1  0
 18 19  1  0
 19 20  2  0
 20 21  1  0
 22 23  1  0
 23 24  1  0
M  CHG  1  22   1
M  END
