
     RDKit          3D

 24 26  0  0  0  0  0  0  0  0999 V2000
   -4.8390    1.5160    0.1670 N   0  0  0  0  0  0  0  0  0  0  0  0
   -3.9670    0.7430   -0.7340 C   0  0  0  0  0  0  0  0  0  0  0  0
   -3.1980   -0.2600   -0.0150 C   0  0  0  0  0  0  0  0  0  0  0  0
   -1.9220   -0.4540    0.1060 C   0  0  0  0  0  0  0  0  0  0  0  0
   -0.9580    0.4370   -0.5650 C   0  0  2  0  0  0  0  0  0  0  0  0
   -1.1040    0.5940   -2.0130 C   0  0  0  0  0  0  0  0  0  0  0  0
    0.1210    0.4700   -2.8380 C   0  0  0  0  0  0  0  0  0  0  0  0
    0.0340    0.6270   -4.1130 O   0  0  0  0  0  0  0  0  0  0  0  0
    1.3570    0.1910   -2.2750 N   0  0  0  0  0  0  0  0  0  0  0  0
    1.4910    0.0070   -0.8490 C   0  0  0  0  0  0  0  0  0  0  0  0
    2.8510   -0.1760   -0.3180 C   0  0  0  0  0  0  0  0  0  0  0  0
    3.4180    0.7620    0.4950 C   0  0  0  0  0  0  0  0  0  0  0  0
    4.6820    0.6200    1.0040 C   0  0  0  0  0  0  0  0  0  0  0  0
    5.4210   -0.4920    0.7000 C   0  0  0  0  0  0  0  0  0  0  0  0
    4.8770   -1.4550   -0.1180 C   0  0  0  0  0  0  0  0  0  0  0  0
    3.5820   -1.2930   -0.6290 C   0  0  0  0  0  0  0  0  0  0  0  0
    0.4410    0.1110   -0.0980 C   0  0  0  0  0  0  0  0  0  0  0  0
    0.6950   -0.2810    1.2910 C   0  0  0  0  0  0  0  0  0  0  0  0
    1.8070   -0.7650    1.5490 O   0  0  0  0  0  0  0  0  0  0  0  0
   -0.2060   -0.1910    2.4770 C   0  0  0  0  0  0  0  0  0  0  0  0
   -1.3460   -1.0760    2.3220 N   0  0  0  0  0  0  0  0  0  0  0  0
   -1.4980   -1.6010    1.0040 C   0  0  2  0  0  0  0  0  0  0  0  0
   -0.3070   -2.0970    0.5550 F   0  0  0  0  0  0  0  0  0  0  0  0
   -2.7500   -2.8630    0.9640 Cl  0  0  0  0  0  0  0  0  0  0  0  0
  1  2  1  0
  2  3  1  0
  3  4  2  3
  4  5  1  0
  4 22  1  0
  5  6  1  6
  5 17  1  0
  6  7  1  0
  7  8  2  0
  7  9  1  0
  9 10  1  0
 10 11  1  0
 10 17  2  0
 11 12  2  0
 11 16  1  0
 12 13  1  0
 13 14  2  0
 14 15  1  0
 15 16  2  0
 17 18  1  0
 18 19  2  0
 18 20  1  0
 20 21  1  0
 21 22  1  0
 22 23  1  6
 22 24  1  0
M  CHG  1   1   1
M  END
