
     RDKit          3D

 21 22  0  0  0  0  0  0  0  0999 V2000
   -3.5840   -2.5770   -0.6870 O   0  0  0  0  0  0  0  0  0  0  0  0
   -3.3610   -1.6470   -1.6940 C   0  0  0  0  0  0  0  0  0  0  0  0
   -3.1850   -0.2700   -1.0820 C   0  0  1  0  0  0  0  0  0  0  0  0
   -2.1290   -0.1930   -0.2110 O   0  0  0  0  0  0  0  0  0  0  0  0
   -1.0040    0.4400   -0.7880 C   0  0  2  0  0  0  0  0  0  0  0  0
    0.0500    0.2260    0.0670 O   0  0  0  0  0  0  0  0  0  0  0  0
    1.0750   -0.5210   -0.4550 C   0  0  0  0  0  0  0  0  0  0  0  0
    2.1040   -0.6420    0.6020 C   0  0  0  0  0  0  0  0  0  0  0  0
    2.9500   -0.7230    1.4540 C   0  0  0  0  0  0  0  0  0  0  0  0
    3.9570   -0.8100    2.5010 C   0  0  0  0  0  0  0  0  0  0  0  0
    5.2660   -0.4390    2.2900 C   0  0  0  0  0  0  0  0  0  0  0  0
    6.2260   -0.5230    3.2910 C   0  0  0  0  0  0  0  0  0  0  0  0
    5.8340   -0.9930    4.5140 C   0  0  0  0  0  0  0  0  0  0  0  0
    4.5560   -1.3640    4.7460 N   0  0  0  0  0  0  0  0  0  0  0  0
    3.6300   -1.2770    3.7620 C   0  0  0  0  0  0  0  0  0  0  0  0
   -1.2850    1.9010   -1.0330 C   0  0  1  0  0  0  0  0  0  0  0  0
   -0.5000    2.3990   -2.0850 O   0  0  0  0  0  0  0  0  0  0  0  0
   -2.7320    2.0930   -1.4420 C   0  0  1  0  0  0  0  0  0  0  0  0
   -2.8870    3.1500   -2.3220 O   0  0  0  0  0  0  0  0  0  0  0  0
   -3.1780    0.8070   -2.1440 C   0  0  2  0  0  0  0  0  0  0  0  0
   -4.5100    0.9700   -2.5840 O   0  0  0  0  0  0  0  0  0  0  0  0
  1  2  1  0
  3  2  1  6
  3  4  1  0
  3 20  1  0
  4  5  1  0
  5  6  1  1
  5 16  1  0
  6  7  1  0
  7  8  1  0
  8  9  3  0
  9 10  1  0
 10 11  2  0
 10 15  1  0
 11 12  1  0
 12 13  2  0
 13 14  1  0
 14 15  2  0
 16 17  1  6
 16 18  1  0
 18 19  1  6
 18 20  1  0
 20 21  1  1
M  END
