
     RDKit          3D

 17 19  0  0  0  0  0  0  0  0999 V2000
   -4.5780   -0.4640    0.2270 C   0  0  0  0  0  0  0  0  0  0  0  0
   -3.1010   -0.5170    0.1830 C   0  0  0  0  0  0  0  0  0  0  0  0
   -2.4370   -1.7010    0.4420 C   0  0  0  0  0  0  0  0  0  0  0  0
   -1.0760   -1.7090    0.3920 C   0  0  0  0  0  0  0  0  0  0  0  0
   -0.2870   -0.5840    0.0940 C   0  0  0  0  0  0  0  0  0  0  0  0
    1.1290   -0.7620    0.0240 C   0  0  0  0  0  0  0  0  0  0  0  0
    1.7620   -1.9740   -0.0880 N   0  0  0  0  0  0  0  0  0  0  0  0
    3.0690   -1.8620   -0.0900 C   0  0  0  0  0  0  0  0  0  0  0  0
    3.3870   -0.5430    0.0240 C   0  0  0  0  0  0  0  0  0  0  0  0
    2.1650    0.1400    0.0970 C   0  0  0  0  0  0  0  0  0  0  0  0
    2.2350    1.5830    0.2620 C   0  0  0  0  0  0  0  0  0  0  0  0
    3.3890    2.2580    0.3410 C   0  0  0  0  0  0  0  0  0  0  0  0
    4.5580    1.5560    0.2630 O   0  0  0  0  0  0  0  0  0  0  0  0
    4.6680    0.1840    0.0740 C   0  0  0  0  0  0  0  0  0  0  0  0
   -0.9740    0.5690   -0.1580 C   0  0  0  0  0  0  0  0  0  0  0  0
   -2.3760    0.6180   -0.1160 C   0  0  0  0  0  0  0  0  0  0  0  0
   -3.0470    1.9070   -0.3990 C   0  0  0  0  0  0  0  0  0  0  0  0
  1  2  1  0
  2  3  2  0
  2 16  1  0
  3  4  1  0
  4  5  2  0
  5  6  1  0
  5 15  1  0
  6  7  1  0
  6 10  2  0
  7  8  1  0
  8  9  2  0
  9 10  1  0
  9 14  1  0
 10 11  1  0
 11 12  2  0
 12 13  1  0
 13 14  1  0
 15 16  2  0
 16 17  1  0
M  END
