
     RDKit          3D

 17 19  0  0  0  0  0  0  0  0999 V2000
    0.0030    0.9960   -1.7890 O   0  0  0  0  0  0  0  0  0  0  0  0
    0.4350    0.3980   -0.7850 C   0  0  0  0  0  0  0  0  0  0  0  0
   -0.4190   -0.1620    0.1390 C   0  0  0  0  0  0  0  0  0  0  0  0
   -1.8770   -0.0700   -0.0350 C   0  0  0  0  0  0  0  0  0  0  0  0
   -2.6760   -1.1810    0.1650 C   0  0  0  0  0  0  0  0  0  0  0  0
   -4.0510   -1.1510    0.0160 C   0  0  0  0  0  0  0  0  0  0  0  0
   -4.6600    0.0370   -0.3500 C   0  0  0  0  0  0  0  0  0  0  0  0
   -3.8670    1.1380   -0.5490 C   0  0  0  0  0  0  0  0  0  0  0  0
   -2.4880    1.1120   -0.4000 C   0  0  0  0  0  0  0  0  0  0  0  0
    0.1350   -0.8070    1.2220 C   0  0  0  0  0  0  0  0  0  0  0  0
    1.4660   -0.9010    1.3960 N   0  0  0  0  0  0  0  0  0  0  0  0
    2.2830   -0.3470    0.4830 C   0  0  0  0  0  0  0  0  0  0  0  0
    3.6740   -0.4120    0.6100 C   0  0  0  0  0  0  0  0  0  0  0  0
    4.5190    0.1540   -0.3210 C   0  0  0  0  0  0  0  0  0  0  0  0
    4.0050    0.8070   -1.4180 C   0  0  0  0  0  0  0  0  0  0  0  0
    2.6390    0.8890   -1.5740 C   0  0  0  0  0  0  0  0  0  0  0  0
    1.8020    0.3140   -0.6260 C   0  0  0  0  0  0  0  0  0  0  0  0
  1  2  2  0
  2  3  1  0
  2 17  1  0
  3  4  1  0
  3 10  2  0
  4  5  2  0
  4  9  1  0
  5  6  1  0
  6  7  2  0
  7  8  1  0
  8  9  2  0
 10 11  1  0
 11 12  1  0
 12 13  2  0
 12 17  1  0
 13 14  1  0
 14 15  2  0
 15 16  1  0
 16 17  2  0
M  END
