
     RDKit          3D

 17 19  0  0  0  0  0  0  0  0999 V2000
   -3.2540   -2.1560    0.1060 C   0  0  0  0  0  0  0  0  0  0  0  0
   -2.8270   -0.9160    0.1820 C   0  0  0  0  0  0  0  0  0  0  0  0
   -1.4060   -0.5650    0.0800 C   0  0  0  0  0  0  0  0  0  0  0  0
   -0.5040   -1.5710   -0.0980 C   0  0  0  0  0  0  0  0  0  0  0  0
    0.8430   -1.2900   -0.1990 C   0  0  0  0  0  0  0  0  0  0  0  0
    1.7680   -2.3130   -0.3810 C   0  0  0  0  0  0  0  0  0  0  0  0
    1.3220   -3.4860   -0.4480 O   0  0  0  0  0  0  0  0  0  0  0  0
    3.0740   -2.0250   -0.4780 N   0  0  0  0  0  0  0  0  0  0  0  0
    3.4940   -0.7670   -0.4010 C   0  0  0  0  0  0  0  0  0  0  0  0
    2.6070    0.2730   -0.2210 C   0  0  0  0  0  0  0  0  0  0  0  0
    1.2620    0.0260   -0.1170 C   0  0  0  0  0  0  0  0  0  0  0  0
    0.3790    1.0670    0.0630 C   0  0  0  0  0  0  0  0  0  0  0  0
    0.8300    2.3660    0.1410 C   0  0  0  0  0  0  0  0  0  0  0  0
   -0.1040    3.3790    0.3230 C   0  0  0  0  0  0  0  0  0  0  0  0
   -1.4430    3.0920    0.4230 C   0  0  0  0  0  0  0  0  0  0  0  0
   -1.8680    1.7770    0.3410 C   0  0  0  0  0  0  0  0  0  0  0  0
   -0.9830    0.7580    0.1630 C   0  0  0  0  0  0  0  0  0  0  0  0
  1  2  2  0
  2  3  1  0
  3  4  2  0
  3 17  1  0
  4  5  1  0
  5  6  1  0
  5 11  2  0
  6  7  2  0
  6  8  1  0
  8  9  1  0
  9 10  2  0
 10 11  1  0
 11 12  1  0
 12 13  2  0
 12 17  1  0
 13 14  1  0
 14 15  2  0
 15 16  1  0
 16 17  2  0
M  END
