
     RDKit          3D

 27 29  0  0  0  0  0  0  0  0999 V2000
   -3.2070    2.1730    2.0260 C   0  0  0  0  0  0  0  0  0  0  0  0
   -3.0390    0.8890    1.1850 C   0  0  2  0  0  0  0  0  0  0  0  0
   -3.5530   -0.2910    1.9510 C   0  0  0  0  0  0  0  0  0  0  0  0
   -1.7990    0.7760    0.6470 O   0  0  0  0  0  0  0  0  0  0  0  0
   -0.5160    0.7050    1.0080 C   0  0  0  0  0  0  0  0  0  0  0  0
    0.4410    0.5720   -0.0370 C   0  0  0  0  0  0  0  0  0  0  0  0
    1.7640    0.4910    0.2150 C   0  0  0  0  0  0  0  0  0  0  0  0
    2.2010    0.5380    1.5150 C   0  0  0  0  0  0  0  0  0  0  0  0
    1.2860    0.6680    2.5680 C   0  0  0  0  0  0  0  0  0  0  0  0
   -0.0700    0.7510    2.3070 C   0  0  0  0  0  0  0  0  0  0  0  0
   -0.9830    0.8800    3.3490 O   0  0  0  0  0  0  0  0  0  0  0  0
    3.6380    0.4640    1.8420 C   0  0  0  0  0  0  0  0  0  0  0  0
    4.5240   -0.1160    0.7830 C   0  0  0  0  0  0  0  0  0  0  0  0
    3.7270   -0.7520   -0.2910 C   0  0  2  0  0  0  0  0  0  0  0  0
    4.5390   -1.3890   -1.3750 C   0  0  2  0  0  0  0  0  0  0  0  0
    3.6050   -1.9910   -2.3930 C   0  0  0  0  0  0  0  0  0  0  0  0
    5.2610   -2.4310   -0.8060 O   0  0  0  0  0  0  0  0  0  0  0  0
    5.5160   -0.4300   -2.0170 C   0  0  0  0  0  0  0  0  0  0  0  0
    6.2120   -1.1630   -2.9890 O   0  0  0  0  0  0  0  0  0  0  0  0
    2.8020    0.3400   -0.8530 C   0  0  0  0  0  0  0  0  0  0  0  0
   -3.9960    1.1270   -0.0080 C   0  0  2  0  0  0  0  0  0  0  0  0
   -5.3140    1.1970    0.3760 O   0  0  0  0  0  0  0  0  0  0  0  0
   -3.7020    0.2120   -1.1520 C   0  0  2  0  0  0  0  0  0  0  0  0
   -4.6720    0.5380   -2.2650 C   0  0  0  0  0  0  0  0  0  0  0  0
   -5.4390   -0.7360   -2.4550 C   0  0  0  0  0  0  0  0  0  0  0  0
   -4.5070   -1.7180   -2.1110 O   0  0  0  0  0  0  0  0  0  0  0  0
   -3.9700   -1.2380   -0.8900 C   0  0  0  0  0  0  0  0  0  0  0  0
  2  1  1  1
  2  3  1  0
  2  4  1  0
  2 21  1  0
  4  5  1  0
  5  6  2  0
  5 10  1  0
  6  7  1  0
  7  8  2  0
  7 20  1  0
  8  9  1  0
  8 12  1  0
  9 10  2  0
 10 11  1  0
 12 13  1  0
 14 13  1  1
 14 15  1  0
 14 20  1  0
 15 16  1  6
 15 17  1  0
 15 18  1  0
 18 19  1  0
 21 22  1  1
 21 23  1  0
 23 24  1  6
 23 27  1  0
 24 25  1  0
 25 26  1  0
 26 27  1  0
M  END
