
     RDKit          3D

 27 29  0  0  0  0  0  0  0  0999 V2000
    1.3860    1.3700   -0.7440 O   0  0  0  0  0  0  0  0  0  0  0  0
    1.7370    0.2690   -0.4040 C   0  0  0  0  0  0  0  0  0  0  0  0
    0.8090   -0.8580   -0.3610 C   0  0  0  0  0  0  0  0  0  0  0  0
   -0.5870   -0.5950   -0.7990 C   0  0  2  0  0  0  0  0  0  0  0  0
   -1.4190   -1.8490   -0.6920 C   0  0  0  0  0  0  0  0  0  0  0  0
   -0.9540   -3.0140   -1.4760 C   0  0  0  0  0  0  0  0  0  0  0  0
   -0.9050   -2.7890   -2.8270 O   0  0  0  0  0  0  0  0  0  0  0  0
   -0.6350    0.0770   -2.1290 C   0  0  0  0  0  0  0  0  0  0  0  0
   -1.5240    1.3200   -1.9790 C   0  0  0  0  0  0  0  0  0  0  0  0
   -2.3180    0.9450   -0.7480 C   0  0  0  0  0  0  0  0  0  0  0  0
   -3.5920    1.1550   -0.6370 C   0  0  0  0  0  0  0  0  0  0  0  0
   -4.4750    0.8450    0.4730 C   0  0  0  0  0  0  0  0  0  0  0  0
   -4.6120   -0.3980    1.0490 C   0  0  0  0  0  0  0  0  0  0  0  0
   -5.4660   -0.5220    2.1230 C   0  0  0  0  0  0  0  0  0  0  0  0
   -6.1500    0.4890    2.6170 O   0  0  0  0  0  0  0  0  0  0  0  0
   -6.0600    1.6920    2.1090 C   0  0  0  0  0  0  0  0  0  0  0  0
   -6.7220    2.6580    2.5910 O   0  0  0  0  0  0  0  0  0  0  0  0
   -5.2280    1.8870    1.0380 C   0  0  0  0  0  0  0  0  0  0  0  0
   -1.2930    0.3990    0.1560 C   0  0  1  0  0  0  0  0  0  0  0  0
   -1.7590   -0.2360    1.2790 O   0  0  0  0  0  0  0  0  0  0  0  0
    3.1620    0.1090   -0.0300 C   0  0  2  0  0  0  0  0  0  0  0  0
    3.2680   -0.3340    1.3970 C   0  0  0  0  0  0  0  0  0  0  0  0
    4.6800   -0.7930    1.6580 C   0  0  0  0  0  0  0  0  0  0  0  0
    5.6960    0.0000    0.9140 C   0  0  0  0  0  0  0  0  0  0  0  0
    5.2280    1.3930    0.5650 C   0  0  0  0  0  0  0  0  0  0  0  0
    3.9270    1.4090   -0.1640 C   0  0  1  0  0  0  0  0  0  0  0  0
    4.1260    1.6910   -1.5140 O   0  0  0  0  0  0  0  0  0  0  0  0
  1  2  2  0
  2  3  1  0
 21  2  1  1
  4  3  1  1
  4  5  1  0
  4  8  1  0
  4 19  1  0
  5  6  1  0
  6  7  1  0
  8  9  1  0
  9 10  1  0
 10 11  2  3
 10 19  1  0
 11 12  1  0
 12 13  1  0
 12 18  2  0
 13 14  2  0
 14 15  1  0
 15 16  1  0
 16 17  2  0
 16 18  1  0
 19 20  1  1
 21 22  1  0
 21 26  1  0
 22 23  1  0
 23 24  1  0
 24 25  1  0
 25 26  1  0
 26 27  1  6
M  END
