
     RDKit          3D

 27 29  0  0  0  0  0  0  0  0999 V2000
   -3.4850    5.5670   -1.5490 O   0  0  0  0  0  0  0  0  0  0  0  0
   -3.0490    5.0950   -2.7910 C   0  0  0  0  0  0  0  0  0  0  0  0
   -2.4670    3.6990   -2.6760 C   0  0  1  0  0  0  0  0  0  0  0  0
   -1.4080    3.7380   -1.7790 O   0  0  0  0  0  0  0  0  0  0  0  0
   -0.8090    2.4910   -1.7790 C   0  0  2  0  0  0  0  0  0  0  0  0
   -0.7330    2.0240   -3.1050 O   0  0  0  0  0  0  0  0  0  0  0  0
    0.6190    1.6240   -3.3450 C   0  0  0  0  0  0  0  0  0  0  0  0
    0.9810    0.6750   -2.4300 C   0  0  0  0  0  0  0  0  0  0  0  0
    1.3490   -0.2730   -1.5030 C   0  0  0  0  0  0  0  0  0  0  0  0
    1.7150   -1.2200   -0.6090 C   0  0  0  0  0  0  0  0  0  0  0  0
    2.7000   -0.9100    0.3580 C   0  0  0  0  0  0  0  0  0  0  0  0
    3.0430   -1.6640    1.3980 C   0  0  0  0  0  0  0  0  0  0  0  0
    2.3650   -2.9140    1.5690 C   0  0  0  0  0  0  0  0  0  0  0  0
    2.6800   -3.6760    2.7630 C   0  0  0  0  0  0  0  0  0  0  0  0
    2.5730   -5.0450    2.8070 C   0  0  0  0  0  0  0  0  0  0  0  0
    2.8250   -5.7800    3.9290 C   0  0  0  0  0  0  0  0  0  0  0  0
    3.2270   -5.1330    5.1350 C   0  0  0  0  0  0  0  0  0  0  0  0
    3.3210   -3.7880    5.0420 C   0  0  0  0  0  0  0  0  0  0  0  0
    3.0730   -3.0230    3.9360 C   0  0  0  0  0  0  0  0  0  0  0  0
    1.4170   -3.2290    0.6330 C   0  0  0  0  0  0  0  0  0  0  0  0
    1.0760   -2.4320   -0.4340 C   0  0  0  0  0  0  0  0  0  0  0  0
   -1.7170    1.5540   -0.9770 C   0  0  1  0  0  0  0  0  0  0  0  0
   -1.4960    1.7530    0.4070 O   0  0  0  0  0  0  0  0  0  0  0  0
   -3.1750    1.7430   -1.2430 C   0  0  1  0  0  0  0  0  0  0  0  0
   -3.9110    2.0650   -0.0720 O   0  0  0  0  0  0  0  0  0  0  0  0
   -3.5090    2.6770   -2.3690 C   0  0  2  0  0  0  0  0  0  0  0  0
   -3.8730    1.9280   -3.5120 O   0  0  0  0  0  0  0  0  0  0  0  0
  1  2  1  0
  3  2  1  1
  3  4  1  0
  3 26  1  0
  4  5  1  0
  5  6  1  6
  5 22  1  0
  6  7  1  0
  7  8  1  0
  8  9  3  0
  9 10  1  0
 10 11  2  0
 10 21  1  0
 11 12  1  0
 12 13  2  0
 13 14  1  0
 13 20  1  0
 14 15  2  0
 14 19  1  0
 15 16  1  0
 16 17  2  0
 17 18  1  0
 18 19  2  0
 20 21  2  0
 22 23  1  1
 22 24  1  0
 24 25  1  1
 24 26  1  0
 26 27  1  6
M  END
