
     RDKit          3D

 27 29  0  0  0  0  0  0  0  0999 V2000
    5.6600   -1.3100    2.2430 C   0  0  0  0  0  0  0  0  0  0  0  0
    4.8760   -0.6740    1.0840 C   0  0  2  0  0  0  0  0  0  0  0  0
    3.9800    0.3220    1.7070 C   0  0  0  0  0  0  0  0  0  0  0  0
    3.7210    1.5070    1.2210 C   0  0  0  0  0  0  0  0  0  0  0  0
    4.2600    2.0810   -0.0250 C   0  0  0  0  0  0  0  0  0  0  0  0
    3.0610    2.4890   -0.8860 C   0  0  0  0  0  0  0  0  0  0  0  0
    3.1610    1.8640   -2.2570 C   0  0  0  0  0  0  0  0  0  0  0  0
    2.0630    1.0640   -2.6090 O   0  0  0  0  0  0  0  0  0  0  0  0
    0.9720    0.6820   -1.8900 C   0  0  0  0  0  0  0  0  0  0  0  0
   -0.2880    1.0200   -2.3250 C   0  0  0  0  0  0  0  0  0  0  0  0
   -1.4610    0.6660   -1.6370 C   0  0  0  0  0  0  0  0  0  0  0  0
   -1.3960   -0.0500   -0.4760 C   0  0  0  0  0  0  0  0  0  0  0  0
   -2.5180   -0.4100    0.2180 O   0  0  0  0  0  0  0  0  0  0  0  0
   -3.8460   -0.1770   -0.0370 C   0  0  2  0  0  0  0  0  0  0  0  0
   -4.5660    0.4830    1.1540 C   0  0  0  0  0  0  0  0  0  0  0  0
   -5.9460    0.8740    0.6870 C   0  0  0  0  0  0  0  0  0  0  0  0
   -6.7310   -0.3020    0.1710 C   0  0  2  0  0  0  0  0  0  0  0  0
   -7.1020   -1.0920    1.2530 O   0  0  0  0  0  0  0  0  0  0  0  0
   -5.9450   -1.0930   -0.8580 C   0  0  0  0  0  0  0  0  0  0  0  0
   -4.6380   -1.4810   -0.2480 C   0  0  1  0  0  0  0  0  0  0  0  0
   -3.9220   -2.4060   -0.9560 O   0  0  0  0  0  0  0  0  0  0  0  0
   -0.1240   -0.3950   -0.0330 C   0  0  0  0  0  0  0  0  0  0  0  0
    1.0430   -0.0560   -0.6970 C   0  0  0  0  0  0  0  0  0  0  0  0
    2.2770   -0.4470   -0.1840 O   0  0  0  0  0  0  0  0  0  0  0  0
    3.2780   -1.2150   -0.7530 C   0  0  0  0  0  0  0  0  0  0  0  0
    4.0950   -1.7960    0.4180 C   0  0  2  0  0  0  0  0  0  0  0  0
    3.2320   -2.3990    1.3080 O   0  0  0  0  0  0  0  0  0  0  0  0
  2  1  1  1
  2  3  1  0
  2 26  1  0
  3  4  2  0
  4  5  1  0
  5  6  1  0
  6  7  1  0
  7  8  1  0
  8  9  1  0
  9 10  2  0
  9 23  1  0
 10 11  1  0
 11 12  2  0
 12 13  1  0
 12 22  1  0
 14 13  1  1
 14 15  1  0
 14 20  1  0
 15 16  1  0
 16 17  1  0
 17 18  1  1
 17 19  1  0
 19 20  1  0
 20 21  1  6
 22 23  2  0
 23 24  1  0
 24 25  1  0
 25 26  1  0
 26 27  1  1
M  END
