
     RDKit          3D

 19 19  0  0  0  0  0  0  0  0999 V2000
   -0.3560    1.9120   -0.1850 C   0  0  0  0  0  0  0  0  0  0  0  0
   -1.0190    0.5950   -0.4130 C   0  0  1  0  0  0  0  0  0  0  0  0
   -1.8270    0.7400   -1.7190 C   0  0  0  0  0  0  0  0  0  0  0  0
   -0.0840   -0.5380   -0.6420 C   0  0  1  0  0  0  0  0  0  0  0  0
    0.7040   -0.2680   -1.7930 O   0  0  0  0  0  0  0  0  0  0  0  0
    0.8780   -0.8460    0.4740 C   0  0  0  0  0  0  0  0  0  0  0  0
    1.8990    0.5880    0.7870 S   0  0  0  0  0  0  0  0  0  0  0  0
    3.3440    0.3520    1.7750 C   0  0  0  0  0  0  0  0  0  0  0  0
    4.5710   -0.1740    1.1650 C   0  0  2  0  0  0  0  0  0  0  0  0
    5.0770    0.6890    0.1670 O   0  0  0  0  0  0  0  0  0  0  0  0
    4.5410   -1.5270    0.5200 C   0  0  0  0  0  0  0  0  0  0  0  0
    3.8050   -1.5260   -0.6660 O   0  0  0  0  0  0  0  0  0  0  0  0
   -2.0060    0.2040    0.6640 C   0  0  1  0  0  0  0  0  0  0  0  0
   -3.1270    1.1870    0.8150 C   0  0  0  0  0  0  0  0  0  0  0  0
   -4.4110    0.7990    0.1610 C   0  0  0  0  0  0  0  0  0  0  0  0
   -4.4220   -0.4770   -0.3590 O   0  0  0  0  0  0  0  0  0  0  0  0
   -3.7500   -1.3320    0.5000 C   0  0  1  0  0  0  0  0  0  0  0  0
   -3.9630   -2.6470    0.0290 O   0  0  0  0  0  0  0  0  0  0  0  0
   -2.4090   -1.0800    0.4170 O   0  0  0  0  0  0  0  0  0  0  0  0
  2  1  1  1
  2  3  1  0
  2  4  1  0
  2 13  1  0
  4  5  1  6
  4  6  1  0
  6  7  1  0
  7  8  1  0
  8  9  1  0
  9 10  1  6
  9 11  1  0
 11 12  1  0
 13 14  1  6
 13 19  1  0
 14 15  1  0
 15 16  1  0
 16 17  1  0
 17 18  1  6
 17 19  1  0
M  END
