
     RDKit          3D

 19 19  0  0  0  0  0  0  0  0999 V2000
    5.4040    0.6280    2.0700 O   0  0  0  0  0  0  0  0  0  0  0  0
    5.8240    0.2500    0.7960 C   0  0  0  0  0  0  0  0  0  0  0  0
    4.7590   -0.6400    0.1890 C   0  0  0  0  0  0  0  0  0  0  0  0
    3.4300    0.0830    0.0810 C   0  0  0  0  0  0  0  0  0  0  0  0
    2.5320   -0.7510   -0.4610 O   0  0  0  0  0  0  0  0  0  0  0  0
    1.2450   -0.3350   -0.6670 C   0  0  1  0  0  0  0  0  0  0  0  0
    0.7990   -0.4610   -2.0910 C   0  0  0  0  0  0  0  0  0  0  0  0
   -0.4930   -0.0690   -2.3310 O   0  0  0  0  0  0  0  0  0  0  0  0
    0.3940   -1.2290    0.1910 C   0  0  0  0  0  0  0  0  0  0  0  0
   -0.9300   -0.9460    0.3010 O   0  0  0  0  0  0  0  0  0  0  0  0
   -1.2450    0.2230    0.9350 C   0  0  2  0  0  0  0  0  0  0  0  0
   -1.8930   -0.0550    2.3060 C   0  0  0  0  0  0  0  0  0  0  0  0
   -3.2290   -1.2350    1.9640 S   0  0  0  0  0  0  0  0  0  0  0  0
   -3.6020   -1.0280    0.1800 C   0  0  0  0  0  0  0  0  0  0  0  0
   -3.5100    0.4320   -0.1250 C   0  0  2  0  0  0  0  0  0  0  0  0
   -4.5490    1.0480    0.6150 O   0  0  0  0  0  0  0  0  0  0  0  0
   -3.9070    0.6360   -1.5790 C   0  0  0  0  0  0  0  0  0  0  0  0
   -4.0060    1.9860   -1.8920 O   0  0  0  0  0  0  0  0  0  0  0  0
   -2.1860    1.0640    0.1710 C   0  0  0  0  0  0  0  0  0  0  0  0
  1  2  1  0
  2  3  1  0
  3  4  1  0
  4  5  1  0
  5  6  1  0
  6  7  1  6
  6  9  1  0
  7  8  1  0
  9 10  1  0
 11 10  1  6
 11 12  1  0
 11 19  1  0
 12 13  1  0
 13 14  1  0
 14 15  1  0
 15 16  1  1
 15 17  1  0
 15 19  1  0
 17 18  1  0
M  END
