
     RDKit          3D

 22 24  0  0  0  0  0  0  0  0999 V2000
    5.8910   -0.0480   -3.0530 O   0  0  0  0  0  0  0  0  0  0  0  0
    5.6890    0.1610   -1.8590 C   0  0  0  0  0  0  0  0  0  0  0  0
    6.5270   -0.5330   -0.8450 C   0  0  0  0  0  0  0  0  0  0  0  0
    5.7220   -0.9600    0.3600 C   0  0  0  0  0  0  0  0  0  0  0  0
    4.7640    0.1360    0.8030 C   0  0  0  0  0  0  0  0  0  0  0  0
    3.8300    0.4330   -0.3460 C   0  0  1  0  0  0  0  0  0  0  0  0
    2.6520    1.1310    0.0470 N   0  0  0  0  0  0  0  0  0  0  0  0
    1.3240    0.6320   -0.0510 C   0  0  0  0  0  0  0  0  0  0  0  0
    1.1670   -0.5220   -0.5220 O   0  0  0  0  0  0  0  0  0  0  0  0
    0.1870    1.3690    0.3560 N   0  0  0  0  0  0  0  0  0  0  0  0
   -1.1150    0.9030    0.2700 N   0  0  0  0  0  0  0  0  0  0  0  0
   -1.8940    0.4480    1.3500 C   0  0  0  0  0  0  0  0  0  0  0  0
   -1.3870    0.4550    2.4990 O   0  0  0  0  0  0  0  0  0  0  0  0
   -3.2630   -0.0350    1.2240 C   0  0  0  0  0  0  0  0  0  0  0  0
   -4.0980   -0.4980    2.2170 C   0  0  0  0  0  0  0  0  0  0  0  0
   -5.2750   -0.8450    1.6600 N   0  0  0  0  0  0  0  0  0  0  0  0
   -5.2100   -0.6120    0.3240 C   0  0  0  0  0  0  0  0  0  0  0  0
   -6.3120   -0.8620   -0.6730 C   0  0  1  0  0  0  0  0  0  0  0  0
   -7.2630   -1.9660   -0.3970 C   0  0  0  0  0  0  0  0  0  0  0  0
   -7.6970   -0.5420   -0.2820 C   0  0  0  0  0  0  0  0  0  0  0  0
   -3.9910   -0.1270    0.0970 N   0  0  0  0  0  0  0  0  0  0  0  0
    4.6120    1.1020   -1.4390 C   0  0  0  0  0  0  0  0  0  0  0  0
  1  2  2  0
  2  3  1  0
  2 22  1  0
  3  4  1  0
  4  5  1  0
  5  6  1  0
  6  7  1  1
  6 22  1  0
  7  8  1  0
  8  9  2  0
  8 10  1  0
 10 11  1  0
 11 12  1  0
 12 13  2  0
 12 14  1  0
 14 15  2  0
 14 21  1  0
 15 16  1  0
 16 17  2  0
 18 17  1  1
 17 21  1  0
 18 19  1  0
 18 20  1  0
 19 20  1  0
M  END
