
     RDKit          3D

 22 24  0  0  0  0  0  0  0  0999 V2000
    0.4460   -2.5790   -1.1800 C   0  0  0  0  0  0  0  0  0  0  0  0
    0.9840   -1.2440   -0.8010 C   0  0  0  0  0  0  0  0  0  0  0  0
    2.3450   -1.0220   -0.6600 C   0  0  0  0  0  0  0  0  0  0  0  0
    2.8600    0.2120   -0.3070 C   0  0  0  0  0  0  0  0  0  0  0  0
    2.0240    1.2840   -0.0800 C   0  0  0  0  0  0  0  0  0  0  0  0
    0.6670    1.0690   -0.2190 C   0  0  0  0  0  0  0  0  0  0  0  0
    0.1640   -0.1630   -0.5700 C   0  0  0  0  0  0  0  0  0  0  0  0
   -1.2890   -0.3820   -0.7150 C   0  0  0  0  0  0  0  0  0  0  0  0
   -1.6560   -1.1350   -1.6270 O   0  0  0  0  0  0  0  0  0  0  0  0
   -2.1850    0.2600    0.1660 N   0  0  0  0  0  0  0  0  0  0  0  0
   -3.5780    0.1370    0.1350 C   0  0  0  0  0  0  0  0  0  0  0  0
   -4.2720    0.8430    1.0790 N   0  0  0  0  0  0  0  0  0  0  0  0
   -5.5710    0.8280    1.1740 N   0  0  0  0  0  0  0  0  0  0  0  0
   -6.2680    0.0790    0.2980 C   0  0  0  0  0  0  0  0  0  0  0  0
   -7.5360    0.0420    0.3630 O   0  0  0  0  0  0  0  0  0  0  0  0
   -5.6420   -0.6440   -0.6620 C   0  0  0  0  0  0  0  0  0  0  0  0
   -6.2210   -1.3630   -1.5110 O   0  0  0  0  0  0  0  0  0  0  0  0
   -4.2750   -0.6010   -0.7270 N   0  0  0  0  0  0  0  0  0  0  0  0
    2.8110    2.4760    0.2780 C   0  0  0  0  0  0  0  0  0  0  0  0
    4.1410    1.9650    0.5420 N   0  0  0  0  0  0  0  0  0  0  0  0
    4.2440    0.6930   -0.0980 C   0  0  1  0  0  0  0  0  0  0  0  0
    5.0680   -0.3120    0.6550 C   0  0  0  0  0  0  0  0  0  0  0  0
  1  2  1  0
  2  3  2  0
  2  7  1  0
  3  4  1  0
  4  5  2  0
  4 21  1  0
  5  6  1  0
  5 19  1  0
  6  7  2  0
  7  8  1  0
  8  9  2  0
  8 10  1  0
 10 11  1  0
 11 12  2  0
 11 18  1  0
 12 13  1  0
 13 14  1  0
 14 15  2  0
 14 16  1  0
 16 17  2  0
 16 18  1  0
 19 20  1  0
 20 21  1  0
 21 22  1  1
M  END
