
     RDKit          3D

 22 24  0  0  0  0  0  0  0  0999 V2000
   -5.9020    0.5830    1.0480 C   0  0  0  0  0  0  0  0  0  0  0  0
   -5.3070    1.4030   -0.0640 C   0  0  0  0  0  0  0  0  0  0  0  0
   -4.3440    0.6960   -0.8460 N   0  0  0  0  0  0  0  0  0  0  0  0
   -3.2110    0.2850   -0.4470 C   0  0  0  0  0  0  0  0  0  0  0  0
   -2.3820   -0.3740   -1.2770 N   0  0  0  0  0  0  0  0  0  0  0  0
   -1.1720   -0.8000   -0.8100 C   0  0  0  0  0  0  0  0  0  0  0  0
   -0.7850   -0.5680    0.4900 C   0  0  0  0  0  0  0  0  0  0  0  0
    0.4730   -1.0120    0.9700 N   0  0  0  0  0  0  0  0  0  0  0  0
    1.3870   -1.7110    0.1410 C   0  0  0  0  0  0  0  0  0  0  0  0
    2.5520   -1.1160   -0.1590 C   0  0  0  0  0  0  0  0  0  0  0  0
    3.0050    0.2000    0.2740 C   0  0  0  0  0  0  0  0  0  0  0  0
    2.3490    0.9720    1.0070 O   0  0  0  0  0  0  0  0  0  0  0  0
    4.3370    0.4420   -0.2920 C   0  0  0  0  0  0  0  0  0  0  0  0
    5.3700    1.3350   -0.3730 C   0  0  0  0  0  0  0  0  0  0  0  0
    6.3550    0.8330   -1.1380 N   0  0  0  0  0  0  0  0  0  0  0  0
    5.9590   -0.3820   -1.5510 C   0  0  0  0  0  0  0  0  0  0  0  0
    4.7130   -0.6680   -1.0510 C   0  0  0  0  0  0  0  0  0  0  0  0
    3.6250   -1.6530   -0.9880 C   0  0  0  0  0  0  0  0  0  0  0  0
    3.6330   -2.7750   -1.5620 O   0  0  0  0  0  0  0  0  0  0  0  0
   -1.6450    0.1060    1.3230 C   0  0  0  0  0  0  0  0  0  0  0  0
   -1.3760    0.3630    2.5250 O   0  0  0  0  0  0  0  0  0  0  0  0
   -2.8420    0.5150    0.8230 N   0  0  0  0  0  0  0  0  0  0  0  0
  1  2  1  0
  2  3  1  0
  3  4  2  3
  4  5  1  0
  4 22  1  0
  5  6  1  0
  6  7  2  0
  7  8  1  0
  7 20  1  0
  8  9  1  0
  9 10  2  3
 10 11  1  0
 10 18  1  0
 11 12  2  0
 11 13  1  0
 13 14  2  0
 13 17  1  0
 14 15  1  0
 15 16  1  0
 16 17  2  0
 17 18  1  0
 18 19  2  0
 20 21  2  0
 20 22  1  0
M  END
