
     RDKit          3D

 22 24  0  0  0  0  0  0  0  0999 V2000
    7.1180    0.9390   -0.3340 C   0  0  0  0  0  0  0  0  0  0  0  0
    5.6230    1.0080   -0.4320 C   0  0  0  0  0  0  0  0  0  0  0  0
    5.0830    1.4310   -1.4820 O   0  0  0  0  0  0  0  0  0  0  0  0
    4.8570    0.5880    0.6760 N   0  0  0  0  0  0  0  0  0  0  0  0
    3.4630    0.6240    0.6550 N   0  0  0  0  0  0  0  0  0  0  0  0
    2.6900   -0.5170    0.3010 C   0  0  0  0  0  0  0  0  0  0  0  0
    3.2740   -1.5690    0.0060 O   0  0  0  0  0  0  0  0  0  0  0  0
    1.2270   -0.4310    0.2900 C   0  0  0  0  0  0  0  0  0  0  0  0
    0.4380   -1.4990   -0.0740 C   0  0  0  0  0  0  0  0  0  0  0  0
   -0.9530   -1.3570   -0.0670 C   0  0  0  0  0  0  0  0  0  0  0  0
   -1.5340   -0.1690    0.2970 C   0  0  0  0  0  0  0  0  0  0  0  0
   -2.8070    0.3090    0.4190 C   0  0  0  0  0  0  0  0  0  0  0  0
   -4.0620   -0.3730    0.1370 C   0  0  0  0  0  0  0  0  0  0  0  0
   -5.2930    0.1320    0.3630 C   0  0  0  0  0  0  0  0  0  0  0  0
   -6.3090   -0.8340   -0.0410 C   0  0  0  0  0  0  0  0  0  0  0  0
   -7.6760   -0.7000   -0.1770 O   0  0  0  0  0  0  0  0  0  0  0  0
   -5.6270   -1.9190   -0.2630 C   0  0  0  0  0  0  0  0  0  0  0  0
   -4.3260   -1.6570   -0.4640 C   0  0  0  0  0  0  0  0  0  0  0  0
   -2.7570    1.6170    0.8460 N   0  0  0  0  0  0  0  0  0  0  0  0
   -1.4950    1.9170    0.9740 N   0  0  0  0  0  0  0  0  0  0  0  0
   -0.7000    0.8960    0.6620 C   0  0  0  0  0  0  0  0  0  0  0  0
    0.6230    0.7310    0.6460 N   0  0  0  0  0  0  0  0  0  0  0  0
  1  2  1  0
  2  3  2  0
  2  4  1  0
  4  5  1  0
  5  6  1  0
  6  7  2  0
  6  8  1  0
  8  9  1  0
  8 22  2  0
  9 10  2  0
 10 11  1  0
 11 12  2  0
 11 21  1  0
 12 13  1  0
 12 19  1  0
 13 14  2  0
 13 18  1  0
 14 15  1  0
 15 16  1  0
 15 17  2  0
 17 18  2  0
 19 20  1  0
 20 21  2  0
 21 22  1  0
M  END
