
     RDKit          3D

 24 24  0  0  0  0  0  0  0  0999 V2000
    8.4660    0.5060    0.3170 C   0  0  0  0  0  0  0  0  0  0  0  0
    7.4350   -0.1640   -0.3650 O   0  0  0  0  0  0  0  0  0  0  0  0
    6.7260   -1.1530    0.2930 C   0  0  0  0  0  0  0  0  0  0  0  0
    7.0280   -1.4210    1.4830 O   0  0  0  0  0  0  0  0  0  0  0  0
    5.6400   -1.8560   -0.4260 C   0  0  0  0  0  0  0  0  0  0  0  0
    4.2650   -1.2750    0.0560 C   0  0  0  0  0  0  0  0  0  0  0  0
    4.2830    0.1600   -0.2680 C   0  0  0  0  0  0  0  0  0  0  0  0
    3.2180    1.0750    0.1120 C   0  0  0  0  0  0  0  0  0  0  0  0
    1.8140    0.9140   -0.3050 C   0  0  0  0  0  0  0  0  0  0  0  0
    1.1500   -0.2780    0.2540 C   0  0  0  0  0  0  0  0  0  0  0  0
   -0.3130   -0.4430   -0.2000 C   0  0  0  0  0  0  0  0  0  0  0  0
   -1.0770    0.7520    0.2380 C   0  0  0  0  0  0  0  0  0  0  0  0
   -2.4280    0.6960   -0.1000 O   0  0  0  0  0  0  0  0  0  0  0  0
   -3.1170   -0.3570    0.4400 C   0  0  1  0  0  0  0  0  0  0  0  0
   -4.1870    0.0500    1.2430 O   0  0  0  0  0  0  0  0  0  0  0  0
   -5.0040    0.8970    0.4950 C   0  0  2  0  0  0  0  0  0  0  0  0
   -5.9500    1.6660    1.3900 C   0  0  0  0  0  0  0  0  0  0  0  0
   -6.7450    2.5000    0.6060 O   0  0  0  0  0  0  0  0  0  0  0  0
   -5.7320    0.0450   -0.5200 C   0  0  1  0  0  0  0  0  0  0  0  0
   -6.7020    0.8010   -1.1790 O   0  0  0  0  0  0  0  0  0  0  0  0
   -4.7010   -0.4800   -1.4970 C   0  0  2  0  0  0  0  0  0  0  0  0
   -5.2830   -1.3970   -2.3750 O   0  0  0  0  0  0  0  0  0  0  0  0
   -3.6480   -1.2180   -0.7060 C   0  0  2  0  0  0  0  0  0  0  0  0
   -4.1640   -2.4190   -0.2560 O   0  0  0  0  0  0  0  0  0  0  0  0
  1  2  1  0
  2  3  1  0
  3  4  2  0
  3  5  1  0
  5  6  1  0
  6  7  1  0
  7  8  1  0
  8  9  1  0
  9 10  1  0
 10 11  1  0
 11 12  1  0
 12 13  1  0
 14 13  1  6
 14 15  1  0
 14 23  1  0
 15 16  1  0
 16 17  1  1
 16 19  1  0
 17 18  1  0
 19 20  1  6
 19 21  1  0
 21 22  1  6
 21 23  1  0
 23 24  1  1
M  END
