
     RDKit          3D

 26 28  0  0  0  0  0  0  0  0999 V2000
   -7.0130   -0.2030    1.0950 C   0  0  0  0  0  0  0  0  0  0  0  0
   -5.8650    0.3060    0.3950 N   0  0  0  0  0  0  0  0  0  0  0  0
   -4.5950   -0.3490    0.4160 C   0  0  0  0  0  0  0  0  0  0  0  0
   -4.3890   -1.5200    1.1180 C   0  0  0  0  0  0  0  0  0  0  0  0
   -3.1620   -2.1440    1.1330 C   0  0  0  0  0  0  0  0  0  0  0  0
   -2.1220   -1.5590    0.4160 C   0  0  0  0  0  0  0  0  0  0  0  0
   -2.3160   -0.4090   -0.2760 C   0  0  0  0  0  0  0  0  0  0  0  0
   -1.3300    0.3200   -1.0710 C   0  0  0  0  0  0  0  0  0  0  0  0
   -0.0140   -0.2450   -1.1240 N   0  0  0  0  0  0  0  0  0  0  0  0
    0.9370    0.4680   -1.8980 C   0  0  0  0  0  0  0  0  0  0  0  0
    0.6540    1.6380   -2.5730 C   0  0  0  0  0  0  0  0  0  0  0  0
    1.5940    2.3140   -3.3190 C   0  0  0  0  0  0  0  0  0  0  0  0
    2.8780    1.8230   -3.4110 C   0  0  0  0  0  0  0  0  0  0  0  0
    3.1870    0.6540   -2.7440 C   0  0  0  0  0  0  0  0  0  0  0  0
    4.4480    0.1510   -2.8200 F   0  0  0  0  0  0  0  0  0  0  0  0
    2.2160   -0.0180   -1.9910 C   0  0  0  0  0  0  0  0  0  0  0  0
    2.5440   -1.2100   -1.3160 N   0  0  0  0  0  0  0  0  0  0  0  0
    3.0270   -1.1550    0.0130 C   0  0  0  0  0  0  0  0  0  0  0  0
    3.3590   -2.3250    0.7040 C   0  0  0  0  0  0  0  0  0  0  0  0
    3.8280   -2.2560    1.9960 C   0  0  0  0  0  0  0  0  0  0  0  0
    3.9830   -1.0440    2.6430 C   0  0  0  0  0  0  0  0  0  0  0  0
    4.4680   -0.9680    3.9800 N   0  0  0  0  0  0  0  0  0  0  0  0
    3.6660    0.1110    1.9900 C   0  0  0  0  0  0  0  0  0  0  0  0
    3.7900    1.3440    2.5560 F   0  0  0  0  0  0  0  0  0  0  0  0
    3.1980    0.0310    0.6990 C   0  0  0  0  0  0  0  0  0  0  0  0
   -3.5580    0.1640   -0.2530 N   0  0  0  0  0  0  0  0  0  0  0  0
  1  2  1  0
  2  3  1  0
  3  4  2  0
  3 26  1  0
  4  5  1  0
  5  6  2  0
  6  7  1  0
  7  8  1  0
  7 26  2  0
  8  9  1  0
  9 10  1  0
 10 11  2  0
 10 16  1  0
 11 12  1  0
 12 13  2  0
 13 14  1  0
 14 15  1  0
 14 16  2  0
 16 17  1  0
 17 18  1  0
 18 19  2  0
 18 25  1  0
 19 20  1  0
 20 21  2  0
 21 22  1  0
 21 23  1  0
 23 24  1  0
 23 25  2  0
M  END
