
     RDKit          3D

 25 27  0  0  0  0  0  0  0  0999 V2000
   -3.4020   -2.2740    2.1100 C   0  0  0  0  0  0  0  0  0  0  0  0
   -3.0660   -2.6260    0.7620 N   0  0  0  0  0  0  0  0  0  0  0  0
   -2.9070   -1.5050   -0.1070 C   0  0  0  0  0  0  0  0  0  0  0  0
   -1.6880   -0.6540    0.2160 C   0  0  1  0  0  0  0  0  0  0  0  0
   -0.4940   -1.5380    0.0840 C   0  0  0  0  0  0  0  0  0  0  0  0
    0.7700   -0.9190    0.3590 N   0  0  0  0  0  0  0  0  0  0  0  0
    1.2430   -0.9050    1.6400 C   0  0  0  0  0  0  0  0  0  0  0  0
    0.5160   -1.4450    2.5240 O   0  0  0  0  0  0  0  0  0  0  0  0
    2.4210   -0.3520    1.9770 N   0  0  0  0  0  0  0  0  0  0  0  0
    3.2270    0.2320    1.0720 C   0  0  0  0  0  0  0  0  0  0  0  0
    4.4440    0.8010    1.4240 C   0  0  0  0  0  0  0  0  0  0  0  0
    4.8130    0.7730    2.6380 O   0  0  0  0  0  0  0  0  0  0  0  0
    5.2040    1.3720    0.4660 N   0  0  0  0  0  0  0  0  0  0  0  0
    4.7520    1.3690   -0.8140 C   0  0  0  0  0  0  0  0  0  0  0  0
    5.4560    1.9000   -1.7150 O   0  0  0  0  0  0  0  0  0  0  0  0
    3.5750    0.8170   -1.1490 N   0  0  0  0  0  0  0  0  0  0  0  0
    2.7870    0.2400   -0.2350 C   0  0  0  0  0  0  0  0  0  0  0  0
    1.5560   -0.3410   -0.5630 C   0  0  0  0  0  0  0  0  0  0  0  0
    1.1980   -0.3130   -1.7560 O   0  0  0  0  0  0  0  0  0  0  0  0
   -1.7060    0.5170   -0.6840 C   0  0  0  0  0  0  0  0  0  0  0  0
   -1.9010    0.4540   -2.0480 C   0  0  0  0  0  0  0  0  0  0  0  0
   -1.9080    1.5750   -2.8470 C   0  0  0  0  0  0  0  0  0  0  0  0
   -1.7240    2.7990   -2.3330 N   0  0  0  0  0  0  0  0  0  0  0  0
   -1.5310    2.8930   -1.0030 C   0  0  0  0  0  0  0  0  0  0  0  0
   -1.5160    1.7970   -0.1660 C   0  0  0  0  0  0  0  0  0  0  0  0
  1  2  1  0
  2  3  1  0
  4  3  1  6
  4  5  1  0
  4 20  1  0
  5  6  1  0
  6  7  1  0
  6 18  1  0
  7  8  2  0
  7  9  1  0
  9 10  1  0
 10 11  1  0
 10 17  2  0
 11 12  2  0
 11 13  1  0
 13 14  1  0
 14 15  2  0
 14 16  1  0
 16 17  1  0
 17 18  1  0
 18 19  2  0
 20 21  2  0
 20 25  1  0
 21 22  1  0
 22 23  2  0
 23 24  1  0
 24 25  2  0
M  CHG  1  23   1
M  END
