
     RDKit          3D

 25 27  0  0  0  0  0  0  0  0999 V2000
    0.0950    1.3390    1.8900 C   0  0  0  0  0  0  0  0  0  0  0  0
    0.5030    0.1720    1.0500 C   0  0  0  0  0  0  0  0  0  0  0  0
    1.8000   -0.1110    0.8340 N   0  0  0  0  0  0  0  0  0  0  0  0
    2.2540   -1.1260    0.1020 C   0  0  0  0  0  0  0  0  0  0  0  0
    3.6370   -1.3910   -0.1000 N   0  0  0  0  0  0  0  0  0  0  0  0
    4.6230   -0.5570    0.4870 C   0  0  0  0  0  0  0  0  0  0  0  0
    4.1880    0.4170    1.1900 O   0  0  0  0  0  0  0  0  0  0  0  0
    6.0780   -0.7740    0.3180 C   0  0  1  0  0  0  0  0  0  0  0  0
    6.4100   -0.3240   -1.1120 C   0  0  0  0  0  0  0  0  0  0  0  0
    6.3330    1.1830   -0.8820 C   0  0  0  0  0  0  0  0  0  0  0  0
    6.2870    1.3310    0.5070 O   0  0  0  0  0  0  0  0  0  0  0  0
    6.7570    0.2180    1.0230 O   0  0  0  0  0  0  0  0  0  0  0  0
    1.2990   -1.9580   -0.4850 C   0  0  0  0  0  0  0  0  0  0  0  0
   -0.0440   -1.7090   -0.2930 C   0  0  0  0  0  0  0  0  0  0  0  0
   -0.4470   -0.6450    0.4730 C   0  0  0  0  0  0  0  0  0  0  0  0
   -1.8490   -0.3780    0.6780 N   0  0  0  0  0  0  0  0  0  0  0  0
   -2.8250   -0.8190   -0.1210 C   0  0  0  0  0  0  0  0  0  0  0  0
   -4.0140   -0.3670    0.3910 C   0  0  0  0  0  0  0  0  0  0  0  0
   -5.3360   -0.5860   -0.1230 N   0  0  0  0  0  0  0  0  0  0  0  0
   -5.5970    0.1570   -1.3180 C   0  0  0  0  0  0  0  0  0  0  0  0
   -6.1010    1.5180   -0.9760 C   0  0  0  0  0  0  0  0  0  0  0  0
   -6.2580    1.9110    0.3780 N   0  0  0  0  0  0  0  0  0  0  0  0
   -6.4000    2.3560   -1.8580 O   0  0  0  0  0  0  0  0  0  0  0  0
   -3.7330    0.3610    1.5240 C   0  0  0  0  0  0  0  0  0  0  0  0
   -2.3990    0.3210    1.6490 N   0  0  0  0  0  0  0  0  0  0  0  0
  1  2  1  0
  2  3  2  0
  2 15  1  0
  3  4  1  0
  4  5  1  0
  4 13  2  0
  5  6  1  0
  6  7  2  0
  8  6  1  6
  8  9  1  0
  8 12  1  0
  9 10  1  0
 10 11  1  0
 11 12  1  0
 13 14  1  0
 14 15  2  0
 15 16  1  0
 16 17  1  0
 16 25  1  0
 17 18  2  0
 18 19  1  0
 18 24  1  0
 19 20  1  0
 20 21  1  0
 21 22  1  0
 21 23  2  0
 24 25  2  0
M  CHG  1  19   1
M  END
