
     RDKit          3D

 26 28  0  0  0  0  0  0  0  0999 V2000
    4.0730    1.6550   -2.4440 C   0  0  0  0  0  0  0  0  0  0  0  0
    3.1240    0.9620   -1.5150 C   0  0  0  0  0  0  0  0  0  0  0  0
    1.7820    0.9710   -1.5280 N   0  0  0  0  0  0  0  0  0  0  0  0
    1.2890    0.2030   -0.5520 N   0  0  0  0  0  0  0  0  0  0  0  0
   -0.1040    0.0230   -0.3150 C   0  0  0  0  0  0  0  0  0  0  0  0
   -0.9520   -0.4210   -1.3090 C   0  0  0  0  0  0  0  0  0  0  0  0
   -2.3210   -0.5830   -1.0760 C   0  0  0  0  0  0  0  0  0  0  0  0
   -2.8550   -0.2990    0.1600 C   0  0  0  0  0  0  0  0  0  0  0  0
   -4.2630   -0.4350    0.5100 C   0  0  1  0  0  0  0  0  0  0  0  0
   -4.5490   -1.8590    0.8920 C   0  0  0  0  0  0  0  0  0  0  0  0
   -4.6320    0.4220    1.7210 C   0  0  0  0  0  0  0  0  0  0  0  0
   -5.2180   -0.0420   -0.5880 C   0  0  0  0  0  0  0  0  0  0  0  0
   -5.0360    1.4020   -0.9940 C   0  0  2  0  0  0  0  0  0  0  0  0
   -3.7660    1.6670   -1.4650 F   0  0  0  0  0  0  0  0  0  0  0  0
   -5.3990    2.2690    0.0420 F   0  0  0  0  0  0  0  0  0  0  0  0
   -1.9980    0.1490    1.1710 C   0  0  0  0  0  0  0  0  0  0  0  0
   -0.6450    0.3050    0.9280 C   0  0  0  0  0  0  0  0  0  0  0  0
    0.1990    0.7470    1.9820 N   0  0  0  0  0  0  0  0  0  0  0  0
    2.3500   -0.3070    0.0990 C   0  0  0  0  0  0  0  0  0  0  0  0
    2.2940   -1.1850    1.2270 N   0  0  0  0  0  0  0  0  0  0  0  0
    3.5330    0.1510   -0.4810 C   0  0  0  0  0  0  0  0  0  0  0  0
    4.8780   -0.1910   -0.0410 C   0  0  0  0  0  0  0  0  0  0  0  0
    5.6970   -1.1220   -0.6270 C   0  0  0  0  0  0  0  0  0  0  0  0
    6.8990   -1.1530    0.0850 C   0  0  0  0  0  0  0  0  0  0  0  0
    6.7980   -0.2500    1.0840 N   0  0  0  0  0  0  0  0  0  0  0  0
    5.5950    0.3290    1.0170 C   0  0  0  0  0  0  0  0  0  0  0  0
  1  2  1  0
  2  3  2  0
  2 21  1  0
  3  4  1  0
  4  5  1  0
  4 19  1  0
  5  6  2  0
  5 17  1  0
  6  7  1  0
  7  8  2  0
  8  9  1  0
  8 16  1  0
  9 10  1  1
  9 11  1  0
  9 12  1  0
 12 13  1  0
 13 14  1  1
 13 15  1  0
 16 17  2  0
 17 18  1  0
 19 20  1  0
 19 21  2  0
 21 22  1  0
 22 23  1  0
 22 26  2  0
 23 24  2  0
 24 25  1  0
 25 26  1  0
M  END
