
     RDKit          3D

 26 28  0  0  0  0  0  0  0  0999 V2000
   -7.3750   -1.2990   -0.7840 C   0  0  0  0  0  0  0  0  0  0  0  0
   -6.0890   -0.6130   -0.4970 C   0  0  0  0  0  0  0  0  0  0  0  0
   -5.3120   -1.0140    0.5670 C   0  0  0  0  0  0  0  0  0  0  0  0
   -4.0990   -0.3880    0.8600 C   0  0  0  0  0  0  0  0  0  0  0  0
   -3.3140   -0.7790    1.9190 C   0  0  0  0  0  0  0  0  0  0  0  0
   -2.1300   -0.1470    2.1820 C   0  0  0  0  0  0  0  0  0  0  0  0
   -1.3700   -0.5610    3.2460 F   0  0  0  0  0  0  0  0  0  0  0  0
   -1.7270    0.8840    1.3810 C   0  0  0  0  0  0  0  0  0  0  0  0
   -0.4470    1.5880    1.6400 C   0  0  0  0  0  0  0  0  0  0  0  0
    0.7530    0.8040    1.1980 C   0  0  0  0  0  0  0  0  0  0  0  0
    0.7260    0.5070   -0.2720 C   0  0  0  0  0  0  0  0  0  0  0  0
    1.9330   -0.2600   -0.6400 C   0  0  0  0  0  0  0  0  0  0  0  0
    3.1750    0.2100   -1.0570 C   0  0  0  0  0  0  0  0  0  0  0  0
    4.0220   -0.8550   -1.2990 C   0  0  0  0  0  0  0  0  0  0  0  0
    5.4230   -0.7740   -1.7570 C   0  0  0  0  0  0  0  0  0  0  0  0
    6.3640   -0.6800   -0.6580 N   0  0  0  0  0  0  0  0  0  0  0  0
    6.3220    0.3920    0.2610 C   0  0  0  0  0  0  0  0  0  0  0  0
    5.9720    1.5730   -0.1760 N   0  0  0  0  0  0  0  0  0  0  0  0
    6.6530    0.1840    1.6230 N   0  0  0  0  0  0  0  0  0  0  0  0
    3.2640   -1.9550   -1.0190 N   0  0  0  0  0  0  0  0  0  0  0  0
    2.0590   -1.5950   -0.6390 N   0  0  0  0  0  0  0  0  0  0  0  0
   -2.5160    1.2670    0.3280 C   0  0  0  0  0  0  0  0  0  0  0  0
   -3.7230    0.6470    0.0340 C   0  0  0  0  0  0  0  0  0  0  0  0
   -4.4980    1.0570   -1.0370 C   0  0  0  0  0  0  0  0  0  0  0  0
   -5.6900    0.4270   -1.3090 C   0  0  0  0  0  0  0  0  0  0  0  0
   -6.4800    0.8090   -2.3600 F   0  0  0  0  0  0  0  0  0  0  0  0
  1  2  1  0
  2  3  2  0
  2 25  1  0
  3  4  1  0
  4  5  2  0
  4 23  1  0
  5  6  1  0
  6  7  1  0
  6  8  2  0
  8  9  1  0
  8 22  1  0
  9 10  1  0
 10 11  1  0
 11 12  1  0
 12 13  1  0
 12 21  2  0
 13 14  2  0
 14 15  1  0
 14 20  1  0
 15 16  1  0
 16 17  1  0
 17 18  2  0
 17 19  1  0
 20 21  1  0
 22 23  2  0
 23 24  1  0
 24 25  2  0
 25 26  1  0
M  END
