
     RDKit          3D

 25 27  0  0  0  0  0  0  0  0999 V2000
   -6.7230    1.9820   -1.4940 C   0  0  0  0  0  0  0  0  0  0  0  0
   -6.8540    0.4970   -1.7520 C   0  0  0  0  0  0  0  0  0  0  0  0
   -5.9550   -0.1530   -0.8400 O   0  0  0  0  0  0  0  0  0  0  0  0
   -4.6090    0.0770   -0.8390 C   0  0  0  0  0  0  0  0  0  0  0  0
   -4.1480    0.9050   -1.6900 O   0  0  0  0  0  0  0  0  0  0  0  0
   -3.6840   -0.5420    0.0430 N   0  0  0  0  0  0  0  0  0  0  0  0
   -2.2460   -0.2330   -0.0280 C   0  0  0  0  0  0  0  0  0  0  0  0
   -1.4670   -0.9960    0.9890 C   0  0  1  0  0  0  0  0  0  0  0  0
   -1.6700   -2.4060    0.7260 N   0  0  0  0  0  0  0  0  0  0  0  0
   -0.6040   -3.2050    1.3080 C   0  0  0  0  0  0  0  0  0  0  0  0
   -0.0250   -0.5970    0.9110 C   0  0  2  0  0  0  0  0  0  0  0  0
    0.2490    0.8060    1.3300 C   0  0  0  0  0  0  0  0  0  0  0  0
    1.5240    1.2110    0.9130 O   0  0  0  0  0  0  0  0  0  0  0  0
    2.4240    0.4480    0.1910 C   0  0  0  0  0  0  0  0  0  0  0  0
    3.8430    0.7480    0.1210 C   0  0  0  0  0  0  0  0  0  0  0  0
    4.5090    1.7870    0.7260 C   0  0  0  0  0  0  0  0  0  0  0  0
    3.9300    2.7830    1.5490 N   0  0  0  0  0  0  0  0  0  0  0  0
    5.8630    1.7100    0.4010 C   0  0  0  0  0  0  0  0  0  0  0  0
    6.0060    0.6180   -0.4030 N   0  0  0  0  0  0  0  0  0  0  0  0
    4.8090    0.0500   -0.5680 C   0  0  0  0  0  0  0  0  0  0  0  0
    5.0330   -1.1000   -1.4290 C   0  0  0  0  0  0  0  0  0  0  0  0
    6.2680   -1.2140   -1.7560 N   0  0  0  0  0  0  0  0  0  0  0  0
    6.9880   -0.1440   -1.1400 C   0  0  0  0  0  0  0  0  0  0  0  0
    1.9200   -0.5810   -0.4390 N   0  0  0  0  0  0  0  0  0  0  0  0
    0.5540   -0.8330   -0.3460 O   0  0  0  0  0  0  0  0  0  0  0  0
  1  2  1  0
  2  3  1  0
  3  4  1  0
  4  5  2  0
  4  6  1  0
  6  7  1  0
  8  7  1  6
  8  9  1  0
  8 11  1  0
  9 10  1  0
 11 12  1  6
 11 25  1  0
 12 13  1  0
 13 14  1  0
 14 15  1  0
 14 24  2  0
 15 16  1  0
 15 20  2  0
 16 17  1  0
 16 18  2  0
 18 19  1  0
 19 20  1  0
 19 23  1  0
 20 21  1  0
 21 22  2  0
 22 23  1  0
 24 25  1  0
M  CHG  1   9   1
M  END
