
     RDKit          3D

 27 29  0  0  0  0  0  0  0  0999 V2000
    9.8830   -0.0870    0.5130 O   0  0  0  0  0  0  0  0  0  0  0  0
    8.7800    0.7450    0.6480 C   0  0  0  0  0  0  0  0  0  0  0  0
    7.5220   -0.0540    0.5830 C   0  0  0  0  0  0  0  0  0  0  0  0
    6.2730    0.4730    0.6830 C   0  0  0  0  0  0  0  0  0  0  0  0
    5.4050   -0.5610    0.5780 N   0  0  0  0  0  0  0  0  0  0  0  0
    3.9630   -0.4680    0.6300 C   0  0  0  0  0  0  0  0  0  0  0  0
    3.3800   -0.2550   -0.7670 C   0  0  0  0  0  0  0  0  0  0  0  0
    1.9110   -0.1670   -0.6500 C   0  0  0  0  0  0  0  0  0  0  0  0
    1.2990    1.0340   -0.4510 C   0  0  0  0  0  0  0  0  0  0  0  0
   -0.0760    1.1720   -0.3330 C   0  0  0  0  0  0  0  0  0  0  0  0
   -0.8860    0.0290   -0.4210 C   0  0  0  0  0  0  0  0  0  0  0  0
   -2.2230    0.2580   -0.2950 O   0  0  0  0  0  0  0  0  0  0  0  0
   -3.1830   -0.7440   -0.3540 C   0  0  1  0  0  0  0  0  0  0  0  0
   -3.8530   -0.8480    0.8540 O   0  0  0  0  0  0  0  0  0  0  0  0
   -4.7830    0.0970    1.1000 C   0  0  2  0  0  0  0  0  0  0  0  0
   -6.1050   -0.6090    1.4270 C   0  0  0  0  0  0  0  0  0  0  0  0
   -7.1090    0.3200    1.6900 O   0  0  0  0  0  0  0  0  0  0  0  0
   -5.0040    1.1310    0.0660 C   0  0  1  0  0  0  0  0  0  0  0  0
   -4.1230    2.2230    0.2330 O   0  0  0  0  0  0  0  0  0  0  0  0
   -5.0040    0.6360   -1.3440 C   0  0  2  0  0  0  0  0  0  0  0  0
   -6.3050    0.4060   -1.8210 O   0  0  0  0  0  0  0  0  0  0  0  0
   -4.1420   -0.5730   -1.5170 C   0  0  2  0  0  0  0  0  0  0  0  0
   -4.8860   -1.7280   -1.6940 O   0  0  0  0  0  0  0  0  0  0  0  0
   -0.2510   -1.1670   -0.6210 C   0  0  0  0  0  0  0  0  0  0  0  0
    1.1360   -1.2960   -0.7390 C   0  0  0  0  0  0  0  0  0  0  0  0
    6.0660   -1.6830    0.4190 N   0  0  0  0  0  0  0  0  0  0  0  0
    7.3730   -1.3850    0.4200 N   0  0  0  0  0  0  0  0  0  0  0  0
  1  2  1  0
  2  3  1  0
  3  4  2  0
  3 27  1  0
  4  5  1  0
  5  6  1  0
  5 26  1  0
  6  7  1  0
  7  8  1  0
  8  9  2  0
  8 25  1  0
  9 10  1  0
 10 11  2  0
 11 12  1  0
 11 24  1  0
 13 12  1  1
 13 14  1  0
 13 22  1  0
 14 15  1  0
 15 16  1  6
 15 18  1  0
 16 17  1  0
 18 19  1  6
 18 20  1  0
 20 21  1  1
 20 22  1  0
 22 23  1  1
 24 25  2  0
 26 27  2  0
M  END
