
     RDKit          3D

 25 26  0  0  0  0  0  0  0  0999 V2000
    6.5560    0.1140    0.0360 C   0  0  0  0  0  0  0  0  0  0  0  0
    5.3190    0.4870   -0.7040 C   0  0  0  0  0  0  0  0  0  0  0  0
    5.4130    1.2850   -1.6030 O   0  0  0  0  0  0  0  0  0  0  0  0
    4.0510   -0.1570   -0.2750 C   0  0  2  0  0  0  0  0  0  0  0  0
    3.7510    0.1710    1.1710 C   0  0  0  0  0  0  0  0  0  0  0  0
    4.0660   -1.6480   -0.5360 C   0  0  0  0  0  0  0  0  0  0  0  0
    2.6060   -1.9260   -0.6430 C   0  0  0  0  0  0  0  0  0  0  0  0
    2.0900   -3.0710   -0.4480 O   0  0  0  0  0  0  0  0  0  0  0  0
    1.9120   -0.7340   -0.9880 N   0  0  0  0  0  0  0  0  0  0  0  0
    0.4640   -0.5930   -1.2020 C   0  0  0  0  0  0  0  0  0  0  0  0
   -0.1790   -0.2570    0.0800 C   0  0  0  0  0  0  0  0  0  0  0  0
    0.5240   -0.1440    1.1120 O   0  0  0  0  0  0  0  0  0  0  0  0
   -1.6380   -0.0640    0.1070 C   0  0  0  0  0  0  0  0  0  0  0  0
   -2.1730    0.2320    1.2590 C   0  0  0  0  0  0  0  0  0  0  0  0
   -3.6030    0.4300    1.3230 C   0  0  0  0  0  0  0  0  0  0  0  0
   -4.2300    0.7650    2.6170 C   0  0  0  0  0  0  0  0  0  0  0  0
   -4.3990    0.3220    0.2450 C   0  0  0  0  0  0  0  0  0  0  0  0
   -5.8260    0.5320    0.3820 C   0  0  0  0  0  0  0  0  0  0  0  0
   -6.7220    0.4620   -0.5600 C   0  0  0  0  0  0  0  0  0  0  0  0
   -8.4410    0.7640   -0.1520 Cl  0  0  0  0  0  0  0  0  0  0  0  0
   -6.4250    0.0910   -2.2360 Cl  0  0  0  0  0  0  0  0  0  0  0  0
   -3.8480    0.0090   -1.0620 C   0  0  0  0  0  0  0  0  0  0  0  0
   -2.3970   -0.2170   -1.1170 C   0  0  0  0  0  0  0  0  0  0  0  0
    2.8950    0.2850   -1.0880 C   0  0  0  0  0  0  0  0  0  0  0  0
    2.7660    1.3550   -1.7570 O   0  0  0  0  0  0  0  0  0  0  0  0
  1  2  1  0
  2  3  2  0
  2  4  1  0
  4  5  1  1
  4  6  1  0
  4 24  1  0
  6  7  1  0
  7  8  2  0
  7  9  1  0
  9 10  1  0
  9 24  1  0
 10 11  1  0
 11 12  2  0
 11 13  1  0
 13 14  2  0
 13 23  1  0
 14 15  1  0
 15 16  1  0
 15 17  2  0
 17 18  1  0
 17 22  1  0
 18 19  2  3
 19 20  1  0
 19 21  1  0
 22 23  1  0
 24 25  2  0
M  END
