
     RDKit          3D

 11 11  0  0  0  0  0  0  0  0999 V2000
   -2.0980   -1.1660   -0.2560 C   0  0  0  0  0  0  0  0  0  0  0  0
   -1.2780   -0.2090    0.6080 C   0  0  2  0  0  0  0  0  0  0  0  0
   -1.9510    1.1110    0.5870 C   0  0  0  0  0  0  0  0  0  0  0  0
   -3.1750    1.2200    0.9130 O   0  0  0  0  0  0  0  0  0  0  0  0
   -1.2810    2.2430    0.2160 O   0  0  0  0  0  0  0  0  0  0  0  0
    0.0540   -0.0820    0.2260 N   0  0  0  0  0  0  0  0  0  0  0  0
    0.4060    0.4250   -1.0210 C   0  0  0  0  0  0  0  0  0  0  0  0
    1.7950   -0.1240   -1.3780 C   0  0  0  0  0  0  0  0  0  0  0  0
    2.7340    0.2200   -0.4280 O   0  0  0  0  0  0  0  0  0  0  0  0
    2.3190    0.0470    0.8740 C   0  0  0  0  0  0  0  0  0  0  0  0
    1.0420   -0.7870    0.9610 C   0  0  0  0  0  0  0  0  0  0  0  0
  2  1  1  6
  2  3  1  0
  2  6  1  0
  3  4  2  0
  3  5  1  0
  6  7  1  0
  6 11  1  0
  7  8  1  0
  8  9  1  0
  9 10  1  0
 10 11  1  0
M  END
