
     RDKit          3D

 37 40  0  0  0  0  0  0  0  0999 V2000
   -4.8310    3.1390    0.6340 C   0  0  0  0  0  0  0  0  0  0  0  0
   -5.2780    1.7330    0.2770 C   0  0  0  0  0  0  0  0  0  0  0  0
   -4.2800    1.0950   -0.6880 C   0  0  0  0  0  0  0  0  0  0  0  0
   -2.9120    1.0160   -0.0750 C   0  0  0  0  0  0  0  0  0  0  0  0
   -1.9500    0.4490   -0.9000 O   0  0  0  0  0  0  0  0  0  0  0  0
   -2.0480   -0.8440   -1.3910 C   0  0  0  0  0  0  0  0  0  0  0  0
   -2.6600   -1.1180   -2.5570 C   0  0  0  0  0  0  0  0  0  0  0  0
   -3.2170   -0.0900   -3.3070 O   0  0  0  0  0  0  0  0  0  0  0  0
   -2.7050   -2.4220   -2.9570 O   0  0  0  0  0  0  0  0  0  0  0  0
   -2.1790   -3.5330   -2.2810 C   0  0  0  0  0  0  0  0  0  0  0  0
   -1.5200   -3.1550   -1.0050 C   0  0  0  0  0  0  0  0  0  0  0  0
   -1.4560   -1.9080   -0.5880 C   0  0  0  0  0  0  0  0  0  0  0  0
   -0.8330   -1.5990    0.6040 O   0  0  0  0  0  0  0  0  0  0  0  0
   -1.3820   -1.9470    1.8130 C   0  0  0  0  0  0  0  0  0  0  0  0
   -2.6050   -2.6320    1.8360 C   0  0  0  0  0  0  0  0  0  0  0  0
   -3.1980   -3.0040    3.0140 C   0  0  0  0  0  0  0  0  0  0  0  0
   -4.8550   -3.9320    3.0300 Br  0  0  0  0  0  0  0  0  0  0  0  0
   -2.5920   -2.7070    4.2080 C   0  0  0  0  0  0  0  0  0  0  0  0
   -1.4090   -2.0450    4.1790 C   0  0  0  0  0  0  0  0  0  0  0  0
   -0.7680   -1.6450    2.9820 C   0  0  0  0  0  0  0  0  0  0  0  0
    0.4900   -0.9460    3.0750 C   0  0  0  0  0  0  0  0  0  0  0  0
    0.9650   -0.7250    4.2470 O   0  0  0  0  0  0  0  0  0  0  0  0
    1.2920   -0.4590    2.0280 N   0  0  0  0  0  0  0  0  0  0  0  0
    2.5270    0.2110    2.2570 C   0  0  0  0  0  0  0  0  0  0  0  0
    2.9930    0.4170    3.3850 O   0  0  0  0  0  0  0  0  0  0  0  0
    3.3260    0.7060    1.0600 C   0  0  0  0  0  0  0  0  0  0  0  0
    3.0210    0.6060   -0.2190 C   0  0  0  0  0  0  0  0  0  0  0  0
    3.8860    1.1280   -1.1460 C   0  0  0  0  0  0  0  0  0  0  0  0
    4.9930    1.7100   -0.7140 C   0  0  0  0  0  0  0  0  0  0  0  0
    4.8220    1.5210    1.1090 S   0  0  0  0  0  0  0  0  0  0  0  0
    5.8900    2.2550   -1.7230 C   0  0  1  0  0  0  0  0  0  0  0  0
    7.1600    1.5500   -1.6750 N   0  0  0  0  0  0  0  0  0  0  0  0
    7.9740    2.0260   -2.7720 C   0  0  0  0  0  0  0  0  0  0  0  0
    5.1760    1.9420   -2.9760 C   0  0  0  0  0  0  0  0  0  0  0  0
    5.6870    2.3210   -4.5130 S   0  0  0  0  0  0  0  0  0  0  0  0
    3.9540    1.2510   -2.6310 C   0  0  0  0  0  0  0  0  0  0  0  0
    3.1110    0.8370   -3.4880 O   0  0  0  0  0  0  0  0  0  0  0  0
  1  2  1  0
  2  3  1  0
  3  4  1  0
  4  5  1  0
  5  6  1  0
  6  7  2  0
  6 12  1  0
  7  8  1  0
  7  9  1  0
  9 10  1  0
 10 11  1  0
 11 12  2  0
 12 13  1  0
 13 14  1  0
 14 15  2  0
 14 20  1  0
 15 16  1  0
 16 17  1  0
 16 18  2  0
 18 19  1  0
 19 20  2  0
 20 21  1  0
 21 22  2  0
 21 23  1  0
 23 24  1  0
 24 25  2  0
 24 26  1  0
 26 27  2  0
 26 30  1  0
 27 28  1  0
 28 29  2  0
 28 36  1  0
 29 30  1  0
 29 31  1  0
 31 32  1  6
 31 34  1  0
 32 33  1  0
 34 35  2  0
 34 36  1  0
 36 37  2  0
M  END
