
     RDKit          3D

 37 40  0  0  0  0  0  0  0  0999 V2000
   -8.2330    2.6460    1.6350 C   0  0  0  0  0  0  0  0  0  0  0  0
   -6.7820    2.4030    1.4160 C   0  0  0  0  0  0  0  0  0  0  0  0
   -5.9330    3.4810    1.3080 C   0  0  0  0  0  0  0  0  0  0  0  0
   -4.5750    3.2750    1.1030 C   0  0  0  0  0  0  0  0  0  0  0  0
   -4.0520    1.9950    1.0050 C   0  0  0  0  0  0  0  0  0  0  0  0
   -4.8870    0.9310    1.1110 C   0  0  0  0  0  0  0  0  0  0  0  0
   -4.4560   -0.5010    1.0250 C   0  0  2  0  0  0  0  0  0  0  0  0
   -3.0330   -0.6330    0.7870 C   0  0  0  0  0  0  0  0  0  0  0  0
   -2.4620   -1.4190   -0.1340 C   0  0  0  0  0  0  0  0  0  0  0  0
   -1.0210   -1.4330   -0.2410 C   0  0  0  0  0  0  0  0  0  0  0  0
   -0.1080   -1.9880   -0.9300 C   0  0  0  0  0  0  0  0  0  0  0  0
    1.2510   -1.5430   -0.5080 O   0  0  0  0  0  0  0  0  0  0  0  0
    1.5240   -0.2070   -0.8830 C   0  0  0  0  0  0  0  0  0  0  0  0
    2.8680    0.2440   -0.4560 C   0  0  0  0  0  0  0  0  0  0  0  0
    3.0750    0.7150    0.8450 C   0  0  0  0  0  0  0  0  0  0  0  0
    4.3070    1.1490    1.2840 C   0  0  0  0  0  0  0  0  0  0  0  0
    5.4030    1.1380    0.4470 C   0  0  0  0  0  0  0  0  0  0  0  0
    6.9710    1.6900    1.0030 S   0  0  1  0  0  0  0  0  0  0  0  0
    7.7760    2.2630   -0.1360 O   0  0  0  0  0  0  0  0  0  0  0  0
    6.8510    2.7650    2.0380 O   0  0  0  0  0  0  0  0  0  0  0  0
    7.9180    0.3670    1.7100 C   0  0  0  0  0  0  0  0  0  0  0  0
    9.4760    1.0310    2.2350 S   0  0  2  0  0  0  0  0  0  0  0  0
    9.3410    2.5070    2.4250 O   0  0  0  0  0  0  0  0  0  0  0  0
   10.5600    0.7990    1.2300 O   0  0  0  0  0  0  0  0  0  0  0  0
    5.2090    0.6750   -0.8380 C   0  0  0  0  0  0  0  0  0  0  0  0
    3.9760    0.2410   -1.2760 C   0  0  0  0  0  0  0  0  0  0  0  0
   -0.1090   -2.9320   -2.0110 C   0  0  0  0  0  0  0  0  0  0  0  0
   -1.0670   -3.5010   -2.6850 O   0  0  0  0  0  0  0  0  0  0  0  0
   -0.6710   -4.3120   -3.6030 C   0  0  0  0  0  0  0  0  0  0  0  0
    0.7010   -4.3260   -3.5850 C   0  0  0  0  0  0  0  0  0  0  0  0
    1.0720   -3.4600   -2.5840 C   0  0  0  0  0  0  0  0  0  0  0  0
    2.8580   -3.0590   -2.0670 Br  0  0  0  0  0  0  0  0  0  0  0  0
   -3.3150   -2.2050   -0.9480 N   0  0  0  0  0  0  0  0  0  0  0  0
   -4.7310   -2.1290   -0.7580 C   0  0  0  0  0  0  0  0  0  0  0  0
   -5.4510   -2.8530   -1.5130 O   0  0  0  0  0  0  0  0  0  0  0  0
   -5.2830   -1.2890    0.2220 N   0  0  0  0  0  0  0  0  0  0  0  0
   -6.2340    1.1440    1.3150 C   0  0  0  0  0  0  0  0  0  0  0  0
  1  2  1  0
  2  3  2  0
  2 37  1  0
  3  4  1  0
  4  5  2  0
  5  6  1  0
  7  6  1  6
  6 37  2  0
  7  8  1  0
  7 36  1  0
  8  9  2  0
  9 10  1  0
  9 33  1  0
 10 11  2  3
 11 12  1  0
 11 27  1  0
 12 13  1  0
 13 14  1  0
 14 15  2  0
 14 26  1  0
 15 16  1  0
 16 17  2  0
 17 18  1  0
 17 25  1  0
 18 19  2  0
 18 20  2  0
 18 21  1  1
 22 21  1  6
 22 23  2  0
 22 24  2  0
 25 26  2  0
 27 28  1  0
 27 31  2  0
 28 29  1  0
 29 30  2  0
 30 31  1  0
 31 32  1  0
 33 34  1  0
 34 35  2  0
 34 36  1  0
M  END
