
     RDKit          3D

 37 41  0  0  0  0  0  0  0  0999 V2000
    8.7840    2.4790   -0.4160 C   0  0  0  0  0  0  0  0  0  0  0  0
    7.6640    1.7050    0.1760 C   0  0  0  0  0  0  0  0  0  0  0  0
    6.5810    1.2290   -0.5220 C   0  0  0  0  0  0  0  0  0  0  0  0
    5.7550    0.5630    0.3570 C   0  0  0  0  0  0  0  0  0  0  0  0
    4.4810   -0.1110    0.0690 C   0  0  0  0  0  0  0  0  0  0  0  0
    4.0810   -0.0870   -1.1210 O   0  0  0  0  0  0  0  0  0  0  0  0
    3.7420   -0.7430    1.0280 O   0  0  0  0  0  0  0  0  0  0  0  0
    2.4920   -1.4070    0.7740 C   0  0  0  0  0  0  0  0  0  0  0  0
    1.4860   -0.4750    0.2640 C   0  0  0  0  0  0  0  0  0  0  0  0
    1.8960    0.7230    0.0520 O   0  0  0  0  0  0  0  0  0  0  0  0
    0.1250   -0.7360   -0.0200 N   0  0  0  0  0  0  0  0  0  0  0  0
   -0.8090    0.2560   -0.6160 C   0  0  0  0  0  0  0  0  0  0  0  0
   -2.1790   -0.2340   -0.3390 C   0  0  1  0  0  0  0  0  0  0  0  0
   -2.7800    0.3780    0.8290 N   0  0  0  0  0  0  0  0  0  0  0  0
   -4.0780   -0.0430    1.2170 C   0  0  0  0  0  0  0  0  0  0  0  0
   -4.3330   -0.7790    2.3190 C   0  0  0  0  0  0  0  0  0  0  0  0
   -5.7650   -1.0100    2.3810 C   0  0  0  0  0  0  0  0  0  0  0  0
   -6.5260   -1.6790    3.3100 O   0  0  0  0  0  0  0  0  0  0  0  0
   -6.2490   -0.4250    1.3160 C   0  0  0  0  0  0  0  0  0  0  0  0
   -5.3650    0.1890    0.5880 C   0  0  0  0  0  0  0  0  0  0  0  0
   -2.9900   -0.0660   -1.5160 N   0  0  0  0  0  0  0  0  0  0  0  0
   -3.3630    1.1630   -2.1090 C   0  0  0  0  0  0  0  0  0  0  0  0
   -3.0610    2.3980   -1.5810 C   0  0  0  0  0  0  0  0  0  0  0  0
   -3.4830    3.5610   -2.2320 C   0  0  0  0  0  0  0  0  0  0  0  0
   -4.2030    3.4860   -3.4030 C   0  0  0  0  0  0  0  0  0  0  0  0
   -4.4840    2.2690   -3.8950 N   0  0  0  0  0  0  0  0  0  0  0  0
   -4.0910    1.1440   -3.2900 C   0  0  0  0  0  0  0  0  0  0  0  0
   -4.3920    0.0460   -3.8130 O   0  0  0  0  0  0  0  0  0  0  0  0
   -1.9980   -1.6800   -0.0080 C   0  0  0  0  0  0  0  0  0  0  0  0
   -2.9340   -2.6820    0.1260 C   0  0  0  0  0  0  0  0  0  0  0  0
   -2.4900   -3.9490    0.4380 C   0  0  0  0  0  0  0  0  0  0  0  0
   -1.1570   -4.2330    0.6160 C   0  0  0  0  0  0  0  0  0  0  0  0
   -0.2320   -3.2140    0.4770 C   0  0  0  0  0  0  0  0  0  0  0  0
   -0.6470   -1.9080    0.1600 C   0  0  0  0  0  0  0  0  0  0  0  0
    6.3940    0.6680    1.5880 C   0  0  0  0  0  0  0  0  0  0  0  0
    5.9220    0.1200    2.8730 C   0  0  0  0  0  0  0  0  0  0  0  0
    7.5050    1.3480    1.4140 O   0  0  0  0  0  0  0  0  0  0  0  0
  1  2  1  0
  2  3  2  0
  2 37  1  0
  3  4  1  0
  4  5  1  0
  4 35  2  0
  5  6  2  0
  5  7  1  0
  7  8  1  0
  8  9  1  0
  9 10  2  0
  9 11  1  0
 11 12  1  0
 11 34  1  0
 12 13  1  0
 13 14  1  1
 13 21  1  0
 13 29  1  0
 14 15  1  0
 15 16  2  0
 15 20  1  0
 16 17  1  0
 17 18  1  0
 17 19  2  0
 19 20  2  0
 21 22  1  0
 22 23  2  0
 22 27  1  0
 23 24  1  0
 24 25  2  0
 25 26  1  0
 26 27  1  0
 27 28  2  0
 29 30  2  0
 29 34  1  0
 30 31  1  0
 31 32  2  0
 32 33  1  0
 33 34  2  0
 35 36  1  0
 35 37  1  0
M  END
