
     RDKit          3D

 37 41  0  0  0  0  0  0  0  0999 V2000
   -5.6110   -1.6610    1.6100 C   0  0  0  0  0  0  0  0  0  0  0  0
   -5.6070   -0.5470    0.7830 O   0  0  0  0  0  0  0  0  0  0  0  0
   -4.5690    0.1790    0.3120 C   0  0  0  0  0  0  0  0  0  0  0  0
   -3.2630   -0.2250    0.6710 C   0  0  0  0  0  0  0  0  0  0  0  0
   -2.1170    0.4640    0.2320 C   0  0  0  0  0  0  0  0  0  0  0  0
   -0.8200   -0.0040    0.8310 C   0  0  1  0  0  0  0  0  0  0  0  0
   -1.1400   -1.2690    1.5170 C   0  0  0  0  0  0  0  0  0  0  0  0
   -1.0290   -2.3970    0.8770 C   0  0  0  0  0  0  0  0  0  0  0  0
   -1.4170   -3.6990    1.6290 C   0  0  0  0  0  0  0  0  0  0  0  0
   -1.6770   -4.6710    0.6170 N   0  0  0  0  0  0  0  0  0  0  0  0
   -0.9180   -4.8360   -0.5420 C   0  0  0  0  0  0  0  0  0  0  0  0
   -0.8500   -5.9180   -1.1870 O   0  0  0  0  0  0  0  0  0  0  0  0
   -0.1590   -3.6410   -1.0330 C   0  0  0  0  0  0  0  0  0  0  0  0
   -0.2550   -2.5500   -0.3290 C   0  0  0  0  0  0  0  0  0  0  0  0
    0.4910   -1.3030   -0.7840 C   0  0  0  0  0  0  0  0  0  0  0  0
    1.5810   -1.5250   -1.5970 C   0  0  0  0  0  0  0  0  0  0  0  0
    2.6050   -0.6110   -1.6410 C   0  0  0  0  0  0  0  0  0  0  0  0
    2.5720    0.5450   -0.8610 C   0  0  0  0  0  0  0  0  0  0  0  0
    3.5190    1.4000   -0.7250 O   0  0  0  0  0  0  0  0  0  0  0  0
    4.5510    2.2090   -0.6490 C   0  0  0  0  0  0  0  0  0  0  0  0
    5.7120    1.5170    0.1030 C   0  0  0  0  0  0  0  0  0  0  0  0
    6.3980    2.1870    1.1600 C   0  0  0  0  0  0  0  0  0  0  0  0
    5.9080    3.4200    1.7890 C   0  0  0  0  0  0  0  0  0  0  0  0
    6.6400    3.7330    2.8930 O   0  0  0  0  0  0  0  0  0  0  0  0
    7.4240    1.4130    1.4520 N   0  0  0  0  0  0  0  0  0  0  0  0
    7.4390    0.3710    0.7190 O   0  0  0  0  0  0  0  0  0  0  0  0
    6.3820    0.3780   -0.1530 C   0  0  0  0  0  0  0  0  0  0  0  0
    6.1470   -0.6850   -1.1210 C   0  0  0  0  0  0  0  0  0  0  0  0
    1.4180    0.7080   -0.0960 C   0  0  0  0  0  0  0  0  0  0  0  0
    0.3400   -0.1940   -0.0240 C   0  0  0  0  0  0  0  0  0  0  0  0
   -2.3010    1.5470   -0.5700 C   0  0  0  0  0  0  0  0  0  0  0  0
   -3.6180    1.9150   -0.9110 C   0  0  0  0  0  0  0  0  0  0  0  0
   -4.7400    1.2750   -0.4930 C   0  0  0  0  0  0  0  0  0  0  0  0
   -6.0990    1.6670   -0.8010 N   0  0  0  0  0  0  0  0  0  0  0  0
   -6.5190    2.9260   -1.2250 C   0  0  0  0  0  0  0  0  0  0  0  0
   -7.8540    3.3660   -1.5070 N   0  0  0  0  0  0  0  0  0  0  0  0
   -5.6130    3.8180   -1.3730 O   0  0  0  0  0  0  0  0  0  0  0  0
  1  2  1  0
  2  3  1  0
  3  4  2  0
  3 33  1  0
  4  5  1  0
  6  5  1  6
  5 31  2  0
  6  7  1  0
  6 30  1  0
  7  8  2  0
  8  9  1  0
  8 14  1  0
  9 10  1  0
 10 11  1  0
 11 12  2  0
 11 13  1  0
 13 14  2  0
 14 15  1  0
 15 16  2  0
 15 30  1  0
 16 17  1  0
 17 18  2  0
 18 19  1  0
 18 29  1  0
 19 20  1  0
 20 21  1  0
 21 22  1  0
 21 27  2  0
 22 23  1  0
 22 25  2  0
 23 24  1  0
 25 26  1  0
 26 27  1  0
 27 28  1  0
 29 30  2  0
 31 32  1  0
 32 33  2  0
 33 34  1  0
 34 35  1  0
 35 36  1  0
 35 37  2  0
M  END
