
     RDKit          3D

 37 41  0  0  0  0  0  0  0  0999 V2000
   -7.9260   -1.5570    1.2440 C   0  0  0  0  0  0  0  0  0  0  0  0
   -6.8260   -0.9050    0.4860 C   0  0  0  0  0  0  0  0  0  0  0  0
   -5.9360   -1.6510   -0.2720 C   0  0  0  0  0  0  0  0  0  0  0  0
   -4.9040   -1.0860   -0.9890 C   0  0  0  0  0  0  0  0  0  0  0  0
   -3.9760   -1.8750   -1.7810 C   0  0  0  0  0  0  0  0  0  0  0  0
   -3.0310   -1.3260   -2.4330 O   0  0  0  0  0  0  0  0  0  0  0  0
   -4.0670   -3.2730   -1.8710 N   0  0  0  0  0  0  0  0  0  0  0  0
   -3.2000   -4.0220   -2.6120 O   0  0  0  0  0  0  0  0  0  0  0  0
   -4.7160    0.2880   -0.9740 C   0  0  0  0  0  0  0  0  0  0  0  0
   -3.6640    0.9190   -1.6980 N   0  0  0  0  0  0  0  0  0  0  0  0
   -2.3850    1.1400   -1.1160 C   0  0  0  0  0  0  0  0  0  0  0  0
   -2.2060    0.7610    0.0660 O   0  0  0  0  0  0  0  0  0  0  0  0
   -1.2710    1.7910   -1.8370 C   0  0  0  0  0  0  0  0  0  0  0  0
   -0.1190    1.8590   -0.9630 N   0  0  0  0  0  0  0  0  0  0  0  0
    0.9160    0.8570   -0.8390 C   0  0  0  0  0  0  0  0  0  0  0  0
    1.8640    1.3650    0.1610 C   0  0  0  0  0  0  0  0  0  0  0  0
    3.0660    0.6820    0.6040 C   0  0  0  0  0  0  0  0  0  0  0  0
    3.9210    1.2170    1.5530 C   0  0  0  0  0  0  0  0  0  0  0  0
    5.0640    0.5700    1.9760 C   0  0  0  0  0  0  0  0  0  0  0  0
    5.4110   -0.6620    1.4620 C   0  0  0  0  0  0  0  0  0  0  0  0
    6.6220   -1.4000    1.8780 C   0  0  0  0  0  0  0  0  0  0  0  0
    7.7970   -1.0550    1.0330 C   0  0  0  0  0  0  0  0  0  0  0  0
    7.8200   -0.2090    0.0270 C   0  0  0  0  0  0  0  0  0  0  0  0
    9.1710   -0.1910   -0.4990 C   0  0  0  0  0  0  0  0  0  0  0  0
    9.6100    0.6460   -1.3270 O   0  0  0  0  0  0  0  0  0  0  0  0
    9.8700   -1.3380    0.1420 C   0  0  0  0  0  0  0  0  0  0  0  0
    9.0480   -1.6230    1.2330 O   0  0  0  0  0  0  0  0  0  0  0  0
    4.5660   -1.2030    0.5170 C   0  0  0  0  0  0  0  0  0  0  0  0
    3.4240   -0.5550    0.0950 C   0  0  0  0  0  0  0  0  0  0  0  0
    1.4380    2.5300    0.5760 C   0  0  0  0  0  0  0  0  0  0  0  0
    0.2140    2.9100   -0.0710 C   0  0  0  0  0  0  0  0  0  0  0  0
   -0.4840    3.9480    0.0690 O   0  0  0  0  0  0  0  0  0  0  0  0
   -5.6000    1.0290   -0.2210 C   0  0  0  0  0  0  0  0  0  0  0  0
   -5.7050    2.4010    0.0150 C   0  0  0  0  0  0  0  0  0  0  0  0
   -6.7870    2.6370    0.8600 C   0  0  0  0  0  0  0  0  0  0  0  0
   -7.3230    1.4360    1.1290 N   0  0  0  0  0  0  0  0  0  0  0  0
   -6.6420    0.4610    0.5020 C   0  0  0  0  0  0  0  0  0  0  0  0
  1  2  1  0
  2  3  2  0
  2 37  1  0
  3  4  1  0
  4  5  1  0
  4  9  2  0
  5  6  2  0
  5  7  1  0
  7  8  1  0
  9 10  1  0
  9 33  1  0
 10 11  1  0
 11 12  2  0
 11 13  1  0
 13 14  1  0
 14 15  1  0
 14 31  1  0
 15 16  1  0
 16 17  1  0
 16 30  2  0
 17 18  2  0
 17 29  1  0
 18 19  1  0
 19 20  2  0
 20 21  1  0
 20 28  1  0
 21 22  1  0
 22 23  2  0
 22 27  1  0
 23 24  1  0
 24 25  2  0
 24 26  1  0
 26 27  1  0
 28 29  2  0
 30 31  1  0
 31 32  2  0
 33 34  1  0
 33 37  2  0
 34 35  2  0
 35 36  1  0
 36 37  1  0
M  END
