
     RDKit          3D

 31 33  0  0  0  0  0  0  0  0999 V2000
   -7.6470    3.4720   -0.7920 N   0  0  0  0  0  0  0  0  0  0  0  0
   -7.1910    2.2570   -0.2200 C   0  0  0  0  0  0  0  0  0  0  0  0
   -8.0650    1.3130    0.1700 N   0  0  0  0  0  0  0  0  0  0  0  0
   -7.6490    0.1520    0.7100 C   0  0  0  0  0  0  0  0  0  0  0  0
   -6.3280   -0.0360    0.8460 N   0  0  0  0  0  0  0  0  0  0  0  0
   -5.4370    0.8650    0.4760 C   0  0  0  0  0  0  0  0  0  0  0  0
   -5.8390    2.0510   -0.0740 C   0  0  0  0  0  0  0  0  0  0  0  0
   -4.7230    2.7450   -0.3440 N   0  0  0  0  0  0  0  0  0  0  0  0
   -3.6360    2.0120    0.0300 C   0  0  0  0  0  0  0  0  0  0  0  0
   -4.0930    0.8540    0.5330 N   0  0  0  0  0  0  0  0  0  0  0  0
   -3.2920   -0.2190    1.0360 C   0  0  2  0  0  0  0  0  0  0  0  0
   -2.0250    0.2820    1.3160 O   0  0  0  0  0  0  0  0  0  0  0  0
   -1.1420   -0.7760    1.2860 C   0  0  2  0  0  0  0  0  0  0  0  0
    0.0970   -0.3990    0.5860 C   0  0  0  0  0  0  0  0  0  0  0  0
    1.0510   -1.3950    0.5030 O   0  0  0  0  0  0  0  0  0  0  0  0
    2.3580   -0.9800   -0.2280 P   0  0  0  0  0  0  0  0  0  0  0  0
    2.6480    0.3220    0.6720 O   0  0  0  0  0  0  0  0  0  0  0  0
    1.4240   -0.7990   -1.6190 O   0  0  0  0  0  0  0  0  0  0  0  0
    3.5900   -0.8650   -1.1280 O   0  0  0  0  0  0  0  0  0  0  0  0
    5.1120   -1.3010   -0.6310 P   0  0  0  0  0  0  0  0  0  0  0  0
    6.0740   -2.1890   -1.5770 O   0  0  0  0  0  0  0  0  0  0  0  0
    5.5760   -1.0090    0.9570 O   0  0  0  0  0  0  0  0  0  0  0  0
    5.6670    0.1190   -1.0800 N   0  0  0  0  0  0  0  0  0  0  0  0
    7.1370    0.7580   -0.4560 P   0  0  0  0  0  0  0  0  0  0  0  0
    8.3650    1.1920   -1.5250 O   0  0  0  0  0  0  0  0  0  0  0  0
    6.6380    2.1970   -0.4880 O   0  0  0  0  0  0  0  0  0  0  0  0
    7.4610    0.6960    1.1170 O   0  0  0  0  0  0  0  0  0  0  0  0
   -1.8180   -1.9560    0.6260 C   0  0  1  0  0  0  0  0  0  0  0  0
   -2.1480   -2.9650    1.5280 O   0  0  0  0  0  0  0  0  0  0  0  0
   -3.0230   -1.2880    0.0150 C   0  0  1  0  0  0  0  0  0  0  0  0
   -4.0770   -2.2070    0.1200 O   0  0  0  0  0  0  0  0  0  0  0  0
  1  2  1  0
  2  3  2  0
  2  7  1  0
  3  4  1  0
  4  5  2  0
  5  6  1  0
  6  7  2  0
  6 10  1  0
  7  8  1  0
  8  9  2  0
  9 10  1  0
 11 10  1  6
 11 12  1  0
 11 30  1  0
 12 13  1  0
 13 14  1  6
 13 28  1  0
 14 15  1  0
 15 16  1  0
 16 17  1  0
 16 18  1  0
 16 19  1  0
 19 20  1  0
 20 21  1  0
 20 22  1  0
 20 23  1  0
 23 24  1  0
 24 25  1  0
 24 26  1  0
 24 27  1  0
 28 29  1  1
 28 30  1  0
 30 31  1  1
M  END
