
     RDKit          3D

 31 32  0  0  0  0  0  0  0  0999 V2000
   -6.0570    2.0590   -0.9180 O   0  0  0  0  0  0  0  0  0  0  0  0
   -6.8570    1.9590    0.0630 C   0  0  0  0  0  0  0  0  0  0  0  0
   -6.3920    1.5140    1.3250 N   0  0  0  0  0  0  0  0  0  0  0  0
   -5.0090    1.1520    1.5810 C   0  0  1  0  0  0  0  0  0  0  0  0
   -4.2060    2.2540    1.3160 O   0  0  0  0  0  0  0  0  0  0  0  0
   -4.8470    0.8140    2.9200 O   0  0  0  0  0  0  0  0  0  0  0  0
   -4.6230   -0.0080    0.6610 C   0  0  0  0  0  0  0  0  0  0  0  0
   -5.5750   -0.6180    0.0550 N   0  0  0  0  0  0  0  0  0  0  0  0
   -5.5110   -1.6860   -0.8250 N   0  0  0  0  0  0  0  0  0  0  0  0
   -4.4620   -1.9720   -1.6240 N   0  0  0  0  0  0  0  0  0  0  0  0
   -3.6480   -1.5110   -2.4020 C   0  0  0  0  0  0  0  0  0  0  0  0
   -3.1590   -0.3610   -3.0720 O   0  0  0  0  0  0  0  0  0  0  0  0
   -1.7240   -0.3800   -2.9080 C   0  0  0  0  0  0  0  0  0  0  0  0
   -1.4460   -1.8190   -2.7150 C   0  0  2  0  0  0  0  0  0  0  0  0
   -2.7140   -2.4820   -2.9430 O   0  0  0  0  0  0  0  0  0  0  0  0
   -0.8480   -2.2360   -1.5860 O   0  0  0  0  0  0  0  0  0  0  0  0
   -0.2460   -1.1640   -0.4560 P   0  0  0  0  0  0  0  0  0  0  0  0
    1.4850   -1.3730   -0.0760 N   0  0  0  0  0  0  0  0  0  0  0  0
    2.4900   -0.5050   -0.5680 C   0  0  0  0  0  0  0  0  0  0  0  0
    2.2210    0.4700   -1.3010 O   0  0  0  0  0  0  0  0  0  0  0  0
    3.8800   -0.7090   -0.2450 N   0  0  0  0  0  0  0  0  0  0  0  0
    4.8930    0.1840   -0.7560 C   0  0  0  0  0  0  0  0  0  0  0  0
    6.2320   -0.2950   -0.2480 C   0  0  0  0  0  0  0  0  0  0  0  0
    6.2620   -0.2940    1.1200 O   0  0  0  0  0  0  0  0  0  0  0  0
    6.0550    0.9600    1.6360 C   0  0  0  0  0  0  0  0  0  0  0  0
    7.3700    2.1260    1.0440 P   0  0  0  0  0  0  0  0  0  0  0  0
    8.7550    1.2600    0.4840 O   0  0  0  0  0  0  0  0  0  0  0  0
    6.7540    3.1080   -0.2380 O   0  0  0  0  0  0  0  0  0  0  0  0
   -1.2050   -0.8680    0.9240 O   0  0  0  0  0  0  0  0  0  0  0  0
   -2.5060   -1.4060    0.8220 C   0  0  0  0  0  0  0  0  0  0  0  0
   -3.3370   -0.3430    0.5180 O   0  0  0  0  0  0  0  0  0  0  0  0
  1  2  2  0
  2  3  1  0
  3  4  1  0
  4  5  1  6
  4  6  1  0
  4  7  1  0
  7  8  2  0
  7 31  1  0
  8  9  1  0
  9 10  1  0
 10 11  2  0
 11 12  1  0
 11 15  1  0
 12 13  1  0
 14 13  1  1
 14 15  1  0
 14 16  1  0
 16 17  1  0
 17 18  1  0
 17 29  1  0
 18 19  1  0
 19 20  2  0
 19 21  1  0
 21 22  1  0
 22 23  1  0
 23 24  1  0
 24 25  1  0
 25 26  1  0
 26 27  1  0
 26 28  1  0
 29 30  1  0
 30 31  1  0
M  END
