
     RDKit          3D

 31 32  0  0  0  0  0  0  0  0999 V2000
   -5.0590   -3.6060    1.1450 O   0  0  0  0  0  0  0  0  0  0  0  0
   -3.8690   -3.2490    1.3260 C   0  0  0  0  0  0  0  0  0  0  0  0
   -3.1100   -3.8690    2.3080 O   0  0  0  0  0  0  0  0  0  0  0  0
   -3.3430   -2.2450    0.5390 O   0  0  0  0  0  0  0  0  0  0  0  0
   -4.0800   -1.6150   -0.4440 C   0  0  0  0  0  0  0  0  0  0  0  0
   -5.2870   -2.0010   -0.6020 O   0  0  0  0  0  0  0  0  0  0  0  0
   -3.5750   -0.5530   -1.2990 C   0  0  0  0  0  0  0  0  0  0  0  0
   -4.2610    0.0980   -2.2800 N   0  0  0  0  0  0  0  0  0  0  0  0
   -3.4820    1.0200   -2.8660 C   0  0  0  0  0  0  0  0  0  0  0  0
   -3.8420    1.9310   -3.9630 C   0  0  0  0  0  0  0  0  0  0  0  0
   -5.0060    1.8630   -4.4280 O   0  0  0  0  0  0  0  0  0  0  0  0
   -2.9700    2.8410   -4.4950 O   0  0  0  0  0  0  0  0  0  0  0  0
   -3.2690    3.6810   -5.4920 O   0  0  0  0  0  0  0  0  0  0  0  0
   -2.2950    0.9420   -2.2420 N   0  0  0  0  0  0  0  0  0  0  0  0
   -2.3210   -0.0140   -1.2750 C   0  0  0  0  0  0  0  0  0  0  0  0
   -1.2350   -0.3700   -0.4130 N   0  0  0  0  0  0  0  0  0  0  0  0
    0.0240    0.3210   -0.5430 C   0  0  0  0  0  0  0  0  0  0  0  0
    1.0020   -0.2030    0.4380 C   0  0  1  0  0  0  0  0  0  0  0  0
    1.2310   -1.5450    0.2490 O   0  0  0  0  0  0  0  0  0  0  0  0
    1.0300   -2.2170    1.4460 C   0  0  0  0  0  0  0  0  0  0  0  0
    2.2590   -1.4890    2.6550 P   0  0  0  0  0  0  0  0  0  0  0  0
    2.0130   -2.2740    4.1750 O   0  0  0  0  0  0  0  0  0  0  0  0
    3.8640   -1.7310    2.0760 O   0  0  0  0  0  0  0  0  0  0  0  0
    2.3480    0.4610    0.2390 C   0  0  0  0  0  0  0  0  0  0  0  0
    3.2640    0.2660   -0.7000 N   0  0  0  0  0  0  0  0  0  0  0  0
    4.2990    1.0870   -0.4700 N   0  0  0  0  0  0  0  0  0  0  0  0
    4.0330    1.8140    0.6330 C   0  0  0  0  0  0  0  0  0  0  0  0
    5.1160    3.1010    1.4040 P   0  0  0  0  0  0  0  0  0  0  0  0
    4.2360    4.6050    1.2870 O   0  0  0  0  0  0  0  0  0  0  0  0
    5.2750    2.7180    3.0810 O   0  0  0  0  0  0  0  0  0  0  0  0
    2.8220    1.4120    1.0560 N   0  0  0  0  0  0  0  0  0  0  0  0
  1  2  2  0
  2  3  1  0
  2  4  1  0
  4  5  1  0
  5  6  2  0
  5  7  1  0
  7  8  1  0
  7 15  2  0
  8  9  2  0
  9 10  1  0
  9 14  1  0
 10 11  2  0
 10 12  1  0
 12 13  1  0
 14 15  1  0
 15 16  1  0
 16 17  1  0
 18 17  1  6
 18 19  1  0
 18 24  1  0
 19 20  1  0
 20 21  1  0
 21 22  1  0
 21 23  1  0
 24 25  2  0
 24 31  1  0
 25 26  1  0
 26 27  1  0
 27 28  1  0
 27 31  2  0
 28 29  1  0
 28 30  1  0
M  END
