
     RDKit          3D

 31 32  0  0  0  0  0  0  0  0999 V2000
    8.5300    1.7630    1.3970 N   0  0  0  0  0  0  0  0  0  0  0  0
    7.4590    1.7190    0.4670 C   0  0  0  0  0  0  0  0  0  0  0  0
    7.5420    2.4430   -0.5560 O   0  0  0  0  0  0  0  0  0  0  0  0
    6.3400    0.9200    0.6410 O   0  0  0  0  0  0  0  0  0  0  0  0
    5.3250    0.9300   -0.3190 C   0  0  0  0  0  0  0  0  0  0  0  0
    5.3120    1.6310   -1.3950 N   0  0  0  0  0  0  0  0  0  0  0  0
    4.1530    1.4040   -2.1310 O   0  0  0  0  0  0  0  0  0  0  0  0
    3.6730    0.1020   -1.7420 C   0  0  0  0  0  0  0  0  0  0  0  0
    4.0730    0.1410   -0.2820 C   0  0  2  0  0  0  0  0  0  0  0  0
    3.0980    0.8380    0.5200 N   0  0  0  0  0  0  0  0  0  0  0  0
    1.8120    0.3610    0.7550 N   0  0  0  0  0  0  0  0  0  0  0  0
    0.7970    0.6920    0.0190 C   0  0  0  0  0  0  0  0  0  0  0  0
   -0.4820    0.1560    0.3320 N   0  0  0  0  0  0  0  0  0  0  0  0
   -0.6220   -0.5010    1.5070 O   0  0  0  0  0  0  0  0  0  0  0  0
   -1.7750   -0.2650    2.0850 O   0  0  0  0  0  0  0  0  0  0  0  0
   -2.6070   -1.2990    1.9350 O   0  0  0  0  0  0  0  0  0  0  0  0
   -2.8930   -1.3790    0.6400 N   0  0  0  0  0  0  0  0  0  0  0  0
   -2.6390   -2.6370    0.0270 C   0  0  0  0  0  0  0  0  0  0  0  0
   -3.8820   -3.4580   -0.2780 C   0  0  0  0  0  0  0  0  0  0  0  0
   -4.6050   -2.6840   -1.2620 O   0  0  0  0  0  0  0  0  0  0  0  0
   -4.4200   -1.3160   -1.1060 C   0  0  0  0  0  0  0  0  0  0  0  0
   -4.4060   -0.4630   -2.0070 O   0  0  0  0  0  0  0  0  0  0  0  0
   -4.2230   -0.8920    0.3070 C   0  0  2  0  0  0  0  0  0  0  0  0
   -4.3500    0.5800    0.4200 C   0  0  0  0  0  0  0  0  0  0  0  0
   -5.7630    0.9840    0.0780 C   0  0  0  0  0  0  0  0  0  0  0  0
   -6.0000    2.8190    0.1930 P   0  0  0  0  0  0  0  0  0  0  0  0
   -7.6630    3.1650   -0.1640 O   0  0  0  0  0  0  0  0  0  0  0  0
   -5.0270    3.6000   -1.0170 O   0  0  0  0  0  0  0  0  0  0  0  0
    4.3680   -1.5850    0.3350 P   0  0  0  0  0  0  0  0  0  0  0  0
    4.4570   -2.6940   -1.0160 O   0  0  0  0  0  0  0  0  0  0  0  0
    5.7580   -1.6760    1.3350 O   0  0  0  0  0  0  0  0  0  0  0  0
  1  2  1  0
  2  3  2  0
  2  4  1  0
  4  5  1  0
  5  6  2  0
  5  9  1  0
  6  7  1  0
  7  8  1  0
  8  9  1  0
  9 10  1  1
  9 29  1  0
 10 11  1  0
 11 12  2  3
 12 13  1  0
 13 14  1  0
 14 15  1  0
 15 16  1  0
 16 17  1  0
 17 18  1  0
 17 23  1  0
 18 19  1  0
 19 20  1  0
 20 21  1  0
 21 22  2  0
 21 23  1  0
 23 24  1  6
 24 25  1  0
 25 26  1  0
 26 27  1  0
 26 28  1  0
 29 30  1  0
 29 31  1  0
M  END
