
     RDKit          3D

 16 16  0  0  0  0  0  0  0  0999 V2000
    0.4000   -1.1480   -0.3290 O   0  0  0  0  0  0  0  0  0  0  0  0
    0.0580   -0.0660    0.1900 C   0  0  0  0  0  0  0  0  0  0  0  0
    1.0240    0.7070    0.9580 N   0  0  0  0  0  0  0  0  0  0  0  0
    2.3510    0.1670    1.0780 C   0  0  0  0  0  0  0  0  0  0  0  0
    3.2720    1.0260    1.8810 C   0  0  0  0  0  0  0  0  0  0  0  0
    4.6300    0.3290    1.9190 C   0  0  0  0  0  0  0  0  0  0  0  0
    5.5500    1.0610    2.6480 O   0  0  0  0  0  0  0  0  0  0  0  0
   -1.2640    0.3970    0.0270 N   0  0  0  0  0  0  0  0  0  0  0  0
   -2.3050   -0.2250   -0.6780 C   0  0  0  0  0  0  0  0  0  0  0  0
   -2.1650   -1.4140   -1.3250 C   0  0  0  0  0  0  0  0  0  0  0  0
   -3.2220   -2.0330   -2.0330 C   0  0  0  0  0  0  0  0  0  0  0  0
   -4.4110   -1.4310   -2.0720 N   0  0  0  0  0  0  0  0  0  0  0  0
   -5.4580   -2.0300   -2.7640 O   0  0  0  0  0  0  0  0  0  0  0  0
   -4.5640   -0.2780   -1.4490 C   0  0  0  0  0  0  0  0  0  0  0  0
   -3.5640    0.3750   -0.7400 C   0  0  0  0  0  0  0  0  0  0  0  0
   -3.8510    1.5820   -0.1300 O   0  0  0  0  0  0  0  0  0  0  0  0
  1  2  2  0
  2  3  1  0
  2  8  1  0
  3  4  1  0
  4  5  1  0
  5  6  1  0
  6  7  1  0
  8  9  1  0
  9 10  2  0
  9 15  1  0
 10 11  1  0
 11 12  2  0
 12 13  1  0
 12 14  1  0
 14 15  2  0
 15 16  1  0
M  CHG  2  12   1  13  -1
M  END
