
     RDKit          3D

 16 16  0  0  0  0  0  0  0  0999 V2000
    5.6560    1.3690    0.3300 O   0  0  0  0  0  0  0  0  0  0  0  0
    5.0950    0.7760   -0.6250 N   0  0  0  0  0  0  0  0  0  0  0  0
    3.7140    0.5290   -0.5190 N   0  0  0  0  0  0  0  0  0  0  0  0
    3.2690   -0.6660    0.1190 C   0  0  0  0  0  0  0  0  0  0  0  0
    1.8090   -0.8250    0.1760 C   0  0  0  0  0  0  0  0  0  0  0  0
    1.3690   -1.8940    0.7460 O   0  0  0  0  0  0  0  0  0  0  0  0
    0.8940    0.1080   -0.3490 N   0  0  0  0  0  0  0  0  0  0  0  0
   -0.5170   -0.1820   -0.2200 C   0  0  0  0  0  0  0  0  0  0  0  0
   -1.2780    0.6670    0.4480 C   0  0  0  0  0  0  0  0  0  0  0  0
   -2.6970    0.4010    0.5930 C   0  0  0  0  0  0  0  0  0  0  0  0
   -3.4560    1.2420    1.2560 C   0  0  0  0  0  0  0  0  0  0  0  0
   -2.9120    2.3720    1.8120 O   0  0  0  0  0  0  0  0  0  0  0  0
   -3.2530   -0.8230   -0.0170 C   0  0  0  0  0  0  0  0  0  0  0  0
   -4.4770   -1.0570    0.1050 O   0  0  0  0  0  0  0  0  0  0  0  0
   -2.3660   -1.7230   -0.7420 C   0  0  0  0  0  0  0  0  0  0  0  0
   -1.0940   -1.3800   -0.8100 C   0  0  0  0  0  0  0  0  0  0  0  0
  1  2  2  0
  2  3  1  0
  3  4  1  0
  4  5  1  0
  5  6  2  0
  5  7  1  0
  7  8  1  0
  8  9  2  0
  8 16  1  0
  9 10  1  0
 10 11  2  3
 10 13  1  0
 11 12  1  0
 13 14  2  0
 13 15  1  0
 15 16  2  0
M  END
