
     RDKit          3D

 16 16  0  0  0  0  0  0  0  0999 V2000
    4.7980    0.2640    0.9880 C   0  0  0  0  0  0  0  0  0  0  0  0
    4.5540    0.3840   -0.3810 O   0  0  0  0  0  0  0  0  0  0  0  0
    3.2960    0.0690   -0.9000 C   0  0  0  0  0  0  0  0  0  0  0  0
    3.0530    0.1870   -2.2490 C   0  0  0  0  0  0  0  0  0  0  0  0
    1.8280   -0.1280   -2.6950 N   0  0  0  0  0  0  0  0  0  0  0  0
    0.8380   -0.5540   -1.8500 C   0  0  0  0  0  0  0  0  0  0  0  0
    1.0650   -0.6740   -0.5100 C   0  0  0  0  0  0  0  0  0  0  0  0
    0.0810   -1.0780    0.4070 N   0  0  0  0  0  0  0  0  0  0  0  0
   -1.3000   -1.3240    0.1540 C   0  0  0  0  0  0  0  0  0  0  0  0
   -2.1080   -0.0700    0.1070 C   0  0  1  0  0  0  0  0  0  0  0  0
   -1.6720    0.7970   -0.8710 O   0  0  0  0  0  0  0  0  0  0  0  0
   -3.6000   -0.3600   -0.0170 C   0  0  0  0  0  0  0  0  0  0  0  0
   -3.9270   -0.9300   -1.2230 O   0  0  0  0  0  0  0  0  0  0  0  0
   -1.9850    0.7040    1.4300 C   0  0  0  0  0  0  0  0  0  0  0  0
   -2.3980   -0.0760    2.4800 O   0  0  0  0  0  0  0  0  0  0  0  0
    2.3200   -0.3470   -0.0870 N   0  0  0  0  0  0  0  0  0  0  0  0
  1  2  1  0
  2  3  1  0
  3  4  2  0
  3 16  1  0
  4  5  1  0
  5  6  2  0
  6  7  1  0
  7  8  1  0
  7 16  2  0
  8  9  1  0
  9 10  1  0
 10 11  1  6
 10 12  1  0
 10 14  1  0
 12 13  1  0
 14 15  1  0
M  END
