
     RDKit          3D

 16 16  0  0  0  0  0  0  0  0999 V2000
    4.0950   -1.4320   -1.5060 O   0  0  0  0  0  0  0  0  0  0  0  0
    3.6880   -0.7470   -0.5250 C   0  0  0  0  0  0  0  0  0  0  0  0
    4.6170   -0.1970    0.4780 C   0  0  0  0  0  0  0  0  0  0  0  0
    3.8860    0.5130    1.4900 N   0  0  0  0  0  0  0  0  0  0  0  0
    4.0340    1.7290    1.6080 O   0  0  0  0  0  0  0  0  0  0  0  0
    3.0350   -0.1460    2.3150 O   0  0  0  0  0  0  0  0  0  0  0  0
    2.2710   -0.5260   -0.4290 N   0  0  0  0  0  0  0  0  0  0  0  0
    1.4480   -1.0960   -1.4360 C   0  0  0  0  0  0  0  0  0  0  0  0
   -0.0020   -0.8500   -1.3070 C   0  0  0  0  0  0  0  0  0  0  0  0
   -0.8000   -1.3370   -2.1870 O   0  0  0  0  0  0  0  0  0  0  0  0
   -0.6160   -0.1070   -0.2790 N   0  0  0  0  0  0  0  0  0  0  0  0
   -2.0220    0.1170   -0.1760 C   0  0  0  0  0  0  0  0  0  0  0  0
   -3.0090   -0.2730   -0.9390 C   0  0  0  0  0  0  0  0  0  0  0  0
   -4.3260    0.2220   -0.4090 C   0  0  0  0  0  0  0  0  0  0  0  0
   -3.8520    1.4740    0.3540 C   0  0  0  0  0  0  0  0  0  0  0  0
   -2.5930    0.9160    0.9690 C   0  0  0  0  0  0  0  0  0  0  0  0
  1  2  2  0
  2  3  1  0
  2  7  1  0
  3  4  1  0
  4  5  2  0
  4  6  1  0
  7  8  1  0
  8  9  1  0
  9 10  2  0
  9 11  1  0
 11 12  1  0
 12 13  2  0
 12 16  1  0
 13 14  1  0
 14 15  1  0
 15 16  1  0
M  CHG  2   4   1   6  -1
M  END
