
     RDKit          3D

 14 15  0  0  0  0  0  0  0  0999 V2000
    0.7410    3.1030    0.8200 O   0  0  0  0  0  0  0  0  0  0  0  0
    1.0900    1.7640    0.8850 C   0  0  0  0  0  0  0  0  0  0  0  0
    0.5220    1.0370   -0.3310 C   0  0  2  0  0  0  0  0  0  0  0  0
   -0.9670    1.1560   -0.3570 C   0  0  1  0  0  0  0  0  0  0  0  0
   -1.3920    1.2150   -1.6860 O   0  0  0  0  0  0  0  0  0  0  0  0
   -1.6350   -0.0040    0.3340 C   0  0  2  0  0  0  0  0  0  0  0  0
   -1.0860   -0.2100    1.5940 O   0  0  0  0  0  0  0  0  0  0  0  0
   -1.3080   -1.2440   -0.5010 C   0  0  2  0  0  0  0  0  0  0  0  0
   -1.9830   -2.3050    0.0580 O   0  0  0  0  0  0  0  0  0  0  0  0
    0.1690   -1.4010   -0.4360 C   0  0  0  0  0  0  0  0  0  0  0  0
    0.9480   -2.5170   -0.4400 N   0  0  0  0  0  0  0  0  0  0  0  0
    2.2370   -2.1470   -0.3650 C   0  0  0  0  0  0  0  0  0  0  0  0
    2.2480   -0.7820   -0.3160 C   0  0  0  0  0  0  0  0  0  0  0  0
    0.9760   -0.3280   -0.3590 N   0  0  0  0  0  0  0  0  0  0  0  0
  1  2  1  0
  3  2  1  1
  3  4  1  0
  3 14  1  0
  4  5  1  6
  4  6  1  0
  6  7  1  1
  6  8  1  0
  8  9  1  1
  8 10  1  0
 10 11  2  0
 10 14  1  0
 11 12  1  0
 12 13  2  0
 13 14  1  0
M  END
