
     RDKit          3D

 14 15  0  0  0  0  0  0  0  0999 V2000
    3.7760   -1.7280   -0.7780 O   0  0  0  0  0  0  0  0  0  0  0  0
    2.7750   -1.0870   -0.3420 C   0  0  0  0  0  0  0  0  0  0  0  0
    2.9460   -0.2760    0.8690 C   0  0  0  0  0  0  0  0  0  0  0  0
    2.2450    0.9480    0.6920 O   0  0  0  0  0  0  0  0  0  0  0  0
    0.9400    0.9190    0.1820 C   0  0  0  0  0  0  0  0  0  0  0  0
    0.0030    1.7500    0.6100 C   0  0  0  0  0  0  0  0  0  0  0  0
   -1.3460    1.6500    0.0180 C   0  0  0  0  0  0  0  0  0  0  0  0
   -2.0560    2.6600    0.0220 O   0  0  0  0  0  0  0  0  0  0  0  0
   -1.8000    0.3590   -0.5540 C   0  0  2  0  0  0  0  0  0  0  0  0
   -2.9270   -0.2350    0.2740 C   0  0  0  0  0  0  0  0  0  0  0  0
   -2.4270   -0.4740    1.5750 O   0  0  0  0  0  0  0  0  0  0  0  0
   -0.7310   -0.6130   -0.5680 N   0  0  0  0  0  0  0  0  0  0  0  0
    0.5470   -0.0510   -0.8700 C   0  0  2  0  0  0  0  0  0  0  0  0
    1.5110   -1.1280   -0.9780 N   0  0  0  0  0  0  0  0  0  0  0  0
  1  2  2  0
  2  3  1  0
  2 14  1  0
  3  4  1  0
  4  5  1  0
  5  6  2  0
  5 13  1  0
  6  7  1  0
  7  8  2  0
  7  9  1  0
  9 10  1  1
  9 12  1  0
 10 11  1  0
 13 12  1  1
 13 14  1  0
M  END
