
     RDKit          3D

 13 13  0  0  0  0  0  0  0  0999 V2000
    3.2920   -1.4280    1.7700 N   0  0  0  0  0  0  0  0  0  0  0  0
    2.3330   -0.4450    1.4240 C   0  0  0  0  0  0  0  0  0  0  0  0
    2.2290   -0.0530    0.1840 C   0  0  0  0  0  0  0  0  0  0  0  0
    3.0650   -0.6140   -0.7650 O   0  0  0  0  0  0  0  0  0  0  0  0
    1.2130    0.9800   -0.1570 C   0  0  0  0  0  0  0  0  0  0  0  0
    0.2520    0.5230   -1.1070 N   0  0  0  0  0  0  0  0  0  0  0  0
   -0.6890    1.5850   -1.3740 C   0  0  0  0  0  0  0  0  0  0  0  0
   -1.7310    1.5710   -0.2930 C   0  0  0  0  0  0  0  0  0  0  0  0
   -2.5000    0.4010   -0.4930 O   0  0  0  0  0  0  0  0  0  0  0  0
   -1.6540   -0.6320   -0.0260 C   0  0  1  0  0  0  0  0  0  0  0  0
   -2.4070   -1.9370   -0.1520 C   0  0  0  0  0  0  0  0  0  0  0  0
   -3.5890   -1.9000    0.6180 O   0  0  0  0  0  0  0  0  0  0  0  0
   -0.3840   -0.7070   -0.7970 C   0  0  0  0  0  0  0  0  0  0  0  0
  1  2  1  0
  2  3  2  3
  3  4  1  0
  3  5  1  0
  5  6  1  0
  6  7  1  0
  6 13  1  0
  7  8  1  0
  8  9  1  0
  9 10  1  0
 10 11  1  6
 10 13  1  0
 11 12  1  0
M  END
