
     RDKit          3D

 13 13  0  0  0  0  0  0  0  0999 V2000
   -3.7120   -1.1840   -0.1620 C   0  0  0  0  0  0  0  0  0  0  0  0
   -2.6880   -0.3800    0.4000 O   0  0  0  0  0  0  0  0  0  0  0  0
   -2.3270    0.8110   -0.2040 C   0  0  0  0  0  0  0  0  0  0  0  0
   -3.3780    1.6800   -0.6050 N   0  0  0  0  0  0  0  0  0  0  0  0
   -1.0590    1.1060   -0.3880 C   0  0  0  0  0  0  0  0  0  0  0  0
   -0.0530    0.1530    0.0560 C   0  0  0  0  0  0  0  0  0  0  0  0
    1.2310    0.4520   -0.1310 C   0  0  0  0  0  0  0  0  0  0  0  0
    1.7740    1.5800   -0.7090 O   0  0  0  0  0  0  0  0  0  0  0  0
    3.1340    1.6190   -0.3350 C   0  0  0  0  0  0  0  0  0  0  0  0
    3.4910    0.2510   -0.0980 O   0  0  0  0  0  0  0  0  0  0  0  0
    2.3230   -0.4100    0.2660 C   0  0  0  0  0  0  0  0  0  0  0  0
    2.2650   -1.6090    0.8650 C   0  0  0  0  0  0  0  0  0  0  0  0
    3.4580   -2.3020    1.1740 N   0  0  0  0  0  0  0  0  0  0  0  0
  1  2  1  0
  2  3  1  0
  3  4  1  0
  3  5  2  3
  5  6  1  0
  6  7  2  3
  7  8  1  0
  7 11  1  0
  8  9  1  0
  9 10  1  0
 10 11  1  0
 11 12  2  3
 12 13  1  0
M  END
