
     RDKit          3D

 14 15  0  0  0  0  0  0  0  0999 V2000
    3.6180   -0.9400    0.7470 C   0  0  0  0  0  0  0  0  0  0  0  0
    2.7900   -0.0140   -0.0780 C   0  0  1  0  0  0  0  0  0  0  0  0
    2.2790   -0.6120   -1.2920 N   0  0  0  0  0  0  0  0  0  0  0  0
    0.9410   -0.1600   -1.4550 C   0  0  0  0  0  0  0  0  0  0  0  0
    0.5530    0.4430   -0.3420 C   0  0  0  0  0  0  0  0  0  0  0  0
   -0.7570    1.0610   -0.0680 C   0  0  1  0  0  0  0  0  0  0  0  0
   -1.6310    0.9690   -1.1290 O   0  0  0  0  0  0  0  0  0  0  0  0
   -1.4420    0.4510    1.1410 C   0  0  2  0  0  0  0  0  0  0  0  0
   -2.0410   -0.9030    0.7840 C   0  0  0  0  0  0  0  0  0  0  0  0
   -3.1390   -0.4890   -0.0950 N   0  0  0  0  0  0  0  0  0  0  0  0
   -3.4880    0.8210    0.3380 C   0  0  0  0  0  0  0  0  0  0  0  0
   -4.4490    1.5030   -0.1570 O   0  0  0  0  0  0  0  0  0  0  0  0
   -2.6200    1.2080    1.3620 O   0  0  0  0  0  0  0  0  0  0  0  0
    1.6000    0.4070    0.5680 O   0  0  0  0  0  0  0  0  0  0  0  0
  2  1  1  1
  2  3  1  0
  2 14  1  0
  3  4  1  0
  4  5  2  0
  5  6  1  0
  5 14  1  0
  6  7  1  6
  6  8  1  0
  8  9  1  6
  8 13  1  0
  9 10  1  0
 10 11  1  0
 11 12  2  0
 11 13  1  0
M  END
