
     RDKit          3D

  8  8  0  0  0  0  0  0  0  0999 V2000
    2.6460    0.4970   -0.3660 N   0  0  0  0  0  0  0  0  0  0  0  0
    1.7450   -0.5000    0.2110 C   0  0  0  0  0  0  0  0  0  0  0  0
    0.5130   -0.4800   -0.5990 C   0  0  0  0  0  0  0  0  0  0  0  0
   -0.6470   -0.1880   -0.0290 C   0  0  0  0  0  0  0  0  0  0  0  0
   -0.9360    0.1400    1.3560 C   0  0  0  0  0  0  0  0  0  0  0  0
   -2.2010    0.3570    1.4840 N   0  0  0  0  0  0  0  0  0  0  0  0
   -2.8960    0.2080    0.2500 C   0  0  0  0  0  0  0  0  0  0  0  0
   -1.8920   -0.1430   -0.7250 N   0  0  0  0  0  0  0  0  0  0  0  0
  1  2  1  0
  2  3  1  0
  3  4  2  3
  4  5  1  0
  4  8  1  0
  5  6  2  0
  6  7  1  0
  7  8  1  0
M  CHG  1   1   1
M  END
