
     RDKit          3D

  8  8  0  0  0  0  0  0  0  0999 V2000
    2.5930    0.5920   -0.3570 N   0  0  0  0  0  0  0  0  0  0  0  0
    2.2380    0.0800    0.7580 C   0  0  0  0  0  0  0  0  0  0  0  0
    0.9760    0.3640    1.3260 N   0  0  0  0  0  0  0  0  0  0  0  0
   -0.1290    0.1260    0.7090 C   0  0  0  0  0  0  0  0  0  0  0  0
   -1.4970    0.3540    1.1410 C   0  0  0  0  0  0  0  0  0  0  0  0
   -2.3490   -0.0260    0.2130 C   0  0  0  0  0  0  0  0  0  0  0  0
   -1.6120   -0.5530   -0.9470 C   0  0  0  0  0  0  0  0  0  0  0  0
   -0.2260   -0.4350   -0.5860 N   0  0  0  0  0  0  0  0  0  0  0  0
  1  2  2  0
  2  3  1  0
  3  4  2  3
  4  5  1  0
  4  8  1  0
  5  6  2  0
  6  7  1  0
  7  8  1  0
M  CHG  1   1   1
M  END
