
     RDKit          3D

  8  7  0  0  0  0  0  0  0  0999 V2000
    1.6350   -1.8820   -0.1380 C   0  0  0  0  0  0  0  0  0  0  0  0
    1.3520   -0.6320   -0.0790 N   0  0  0  0  0  0  0  0  0  0  0  0
    1.3240    0.5950   -0.0580 C   0  0  0  0  0  0  0  0  0  0  0  0
    2.5630    1.2400   -0.2930 N   0  0  0  0  0  0  0  0  0  0  0  0
    0.0900    1.2440    0.1910 C   0  0  0  0  0  0  0  0  0  0  0  0
   -1.1040    0.8370    0.4210 C   0  0  0  0  0  0  0  0  0  0  0  0
   -1.6640   -0.5220    0.5150 C   0  0  0  0  0  0  0  0  0  0  0  0
   -2.7110   -0.7290   -0.4910 N   0  0  0  0  0  0  0  0  0  0  0  0
  1  2  2  0
  2  3  2  0
  3  4  1  0
  3  5  1  0
  5  6  2  3
  6  7  1  0
  7  8  1  0
M  CHG  1   2   1
M  END
