
     RDKit          3D

 11 11  0  0  0  0  0  0  0  0999 V2000
    2.2980    0.1570    1.1990 C   0  0  0  0  0  0  0  0  0  0  0  0
    1.6450   -0.7770    0.2310 C   0  0  0  0  0  0  0  0  0  0  0  0
    2.3280   -1.7300   -0.2480 O   0  0  0  0  0  0  0  0  0  0  0  0
    0.2680   -0.5760   -0.1310 N   0  0  0  0  0  0  0  0  0  0  0  0
   -0.4370   -1.4150   -1.0430 C   0  0  0  0  0  0  0  0  0  0  0  0
   -1.8990   -1.2890   -0.5680 C   0  0  0  0  0  0  0  0  0  0  0  0
   -1.9630    0.1650   -0.1660 C   0  0  0  0  0  0  0  0  0  0  0  0
   -0.5880    0.4460    0.3370 C   0  0  2  0  0  0  0  0  0  0  0  0
   -0.1270    1.8150    0.0050 C   0  0  0  0  0  0  0  0  0  0  0  0
   -0.8140    2.7770    0.3800 O   0  0  0  0  0  0  0  0  0  0  0  0
    1.0300    2.0110   -0.6990 O   0  0  0  0  0  0  0  0  0  0  0  0
  1  2  1  0
  2  3  2  0
  2  4  1  0
  4  5  1  0
  4  8  1  0
  5  6  1  0
  6  7  1  0
  7  8  1  0
  8  9  1  6
  9 10  2  0
  9 11  1  0
M  END
