
     RDKit          3D

  8  8  0  0  0  0  0  0  0  0999 V2000
   -2.9630    0.1560    0.8600 N   0  0  0  0  0  0  0  0  0  0  0  0
   -1.6940    0.5940    0.4220 N   0  0  0  0  0  0  0  0  0  0  0  0
   -1.0550   -0.2080   -0.5550 C   0  0  0  0  0  0  0  0  0  0  0  0
    0.2860   -0.2000   -0.5810 C   0  0  0  0  0  0  0  0  0  0  0  0
    1.1580   -0.9310   -1.4790 C   0  0  0  0  0  0  0  0  0  0  0  0
    2.4070   -0.6630   -1.1910 C   0  0  0  0  0  0  0  0  0  0  0  0
    2.4820    0.2750   -0.0710 C   0  0  0  0  0  0  0  0  0  0  0  0
    1.1230    0.5430    0.2860 N   0  0  0  0  0  0  0  0  0  0  0  0
  1  2  1  0
  2  3  1  0
  3  4  2  3
  4  5  1  0
  4  8  1  0
  5  6  2  0
  6  7  1  0
  7  8  1  0
M  CHG  1   1   1
M  END
