
     RDKit          3D

  8  8  0  0  0  0  0  0  0  0999 V2000
   -2.6380   -0.3140    0.4880 N   0  0  0  0  0  0  0  0  0  0  0  0
   -1.6800    0.1060   -0.5260 C   0  0  0  0  0  0  0  0  0  0  0  0
   -0.5180   -0.7750   -0.6070 C   0  0  0  0  0  0  0  0  0  0  0  0
    0.7290   -0.3800   -0.4040 C   0  0  0  0  0  0  0  0  0  0  0  0
    1.2140    0.9960   -0.0610 C   0  0  0  0  0  0  0  0  0  0  0  0
    2.3960    0.6700    0.7130 N   0  0  0  0  0  0  0  0  0  0  0  0
    2.8620   -0.5690    0.1710 C   0  0  0  0  0  0  0  0  0  0  0  0
    1.9150   -1.1610   -0.4610 N   0  0  0  0  0  0  0  0  0  0  0  0
  1  2  1  0
  2  3  1  0
  3  4  2  3
  4  5  1  0
  4  8  1  0
  5  6  1  0
  6  7  1  0
  7  8  2  0
M  CHG  1   1   1
M  END
