
     RDKit          3D

 14 14  0  0  0  0  0  0  0  0999 V2000
    3.0560   -2.0040    0.2510 C   0  0  0  0  0  0  0  0  0  0  0  0
    2.7570   -1.0230   -0.6790 O   0  0  0  0  0  0  0  0  0  0  0  0
    1.8390   -0.1010   -0.2460 C   0  0  1  0  0  0  0  0  0  0  0  0
    2.5090    1.2800   -0.2340 C   0  0  0  0  0  0  0  0  0  0  0  0
    1.1440    2.4790   -0.3070 S   0  0  0  0  0  0  0  0  0  0  0  0
   -0.3410    1.5480    0.2400 C   0  0  1  0  0  0  0  0  0  0  0  0
   -1.4940    2.5090   -0.0000 C   0  0  0  0  0  0  0  0  0  0  0  0
   -1.2180    3.6460    0.7920 O   0  0  0  0  0  0  0  0  0  0  0  0
   -0.4060    0.3320   -0.6140 C   0  0  2  0  0  0  0  0  0  0  0  0
   -0.9940   -0.8720    0.0560 C   0  0  2  0  0  0  0  0  0  0  0  0
   -1.1570   -1.8870   -0.9990 N   0  0  0  0  0  0  0  0  0  0  0  0
   -2.3820   -0.6170    0.6010 C   0  0  0  0  0  0  0  0  0  0  0  0
   -2.8510   -1.8500    1.1050 O   0  0  0  0  0  0  0  0  0  0  0  0
    0.8120   -0.0230   -1.1700 O   0  0  0  0  0  0  0  0  0  0  0  0
  1  2  1  0
  3  2  1  6
  3  4  1  0
  3 14  1  0
  4  5  1  0
  5  6  1  0
  6  7  1  6
  6  9  1  0
  7  8  1  0
  9 10  1  0
  9 14  1  1
 10 11  1  6
 10 12  1  0
 12 13  1  0
M  CHG  1  11   1
M  END
