
     RDKit          3D

 14 15  0  0  0  0  0  0  0  0999 V2000
   -2.8660   -1.3860   -0.0200 N   0  0  0  0  0  0  0  0  0  0  0  0
   -1.4730   -1.4900    0.3680 C   0  0  2  0  0  0  0  0  0  0  0  0
   -0.9580   -0.6460    1.4970 C   0  0  0  0  0  0  0  0  0  0  0  0
   -0.5520   -0.3180    0.0460 C   0  0  2  0  0  0  0  0  0  0  0  0
   -1.1750    0.9340   -0.5100 C   0  0  0  0  0  0  0  0  0  0  0  0
   -2.3960    1.6060    0.6810 S   0  0  0  0  0  0  0  0  0  0  0  0
   -3.0580    3.0200   -0.0180 O   0  0  0  0  0  0  0  0  0  0  0  0
    0.8390   -0.7230   -0.3880 C   0  0  1  0  0  0  0  0  0  0  0  0
    0.7230   -1.5020   -1.5350 O   0  0  0  0  0  0  0  0  0  0  0  0
    1.7470    0.4480   -0.6160 C   0  0  1  0  0  0  0  0  0  0  0  0
    2.0240    1.2190    0.6570 C   0  0  0  0  0  0  0  0  0  0  0  0
    3.4360    1.1850    0.7710 O   0  0  0  0  0  0  0  0  0  0  0  0
    3.6490   -0.1160    0.2620 C   0  0  0  0  0  0  0  0  0  0  0  0
    3.0070   -0.0280   -0.9680 O   0  0  0  0  0  0  0  0  0  0  0  0
  2  1  1  6
  2  3  1  0
  2  4  1  0
  3  4  1  0
  4  5  1  6
  4  8  1  0
  5  6  1  0
  6  7  1  0
  8  9  1  6
  8 10  1  0
 10 11  1  1
 10 14  1  0
 11 12  1  0
 12 13  1  0
 13 14  1  0
M  CHG  1   1   1
M  END
