
     RDKit          3D

 13 14  0  0  0  0  0  0  0  0999 V2000
    1.5470    0.9460    1.9280 O   0  0  0  0  0  0  0  0  0  0  0  0
    1.8560    0.5470    0.6620 C   0  0  1  0  0  0  0  0  0  0  0  0
    2.9530   -0.3120    0.6100 O   0  0  0  0  0  0  0  0  0  0  0  0
    2.9550   -0.9350   -0.6030 C   0  0  0  0  0  0  0  0  0  0  0  0
    1.5430   -0.8210   -1.1780 C   0  0  0  0  0  0  0  0  0  0  0  0
    0.7800   -0.3530    0.0460 C   0  0  1  0  0  0  0  0  0  0  0  0
    0.5600   -1.4370    0.8560 O   0  0  0  0  0  0  0  0  0  0  0  0
   -0.4570    0.4090   -0.2930 C   0  0  2  0  0  0  0  0  0  0  0  0
   -0.1470    1.4810   -1.1080 O   0  0  0  0  0  0  0  0  0  0  0  0
   -1.0710    0.9210    0.9800 C   0  0  0  0  0  0  0  0  0  0  0  0
   -2.5460    0.6670    0.8230 C   0  0  0  0  0  0  0  0  0  0  0  0
   -2.6630   -0.4480   -0.0730 N   0  0  0  0  0  0  0  0  0  0  0  0
   -1.4700   -0.5170   -0.8650 C   0  0  0  0  0  0  0  0  0  0  0  0
  2  1  1  1
  2  3  1  0
  2  6  1  0
  3  4  1  0
  4  5  1  0
  5  6  1  0
  6  7  1  1
  6  8  1  0
  8  9  1  6
  8 10  1  0
  8 13  1  0
 10 11  1  0
 11 12  1  0
 12 13  1  0
M  CHG  1  12   1
M  END
