
     RDKit          3D

 25 26  0  0  0  0  0  0  0  0999 V2000
   -6.8210    1.1190    1.3740 C   0  0  0  0  0  0  0  0  0  0  0  0
   -6.4750    1.6230    0.1420 O   0  0  0  0  0  0  0  0  0  0  0  0
   -5.1320    1.7720    0.0160 C   0  0  0  0  0  0  0  0  0  0  0  0
   -4.3240    0.5100    0.1040 C   0  0  2  0  0  0  0  0  0  0  0  0
   -2.9650    0.8680   -0.0250 N   0  0  0  0  0  0  0  0  0  0  0  0
   -1.8580    0.1160    0.6540 C   0  0  0  0  0  0  0  0  0  0  0  0
   -2.0550   -0.8120    1.2690 O   0  0  0  0  0  0  0  0  0  0  0  0
   -0.6090    0.8740    0.3120 N   0  0  0  0  0  0  0  0  0  0  0  0
    0.4720   -0.2900    0.9960 C   0  0  0  0  0  0  0  0  0  0  0  0
   -0.0380   -1.2510    1.4100 O   0  0  0  0  0  0  0  0  0  0  0  0
    1.8390    0.1300    0.9410 C   0  0  0  0  0  0  0  0  0  0  0  0
    2.8180   -1.0130    1.1450 C   0  0  1  0  0  0  0  0  0  0  0  0
    2.7100   -2.0520    0.0740 C   0  0  0  0  0  0  0  0  0  0  0  0
    4.0150   -1.9690   -0.6650 C   0  0  0  0  0  0  0  0  0  0  0  0
    4.7080   -0.8180   -0.1100 C   0  0  0  0  0  0  0  0  0  0  0  0
    5.6790   -0.0870   -0.6300 C   0  0  0  0  0  0  0  0  0  0  0  0
    6.3050    1.0170   -0.0330 O   0  0  0  0  0  0  0  0  0  0  0  0
    7.2780    1.5150   -0.8970 C   0  0  0  0  0  0  0  0  0  0  0  0
    7.3500    0.8400   -2.0150 C   0  0  0  0  0  0  0  0  0  0  0  0
    6.3480   -0.2260   -1.9370 C   0  0  0  0  0  0  0  0  0  0  0  0
    6.0750   -1.1010   -2.7740 O   0  0  0  0  0  0  0  0  0  0  0  0
    4.1480   -0.5890    1.1420 O   0  0  0  0  0  0  0  0  0  0  0  0
   -4.7120   -0.4250   -1.0170 C   0  0  0  0  0  0  0  0  0  0  0  0
   -6.0180   -0.9470   -1.1380 N   0  0  0  0  0  0  0  0  0  0  0  0
   -3.8440   -0.7320   -1.8460 O   0  0  0  0  0  0  0  0  0  0  0  0
  1  2  1  0
  2  3  1  0
  4  3  1  6
  4  5  1  0
  4 23  1  0
  5  6  1  0
  6  7  2  0
  6  8  1  0
  8  9  1  0
  9 10  2  0
  9 11  1  0
 12 11  1  6
 12 13  1  0
 12 22  1  0
 13 14  1  0
 14 15  1  0
 15 16  2  3
 15 22  1  0
 16 17  1  0
 16 20  1  0
 17 18  1  0
 18 19  2  0
 19 20  1  0
 20 21  2  0
 23 24  1  0
 23 25  2  0
M  END
