
     RDKit          3D

 25 26  0  0  0  0  0  0  0  0999 V2000
    0.0990   -2.2890    2.2160 C   0  0  0  0  0  0  0  0  0  0  0  0
   -0.8420   -1.2380    1.7530 C   0  0  0  0  0  0  0  0  0  0  0  0
   -1.3380   -0.4670    2.6170 O   0  0  0  0  0  0  0  0  0  0  0  0
   -1.2230   -1.0380    0.4210 N   0  0  0  0  0  0  0  0  0  0  0  0
   -2.1300   -0.0290   -0.0400 C   0  0  1  0  0  0  0  0  0  0  0  0
   -1.4880    1.0910   -0.7660 C   0  0  0  0  0  0  0  0  0  0  0  0
   -0.2440    1.1300   -0.9790 N   0  0  0  0  0  0  0  0  0  0  0  0
    0.5680    0.1220   -0.5370 O   0  0  0  0  0  0  0  0  0  0  0  0
    1.9500    0.3210   -0.5530 C   0  0  0  0  0  0  0  0  0  0  0  0
    2.4080    1.3950   -0.9620 O   0  0  0  0  0  0  0  0  0  0  0  0
    2.7970   -0.7110   -0.0990 N   0  0  0  0  0  0  0  0  0  0  0  0
    4.2080   -0.6720   -0.0510 C   0  0  0  0  0  0  0  0  0  0  0  0
    4.9550    0.3570   -0.5020 C   0  0  0  0  0  0  0  0  0  0  0  0
    6.3460    0.2930   -0.3990 C   0  0  0  0  0  0  0  0  0  0  0  0
    6.9840   -0.7900    0.1490 C   0  0  0  0  0  0  0  0  0  0  0  0
    6.2210   -1.8650    0.6200 C   0  0  0  0  0  0  0  0  0  0  0  0
    4.8530   -1.7570    0.4980 C   0  0  0  0  0  0  0  0  0  0  0  0
   -2.3570    2.1040   -1.1970 O   0  0  0  0  0  0  0  0  0  0  0  0
   -3.7360    1.9230   -1.2090 C   0  0  2  0  0  0  0  0  0  0  0  0
   -4.4320    2.6210   -0.0340 C   0  0  0  0  0  0  0  0  0  0  0  0
   -4.1510    3.9840   -0.1370 O   0  0  0  0  0  0  0  0  0  0  0  0
   -4.1890    0.5150   -1.3260 C   0  0  1  0  0  0  0  0  0  0  0  0
   -4.5640    0.2530   -2.6690 O   0  0  0  0  0  0  0  0  0  0  0  0
   -3.2750   -0.5370   -0.8240 C   0  0  2  0  0  0  0  0  0  0  0  0
   -3.9750   -1.4360    0.0170 O   0  0  0  0  0  0  0  0  0  0  0  0
  1  2  1  0
  2  3  2  0
  2  4  1  0
  5  4  1  6
  5  6  1  0
  5 24  1  0
  6  7  2  3
  6 18  1  0
  7  8  1  0
  8  9  1  0
  9 10  2  0
  9 11  1  0
 11 12  1  0
 12 13  2  0
 12 17  1  0
 13 14  1  0
 14 15  2  0
 15 16  1  0
 16 17  2  0
 18 19  1  0
 19 20  1  1
 19 22  1  0
 20 21  1  0
 22 23  1  6
 22 24  1  0
 24 25  1  1
M  END
