
     RDKit          3D

 25 26  0  0  0  0  0  0  0  0999 V2000
    6.6340   -1.9030   -2.0550 C   0  0  0  0  0  0  0  0  0  0  0  0
    5.7750   -0.8710   -1.6200 O   0  0  0  0  0  0  0  0  0  0  0  0
    6.0530    0.4320   -1.9490 C   0  0  0  0  0  0  0  0  0  0  0  0
    7.1270    0.6500   -2.6670 O   0  0  0  0  0  0  0  0  0  0  0  0
    5.2780    1.5890   -1.5820 C   0  0  0  0  0  0  0  0  0  0  0  0
    4.2010    1.6330   -0.8910 C   0  0  0  0  0  0  0  0  0  0  0  0
    3.6740    2.9600   -0.7030 O   0  0  0  0  0  0  0  0  0  0  0  0
    3.4560    0.5550   -0.2850 C   0  0  0  0  0  0  0  0  0  0  0  0
    2.3380    0.8220    0.4070 C   0  0  0  0  0  0  0  0  0  0  0  0
    1.4820   -0.1750    1.0750 C   0  0  1  0  0  0  0  0  0  0  0  0
    0.1770   -0.0910    0.3970 N   0  0  0  0  0  0  0  0  0  0  0  0
   -0.9720    0.2710    1.1500 C   0  0  0  0  0  0  0  0  0  0  0  0
   -0.8960    0.5240    2.3980 O   0  0  0  0  0  0  0  0  0  0  0  0
   -2.2710    0.3770    0.5790 N   0  0  0  0  0  0  0  0  0  0  0  0
   -3.4190    0.7550    1.4080 C   0  0  1  0  0  0  0  0  0  0  0  0
   -4.0410    1.9740    0.7950 C   0  0  0  0  0  0  0  0  0  0  0  0
   -5.3240    1.5730    0.0890 C   0  0  0  0  0  0  0  0  0  0  0  0
   -5.1340    0.4520   -0.7160 O   0  0  0  0  0  0  0  0  0  0  0  0
   -4.7930   -0.6720   -0.0140 C   0  0  2  0  0  0  0  0  0  0  0  0
   -5.9050   -1.6990    0.0120 C   0  0  0  0  0  0  0  0  0  0  0  0
   -4.4410   -0.3560    1.4110 C   0  0  0  0  0  0  0  0  0  0  0  0
    1.9380   -1.5230    0.9340 N   0  0  0  0  0  0  0  0  0  0  0  0
    3.1260   -1.8370    0.2030 C   0  0  0  0  0  0  0  0  0  0  0  0
    3.5470   -3.0030    0.0640 O   0  0  0  0  0  0  0  0  0  0  0  0
    3.7940   -0.7680   -0.3520 O   0  0  0  0  0  0  0  0  0  0  0  0
  1  2  1  0
  2  3  1  0
  3  4  2  0
  3  5  1  0
  5  6  2  3
  6  7  1  0
  6  8  1  0
  8  9  2  0
  8 25  1  0
  9 10  1  0
 10 11  1  6
 10 22  1  0
 11 12  1  0
 12 13  2  0
 12 14  1  0
 15 14  1  6
 15 16  1  0
 15 21  1  0
 16 17  1  0
 17 18  1  0
 18 19  1  0
 19 20  1  1
 19 21  1  0
 22 23  1  0
 23 24  2  0
 23 25  1  0
M  END
