
     RDKit          3D

 25 26  0  0  0  0  0  0  0  0999 V2000
   -2.1870    3.1370   -1.2840 C   0  0  0  0  0  0  0  0  0  0  0  0
   -2.1340    1.8460   -1.7150 O   0  0  0  0  0  0  0  0  0  0  0  0
   -2.6310    0.8820   -0.8600 C   0  0  1  0  0  0  0  0  0  0  0  0
   -2.4520   -0.4370   -1.5400 C   0  0  0  0  0  0  0  0  0  0  0  0
   -1.1450   -0.8330   -1.9270 N   0  0  0  0  0  0  0  0  0  0  0  0
   -0.0380   -1.1110   -1.0970 C   0  0  0  0  0  0  0  0  0  0  0  0
   -0.1020   -1.0580    0.1330 O   0  0  0  0  0  0  0  0  0  0  0  0
    1.2470   -1.4760   -1.6410 N   0  0  0  0  0  0  0  0  0  0  0  0
    2.3790   -1.7410   -0.7950 C   0  0  0  0  0  0  0  0  0  0  0  0
    2.9220   -2.9450   -0.7400 C   0  0  0  0  0  0  0  0  0  0  0  0
    4.0790   -3.2750    0.1040 C   0  0  2  0  0  0  0  0  0  0  0  0
    3.9740   -4.6350    0.4830 O   0  0  0  0  0  0  0  0  0  0  0  0
    4.1540   -2.4030    1.3090 C   0  0  0  0  0  0  0  0  0  0  0  0
    4.0640   -1.0500    0.8480 O   0  0  0  0  0  0  0  0  0  0  0  0
    2.9610   -0.7010    0.0340 C   0  0  0  0  0  0  0  0  0  0  0  0
    2.5220    0.5330    0.0630 C   0  0  0  0  0  0  0  0  0  0  0  0
    3.1480    1.5460    0.9230 C   0  0  0  0  0  0  0  0  0  0  0  0
    4.1220    1.2150    1.6410 O   0  0  0  0  0  0  0  0  0  0  0  0
    2.6840    2.8400    0.9510 O   0  0  0  0  0  0  0  0  0  0  0  0
    3.2890    3.7680    1.7660 N   0  0  0  0  0  0  0  0  0  0  0  0
   -2.2700    1.0070    0.5650 C   0  0  0  0  0  0  0  0  0  0  0  0
   -2.9700   -0.0960    1.3370 C   0  0  0  0  0  0  0  0  0  0  0  0
   -4.3530    0.0830    1.2650 O   0  0  0  0  0  0  0  0  0  0  0  0
   -4.8620    0.1310   -0.0060 C   0  0  0  0  0  0  0  0  0  0  0  0
   -4.1780    1.1910   -0.8470 C   0  0  0  0  0  0  0  0  0  0  0  0
  1  2  1  0
  2  3  1  0
  3  4  1  6
  3 21  1  0
  3 25  1  0
  4  5  1  0
  5  6  1  0
  6  7  2  0
  6  8  1  0
  8  9  1  0
  9 10  2  0
  9 15  1  0
 10 11  1  0
 11 12  1  1
 11 13  1  0
 13 14  1  0
 14 15  1  0
 15 16  2  3
 16 17  1  0
 17 18  2  0
 17 19  1  0
 19 20  1  0
 21 22  1  0
 22 23  1  0
 23 24  1  0
 24 25  1  0
M  END
