
     RDKit          3D

 25 26  0  0  0  0  0  0  0  0999 V2000
   -3.1510    3.6290   -0.3150 C   0  0  0  0  0  0  0  0  0  0  0  0
   -2.6610    2.3340   -0.5330 O   0  0  0  0  0  0  0  0  0  0  0  0
   -1.5900    1.7910    0.1570 C   0  0  0  0  0  0  0  0  0  0  0  0
   -1.0370    2.5150    1.0250 O   0  0  0  0  0  0  0  0  0  0  0  0
   -1.1120    0.4190   -0.1120 C   0  0  1  0  0  0  0  0  0  0  0  0
    0.0240    0.0820    0.7340 N   0  0  0  0  0  0  0  0  0  0  0  0
    1.3370   -0.1660    0.1940 C   0  0  0  0  0  0  0  0  0  0  0  0
    1.4190   -0.0670   -1.0550 O   0  0  0  0  0  0  0  0  0  0  0  0
    2.4320   -0.4920    1.0230 N   0  0  0  0  0  0  0  0  0  0  0  0
    3.7060   -0.6990    0.4350 C   0  0  0  0  0  0  0  0  0  0  0  0
    4.2010   -1.9430    0.4620 C   0  0  0  0  0  0  0  0  0  0  0  0
    5.5070   -2.3170   -0.1050 C   0  0  0  0  0  0  0  0  0  0  0  0
    6.1640   -1.2230   -0.6680 O   0  0  0  0  0  0  0  0  0  0  0  0
    5.6800    0.0510   -0.6990 C   0  0  0  0  0  0  0  0  0  0  0  0
    4.5020    0.3320   -0.1770 C   0  0  0  0  0  0  0  0  0  0  0  0
    4.0310    1.7210   -0.1980 C   0  0  0  0  0  0  0  0  0  0  0  0
    2.9600    2.1080    0.2710 O   0  0  0  0  0  0  0  0  0  0  0  0
    4.8440    2.7010   -0.7920 O   0  0  0  0  0  0  0  0  0  0  0  0
   -2.1780   -0.6220   -0.0680 C   0  0  2  0  0  0  0  0  0  0  0  0
   -3.2250   -0.2970   -1.1120 C   0  0  0  0  0  0  0  0  0  0  0  0
   -3.9850   -1.6090   -1.3430 C   0  0  0  0  0  0  0  0  0  0  0  0
   -4.4910   -2.1510   -0.0460 C   0  0  0  0  0  0  0  0  0  0  0  0
   -4.1870   -1.3040    1.1270 C   0  0  0  0  0  0  0  0  0  0  0  0
   -5.0510   -1.1340    1.9960 O   0  0  0  0  0  0  0  0  0  0  0  0
   -2.8730   -0.7080    1.1970 N   0  0  0  0  0  0  0  0  0  0  0  0
  1  2  1  0
  2  3  1  0
  3  4  2  0
  3  5  1  0
  5  6  1  1
  5 19  1  0
  6  7  1  0
  7  8  2  0
  7  9  1  0
  9 10  1  0
 10 11  2  0
 10 15  1  0
 11 12  1  0
 12 13  1  0
 13 14  1  0
 14 15  2  0
 15 16  1  0
 16 17  2  0
 16 18  1  0
 19 20  1  6
 19 25  1  0
 20 21  1  0
 21 22  1  0
 22 23  1  0
 23 24  2  0
 23 25  1  0
M  END
