
     RDKit          3D

 25 26  0  0  0  0  0  0  0  0999 V2000
   -5.6920    0.6530    1.6460 C   0  0  0  0  0  0  0  0  0  0  0  0
   -4.7610    1.0030    0.5740 C   0  0  0  0  0  0  0  0  0  0  0  0
   -3.4560    0.9570    0.7350 C   0  0  0  0  0  0  0  0  0  0  0  0
   -2.9040    0.5500    2.0060 C   0  0  0  0  0  0  0  0  0  0  0  0
   -3.6820    0.2220    3.0100 N   0  0  0  0  0  0  0  0  0  0  0  0
   -1.5510    0.4590    2.3080 O   0  0  0  0  0  0  0  0  0  0  0  0
   -2.5990    1.3210   -0.3800 C   0  0  0  0  0  0  0  0  0  0  0  0
   -3.1880    1.6740   -1.4820 O   0  0  0  0  0  0  0  0  0  0  0  0
   -1.2060    1.3320   -0.3930 N   0  0  0  0  0  0  0  0  0  0  0  0
   -0.4780    1.7100   -1.5540 C   0  0  1  0  0  0  0  0  0  0  0  0
    0.4110    2.9030   -1.3930 C   0  0  0  0  0  0  0  0  0  0  0  0
    1.2730    2.7780   -2.5320 O   0  0  0  0  0  0  0  0  0  0  0  0
    1.0920    1.5570   -3.1400 C   0  0  0  0  0  0  0  0  0  0  0  0
    1.4140    1.2700   -4.3030 O   0  0  0  0  0  0  0  0  0  0  0  0
    0.4450    0.6920   -2.1200 C   0  0  1  0  0  0  0  0  0  0  0  0
    1.5130    0.2440   -1.2870 N   0  0  0  0  0  0  0  0  0  0  0  0
    1.9020   -1.1070   -1.1350 C   0  0  0  0  0  0  0  0  0  0  0  0
    1.2020   -1.9170   -1.8220 O   0  0  0  0  0  0  0  0  0  0  0  0
    2.9860   -1.5550   -0.2880 C   0  0  0  0  0  0  0  0  0  0  0  0
    3.7340   -0.7510    0.4380 C   0  0  0  0  0  0  0  0  0  0  0  0
    4.8440   -1.1970    1.3070 C   0  0  0  0  0  0  0  0  0  0  0  0
    5.0350   -2.5820    1.2890 O   0  0  0  0  0  0  0  0  0  0  0  0
    4.2680   -3.4480    0.5400 C   0  0  0  0  0  0  0  0  0  0  0  0
    3.2860   -2.9810   -0.2190 C   0  0  0  0  0  0  0  0  0  0  0  0
    2.5510   -3.9110   -0.9500 O   0  0  0  0  0  0  0  0  0  0  0  0
  1  2  1  0
  2  3  2  3
  3  4  1  0
  3  7  1  0
  4  5  2  0
  4  6  1  0
  7  8  2  0
  7  9  1  0
 10  9  1  1
 10 11  1  0
 10 15  1  0
 11 12  1  0
 12 13  1  0
 13 14  2  0
 13 15  1  0
 15 16  1  1
 16 17  1  0
 17 18  2  0
 17 19  1  0
 19 20  2  0
 19 24  1  0
 20 21  1  0
 21 22  1  0
 22 23  1  0
 23 24  2  0
 24 25  1  0
M  END
