
     RDKit          3D

 25 26  0  0  0  0  0  0  0  0999 V2000
    2.5520    2.8160   -0.3590 C   0  0  0  0  0  0  0  0  0  0  0  0
    3.0780    1.6940   -0.9900 O   0  0  0  0  0  0  0  0  0  0  0  0
    3.2250    0.6160   -0.1390 C   0  0  1  0  0  0  0  0  0  0  0  0
    1.9090    0.1760    0.4770 C   0  0  0  0  0  0  0  0  0  0  0  0
    0.9820   -0.2090   -0.5650 N   0  0  0  0  0  0  0  0  0  0  0  0
   -0.3320   -0.6600   -0.1720 C   0  0  0  0  0  0  0  0  0  0  0  0
   -0.5950   -0.6920    1.0540 O   0  0  0  0  0  0  0  0  0  0  0  0
   -1.2630   -1.0450   -1.1720 N   0  0  0  0  0  0  0  0  0  0  0  0
   -2.5620   -1.4720   -0.7550 C   0  0  0  0  0  0  0  0  0  0  0  0
   -2.9370   -2.7210   -0.9730 C   0  0  0  0  0  0  0  0  0  0  0  0
   -4.2730   -3.1760   -0.5530 C   0  0  2  0  0  0  0  0  0  0  0  0
   -5.1990   -2.8310   -1.5720 O   0  0  0  0  0  0  0  0  0  0  0  0
   -4.7150   -2.4510    0.6790 C   0  0  0  0  0  0  0  0  0  0  0  0
   -4.7090   -1.0420    0.3390 O   0  0  0  0  0  0  0  0  0  0  0  0
   -3.4430   -0.5420   -0.0770 C   0  0  0  0  0  0  0  0  0  0  0  0
   -3.0880    0.7000    0.1350 C   0  0  0  0  0  0  0  0  0  0  0  0
   -3.9770    1.6550    0.8260 C   0  0  0  0  0  0  0  0  0  0  0  0
   -5.0920    1.2210    1.2010 O   0  0  0  0  0  0  0  0  0  0  0  0
   -3.6360    2.9630    1.0650 O   0  0  0  0  0  0  0  0  0  0  0  0
   -4.4540    3.8630    1.7070 N   0  0  0  0  0  0  0  0  0  0  0  0
    3.7510   -0.5540   -0.9210 C   0  0  0  0  0  0  0  0  0  0  0  0
    5.2170   -0.7210   -0.9150 C   0  0  0  0  0  0  0  0  0  0  0  0
    5.9060   -0.2450    0.1630 O   0  0  0  0  0  0  0  0  0  0  0  0
    5.1510   -0.0710    1.2970 C   0  0  0  0  0  0  0  0  0  0  0  0
    4.1380    1.0170    0.9950 C   0  0  0  0  0  0  0  0  0  0  0  0
  1  2  1  0
  2  3  1  0
  3  4  1  1
  3 21  1  0
  3 25  1  0
  4  5  1  0
  5  6  1  0
  6  7  2  0
  6  8  1  0
  8  9  1  0
  9 10  2  0
  9 15  1  0
 10 11  1  0
 11 12  1  6
 11 13  1  0
 13 14  1  0
 14 15  1  0
 15 16  2  3
 16 17  1  0
 17 18  2  0
 17 19  1  0
 19 20  1  0
 21 22  1  0
 22 23  1  0
 23 24  1  0
 24 25  1  0
M  END
