
     RDKit          3D

 25 26  0  0  0  0  0  0  0  0999 V2000
   -0.2420    3.0300    1.0130 C   0  0  0  0  0  0  0  0  0  0  0  0
   -1.2070    2.1150    0.3550 C   0  0  0  0  0  0  0  0  0  0  0  0
   -2.0690    2.6120   -0.4150 O   0  0  0  0  0  0  0  0  0  0  0  0
   -1.1580    0.7240    0.5850 N   0  0  0  0  0  0  0  0  0  0  0  0
   -2.1020   -0.1460   -0.0630 C   0  0  1  0  0  0  0  0  0  0  0  0
   -1.4630   -1.0840   -1.0030 C   0  0  0  0  0  0  0  0  0  0  0  0
   -0.3170   -0.8040   -1.4750 N   0  0  0  0  0  0  0  0  0  0  0  0
    0.4220    0.3040   -1.2060 O   0  0  0  0  0  0  0  0  0  0  0  0
    1.7710    0.1250   -0.8420 C   0  0  0  0  0  0  0  0  0  0  0  0
    2.2110   -1.0360   -0.7870 O   0  0  0  0  0  0  0  0  0  0  0  0
    2.5030    1.2980   -0.5710 N   0  0  0  0  0  0  0  0  0  0  0  0
    3.8560    1.2560   -0.2040 C   0  0  0  0  0  0  0  0  0  0  0  0
    4.4250    2.4170    0.3160 C   0  0  0  0  0  0  0  0  0  0  0  0
    5.7500    2.4930    0.6940 C   0  0  0  0  0  0  0  0  0  0  0  0
    6.5580    1.3970    0.5630 C   0  0  0  0  0  0  0  0  0  0  0  0
    6.0100    0.2490    0.0530 C   0  0  0  0  0  0  0  0  0  0  0  0
    4.6770    0.1830   -0.3240 C   0  0  0  0  0  0  0  0  0  0  0  0
   -2.0970   -2.2430   -1.3620 O   0  0  0  0  0  0  0  0  0  0  0  0
   -3.1300   -2.8390   -0.6000 C   0  0  2  0  0  0  0  0  0  0  0  0
   -4.4550   -2.4870   -1.2300 C   0  0  0  0  0  0  0  0  0  0  0  0
   -5.5280   -3.0230   -0.5580 O   0  0  0  0  0  0  0  0  0  0  0  0
   -2.9970   -2.3350    0.8060 C   0  0  1  0  0  0  0  0  0  0  0  0
   -1.8510   -2.9070    1.3520 O   0  0  0  0  0  0  0  0  0  0  0  0
   -3.0110   -0.8430    0.9210 C   0  0  2  0  0  0  0  0  0  0  0  0
   -4.3320   -0.4170    0.8000 O   0  0  0  0  0  0  0  0  0  0  0  0
  1  2  1  0
  2  3  2  0
  2  4  1  0
  5  4  1  1
  5  6  1  0
  5 24  1  0
  6  7  2  3
  6 18  1  0
  7  8  1  0
  8  9  1  0
  9 10  2  0
  9 11  1  0
 11 12  1  0
 12 13  2  0
 12 17  1  0
 13 14  1  0
 14 15  2  0
 15 16  1  0
 16 17  2  0
 18 19  1  0
 19 20  1  6
 19 22  1  0
 20 21  1  0
 22 23  1  6
 22 24  1  0
 24 25  1  6
M  END
