
     RDKit          3D

 14 14  0  0  0  0  0  0  0  0999 V2000
    3.9000    0.5810   -0.5710 C   0  0  0  0  0  0  0  0  0  0  0  0
    2.7290    0.2180    0.0970 O   0  0  0  0  0  0  0  0  0  0  0  0
    2.0980   -0.7640   -0.6560 C   0  0  0  0  0  0  0  0  0  0  0  0
    0.8220   -1.2440   -0.0500 C   0  0  0  0  0  0  0  0  0  0  0  0
   -0.2060   -0.1620    0.1330 C   0  0  1  0  0  0  0  0  0  0  0  0
    0.2670    0.8510    0.9660 O   0  0  0  0  0  0  0  0  0  0  0  0
   -0.5080    0.4490   -1.2000 C   0  0  0  0  0  0  0  0  0  0  0  0
   -1.5590    1.5260   -1.1490 C   0  0  2  0  0  0  0  0  0  0  0  0
   -1.4530    2.3600   -0.0630 O   0  0  0  0  0  0  0  0  0  0  0  0
   -2.8360    1.0020   -1.2990 O   0  0  0  0  0  0  0  0  0  0  0  0
   -3.5280    0.9400    0.2790 S   0  0  0  0  0  0  0  0  0  0  0  0
   -2.3100    0.2560    1.4380 C   0  0  0  0  0  0  0  0  0  0  0  0
   -1.4760   -0.7630    0.6960 C   0  0  2  0  0  0  0  0  0  0  0  0
   -1.2320   -1.8700    1.5720 N   0  0  0  0  0  0  0  0  0  0  0  0
  1  2  1  0
  2  3  1  0
  3  4  1  0
  4  5  1  0
  5  6  1  1
  5  7  1  0
  5 13  1  0
  7  8  1  0
  8  9  1  1
  8 10  1  0
 10 11  1  0
 11 12  1  0
 12 13  1  0
 13 14  1  1
M  CHG  1  14   1
M  END
