
     RDKit          3D

 14 15  0  0  0  0  0  0  0  0999 V2000
    2.2680   -1.9150    0.6240 N   0  0  0  0  0  0  0  0  0  0  0  0
    1.2390   -1.4620   -0.2990 C   0  0  2  0  0  0  0  0  0  0  0  0
    1.6990   -0.3310   -1.2200 C   0  0  0  0  0  0  0  0  0  0  0  0
    0.6430   -0.1300   -0.1090 C   0  0  2  0  0  0  0  0  0  0  0  0
    1.1430    0.7620    1.0060 C   0  0  0  0  0  0  0  0  0  0  0  0
    2.7550    1.5080    0.5990 S   0  0  0  0  0  0  0  0  0  0  0  0
    2.5690    3.1300    0.0590 O   0  0  0  0  0  0  0  0  0  0  0  0
   -0.7130    0.2170   -0.6450 C   0  0  1  0  0  0  0  0  0  0  0  0
   -0.7870    0.0150   -2.0330 O   0  0  0  0  0  0  0  0  0  0  0  0
   -1.8350   -0.5730   -0.0460 C   0  0  1  0  0  0  0  0  0  0  0  0
   -2.1340   -0.2490    1.3830 C   0  0  0  0  0  0  0  0  0  0  0  0
   -3.2650    0.5800    1.3920 O   0  0  0  0  0  0  0  0  0  0  0  0
   -3.4010    0.9690    0.0640 C   0  0  0  0  0  0  0  0  0  0  0  0
   -3.0110   -0.1430   -0.6830 O   0  0  0  0  0  0  0  0  0  0  0  0
  2  1  1  1
  2  3  1  0
  2  4  1  0
  3  4  1  0
  4  5  1  1
  4  8  1  0
  5  6  1  0
  6  7  1  0
  8  9  1  6
  8 10  1  0
 10 11  1  1
 10 14  1  0
 11 12  1  0
 12 13  1  0
 13 14  1  0
M  CHG  1   1   1
M  END
