
     RDKit          3D

 25 26  0  0  0  0  0  0  0  0999 V2000
    8.4380    0.2380    0.1680 C   0  0  0  0  0  0  0  0  0  0  0  0
    7.6900   -1.0020    0.6020 C   0  0  0  0  0  0  0  0  0  0  0  0
    6.4010   -0.9580    0.0360 O   0  0  0  0  0  0  0  0  0  0  0  0
    5.5400    0.0890    0.3290 C   0  0  0  0  0  0  0  0  0  0  0  0
    5.9200    0.9880    1.0970 O   0  0  0  0  0  0  0  0  0  0  0  0
    4.1910    0.0550   -0.3160 C   0  0  1  0  0  0  0  0  0  0  0  0
    3.4320   -1.1650    0.1510 C   0  0  0  0  0  0  0  0  0  0  0  0
    1.9950   -0.6540   -0.2410 C   0  0  0  0  0  0  0  0  0  0  0  0
    2.1220    0.7560    0.2920 C   0  0  2  0  0  0  0  0  0  0  0  0
    1.2550    1.7780   -0.3370 C   0  0  0  0  0  0  0  0  0  0  0  0
   -0.1580    1.6970   -0.1800 N   0  0  0  0  0  0  0  0  0  0  0  0
   -1.0080    0.6850   -0.6330 C   0  0  0  0  0  0  0  0  0  0  0  0
   -0.5420   -0.2830   -1.2760 O   0  0  0  0  0  0  0  0  0  0  0  0
   -2.4460    0.7280   -0.3710 N   0  0  0  0  0  0  0  0  0  0  0  0
   -3.2500   -0.3170   -0.8510 C   0  0  0  0  0  0  0  0  0  0  0  0
   -4.6990   -0.1950   -0.5420 C   0  0  0  0  0  0  0  0  0  0  0  0
   -5.2720    0.7740    0.1200 C   0  0  0  0  0  0  0  0  0  0  0  0
   -6.7120    0.8220    0.3840 C   0  0  2  0  0  0  0  0  0  0  0  0
   -6.9050    1.0410    1.8080 N   0  0  0  0  0  0  0  0  0  0  0  0
   -7.4450   -0.2360   -0.1150 O   0  0  0  0  0  0  0  0  0  0  0  0
   -6.8610   -1.2780   -0.8200 C   0  0  0  0  0  0  0  0  0  0  0  0
   -7.6720   -2.3170   -1.2960 O   0  0  0  0  0  0  0  0  0  0  0  0
   -5.5710   -1.2990   -1.0450 C   0  0  0  0  0  0  0  0  0  0  0  0
   -4.9910   -2.3570   -1.7600 O   0  0  0  0  0  0  0  0  0  0  0  0
    3.4380    1.1250    0.0420 O   0  0  0  0  0  0  0  0  0  0  0  0
  1  2  1  0
  2  3  1  0
  3  4  1  0
  4  5  2  0
  6  4  1  1
  6  7  1  0
  6 25  1  0
  7  8  1  0
  8  9  1  0
  9 10  1  6
  9 25  1  0
 10 11  1  0
 11 12  1  0
 12 13  2  0
 12 14  1  0
 14 15  1  0
 15 16  1  0
 16 17  2  0
 16 23  1  0
 17 18  1  0
 18 19  1  1
 18 20  1  0
 20 21  1  0
 21 22  1  0
 21 23  2  0
 23 24  1  0
M  END
