
     RDKit          3D

 25 26  0  0  0  0  0  0  0  0999 V2000
   -2.7130   -3.1000    0.2030 C   0  0  0  0  0  0  0  0  0  0  0  0
   -2.2420   -1.7130    0.3350 C   0  0  0  0  0  0  0  0  0  0  0  0
   -2.9860   -0.6930    0.0250 C   0  0  0  0  0  0  0  0  0  0  0  0
   -4.3350   -0.8840   -0.4750 C   0  0  0  0  0  0  0  0  0  0  0  0
   -5.0320    0.1810   -0.7690 N   0  0  0  0  0  0  0  0  0  0  0  0
   -4.8580   -2.1440   -0.6300 O   0  0  0  0  0  0  0  0  0  0  0  0
   -2.4930    0.6990    0.1650 C   0  0  0  0  0  0  0  0  0  0  0  0
   -3.2690    1.6380   -0.1560 O   0  0  0  0  0  0  0  0  0  0  0  0
   -1.2240    1.0510    0.6290 N   0  0  0  0  0  0  0  0  0  0  0  0
   -0.7780    2.4230    0.7520 C   0  0  1  0  0  0  0  0  0  0  0  0
   -0.3200    2.7520    2.1470 C   0  0  0  0  0  0  0  0  0  0  0  0
    0.7520    3.6850    1.9980 O   0  0  0  0  0  0  0  0  0  0  0  0
    1.0900    3.7960    0.6580 C   0  0  0  0  0  0  0  0  0  0  0  0
    1.7780    4.6700    0.0720 O   0  0  0  0  0  0  0  0  0  0  0  0
    0.4740    2.6450   -0.0530 C   0  0  1  0  0  0  0  0  0  0  0  0
    1.3720    1.5210    0.0980 N   0  0  0  0  0  0  0  0  0  0  0  0
    1.9110    0.8100   -1.0020 C   0  0  0  0  0  0  0  0  0  0  0  0
    1.5610    1.2150   -2.1600 O   0  0  0  0  0  0  0  0  0  0  0  0
    2.8220   -0.3310   -0.8810 C   0  0  0  0  0  0  0  0  0  0  0  0
    3.2320   -0.8120    0.2580 C   0  0  0  0  0  0  0  0  0  0  0  0
    4.1600   -1.9730    0.4150 C   0  0  0  0  0  0  0  0  0  0  0  0
    4.5220   -2.4660   -0.8360 O   0  0  0  0  0  0  0  0  0  0  0  0
    4.1050   -1.9780   -2.0470 C   0  0  0  0  0  0  0  0  0  0  0  0
    3.2920   -0.9590   -2.1060 C   0  0  0  0  0  0  0  0  0  0  0  0
    2.8730   -0.4700   -3.3520 O   0  0  0  0  0  0  0  0  0  0  0  0
  1  2  1  0
  2  3  2  3
  3  4  1  0
  3  7  1  0
  4  5  2  0
  4  6  1  0
  7  8  2  0
  7  9  1  0
 10  9  1  1
 10 11  1  0
 10 15  1  0
 11 12  1  0
 12 13  1  0
 13 14  2  0
 13 15  1  0
 15 16  1  1
 16 17  1  0
 17 18  2  0
 17 19  1  0
 19 20  2  0
 19 24  1  0
 20 21  1  0
 21 22  1  0
 22 23  1  0
 23 24  2  0
 24 25  1  0
M  END
