
     RDKit          3D

 25 26  0  0  0  0  0  0  0  0999 V2000
    6.4350    0.2870    0.3320 C   0  0  0  0  0  0  0  0  0  0  0  0
    5.3000    1.1560   -0.1470 C   0  0  1  0  0  0  0  0  0  0  0  0
    5.7870    2.3610   -0.6260 O   0  0  0  0  0  0  0  0  0  0  0  0
    4.4860    0.5300   -1.2440 C   0  0  0  0  0  0  0  0  0  0  0  0
    3.8170   -0.7570   -0.8360 C   0  0  0  0  0  0  0  0  0  0  0  0
    3.4090   -0.8630    0.5420 C   0  0  2  0  0  0  0  0  0  0  0  0
    2.0250   -1.2790    0.8160 C   0  0  0  0  0  0  0  0  0  0  0  0
    1.5660   -1.8330    1.7510 O   0  0  0  0  0  0  0  0  0  0  0  0
    1.0950   -0.7760   -0.2580 O   0  0  0  0  0  0  0  0  0  0  0  0
   -0.2350   -0.9760    0.1500 C   0  0  0  0  0  0  0  0  0  0  0  0
   -1.3350   -1.3110   -0.4250 C   0  0  0  0  0  0  0  0  0  0  0  0
   -1.9350   -1.4180   -1.4740 O   0  0  0  0  0  0  0  0  0  0  0  0
   -2.6220   -1.6890    0.7310 N   0  0  0  0  0  0  0  0  0  0  0  0
   -3.6070   -1.6080   -0.0750 C   0  0  0  0  0  0  0  0  0  0  0  0
   -4.2530   -1.5730   -1.0230 O   0  0  0  0  0  0  0  0  0  0  0  0
   -4.9570   -1.4410    1.0300 N   0  0  0  0  0  0  0  0  0  0  0  0
   -5.7200   -0.4450    0.2240 C   0  0  0  0  0  0  0  0  0  0  0  0
   -5.6990    0.6410    1.1360 C   0  0  0  0  0  0  0  0  0  0  0  0
   -6.4010    1.8890    0.5160 C   0  0  0  0  0  0  0  0  0  0  0  0
   -6.6260    1.8460   -0.8170 O   0  0  0  0  0  0  0  0  0  0  0  0
   -6.7780    0.6770   -1.5330 C   0  0  0  0  0  0  0  0  0  0  0  0
   -6.2730   -0.4450   -0.9430 C   0  0  0  0  0  0  0  0  0  0  0  0
    3.5220    0.3520    1.3870 N   0  0  0  0  0  0  0  0  0  0  0  0
    4.3610    1.3760    0.9990 C   0  0  0  0  0  0  0  0  0  0  0  0
    4.4090    2.5310    1.5460 O   0  0  0  0  0  0  0  0  0  0  0  0
  2  1  1  1
  2  3  1  0
  2  4  1  0
  2 24  1  0
  4  5  1  0
  5  6  1  0
  6  7  1  6
  6 23  1  0
  7  8  2  0
  7  9  1  0
  9 10  1  0
 10 11  1  0
 11 12  2  0
 11 13  1  0
 13 14  1  0
 14 15  2  0
 14 16  1  0
 16 17  1  0
 17 18  2  0
 17 22  1  0
 18 19  1  0
 19 20  1  0
 20 21  1  0
 21 22  2  0
 23 24  1  0
 24 25  2  0
M  END
