
     RDKit          3D

 25 26  0  0  0  0  0  0  0  0999 V2000
   -2.7560    2.4370    0.8350 C   0  0  0  0  0  0  0  0  0  0  0  0
   -3.1870    1.2450    1.5540 C   0  0  0  0  0  0  0  0  0  0  0  0
   -2.9950    0.0260    1.2100 C   0  0  0  0  0  0  0  0  0  0  0  0
   -3.5610   -0.9890    2.1620 C   0  0  0  0  0  0  0  0  0  0  0  0
   -4.1770   -0.6140    3.2180 N   0  0  0  0  0  0  0  0  0  0  0  0
   -3.4270   -2.3400    1.9150 O   0  0  0  0  0  0  0  0  0  0  0  0
   -2.3260   -0.5250    0.0610 C   0  0  0  0  0  0  0  0  0  0  0  0
   -2.2640   -1.8230   -0.0620 O   0  0  0  0  0  0  0  0  0  0  0  0
   -1.6990    0.1440   -1.0010 N   0  0  0  0  0  0  0  0  0  0  0  0
   -1.0540   -0.5750   -2.1110 C   0  0  1  0  0  0  0  0  0  0  0  0
   -1.7540   -0.0590   -3.3730 C   0  0  0  0  0  0  0  0  0  0  0  0
   -1.2190    1.2540   -3.4660 O   0  0  0  0  0  0  0  0  0  0  0  0
    0.0170    1.3230   -2.8560 C   0  0  0  0  0  0  0  0  0  0  0  0
    0.7310    2.3510   -2.7820 O   0  0  0  0  0  0  0  0  0  0  0  0
    0.3140   -0.0280   -2.3250 C   0  0  1  0  0  0  0  0  0  0  0  0
    1.1140    0.0460   -1.1250 N   0  0  0  0  0  0  0  0  0  0  0  0
    2.3920   -0.5270   -0.9940 C   0  0  0  0  0  0  0  0  0  0  0  0
    2.7900   -1.1310   -2.0550 O   0  0  0  0  0  0  0  0  0  0  0  0
    3.2580   -0.5040    0.1580 C   0  0  0  0  0  0  0  0  0  0  0  0
    4.4400   -1.1150    0.0670 C   0  0  0  0  0  0  0  0  0  0  0  0
    5.4300   -1.1810    1.1460 C   0  0  0  0  0  0  0  0  0  0  0  0
    5.0450   -0.5390    2.3210 O   0  0  0  0  0  0  0  0  0  0  0  0
    3.8320    0.1030    2.4520 C   0  0  0  0  0  0  0  0  0  0  0  0
    2.9680    0.1240    1.4160 C   0  0  0  0  0  0  0  0  0  0  0  0
    1.7820    0.7760    1.6070 O   0  0  0  0  0  0  0  0  0  0  0  0
  1  2  1  0
  2  3  2  3
  3  4  1  0
  3  7  1  0
  4  5  2  0
  4  6  1  0
  7  8  2  0
  7  9  1  0
 10  9  1  1
 10 11  1  0
 10 15  1  0
 11 12  1  0
 12 13  1  0
 13 14  2  0
 13 15  1  0
 15 16  1  1
 16 17  1  0
 17 18  2  0
 17 19  1  0
 19 20  2  0
 19 24  1  0
 20 21  1  0
 21 22  1  0
 22 23  1  0
 23 24  2  0
 24 25  1  0
M  END
