
     RDKit          3D

 25 26  0  0  0  0  0  0  0  0999 V2000
    8.1800   -0.2320    3.3570 C   0  0  0  0  0  0  0  0  0  0  0  0
    7.0620   -1.0960    3.4140 O   0  0  0  0  0  0  0  0  0  0  0  0
    5.9190   -0.8450    2.5960 C   0  0  0  0  0  0  0  0  0  0  0  0
    6.0430    0.1620    1.8860 O   0  0  0  0  0  0  0  0  0  0  0  0
    4.7970   -1.7460    2.6790 C   0  0  0  0  0  0  0  0  0  0  0  0
    3.6640   -1.7570    2.0680 C   0  0  0  0  0  0  0  0  0  0  0  0
    2.7810   -2.8180    2.4060 O   0  0  0  0  0  0  0  0  0  0  0  0
    3.1920   -0.8030    1.0740 C   0  0  0  0  0  0  0  0  0  0  0  0
    1.9820   -0.9680    0.5400 C   0  0  0  0  0  0  0  0  0  0  0  0
    1.3870   -0.0920   -0.4610 C   0  0  1  0  0  0  0  0  0  0  0  0
    0.0760    0.4240   -0.0340 N   0  0  0  0  0  0  0  0  0  0  0  0
   -1.1070    0.1430   -0.7310 C   0  0  0  0  0  0  0  0  0  0  0  0
   -1.0320   -0.5780   -1.7580 O   0  0  0  0  0  0  0  0  0  0  0  0
   -2.3960    0.6100   -0.3690 N   0  0  0  0  0  0  0  0  0  0  0  0
   -3.6110    0.3150   -1.0950 C   0  0  1  0  0  0  0  0  0  0  0  0
   -4.5480   -0.4970   -0.2250 C   0  0  0  0  0  0  0  0  0  0  0  0
   -5.8330   -0.6700   -0.9920 C   0  0  0  0  0  0  0  0  0  0  0  0
   -5.7100   -0.2960   -2.3160 O   0  0  0  0  0  0  0  0  0  0  0  0
   -5.4580    1.0500   -2.4940 C   0  0  2  0  0  0  0  0  0  0  0  0
   -5.1260    1.2570   -3.9680 C   0  0  0  0  0  0  0  0  0  0  0  0
   -4.3040    1.5320   -1.6220 C   0  0  0  0  0  0  0  0  0  0  0  0
    2.2480    0.9980   -0.8320 N   0  0  0  0  0  0  0  0  0  0  0  0
    3.5340    1.1640   -0.2570 C   0  0  0  0  0  0  0  0  0  0  0  0
    4.2840    2.1430   -0.6040 O   0  0  0  0  0  0  0  0  0  0  0  0
    3.9540    0.2670    0.6640 O   0  0  0  0  0  0  0  0  0  0  0  0
  1  2  1  0
  2  3  1  0
  3  4  2  0
  3  5  1  0
  5  6  2  3
  6  7  1  0
  6  8  1  0
  8  9  2  0
  8 25  1  0
  9 10  1  0
 10 11  1  1
 10 22  1  0
 11 12  1  0
 12 13  2  0
 12 14  1  0
 15 14  1  1
 15 16  1  0
 15 21  1  0
 16 17  1  0
 17 18  1  0
 18 19  1  0
 19 20  1  6
 19 21  1  0
 22 23  1  0
 23 24  2  0
 23 25  1  0
M  END
