
     RDKit          3D

 14 15  0  0  0  0  0  0  0  0999 V2000
   -2.0190   -2.5460   -0.1980 C   0  0  0  0  0  0  0  0  0  0  0  0
   -0.9120   -2.0630    0.2560 C   0  0  0  0  0  0  0  0  0  0  0  0
   -0.3900   -0.7150    0.1170 C   0  0  0  0  0  0  0  0  0  0  0  0
    0.9880   -0.5000    0.0200 C   0  0  0  0  0  0  0  0  0  0  0  0
    1.8610   -1.7010    0.0470 C   0  0  0  0  0  0  0  0  0  0  0  0
    1.5840    0.7210   -0.0960 C   0  0  0  0  0  0  0  0  0  0  0  0
    3.0840    0.8560   -0.1950 C   0  0  0  0  0  0  0  0  0  0  0  0
    0.7720    1.8310   -0.1200 C   0  0  0  0  0  0  0  0  0  0  0  0
   -0.6030    1.6750   -0.0260 C   0  0  0  0  0  0  0  0  0  0  0  0
   -1.6260    2.5460   -0.0070 N   0  0  0  0  0  0  0  0  0  0  0  0
   -2.7930    1.9050    0.1160 C   0  0  0  0  0  0  0  0  0  0  0  0
   -3.9600    2.4300    0.1670 O   0  0  0  0  0  0  0  0  0  0  0  0
   -2.5130    0.5920    0.1770 N   0  0  0  0  0  0  0  0  0  0  0  0
   -1.1880    0.4100    0.0930 C   0  0  0  0  0  0  0  0  0  0  0  0
  1  2  2  0
  2  3  1  0
  3  4  2  0
  3 14  1  0
  4  5  1  0
  4  6  1  0
  6  7  1  0
  6  8  2  0
  8  9  1  0
  9 10  1  0
  9 14  2  0
 10 11  1  0
 11 12  2  0
 11 13  1  0
 13 14  1  0
M  END
