
     RDKit          3D

 14 15  0  0  0  0  0  0  0  0999 V2000
    3.2320   -1.5240    1.5670 O   0  0  0  0  0  0  0  0  0  0  0  0
    2.8870   -0.6040    0.7540 C   0  0  0  0  0  0  0  0  0  0  0  0
    1.5330   -0.2640    0.6430 C   0  0  0  0  0  0  0  0  0  0  0  0
    1.1710    0.7240   -0.2330 C   0  0  0  0  0  0  0  0  0  0  0  0
   -0.1670    1.0880   -0.4040 N   0  0  0  0  0  0  0  0  0  0  0  0
   -1.3170    0.2920   -0.1670 C   0  0  0  0  0  0  0  0  0  0  0  0
   -1.3180   -1.0810   -0.1820 C   0  0  0  0  0  0  0  0  0  0  0  0
   -2.4780   -1.8240    0.0850 C   0  0  0  0  0  0  0  0  0  0  0  0
   -3.6700   -1.2010    0.3730 C   0  0  0  0  0  0  0  0  0  0  0  0
   -3.6900    0.1770    0.3910 C   0  0  0  0  0  0  0  0  0  0  0  0
   -2.5480    0.9000    0.1290 C   0  0  0  0  0  0  0  0  0  0  0  0
    2.1720    1.3410   -0.9690 C   0  0  0  0  0  0  0  0  0  0  0  0
    3.4960    0.9890   -0.8420 C   0  0  0  0  0  0  0  0  0  0  0  0
    3.8080    0.0160    0.0260 N   0  0  0  0  0  0  0  0  0  0  0  0
  1  2  2  0
  2  3  1  0
  2 14  1  0
  3  4  2  0
  4  5  1  0
  4 12  1  0
  5  6  1  0
  6  7  2  0
  6 11  1  0
  7  8  1  0
  8  9  2  0
  9 10  1  0
 10 11  2  0
 12 13  2  0
 13 14  1  0
M  END
