
     RDKit          3D

 14 15  0  0  0  0  0  0  0  0999 V2000
    3.5960   -1.7390    0.6850 C   0  0  0  0  0  0  0  0  0  0  0  0
    3.2420   -0.3770    0.1940 C   0  0  0  0  0  0  0  0  0  0  0  0
    4.1300    0.5920    0.0790 C   0  0  0  0  0  0  0  0  0  0  0  0
    3.4840    1.8110   -0.4290 C   0  0  0  0  0  0  0  0  0  0  0  0
    2.0590    1.3720   -0.5870 C   0  0  0  0  0  0  0  0  0  0  0  0
    1.9130    0.1100   -0.2290 C   0  0  0  0  0  0  0  0  0  0  0  0
    0.7380   -0.7020   -0.2210 N   0  0  0  0  0  0  0  0  0  0  0  0
   -0.5290   -0.2270   -0.6280 C   0  0  0  0  0  0  0  0  0  0  0  0
   -0.6860    0.9540   -1.0230 O   0  0  0  0  0  0  0  0  0  0  0  0
   -1.6580   -1.0960   -0.5930 N   0  0  0  0  0  0  0  0  0  0  0  0
   -2.9670   -0.6080   -1.0120 C   0  0  0  0  0  0  0  0  0  0  0  0
   -3.3490    0.5480   -0.1290 C   0  0  2  0  0  0  0  0  0  0  0  0
   -3.4400    0.2090    1.3420 C   0  0  0  0  0  0  0  0  0  0  0  0
   -4.6450    0.5890    0.5710 C   0  0  0  0  0  0  0  0  0  0  0  0
  1  2  1  0
  2  3  2  0
  2  6  1  0
  3  4  1  0
  4  5  1  0
  5  6  2  0
  6  7  1  0
  7  8  1  0
  8  9  2  0
  8 10  1  0
 10 11  1  0
 12 11  1  6
 12 13  1  0
 12 14  1  0
 13 14  1  0
M  END
