
     RDKit          3D

 14 15  0  0  0  0  0  0  0  0999 V2000
   -4.4300    0.8680    0.9070 N   0  0  0  0  0  0  0  0  0  0  0  0
   -3.1790    0.3250    0.5100 C   0  0  0  0  0  0  0  0  0  0  0  0
   -3.0980   -0.6950   -0.4140 C   0  0  0  0  0  0  0  0  0  0  0  0
   -1.8830   -1.2240   -0.8010 C   0  0  0  0  0  0  0  0  0  0  0  0
   -0.7100   -0.7120   -0.2420 C   0  0  0  0  0  0  0  0  0  0  0  0
   -0.7590    0.3070    0.6850 C   0  0  0  0  0  0  0  0  0  0  0  0
    0.3680    0.8250    1.2470 O   0  0  0  0  0  0  0  0  0  0  0  0
    1.6610    0.3920    0.9490 C   0  0  0  0  0  0  0  0  0  0  0  0
    2.3500    0.8930   -0.1460 C   0  0  0  0  0  0  0  0  0  0  0  0
    3.6240    0.5010   -0.4850 C   0  0  0  0  0  0  0  0  0  0  0  0
    4.2590   -0.4380    0.2960 C   0  0  0  0  0  0  0  0  0  0  0  0
    3.5650   -0.9300    1.3820 C   0  0  0  0  0  0  0  0  0  0  0  0
    2.3170   -0.5240    1.6860 N   0  0  0  0  0  0  0  0  0  0  0  0
   -1.9960    0.7980    1.0350 C   0  0  0  0  0  0  0  0  0  0  0  0
  1  2  1  0
  2  3  2  0
  2 14  1  0
  3  4  1  0
  4  5  2  0
  5  6  1  0
  6  7  1  0
  6 14  2  0
  7  8  1  0
  8  9  2  0
  8 13  1  0
  9 10  1  0
 10 11  2  0
 11 12  1  0
 12 13  2  0
M  END
