
     RDKit          3D

 43 45  0  0  0  0  0  0  0  0999 V2000
   -3.5250   -3.2790   -4.2440 C   0  0  0  0  0  0  0  0  0  0  0  0
   -3.2870   -2.5450   -2.9320 C   0  0  0  0  0  0  0  0  0  0  0  0
   -2.1190   -3.1500   -2.3190 N   0  0  0  0  0  0  0  0  0  0  0  0
   -2.2170   -4.5110   -1.8330 C   0  0  0  0  0  0  0  0  0  0  0  0
   -0.9110   -2.3960   -2.2100 C   0  0  0  0  0  0  0  0  0  0  0  0
   -0.7050   -1.5510   -1.1790 C   0  0  0  0  0  0  0  0  0  0  0  0
    0.5460   -0.8290   -1.1500 C   0  0  0  0  0  0  0  0  0  0  0  0
    0.9610    0.0040   -0.2310 C   0  0  0  0  0  0  0  0  0  0  0  0
    2.6220    0.7880   -0.4780 P   0  0  0  0  0  0  0  0  0  0  0  0
    3.9680    0.1580    0.2450 C   0  0  0  0  0  0  0  0  0  0  0  0
    4.0070   -1.3150    1.3280 P   0  0  0  0  0  0  0  0  0  0  0  0
    5.5280   -1.6910    1.8980 C   0  0  0  0  0  0  0  0  0  0  0  0
    5.7740   -2.8520    2.7930 C   0  0  0  0  0  0  0  0  0  0  0  0
    6.5690   -0.7900    1.4420 C   0  0  0  0  0  0  0  0  0  0  0  0
    6.4620    0.2420    0.6670 C   0  0  0  0  0  0  0  0  0  0  0  0
    5.2770    0.7950    0.0340 C   0  0  0  0  0  0  0  0  0  0  0  0
    5.3370    1.8790   -0.7470 C   0  0  0  0  0  0  0  0  0  0  0  0
    6.5280    2.6230   -1.0600 C   0  0  0  0  0  0  0  0  0  0  0  0
    6.4530    3.6930   -1.8570 C   0  0  0  0  0  0  0  0  0  0  0  0
    7.6110    4.4420   -2.1790 N   0  0  0  0  0  0  0  0  0  0  0  0
    7.9100    5.6850   -1.5110 C   0  0  0  0  0  0  0  0  0  0  0  0
    0.0630    0.4030    1.2970 P   0  0  0  0  0  0  0  0  0  0  0  0
    0.3430    2.1890    1.7780 C   0  0  0  0  0  0  0  0  0  0  0  0
    0.4160   -0.6360    2.6100 O   0  0  0  0  0  0  0  0  0  0  0  0
    0.7010   -1.8590    2.2900 O   0  0  0  0  0  0  0  0  0  0  0  0
   -1.7460   -1.4580   -0.2180 N   0  0  0  0  0  0  0  0  0  0  0  0
   -2.6020   -0.3050   -0.1110 C   0  0  0  0  0  0  0  0  0  0  0  0
   -2.3880    0.6020   -0.9280 O   0  0  0  0  0  0  0  0  0  0  0  0
   -3.6210   -0.3040    0.9190 C   0  0  0  0  0  0  0  0  0  0  0  0
   -3.5900   -1.1280    2.0150 N   0  0  0  0  0  0  0  0  0  0  0  0
   -4.6110   -0.8970    2.8260 C   0  0  0  0  0  0  0  0  0  0  0  0
   -4.8790   -1.6090    4.1030 C   0  0  0  0  0  0  0  0  0  0  0  0
   -4.2130   -0.9030    5.1260 O   0  0  0  0  0  0  0  0  0  0  0  0
   -5.3330    0.1120    2.2380 C   0  0  0  0  0  0  0  0  0  0  0  0
   -4.7160    0.4980    1.0190 C   0  0  0  0  0  0  0  0  0  0  0  0
   -5.3330    1.4640    0.1200 C   0  0  0  0  0  0  0  0  0  0  0  0
   -5.2390    1.4550   -1.2290 C   0  0  0  0  0  0  0  0  0  0  0  0
   -5.9600    2.4230   -1.9500 C   0  0  0  0  0  0  0  0  0  0  0  0
   -5.8500    2.3900   -3.2170 O   0  0  0  0  0  0  0  0  0  0  0  0
   -6.7030    3.3090   -1.3480 O   0  0  0  0  0  0  0  0  0  0  0  0
   -6.8080    3.3330   -0.0430 C   0  0  0  0  0  0  0  0  0  0  0  0
   -7.5490    4.2200    0.5040 O   0  0  0  0  0  0  0  0  0  0  0  0
   -6.1410    2.4360    0.6530 N   0  0  0  0  0  0  0  0  0  0  0  0
  1  2  1  0
  2  3  1  0
  3  4  1  0
  3  5  1  0
  5  6  2  3
  6  7  1  0
  6 26  1  0
  7  8  2  3
  8  9  1  0
  8 22  1  0
  9 10  2  3
 10 11  1  0
 10 16  1  0
 11 12  2  0
 12 13  1  0
 12 14  1  0
 14 15  2  0
 15 16  1  0
 16 17  2  3
 17 18  1  0
 18 19  2  3
 19 20  1  0
 20 21  1  0
 22 23  1  0
 22 24  1  0
 24 25  1  0
 26 27  1  0
 27 28  2  0
 27 29  1  0
 29 30  1  0
 29 35  2  0
 30 31  1  0
 31 32  1  0
 31 34  2  0
 32 33  1  0
 34 35  1  0
 35 36  1  0
 36 37  2  0
 36 43  1  0
 37 38  1  0
 38 39  2  0
 38 40  1  0
 40 41  1  0
 41 42  2  0
 41 43  1  0
M  END
