
     RDKit          3D

 35 38  0  0  0  0  0  0  0  0999 V2000
    8.7800    2.8350    1.9790 N   0  0  0  0  0  0  0  0  0  0  0  0
    8.1580    1.9520    1.0720 C   0  0  0  0  0  0  0  0  0  0  0  0
    8.9890    1.2320    0.2640 N   0  0  0  0  0  0  0  0  0  0  0  0
    8.4580    0.3400   -0.6170 C   0  0  0  0  0  0  0  0  0  0  0  0
    7.1550    0.1570   -0.6910 N   0  0  0  0  0  0  0  0  0  0  0  0
    6.2630    0.8380    0.0920 C   0  0  0  0  0  0  0  0  0  0  0  0
    6.8100    1.7610    0.9910 C   0  0  0  0  0  0  0  0  0  0  0  0
    5.7410    2.3010    1.6340 N   0  0  0  0  0  0  0  0  0  0  0  0
    4.6050    1.7350    1.1680 C   0  0  0  0  0  0  0  0  0  0  0  0
    4.9320    0.8340    0.2180 N   0  0  0  0  0  0  0  0  0  0  0  0
    4.0690    0.0260   -0.5480 C   0  0  2  0  0  0  0  0  0  0  0  0
    2.7200    0.3770   -0.4230 O   0  0  0  0  0  0  0  0  0  0  0  0
    2.1550   -0.5160   -1.3120 C   0  0  2  0  0  0  0  0  0  0  0  0
    0.6790   -0.8520   -0.9020 C   0  0  0  0  0  0  0  0  0  0  0  0
    0.5780   -1.3930    0.2490 O   0  0  0  0  0  0  0  0  0  0  0  0
   -0.4470   -2.0930    1.1880 P   0  0  0  0  0  0  0  0  0  0  0  0
   -0.4390   -1.8490    2.8590 O   0  0  0  0  0  0  0  0  0  0  0  0
   -1.3160   -3.4620    0.6920 O   0  0  0  0  0  0  0  0  0  0  0  0
   -1.6540   -1.2500    1.0470 O   0  0  0  0  0  0  0  0  0  0  0  0
   -2.4370   -0.6460   -0.1000 P   0  0  0  0  0  0  0  0  0  0  0  0
   -2.7210    1.0170   -0.2590 O   0  0  0  0  0  0  0  0  0  0  0  0
   -2.8070   -1.5510   -1.5310 O   0  0  0  0  0  0  0  0  0  0  0  0
   -3.9030   -0.8650    0.2190 O   0  0  0  0  0  0  0  0  0  0  0  0
   -4.6610    0.2050    0.7680 C   0  0  0  0  0  0  0  0  0  0  0  0
   -5.6850    0.5650   -0.2650 C   0  0  1  0  0  0  0  0  0  0  0  0
   -6.6370   -0.4040   -0.6350 N   0  0  0  0  0  0  0  0  0  0  0  0
   -7.9450    0.0660   -0.2270 C   0  0  0  0  0  0  0  0  0  0  0  0
   -7.8260    1.4450    0.3040 C   0  0  2  0  0  0  0  0  0  0  0  0
   -8.6770    2.3810   -0.3010 O   0  0  0  0  0  0  0  0  0  0  0  0
   -6.3960    1.8380   -0.0490 C   0  0  2  0  0  0  0  0  0  0  0  0
   -6.4040    2.6390   -1.2120 O   0  0  0  0  0  0  0  0  0  0  0  0
    2.9360   -1.8020   -1.3300 C   0  0  1  0  0  0  0  0  0  0  0  0
    3.6420   -2.0220   -2.5060 O   0  0  0  0  0  0  0  0  0  0  0  0
    3.9970   -1.4500   -0.2510 C   0  0  1  0  0  0  0  0  0  0  0  0
    5.1440   -2.1540   -0.4510 O   0  0  0  0  0  0  0  0  0  0  0  0
  1  2  1  0
  2  3  2  0
  2  7  1  0
  3  4  1  0
  4  5  2  0
  5  6  1  0
  6  7  2  0
  6 10  1  0
  7  8  1  0
  8  9  2  0
  9 10  1  0
 11 10  1  1
 11 12  1  0
 11 34  1  0
 12 13  1  0
 13 14  1  1
 13 32  1  0
 14 15  1  0
 15 16  1  0
 16 17  1  0
 16 18  1  0
 16 19  1  0
 19 20  1  0
 20 21  1  0
 20 22  1  0
 20 23  1  0
 23 24  1  0
 25 24  1  1
 25 26  1  0
 25 30  1  0
 26 27  1  0
 27 28  1  0
 28 29  1  6
 28 30  1  0
 30 31  1  6
 32 33  1  6
 32 34  1  0
 34 35  1  6
M  CHG  1  26   1
M  END
