
     RDKit          3D

 43 45  0  0  0  0  0  0  0  0999 V2000
    3.8570    2.2090   -4.7030 C   0  0  0  0  0  0  0  0  0  0  0  0
    3.6000    1.7410   -3.3400 C   0  0  0  0  0  0  0  0  0  0  0  0
    4.3540    1.7860   -2.2720 C   0  0  0  0  0  0  0  0  0  0  0  0
    5.6770    2.3090   -2.0930 C   0  0  0  0  0  0  0  0  0  0  0  0
    6.3590    2.9810   -3.2620 C   0  0  0  0  0  0  0  0  0  0  0  0
    6.3490    2.2560   -0.9510 C   0  0  0  0  0  0  0  0  0  0  0  0
    5.8750    1.6980    0.1990 O   0  0  0  0  0  0  0  0  0  0  0  0
    3.6710    1.2080   -1.0810 N   0  0  0  0  0  0  0  0  0  0  0  0
    3.4210    2.1600   -0.1600 O   0  0  0  0  0  0  0  0  0  0  0  0
    3.4290   -0.1580   -1.0510 C   0  0  0  0  0  0  0  0  0  0  0  0
    3.9270   -0.8270   -2.0450 O   0  0  0  0  0  0  0  0  0  0  0  0
    2.7310   -0.9370   -0.0910 C   0  0  0  0  0  0  0  0  0  0  0  0
    3.2890   -2.1960    0.2370 C   0  0  0  0  0  0  0  0  0  0  0  0
    4.4790   -2.5520   -0.3540 O   0  0  0  0  0  0  0  0  0  0  0  0
    2.7010   -3.0700    1.1070 C   0  0  0  0  0  0  0  0  0  0  0  0
    1.5230   -2.7400    1.6980 C   0  0  0  0  0  0  0  0  0  0  0  0
    0.8820   -3.6600    2.6120 C   0  0  0  0  0  0  0  0  0  0  0  0
    1.0720   -3.6800    3.8410 O   0  0  0  0  0  0  0  0  0  0  0  0
   -0.0290   -4.6050    2.0460 N   0  0  0  0  0  0  0  0  0  0  0  0
   -0.3110   -4.6370    0.6040 C   0  0  0  0  0  0  0  0  0  0  0  0
   -0.7430   -5.5980    2.8240 C   0  0  0  0  0  0  0  0  0  0  0  0
    0.9260   -1.5410    1.4230 C   0  0  0  0  0  0  0  0  0  0  0  0
   -0.3060   -1.2490    1.9880 C   0  0  0  0  0  0  0  0  0  0  0  0
   -0.9840   -0.0870    1.6960 C   0  0  0  0  0  0  0  0  0  0  0  0
   -2.2920    0.1630    2.2950 C   0  0  0  0  0  0  0  0  0  0  0  0
   -3.3530    0.4610    1.3660 N   0  0  0  0  0  0  0  0  0  0  0  0
   -3.6340   -0.4350    0.2670 C   0  0  0  0  0  0  0  0  0  0  0  0
   -2.3940   -1.3920   -0.2460 P   0  0  0  0  0  0  0  0  0  0  0  0
   -2.6350   -2.5630   -1.6310 C   0  0  0  0  0  0  0  0  0  0  0  0
   -3.5030   -3.4560   -1.5890 O   0  0  0  0  0  0  0  0  0  0  0  0
   -4.9530   -0.4860   -0.3380 C   0  0  0  0  0  0  0  0  0  0  0  0
   -5.2500   -1.3390   -1.4280 N   0  0  0  0  0  0  0  0  0  0  0  0
   -5.8620    0.2870    0.1340 N   0  0  0  0  0  0  0  0  0  0  0  0
   -5.6020    1.1800    1.2290 C   0  0  0  0  0  0  0  0  0  0  0  0
   -6.4870    1.5930    2.0160 O   0  0  0  0  0  0  0  0  0  0  0  0
   -4.2130    1.6250    1.4220 C   0  0  1  0  0  0  0  0  0  0  0  0
   -4.0360    2.4570    2.6620 C   0  0  0  0  0  0  0  0  0  0  0  0
   -5.2230    3.8800    2.5750 P   0  0  0  0  0  0  0  0  0  0  0  0
   -5.7740    4.2750    0.8660 C   0  0  0  0  0  0  0  0  0  0  0  0
   -5.8080    5.6690    0.7130 O   0  0  0  0  0  0  0  0  0  0  0  0
   -0.3780    0.7680    0.8200 C   0  0  0  0  0  0  0  0  0  0  0  0
    0.8650    0.4910    0.2410 C   0  0  0  0  0  0  0  0  0  0  0  0
    1.5390   -0.6500    0.5270 C   0  0  0  0  0  0  0  0  0  0  0  0
  1  2  1  0
  2  3  2  3
  3  4  1  0
  3  8  1  0
  4  5  1  0
  4  6  2  3
  6  7  1  0
  8  9  1  0
  8 10  1  0
 10 11  2  0
 10 12  1  0
 12 13  2  0
 12 43  1  0
 13 14  1  0
 13 15  1  0
 15 16  2  0
 16 17  1  0
 16 22  1  0
 17 18  2  0
 17 19  1  0
 19 20  1  0
 19 21  1  0
 22 23  2  0
 22 43  1  0
 23 24  1  0
 24 25  1  0
 24 41  2  0
 25 26  1  0
 26 27  1  0
 26 36  1  0
 27 28  2  3
 27 31  1  0
 28 29  1  0
 29 30  2  0
 31 32  1  0
 31 33  2  0
 33 34  1  0
 34 35  2  0
 34 36  1  0
 36 37  1  1
 37 38  1  0
 38 39  1  0
 39 40  1  0
 41 42  1  0
 42 43  2  0
M  END
