
     RDKit          3D

 43 45  0  0  0  0  0  0  0  0999 V2000
   -7.3990    4.0860   -0.2210 C   0  0  0  0  0  0  0  0  0  0  0  0
   -7.2150    4.1670    1.0740 C   0  0  0  0  0  0  0  0  0  0  0  0
   -5.6970    4.9010    1.7860 P   0  0  0  0  0  0  0  0  0  0  0  0
   -4.4610    3.5220    2.0290 C   0  0  0  0  0  0  0  0  0  0  0  0
   -3.3000    3.7920    2.3450 O   0  0  0  0  0  0  0  0  0  0  0  0
   -4.8800    2.2250    1.8320 N   0  0  0  0  0  0  0  0  0  0  0  0
   -4.3130    0.9180    1.8130 C   0  0  0  0  0  0  0  0  0  0  0  0
   -3.5320    0.5990    0.5560 C   0  0  0  0  0  0  0  0  0  0  0  0
   -4.0430   -0.4870   -0.1920 C   0  0  0  0  0  0  0  0  0  0  0  0
   -5.2540   -1.1860   -0.0110 C   0  0  0  0  0  0  0  0  0  0  0  0
   -6.2590   -1.1020    0.8560 O   0  0  0  0  0  0  0  0  0  0  0  0
   -5.3210   -2.1620   -1.0330 C   0  0  0  0  0  0  0  0  0  0  0  0
   -6.3840   -3.1630   -1.2290 C   0  0  0  0  0  0  0  0  0  0  0  0
   -6.2940   -3.9570   -2.1960 O   0  0  0  0  0  0  0  0  0  0  0  0
   -7.4420   -3.2230   -0.3540 O   0  0  0  0  0  0  0  0  0  0  0  0
   -4.2000   -2.0520   -1.7990 C   0  0  0  0  0  0  0  0  0  0  0  0
   -3.9040   -2.8770   -3.0320 C   0  0  0  0  0  0  0  0  0  0  0  0
   -3.3880   -1.0440   -1.3290 C   0  0  0  0  0  0  0  0  0  0  0  0
   -2.1970   -0.6270   -1.8520 C   0  0  0  0  0  0  0  0  0  0  0  0
   -1.3570    0.7180   -1.0960 P   0  0  0  0  0  0  0  0  0  0  0  0
    0.4530    0.4910   -0.7250 N   0  0  0  0  0  0  0  0  0  0  0  0
    0.5500   -0.9070   -0.3870 C   0  0  2  0  0  0  0  0  0  0  0  0
    0.3180   -1.1220    1.0830 C   0  0  0  0  0  0  0  0  0  0  0  0
    0.1650   -2.5650    1.4640 C   0  0  1  0  0  0  0  0  0  0  0  0
    0.0140   -2.6830    2.9610 C   0  0  0  0  0  0  0  0  0  0  0  0
   -1.2990   -2.9690    0.9600 C   0  0  0  0  0  0  0  0  0  0  0  0
    1.0150   -3.4350    0.8940 O   0  0  0  0  0  0  0  0  0  0  0  0
    1.6330   -1.6490   -1.0140 C   0  0  0  0  0  0  0  0  0  0  0  0
    1.4100   -2.7090   -1.6880 O   0  0  0  0  0  0  0  0  0  0  0  0
    3.0080   -1.2050   -0.9030 C   0  0  0  0  0  0  0  0  0  0  0  0
    4.1320   -1.6840   -1.2400 N   0  0  0  0  0  0  0  0  0  0  0  0
    5.2270   -0.8500   -0.9290 C   0  0  0  0  0  0  0  0  0  0  0  0
    6.5440   -0.9970   -1.1070 C   0  0  0  0  0  0  0  0  0  0  0  0
    7.3940    0.1320   -0.6710 N   0  0  0  0  0  0  0  0  0  0  0  0
    7.3750    1.1350   -1.4790 C   0  0  0  0  0  0  0  0  0  0  0  0
    8.0960    2.3810   -1.3210 C   0  0  0  0  0  0  0  0  0  0  0  0
    9.1380    2.3740   -0.4000 N   0  0  0  0  0  0  0  0  0  0  0  0
   10.2770    1.6090   -0.7230 C   0  0  0  0  0  0  0  0  0  0  0  0
    8.8990    2.7160    0.9220 C   0  0  0  0  0  0  0  0  0  0  0  0
    4.6630    0.2960   -0.3290 O   0  0  0  0  0  0  0  0  0  0  0  0
    3.3030    0.1790   -0.3300 C   0  0  0  0  0  0  0  0  0  0  0  0
   -2.3810    1.2440    0.3030 C   0  0  0  0  0  0  0  0  0  0  0  0
   -1.8150    2.2820    0.9630 O   0  0  0  0  0  0  0  0  0  0  0  0
  1  2  2  0
  2  3  1  0
  3  4  1  0
  4  5  2  0
  4  6  1  0
  6  7  1  0
  7  8  1  0
  8  9  1  0
  8 42  2  0
  9 10  2  0
  9 18  1  0
 10 11  1  0
 10 12  1  0
 12 13  1  0
 12 16  2  0
 13 14  2  0
 13 15  1  0
 16 17  1  0
 16 18  1  0
 18 19  2  0
 19 20  1  0
 20 21  1  0
 20 42  1  0
 21 22  1  0
 22 23  1  1
 22 28  1  0
 23 24  1  0
 24 25  1  1
 24 26  1  0
 24 27  1  0
 28 29  2  0
 28 30  1  0
 30 31  2  0
 30 41  1  0
 31 32  1  0
 32 33  2  3
 32 40  1  0
 33 34  1  0
 34 35  2  3
 35 36  1  0
 36 37  1  0
 37 38  1  0
 37 39  1  0
 40 41  1  0
 42 43  1  0
M  END
