
     RDKit          3D

 43 46  0  0  0  0  0  0  0  0999 V2000
   -0.9570    0.2780    3.3610 C   0  0  0  0  0  0  0  0  0  0  0  0
   -0.9810   -0.8500    2.7600 N   0  0  0  0  0  0  0  0  0  0  0  0
   -0.9940   -0.9760    1.3370 C   0  0  1  0  0  0  0  0  0  0  0  0
   -0.5980   -2.2360    0.9130 O   0  0  0  0  0  0  0  0  0  0  0  0
   -2.2750   -0.5480    0.7380 C   0  0  0  0  0  0  0  0  0  0  0  0
   -2.2700    0.1330   -0.3370 C   0  0  0  0  0  0  0  0  0  0  0  0
   -3.3550    0.7020   -1.1750 C   0  0  1  0  0  0  0  0  0  0  0  0
   -3.1650    0.4050   -2.6320 C   0  0  0  0  0  0  0  0  0  0  0  0
   -4.7420    0.4390   -0.7590 C   0  0  0  0  0  0  0  0  0  0  0  0
   -5.2040   -0.9420   -0.6680 C   0  0  0  0  0  0  0  0  0  0  0  0
   -5.7140   -1.3560    0.4390 N   0  0  0  0  0  0  0  0  0  0  0  0
   -6.2220   -2.6420    0.7510 C   0  0  1  0  0  0  0  0  0  0  0  0
   -5.9370   -2.9970    2.1950 C   0  0  0  0  0  0  0  0  0  0  0  0
   -8.0740   -2.6160    0.4530 P   0  0  0  0  0  0  0  0  0  0  0  0
   -5.5890   -3.7340   -0.1210 C   0  0  0  0  0  0  0  0  0  0  0  0
   -5.6570   -3.2040   -1.5200 C   0  0  0  0  0  0  0  0  0  0  0  0
   -6.1290   -3.8680   -2.4760 O   0  0  0  0  0  0  0  0  0  0  0  0
   -5.1530   -1.8850   -1.7310 N   0  0  0  0  0  0  0  0  0  0  0  0
   -3.1680    2.1770   -1.0080 N   0  0  0  0  0  0  0  0  0  0  0  0
   -1.9570    2.6560   -1.1410 C   0  0  0  0  0  0  0  0  0  0  0  0
   -1.7880    4.0840   -0.9770 C   0  0  0  0  0  0  0  0  0  0  0  0
   -2.8060    4.8460   -0.7070 C   0  0  0  0  0  0  0  0  0  0  0  0
   -2.6020    6.2850   -0.5470 C   0  0  0  0  0  0  0  0  0  0  0  0
   -3.6150    7.0580   -0.2770 C   0  0  0  0  0  0  0  0  0  0  0  0
   -4.9110    6.5830   -0.1280 O   0  0  0  0  0  0  0  0  0  0  0  0
   -0.9110    1.7820   -1.4280 O   0  0  0  0  0  0  0  0  0  0  0  0
   -0.9020    0.4910   -0.8930 C   0  0  2  0  0  0  0  0  0  0  0  0
   -0.5380   -0.5190   -1.7390 O   0  0  0  0  0  0  0  0  0  0  0  0
    0.0980    0.3600    0.6600 P   0  0  0  0  0  0  0  0  0  0  0  0
    1.8000   -0.1650    0.4000 C   0  0  0  0  0  0  0  0  0  0  0  0
    2.1900   -1.4090   -0.0490 C   0  0  0  0  0  0  0  0  0  0  0  0
    3.5220   -1.7310   -0.2200 C   0  0  0  0  0  0  0  0  0  0  0  0
    4.5360   -0.8320    0.0460 C   0  0  0  0  0  0  0  0  0  0  0  0
    5.9030   -1.1980   -0.1370 N   0  0  0  0  0  0  0  0  0  0  0  0
    6.9560   -0.2410    0.0860 C   0  0  2  0  0  0  0  0  0  0  0  0
    6.7920    0.9090   -0.8830 C   0  0  0  0  0  0  0  0  0  0  0  0
    8.2590   -0.9100   -0.0990 C   0  0  0  0  0  0  0  0  0  0  0  0
    8.3750   -2.1300   -0.4020 O   0  0  0  0  0  0  0  0  0  0  0  0
    9.4130   -0.1630    0.0690 O   0  0  0  0  0  0  0  0  0  0  0  0
   10.6840   -0.7470   -0.0950 C   0  0  0  0  0  0  0  0  0  0  0  0
   10.8640   -1.8690    0.8800 C   0  0  0  0  0  0  0  0  0  0  0  0
    4.1550    0.4130    0.4940 C   0  0  0  0  0  0  0  0  0  0  0  0
    2.8120    0.7370    0.6670 C   0  0  0  0  0  0  0  0  0  0  0  0
  1  2  2  0
  2  3  1  0
  3  4  1  1
  3  5  1  0
  3 29  1  0
  5  6  2  0
  6  7  1  0
  6 27  1  0
  7  8  1  6
  7  9  1  0
  7 19  1  0
  9 10  1  0
 10 11  2  0
 10 18  1  0
 11 12  1  0
 12 13  1  1
 12 14  1  0
 12 15  1  0
 15 16  1  0
 16 17  2  0
 16 18  1  0
 19 20  2  0
 20 21  1  0
 20 26  1  0
 21 22  2  3
 22 23  1  0
 23 24  2  3
 24 25  1  0
 26 27  1  0
 27 28  1  6
 27 29  1  0
 29 30  1  0
 30 31  2  0
 30 43  1  0
 31 32  1  0
 32 33  2  0
 33 34  1  0
 33 42  1  0
 34 35  1  0
 35 36  1  6
 35 37  1  0
 37 38  2  0
 37 39  1  0
 39 40  1  0
 40 41  1  0
 42 43  2  0
M  END
