
     RDKit          3D

 43 45  0  0  0  0  0  0  0  0999 V2000
    5.1710   -0.5540    4.9490 C   0  0  0  0  0  0  0  0  0  0  0  0
    4.5210   -0.3570    3.6380 C   0  0  0  0  0  0  0  0  0  0  0  0
    3.2120   -0.2360    3.5120 C   0  0  0  0  0  0  0  0  0  0  0  0
    2.5830   -0.0410    2.2100 C   0  0  0  0  0  0  0  0  0  0  0  0
    1.2320    0.0730    2.1800 C   0  0  0  0  0  0  0  0  0  0  0  0
    0.4920    0.0080    3.3150 O   0  0  0  0  0  0  0  0  0  0  0  0
   -0.8700   -0.0230    3.2800 C   0  0  0  0  0  0  0  0  0  0  0  0
   -1.5030   -0.0720    4.3640 O   0  0  0  0  0  0  0  0  0  0  0  0
   -1.5640    0.0020    2.0130 N   0  0  0  0  0  0  0  0  0  0  0  0
   -3.0030    0.0790    2.0530 C   0  0  0  0  0  0  0  0  0  0  0  0
   -3.3950    1.6090    2.1420 C   0  0  0  0  0  0  0  0  0  0  0  0
   -4.8630    1.6020    2.1940 C   0  0  0  0  0  0  0  0  0  0  0  0
   -5.5000    0.5310    2.1630 O   0  0  0  0  0  0  0  0  0  0  0  0
   -5.6180    2.7770    2.2790 O   0  0  0  0  0  0  0  0  0  0  0  0
   -0.8030    0.0350    0.8640 N   0  0  0  0  0  0  0  0  0  0  0  0
   -1.5070   -0.1340   -0.3780 C   0  0  0  0  0  0  0  0  0  0  0  0
   -2.4770   -1.1890   -0.5910 C   0  0  0  0  0  0  0  0  0  0  0  0
   -2.6480   -2.2730    0.3180 C   0  0  0  0  0  0  0  0  0  0  0  0
   -3.4300   -3.2230    0.2980 N   0  0  0  0  0  0  0  0  0  0  0  0
   -3.2440   -1.1450   -1.6550 C   0  0  0  0  0  0  0  0  0  0  0  0
   -4.1790   -2.1220   -1.9030 O   0  0  0  0  0  0  0  0  0  0  0  0
   -4.2320   -2.8590   -3.1130 C   0  0  0  0  0  0  0  0  0  0  0  0
   -3.1530    0.2010   -2.9040 P   0  0  0  0  0  0  0  0  0  0  0  0
   -2.3180   -0.5110   -4.4030 C   0  0  0  0  0  0  0  0  0  0  0  0
   -4.8780    0.6180   -3.3680 C   0  0  0  0  0  0  0  0  0  0  0  0
   -5.3380    0.4470   -4.4740 O   0  0  0  0  0  0  0  0  0  0  0  0
   -1.1140    1.0990   -1.4980 P   0  0  0  0  0  0  0  0  0  0  0  0
    0.1260    2.2170   -0.6480 C   0  0  0  0  0  0  0  0  0  0  0  0
    0.2800    3.4600   -1.0300 C   0  0  0  0  0  0  0  0  0  0  0  0
    1.1730    4.4520   -0.5000 C   0  0  0  0  0  0  0  0  0  0  0  0
    1.2440    5.8460   -1.0450 C   0  0  0  0  0  0  0  0  0  0  0  0
    1.9470    4.1420    0.4840 N   0  0  0  0  0  0  0  0  0  0  0  0
    0.9260    1.6770    0.4490 C   0  0  0  0  0  0  0  0  0  0  0  0
    0.6560    0.2700    0.8280 C   0  0  1  0  0  0  0  0  0  0  0  0
    1.3500   -0.7810    0.0430 C   0  0  0  0  0  0  0  0  0  0  0  0
    2.0890   -0.6290   -1.0240 C   0  0  0  0  0  0  0  0  0  0  0  0
    2.2670    0.6580   -1.5090 O   0  0  0  0  0  0  0  0  0  0  0  0
    2.7230   -1.7860   -1.7040 C   0  0  1  0  0  0  0  0  0  0  0  0
    4.1470   -2.0140   -1.2540 C   0  0  0  0  0  0  0  0  0  0  0  0
    4.9830   -0.7640   -1.5660 C   0  0  0  0  0  0  0  0  0  0  0  0
    1.9560   -2.9860   -1.7150 N   0  0  0  0  0  0  0  0  0  0  0  0
    0.8960   -3.0290   -0.7320 C   0  0  0  0  0  0  0  0  0  0  0  0
    1.2180   -2.2310    0.4890 C   0  0  0  0  0  0  0  0  0  0  0  0
  1  2  1  0
  2  3  2  3
  3  4  1  0
  4  5  2  3
  5  6  1  0
  5 34  1  0
  6  7  1  0
  7  8  2  0
  7  9  1  0
  9 10  1  0
  9 15  1  0
 10 11  1  0
 11 12  1  0
 12 13  2  0
 12 14  1  0
 15 16  1  0
 15 34  1  0
 16 17  1  0
 16 27  2  0
 17 18  1  0
 17 20  2  3
 18 19  2  0
 20 21  1  0
 20 23  1  0
 21 22  1  0
 23 24  1  0
 23 25  1  0
 25 26  2  0
 27 28  1  0
 28 29  2  3
 28 33  1  0
 29 30  1  0
 30 31  1  0
 30 32  2  0
 33 34  1  0
 34 35  1  6
 35 36  2  0
 35 43  1  0
 36 37  1  0
 36 38  1  0
 38 39  1  1
 38 41  1  0
 39 40  1  0
 41 42  1  0
 42 43  1  0
M  END
