
     RDKit          3D

 12 12  0  0  0  0  0  0  0  0999 V2000
    2.0920    2.6640    0.1100 O   0  0  0  0  0  0  0  0  0  0  0  0
    2.1730    1.2880   -0.1450 C   0  0  0  0  0  0  0  0  0  0  0  0
    1.0300    0.5720    0.5620 C   0  0  1  0  0  0  0  0  0  0  0  0
   -0.1420    1.0780    0.0730 O   0  0  0  0  0  0  0  0  0  0  0  0
   -0.9650    0.0760   -0.3220 C   0  0  2  0  0  0  0  0  0  0  0  0
   -1.3060    0.2940   -1.6690 O   0  0  0  0  0  0  0  0  0  0  0  0
   -2.2730    0.2000    0.4570 C   0  0  0  0  0  0  0  0  0  0  0  0
   -2.7870    1.4740    0.1220 O   0  0  0  0  0  0  0  0  0  0  0  0
   -0.3040   -1.2380   -0.1480 C   0  0  1  0  0  0  0  0  0  0  0  0
   -0.3240   -1.9240   -1.3680 O   0  0  0  0  0  0  0  0  0  0  0  0
    1.0910   -0.8920    0.2830 C   0  0  2  0  0  0  0  0  0  0  0  0
    1.3910   -1.5930    1.4660 O   0  0  0  0  0  0  0  0  0  0  0  0
  1  2  1  0
  3  2  1  6
  3  4  1  0
  3 11  1  0
  4  5  1  0
  5  6  1  6
  5  7  1  0
  5  9  1  0
  7  8  1  0
  9 10  1  6
  9 11  1  0
 11 12  1  1
M  END
