
     RDKit          3D

 28 30  0  0  0  0  0  0  0  0999 V2000
   -3.6820   -2.7480    0.4240 C   0  0  0  0  0  0  0  0  0  0  0  0
   -3.0200   -1.6170    0.9510 O   0  0  0  0  0  0  0  0  0  0  0  0
   -2.4610   -0.6380    0.1380 C   0  0  0  0  0  0  0  0  0  0  0  0
   -3.2850    0.4330   -0.2190 C   0  0  0  0  0  0  0  0  0  0  0  0
   -4.6120    0.4550    0.2580 N   0  0  0  0  0  0  0  0  0  0  0  0
   -5.5950    1.4220    0.0240 C   0  0  0  0  0  0  0  0  0  0  0  0
   -5.3540    2.4200   -0.6820 O   0  0  0  0  0  0  0  0  0  0  0  0
   -6.9620    1.3010    0.6050 C   0  0  2  0  0  0  0  0  0  0  0  0
   -8.0420    2.0820   -0.0110 C   0  0  0  0  0  0  0  0  0  0  0  0
   -7.4710    2.5900    1.2620 C   0  0  0  0  0  0  0  0  0  0  0  0
   -2.7590    1.4150   -1.0210 C   0  0  0  0  0  0  0  0  0  0  0  0
   -1.4210    1.3070   -1.4490 C   0  0  0  0  0  0  0  0  0  0  0  0
   -0.6230    0.2560   -1.0940 C   0  0  0  0  0  0  0  0  0  0  0  0
   -1.1470   -0.7250   -0.2940 C   0  0  0  0  0  0  0  0  0  0  0  0
   -0.4080   -1.8270    0.1140 O   0  0  0  0  0  0  0  0  0  0  0  0
    0.9220   -1.9270   -0.3160 C   0  0  0  0  0  0  0  0  0  0  0  0
    1.1930   -2.5810   -1.5010 C   0  0  0  0  0  0  0  0  0  0  0  0
    2.5090   -2.6970   -1.9560 C   0  0  0  0  0  0  0  0  0  0  0  0
    3.4850   -2.1450   -1.1880 C   0  0  0  0  0  0  0  0  0  0  0  0
    3.2630   -1.4820    0.0030 C   0  0  0  0  0  0  0  0  0  0  0  0
    4.3220   -0.9490    0.7230 O   0  0  0  0  0  0  0  0  0  0  0  0
    5.6400   -1.0830    0.2370 C   0  0  0  0  0  0  0  0  0  0  0  0
    6.6490   -0.4390    1.1570 C   0  0  0  0  0  0  0  0  0  0  0  0
    6.4610    0.9600    1.3610 N   0  0  0  0  0  0  0  0  0  0  0  0
    6.5090    1.8960    0.2840 C   0  0  0  0  0  0  0  0  0  0  0  0
    6.2960    3.3230    0.6200 C   0  0  0  0  0  0  0  0  0  0  0  0
    6.7210    1.4980   -0.8670 O   0  0  0  0  0  0  0  0  0  0  0  0
    1.9600   -1.3780    0.4350 C   0  0  0  0  0  0  0  0  0  0  0  0
  1  2  1  0
  2  3  1  0
  3  4  2  0
  3 14  1  0
  4  5  1  0
  4 11  1  0
  5  6  1  0
  6  7  2  0
  8  6  1  6
  8  9  1  0
  8 10  1  0
  9 10  1  0
 11 12  2  0
 12 13  1  0
 13 14  2  0
 14 15  1  0
 15 16  1  0
 16 17  2  0
 16 28  1  0
 17 18  1  0
 18 19  2  0
 19 20  1  0
 20 21  1  0
 20 28  2  0
 21 22  1  0
 22 23  1  0
 23 24  1  0
 24 25  1  0
 25 26  1  0
 25 27  2  0
M  END
