
     RDKit          3D

 21 21  0  0  0  0  0  0  0  0999 V2000
   -1.4340   -1.8250    1.1290 O   0  0  0  0  0  0  0  0  0  0  0  0
   -1.0470   -1.1160    0.1690 C   0  0  0  0  0  0  0  0  0  0  0  0
    0.2410   -1.3480   -0.3770 N   0  0  0  0  0  0  0  0  0  0  0  0
    1.1510   -2.3630    0.1070 C   0  0  0  0  0  0  0  0  0  0  0  0
    2.4300   -2.3530   -0.6820 C   0  0  0  0  0  0  0  0  0  0  0  0
    3.1010   -1.1110   -0.5990 O   0  0  0  0  0  0  0  0  0  0  0  0
    3.5560   -0.5370    0.5730 C   0  0  0  0  0  0  0  0  0  0  0  0
    3.3550   -1.1720    1.6430 O   0  0  0  0  0  0  0  0  0  0  0  0
    4.2620    0.7900    0.5770 C   0  0  0  0  0  0  0  0  0  0  0  0
    4.3300    1.2300   -0.7240 O   0  0  0  0  0  0  0  0  0  0  0  0
    4.9180    2.3720   -0.8730 O   0  0  0  0  0  0  0  0  0  0  0  0
    5.5770    2.6430    0.2420 O   0  0  0  0  0  0  0  0  0  0  0  0
   -1.8640   -0.1020   -0.3690 N   0  0  0  0  0  0  0  0  0  0  0  0
   -3.1990    0.1780    0.1560 C   0  0  1  0  0  0  0  0  0  0  0  0
   -3.3000    1.5780    0.6360 C   0  0  0  0  0  0  0  0  0  0  0  0
   -4.0670    2.4290   -0.1580 O   0  0  0  0  0  0  0  0  0  0  0  0
   -5.1360    2.0500   -0.9440 C   0  0  0  0  0  0  0  0  0  0  0  0
   -6.0150    2.8920   -1.2810 O   0  0  0  0  0  0  0  0  0  0  0  0
   -5.1960    0.6870   -1.3500 N   0  0  0  0  0  0  0  0  0  0  0  0
   -4.1580   -0.1700   -0.9160 C   0  0  0  0  0  0  0  0  0  0  0  0
   -4.0350   -1.2910   -1.4640 O   0  0  0  0  0  0  0  0  0  0  0  0
  1  2  2  0
  2  3  1  0
  2 13  1  0
  3  4  1  0
  4  5  1  0
  5  6  1  0
  6  7  1  0
  7  8  2  0
  7  9  1  0
  9 10  1  0
 10 11  1  0
 11 12  1  0
 14 13  1  6
 14 15  1  0
 14 20  1  0
 15 16  1  0
 16 17  1  0
 17 18  2  0
 17 19  1  0
 19 20  1  0
 20 21  2  0
M  END
