
     RDKit          3D

 21 21  0  0  0  0  0  0  0  0999 V2000
    1.9630    1.1690   -0.3460 O   0  0  0  0  0  0  0  0  0  0  0  0
    1.2720    0.3740    0.4310 C   0  0  0  0  0  0  0  0  0  0  0  0
    1.9040   -0.3040    1.4220 N   0  0  0  0  0  0  0  0  0  0  0  0
    3.3400   -0.1660    1.6380 C   0  0  0  0  0  0  0  0  0  0  0  0
    4.0380   -0.6080    0.4250 C   0  0  0  0  0  0  0  0  0  0  0  0
    3.3940   -1.0190   -0.5580 O   0  0  0  0  0  0  0  0  0  0  0  0
    5.4160   -0.5710    0.3670 O   0  0  0  0  0  0  0  0  0  0  0  0
    6.1270   -0.9850   -0.7770 C   0  0  0  0  0  0  0  0  0  0  0  0
    5.7540   -0.2100   -1.8650 O   0  0  0  0  0  0  0  0  0  0  0  0
    6.0380    1.0360   -1.5810 O   0  0  0  0  0  0  0  0  0  0  0  0
   -0.0100    0.4190    0.0340 N   0  0  0  0  0  0  0  0  0  0  0  0
   -1.2940    0.4130   -0.3030 C   0  0  0  0  0  0  0  0  0  0  0  0
   -1.4620    1.2170   -1.3170 O   0  0  0  0  0  0  0  0  0  0  0  0
   -2.4040   -0.2180    0.1610 N   0  0  0  0  0  0  0  0  0  0  0  0
   -3.6960   -0.0160   -0.4290 C   0  0  2  0  0  0  0  0  0  0  0  0
   -4.6700    0.6230    0.5270 C   0  0  0  0  0  0  0  0  0  0  0  0
   -5.9720    0.7540   -0.2600 C   0  0  0  0  0  0  0  0  0  0  0  0
   -6.4400   -0.5110   -0.5680 O   0  0  0  0  0  0  0  0  0  0  0  0
   -5.5960   -1.1960   -1.3510 O   0  0  0  0  0  0  0  0  0  0  0  0
   -4.2230   -1.2450   -1.0580 C   0  0  0  0  0  0  0  0  0  0  0  0
   -3.4880   -2.2170   -1.2930 O   0  0  0  0  0  0  0  0  0  0  0  0
  1  2  2  0
  2  3  1  0
  2 11  1  0
  3  4  1  0
  4  5  1  0
  5  6  2  0
  5  7  1  0
  7  8  1  0
  8  9  1  0
  9 10  1  0
 11 12  1  0
 12 13  2  0
 12 14  1  0
 15 14  1  1
 15 16  1  0
 15 20  1  0
 16 17  1  0
 17 18  1  0
 18 19  1  0
 19 20  1  0
 20 21  2  0
M  END
