
     RDKit          3D

 21 22  0  0  0  0  0  0  0  0999 V2000
   -0.8760    4.1580    0.1020 O   0  0  0  0  0  0  0  0  0  0  0  0
   -0.9410    3.3100   -0.8440 C   0  0  0  0  0  0  0  0  0  0  0  0
   -0.8870    3.8140   -2.1240 O   0  0  0  0  0  0  0  0  0  0  0  0
   -1.0540    1.9840   -0.5970 O   0  0  0  0  0  0  0  0  0  0  0  0
   -1.1210    1.4540    0.7110 C   0  0  0  0  0  0  0  0  0  0  0  0
   -1.2310   -0.0730    0.6240 C   0  0  2  0  0  0  0  0  0  0  0  0
    0.0850   -0.5960    0.1480 C   0  0  0  0  0  0  0  0  0  0  0  0
    0.3190   -1.8960   -0.2180 N   0  0  0  0  0  0  0  0  0  0  0  0
    1.5720   -1.9720   -0.5530 O   0  0  0  0  0  0  0  0  0  0  0  0
    2.1850   -0.7800   -0.4300 C   0  0  0  0  0  0  0  0  0  0  0  0
    3.5660   -0.4860   -0.7170 C   0  0  2  0  0  0  0  0  0  0  0  0
    4.3820   -1.6460   -0.4650 O   0  0  0  0  0  0  0  0  0  0  0  0
    4.0650    0.5150    0.1500 O   0  0  0  0  0  0  0  0  0  0  0  0
    5.1130    1.1420   -0.4070 O   0  0  0  0  0  0  0  0  0  0  0  0
    1.2080    0.0210    0.0050 N   0  0  0  0  0  0  0  0  0  0  0  0
   -2.3650   -0.4190   -0.2590 C   0  0  0  0  0  0  0  0  0  0  0  0
   -2.9030   -1.8040   -0.0860 C   0  0  0  0  0  0  0  0  0  0  0  0
   -2.5540   -2.4250    1.1510 N   0  0  0  0  0  0  0  0  0  0  0  0
   -2.1070   -1.6400    2.2490 C   0  0  0  0  0  0  0  0  0  0  0  0
   -2.3770   -1.9070    3.4300 O   0  0  0  0  0  0  0  0  0  0  0  0
   -1.3240   -0.5320    1.9540 O   0  0  0  0  0  0  0  0  0  0  0  0
  1  2  2  0
  2  3  1  0
  2  4  1  0
  4  5  1  0
  6  5  1  1
  6  7  1  0
  6 16  1  0
  6 21  1  0
  7  8  2  0
  7 15  1  0
  8  9  1  0
  9 10  1  0
 10 11  1  0
 10 15  2  0
 11 12  1  1
 11 13  1  0
 13 14  1  0
 16 17  1  0
 17 18  1  0
 18 19  1  0
 19 20  2  0
 19 21  1  0
M  END
