
     RDKit          3D

 21 22  0  0  0  0  0  0  0  0999 V2000
   -1.3650    0.7040    1.7840 O   0  0  0  0  0  0  0  0  0  0  0  0
   -1.5840    0.4190    0.5800 C   0  0  0  0  0  0  0  0  0  0  0  0
   -0.6170   -0.1600   -0.1720 O   0  0  0  0  0  0  0  0  0  0  0  0
    0.6180   -0.4720    0.2190 O   0  0  0  0  0  0  0  0  0  0  0  0
    1.6320    0.4170   -0.1590 C   0  0  0  0  0  0  0  0  0  0  0  0
    1.2640    1.4530   -0.8130 O   0  0  0  0  0  0  0  0  0  0  0  0
    2.9940    0.2610    0.1040 N   0  0  0  0  0  0  0  0  0  0  0  0
    3.6720   -0.8190    0.8020 C   0  0  0  0  0  0  0  0  0  0  0  0
    4.8530   -0.9980   -0.1550 C   0  0  0  0  0  0  0  0  0  0  0  0
    5.3250   -2.0840   -0.5330 O   0  0  0  0  0  0  0  0  0  0  0  0
    5.2210    0.3360   -0.4620 N   0  0  0  0  0  0  0  0  0  0  0  0
    6.4220    0.7730   -0.8500 O   0  0  0  0  0  0  0  0  0  0  0  0
    7.2310   -0.1990   -1.2280 O   0  0  0  0  0  0  0  0  0  0  0  0
    4.0620    1.1620   -0.3000 C   0  0  0  0  0  0  0  0  0  0  0  0
    3.8780    2.3830   -0.4410 O   0  0  0  0  0  0  0  0  0  0  0  0
   -2.8750    0.6800   -0.1320 C   0  0  2  0  0  0  0  0  0  0  0  0
   -3.8950    1.3150    0.6520 N   0  0  0  0  0  0  0  0  0  0  0  0
   -5.0650    0.9920   -0.2180 C   0  0  0  0  0  0  0  0  0  0  0  0
   -4.9310   -0.5300   -0.1990 C   0  0  0  0  0  0  0  0  0  0  0  0
   -3.4400   -0.6540   -0.5730 C   0  0  2  0  0  0  0  0  0  0  0  0
   -2.8540   -1.7170    0.0620 O   0  0  0  0  0  0  0  0  0  0  0  0
  1  2  2  0
  2  3  1  0
 16  2  1  1
  3  4  1  0
  4  5  1  0
  5  6  2  0
  5  7  1  0
  7  8  1  0
  7 14  1  0
  8  9  1  0
  9 10  2  0
  9 11  1  0
 11 12  1  0
 11 14  1  0
 12 13  1  0
 14 15  2  0
 16 17  1  0
 16 20  1  0
 17 18  1  0
 18 19  1  0
 19 20  1  0
 20 21  1  1
M  END
