
     RDKit          3D

 21 21  0  0  0  0  0  0  0  0999 V2000
   -1.9810    3.6310    0.5030 C   0  0  0  0  0  0  0  0  0  0  0  0
   -1.6600    2.2710    0.3060 O   0  0  0  0  0  0  0  0  0  0  0  0
   -1.4380    1.3830    1.3380 C   0  0  0  0  0  0  0  0  0  0  0  0
   -1.5330    1.8420    2.5140 O   0  0  0  0  0  0  0  0  0  0  0  0
   -1.1080   -0.0210    1.0380 C   0  0  1  0  0  0  0  0  0  0  0  0
   -0.9320   -0.7040    2.2240 O   0  0  0  0  0  0  0  0  0  0  0  0
   -2.2590   -0.6410    0.2780 C   0  0  0  0  0  0  0  0  0  0  0  0
   -1.9150   -1.9930    0.0360 O   0  0  0  0  0  0  0  0  0  0  0  0
   -2.7770   -2.8350   -0.6470 C   0  0  0  0  0  0  0  0  0  0  0  0
   -3.8800   -2.4600   -1.0800 O   0  0  0  0  0  0  0  0  0  0  0  0
   -2.3680   -4.1460   -0.8440 O   0  0  0  0  0  0  0  0  0  0  0  0
    0.1050   -0.1500    0.1740 C   0  0  0  0  0  0  0  0  0  0  0  0
    1.1120   -0.7970    0.6140 N   0  0  0  0  0  0  0  0  0  0  0  0
    2.3260   -1.0050   -0.0820 C   0  0  2  0  0  0  0  0  0  0  0  0
    3.4810   -0.4340    0.7440 C   0  0  0  0  0  0  0  0  0  0  0  0
    3.2380    0.9200    0.9110 O   0  0  0  0  0  0  0  0  0  0  0  0
    4.1570    1.5240    1.6020 O   0  0  0  0  0  0  0  0  0  0  0  0
    2.3800   -0.4060   -1.4210 C   0  0  0  0  0  0  0  0  0  0  0  0
    3.4000   -0.5070   -2.1670 O   0  0  0  0  0  0  0  0  0  0  0  0
    1.2720    0.3140   -1.9240 N   0  0  0  0  0  0  0  0  0  0  0  0
    0.1420    0.4310   -1.1120 N   0  0  0  0  0  0  0  0  0  0  0  0
  1  2  1  0
  2  3  1  0
  3  4  2  0
  3  5  1  0
  5  6  1  1
  5  7  1  0
  5 12  1  0
  7  8  1  0
  8  9  1  0
  9 10  2  0
  9 11  1  0
 12 13  2  0
 12 21  1  0
 13 14  1  0
 14 15  1  1
 14 18  1  0
 15 16  1  0
 16 17  1  0
 18 19  2  0
 18 20  1  0
 20 21  1  0
M  END
