
     RDKit          3D

 25 27  0  0  0  0  0  0  0  0999 V2000
    0.0990   -0.6860    1.9200 C   0  0  0  0  0  0  0  0  0  0  0  0
    0.3310    0.1300    0.6930 C   0  0  2  0  0  0  0  0  0  0  0  0
   -1.0060    0.5000    0.1420 C   0  0  0  0  0  0  0  0  0  0  0  0
   -1.1340    1.7340    0.4860 O   0  0  0  0  0  0  0  0  0  0  0  0
   -2.1150    2.5180    0.2510 N   0  0  0  0  0  0  0  0  0  0  0  0
   -3.3750    1.7820   -0.6280 P   0  0  0  0  0  0  0  0  0  0  0  0
   -4.7780    2.6760   -1.1120 O   0  0  0  0  0  0  0  0  0  0  0  0
   -4.9680    3.9620    0.0040 P   0  0  0  0  0  0  0  0  0  0  0  0
   -3.9120    5.0780    0.2300 O   0  0  0  0  0  0  0  0  0  0  0  0
   -3.0730    0.1930   -1.0020 O   0  0  0  0  0  0  0  0  0  0  0  0
   -1.9150   -0.2600   -0.5680 C   0  0  0  0  0  0  0  0  0  0  0  0
   -1.9270   -1.6960   -1.0500 C   0  0  1  0  0  0  0  0  0  0  0  0
   -2.3140   -2.4540    0.0650 O   0  0  0  0  0  0  0  0  0  0  0  0
   -3.1470   -1.8650   -2.4050 P   0  0  0  0  0  0  0  0  0  0  0  0
   -0.6530   -2.1150   -1.4000 O   0  0  0  0  0  0  0  0  0  0  0  0
   -0.0040   -2.6450   -0.3820 O   0  0  0  0  0  0  0  0  0  0  0  0
    1.2320   -2.0000   -0.3150 C   0  0  2  0  0  0  0  0  0  0  0  0
    2.1670   -2.5500   -1.9520 Br  0  0  0  0  0  0  0  0  0  0  0  0
    2.0300   -2.4260    0.7110 O   0  0  0  0  0  0  0  0  0  0  0  0
    2.8150   -1.5730    1.2320 O   0  0  0  0  0  0  0  0  0  0  0  0
    3.3770   -0.6690    0.4670 N   0  0  0  0  0  0  0  0  0  0  0  0
    4.0450    0.6100    1.5760 P   0  0  0  0  0  0  0  0  0  0  0  0
    4.9800    1.8230    0.6890 N   0  0  0  0  0  0  0  0  0  0  0  0
    2.5480    0.0130   -0.4650 C   0  0  0  0  0  0  0  0  0  0  0  0
    1.1250   -0.5190   -0.3820 C   0  0  2  0  0  0  0  0  0  0  0  0
  2  1  1  1
  2  3  1  0
  2 25  1  0
  3  4  1  0
  3 11  2  0
  4  5  1  0
  5  6  1  0
  6  7  1  0
  6 10  1  0
  7  8  1  0
  8  9  2  0
 10 11  1  0
 11 12  1  0
 12 13  1  1
 12 14  1  0
 12 15  1  0
 15 16  1  0
 16 17  1  0
 17 18  1  6
 17 19  1  0
 17 25  1  0
 19 20  1  0
 20 21  1  0
 21 22  1  0
 21 24  1  0
 22 23  1  0
 25 24  1  1
M  END
