
     RDKit          3D

  9 10  0  0  0  0  0  0  0  0999 V2000
    2.1180    0.4140    0.3070 C   0  0  0  0  0  0  0  0  0  0  0  0
    2.0150   -0.9260    0.6220 C   0  0  0  0  0  0  0  0  0  0  0  0
    0.8070   -1.5150    0.5350 N   0  0  0  0  0  0  0  0  0  0  0  0
   -0.2930   -0.8090    0.1450 C   0  0  0  0  0  0  0  0  0  0  0  0
   -1.6130   -1.1630   -0.0220 C   0  0  0  0  0  0  0  0  0  0  0  0
   -2.3300   -0.0690   -0.4350 C   0  0  0  0  0  0  0  0  0  0  0  0
   -1.4540    0.9460   -0.5180 N   0  0  0  0  0  0  0  0  0  0  0  0
   -0.2130    0.5330   -0.1740 C   0  0  0  0  0  0  0  0  0  0  0  0
    1.0110    1.1550   -0.0930 C   0  0  0  0  0  0  0  0  0  0  0  0
  1  2  2  0
  1  9  1  0
  2  3  1  0
  3  4  2  0
  4  5  1  0
  4  8  1  0
  5  6  2  0
  6  7  1  0
  7  8  1  0
  8  9  2  0
M  END
