
     RDKit          3D

  9 10  0  0  0  0  0  0  0  0999 V2000
    2.8840   -0.0520   -0.1460 C   0  0  0  0  0  0  0  0  0  0  0  0
    1.3830   -0.0110   -0.0700 C   0  0  0  0  0  0  0  0  0  0  0  0
    0.5890    1.0550    0.2900 C   0  0  0  0  0  0  0  0  0  0  0  0
   -0.7450    0.7050    0.2400 C   0  0  0  0  0  0  0  0  0  0  0  0
   -2.0660    1.0780    0.4100 C   0  0  0  0  0  0  0  0  0  0  0  0
   -2.8430   -0.0130    0.1090 C   0  0  0  0  0  0  0  0  0  0  0  0
   -2.0250   -1.0230   -0.2350 N   0  0  0  0  0  0  0  0  0  0  0  0
   -0.7300   -0.6320   -0.1700 C   0  0  0  0  0  0  0  0  0  0  0  0
    0.5450   -1.0250   -0.3450 N   0  0  0  0  0  0  0  0  0  0  0  0
  1  2  1  0
  2  3  2  0
  2  9  1  0
  3  4  1  0
  4  5  1  0
  4  8  2  0
  5  6  2  0
  6  7  1  0
  7  8  1  0
  8  9  1  0
M  END
