
     RDKit          3D

  9 10  0  0  0  0  0  0  0  0999 V2000
    2.5110   -0.3230   -0.3110 C   0  0  0  0  0  0  0  0  0  0  0  0
    1.8280    0.8630   -0.1160 C   0  0  0  0  0  0  0  0  0  0  0  0
    0.4870    0.5680    0.0030 C   0  0  0  0  0  0  0  0  0  0  0  0
   -0.6770    1.2830    0.2040 C   0  0  0  0  0  0  0  0  0  0  0  0
   -1.8890    0.6110    0.2710 C   0  0  0  0  0  0  0  0  0  0  0  0
   -1.9860   -0.7260    0.1470 N   0  0  0  0  0  0  0  0  0  0  0  0
   -0.8620   -1.4360   -0.0490 C   0  0  0  0  0  0  0  0  0  0  0  0
    0.3910   -0.8950   -0.1330 C   0  0  0  0  0  0  0  0  0  0  0  0
    1.6400   -1.3490   -0.3170 N   0  0  0  0  0  0  0  0  0  0  0  0
  1  2  1  0
  1  9  2  0
  2  3  2  0
  3  4  1  0
  3  8  1  0
  4  5  2  0
  5  6  1  0
  6  7  1  0
  7  8  2  0
  8  9  1  0
M  END
