
     RDKit          3D

  9 10  0  0  0  0  0  0  0  0999 V2000
   -2.2880   -0.5990    0.0680 C   0  0  0  0  0  0  0  0  0  0  0  0
   -1.0930   -1.2740    0.2440 C   0  0  0  0  0  0  0  0  0  0  0  0
    0.1160   -0.6190    0.1360 C   0  0  0  0  0  0  0  0  0  0  0  0
    1.4450   -0.9700    0.2460 C   0  0  0  0  0  0  0  0  0  0  0  0
    2.2340    0.1560    0.0260 C   0  0  0  0  0  0  0  0  0  0  0  0
    1.3830    1.1680   -0.2130 N   0  0  0  0  0  0  0  0  0  0  0  0
    0.1060    0.7500   -0.1580 C   0  0  0  0  0  0  0  0  0  0  0  0
   -1.1090    1.3810   -0.3250 C   0  0  0  0  0  0  0  0  0  0  0  0
   -2.2810    0.7240   -0.2160 N   0  0  0  0  0  0  0  0  0  0  0  0
  1  2  2  0
  1  9  1  0
  2  3  1  0
  3  4  1  0
  3  7  2  0
  4  5  2  0
  5  6  1  0
  6  7  1  0
  7  8  1  0
  8  9  2  0
M  END
