
     RDKit          3D

  9 10  0  0  0  0  0  0  0  0999 V2000
   -2.3070    0.4810    0.1930 C   0  0  0  0  0  0  0  0  0  0  0  0
   -1.1500    1.2040    0.3910 C   0  0  0  0  0  0  0  0  0  0  0  0
    0.1070    0.6230    0.1880 C   0  0  0  0  0  0  0  0  0  0  0  0
    1.3650    1.0180    0.2830 N   0  0  0  0  0  0  0  0  0  0  0  0
    2.2110    0.0230   -0.0380 C   0  0  0  0  0  0  0  0  0  0  0  0
    1.4570   -1.0860   -0.3610 C   0  0  0  0  0  0  0  0  0  0  0  0
    0.1290   -0.7110   -0.2200 C   0  0  0  0  0  0  0  0  0  0  0  0
   -1.0440   -1.4230   -0.4130 C   0  0  0  0  0  0  0  0  0  0  0  0
   -2.1960   -0.7920   -0.1970 N   0  0  0  0  0  0  0  0  0  0  0  0
  1  2  2  0
  1  9  1  0
  2  3  1  0
  3  4  1  0
  3  7  2  0
  4  5  1  0
  5  6  2  0
  6  7  1  0
  7  8  1  0
  8  9  2  0
M  END
