
     RDKit          3D

 22 22  0  0  0  0  0  0  0  0999 V2000
    3.6410   -3.2720    0.1650 O   0  0  0  0  0  0  0  0  0  0  0  0
    2.6090   -2.5600    0.2140 C   0  0  0  0  0  0  0  0  0  0  0  0
    1.3300   -3.0730    0.0880 O   0  0  0  0  0  0  0  0  0  0  0  0
    0.3270   -2.5110   -0.7250 C   0  0  0  0  0  0  0  0  0  0  0  0
   -0.9420   -2.2070    0.0200 C   0  0  0  0  0  0  0  0  0  0  0  0
   -0.9080   -0.8970    0.4810 O   0  0  0  0  0  0  0  0  0  0  0  0
   -1.9680   -0.1360    0.0350 C   0  0  1  0  0  0  0  0  0  0  0  0
   -3.2850   -0.6080    0.6510 C   0  0  1  0  0  0  0  0  0  0  0  0
   -3.1580   -0.4790    2.0330 O   0  0  0  0  0  0  0  0  0  0  0  0
   -4.4380    0.2150    0.1560 C   0  0  0  0  0  0  0  0  0  0  0  0
   -4.5360    0.0620   -1.2330 O   0  0  0  0  0  0  0  0  0  0  0  0
   -1.7670    1.1700    0.4840 O   0  0  0  0  0  0  0  0  0  0  0  0
   -1.2330    1.9780   -0.5150 C   0  0  0  0  0  0  0  0  0  0  0  0
   -0.1530    2.8230    0.0820 C   0  0  1  0  0  0  0  0  0  0  0  0
   -0.6190    3.3120    1.3150 O   0  0  0  0  0  0  0  0  0  0  0  0
    1.1250    2.0930    0.3370 C   0  0  0  0  0  0  0  0  0  0  0  0
    1.4800    1.2080   -0.6600 O   0  0  0  0  0  0  0  0  0  0  0  0
    2.8780    1.0850   -0.6430 C   0  0  0  0  0  0  0  0  0  0  0  0
    3.2710   -0.3890   -0.8090 C   0  0  1  0  0  0  0  0  0  0  0  0
    4.6720   -0.4200   -0.8440 O   0  0  0  0  0  0  0  0  0  0  0  0
    2.7670   -1.1020    0.4170 C   0  0  2  0  0  0  0  0  0  0  0  0
    3.6830   -0.8220    1.4490 O   0  0  0  0  0  0  0  0  0  0  0  0
  1  2  2  0
  2  3  1  0
  2 21  1  0
  3  4  1  0
  4  5  1  0
  5  6  1  0
  7  6  1  1
  7  8  1  0
  7 12  1  0
  8  9  1  1
  8 10  1  0
 10 11  1  0
 12 13  1  0
 13 14  1  0
 14 15  1  1
 14 16  1  0
 16 17  1  0
 17 18  1  0
 18 19  1  0
 19 20  1  1
 19 21  1  0
 21 22  1  1
M  END
