
     RDKit          3D

 23 23  0  0  0  0  0  0  0  0999 V2000
    2.9270   -2.9740   -2.9180 O   0  0  0  0  0  0  0  0  0  0  0  0
    3.6300   -2.8650   -1.6990 C   0  0  0  0  0  0  0  0  0  0  0  0
    2.7610   -2.0880   -0.7010 C   0  0  0  0  0  0  0  0  0  0  0  0
    2.5410   -0.8620   -1.2660 O   0  0  0  0  0  0  0  0  0  0  0  0
    1.7490   -0.0030   -0.4680 C   0  0  1  0  0  0  0  0  0  0  0  0
    2.5690    1.1830   -0.0700 C   0  0  0  0  0  0  0  0  0  0  0  0
    1.8660    2.0650    0.7160 O   0  0  0  0  0  0  0  0  0  0  0  0
    2.6560    3.1560    1.0700 C   0  0  0  0  0  0  0  0  0  0  0  0
    1.9130    4.0320    1.8660 O   0  0  0  0  0  0  0  0  0  0  0  0
    0.6130    0.3770   -1.1060 O   0  0  0  0  0  0  0  0  0  0  0  0
   -0.5970   -0.0500   -0.5950 C   0  0  1  0  0  0  0  0  0  0  0  0
   -0.5320   -1.4590   -0.6250 O   0  0  0  0  0  0  0  0  0  0  0  0
   -0.8350    0.5240    0.7340 C   0  0  0  0  0  0  0  0  0  0  0  0
   -2.1560    0.2320    1.3660 C   0  0  1  0  0  0  0  0  0  0  0  0
   -1.9110    0.0200    2.7260 O   0  0  0  0  0  0  0  0  0  0  0  0
   -3.0930    1.4400    1.3360 C   0  0  0  0  0  0  0  0  0  0  0  0
   -2.5150    2.5450    1.9110 O   0  0  0  0  0  0  0  0  0  0  0  0
   -2.8830   -0.9630    0.8650 C   0  0  2  0  0  0  0  0  0  0  0  0
   -2.1820   -2.1150    1.2970 O   0  0  0  0  0  0  0  0  0  0  0  0
   -3.1730   -1.0260   -0.5880 C   0  0  0  0  0  0  0  0  0  0  0  0
   -2.9070    0.1150   -1.3080 O   0  0  0  0  0  0  0  0  0  0  0  0
   -1.6130    0.3390   -1.6400 C   0  0  2  0  0  0  0  0  0  0  0  0
   -1.3020   -0.3670   -2.8000 O   0  0  0  0  0  0  0  0  0  0  0  0
  1  2  1  0
  2  3  1  0
  3  4  1  0
  4  5  1  0
  5  6  1  6
  5 10  1  0
  6  7  1  0
  7  8  1  0
  8  9  1  0
 10 11  1  0
 11 12  1  1
 11 13  1  0
 11 22  1  0
 13 14  1  0
 14 15  1  1
 14 16  1  0
 14 18  1  0
 16 17  1  0
 18 19  1  6
 18 20  1  0
 20 21  1  0
 21 22  1  0
 22 23  1  6
M  END
