
     RDKit          3D

 26 28  0  0  0  0  0  0  0  0999 V2000
    7.8650    0.2430    0.6580 C   0  0  0  0  0  0  0  0  0  0  0  0
    6.9930   -0.9750    0.8960 C   0  0  0  0  0  0  0  0  0  0  0  0
    5.5740   -0.6170    0.6250 C   0  0  0  0  0  0  0  0  0  0  0  0
    4.7590   -0.1290    1.6260 C   0  0  0  0  0  0  0  0  0  0  0  0
    3.4320    0.2170    1.4110 C   0  0  0  0  0  0  0  0  0  0  0  0
    2.8940    0.0690    0.1430 C   0  0  0  0  0  0  0  0  0  0  0  0
    1.4910    0.4100   -0.1820 C   0  0  2  0  0  0  0  0  0  0  0  0
    1.1970    1.6920    0.4060 N   0  0  0  0  0  0  0  0  0  0  0  0
    0.6280   -0.7120    0.3310 C   0  0  0  0  0  0  0  0  0  0  0  0
   -0.7870   -0.5150    0.0790 N   0  0  0  0  0  0  0  0  0  0  0  0
   -1.5570    0.1090    0.9880 C   0  0  0  0  0  0  0  0  0  0  0  0
   -1.0980    0.5380    2.0800 O   0  0  0  0  0  0  0  0  0  0  0  0
   -2.8720    0.2990    0.7540 N   0  0  0  0  0  0  0  0  0  0  0  0
   -3.4630   -0.1270   -0.3960 C   0  0  0  0  0  0  0  0  0  0  0  0
   -4.8170    0.0810   -0.6070 C   0  0  0  0  0  0  0  0  0  0  0  0
   -5.6160    0.7810    0.4160 C   0  0  0  0  0  0  0  0  0  0  0  0
   -5.9190   -0.0480    1.6160 C   0  0  0  0  0  0  0  0  0  0  0  0
   -5.3600   -0.3790   -1.7920 C   0  0  0  0  0  0  0  0  0  0  0  0
   -6.7380   -0.1630   -1.9980 N   0  0  0  0  0  0  0  0  0  0  0  0
   -4.5560   -1.0160   -2.7120 C   0  0  0  0  0  0  0  0  0  0  0  0
   -3.2110   -1.2230   -2.5040 C   0  0  0  0  0  0  0  0  0  0  0  0
   -2.6410   -0.7660   -1.3080 C   0  0  0  0  0  0  0  0  0  0  0  0
   -1.2910   -0.9680   -1.0820 C   0  0  0  0  0  0  0  0  0  0  0  0
   -0.5940   -1.5550   -1.9490 O   0  0  0  0  0  0  0  0  0  0  0  0
    3.7000   -0.4180   -0.8640 C   0  0  0  0  0  0  0  0  0  0  0  0
    5.0170   -0.7570   -0.6350 C   0  0  0  0  0  0  0  0  0  0  0  0
  1  2  1  0
  2  3  1  0
  3  4  2  0
  3 26  1  0
  4  5  1  0
  5  6  2  0
  6  7  1  0
  6 25  1  0
  7  8  1  1
  7  9  1  0
  9 10  1  0
 10 11  1  0
 10 23  1  0
 11 12  2  0
 11 13  1  0
 13 14  1  0
 14 15  2  0
 14 22  1  0
 15 16  1  0
 15 18  1  0
 16 17  1  0
 18 19  1  0
 18 20  2  0
 20 21  1  0
 21 22  2  0
 22 23  1  0
 23 24  2  0
 25 26  2  0
M  CHG  1   8   1
M  END
