
     RDKit          3D

 23 23  0  0  0  0  0  0  0  0999 V2000
   -1.3900   -1.3260   -2.9000 C   0  0  0  0  0  0  0  0  0  0  0  0
   -1.3720   -1.9780   -1.6740 O   0  0  0  0  0  0  0  0  0  0  0  0
   -2.2500   -1.3300   -0.8140 C   0  0  1  0  0  0  0  0  0  0  0  0
   -3.2260   -2.2930   -0.4730 O   0  0  0  0  0  0  0  0  0  0  0  0
   -1.5830   -0.9080    0.4670 C   0  0  1  0  0  0  0  0  0  0  0  0
   -0.5390   -0.0270    0.2600 O   0  0  0  0  0  0  0  0  0  0  0  0
    0.6670   -0.5610    0.6950 C   0  0  1  0  0  0  0  0  0  0  0  0
    1.6250   -0.6330   -0.3040 O   0  0  0  0  0  0  0  0  0  0  0  0
    2.8140   -0.3730    0.3470 C   0  0  1  0  0  0  0  0  0  0  0  0
    3.9180    0.0750   -0.5680 C   0  0  0  0  0  0  0  0  0  0  0  0
    4.2650   -0.9210   -1.6200 C   0  0  1  0  0  0  0  0  0  0  0  0
    5.2970   -0.3830   -2.3960 O   0  0  0  0  0  0  0  0  0  0  0  0
    4.7920   -2.0620   -1.0060 O   0  0  0  0  0  0  0  0  0  0  0  0
    2.3820    0.7480    1.2720 C   0  0  1  0  0  0  0  0  0  0  0  0
    2.0820    2.0000    0.4770 C   0  0  0  0  0  0  0  0  0  0  0  0
    1.2730    1.6750   -0.6100 O   0  0  0  0  0  0  0  0  0  0  0  0
    1.1530    0.2420    1.7000 O   0  0  0  0  0  0  0  0  0  0  0  0
   -2.5960   -0.3430    1.4300 C   0  0  2  0  0  0  0  0  0  0  0  0
   -3.6740   -1.1710    1.6680 O   0  0  0  0  0  0  0  0  0  0  0  0
   -3.0740    1.0300    1.0800 C   0  0  1  0  0  0  0  0  0  0  0  0
   -3.8810    0.9630   -0.0460 O   0  0  0  0  0  0  0  0  0  0  0  0
   -3.7770    1.7130    2.2230 C   0  0  0  0  0  0  0  0  0  0  0  0
   -4.1100    3.0080    1.8290 O   0  0  0  0  0  0  0  0  0  0  0  0
  1  2  1  0
  2  3  1  0
  3  4  1  1
  3  5  1  0
  5  6  1  6
  5 18  1  0
  7  6  1  6
  7  8  1  0
  7 17  1  0
  8  9  1  0
  9 10  1  6
  9 14  1  0
 10 11  1  0
 11 12  1  6
 11 13  1  0
 14 15  1  6
 14 17  1  0
 15 16  1  0
 18 19  1  6
 18 20  1  0
 20 21  1  6
 20 22  1  0
 22 23  1  0
M  END
