
     RDKit          3D

 22 23  0  0  0  0  0  0  0  0999 V2000
   -1.1370    2.0540    3.2660 C   0  0  0  0  0  0  0  0  0  0  0  0
   -1.0270    0.9430    2.3840 O   0  0  0  0  0  0  0  0  0  0  0  0
   -0.5780    1.1530    1.0880 C   0  0  0  0  0  0  0  0  0  0  0  0
   -0.2850    2.3160    0.7450 O   0  0  0  0  0  0  0  0  0  0  0  0
   -0.4420    0.0240    0.1160 C   0  0  1  0  0  0  0  0  0  0  0  0
   -1.8200   -0.5940   -0.0280 C   0  0  2  0  0  0  0  0  0  0  0  0
   -1.8640   -1.6200   -0.9430 O   0  0  0  0  0  0  0  0  0  0  0  0
   -2.8600    0.4430   -0.3780 C   0  0  0  0  0  0  0  0  0  0  0  0
   -4.1950   -0.2550   -0.4950 C   0  0  2  0  0  0  0  0  0  0  0  0
   -4.0910   -1.2110   -1.4990 O   0  0  0  0  0  0  0  0  0  0  0  0
   -5.2260    0.6440   -0.7670 O   0  0  0  0  0  0  0  0  0  0  0  0
    0.0320    0.5430   -1.0670 O   0  0  0  0  0  0  0  0  0  0  0  0
    1.3370    0.1130   -1.2130 C   0  0  1  0  0  0  0  0  0  0  0  0
    1.7130   -0.0630   -2.5330 O   0  0  0  0  0  0  0  0  0  0  0  0
    2.2860    0.9980   -0.4480 C   0  0  0  0  0  0  0  0  0  0  0  0
    3.7150    0.5080   -0.5770 C   0  0  1  0  0  0  0  0  0  0  0  0
    4.4270    0.7240    0.6090 O   0  0  0  0  0  0  0  0  0  0  0  0
    3.7500   -0.9810   -0.8530 C   0  0  0  0  0  0  0  0  0  0  0  0
    2.6400   -1.7070   -0.0950 C   0  0  0  0  0  0  0  0  0  0  0  0
    1.2720   -1.2290   -0.5200 C   0  0  2  0  0  0  0  0  0  0  0  0
    0.7180   -2.1940   -1.3570 O   0  0  0  0  0  0  0  0  0  0  0  0
    0.4570   -0.9270    0.5620 O   0  0  0  0  0  0  0  0  0  0  0  0
  1  2  1  0
  2  3  1  0
  3  4  2  0
  5  3  1  1
  5  6  1  0
  5 12  1  0
  5 22  1  0
  6  7  1  6
  6  8  1  0
  8  9  1  0
  9 10  1  6
  9 11  1  0
 12 13  1  0
 13 14  1  6
 13 15  1  0
 13 20  1  0
 15 16  1  0
 16 17  1  1
 16 18  1  0
 18 19  1  0
 19 20  1  0
 20 21  1  6
 20 22  1  0
M  END
