
     RDKit          3D

 26 28  0  0  0  0  0  0  0  0999 V2000
   -3.6650    3.6660   -0.8620 N   0  0  0  0  0  0  0  0  0  0  0  0
   -4.6260    2.6470   -0.6250 C   0  0  0  0  0  0  0  0  0  0  0  0
   -4.2550    1.3940   -0.3650 C   0  0  0  0  0  0  0  0  0  0  0  0
   -2.8580    1.0210   -0.3120 C   0  0  0  0  0  0  0  0  0  0  0  0
   -2.3100   -0.1100   -0.0550 C   0  0  0  0  0  0  0  0  0  0  0  0
   -0.9100   -0.3140   -0.0610 N   0  0  0  0  0  0  0  0  0  0  0  0
    0.0970    0.6170   -0.3680 C   0  0  0  0  0  0  0  0  0  0  0  0
   -0.2030    1.7970   -0.6850 O   0  0  0  0  0  0  0  0  0  0  0  0
    1.5330    0.3030   -0.3460 C   0  0  0  0  0  0  0  0  0  0  0  0
    1.9590   -0.8880   -0.0350 C   0  0  0  0  0  0  0  0  0  0  0  0
    3.3270   -1.3300    0.0250 N   0  0  0  0  0  0  0  0  0  0  0  0
    4.5530   -0.6170    0.0660 C   0  0  0  0  0  0  0  0  0  0  0  0
    5.6510   -1.3910    0.3380 C   0  0  0  0  0  0  0  0  0  0  0  0
    6.9050   -0.8190    0.4060 C   0  0  0  0  0  0  0  0  0  0  0  0
    7.1040    0.5250    0.2090 C   0  0  0  0  0  0  0  0  0  0  0  0
    6.0140    1.3150   -0.0640 C   0  0  0  0  0  0  0  0  0  0  0  0
    4.7610    0.7450   -0.1330 C   0  0  0  0  0  0  0  0  0  0  0  0
    3.7460    1.6740   -0.4190 N   0  0  0  0  0  0  0  0  0  0  0  0
    2.3650    1.4760   -0.7080 C   0  0  0  0  0  0  0  0  0  0  0  0
    1.8050    2.4110   -1.3430 O   0  0  0  0  0  0  0  0  0  0  0  0
   -3.1000   -1.2370    0.4600 C   0  0  0  0  0  0  0  0  0  0  0  0
   -4.2490   -1.1300    1.1830 C   0  0  0  0  0  0  0  0  0  0  0  0
   -5.0050   -2.2520    1.5470 C   0  0  0  0  0  0  0  0  0  0  0  0
   -4.6010   -3.5090    1.1820 C   0  0  0  0  0  0  0  0  0  0  0  0
   -3.4440   -3.6480    0.4540 C   0  0  0  0  0  0  0  0  0  0  0  0
   -2.7050   -2.5320    0.0970 C   0  0  0  0  0  0  0  0  0  0  0  0
  1  2  1  0
  2  3  2  3
  3  4  1  0
  4  5  2  3
  5  6  1  0
  5 21  1  0
  6  7  1  0
  7  8  2  0
  7  9  1  0
  9 10  2  0
  9 19  1  0
 10 11  1  0
 11 12  1  0
 12 13  2  0
 12 17  1  0
 13 14  1  0
 14 15  2  0
 15 16  1  0
 16 17  2  0
 17 18  1  0
 18 19  1  0
 19 20  2  0
 21 22  2  0
 21 26  1  0
 22 23  1  0
 23 24  2  0
 24 25  1  0
 25 26  2  0
M  CHG  1   1   1
M  END
