
     RDKit          3D

 25 27  0  0  0  0  0  0  0  0999 V2000
   -4.5220    2.5460    0.7890 C   0  0  0  0  0  0  0  0  0  0  0  0
   -3.9190    1.2390    0.4080 C   0  0  0  0  0  0  0  0  0  0  0  0
   -4.4890    0.0660    0.8470 C   0  0  0  0  0  0  0  0  0  0  0  0
   -3.9040   -1.1200    0.4760 C   0  0  0  0  0  0  0  0  0  0  0  0
   -4.4530   -2.4360    0.9040 C   0  0  0  0  0  0  0  0  0  0  0  0
   -2.7500   -1.1180   -0.3330 C   0  0  0  0  0  0  0  0  0  0  0  0
   -2.2120    0.0650   -0.7510 C   0  0  0  0  0  0  0  0  0  0  0  0
   -2.8040    1.2190   -0.3730 N   0  0  0  0  0  0  0  0  0  0  0  0
   -1.0680   -0.2090   -1.6090 N   0  0  0  0  0  0  0  0  0  0  0  0
   -0.2750    0.8440   -2.1530 C   0  0  0  0  0  0  0  0  0  0  0  0
    0.8050    1.4330   -1.3660 C   0  0  0  0  0  0  0  0  0  0  0  0
    1.9220    0.5650   -0.9310 C   0  0  0  0  0  0  0  0  0  0  0  0
    2.0260   -0.6380   -1.2250 O   0  0  0  0  0  0  0  0  0  0  0  0
    2.9670    1.1120   -0.1200 N   0  0  0  0  0  0  0  0  0  0  0  0
    4.0880    0.4210    0.3740 C   0  0  0  0  0  0  0  0  0  0  0  0
    4.3200   -0.9200    0.3170 C   0  0  0  0  0  0  0  0  0  0  0  0
    5.4800   -1.5190    0.8280 C   0  0  0  0  0  0  0  0  0  0  0  0
    6.4390   -0.7560    1.4140 C   0  0  0  0  0  0  0  0  0  0  0  0
    7.9110   -1.4420    2.0710 Cl  0  0  0  0  0  0  0  0  0  0  0  0
    6.2430    0.5940    1.4900 C   0  0  0  0  0  0  0  0  0  0  0  0
    7.4580    1.6020    2.2390 Cl  0  0  0  0  0  0  0  0  0  0  0  0
    5.1140    1.1710    0.9930 C   0  0  0  0  0  0  0  0  0  0  0  0
   -0.9370   -1.6070   -1.7040 C   0  0  0  0  0  0  0  0  0  0  0  0
   -0.0940   -2.1910   -2.4590 O   0  0  0  0  0  0  0  0  0  0  0  0
   -1.9220   -2.2440   -0.8090 C   0  0  0  0  0  0  0  0  0  0  0  0
  1  2  1  0
  2  3  2  0
  2  8  1  0
  3  4  1  0
  4  5  1  0
  4  6  2  0
  6  7  1  0
  6 25  1  0
  7  8  2  0
  7  9  1  0
  9 10  1  0
  9 23  1  0
 10 11  1  0
 11 12  1  0
 12 13  2  0
 12 14  1  0
 14 15  1  0
 15 16  2  0
 15 22  1  0
 16 17  1  0
 17 18  2  0
 18 19  1  0
 18 20  1  0
 20 21  1  0
 20 22  2  0
 23 24  2  0
 23 25  1  0
M  CHG  1   8   1
M  END
