
     RDKit          3D

 25 27  0  0  0  0  0  0  0  0999 V2000
   -0.5550    1.4220   -4.9610 O   0  0  0  0  0  0  0  0  0  0  0  0
   -0.0290    2.4000   -4.3870 C   0  0  0  0  0  0  0  0  0  0  0  0
    0.2140    2.3490   -2.9600 C   0  0  0  0  0  0  0  0  0  0  0  0
    0.7910    3.3170   -2.1310 C   0  0  0  0  0  0  0  0  0  0  0  0
    0.7900    2.7770   -0.8770 C   0  0  0  0  0  0  0  0  0  0  0  0
    1.3960    3.5310    0.5820 Cl  0  0  0  0  0  0  0  0  0  0  0  0
    0.2160    1.5060   -0.9670 C   0  0  0  0  0  0  0  0  0  0  0  0
    0.0410    0.6080    0.1600 C   0  0  0  0  0  0  0  0  0  0  0  0
   -1.0400   -0.0290    0.5150 C   0  0  0  0  0  0  0  0  0  0  0  0
   -1.0590   -0.9080    1.6800 C   0  0  0  0  0  0  0  0  0  0  0  0
    0.1890   -1.0430    2.3880 N   0  0  0  0  0  0  0  0  0  0  0  0
    0.9770   -1.9870    1.6000 C   0  0  0  0  0  0  0  0  0  0  0  0
    2.4170   -1.9100    1.8250 C   0  0  0  0  0  0  0  0  0  0  0  0
    3.3090   -1.6210    0.8940 C   0  0  0  0  0  0  0  0  0  0  0  0
    3.0570   -1.2590   -0.7950 Cl  0  0  0  0  0  0  0  0  0  0  0  0
    4.6440   -1.6490    1.5360 C   0  0  0  0  0  0  0  0  0  0  0  0
    4.3410   -1.9950    2.9410 C   0  0  0  0  0  0  0  0  0  0  0  0
    3.0730   -2.1350    3.0650 N   0  0  0  0  0  0  0  0  0  0  0  0
   -2.2770    0.1360   -0.2260 C   0  0  0  0  0  0  0  0  0  0  0  0
   -3.4360   -0.5560    0.1520 C   0  0  0  0  0  0  0  0  0  0  0  0
   -4.6410   -0.4470   -0.4930 C   0  0  0  0  0  0  0  0  0  0  0  0
   -4.7200    0.3960   -1.5860 C   0  0  0  0  0  0  0  0  0  0  0  0
   -3.5970    1.0710   -1.9580 C   0  0  0  0  0  0  0  0  0  0  0  0
   -2.4390    0.9310   -1.2930 N   0  0  0  0  0  0  0  0  0  0  0  0
   -0.1000    1.3110   -2.2070 O   0  0  0  0  0  0  0  0  0  0  0  0
  1  2  2  0
  2  3  1  0
  3  4  2  0
  3 25  1  0
  4  5  1  0
  5  6  1  0
  5  7  2  0
  7  8  1  0
  7 25  1  0
  8  9  2  3
  9 10  1  0
  9 19  1  0
 10 11  1  0
 11 12  1  0
 12 13  1  0
 13 14  2  0
 13 18  1  0
 14 15  1  0
 14 16  1  0
 16 17  1  0
 17 18  2  0
 19 20  2  0
 19 24  1  0
 20 21  1  0
 21 22  2  0
 22 23  1  0
 23 24  2  0
M  CHG  1  11   1
M  END
