
     RDKit          3D

 25 26  0  0  0  0  0  0  0  0999 V2000
    5.3690    2.8020    1.5850 C   0  0  0  0  0  0  0  0  0  0  0  0
    5.6790    1.3670    2.0040 C   0  0  0  0  0  0  0  0  0  0  0  0
    4.8640    0.4460    1.1840 C   0  0  0  0  0  0  0  0  0  0  0  0
    5.4080   -0.4650    0.4050 C   0  0  0  0  0  0  0  0  0  0  0  0
    6.7870   -0.5550    0.3590 O   0  0  0  0  0  0  0  0  0  0  0  0
    4.5920   -1.3560   -0.3880 C   0  0  0  0  0  0  0  0  0  0  0  0
    5.1360   -2.2580   -1.1600 C   0  0  0  0  0  0  0  0  0  0  0  0
    6.8750   -2.4140   -1.2550 Cl  0  0  0  0  0  0  0  0  0  0  0  0
    4.1370   -3.3270   -2.1130 Cl  0  0  0  0  0  0  0  0  0  0  0  0
    3.1790   -1.2320   -0.3130 N   0  0  0  0  0  0  0  0  0  0  0  0
    2.5600   -0.2030   -1.1040 C   0  0  0  0  0  0  0  0  0  0  0  0
    1.3060    0.3090   -0.4270 C   0  0  0  0  0  0  0  0  0  0  0  0
    0.4630   -0.8310   -0.1440 N   0  0  0  0  0  0  0  0  0  0  0  0
   -0.9090   -0.6200    0.0770 C   0  0  0  0  0  0  0  0  0  0  0  0
   -1.6510   -1.6000    0.3240 O   0  0  0  0  0  0  0  0  0  0  0  0
   -1.4750    0.7440    0.0190 C   0  0  0  0  0  0  0  0  0  0  0  0
   -2.9650    0.7320    0.2870 C   0  0  0  0  0  0  0  0  0  0  0  0
   -3.6200   -0.0760   -0.6960 N   0  0  0  0  0  0  0  0  0  0  0  0
   -4.8570    0.5100   -1.1740 C   0  0  2  0  0  0  0  0  0  0  0  0
   -5.5210    1.3810   -0.1610 C   0  0  0  0  0  0  0  0  0  0  0  0
   -6.9930    1.1790   -0.4550 C   0  0  0  0  0  0  0  0  0  0  0  0
   -7.0480   -0.3440   -0.6060 C   0  0  0  0  0  0  0  0  0  0  0  0
   -5.8200   -0.6180   -1.4470 C   0  0  0  0  0  0  0  0  0  0  0  0
    0.9960   -2.1720   -0.0820 C   0  0  0  0  0  0  0  0  0  0  0  0
    2.3810   -2.1050    0.5260 C   0  0  0  0  0  0  0  0  0  0  0  0
  1  2  1  0
  2  3  1  0
  3  4  2  3
  4  5  1  0
  4  6  1  0
  6  7  2  3
  6 10  1  0
  7  8  1  0
  7  9  1  0
 10 11  1  0
 10 25  1  0
 11 12  1  0
 12 13  1  0
 13 14  1  0
 13 24  1  0
 14 15  2  0
 14 16  1  0
 16 17  1  0
 17 18  1  0
 19 18  1  1
 19 20  1  0
 19 23  1  0
 20 21  1  0
 21 22  1  0
 22 23  1  0
 24 25  1  0
M  CHG  1  18   1
M  END
