
     RDKit          3D

 11 12  0  0  0  0  0  0  0  0999 V2000
    3.5330    0.6350    0.0400 O   0  0  0  0  0  0  0  0  0  0  0  0
    2.2250    0.1840    0.0020 C   0  0  0  0  0  0  0  0  0  0  0  0
    2.0100   -1.1770   -0.0370 C   0  0  0  0  0  0  0  0  0  0  0  0
    0.7210   -1.6190   -0.0740 C   0  0  0  0  0  0  0  0  0  0  0  0
   -0.3410   -0.7280   -0.0740 C   0  0  0  0  0  0  0  0  0  0  0  0
   -1.6290   -1.1800   -0.1120 C   0  0  0  0  0  0  0  0  0  0  0  0
   -2.6850   -0.2840   -0.1110 C   0  0  0  0  0  0  0  0  0  0  0  0
   -2.4770    1.0790   -0.0730 C   0  0  0  0  0  0  0  0  0  0  0  0
   -1.1820    1.5510   -0.0340 C   0  0  0  0  0  0  0  0  0  0  0  0
   -0.1330    0.6460   -0.0350 C   0  0  0  0  0  0  0  0  0  0  0  0
    1.1730    1.0830    0.0030 C   0  0  0  0  0  0  0  0  0  0  0  0
  1  2  1  0
  2  3  2  0
  2 11  1  0
  3  4  1  0
  4  5  2  0
  5  6  1  0
  5 10  1  0
  6  7  2  0
  7  8  1  0
  8  9  2  0
  9 10  1  0
 10 11  2  0
M  END
