
     RDKit          3D

 25 27  0  0  0  0  0  0  0  0999 V2000
   -6.6770    0.2630    0.0470 C   0  0  0  0  0  0  0  0  0  0  0  0
   -5.1930    0.3370    0.2300 C   0  0  0  0  0  0  0  0  0  0  0  0
   -4.4060   -0.7950    0.1590 C   0  0  0  0  0  0  0  0  0  0  0  0
   -3.0320   -0.7570    0.3260 C   0  0  0  0  0  0  0  0  0  0  0  0
   -2.3910    0.4380    0.5740 C   0  0  0  0  0  0  0  0  0  0  0  0
   -3.1780    1.5680    0.6450 C   0  0  0  0  0  0  0  0  0  0  0  0
   -4.5470    1.5300    0.4780 C   0  0  0  0  0  0  0  0  0  0  0  0
   -5.3520    2.7820    0.5600 C   0  0  0  0  0  0  0  0  0  0  0  0
   -5.8080    3.3030   -1.0780 Cl  0  0  0  0  0  0  0  0  0  0  0  0
   -1.0420    0.1770    0.6950 C   0  0  0  0  0  0  0  0  0  0  0  0
    0.0150    1.2070    0.9680 C   0  0  0  0  0  0  0  0  0  0  0  0
    1.3090    0.5930    1.0300 N   0  0  0  0  0  0  0  0  0  0  0  0
    1.7480    0.2130   -0.3190 C   0  0  0  0  0  0  0  0  0  0  0  0
    3.0800   -0.4540   -0.2420 C   0  0  0  0  0  0  0  0  0  0  0  0
    3.3390   -1.8130   -0.1020 C   0  0  0  0  0  0  0  0  0  0  0  0
    4.6990   -1.9460   -0.0780 C   0  0  0  0  0  0  0  0  0  0  0  0
    5.2290   -0.6790   -0.2040 C   0  0  0  0  0  0  0  0  0  0  0  0
    6.6940   -0.3700   -0.2250 C   0  0  1  0  0  0  0  0  0  0  0  0
    7.2990   -1.2820   -1.0650 O   0  0  0  0  0  0  0  0  0  0  0  0
    6.8540    1.0460   -0.7570 C   0  0  0  0  0  0  0  0  0  0  0  0
    5.9770    2.1180    0.3480 Cl  0  0  0  0  0  0  0  0  0  0  0  0
    4.2390    0.1670   -0.2970 O   0  0  0  0  0  0  0  0  0  0  0  0
   -0.8720   -1.1460    0.5240 N   0  0  0  0  0  0  0  0  0  0  0  0
   -2.0570   -1.6900    0.3060 N   0  0  0  0  0  0  0  0  0  0  0  0
   -2.3000   -3.0990    0.0740 C   0  0  0  0  0  0  0  0  0  0  0  0
  1  2  1  0
  2  3  2  0
  2  7  1  0
  3  4  1  0
  4  5  2  0
  4 24  1  0
  5  6  1  0
  5 10  1  0
  6  7  2  0
  7  8  1  0
  8  9  1  0
 10 11  1  0
 10 23  2  0
 11 12  1  0
 12 13  1  0
 13 14  1  0
 14 15  2  0
 14 22  1  0
 15 16  1  0
 16 17  2  0
 17 18  1  0
 17 22  1  0
 18 19  1  6
 18 20  1  0
 20 21  1  0
 23 24  1  0
 24 25  1  0
M  CHG  1  12   1
M  END
