
     RDKit          3D

 13 13  0  0  0  0  0  0  0  0999 V2000
    3.0460    1.3260   -0.9950 C   0  0  0  0  0  0  0  0  0  0  0  0
    1.8780    0.3550   -1.2180 C   0  0  0  0  0  0  0  0  0  0  0  0
    0.6570    0.9330   -0.7880 N   0  0  0  0  0  0  0  0  0  0  0  0
   -0.3140    0.0250   -0.2790 C   0  0  2  0  0  0  0  0  0  0  0  0
   -1.6730    0.6110   -0.1390 C   0  0  0  0  0  0  0  0  0  0  0  0
   -1.8170    1.7880    0.7580 C   0  0  2  0  0  0  0  0  0  0  0  0
   -3.1780    2.1420    0.7110 F   0  0  0  0  0  0  0  0  0  0  0  0
   -1.1380    2.9050    0.3150 F   0  0  0  0  0  0  0  0  0  0  0  0
   -1.5840    1.5320    2.0930 F   0  0  0  0  0  0  0  0  0  0  0  0
    0.0430   -0.7340    0.9320 C   0  0  0  0  0  0  0  0  0  0  0  0
   -0.8670   -1.9700    0.8860 C   0  0  0  0  0  0  0  0  0  0  0  0
   -0.9010   -2.3030   -0.5690 C   0  0  0  0  0  0  0  0  0  0  0  0
   -0.4430   -1.0870   -1.3390 C   0  0  0  0  0  0  0  0  0  0  0  0
  1  2  1  0
  2  3  1  0
  3  4  1  0
  4  5  1  1
  4 10  1  0
  4 13  1  0
  5  6  1  0
  6  7  1  1
  6  8  1  0
  6  9  1  0
 10 11  1  0
 11 12  1  0
 12 13  1  0
M  CHG  1   3   1
M  END
