
     RDKit          3D

 13 13  0  0  0  0  0  0  0  0999 V2000
    2.3770   -1.8570   -0.9370 F   0  0  0  0  0  0  0  0  0  0  0  0
    2.8880   -0.9130   -0.0330 C   0  0  2  0  0  0  0  0  0  0  0  0
    4.2060   -0.6790   -0.4780 F   0  0  0  0  0  0  0  0  0  0  0  0
    2.9380   -1.4180    1.2230 F   0  0  0  0  0  0  0  0  0  0  0  0
    2.1630    0.3670   -0.2210 C   0  0  0  0  0  0  0  0  0  0  0  0
    0.6760    0.3250   -0.0060 C   0  0  1  0  0  0  0  0  0  0  0  0
    0.3430   -0.0840    1.3820 C   0  0  0  0  0  0  0  0  0  0  0  0
   -0.4830   -1.3480    1.4540 C   0  0  0  0  0  0  0  0  0  0  0  0
   -1.5570   -1.3950    0.3970 C   0  0  0  0  0  0  0  0  0  0  0  0
   -2.1990   -0.0650    0.1300 C   0  0  0  0  0  0  0  0  0  0  0  0
   -1.8640    0.4000   -1.2320 C   0  0  0  0  0  0  0  0  0  0  0  0
   -0.9110    1.5380   -1.3400 C   0  0  0  0  0  0  0  0  0  0  0  0
    0.1030    1.6370   -0.3460 N   0  0  0  0  0  0  0  0  0  0  0  0
  2  1  1  6
  2  3  1  0
  2  4  1  0
  2  5  1  0
  6  5  1  1
  6  7  1  0
  6 13  1  0
  7  8  1  0
  8  9  1  0
  9 10  1  0
 10 11  1  0
 11 12  1  0
 12 13  1  0
M  CHG  1  13   1
M  END
