
     RDKit          3D

 13 12  0  0  0  0  0  0  0  0999 V2000
    1.6610   -1.9160    0.9260 C   0  0  0  0  0  0  0  0  0  0  0  0
    1.8340   -0.5680    0.3180 C   0  0  0  0  0  0  0  0  0  0  0  0
    3.0220    0.0380    0.3980 C   0  0  0  0  0  0  0  0  0  0  0  0
    3.2860    1.3720   -0.1740 C   0  0  2  0  0  0  0  0  0  0  0  0
    4.5490    1.8010    0.1810 F   0  0  0  0  0  0  0  0  0  0  0  0
    2.4040    2.3310    0.2830 F   0  0  0  0  0  0  0  0  0  0  0  0
    3.1980    1.3700   -1.5720 F   0  0  0  0  0  0  0  0  0  0  0  0
    0.6760    0.0870   -0.3740 C   0  0  0  0  0  0  0  0  0  0  0  0
   -0.4420    0.2920    0.4930 N   0  0  0  0  0  0  0  0  0  0  0  0
   -1.7180    0.1330   -0.1730 C   0  0  1  0  0  0  0  0  0  0  0  0
   -2.0630   -1.3390   -0.2750 C   0  0  0  0  0  0  0  0  0  0  0  0
   -2.7680    0.7770    0.7120 C   0  0  0  0  0  0  0  0  0  0  0  0
   -1.7810    0.8380   -1.4950 C   0  0  0  0  0  0  0  0  0  0  0  0
  1  2  1  0
  2  3  2  3
  2  8  1  0
  3  4  1  0
  4  5  1  6
  4  6  1  0
  4  7  1  0
  8  9  1  0
  9 10  1  0
 10 11  1  6
 10 12  1  0
 10 13  1  0
M  CHG  1   9   1
M  END
