
     RDKit          3D

 13 12  0  0  0  0  0  0  0  0999 V2000
    2.8020    1.6820   -0.2000 C   0  0  0  0  0  0  0  0  0  0  0  0
    2.9070    0.2100   -0.2420 C   0  0  0  0  0  0  0  0  0  0  0  0
    1.9020   -0.6040    0.0580 C   0  0  0  0  0  0  0  0  0  0  0  0
    0.5710   -0.1040    0.4670 C   0  0  0  0  0  0  0  0  0  0  0  0
   -0.4660   -0.5550   -0.4450 N   0  0  0  0  0  0  0  0  0  0  0  0
   -1.7050    0.1460   -0.0900 C   0  0  1  0  0  0  0  0  0  0  0  0
   -2.7650   -0.2830   -1.0840 C   0  0  0  0  0  0  0  0  0  0  0  0
   -2.1680   -0.3880    1.2720 C   0  0  0  0  0  0  0  0  0  0  0  0
   -1.5020    1.6290   -0.0550 C   0  0  0  0  0  0  0  0  0  0  0  0
    2.0830   -2.0780   -0.0070 C   0  0  2  0  0  0  0  0  0  0  0  0
    3.3790   -2.3300   -0.4020 F   0  0  0  0  0  0  0  0  0  0  0  0
    1.2490   -2.6700   -0.9340 F   0  0  0  0  0  0  0  0  0  0  0  0
    1.9260   -2.6660    1.2410 F   0  0  0  0  0  0  0  0  0  0  0  0
  1  2  1  0
  2  3  2  3
  3  4  1  0
  3 10  1  0
  4  5  1  0
  5  6  1  0
  6  7  1  6
  6  8  1  0
  6  9  1  0
 10 11  1  6
 10 12  1  0
 10 13  1  0
M  CHG  1   5   1
M  END
