
     RDKit          3D

 13 13  0  0  0  0  0  0  0  0999 V2000
    0.0250   -1.6980   -1.3410 C   0  0  0  0  0  0  0  0  0  0  0  0
   -0.5200   -0.6500   -0.4320 C   0  0  2  0  0  0  0  0  0  0  0  0
   -1.5120   -1.2800    0.5040 C   0  0  0  0  0  0  0  0  0  0  0  0
   -1.1580    0.4650   -1.2440 C   0  0  0  0  0  0  0  0  0  0  0  0
   -1.6750    1.5840   -0.4180 C   0  0  0  0  0  0  0  0  0  0  0  0
   -0.8280    1.9220    0.7510 C   0  0  0  0  0  0  0  0  0  0  0  0
    0.2220    1.1860    1.0870 C   0  0  0  0  0  0  0  0  0  0  0  0
    0.9820    1.5290    2.1750 F   0  0  0  0  0  0  0  0  0  0  0  0
    0.5920    0.0090    0.3190 C   0  0  0  0  0  0  0  0  0  0  0  0
    1.7900   -0.3980    0.3130 N   0  0  0  0  0  0  0  0  0  0  0  0
    2.8910    0.1850    1.0050 C   0  0  2  0  0  0  0  0  0  0  0  0
    3.0710    1.5270    0.7310 F   0  0  0  0  0  0  0  0  0  0  0  0
    4.0540   -0.5240    0.7360 F   0  0  0  0  0  0  0  0  0  0  0  0
  2  1  1  6
  2  3  1  0
  2  4  1  0
  2  9  1  0
  4  5  1  0
  5  6  1  0
  6  7  2  0
  7  8  1  0
  7  9  1  0
  9 10  2  3
 10 11  1  0
 11 12  1  6
 11 13  1  0
M  CHG  1  10   1
M  END
