
     RDKit          3D

  6  5  0  0  0  0  0  0  0  0999 V2000
    3.0570   -0.4530    0.4790 N   0  0  0  0  0  0  0  0  0  0  0  0
    1.9350   -0.8970    0.0260 C   0  0  0  0  0  0  0  0  0  0  0  0
    0.8740    0.0890   -0.1830 C   0  0  0  0  0  0  0  0  0  0  0  0
   -0.2910   -0.3220   -0.6450 C   0  0  0  0  0  0  0  0  0  0  0  0
   -1.3570    0.6710   -0.8540 C   0  0  0  0  0  0  0  0  0  0  0  0
   -2.5410    0.3980   -0.0660 N   0  0  0  0  0  0  0  0  0  0  0  0
  1  2  2  0
  2  3  1  0
  3  4  2  3
  4  5  1  0
  5  6  1  0
M  CHG  2   1   1   6   1
M  END
