
     RDKit          3D

 21 21  0  0  0  0  0  0  0  0999 V2000
    5.2950    0.2670   -0.3600 C   0  0  0  0  0  0  0  0  0  0  0  0
    4.6450   -0.9410   -0.4810 O   0  0  0  0  0  0  0  0  0  0  0  0
    3.2900   -0.7620   -0.6830 C   0  0  0  0  0  0  0  0  0  0  0  0
    2.6300   -0.0360    0.4430 C   0  0  2  0  0  0  0  0  0  0  0  0
    2.8080   -0.7600    1.6420 O   0  0  0  0  0  0  0  0  0  0  0  0
    1.1090    0.0820    0.2520 C   0  0  1  0  0  0  0  0  0  0  0  0
    0.5410   -1.2690    0.1930 C   0  0  0  0  0  0  0  0  0  0  0  0
    0.0470   -1.6450   -1.0520 O   0  0  0  0  0  0  0  0  0  0  0  0
   -1.1630   -2.3310   -0.9570 C   0  0  0  0  0  0  0  0  0  0  0  0
   -2.2110   -1.7610   -1.8530 C   0  0  0  0  0  0  0  0  0  0  0  0
   -2.3970   -2.4400   -2.9330 O   0  0  0  0  0  0  0  0  0  0  0  0
   -2.9230   -0.6550   -1.6150 O   0  0  0  0  0  0  0  0  0  0  0  0
   -4.0330   -0.3450   -0.8230 C   0  0  0  0  0  0  0  0  0  0  0  0
   -3.7640    0.9270    0.0290 C   0  0  2  0  0  0  0  0  0  0  0  0
   -4.0300    2.0080   -0.7870 O   0  0  0  0  0  0  0  0  0  0  0  0
   -2.2920    0.7630    0.3280 C   0  0  1  0  0  0  0  0  0  0  0  0
   -1.6520    0.9100   -0.8830 O   0  0  0  0  0  0  0  0  0  0  0  0
   -1.6940    1.5870    1.3930 C   0  0  0  0  0  0  0  0  0  0  0  0
   -0.5830    0.8240    1.8550 O   0  0  0  0  0  0  0  0  0  0  0  0
    0.5750    1.0870    1.1840 C   0  0  1  0  0  0  0  0  0  0  0  0
    1.5470    1.2780    2.2020 O   0  0  0  0  0  0  0  0  0  0  0  0
  1  2  1  0
  2  3  1  0
  3  4  1  0
  4  5  1  1
  4  6  1  0
  6  7  1  1
  6 20  1  0
  7  8  1  0
  8  9  1  0
  9 10  1  0
 10 11  2  0
 10 12  1  0
 12 13  1  0
 13 14  1  0
 14 15  1  6
 14 16  1  0
 16 17  1  6
 16 18  1  0
 18 19  1  0
 19 20  1  0
 20 21  1  1
M  END
