
     RDKit          3D

 22 22  0  0  0  0  0  0  0  0999 V2000
    2.7650   -1.3270   -1.6610 O   0  0  0  0  0  0  0  0  0  0  0  0
    2.1350   -0.9900   -0.5770 C   0  0  0  0  0  0  0  0  0  0  0  0
    2.6960    0.0680    0.0680 O   0  0  0  0  0  0  0  0  0  0  0  0
    3.8440    0.7680   -0.3500 C   0  0  1  0  0  0  0  0  0  0  0  0
    3.6430    2.1170   -0.4970 O   0  0  0  0  0  0  0  0  0  0  0  0
    4.9080    0.4870    0.6750 C   0  0  0  0  0  0  0  0  0  0  0  0
    5.4450    1.4700    1.2350 O   0  0  0  0  0  0  0  0  0  0  0  0
    5.2850   -0.8030    0.9950 O   0  0  0  0  0  0  0  0  0  0  0  0
    0.9670   -1.7870   -0.2360 C   0  0  2  0  0  0  0  0  0  0  0  0
    1.1390   -3.0890   -0.8940 O   0  0  0  0  0  0  0  0  0  0  0  0
   -0.3920   -1.3680   -0.5720 C   0  0  0  0  0  0  0  0  0  0  0  0
   -1.0360   -0.1400   -0.0860 C   0  0  1  0  0  0  0  0  0  0  0  0
   -0.3730    1.1100   -0.5130 C   0  0  0  0  0  0  0  0  0  0  0  0
   -0.2960    1.1920   -2.0100 C   0  0  0  0  0  0  0  0  0  0  0  0
    0.3440    2.3850   -2.4180 O   0  0  0  0  0  0  0  0  0  0  0  0
   -2.5050   -0.0510   -0.4620 C   0  0  0  0  0  0  0  0  0  0  0  0
   -3.2440    0.7300    0.6010 C   0  0  1  0  0  0  0  0  0  0  0  0
   -4.4860    1.1580    0.1380 O   0  0  0  0  0  0  0  0  0  0  0  0
   -3.3940   -0.2410    1.7760 C   0  0  2  0  0  0  0  0  0  0  0  0
   -3.6300    0.4050    2.9640 O   0  0  0  0  0  0  0  0  0  0  0  0
   -2.0610   -1.0010    1.7850 C   0  0  0  0  0  0  0  0  0  0  0  0
   -1.0220   -0.2360    1.3400 O   0  0  0  0  0  0  0  0  0  0  0  0
  1  2  2  0
  2  3  1  0
  2  9  1  0
  3  4  1  0
  4  5  1  1
  4  6  1  0
  6  7  2  0
  6  8  1  0
  9 10  1  6
  9 11  1  0
 12 11  1  6
 12 13  1  0
 12 16  1  0
 12 22  1  0
 13 14  1  0
 14 15  1  0
 16 17  1  0
 17 18  1  6
 17 19  1  0
 19 20  1  1
 19 21  1  0
 21 22  1  0
M  END
