
     RDKit          3D

 22 22  0  0  0  0  0  0  0  0999 V2000
   -3.2360   -2.0540    2.1630 C   0  0  0  0  0  0  0  0  0  0  0  0
   -3.0490   -1.1550    0.9610 C   0  0  2  0  0  0  0  0  0  0  0  0
   -1.6190   -1.2190    0.5370 C   0  0  0  0  0  0  0  0  0  0  0  0
   -1.2820   -0.0630   -0.4200 C   0  0  2  0  0  0  0  0  0  0  0  0
   -2.2570   -0.0580   -1.5550 C   0  0  0  0  0  0  0  0  0  0  0  0
   -2.0740    1.0020   -2.5720 C   0  0  1  0  0  0  0  0  0  0  0  0
   -0.8210    0.8990   -3.1680 O   0  0  0  0  0  0  0  0  0  0  0  0
   -3.0010    0.8160   -3.6250 O   0  0  0  0  0  0  0  0  0  0  0  0
    0.1490   -0.2300   -0.7760 C   0  0  2  0  0  0  0  0  0  0  0  0
    0.3410   -1.4240   -1.5350 O   0  0  0  0  0  0  0  0  0  0  0  0
    0.8630   -0.4800    0.4010 O   0  0  0  0  0  0  0  0  0  0  0  0
    2.0180    0.2880    0.5270 C   0  0  1  0  0  0  0  0  0  0  0  0
    2.0870    1.0950    1.7690 C   0  0  0  0  0  0  0  0  0  0  0  0
    1.0030    1.9980    1.8780 O   0  0  0  0  0  0  0  0  0  0  0  0
    3.2430   -0.6330    0.3330 C   0  0  1  0  0  0  0  0  0  0  0  0
    3.0530   -1.1560   -0.9820 O   0  0  0  0  0  0  0  0  0  0  0  0
    4.5050    0.1400    0.2700 C   0  0  2  0  0  0  0  0  0  0  0  0
    4.9310    0.7120    1.4530 O   0  0  0  0  0  0  0  0  0  0  0  0
    4.4790    1.1660   -0.6770 O   0  0  0  0  0  0  0  0  0  0  0  0
   -1.4390    1.1050    0.3160 O   0  0  0  0  0  0  0  0  0  0  0  0
   -2.2620    0.9780    1.4090 C   0  0  0  0  0  0  0  0  0  0  0  0
   -3.3610    0.1680    1.2350 O   0  0  0  0  0  0  0  0  0  0  0  0
  2  1  1  1
  2  3  1  0
  2 22  1  0
  3  4  1  0
  4  5  1  6
  4  9  1  0
  4 20  1  0
  5  6  1  0
  6  7  1  6
  6  8  1  0
  9 10  1  6
  9 11  1  0
 11 12  1  0
 12 13  1  1
 12 15  1  0
 13 14  1  0
 15 16  1  6
 15 17  1  0
 17 18  1  1
 17 19  1  0
 20 21  1  0
 21 22  1  0
M  END
