
     RDKit          3D

 17 18  0  0  0  0  0  0  0  0999 V2000
   -4.4370   -0.2090    0.0630 C   0  0  0  0  0  0  0  0  0  0  0  0
   -2.9450   -0.1590    0.0880 C   0  0  0  0  0  0  0  0  0  0  0  0
   -2.1720   -1.2990    0.0510 C   0  0  0  0  0  0  0  0  0  0  0  0
   -0.7690   -1.2390    0.0760 C   0  0  0  0  0  0  0  0  0  0  0  0
    0.0190   -2.4900    0.0460 C   0  0  0  0  0  0  0  0  0  0  0  0
   -0.1500   -0.0240    0.1370 C   0  0  0  0  0  0  0  0  0  0  0  0
    1.2960    0.0740    0.1520 C   0  0  0  0  0  0  0  0  0  0  0  0
    1.9340    0.8730    1.1160 C   0  0  0  0  0  0  0  0  0  0  0  0
    3.2960    1.0170    1.1760 C   0  0  0  0  0  0  0  0  0  0  0  0
    4.0640    0.3610    0.2690 C   0  0  0  0  0  0  0  0  0  0  0  0
    5.4520    0.5010    0.3230 O   0  0  0  0  0  0  0  0  0  0  0  0
    3.5090   -0.4430   -0.7080 C   0  0  0  0  0  0  0  0  0  0  0  0
    4.3150   -1.1030   -1.6240 O   0  0  0  0  0  0  0  0  0  0  0  0
    2.1380   -0.5660   -0.7420 C   0  0  0  0  0  0  0  0  0  0  0  0
   -0.9380    1.1270    0.1740 C   0  0  0  0  0  0  0  0  0  0  0  0
   -2.3150    1.0740    0.1510 C   0  0  0  0  0  0  0  0  0  0  0  0
   -3.1650    2.2900    0.1900 C   0  0  0  0  0  0  0  0  0  0  0  0
  1  2  1  0
  2  3  2  0
  2 16  1  0
  3  4  1  0
  4  5  1  0
  4  6  2  0
  6  7  1  0
  6 15  1  0
  7  8  2  0
  7 14  1  0
  8  9  1  0
  9 10  2  0
 10 11  1  0
 10 12  1  0
 12 13  1  0
 12 14  2  0
 15 16  2  0
 16 17  1  0
M  END
