
     RDKit          3D

 10 10  0  0  0  0  0  0  0  0999 V2000
    2.7700   -1.4440    0.2340 C   0  0  0  0  0  0  0  0  0  0  0  0
    2.2430   -0.1760   -0.0570 O   0  0  0  0  0  0  0  0  0  0  0  0
    0.8800    0.0250   -0.0140 C   0  0  0  0  0  0  0  0  0  0  0  0
    0.3360    1.2740   -0.2990 C   0  0  0  0  0  0  0  0  0  0  0  0
   -1.0230    1.4950   -0.2620 C   0  0  0  0  0  0  0  0  0  0  0  0
   -1.5350    2.7820   -0.5590 N   0  0  0  0  0  0  0  0  0  0  0  0
   -1.8370    0.4270    0.0700 C   0  0  0  0  0  0  0  0  0  0  0  0
   -1.2870   -0.8020    0.3500 C   0  0  0  0  0  0  0  0  0  0  0  0
   -2.1100   -1.8920    0.6880 O   0  0  0  0  0  0  0  0  0  0  0  0
    0.0710   -1.0410    0.3170 C   0  0  0  0  0  0  0  0  0  0  0  0
  1  2  1  0
  2  3  1  0
  3  4  2  0
  3 10  1  0
  4  5  1  0
  5  6  1  0
  5  7  2  0
  7  8  1  0
  8  9  1  0
  8 10  2  0
M  END
