
     RDKit          3D

 13 14  0  0  0  0  0  0  0  0999 V2000
    3.9640   -0.6740   -0.3710 C   0  0  0  0  0  0  0  0  0  0  0  0
    2.5950   -0.9430   -0.3220 O   0  0  0  0  0  0  0  0  0  0  0  0
    1.5980    0.0180   -0.2520 C   0  0  0  0  0  0  0  0  0  0  0  0
    1.9750    1.2150   -0.2320 O   0  0  0  0  0  0  0  0  0  0  0  0
    0.1870   -0.3620   -0.2040 C   0  0  0  0  0  0  0  0  0  0  0  0
   -0.1350   -1.7040   -0.2300 C   0  0  0  0  0  0  0  0  0  0  0  0
   -1.4700   -2.0490   -0.1850 C   0  0  0  0  0  0  0  0  0  0  0  0
   -2.4350   -1.0640   -0.1160 C   0  0  0  0  0  0  0  0  0  0  0  0
   -2.1160    0.2770   -0.0900 C   0  0  0  0  0  0  0  0  0  0  0  0
   -2.8610    1.4130   -0.0250 N   0  0  0  0  0  0  0  0  0  0  0  0
   -2.0540    2.4810   -0.0280 C   0  0  0  0  0  0  0  0  0  0  0  0
   -0.7580    2.0130   -0.0950 C   0  0  0  0  0  0  0  0  0  0  0  0
   -0.7780    0.6260   -0.1350 C   0  0  0  0  0  0  0  0  0  0  0  0
  1  2  1  0
  2  3  1  0
  3  4  2  0
  3  5  1  0
  5  6  2  0
  5 13  1  0
  6  7  1  0
  7  8  2  0
  8  9  1  0
  9 10  1  0
  9 13  2  0
 10 11  1  0
 11 12  2  0
 12 13  1  0
M  END
