
     RDKit          3D

 26 27  0  0  0  0  0  0  0  0999 V2000
    6.9300   -1.1600    1.6850 C   0  0  0  0  0  0  0  0  0  0  0  0
    6.2010   -0.1440    0.8820 C   0  0  0  0  0  0  0  0  0  0  0  0
    4.8200   -0.2360    0.6800 C   0  0  0  0  0  0  0  0  0  0  0  0
    4.1130    0.6820   -0.0540 C   0  0  0  0  0  0  0  0  0  0  0  0
    2.7280    0.6480   -0.2960 N   0  0  0  0  0  0  0  0  0  0  0  0
    1.7900   -0.2880    0.1390 C   0  0  0  0  0  0  0  0  0  0  0  0
    2.1760   -1.2470    0.8390 O   0  0  0  0  0  0  0  0  0  0  0  0
    0.3850   -0.1820   -0.1980 N   0  0  0  0  0  0  0  0  0  0  0  0
   -0.5580   -1.1740    0.2720 C   0  0  0  0  0  0  0  0  0  0  0  0
   -1.9280   -0.8330   -0.2110 C   0  0  1  0  0  0  0  0  0  0  0  0
   -1.9640   -0.8030   -1.6020 O   0  0  0  0  0  0  0  0  0  0  0  0
   -2.9750   -1.8110    0.2440 C   0  0  0  0  0  0  0  0  0  0  0  0
   -4.3170   -1.4680   -0.3010 C   0  0  2  0  0  0  0  0  0  0  0  0
   -4.5510   -2.2290   -1.6050 C   0  0  0  0  0  0  0  0  0  0  0  0
   -4.4950   -3.6000   -1.4060 O   0  0  0  0  0  0  0  0  0  0  0  0
   -4.5600   -0.0190   -0.5430 C   0  0  0  0  0  0  0  0  0  0  0  0
   -3.7000    0.8510    0.2120 N   0  0  0  0  0  0  0  0  0  0  0  0
   -4.1720    2.0380    0.8720 C   0  0  2  0  0  0  0  0  0  0  0  0
   -5.1560    1.6200    1.8740 N   0  0  0  0  0  0  0  0  0  0  0  0
   -4.7130    2.9640   -0.0170 O   0  0  0  0  0  0  0  0  0  0  0  0
   -2.3240    0.5050    0.2990 C   0  0  0  0  0  0  0  0  0  0  0  0
   -1.5210    1.3350    0.7940 O   0  0  0  0  0  0  0  0  0  0  0  0
    4.8670    1.6960   -0.5740 N   0  0  0  0  0  0  0  0  0  0  0  0
    6.1820    1.8130   -0.4010 C   0  0  0  0  0  0  0  0  0  0  0  0
    6.9390    2.8880   -0.9600 N   0  0  0  0  0  0  0  0  0  0  0  0
    6.8380    0.8940    0.3240 N   0  0  0  0  0  0  0  0  0  0  0  0
  1  2  1  0
  2  3  2  0
  2 26  1  0
  3  4  1  0
  4  5  1  0
  4 23  2  0
  5  6  1  0
  6  7  2  0
  6  8  1  0
  8  9  1  0
  9 10  1  0
 10 11  1  6
 10 12  1  0
 10 21  1  0
 12 13  1  0
 13 14  1  6
 13 16  1  0
 14 15  1  0
 16 17  1  0
 17 18  1  0
 17 21  1  0
 18 19  1  1
 18 20  1  0
 21 22  2  0
 23 24  1  0
 24 25  1  0
 24 26  2  0
M  CHG  1  26   1
M  END
