
     RDKit          3D

 17 17  0  0  0  0  0  0  0  0999 V2000
    5.8870    0.2890    0.3020 C   0  0  0  0  0  0  0  0  0  0  0  0
    4.7040    0.2080    0.7500 C   0  0  0  0  0  0  0  0  0  0  0  0
    3.5320   -0.4350    0.0550 C   0  0  0  0  0  0  0  0  0  0  0  0
    2.6130    0.5940   -0.0970 O   0  0  0  0  0  0  0  0  0  0  0  0
    1.2700    0.4830    0.0100 C   0  0  0  0  0  0  0  0  0  0  0  0
    0.6850   -0.6920    0.3990 C   0  0  0  0  0  0  0  0  0  0  0  0
   -0.6730   -0.7770    0.5430 C   0  0  0  0  0  0  0  0  0  0  0  0
   -1.3040   -2.0560    0.8420 C   0  0  0  0  0  0  0  0  0  0  0  0
   -1.2890   -3.0320   -0.1820 N   0  0  0  0  0  0  0  0  0  0  0  0
   -2.0000   -2.4020    2.2450 S   0  0  0  0  0  0  0  0  0  0  0  0
   -1.4920    0.3210    0.3060 C   0  0  0  0  0  0  0  0  0  0  0  0
   -2.9290    0.3030    0.6260 C   0  0  0  0  0  0  0  0  0  0  0  0
   -3.6720    0.4350   -0.5560 N   0  0  0  0  0  0  0  0  0  0  0  0
   -3.3900    1.4610   -1.4740 C   0  0  0  0  0  0  0  0  0  0  0  0
   -0.8890    1.4980   -0.0960 C   0  0  0  0  0  0  0  0  0  0  0  0
    0.4810    1.6120   -0.2550 C   0  0  0  0  0  0  0  0  0  0  0  0
    1.2740    3.0700   -0.7860 Cl  0  0  0  0  0  0  0  0  0  0  0  0
  1  2  2  0
  2  3  1  0
  3  4  1  0
  4  5  1  0
  5  6  2  0
  5 16  1  0
  6  7  1  0
  7  8  1  0
  7 11  2  0
  8  9  1  0
  8 10  2  0
 11 12  1  0
 11 15  1  0
 12 13  1  0
 13 14  1  0
 15 16  2  0
 16 17  1  0
M  CHG  1  13   1
M  END
