
     RDKit          3D

 17 17  0  0  0  0  0  0  0  0999 V2000
   -3.3140    0.2070   -2.7540 C   0  0  0  0  0  0  0  0  0  0  0  0
   -3.5160   -0.8450   -1.7280 C   0  0  0  0  0  0  0  0  0  0  0  0
   -2.6960   -0.8720   -0.6850 C   0  0  0  0  0  0  0  0  0  0  0  0
   -1.6590    0.0870   -0.5600 N   0  0  0  0  0  0  0  0  0  0  0  0
   -0.7230    0.0770    0.5320 C   0  0  0  0  0  0  0  0  0  0  0  0
    0.3080    1.0910    0.5910 C   0  0  0  0  0  0  0  0  0  0  0  0
    1.0060    1.1620   -0.7800 C   0  0  0  0  0  0  0  0  0  0  0  0
    2.2360    2.4550   -0.6130 S   0  0  0  0  0  0  0  0  0  0  0  0
    3.5440    1.9260    0.5140 C   0  0  0  0  0  0  0  0  0  0  0  0
    4.3110    0.8680   -0.1790 C   0  0  0  0  0  0  0  0  0  0  0  0
    4.0220   -0.4840    0.0500 N   0  0  0  0  0  0  0  0  0  0  0  0
    5.2210    1.1890   -0.9690 O   0  0  0  0  0  0  0  0  0  0  0  0
   -0.8550   -0.8600    1.4230 C   0  0  0  0  0  0  0  0  0  0  0  0
    0.0350   -0.9690    2.5730 C   0  0  0  0  0  0  0  0  0  0  0  0
   -1.9240   -1.8860    1.3380 C   0  0  0  0  0  0  0  0  0  0  0  0
   -2.7890   -1.8920    0.3510 C   0  0  0  0  0  0  0  0  0  0  0  0
   -4.0750   -3.0770    0.2130 Cl  0  0  0  0  0  0  0  0  0  0  0  0
  1  2  1  0
  2  3  2  3
  3  4  1  0
  3 16  1  0
  4  5  1  0
  5  6  1  0
  5 13  2  0
  6  7  1  0
  7  8  1  0
  8  9  1  0
  9 10  1  0
 10 11  1  0
 10 12  2  0
 13 14  1  0
 13 15  1  0
 15 16  2  0
 16 17  1  0
M  END
