
     RDKit          3D

 17 17  0  0  0  0  0  0  0  0999 V2000
   -2.4170    2.5920   -1.6090 C   0  0  0  0  0  0  0  0  0  0  0  0
   -1.9650    1.7930   -0.4560 C   0  0  0  0  0  0  0  0  0  0  0  0
   -2.3050    0.5250   -0.3570 C   0  0  0  0  0  0  0  0  0  0  0  0
   -3.3080   -0.3730   -1.5340 S   0  0  0  0  0  0  0  0  0  0  0  0
   -3.4630   -1.8750   -0.5300 C   0  0  0  0  0  0  0  0  0  0  0  0
   -2.5420   -1.5990    0.5890 C   0  0  0  0  0  0  0  0  0  0  0  0
   -2.3080   -2.7210    1.5990 C   0  0  0  0  0  0  0  0  0  0  0  0
   -3.8640   -3.1570    2.3340 Cl  0  0  0  0  0  0  0  0  0  0  0  0
   -1.9930   -0.4490    0.6630 C   0  0  0  0  0  0  0  0  0  0  0  0
   -1.0690   -0.0720    1.7210 N   0  0  0  0  0  0  0  0  0  0  0  0
    0.3120   -0.4180    1.6720 C   0  0  0  0  0  0  0  0  0  0  0  0
    0.9550    0.3820    0.5340 C   0  0  0  0  0  0  0  0  0  0  0  0
    2.4150   -0.0080    0.5030 C   0  0  0  0  0  0  0  0  0  0  0  0
    3.1210    0.7430   -0.6060 C   0  0  0  0  0  0  0  0  0  0  0  0
    4.5380    0.3350   -0.6050 C   0  0  0  0  0  0  0  0  0  0  0  0
    5.4110    0.9020   -1.5640 N   0  0  0  0  0  0  0  0  0  0  0  0
    4.9500   -0.4940    0.2270 O   0  0  0  0  0  0  0  0  0  0  0  0
  1  2  1  0
  2  3  2  3
  3  4  1  0
  3  9  1  0
  4  5  1  0
  5  6  1  0
  6  7  1  0
  6  9  2  0
  7  8  1  0
  9 10  1  0
 10 11  1  0
 11 12  1  0
 12 13  1  0
 13 14  1  0
 14 15  1  0
 15 16  1  0
 15 17  2  0
M  END
