
     RDKit          3D

 21 22  0  0  0  0  0  0  0  0999 V2000
    1.8800   -1.7640    1.4370 C   0  0  0  0  0  0  0  0  0  0  0  0
    2.4830   -0.5720    0.8660 N   0  0  0  0  0  0  0  0  0  0  0  0
    2.9970    0.3280    1.8410 C   0  0  0  0  0  0  0  0  0  0  0  0
    2.9230    0.0330    3.0450 O   0  0  0  0  0  0  0  0  0  0  0  0
    3.6060    1.5640    1.6020 O   0  0  0  0  0  0  0  0  0  0  0  0
    3.8500    2.1770    0.3490 C   0  0  0  0  0  0  0  0  0  0  0  0
    2.7570    1.8370   -0.4720 O   0  0  0  0  0  0  0  0  0  0  0  0
    2.9870    0.6910   -1.1890 C   0  0  0  0  0  0  0  0  0  0  0  0
    2.4320   -0.5550   -0.5710 C   0  0  1  0  0  0  0  0  0  0  0  0
    3.1970   -1.6280   -1.0250 O   0  0  0  0  0  0  0  0  0  0  0  0
    1.0280   -0.8040   -1.0100 C   0  0  0  0  0  0  0  0  0  0  0  0
    0.7310   -1.8350   -1.6650 O   0  0  0  0  0  0  0  0  0  0  0  0
    0.0010    0.0830   -0.7170 O   0  0  0  0  0  0  0  0  0  0  0  0
   -1.3000   -0.2210   -1.1660 C   0  0  0  0  0  0  0  0  0  0  0  0
   -2.2840    0.8570   -0.7540 C   0  0  2  0  0  0  0  0  0  0  0  0
   -2.3000    0.9630    0.7560 C   0  0  0  0  0  0  0  0  0  0  0  0
   -3.1980   -0.1500    1.2260 C   0  0  2  0  0  0  0  0  0  0  0  0
   -2.4860   -1.2660    1.6660 O   0  0  0  0  0  0  0  0  0  0  0  0
   -4.0650   -0.5280    0.0350 C   0  0  0  0  0  0  0  0  0  0  0  0
   -3.7040    0.4650   -1.0550 C   0  0  2  0  0  0  0  0  0  0  0  0
   -3.8000   -0.2170   -2.2780 O   0  0  0  0  0  0  0  0  0  0  0  0
  1  2  1  0
  2  3  1  0
  2  9  1  0
  3  4  2  0
  3  5  1  0
  5  6  1  0
  6  7  1  0
  7  8  1  0
  8  9  1  0
  9 10  1  6
  9 11  1  0
 11 12  2  0
 11 13  1  0
 13 14  1  0
 15 14  1  1
 15 16  1  0
 15 20  1  0
 16 17  1  0
 17 18  1  6
 17 19  1  0
 19 20  1  0
 20 21  1  6
M  END
