
     RDKit          3D

 21 22  0  0  0  0  0  0  0  0999 V2000
   -1.6050    3.2630    1.7230 C   0  0  0  0  0  0  0  0  0  0  0  0
   -0.8440    2.1960    1.2770 O   0  0  0  0  0  0  0  0  0  0  0  0
   -1.4390    1.5040    0.2300 C   0  0  1  0  0  0  0  0  0  0  0  0
   -0.6860    1.6360   -0.9740 O   0  0  0  0  0  0  0  0  0  0  0  0
    0.6470    1.9000   -1.0310 C   0  0  0  0  0  0  0  0  0  0  0  0
    1.1300    2.6780   -1.8800 O   0  0  0  0  0  0  0  0  0  0  0  0
    1.5630    1.2550   -0.0670 C   0  0  0  0  0  0  0  0  0  0  0  0
    2.6690    0.5920   -0.7290 N   0  0  0  0  0  0  0  0  0  0  0  0
    4.0070    1.0980   -0.6490 C   0  0  0  0  0  0  0  0  0  0  0  0
    4.1720    2.1490    0.0270 O   0  0  0  0  0  0  0  0  0  0  0  0
    2.4600   -0.6120   -1.4990 C   0  0  0  0  0  0  0  0  0  0  0  0
    3.2680   -0.7590   -2.4740 O   0  0  0  0  0  0  0  0  0  0  0  0
    1.4630   -1.5020   -1.1800 O   0  0  0  0  0  0  0  0  0  0  0  0
    1.2200   -1.9920    0.0960 C   0  0  2  0  0  0  0  0  0  0  0  0
    0.8070   -3.4790    0.1080 C   0  0  0  0  0  0  0  0  0  0  0  0
   -0.1410   -2.3280    0.4480 C   0  0  2  0  0  0  0  0  0  0  0  0
   -1.2180   -2.1130   -0.5390 C   0  0  1  0  0  0  0  0  0  0  0  0
   -2.3520   -2.8640   -0.1490 O   0  0  0  0  0  0  0  0  0  0  0  0
   -1.6650   -0.7120   -0.7390 C   0  0  0  0  0  0  0  0  0  0  0  0
   -1.7500    0.0820    0.5500 C   0  0  2  0  0  0  0  0  0  0  0  0
   -3.0130    0.0170    1.1240 O   0  0  0  0  0  0  0  0  0  0  0  0
  1  2  1  0
  3  2  1  1
  3  4  1  0
  3 20  1  0
  4  5  1  0
  5  6  2  0
  5  7  1  0
  7  8  1  0
  8  9  1  0
  8 11  1  0
  9 10  2  0
 11 12  2  0
 11 13  1  0
 13 14  1  0
 14 15  1  6
 14 16  1  0
 16 15  1  6
 16 17  1  0
 17 18  1  1
 17 19  1  0
 19 20  1  0
 20 21  1  6
M  END
