
     RDKit          3D

 20 21  0  0  0  0  0  0  0  0999 V2000
    5.2040   -0.5900    1.3330 C   0  0  0  0  0  0  0  0  0  0  0  0
    5.0580    0.6550    0.4990 C   0  0  0  0  0  0  0  0  0  0  0  0
    3.8680    0.7150   -0.2260 O   0  0  0  0  0  0  0  0  0  0  0  0
    2.6050    0.7000    0.3380 C   0  0  0  0  0  0  0  0  0  0  0  0
    2.5290    0.6280    1.5860 O   0  0  0  0  0  0  0  0  0  0  0  0
    1.4280    0.7700   -0.5550 C   0  0  1  0  0  0  0  0  0  0  0  0
    1.8570    0.8410   -1.8640 O   0  0  0  0  0  0  0  0  0  0  0  0
    0.5300   -0.4580   -0.3700 C   0  0  1  0  0  0  0  0  0  0  0  0
    0.1360   -0.4810    0.9270 O   0  0  0  0  0  0  0  0  0  0  0  0
   -1.1860   -0.2810    1.2110 C   0  0  0  0  0  0  0  0  0  0  0  0
   -1.9510    0.3820    0.0990 C   0  0  2  0  0  0  0  0  0  0  0  0
   -3.3450    0.6780    0.5240 C   0  0  1  0  0  0  0  0  0  0  0  0
   -4.1760   -0.4920    0.9210 C   0  0  0  0  0  0  0  0  0  0  0  0
   -5.1060    0.1240    1.7910 O   0  0  0  0  0  0  0  0  0  0  0  0
   -4.3110    1.0120    2.4750 C   0  0  0  0  0  0  0  0  0  0  0  0
   -3.3580    1.5220    1.6250 O   0  0  0  0  0  0  0  0  0  0  0  0
   -1.8600   -0.4930   -1.0390 N   0  0  0  0  0  0  0  0  0  0  0  0
   -0.4890   -0.5850   -1.4290 C   0  0  2  0  0  0  0  0  0  0  0  0
   -0.3490   -1.7690   -2.1620 O   0  0  0  0  0  0  0  0  0  0  0  0
   -0.0800   -1.5610   -3.4910 C   0  0  0  0  0  0  0  0  0  0  0  0
  1  2  1  0
  2  3  1  0
  3  4  1  0
  4  5  2  0
  4  6  1  0
  6  7  1  6
  6  8  1  0
  8  9  1  1
  8 18  1  0
  9 10  1  0
 11 10  1  1
 11 12  1  0
 11 17  1  0
 12 13  1  1
 12 16  1  0
 13 14  1  0
 14 15  1  0
 15 16  1  0
 17 18  1  0
 18 19  1  1
 19 20  1  0
M  END
