
     RDKit          3D

 10 11  0  0  0  0  0  0  0  0999 V2000
    2.9700   -0.5630   -0.2920 C   0  0  0  0  0  0  0  0  0  0  0  0
    1.5540   -0.1540   -0.0900 C   0  0  0  0  0  0  0  0  0  0  0  0
    1.2590    1.0650    0.4840 C   0  0  0  0  0  0  0  0  0  0  0  0
   -0.0250    1.5160    0.7040 C   0  0  0  0  0  0  0  0  0  0  0  0
   -1.0890    0.6940    0.3260 C   0  0  0  0  0  0  0  0  0  0  0  0
   -2.4330    0.8390    0.4030 N   0  0  0  0  0  0  0  0  0  0  0  0
   -3.0660   -0.2360   -0.0970 C   0  0  0  0  0  0  0  0  0  0  0  0
   -2.0650   -1.0930   -0.5060 C   0  0  0  0  0  0  0  0  0  0  0  0
   -0.8300   -0.5330   -0.2520 C   0  0  0  0  0  0  0  0  0  0  0  0
    0.4810   -0.9410   -0.4520 C   0  0  0  0  0  0  0  0  0  0  0  0
  1  2  1  0
  2  3  2  0
  2 10  1  0
  3  4  1  0
  4  5  2  0
  5  6  1  0
  5  9  1  0
  6  7  1  0
  7  8  2  0
  8  9  1  0
  9 10  2  0
M  END
