
     RDKit          3D

 20 21  0  0  0  0  0  0  0  0999 V2000
   -1.3750   -1.6830    1.0020 C   0  0  0  0  0  0  0  0  0  0  0  0
   -1.4400   -0.1850    0.7780 C   0  0  2  0  0  0  0  0  0  0  0  0
   -2.6420    0.2830    1.3480 O   0  0  0  0  0  0  0  0  0  0  0  0
   -3.7520    0.6080    0.5970 C   0  0  0  0  0  0  0  0  0  0  0  0
   -4.9200    0.4090    1.0130 O   0  0  0  0  0  0  0  0  0  0  0  0
   -3.5010    1.2080   -0.7320 C   0  0  2  0  0  0  0  0  0  0  0  0
   -4.7770    1.3230   -1.4990 C   0  0  0  0  0  0  0  0  0  0  0  0
   -4.5450    1.9160   -2.7310 O   0  0  0  0  0  0  0  0  0  0  0  0
   -2.5300    0.4420   -1.3740 O   0  0  0  0  0  0  0  0  0  0  0  0
   -1.3650    0.0790   -0.6700 C   0  0  0  0  0  0  0  0  0  0  0  0
   -0.2220   -0.0190   -1.3270 C   0  0  0  0  0  0  0  0  0  0  0  0
    1.0440   -0.3850   -0.7110 C   0  0  0  0  0  0  0  0  0  0  0  0
    2.1690   -0.4780   -1.3720 N   0  0  0  0  0  0  0  0  0  0  0  0
    3.2010   -0.8540   -0.4670 C   0  0  2  0  0  0  0  0  0  0  0  0
    4.5480   -0.3090   -0.7950 C   0  0  0  0  0  0  0  0  0  0  0  0
    3.3030   -2.2650   -0.5200 O   0  0  0  0  0  0  0  0  0  0  0  0
    2.6680   -0.5040    0.8710 C   0  0  2  0  0  0  0  0  0  0  0  0
    2.8400    0.9190    1.2860 C   0  0  0  0  0  0  0  0  0  0  0  0
    3.0020   -1.4100    1.8750 O   0  0  0  0  0  0  0  0  0  0  0  0
    1.2620   -0.6850    0.6220 O   0  0  0  0  0  0  0  0  0  0  0  0
  2  1  1  6
  2  3  1  0
  2 10  1  0
  3  4  1  0
  4  5  2  0
  4  6  1  0
  6  7  1  6
  6  9  1  0
  7  8  1  0
  9 10  1  0
 10 11  2  3
 11 12  1  0
 12 13  2  0
 12 20  1  0
 13 14  1  0
 14 15  1  6
 14 16  1  0
 14 17  1  0
 17 18  1  1
 17 19  1  0
 17 20  1  0
M  END
