
     RDKit          3D

 18 18  0  0  0  0  0  0  0  0999 V2000
   -5.0990    0.2750    0.9280 C   0  0  0  0  0  0  0  0  0  0  0  0
   -4.2160   -0.8850    0.6810 C   0  0  0  0  0  0  0  0  0  0  0  0
   -3.0520   -0.7680    0.0300 C   0  0  0  0  0  0  0  0  0  0  0  0
   -2.2120   -1.9700   -0.1860 C   0  0  0  0  0  0  0  0  0  0  0  0
   -2.0000   -2.2310   -1.5430 O   0  0  0  0  0  0  0  0  0  0  0  0
   -2.6430    0.5850   -0.4590 C   0  0  0  0  0  0  0  0  0  0  0  0
   -1.4020    1.0310    0.1170 N   0  0  0  0  0  0  0  0  0  0  0  0
   -1.4450    1.7890    1.3740 C   0  0  0  0  0  0  0  0  0  0  0  0
   -0.1370    0.7820   -0.4590 C   0  0  0  0  0  0  0  0  0  0  0  0
   -0.0490    0.1440   -1.5350 O   0  0  0  0  0  0  0  0  0  0  0  0
    1.1100    1.2570    0.1750 C   0  0  0  0  0  0  0  0  0  0  0  0
    2.2830    0.8810   -0.5940 N   0  0  0  0  0  0  0  0  0  0  0  0
    2.6800    1.3550   -1.8740 C   0  0  0  0  0  0  0  0  0  0  0  0
    3.7760    0.8040   -2.2600 N   0  0  0  0  0  0  0  0  0  0  0  0
    4.2780   -0.1300   -1.2820 C   0  0  0  0  0  0  0  0  0  0  0  0
    3.2750   -0.0550   -0.2010 C   0  0  0  0  0  0  0  0  0  0  0  0
    3.2420   -0.7140    0.9540 C   0  0  0  0  0  0  0  0  0  0  0  0
    4.3550   -1.6720    1.2390 C   0  0  0  0  0  0  0  0  0  0  0  0
  1  2  1  0
  2  3  2  3
  3  4  1  0
  3  6  1  0
  4  5  1  0
  6  7  1  0
  7  8  1  0
  7  9  1  0
  9 10  2  0
  9 11  1  0
 11 12  1  0
 12 13  1  0
 12 16  1  0
 13 14  2  0
 14 15  1  0
 15 16  1  0
 16 17  2  3
 17 18  1  0
M  CHG  1  14   1
M  END
