
     RDKit          3D

 18 18  0  0  0  0  0  0  0  0999 V2000
   -4.7980    1.1240    2.0170 C   0  0  0  0  0  0  0  0  0  0  0  0
   -5.3160    0.2070    0.9800 C   0  0  0  0  0  0  0  0  0  0  0  0
   -4.4990   -0.3320    0.1070 C   0  0  0  0  0  0  0  0  0  0  0  0
   -5.0840   -1.2570   -0.9240 C   0  0  0  0  0  0  0  0  0  0  0  0
   -3.0790   -0.1040    0.0620 C   0  0  0  0  0  0  0  0  0  0  0  0
   -2.5730    0.6590    0.9080 O   0  0  0  0  0  0  0  0  0  0  0  0
   -2.2360   -0.7460   -0.9470 C   0  0  0  0  0  0  0  0  0  0  0  0
   -0.8460   -0.4170   -0.8590 N   0  0  0  0  0  0  0  0  0  0  0  0
   -0.0480   -0.6940    0.3040 C   0  0  0  0  0  0  0  0  0  0  0  0
   -0.6050   -1.2380    1.2570 O   0  0  0  0  0  0  0  0  0  0  0  0
    1.3610   -0.3510    0.3710 C   0  0  0  0  0  0  0  0  0  0  0  0
    2.0960   -0.6790    1.6160 C   0  0  0  0  0  0  0  0  0  0  0  0
    1.9540    0.2270   -0.6410 N   0  0  0  0  0  0  0  0  0  0  0  0
    3.3330    0.5430   -0.5290 C   0  0  0  0  0  0  0  0  0  0  0  0
    3.8250    1.3450    0.4010 C   0  0  0  0  0  0  0  0  0  0  0  0
    5.2910    1.4440    0.2150 C   0  0  0  0  0  0  0  0  0  0  0  0
    5.5800    0.1830   -0.4720 N   0  0  0  0  0  0  0  0  0  0  0  0
    4.4730    0.0760   -1.3750 C   0  0  0  0  0  0  0  0  0  0  0  0
  1  2  1  0
  2  3  2  3
  3  4  1  0
  3  5  1  0
  5  6  2  0
  5  7  1  0
  7  8  1  0
  8  9  1  0
  9 10  2  0
  9 11  1  0
 11 12  1  0
 11 13  2  3
 13 14  1  0
 14 15  2  0
 14 18  1  0
 15 16  1  0
 16 17  1  0
 17 18  1  0
M  CHG  1  17   1
M  END
