
     RDKit          3D

 18 20  0  0  0  0  0  0  0  0999 V2000
   -3.5160   -1.0390   -1.9860 O   0  0  0  0  0  0  0  0  0  0  0  0
   -4.3710    0.0560   -1.9390 C   0  0  0  0  0  0  0  0  0  0  0  0
   -4.6560    0.4800   -0.5030 C   0  0  0  0  0  0  0  0  0  0  0  0
   -3.4060    0.8580    0.2050 C   0  0  1  0  0  0  0  0  0  0  0  0
   -3.3720    1.3070    1.6030 C   0  0  0  0  0  0  0  0  0  0  0  0
   -2.9780   -0.0870    1.3190 C   0  0  2  0  0  0  0  0  0  0  0  0
   -1.5440   -0.4750    1.2240 C   0  0  0  0  0  0  0  0  0  0  0  0
   -1.2150   -1.7750    1.5530 C   0  0  0  0  0  0  0  0  0  0  0  0
    0.0690   -2.1490    1.4770 N   0  0  0  0  0  0  0  0  0  0  0  0
    1.0500   -1.2910    1.0870 C   0  0  0  0  0  0  0  0  0  0  0  0
    0.7470    0.0100    0.7530 C   0  0  0  0  0  0  0  0  0  0  0  0
    1.6420    0.9020    0.3620 O   0  0  0  0  0  0  0  0  0  0  0  0
    2.9320    1.1140    0.0910 C   0  0  0  0  0  0  0  0  0  0  0  0
    3.5680    0.3600   -1.0520 C   0  0  2  0  0  0  0  0  0  0  0  0
    3.9620   -1.0560   -0.8500 C   0  0  0  0  0  0  0  0  0  0  0  0
    5.1750   -0.6390   -1.6980 C   0  0  0  0  0  0  0  0  0  0  0  0
    4.9870    0.7490   -1.2450 N   0  0  0  0  0  0  0  0  0  0  0  0
   -0.6120    0.4180    0.8310 C   0  0  0  0  0  0  0  0  0  0  0  0
  1  2  1  0
  2  3  1  0
  4  3  1  1
  4  5  1  0
  4  6  1  0
  5  6  1  0
  6  7  1  6
  7  8  2  0
  7 18  1  0
  8  9  1  0
  9 10  2  0
 10 11  1  0
 11 12  1  0
 11 18  2  0
 12 13  1  0
 14 13  1  1
 14 15  1  0
 14 17  1  0
 15 16  1  0
 16 17  1  0
M  CHG  1  17   1
M  END
