
     RDKit          3D

 18 19  0  0  0  0  0  0  0  0999 V2000
   -3.5460    1.4930   -1.1500 C   0  0  0  0  0  0  0  0  0  0  0  0
   -4.0450    0.5460   -0.3820 C   0  0  0  0  0  0  0  0  0  0  0  0
   -5.4190    0.5390   -0.1150 O   0  0  0  0  0  0  0  0  0  0  0  0
   -3.2310   -0.4940    0.2030 C   0  0  0  0  0  0  0  0  0  0  0  0
   -3.7130   -1.4440    0.9520 C   0  0  0  0  0  0  0  0  0  0  0  0
   -5.1570   -1.5550    1.2820 C   0  0  0  0  0  0  0  0  0  0  0  0
   -1.8190   -0.4730   -0.0650 N   0  0  0  0  0  0  0  0  0  0  0  0
   -0.9780    0.5680    0.3900 C   0  0  0  0  0  0  0  0  0  0  0  0
   -1.4340    1.5430    1.0720 O   0  0  0  0  0  0  0  0  0  0  0  0
    0.4480    0.5250    0.0710 C   0  0  0  0  0  0  0  0  0  0  0  0
    1.3950    1.4760    0.4500 C   0  0  0  0  0  0  0  0  0  0  0  0
    2.5860    1.0980   -0.0230 N   0  0  0  0  0  0  0  0  0  0  0  0
    2.3770   -0.0560   -0.6760 C   0  0  0  0  0  0  0  0  0  0  0  0
    1.0840   -0.4260   -0.6330 N   0  0  0  0  0  0  0  0  0  0  0  0
    3.5820   -0.6850   -1.3030 C   0  0  0  0  0  0  0  0  0  0  0  0
    4.7410   -0.6730   -0.3640 C   0  0  0  0  0  0  0  0  0  0  0  0
    4.8250    0.5250    0.5160 C   0  0  0  0  0  0  0  0  0  0  0  0
    3.9240    1.6710    0.0490 C   0  0  0  0  0  0  0  0  0  0  0  0
  1  2  2  0
  2  3  1  0
  2  4  1  0
  4  5  2  3
  4  7  1  0
  5  6  1  0
  7  8  1  0
  8  9  2  0
  8 10  1  0
 10 11  2  0
 10 14  1  0
 11 12  1  0
 12 13  1  0
 12 18  1  0
 13 14  2  0
 13 15  1  0
 15 16  1  0
 16 17  1  0
 17 18  1  0
M  CHG  1  14   1
M  END
