
     RDKit          3D

 20 20  0  0  0  0  0  0  0  0999 V2000
    5.6960    2.0170   -0.0750 C   0  0  0  0  0  0  0  0  0  0  0  0
    5.6890    0.6620    0.5910 C   0  0  0  0  0  0  0  0  0  0  0  0
    4.3880    0.0760    0.6870 N   0  0  2  0  0  0  0  0  0  0  0  0
    4.4230   -1.3750    0.7100 C   0  0  0  0  0  0  0  0  0  0  0  0
    3.3000   -1.9720   -0.1070 C   0  0  0  0  0  0  0  0  0  0  0  0
    2.0330   -1.3190    0.1580 N   0  0  0  0  0  0  0  0  0  0  0  0
    1.0600   -1.8870   -0.7340 C   0  0  0  0  0  0  0  0  0  0  0  0
   -0.2950   -1.2930   -0.5480 C   0  0  0  0  0  0  0  0  0  0  0  0
   -1.2230   -1.7150   -1.2840 O   0  0  0  0  0  0  0  0  0  0  0  0
   -0.5810   -0.3260    0.3680 O   0  0  0  0  0  0  0  0  0  0  0  0
   -1.8570    0.2690    0.5820 C   0  0  0  0  0  0  0  0  0  0  0  0
   -2.8860   -0.7230    0.9930 C   0  0  0  0  0  0  0  0  0  0  0  0
   -4.1020   -0.2370    1.2250 O   0  0  0  0  0  0  0  0  0  0  0  0
   -4.8840    0.3950    0.3540 C   0  0  1  0  0  0  0  0  0  0  0  0
   -4.4640    1.6970   -0.2270 C   0  0  0  0  0  0  0  0  0  0  0  0
   -5.3180   -0.5160   -0.8200 C   0  0  0  0  0  0  0  0  0  0  0  0
   -6.2250    0.6590    1.0900 C   0  0  0  0  0  0  0  0  0  0  0  0
   -5.9790    1.4440    2.2120 O   0  0  0  0  0  0  0  0  0  0  0  0
    2.0920    0.1110    0.0300 C   0  0  0  0  0  0  0  0  0  0  0  0
    3.4910    0.5010   -0.3810 C   0  0  0  0  0  0  0  0  0  0  0  0
  1  2  1  0
  3  2  1  6
  3  4  1  0
  3 20  1  0
  4  5  1  0
  5  6  1  0
  6  7  1  0
  6 19  1  0
  7  8  1  0
  8  9  2  0
  8 10  1  0
 10 11  1  0
 11 12  1  0
 12 13  1  0
 13 14  1  0
 14 15  1  6
 14 16  1  0
 14 17  1  0
 17 18  1  0
 19 20  1  0
M  CHG  1   3   1
M  END
