
     RDKit          3D

 19 19  0  0  0  0  0  0  0  0999 V2000
    6.1230   -0.5800    0.8280 C   0  0  0  0  0  0  0  0  0  0  0  0
    4.6950   -0.8460    1.2430 C   0  0  0  0  0  0  0  0  0  0  0  0
    3.7730   -0.3090    0.2950 O   0  0  0  0  0  0  0  0  0  0  0  0
    3.7900   -0.7500   -0.9990 C   0  0  0  0  0  0  0  0  0  0  0  0
    4.6060   -1.6330   -1.3900 O   0  0  0  0  0  0  0  0  0  0  0  0
    2.8480   -0.2110   -2.0100 C   0  0  0  0  0  0  0  0  0  0  0  0
    2.0280    0.7560   -1.4010 O   0  0  0  0  0  0  0  0  0  0  0  0
    1.1970    0.3420   -0.3320 C   0  0  0  0  0  0  0  0  0  0  0  0
    1.2140   -0.8470    0.0270 O   0  0  0  0  0  0  0  0  0  0  0  0
    0.3700    1.3730    0.2740 C   0  0  0  0  0  0  0  0  0  0  0  0
   -0.6660    1.0250    1.2410 C   0  0  0  0  0  0  0  0  0  0  0  0
   -1.8080    0.2550    0.8850 N   0  0  0  0  0  0  0  0  0  0  0  0
   -1.8890   -1.1200    0.6040 C   0  0  0  0  0  0  0  0  0  0  0  0
   -3.0150   -1.6740    0.2630 N   0  0  0  0  0  0  0  0  0  0  0  0
   -4.2600   -1.0080    0.1310 C   0  0  2  0  0  0  0  0  0  0  0  0
   -4.8520   -1.0980   -1.2830 C   0  0  0  0  0  0  0  0  0  0  0  0
   -4.1850    0.4400    0.4270 C   0  0  0  0  0  0  0  0  0  0  0  0
   -3.0520    1.0100    0.7730 C   0  0  0  0  0  0  0  0  0  0  0  0
   -2.9600    2.4730    1.0800 C   0  0  0  0  0  0  0  0  0  0  0  0
  1  2  1  0
  2  3  1  0
  3  4  1  0
  4  5  2  0
  4  6  1  0
  6  7  1  0
  7  8  1  0
  8  9  2  0
  8 10  1  0
 10 11  1  0
 11 12  1  0
 12 13  1  0
 12 18  1  0
 13 14  2  0
 14 15  1  0
 15 16  1  6
 15 17  1  0
 17 18  2  0
 18 19  1  0
M  CHG  1  14   1
M  END
