
     RDKit          3D

 20 20  0  0  0  0  0  0  0  0999 V2000
   -5.7680    2.8640   -0.3420 C   0  0  0  0  0  0  0  0  0  0  0  0
   -4.8590    1.6290   -0.4100 C   0  0  0  0  0  0  0  0  0  0  0  0
   -4.8320    1.0910    0.8500 O   0  0  0  0  0  0  0  0  0  0  0  0
   -4.0800   -0.0470    1.0110 C   0  0  0  0  0  0  0  0  0  0  0  0
   -2.6450    0.2460    0.6600 C   0  0  0  0  0  0  0  0  0  0  0  0
   -1.8070   -0.9390    0.8200 N   0  0  0  0  0  0  0  0  0  0  0  0
   -2.1300   -1.9530   -0.1670 C   0  0  0  0  0  0  0  0  0  0  0  0
   -1.0100   -2.9620   -0.2840 C   0  0  0  0  0  0  0  0  0  0  0  0
   -0.1000   -2.8120    0.7360 O   0  0  0  0  0  0  0  0  0  0  0  0
    0.5520   -1.5960    0.7730 C   0  0  1  0  0  0  0  0  0  0  0  0
    1.5320   -1.5480   -0.3420 C   0  0  0  0  0  0  0  0  0  0  0  0
    2.3080   -0.3420   -0.4390 N   0  0  2  0  0  0  0  0  0  0  0  0
    3.3240   -0.5510   -1.4690 C   0  0  0  0  0  0  0  0  0  0  0  0
    3.9580   -1.9230   -1.3600 C   0  0  0  0  0  0  0  0  0  0  0  0
    3.0150    0.0040    0.7580 C   0  0  0  0  0  0  0  0  0  0  0  0
    3.4980    1.4140    0.6170 C   0  0  0  0  0  0  0  0  0  0  0  0
    3.2580    2.0940   -0.4140 O   0  0  0  0  0  0  0  0  0  0  0  0
    4.2310    2.0270    1.6200 O   0  0  0  0  0  0  0  0  0  0  0  0
    4.6750    3.3730    1.4470 C   0  0  0  0  0  0  0  0  0  0  0  0
   -0.4330   -0.4610    0.6300 C   0  0  0  0  0  0  0  0  0  0  0  0
  1  2  1  0
  2  3  1  0
  3  4  1  0
  4  5  1  0
  5  6  1  0
  6  7  1  0
  6 20  1  0
  7  8  1  0
  8  9  1  0
  9 10  1  0
 10 11  1  6
 10 20  1  0
 12 11  1  1
 12 13  1  0
 12 15  1  0
 13 14  1  0
 15 16  1  0
 16 17  2  0
 16 18  1  0
 18 19  1  0
M  CHG  1  12   1
M  END
