
     RDKit          3D

 20 20  0  0  0  0  0  0  0  0999 V2000
   -3.4330    2.3860   -0.0360 C   0  0  0  0  0  0  0  0  0  0  0  0
   -3.6330    1.0250    0.4730 N   0  0  0  0  0  0  0  0  0  0  0  0
   -3.3240   -0.0920   -0.2980 C   0  0  0  0  0  0  0  0  0  0  0  0
   -2.0310   -0.5890   -0.4890 C   0  0  0  0  0  0  0  0  0  0  0  0
   -2.0260   -1.7570   -1.3440 C   0  0  0  0  0  0  0  0  0  0  0  0
   -3.3980   -2.1840   -1.9230 C   0  0  0  0  0  0  0  0  0  0  0  0
   -1.1240   -2.5040   -1.7200 O   0  0  0  0  0  0  0  0  0  0  0  0
   -0.9900   -0.0050    0.2680 C   0  0  0  0  0  0  0  0  0  0  0  0
   -1.6010    0.9410    1.2520 O   0  0  0  0  0  0  0  0  0  0  0  0
    0.2790    0.0030    0.4270 C   0  0  0  0  0  0  0  0  0  0  0  0
    0.8370    0.8840    1.4810 C   0  0  0  0  0  0  0  0  0  0  0  0
    0.0380    1.7190    2.2600 N   0  0  0  0  0  0  0  0  0  0  0  0
    2.0480    0.9000    1.7030 O   0  0  0  0  0  0  0  0  0  0  0  0
    1.2640   -0.6230   -0.4550 C   0  0  0  0  0  0  0  0  0  0  0  0
    0.8280   -1.1820   -1.5180 O   0  0  0  0  0  0  0  0  0  0  0  0
    2.7030   -0.7250   -0.3360 C   0  0  2  0  0  0  0  0  0  0  0  0
    3.3170   -1.1930    0.8880 C   0  0  0  0  0  0  0  0  0  0  0  0
    4.6030   -0.8460    0.8750 C   0  0  0  0  0  0  0  0  0  0  0  0
    4.9390   -0.1150   -0.3670 C   0  0  0  0  0  0  0  0  0  0  0  0
    3.5550    0.3970   -0.8170 C   0  0  0  0  0  0  0  0  0  0  0  0
  1  2  1  0
  2  3  1  0
  3  4  2  3
  4  5  1  0
  4  8  1  0
  5  6  1  0
  5  7  2  0
  8  9  1  0
  8 10  2  3
 10 11  1  0
 10 14  1  0
 11 12  1  0
 11 13  2  0
 14 15  2  0
 16 14  1  1
 16 17  1  0
 16 20  1  0
 17 18  2  0
 18 19  1  0
 19 20  1  0
M  END
