
     RDKit          3D

 15 15  0  0  0  0  0  0  0  0999 V2000
   -3.0440   -0.0860    1.1570 C   0  0  0  0  0  0  0  0  0  0  0  0
   -2.0150    0.2560    0.0810 C   0  0  2  0  0  0  0  0  0  0  0  0
   -2.4540   -0.4300   -1.1840 C   0  0  0  0  0  0  0  0  0  0  0  0
   -0.6480   -0.2540    0.5380 C   0  0  0  0  0  0  0  0  0  0  0  0
    0.3560    0.1630   -0.5110 C   0  0  2  0  0  0  0  0  0  0  0  0
    1.6560   -0.5420   -0.4590 C   0  0  2  0  0  0  0  0  0  0  0  0
    1.4100   -2.0330   -0.6670 C   0  0  0  0  0  0  0  0  0  0  0  0
    2.6950   -2.6240   -0.6050 O   0  0  0  0  0  0  0  0  0  0  0  0
    2.5050   -0.3460    0.7380 C   0  0  0  0  0  0  0  0  0  0  0  0
    2.9000    1.0180    0.9780 N   0  0  0  0  0  0  0  0  0  0  0  0
    2.6790    1.6030    2.0580 O   0  0  0  0  0  0  0  0  0  0  0  0
    3.5590    1.7160   -0.0010 O   0  0  0  0  0  0  0  0  0  0  0  0
    0.3840    1.6470   -0.5870 C   0  0  0  0  0  0  0  0  0  0  0  0
   -1.0270    2.1280   -0.8880 C   0  0  0  0  0  0  0  0  0  0  0  0
   -1.9540    1.6170   -0.0010 O   0  0  0  0  0  0  0  0  0  0  0  0
  2  1  1  1
  2  3  1  0
  2  4  1  0
  2 15  1  0
  5  4  1  1
  5  6  1  0
  5 13  1  0
  6  7  1  1
  6  9  1  0
  7  8  1  0
  9 10  1  0
 10 11  2  0
 10 12  1  0
 13 14  1  0
 14 15  1  0
M  CHG  2  10   1  12  -1
M  END
