
     RDKit          3D

 20 20  0  0  0  0  0  0  0  0999 V2000
   -3.2260   -2.9360   -1.0420 C   0  0  0  0  0  0  0  0  0  0  0  0
   -2.9150   -1.7960   -0.3040 O   0  0  0  0  0  0  0  0  0  0  0  0
   -1.5140   -1.6390   -0.2000 C   0  0  0  0  0  0  0  0  0  0  0  0
   -1.1560   -0.4210    0.5890 C   0  0  1  0  0  0  0  0  0  0  0  0
   -1.8050   -0.8390    1.9020 O   0  0  0  0  0  0  0  0  0  0  0  0
    0.2380   -0.3170    1.0130 C   0  0  0  0  0  0  0  0  0  0  0  0
    1.3200   -0.3530    0.0480 C   0  0  0  0  0  0  0  0  0  0  0  0
    1.3250   -0.6550   -1.1460 O   0  0  0  0  0  0  0  0  0  0  0  0
    2.6260    0.0320    0.5710 N   0  0  0  0  0  0  0  0  0  0  0  0
    3.7630    0.0410   -0.2580 C   0  0  0  0  0  0  0  0  0  0  0  0
    4.2030   -1.2030   -0.9160 C   0  0  0  0  0  0  0  0  0  0  0  0
    4.4350    1.1480   -0.4490 C   0  0  0  0  0  0  0  0  0  0  0  0
    5.5930    1.2320   -1.2730 N   0  0  0  0  0  0  0  0  0  0  0  0
   -1.8310    0.8630    0.2790 C   0  0  1  0  0  0  0  0  0  0  0  0
   -1.7120    1.4510   -1.0660 C   0  0  0  0  0  0  0  0  0  0  0  0
   -1.0260    1.0340   -2.2630 C   0  0  0  0  0  0  0  0  0  0  0  0
   -2.3540    2.5570   -1.1760 O   0  0  0  0  0  0  0  0  0  0  0  0
   -3.2830    1.0070    0.8230 C   0  0  0  0  0  0  0  0  0  0  0  0
   -2.1110    1.8630    1.3390 C   0  0  1  0  0  0  0  0  0  0  0  0
   -1.8930    1.7480    2.7850 C   0  0  0  0  0  0  0  0  0  0  0  0
  1  2  1  0
  2  3  1  0
  3  4  1  0
  4  5  1  1
  4  6  1  0
  4 14  1  0
  6  7  1  0
  7  8  2  0
  7  9  1  0
  9 10  1  0
 10 11  1  0
 10 12  2  3
 12 13  1  0
 14 15  1  6
 14 18  1  0
 14 19  1  0
 15 16  1  0
 15 17  2  0
 18 19  1  0
 19 20  1  1
M  END
