
     RDKit          3D

 20 20  0  0  0  0  0  0  0  0999 V2000
   -5.2290    1.8580    0.5740 C   0  0  0  0  0  0  0  0  0  0  0  0
   -4.0150    1.3650    0.6910 C   0  0  0  0  0  0  0  0  0  0  0  0
   -3.1770    1.8810    1.6690 O   0  0  0  0  0  0  0  0  0  0  0  0
   -1.9260    1.4240    2.1050 C   0  0  0  0  0  0  0  0  0  0  0  0
   -0.9040    1.1780    1.0660 C   0  0  1  0  0  0  0  0  0  0  0  0
   -0.0790    0.0190    1.3210 N   0  0  0  0  0  0  0  0  0  0  0  0
    1.3180    0.0580    1.5460 C   0  0  0  0  0  0  0  0  0  0  0  0
    1.8780    1.1630    1.5240 O   0  0  0  0  0  0  0  0  0  0  0  0
    2.0780   -1.1100    1.7910 N   0  0  0  0  0  0  0  0  0  0  0  0
    3.5060   -1.1210    2.0240 C   0  0  0  0  0  0  0  0  0  0  0  0
    4.2790   -0.5560    0.8490 C   0  0  1  0  0  0  0  0  0  0  0  0
    5.6340   -0.6170    1.1800 O   0  0  0  0  0  0  0  0  0  0  0  0
    4.0500   -1.3570   -0.3850 C   0  0  0  0  0  0  0  0  0  0  0  0
    4.8050   -0.8610   -1.4230 O   0  0  0  0  0  0  0  0  0  0  0  0
    4.5560    0.4390   -1.7810 C   0  0  0  0  0  0  0  0  0  0  0  0
   -1.3470    1.1400   -0.3530 C   0  0  0  0  0  0  0  0  0  0  0  0
   -2.2440   -0.0110   -0.7210 C   0  0  0  0  0  0  0  0  0  0  0  0
   -3.6200    0.2880   -0.2290 C   0  0  0  0  0  0  0  0  0  0  0  0
   -4.5740   -0.5130   -0.6610 C   0  0  0  0  0  0  0  0  0  0  0  0
   -4.2410   -1.6040   -1.5830 C   0  0  0  0  0  0  0  0  0  0  0  0
  1  2  2  0
  2  3  1  0
  2 18  1  0
  3  4  1  0
  4  5  1  0
  5  6  1  1
  5 16  1  0
  6  7  1  0
  7  8  2  0
  7  9  1  0
  9 10  1  0
 10 11  1  0
 11 12  1  1
 11 13  1  0
 13 14  1  0
 14 15  1  0
 16 17  1  0
 17 18  1  0
 18 19  2  3
 19 20  1  0
M  END
