
     RDKit          3D

  9  9  0  0  0  0  0  0  0  0999 V2000
   -2.0200   -1.1150   -0.6120 N   0  0  0  0  0  0  0  0  0  0  0  0
   -1.1860   -0.3930    0.3430 C   0  0  1  0  0  0  0  0  0  0  0  0
    0.1970   -0.9100    0.2940 C   0  0  0  0  0  0  0  0  0  0  0  0
    1.2350   -0.1300    0.0800 C   0  0  0  0  0  0  0  0  0  0  0  0
    2.5870   -0.6990    0.0420 C   0  0  0  0  0  0  0  0  0  0  0  0
    3.5840    0.0250   -0.1600 O   0  0  0  0  0  0  0  0  0  0  0  0
    1.0710    1.3100   -0.1230 C   0  0  0  0  0  0  0  0  0  0  0  0
   -0.1320    1.8440   -0.0940 C   0  0  0  0  0  0  0  0  0  0  0  0
   -1.2510    1.0230    0.1340 N   0  0  0  0  0  0  0  0  0  0  0  0
  2  1  1  6
  2  3  1  0
  2  9  1  0
  3  4  2  0
  4  5  1  0
  4  7  1  0
  5  6  2  0
  7  8  2  0
  8  9  1  0
M  END
