
     RDKit          3D

 10 10  0  0  0  0  0  0  0  0999 V2000
   -2.5080   -0.0570    0.7790 N   0  0  0  0  0  0  0  0  0  0  0  0
   -1.2620    0.3540    0.2410 C   0  0  0  0  0  0  0  0  0  0  0  0
   -1.1790    1.5720   -0.2610 C   0  0  0  0  0  0  0  0  0  0  0  0
    0.0260    2.0520   -0.8140 O   0  0  0  0  0  0  0  0  0  0  0  0
    0.9600    1.0590   -1.2660 C   0  0  0  0  0  0  0  0  0  0  0  0
    1.0720    0.0770   -0.1820 C   0  0  0  0  0  0  0  0  0  0  0  0
    2.2300   -0.1760    0.3580 C   0  0  0  0  0  0  0  0  0  0  0  0
    2.3940   -1.0870    1.3770 O   0  0  0  0  0  0  0  0  0  0  0  0
   -0.1380   -0.6130    0.2800 C   0  0  2  0  0  0  0  0  0  0  0  0
   -0.3740   -1.7510   -0.5860 N   0  0  0  0  0  0  0  0  0  0  0  0
  1  2  1  0
  2  3  2  0
  2  9  1  0
  3  4  1  0
  4  5  1  0
  5  6  1  0
  6  7  2  3
  6  9  1  0
  7  8  1  0
  9 10  1  6
M  END
