
     RDKit          3D

 11 11  0  0  0  0  0  0  0  0999 V2000
   -2.6480    1.3360    1.0800 O   0  0  0  0  0  0  0  0  0  0  0  0
   -1.6510    0.7580    0.6710 C   0  0  0  0  0  0  0  0  0  0  0  0
   -1.7710   -0.7050    0.6070 C   0  0  0  0  0  0  0  0  0  0  0  0
   -0.6410   -1.3870    0.1480 O   0  0  0  0  0  0  0  0  0  0  0  0
   -0.1380   -0.9710   -1.0520 C   0  0  0  0  0  0  0  0  0  0  0  0
    1.0170    0.0240   -0.7300 C   0  0  2  0  0  0  0  0  0  0  0  0
    1.8570   -0.5450    0.3460 C   0  0  0  0  0  0  0  0  0  0  0  0
    1.5600   -1.4660    0.9810 O   0  0  0  0  0  0  0  0  0  0  0  0
    3.0540    0.0920    0.5590 O   0  0  0  0  0  0  0  0  0  0  0  0
    0.4470    1.3010   -0.5030 N   0  0  0  0  0  0  0  0  0  0  0  0
   -0.5860    1.5570    0.3210 N   0  0  0  0  0  0  0  0  0  0  0  0
  1  2  2  0
  2  3  1  0
  2 11  1  0
  3  4  1  0
  4  5  1  0
  5  6  1  0
  6  7  1  1
  6 10  1  0
  7  8  2  0
  7  9  1  0
 10 11  1  0
M  END
