
     RDKit          3D

 10  9  0  0  0  0  0  0  0  0999 V2000
   -4.0390    0.7270    0.0870 N   0  0  0  0  0  0  0  0  0  0  0  0
   -2.9160   -0.0380   -0.2870 C   0  0  0  0  0  0  0  0  0  0  0  0
   -1.7170    0.3670   -0.0380 C   0  0  0  0  0  0  0  0  0  0  0  0
   -0.4980   -0.3520   -0.3840 C   0  0  0  0  0  0  0  0  0  0  0  0
    0.6880    0.1310   -0.0940 C   0  0  0  0  0  0  0  0  0  0  0  0
    0.8030    1.3490    0.5560 O   0  0  0  0  0  0  0  0  0  0  0  0
    1.9020   -0.5940   -0.4440 C   0  0  0  0  0  0  0  0  0  0  0  0
    1.8670   -1.8520   -1.1130 N   0  0  0  0  0  0  0  0  0  0  0  0
    3.0880   -0.1070   -0.1510 C   0  0  0  0  0  0  0  0  0  0  0  0
    3.2610    1.1130    0.5020 O   0  0  0  0  0  0  0  0  0  0  0  0
  1  2  1  0
  2  3  2  3
  3  4  1  0
  4  5  2  3
  5  6  1  0
  5  7  1  0
  7  8  1  0
  7  9  2  3
  9 10  1  0
M  END
