
     RDKit          3D

 11 11  0  0  0  0  0  0  0  0999 V2000
   -3.1210   -0.6650   -0.3740 C   0  0  0  0  0  0  0  0  0  0  0  0
   -1.7330   -0.8890   -0.2280 O   0  0  0  0  0  0  0  0  0  0  0  0
   -0.8040    0.1230   -0.0880 C   0  0  0  0  0  0  0  0  0  0  0  0
   -1.2220    1.3090   -0.0910 O   0  0  0  0  0  0  0  0  0  0  0  0
    0.6280   -0.1290    0.0630 C   0  0  0  0  0  0  0  0  0  0  0  0
    1.2540   -1.3180    0.0890 N   0  0  0  0  0  0  0  0  0  0  0  0
    2.5860   -1.1210    0.2450 C   0  0  0  0  0  0  0  0  0  0  0  0
    3.5050   -1.9780    0.3160 O   0  0  0  0  0  0  0  0  0  0  0  0
    2.7570    0.1590    0.3110 O   0  0  0  0  0  0  0  0  0  0  0  0
    1.6300    0.8090    0.2090 C   0  0  0  0  0  0  0  0  0  0  0  0
    1.4570    2.2180    0.2410 N   0  0  0  0  0  0  0  0  0  0  0  0
  1  2  1  0
  2  3  1  0
  3  4  2  0
  3  5  1  0
  5  6  1  0
  5 10  2  0
  6  7  1  0
  7  8  2  0
  7  9  1  0
  9 10  1  0
 10 11  1  0
M  END
