
     RDKit          3D

  9  9  0  0  0  0  0  0  0  0999 V2000
   -2.5300    1.4260   -0.2410 N   0  0  0  0  0  0  0  0  0  0  0  0
   -1.4520    0.5160   -0.0600 C   0  0  0  0  0  0  0  0  0  0  0  0
   -0.2270    0.8710   -0.4050 C   0  0  0  0  0  0  0  0  0  0  0  0
    0.8760   -0.0540   -0.2220 C   0  0  0  0  0  0  0  0  0  0  0  0
    2.2710    0.3590   -0.6190 C   0  0  0  0  0  0  0  0  0  0  0  0
    2.6620    1.4720    0.0910 O   0  0  0  0  0  0  0  0  0  0  0  0
    0.6700   -1.2590    0.2900 C   0  0  0  0  0  0  0  0  0  0  0  0
   -0.6610   -1.7580    0.7100 C   0  0  0  0  0  0  0  0  0  0  0  0
   -1.6920   -0.7730    0.4910 N   0  0  0  0  0  0  0  0  0  0  0  0
  1  2  1  0
  2  3  2  0
  2  9  1  0
  3  4  1  0
  4  5  1  0
  4  7  2  0
  5  6  1  0
  7  8  1  0
  8  9  1  0
M  END
