
     RDKit          3D

  6  5  0  0  0  0  0  0  0  0999 V2000
   -1.1000   -0.5730    0.7010 C   0  0  0  0  0  0  0  0  0  0  0  0
   -0.2850   -0.0400   -0.4770 C   0  0  1  0  0  0  0  0  0  0  0  0
   -1.0050    1.0140   -1.0770 O   0  0  0  0  0  0  0  0  0  0  0  0
    1.0170    0.4630    0.0090 C   0  0  0  0  0  0  0  0  0  0  0  0
    1.3460    1.6640   -0.1350 O   0  0  0  0  0  0  0  0  0  0  0  0
    1.8830   -0.4190    0.6340 O   0  0  0  0  0  0  0  0  0  0  0  0
  2  1  1  1
  2  3  1  0
  2  4  1  0
  4  5  2  0
  4  6  1  0
M  END
