
     RDKit          3D

 15 15  0  0  0  0  0  0  0  0999 V2000
    4.6010   -0.2620    0.9530 C   0  0  0  0  0  0  0  0  0  0  0  0
    3.4320    0.4530    1.3780 C   0  0  0  0  0  0  0  0  0  0  0  0
    2.2210    0.4040    0.9940 C   0  0  0  0  0  0  0  0  0  0  0  0
    1.7110   -0.7250   -0.1580 S   0  0  1  0  0  0  0  0  0  0  0  0
    2.4060   -0.6350   -1.4730 O   0  0  0  0  0  0  0  0  0  0  0  0
    2.1920   -2.1380    0.3690 O   0  0  0  0  0  0  0  0  0  0  0  0
    0.0290   -0.7840   -0.3990 N   0  0  0  0  0  0  0  0  0  0  0  0
   -0.3210   -0.2740   -1.6750 C   0  0  0  0  0  0  0  0  0  0  0  0
   -1.8300   -0.4480   -1.8560 C   0  0  0  0  0  0  0  0  0  0  0  0
   -2.4770    0.2940   -0.8180 N   0  0  0  0  0  0  0  0  0  0  0  0
   -3.8030   -0.1670   -0.5280 C   0  0  0  0  0  0  0  0  0  0  0  0
   -3.9550   -0.2670    0.9270 C   0  0  0  0  0  0  0  0  0  0  0  0
   -4.0730   -0.3530    2.2240 N   0  0  0  0  0  0  0  0  0  0  0  0
   -1.6770    0.7630    0.2450 C   0  0  0  0  0  0  0  0  0  0  0  0
   -0.7400   -0.3690    0.7240 C   0  0  0  0  0  0  0  0  0  0  0  0
  1  2  1  0
  2  3  2  3
  3  4  1  0
  4  5  2  0
  4  6  2  0
  4  7  1  6
  7  8  1  0
  7 15  1  0
  8  9  1  0
  9 10  1  0
 10 11  1  0
 10 14  1  0
 11 12  1  0
 12 13  3  0
 14 15  1  0
M  END
