
     RDKit          3D

 15 15  0  0  0  0  0  0  0  0999 V2000
    5.1580   -1.1730    0.5460 C   0  0  0  0  0  0  0  0  0  0  0  0
    3.6860   -1.2270    0.2520 C   0  0  0  0  0  0  0  0  0  0  0  0
    3.0370   -2.4330    0.3790 C   0  0  0  0  0  0  0  0  0  0  0  0
    1.7300   -2.4810    0.1180 N   0  0  0  0  0  0  0  0  0  0  0  0
    1.0860   -1.3370   -0.2640 C   0  0  0  0  0  0  0  0  0  0  0  0
    1.7520   -0.1360   -0.3880 C   0  0  0  0  0  0  0  0  0  0  0  0
    1.1200    0.9240   -0.7500 N   0  0  0  0  0  0  0  0  0  0  0  0
   -0.2450    0.9890   -1.0470 C   0  0  0  0  0  0  0  0  0  0  0  0
   -0.5900    0.9590   -2.2740 O   0  0  0  0  0  0  0  0  0  0  0  0
   -1.2770    1.0870   -0.0150 C   0  0  0  0  0  0  0  0  0  0  0  0
   -2.6110    1.1430   -0.5140 N   0  0  0  0  0  0  0  0  0  0  0  0
   -3.1060   -0.0370   -1.1340 C   0  0  0  0  0  0  0  0  0  0  0  0
   -3.5090    1.7630    0.4310 C   0  0  0  0  0  0  0  0  0  0  0  0
   -5.1960    1.8540   -0.1600 S   0  0  0  0  0  0  0  0  0  0  0  0
    3.0370   -0.1350   -0.1210 O   0  0  0  0  0  0  0  0  0  0  0  0
  1  2  1  0
  2  3  2  0
  2 15  1  0
  3  4  1  0
  4  5  2  0
  5  6  1  0
  6  7  2  3
  6 15  1  0
  7  8  1  0
  8  9  2  0
  8 10  1  0
 10 11  1  0
 11 12  1  0
 11 13  1  0
 13 14  1  0
M  END
