
     RDKit          3D

 15 15  0  0  0  0  0  0  0  0999 V2000
    3.6510    1.6250    0.3010 C   0  0  0  0  0  0  0  0  0  0  0  0
    3.5010    0.4590    1.2070 C   0  0  0  0  0  0  0  0  0  0  0  0
    2.5020   -0.3770    1.0240 C   0  0  0  0  0  0  0  0  0  0  0  0
    2.3770   -1.4960    1.9120 C   0  0  0  0  0  0  0  0  0  0  0  0
    2.2720   -2.4190    2.6330 N   0  0  0  0  0  0  0  0  0  0  0  0
    1.5630   -0.1540   -0.0540 C   0  0  0  0  0  0  0  0  0  0  0  0
    0.5600   -0.9870   -0.2430 C   0  0  0  0  0  0  0  0  0  0  0  0
   -0.3900   -0.7350   -1.3570 C   0  0  0  0  0  0  0  0  0  0  0  0
   -1.7320   -0.5560   -0.8970 N   0  0  0  0  0  0  0  0  0  0  0  0
   -2.6960   -1.5090   -0.7190 N   0  0  0  0  0  0  0  0  0  0  0  0
   -3.8260   -1.1700   -0.3270 C   0  0  0  0  0  0  0  0  0  0  0  0
   -4.0690    0.2610   -0.0730 C   0  0  0  0  0  0  0  0  0  0  0  0
   -2.4690    0.9300   -0.4500 S   0  0  2  0  0  0  0  0  0  0  0  0
   -2.5220    1.8930   -1.5950 O   0  0  0  0  0  0  0  0  0  0  0  0
   -1.8410    1.5330    0.7680 O   0  0  0  0  0  0  0  0  0  0  0  0
  1  2  1  0
  2  3  2  3
  3  4  1  0
  3  6  1  0
  4  5  3  0
  6  7  2  3
  7  8  1  0
  8  9  1  0
  9 10  1  0
  9 13  1  0
 10 11  2  0
 11 12  1  0
 13 12  1  1
 13 14  2  0
 13 15  2  0
M  END
