
     RDKit          3D

 12 12  0  0  0  0  0  0  0  0999 V2000
   -0.5830    2.2540   -0.2620 N   0  0  0  0  0  0  0  0  0  0  0  0
   -0.8870    0.8280   -0.1880 C   0  0  0  0  0  0  0  0  0  0  0  0
   -2.0160    0.3900   -0.6690 C   0  0  0  0  0  0  0  0  0  0  0  0
   -2.4570   -1.3030   -0.6210 S   0  0  0  0  0  0  0  0  0  0  0  0
   -1.1410   -2.2260    0.1620 C   0  0  0  0  0  0  0  0  0  0  0  0
   -0.0440   -1.3390    0.5580 C   0  0  0  0  0  0  0  0  0  0  0  0
    0.0730   -0.0750    0.4190 C   0  0  0  0  0  0  0  0  0  0  0  0
    1.2700    0.5200    0.9090 O   0  0  0  0  0  0  0  0  0  0  0  0
    2.4400    0.4920    0.1110 C   0  0  1  0  0  0  0  0  0  0  0  0
    2.2290    1.1430   -1.1030 F   0  0  0  0  0  0  0  0  0  0  0  0
    3.4340    1.1090    0.8490 F   0  0  0  0  0  0  0  0  0  0  0  0
    2.8700   -0.7910   -0.1450 F   0  0  0  0  0  0  0  0  0  0  0  0
  1  2  1  0
  2  3  2  0
  2  7  1  0
  3  4  1  0
  4  5  1  0
  5  6  1  0
  6  7  2  0
  7  8  1  0
  8  9  1  0
  9 10  1  6
  9 11  1  0
  9 12  1  0
M  END
