
     RDKit          3D

 12 12  0  0  0  0  0  0  0  0999 V2000
   -3.5010    0.4570    1.0980 C   0  0  0  0  0  0  0  0  0  0  0  0
   -2.3180    0.1380    0.6170 C   0  0  0  0  0  0  0  0  0  0  0  0
   -1.8470    0.4430   -0.7510 C   0  0  0  0  0  0  0  0  0  0  0  0
   -0.4740    0.1550   -0.6970 O   0  0  0  0  0  0  0  0  0  0  0  0
   -0.1970   -0.5200    0.4640 C   0  0  0  0  0  0  0  0  0  0  0  0
    1.3500   -1.3030    0.9580 S   0  0  0  0  0  0  0  0  0  0  0  0
    2.6180   -1.0760   -0.3080 C   0  0  0  0  0  0  0  0  0  0  0  0
    2.9990    0.3580   -0.3890 C   0  0  1  0  0  0  0  0  0  0  0  0
    1.9010    1.1090   -0.7140 F   0  0  0  0  0  0  0  0  0  0  0  0
    3.4390    0.7740    0.8530 F   0  0  0  0  0  0  0  0  0  0  0  0
    3.9750    0.5130   -1.3540 F   0  0  0  0  0  0  0  0  0  0  0  0
   -1.2360   -0.5440    1.2310 N   0  0  0  0  0  0  0  0  0  0  0  0
  1  2  2  0
  2  3  1  0
  2 12  1  0
  3  4  1  0
  4  5  1  0
  5  6  1  0
  5 12  2  0
  6  7  1  0
  7  8  1  0
  8  9  1  6
  8 10  1  0
  8 11  1  0
M  END
