
     RDKit          3D

 12 12  0  0  0  0  0  0  0  0999 V2000
   -1.8230    0.1380    1.4700 C   0  0  0  0  0  0  0  0  0  0  0  0
   -1.2900    0.0200    0.0750 C   0  0  0  0  0  0  0  0  0  0  0  0
   -0.0060   -0.0590   -0.1380 C   0  0  0  0  0  0  0  0  0  0  0  0
    1.0790   -0.0580    0.7380 N   0  0  0  0  0  0  0  0  0  0  0  0
    2.2340   -0.0350    0.3110 C   0  0  0  0  0  0  0  0  0  0  0  0
    3.3470   -0.0340    1.1900 O   0  0  0  0  0  0  0  0  0  0  0  0
    2.4560   -0.0100   -1.1340 C   0  0  0  0  0  0  0  0  0  0  0  0
    0.7460   -0.2030   -1.7700 S   0  0  0  0  0  0  0  0  0  0  0  0
   -2.2340   -0.0050   -1.0550 C   0  0  2  0  0  0  0  0  0  0  0  0
   -1.6000   -0.1150   -2.2760 F   0  0  0  0  0  0  0  0  0  0  0  0
   -3.0680    1.0930   -1.0640 F   0  0  0  0  0  0  0  0  0  0  0  0
   -3.0410   -1.1210   -0.8920 F   0  0  0  0  0  0  0  0  0  0  0  0
  1  2  1  0
  2  3  2  3
  2  9  1  0
  3  4  1  0
  3  8  1  0
  4  5  2  0
  5  6  1  0
  5  7  1  0
  7  8  1  0
  9 10  1  6
  9 11  1  0
  9 12  1  0
M  END
