
     RDKit          3D

 12 12  0  0  0  0  0  0  0  0999 V2000
   -1.7180    1.9920   -0.0120 C   0  0  0  0  0  0  0  0  0  0  0  0
   -1.2550    0.7690    0.0890 C   0  0  0  0  0  0  0  0  0  0  0  0
   -2.1700   -0.3820    0.2310 C   0  0  0  0  0  0  0  0  0  0  0  0
   -1.6710   -1.3890   -0.5720 O   0  0  0  0  0  0  0  0  0  0  0  0
   -0.3920   -1.7840   -0.2380 C   0  0  0  0  0  0  0  0  0  0  0  0
    0.5590   -0.6460   -0.1010 C   0  0  0  0  0  0  0  0  0  0  0  0
    2.2950   -1.0780   -0.1770 S   0  0  0  0  0  0  0  0  0  0  0  0
    3.3370    0.3710    0.0110 C   0  0  2  0  0  0  0  0  0  0  0  0
    3.1750    0.8440    1.2970 F   0  0  0  0  0  0  0  0  0  0  0  0
    2.9010    1.3190   -0.9110 F   0  0  0  0  0  0  0  0  0  0  0  0
    4.6280    0.0620   -0.3170 F   0  0  0  0  0  0  0  0  0  0  0  0
    0.1710    0.5780    0.0550 N   0  0  0  0  0  0  0  0  0  0  0  0
  1  2  2  0
  2  3  1  0
  2 12  1  0
  3  4  1  0
  4  5  1  0
  5  6  1  0
  6  7  1  0
  6 12  2  0
  7  8  1  0
  8  9  1  1
  8 10  1  0
  8 11  1  0
M  END
