
     RDKit          3D

 12 12  0  0  0  0  0  0  0  0999 V2000
   -3.0020    0.2920   -1.4510 C   0  0  0  0  0  0  0  0  0  0  0  0
   -1.5770    0.6620   -1.3110 C   0  0  0  0  0  0  0  0  0  0  0  0
   -0.8310    0.0880   -0.4180 C   0  0  0  0  0  0  0  0  0  0  0  0
    0.5090    0.2610   -0.1000 N   0  0  0  0  0  0  0  0  0  0  0  0
    0.9820   -0.2330    0.9430 C   0  0  0  0  0  0  0  0  0  0  0  0
    2.3660   -0.0900    1.3310 O   0  0  0  0  0  0  0  0  0  0  0  0
    3.2800    0.3120    0.2960 C   0  0  2  0  0  0  0  0  0  0  0  0
    4.5200    0.3880    0.8610 F   0  0  0  0  0  0  0  0  0  0  0  0
    2.8720    1.5040   -0.2810 F   0  0  0  0  0  0  0  0  0  0  0  0
    3.2190   -0.6410   -0.7260 F   0  0  0  0  0  0  0  0  0  0  0  0
    0.0730   -1.0000    1.8190 C   0  0  0  0  0  0  0  0  0  0  0  0
   -1.3650   -1.1740    0.7270 S   0  0  0  0  0  0  0  0  0  0  0  0
  1  2  1  0
  2  3  2  3
  3  4  1  0
  3 12  1  0
  4  5  2  0
  5  6  1  0
  5 11  1  0
  6  7  1  0
  7  8  1  1
  7  9  1  0
  7 10  1  0
 11 12  1  0
M  END
