
     RDKit          3D

 12 12  0  0  0  0  0  0  0  0999 V2000
    2.6470   -0.7730   -0.4140 C   0  0  0  0  0  0  0  0  0  0  0  0
    1.8360    0.0180    0.4810 N   0  0  0  0  0  0  0  0  0  0  0  0
    0.3980    0.0900    0.3310 C   0  0  0  0  0  0  0  0  0  0  0  0
   -0.2030    1.2150    0.0470 C   0  0  0  0  0  0  0  0  0  0  0  0
    0.3320    2.5490   -0.1700 C   0  0  1  0  0  0  0  0  0  0  0  0
    0.0460    3.0390   -1.4520 F   0  0  0  0  0  0  0  0  0  0  0  0
   -0.3110    3.4190    0.7020 F   0  0  0  0  0  0  0  0  0  0  0  0
    1.6890    2.6540    0.0240 F   0  0  0  0  0  0  0  0  0  0  0  0
   -1.9430    0.8210   -0.0560 S   0  0  0  0  0  0  0  0  0  0  0  0
   -1.6110   -0.9900   -0.2300 C   0  0  2  0  0  0  0  0  0  0  0  0
   -2.7180   -1.7110    0.4580 C   0  0  0  0  0  0  0  0  0  0  0  0
   -0.3930   -0.9970    0.4760 O   0  0  0  0  0  0  0  0  0  0  0  0
  1  2  1  0
  2  3  1  0
  3  4  2  0
  3 12  1  0
  4  5  1  0
  4  9  1  0
  5  6  1  6
  5  7  1  0
  5  8  1  0
  9 10  1  0
 10 11  1  1
 10 12  1  0
M  END
