
     RDKit          3D

 12 12  0  0  0  0  0  0  0  0999 V2000
   -1.8250   -1.4430    0.0800 F   0  0  0  0  0  0  0  0  0  0  0  0
   -2.6910   -0.5440   -0.4540 C   0  0  1  0  0  0  0  0  0  0  0  0
   -2.7810   -0.8240   -1.8190 F   0  0  0  0  0  0  0  0  0  0  0  0
   -3.9730   -0.6660    0.0620 F   0  0  0  0  0  0  0  0  0  0  0  0
   -2.2140    0.8790   -0.3170 C   0  0  0  0  0  0  0  0  0  0  0  0
   -0.6580    1.1490   -1.1150 S   0  0  0  0  0  0  0  0  0  0  0  0
    0.7600    0.4460   -0.3590 C   0  0  0  0  0  0  0  0  0  0  0  0
    1.9270    0.4470   -1.0300 C   0  0  0  0  0  0  0  0  0  0  0  0
    3.1010   -0.1100   -0.4640 N   0  0  0  0  0  0  0  0  0  0  0  0
    3.0980   -0.6770    0.7970 O   0  0  0  0  0  0  0  0  0  0  0  0
    1.9010   -0.6890    1.5040 C   0  0  0  0  0  0  0  0  0  0  0  0
    0.8110   -0.1630    0.9620 C   0  0  0  0  0  0  0  0  0  0  0  0
  2  1  1  1
  2  3  1  0
  2  4  1  0
  2  5  1  0
  5  6  1  0
  6  7  1  0
  7  8  2  0
  7 12  1  0
  8  9  1  0
  9 10  1  0
 10 11  1  0
 11 12  2  0
M  END
