
     RDKit          3D

 15 15  0  0  0  0  0  0  0  0999 V2000
   -4.0420   -2.2010   -1.4320 C   0  0  0  0  0  0  0  0  0  0  0  0
   -3.4760   -1.0140   -1.6030 C   0  0  0  0  0  0  0  0  0  0  0  0
   -2.0740   -0.7840   -1.1740 C   0  0  0  0  0  0  0  0  0  0  0  0
   -2.1100    0.2560   -0.2110 O   0  0  0  0  0  0  0  0  0  0  0  0
   -0.8840    0.6610    0.3540 C   0  0  0  0  0  0  0  0  0  0  0  0
    0.1770    0.0310    0.0210 N   0  0  0  0  0  0  0  0  0  0  0  0
    1.4570    0.3470    0.5220 C   0  0  0  0  0  0  0  0  0  0  0  0
    2.8750   -0.5830    0.0030 S   0  0  0  0  0  0  0  0  0  0  0  0
    4.3950    0.0190    0.7870 C   0  0  0  0  0  0  0  0  0  0  0  0
    5.4930   -0.8240    0.2810 C   0  0  0  0  0  0  0  0  0  0  0  0
    6.3610   -1.5020   -0.1020 N   0  0  0  0  0  0  0  0  0  0  0  0
    1.5550    1.3150    1.3500 N   0  0  0  0  0  0  0  0  0  0  0  0
    0.4520    2.0730    1.7830 C   0  0  0  0  0  0  0  0  0  0  0  0
    0.5690    3.0380    2.6130 O   0  0  0  0  0  0  0  0  0  0  0  0
   -0.9030    1.7890    1.2960 C   0  0  0  0  0  0  0  0  0  0  0  0
  1  2  2  0
  2  3  1  0
  3  4  1  0
  4  5  1  0
  5  6  2  0
  5 15  1  0
  6  7  1  0
  7  8  1  0
  7 12  2  0
  8  9  1  0
  9 10  1  0
 10 11  3  0
 12 13  1  0
 13 14  2  0
 13 15  1  0
M  END
