
     RDKit          3D

 15 15  0  0  0  0  0  0  0  0999 V2000
    3.5750    1.8380    1.1880 C   0  0  0  0  0  0  0  0  0  0  0  0
    2.6290    1.3130    2.1980 C   0  0  0  0  0  0  0  0  0  0  0  0
    2.1690    0.0910    2.0610 C   0  0  0  0  0  0  0  0  0  0  0  0
    2.4790   -0.7910    1.0450 N   0  0  0  0  0  0  0  0  0  0  0  0
    1.9800   -0.9990   -0.0920 C   0  0  0  0  0  0  0  0  0  0  0  0
    0.8710   -0.2740   -0.5940 N   0  0  0  0  0  0  0  0  0  0  0  0
    0.1360    0.6860    0.1850 C   0  0  0  0  0  0  0  0  0  0  0  0
   -1.2100    0.8850   -0.5150 C   0  0  0  0  0  0  0  0  0  0  0  0
   -1.7280   -0.5180   -0.7970 C   0  0  1  0  0  0  0  0  0  0  0  0
   -3.1420   -0.4960   -0.8480 N   0  0  0  0  0  0  0  0  0  0  0  0
   -3.9360   -1.3600    0.3890 S   0  0  1  0  0  0  0  0  0  0  0  0
   -3.1000   -1.2210    1.6460 O   0  0  0  0  0  0  0  0  0  0  0  0
   -5.2450   -0.6780    0.6690 O   0  0  0  0  0  0  0  0  0  0  0  0
   -1.0110   -1.0730   -1.9700 C   0  0  0  0  0  0  0  0  0  0  0  0
    0.4030   -0.4740   -1.9760 C   0  0  0  0  0  0  0  0  0  0  0  0
  1  2  1  0
  2  3  2  3
  3  4  1  0
  4  5  2  3
  5  6  1  0
  6  7  1  0
  6 15  1  0
  7  8  1  0
  8  9  1  0
  9 10  1  6
  9 14  1  0
 11 10  1  6
 11 12  2  0
 11 13  2  0
 14 15  1  0
M  END
