
     RDKit          3D

 15 15  0  0  0  0  0  0  0  0999 V2000
    4.1740    2.1610   -1.2010 C   0  0  0  0  0  0  0  0  0  0  0  0
    4.0330    0.9460   -0.3580 C   0  0  0  0  0  0  0  0  0  0  0  0
    2.8700    0.3480   -0.1360 C   0  0  0  0  0  0  0  0  0  0  0  0
    1.3980    0.9750   -0.8430 S   0  0  1  0  0  0  0  0  0  0  0  0
    1.2480    2.4120   -0.5100 O   0  0  0  0  0  0  0  0  0  0  0  0
    1.5590    0.8580   -2.3380 O   0  0  0  0  0  0  0  0  0  0  0  0
    0.1030   -0.0180   -0.3820 N   0  0  0  0  0  0  0  0  0  0  0  0
   -0.1440   -0.0920    1.0180 C   0  0  0  0  0  0  0  0  0  0  0  0
   -1.6160   -0.3740    1.2280 C   0  0  0  0  0  0  0  0  0  0  0  0
   -1.9980   -1.4700    0.3830 N   0  0  0  0  0  0  0  0  0  0  0  0
   -3.2300   -2.0950    0.7170 C   0  0  0  0  0  0  0  0  0  0  0  0
   -4.3990   -1.2190    0.4980 C   0  0  0  0  0  0  0  0  0  0  0  0
   -5.3150   -0.5220    0.3080 N   0  0  0  0  0  0  0  0  0  0  0  0
   -1.8230   -1.2560   -1.0080 C   0  0  0  0  0  0  0  0  0  0  0  0
   -1.0510    0.0550   -1.2250 C   0  0  0  0  0  0  0  0  0  0  0  0
  1  2  1  0
  2  3  2  3
  3  4  1  0
  4  5  2  0
  4  6  2  0
  4  7  1  1
  7  8  1  0
  7 15  1  0
  8  9  1  0
  9 10  1  0
 10 11  1  0
 10 14  1  0
 11 12  1  0
 12 13  3  0
 14 15  1  0
M  END
