
     RDKit          3D

 12 12  0  0  0  0  0  0  0  0999 V2000
   -2.0020   -1.7190   -0.6990 C   0  0  0  0  0  0  0  0  0  0  0  0
   -1.3520   -0.6460   -0.3110 C   0  0  0  0  0  0  0  0  0  0  0  0
   -2.1000    0.5850    0.0400 C   0  0  0  0  0  0  0  0  0  0  0  0
   -1.4390    1.6630   -0.5440 O   0  0  0  0  0  0  0  0  0  0  0  0
   -0.2270    1.8020    0.1260 C   0  0  0  0  0  0  0  0  0  0  0  0
    0.6070    0.5660    0.0040 C   0  0  0  0  0  0  0  0  0  0  0  0
    2.3710    0.7900    0.1680 S   0  0  0  0  0  0  0  0  0  0  0  0
    3.2730   -0.7570    0.0090 C   0  0  2  0  0  0  0  0  0  0  0  0
    2.9430   -1.5400    1.0900 F   0  0  0  0  0  0  0  0  0  0  0  0
    4.6290   -0.4380    0.0380 F   0  0  0  0  0  0  0  0  0  0  0  0
    3.0090   -1.4080   -1.1960 F   0  0  0  0  0  0  0  0  0  0  0  0
    0.0620   -0.5920   -0.2030 N   0  0  0  0  0  0  0  0  0  0  0  0
  1  2  2  0
  2  3  1  0
  2 12  1  0
  3  4  1  0
  4  5  1  0
  5  6  1  0
  6  7  1  0
  6 12  2  0
  7  8  1  0
  8  9  1  1
  8 10  1  0
  8 11  1  0
M  END
