
     RDKit          3D

 25 26  0  0  0  0  0  0  0  0999 V2000
   -0.3470   -1.8300   -1.3660 O   0  0  0  0  0  0  0  0  0  0  0  0
    0.3920   -1.1460   -0.6450 C   0  0  0  0  0  0  0  0  0  0  0  0
    1.3790   -1.8150    0.2470 C   0  0  1  0  0  0  0  0  0  0  0  0
    1.2790   -3.2020    0.1550 O   0  0  0  0  0  0  0  0  0  0  0  0
    2.7440   -1.3540   -0.1440 C   0  0  2  0  0  0  0  0  0  0  0  0
    3.5490   -1.2700    0.9890 O   0  0  0  0  0  0  0  0  0  0  0  0
    2.7530   -0.1230   -0.9760 C   0  0  0  0  0  0  0  0  0  0  0  0
    1.7350    0.9040   -0.5900 C   0  0  2  0  0  0  0  0  0  0  0  0
    1.7800    1.8890   -1.6080 O   0  0  0  0  0  0  0  0  0  0  0  0
    2.0430    1.6120    0.6660 C   0  0  0  0  0  0  0  0  0  0  0  0
    2.0890    1.0270    1.8010 O   0  0  0  0  0  0  0  0  0  0  0  0
    2.3120    2.9860    0.7330 O   0  0  0  0  0  0  0  0  0  0  0  0
    0.3400    0.3300   -0.6310 C   0  0  2  0  0  0  0  0  0  0  0  0
   -0.5410    0.8360    0.4510 C   0  0  0  0  0  0  0  0  0  0  0  0
   -1.9510    0.4130    0.3820 C   0  0  0  0  0  0  0  0  0  0  0  0
   -2.3730   -0.8180    0.8190 C   0  0  0  0  0  0  0  0  0  0  0  0
   -1.5600   -1.7310    1.3820 F   0  0  0  0  0  0  0  0  0  0  0  0
   -3.7220   -1.1800    0.7130 C   0  0  0  0  0  0  0  0  0  0  0  0
   -4.1390   -2.3940    1.1440 F   0  0  0  0  0  0  0  0  0  0  0  0
   -4.6490   -0.3320    0.1790 C   0  0  0  0  0  0  0  0  0  0  0  0
   -5.9480   -0.6730    0.0730 F   0  0  0  0  0  0  0  0  0  0  0  0
   -4.2480    0.9200   -0.2700 C   0  0  0  0  0  0  0  0  0  0  0  0
   -5.1000    1.8030   -0.8040 F   0  0  0  0  0  0  0  0  0  0  0  0
   -2.9280    1.2500   -0.1560 C   0  0  0  0  0  0  0  0  0  0  0  0
   -2.4900    2.4770   -0.5890 F   0  0  0  0  0  0  0  0  0  0  0  0
  1  2  2  0
  2  3  1  0
  2 13  1  0
  3  4  1  6
  3  5  1  0
  5  6  1  1
  5  7  1  0
  7  8  1  0
  8  9  1  6
  8 10  1  0
  8 13  1  0
 10 11  2  0
 10 12  1  0
 13 14  1  1
 14 15  1  0
 15 16  2  0
 15 24  1  0
 16 17  1  0
 16 18  1  0
 18 19  1  0
 18 20  2  0
 20 21  1  0
 20 22  1  0
 22 23  1  0
 22 24  2  0
 24 25  1  0
M  END
