
     RDKit          3D

 12 12  0  0  0  0  0  0  0  0999 V2000
   -2.8430   -1.1330   -0.3730 C   0  0  0  0  0  0  0  0  0  0  0  0
   -2.0040   -0.1550   -0.1750 C   0  0  0  0  0  0  0  0  0  0  0  0
   -2.2990    1.2830   -0.3950 C   0  0  0  0  0  0  0  0  0  0  0  0
   -1.0170    1.8270   -0.4420 O   0  0  0  0  0  0  0  0  0  0  0  0
   -0.1010    0.9710    0.1220 C   0  0  0  0  0  0  0  0  0  0  0  0
    1.5680    1.4880    0.5260 S   0  0  0  0  0  0  0  0  0  0  0  0
    2.5440    0.1340    1.2050 C   0  0  0  0  0  0  0  0  0  0  0  0
    2.7870   -0.9250    0.1310 C   0  0  2  0  0  0  0  0  0  0  0  0
    3.5230   -1.9690    0.6050 F   0  0  0  0  0  0  0  0  0  0  0  0
    3.5510   -0.3070   -0.8630 F   0  0  0  0  0  0  0  0  0  0  0  0
    1.6000   -1.2880   -0.4220 F   0  0  0  0  0  0  0  0  0  0  0  0
   -0.6580   -0.1680    0.2790 N   0  0  0  0  0  0  0  0  0  0  0  0
  1  2  2  0
  2  3  1  0
  2 12  1  0
  3  4  1  0
  4  5  1  0
  5  6  1  0
  5 12  2  0
  6  7  1  0
  7  8  1  0
  8  9  1  1
  8 10  1  0
  8 11  1  0
M  END
