
     RDKit          3D

 12 12  0  0  0  0  0  0  0  0999 V2000
   -2.1900   -1.1920   -0.0900 C   0  0  0  0  0  0  0  0  0  0  0  0
   -1.3180   -0.0580    0.2100 C   0  0  0  0  0  0  0  0  0  0  0  0
   -0.0110   -0.2270    0.1970 C   0  0  0  0  0  0  0  0  0  0  0  0
    1.0390    0.6740    0.4430 N   0  0  0  0  0  0  0  0  0  0  0  0
    2.1900    0.3870    0.0890 C   0  0  0  0  0  0  0  0  0  0  0  0
    3.3030    1.2600    0.3100 O   0  0  0  0  0  0  0  0  0  0  0  0
    2.4220   -0.9070   -0.5880 C   0  0  0  0  0  0  0  0  0  0  0  0
    0.8780   -1.7680   -0.1650 S   0  0  0  0  0  0  0  0  0  0  0  0
   -1.8620    1.2780    0.5290 C   0  0  2  0  0  0  0  0  0  0  0  0
   -0.8250    2.1550    0.7690 F   0  0  0  0  0  0  0  0  0  0  0  0
   -2.7360    1.1990    1.6030 F   0  0  0  0  0  0  0  0  0  0  0  0
   -2.6000    1.6830   -0.5910 F   0  0  0  0  0  0  0  0  0  0  0  0
  1  2  1  0
  2  3  2  3
  2  9  1  0
  3  4  1  0
  3  8  1  0
  4  5  2  0
  5  6  1  0
  5  7  1  0
  7  8  1  0
  9 10  1  1
  9 11  1  0
  9 12  1  0
M  END
