
     RDKit          3D

 12 12  0  0  0  0  0  0  0  0999 V2000
   -3.6370   -0.0130    1.1460 F   0  0  0  0  0  0  0  0  0  0  0  0
   -3.4070    0.1830   -0.1930 C   0  0  2  0  0  0  0  0  0  0  0  0
   -4.1500    1.2230   -0.7180 F   0  0  0  0  0  0  0  0  0  0  0  0
   -3.6740   -0.9870   -0.8680 F   0  0  0  0  0  0  0  0  0  0  0  0
   -1.9410    0.5470   -0.3680 C   0  0  0  0  0  0  0  0  0  0  0  0
   -0.9650   -0.8300    0.2670 S   0  0  0  0  0  0  0  0  0  0  0  0
    0.7880   -0.4580    0.0870 C   0  0  0  0  0  0  0  0  0  0  0  0
    1.1380    0.6990   -0.4520 C   0  0  0  0  0  0  0  0  0  0  0  0
    2.5300    0.9610   -0.5800 N   0  0  0  0  0  0  0  0  0  0  0  0
    3.4690    0.0520   -0.1610 O   0  0  0  0  0  0  0  0  0  0  0  0
    3.0520   -1.1490    0.3990 C   0  0  0  0  0  0  0  0  0  0  0  0
    1.7730   -1.4480    0.5430 C   0  0  0  0  0  0  0  0  0  0  0  0
  2  1  1  1
  2  3  1  0
  2  4  1  0
  2  5  1  0
  5  6  1  0
  6  7  1  0
  7  8  2  0
  7 12  1  0
  8  9  1  0
  9 10  1  0
 10 11  1  0
 11 12  2  0
M  END
