
     RDKit          3D

 27 29  0  0  0  0  0  0  0  0999 V2000
   -3.5270    3.6870   -0.6090 C   0  0  0  0  0  0  0  0  0  0  0  0
   -3.7780    2.8560    0.6290 C   0  0  1  0  0  0  0  0  0  0  0  0
   -5.2100    3.0700    1.0490 C   0  0  0  0  0  0  0  0  0  0  0  0
   -3.5230    1.4150    0.3570 C   0  0  0  0  0  0  0  0  0  0  0  0
   -4.5020    0.6060    0.3810 N   0  0  0  0  0  0  0  0  0  0  0  0
   -4.4220   -0.7900    0.1450 C   0  0  0  0  0  0  0  0  0  0  0  0
   -3.0800   -1.2980   -0.1820 C   0  0  1  0  0  0  0  0  0  0  0  0
   -3.0970   -2.0740   -1.5100 C   0  0  0  0  0  0  0  0  0  0  0  0
   -4.0220   -3.1800   -1.3390 N   0  0  0  0  0  0  0  0  0  0  0  0
   -2.0060   -0.3040   -0.1880 C   0  0  0  0  0  0  0  0  0  0  0  0
   -2.1600    0.9730    0.0560 C   0  0  0  0  0  0  0  0  0  0  0  0
   -1.0070    1.9100    0.0490 C   0  0  0  0  0  0  0  0  0  0  0  0
    0.2400    1.1830   -0.2500 N   0  0  0  0  0  0  0  0  0  0  0  0
    0.5960    1.1000   -1.6170 C   0  0  0  0  0  0  0  0  0  0  0  0
    0.9350    0.6640    0.8350 C   0  0  0  0  0  0  0  0  0  0  0  0
    0.3940    0.8800    2.0290 O   0  0  0  0  0  0  0  0  0  0  0  0
    2.1570   -0.0820    0.9240 C   0  0  0  0  0  0  0  0  0  0  0  0
    2.6500   -0.4990    2.1650 C   0  0  0  0  0  0  0  0  0  0  0  0
    3.8220   -1.2180    2.3010 C   0  0  0  0  0  0  0  0  0  0  0  0
    4.5720   -1.5620    1.1910 C   0  0  0  0  0  0  0  0  0  0  0  0
    4.1170   -1.1680   -0.0420 C   0  0  0  0  0  0  0  0  0  0  0  0
    2.9230   -0.4390   -0.1480 C   0  0  0  0  0  0  0  0  0  0  0  0
    4.8730   -1.5110   -1.1850 N   0  0  0  0  0  0  0  0  0  0  0  0
    6.3020   -1.7530   -1.0140 C   0  0  1  0  0  0  0  0  0  0  0  0
    6.9300   -0.3690   -0.8180 C   0  0  0  0  0  0  0  0  0  0  0  0
    6.5890   -2.5780    0.2000 C   0  0  0  0  0  0  0  0  0  0  0  0
    5.7420   -2.2750    1.2840 O   0  0  0  0  0  0  0  0  0  0  0  0
  2  1  1  6
  2  3  1  0
  2  4  1  0
  4  5  2  0
  4 11  1  0
  5  6  1  0
  6  7  1  0
  7  8  1  6
  7 10  1  0
  8  9  1  0
 10 11  2  0
 11 12  1  0
 12 13  1  0
 13 14  1  0
 13 15  1  0
 15 16  2  0
 15 17  1  0
 17 18  2  0
 17 22  1  0
 18 19  1  0
 19 20  2  0
 20 21  1  0
 20 27  1  0
 21 22  2  0
 21 23  1  0
 23 24  1  0
 24 25  1  1
 24 26  1  0
 26 27  1  0
M  CHG  2   5   1   9   1
M  END
