
     RDKit          3D

 21 22  0  0  0  0  0  0  0  0999 V2000
    1.1220    3.1050   -0.7660 O   0  0  0  0  0  0  0  0  0  0  0  0
    1.2870    1.7810   -0.4240 C   0  0  0  0  0  0  0  0  0  0  0  0
    0.3760    1.0820    0.2100 C   0  0  0  0  0  0  0  0  0  0  0  0
   -0.8850    1.7320    0.5830 C   0  0  0  0  0  0  0  0  0  0  0  0
   -0.9150    3.0450    0.9690 C   0  0  0  0  0  0  0  0  0  0  0  0
   -2.1580    3.5830    1.3080 C   0  0  0  0  0  0  0  0  0  0  0  0
   -3.2760    2.8240    1.2530 N   0  0  0  0  0  0  0  0  0  0  0  0
   -3.2210    1.5370    0.8730 C   0  0  0  0  0  0  0  0  0  0  0  0
   -2.0310    0.9340    0.5220 C   0  0  0  0  0  0  0  0  0  0  0  0
   -1.9210   -0.4620    0.1050 C   0  0  0  0  0  0  0  0  0  0  0  0
   -2.9750   -1.0490   -0.4020 C   0  0  0  0  0  0  0  0  0  0  0  0
   -2.9940   -2.4610   -0.8630 C   0  0  1  0  0  0  0  0  0  0  0  0
   -2.3160   -3.3160   -0.0020 O   0  0  0  0  0  0  0  0  0  0  0  0
   -4.6660   -3.0700   -0.9860 Cl  0  0  0  0  0  0  0  0  0  0  0  0
   -2.2310   -2.6330   -2.4680 Cl  0  0  0  0  0  0  0  0  0  0  0  0
   -0.6640   -1.1990    0.2420 C   0  0  0  0  0  0  0  0  0  0  0  0
    0.5420   -0.3300    0.5520 C   0  0  1  0  0  0  0  0  0  0  0  0
    1.6830   -0.8940   -0.1180 N   0  0  0  0  0  0  0  0  0  0  0  0
    2.9040   -0.7900    0.6570 C   0  0  0  0  0  0  0  0  0  0  0  0
    4.0620   -0.9010   -0.3110 C   0  0  0  0  0  0  0  0  0  0  0  0
    5.2920   -0.8090    0.3640 O   0  0  0  0  0  0  0  0  0  0  0  0
  1  2  1  0
  2  3  2  3
  3  4  1  0
  3 17  1  0
  4  5  2  0
  4  9  1  0
  5  6  1  0
  6  7  2  0
  7  8  1  0
  8  9  2  0
  9 10  1  0
 10 11  2  3
 10 16  1  0
 11 12  1  0
 12 13  1  1
 12 14  1  0
 12 15  1  0
 16 17  1  0
 17 18  1  6
 18 19  1  0
 19 20  1  0
 20 21  1  0
M  CHG  1  18   1
M  END
