
     RDKit          3D

 21 21  0  0  0  0  0  0  0  0999 V2000
   -5.3120   -0.2190    3.1250 C   0  0  0  0  0  0  0  0  0  0  0  0
   -4.2620   -0.2580    2.3020 C   0  0  0  0  0  0  0  0  0  0  0  0
   -4.3990    0.0420    0.8950 C   0  0  0  0  0  0  0  0  0  0  0  0
   -5.7270    0.3820    0.4400 N   0  0  0  0  0  0  0  0  0  0  0  0
   -3.4000    0.0220    0.0280 C   0  0  0  0  0  0  0  0  0  0  0  0
   -2.0540   -0.3040    0.3940 C   0  0  0  0  0  0  0  0  0  0  0  0
   -1.0200   -0.3280   -0.4450 C   0  0  0  0  0  0  0  0  0  0  0  0
    0.2590   -0.6810    0.0870 C   0  0  0  0  0  0  0  0  0  0  0  0
    1.4470   -0.8380   -0.3830 C   0  0  0  0  0  0  0  0  0  0  0  0
    2.0150   -0.7230   -1.7310 C   0  0  0  0  0  0  0  0  0  0  0  0
    2.8600    0.4220   -1.6870 O   0  0  0  0  0  0  0  0  0  0  0  0
    3.8730    0.3720   -0.6980 C   0  0  0  0  0  0  0  0  0  0  0  0
    4.8800    1.2160   -0.7750 C   0  0  0  0  0  0  0  0  0  0  0  0
    5.9610    1.2710    0.1470 C   0  0  0  0  0  0  0  0  0  0  0  0
    6.1530    0.4640    1.2640 N   0  0  0  0  0  0  0  0  0  0  0  0
    6.8790    2.1580   -0.0490 O   0  0  0  0  0  0  0  0  0  0  0  0
    3.7950   -0.6060    0.3920 C   0  0  0  0  0  0  0  0  0  0  0  0
    2.5000   -1.1980    0.5580 O   0  0  0  0  0  0  0  0  0  0  0  0
   -1.2710    0.0790   -1.8210 C   0  0  1  0  0  0  0  0  0  0  0  0
   -2.3860   -0.9940   -2.7050 Cl  0  0  0  0  0  0  0  0  0  0  0  0
   -2.0360    1.7380   -1.8500 Cl  0  0  0  0  0  0  0  0  0  0  0  0
  1  2  2  0
  2  3  1  0
  3  4  1  0
  3  5  2  3
  5  6  1  0
  6  7  2  3
  7  8  1  0
  7 19  1  0
  8  9  2  3
  9 10  1  0
  9 18  1  0
 10 11  1  0
 11 12  1  0
 12 13  2  3
 12 17  1  0
 13 14  1  0
 14 15  1  0
 14 16  2  0
 17 18  1  0
 19 20  1  1
 19 21  1  0
M  CHG  1   4   1
M  END
