
     RDKit          3D

 28 29  0  0  0  0  0  0  0  0999 V2000
    0.2680   -3.0510   -2.0660 C   0  0  0  0  0  0  0  0  0  0  0  0
   -0.4380   -3.2440   -0.8030 C   0  0  0  0  0  0  0  0  0  0  0  0
   -0.4400   -2.1770    0.2710 C   0  0  1  0  0  0  0  0  0  0  0  0
    1.0010   -2.0800    0.5550 N   0  0  0  0  0  0  0  0  0  0  0  0
    1.3330   -1.3480    1.7470 C   0  0  1  0  0  0  0  0  0  0  0  0
    2.4700   -2.0370    2.4480 C   0  0  0  0  0  0  0  0  0  0  0  0
    1.6440    0.1080    1.3850 C   0  0  0  0  0  0  0  0  0  0  0  0
    2.7470    0.1500    0.3830 C   0  0  0  0  0  0  0  0  0  0  0  0
    3.5770   -0.7990    0.2250 O   0  0  0  0  0  0  0  0  0  0  0  0
    2.9370    1.2630   -0.4800 N   0  0  0  0  0  0  0  0  0  0  0  0
    3.9640    1.2960   -1.4540 C   0  0  0  0  0  0  0  0  0  0  0  0
    5.3810    1.2660   -0.9930 C   0  0  0  0  0  0  0  0  0  0  0  0
    5.7010    2.4360   -0.1690 N   0  0  0  0  0  0  0  0  0  0  0  0
   -0.9640   -0.8770   -0.1350 C   0  0  0  0  0  0  0  0  0  0  0  0
   -0.5750   -0.2390   -1.2740 C   0  0  0  0  0  0  0  0  0  0  0  0
   -0.9880    1.0640   -1.6100 C   0  0  0  0  0  0  0  0  0  0  0  0
   -1.8110    1.7580   -0.7950 C   0  0  0  0  0  0  0  0  0  0  0  0
   -2.3420    3.4040   -1.1640 Cl  0  0  0  0  0  0  0  0  0  0  0  0
   -2.2180    1.1240    0.3650 C   0  0  0  0  0  0  0  0  0  0  0  0
   -3.1030    1.8160    1.2270 O   0  0  0  0  0  0  0  0  0  0  0  0
   -4.4630    1.6880    0.8680 C   0  0  0  0  0  0  0  0  0  0  0  0
   -5.4440    2.0550    1.7110 C   0  0  0  0  0  0  0  0  0  0  0  0
   -6.7900    1.9460    1.3960 C   0  0  0  0  0  0  0  0  0  0  0  0
   -7.1190    1.4240    0.1300 C   0  0  0  0  0  0  0  0  0  0  0  0
   -6.1220    1.0490   -0.7360 C   0  0  0  0  0  0  0  0  0  0  0  0
   -4.7990    1.1740   -0.3830 C   0  0  0  0  0  0  0  0  0  0  0  0
   -1.8110   -0.1390    0.6870 C   0  0  0  0  0  0  0  0  0  0  0  0
   -2.2680   -0.6480    1.8780 F   0  0  0  0  0  0  0  0  0  0  0  0
  1  2  1  0
  3  2  1  6
  3  4  1  0
  3 14  1  0
  4  5  1  0
  5  6  1  6
  5  7  1  0
  7  8  1  0
  8  9  2  0
  8 10  1  0
 10 11  1  0
 11 12  1  0
 12 13  1  0
 14 15  2  0
 14 27  1  0
 15 16  1  0
 16 17  2  0
 17 18  1  0
 17 19  1  0
 19 20  1  0
 19 27  2  0
 20 21  1  0
 21 22  2  0
 21 26  1  0
 22 23  1  0
 23 24  2  0
 24 25  1  0
 25 26  2  0
 27 28  1  0
M  CHG  2   4   1  13   1
M  END
