
     RDKit          3D

 28 29  0  0  0  0  0  0  0  0999 V2000
    1.1420    0.7100   -2.4300 C   0  0  0  0  0  0  0  0  0  0  0  0
    1.0840   -0.1390   -1.1880 C   0  0  2  0  0  0  0  0  0  0  0  0
    0.6550   -1.5310   -1.6070 C   0  0  0  0  0  0  0  0  0  0  0  0
    0.1270    0.4870   -0.1980 C   0  0  0  0  0  0  0  0  0  0  0  0
   -1.1690    0.5740   -0.7760 N   0  0  0  0  0  0  0  0  0  0  0  0
   -2.2440   -0.0040   -0.0470 C   0  0  2  0  0  0  0  0  0  0  0  0
   -3.4690    0.1040   -0.9440 C   0  0  0  0  0  0  0  0  0  0  0  0
   -4.6870   -0.4460   -0.3610 C   0  0  0  0  0  0  0  0  0  0  0  0
   -5.6540    0.3940    0.1190 C   0  0  0  0  0  0  0  0  0  0  0  0
   -6.8090   -0.1110    0.6680 C   0  0  0  0  0  0  0  0  0  0  0  0
   -7.7890    0.7240    1.1550 F   0  0  0  0  0  0  0  0  0  0  0  0
   -7.0190   -1.4700    0.7470 C   0  0  0  0  0  0  0  0  0  0  0  0
   -6.0390   -2.3050    0.2590 C   0  0  0  0  0  0  0  0  0  0  0  0
   -4.8780   -1.8040   -0.2920 C   0  0  0  0  0  0  0  0  0  0  0  0
   -3.6470   -2.9290   -0.9060 Cl  0  0  0  0  0  0  0  0  0  0  0  0
   -2.4930    0.3500    1.3460 C   0  0  0  0  0  0  0  0  0  0  0  0
   -2.7970    1.7320    1.7540 C   0  0  1  0  0  0  0  0  0  0  0  0
   -3.0330    1.6500    3.1800 O   0  0  0  0  0  0  0  0  0  0  0  0
   -1.5880    2.6750    1.7330 C   0  0  0  0  0  0  0  0  0  0  0  0
   -0.5310    2.1230    2.4540 O   0  0  0  0  0  0  0  0  0  0  0  0
    2.4390   -0.1870   -0.6540 N   0  0  0  0  0  0  0  0  0  0  0  0
    3.3070   -0.5060   -1.7640 C   0  0  0  0  0  0  0  0  0  0  0  0
    4.5980   -0.6750   -1.5470 C   0  0  0  0  0  0  0  0  0  0  0  0
    5.1480   -0.5500   -0.2550 N   0  0  0  0  0  0  0  0  0  0  0  0
    5.4750   -1.6350    0.6280 C   0  0  0  0  0  0  0  0  0  0  0  0
    6.7910   -1.1880    1.2260 C   0  0  0  0  0  0  0  0  0  0  0  0
    6.6230    0.2960    1.3470 C   0  0  0  0  0  0  0  0  0  0  0  0
    5.4830    0.6770    0.4100 C   0  0  0  0  0  0  0  0  0  0  0  0
  2  1  1  6
  2  3  1  0
  2  4  1  0
  2 21  1  0
  4  5  1  0
  5  6  1  0
  6  7  1  6
  6 16  1  0
  7  8  1  0
  8  9  2  0
  8 14  1  0
  9 10  1  0
 10 11  1  0
 10 12  2  0
 12 13  1  0
 13 14  2  0
 14 15  1  0
 16 17  1  0
 17 18  1  1
 17 19  1  0
 19 20  1  0
 21 22  1  0
 22 23  2  3
 23 24  1  0
 24 25  1  0
 24 28  1  0
 25 26  1  0
 26 27  1  0
 27 28  1  0
M  CHG  2   5   1  21   1
M  END
