
     RDKit          3D

 25 28  0  0  0  0  0  0  0  0999 V2000
    1.1280    1.3300    0.7020 O   0  0  0  0  0  0  0  0  0  0  0  0
    0.9810    0.1250    0.8420 C   0  0  0  0  0  0  0  0  0  0  0  0
   -0.2600   -0.5010    1.0550 N   0  0  0  0  0  0  0  0  0  0  0  0
   -1.5450    0.0870    1.1290 C   0  0  0  0  0  0  0  0  0  0  0  0
   -2.1750    0.7160   -0.0560 C   0  0  2  0  0  0  0  0  0  0  0  0
   -2.2260   -0.3100   -1.0890 N   0  0  0  0  0  0  0  0  0  0  0  0
   -2.7980   -1.6050   -0.9420 C   0  0  0  0  0  0  0  0  0  0  0  0
   -3.7020   -2.0740   -0.1270 C   0  0  0  0  0  0  0  0  0  0  0  0
   -3.9290   -3.5010   -0.4050 C   0  0  0  0  0  0  0  0  0  0  0  0
   -3.0200   -3.8110   -1.5110 C   0  0  0  0  0  0  0  0  0  0  0  0
   -2.3850   -2.7200   -1.8030 C   0  0  0  0  0  0  0  0  0  0  0  0
   -1.4700    1.9080   -0.5840 C   0  0  0  0  0  0  0  0  0  0  0  0
   -1.4440    3.0180    0.4340 C   0  0  0  0  0  0  0  0  0  0  0  0
   -2.8580    3.5280    0.5860 C   0  0  0  0  0  0  0  0  0  0  0  0
   -3.8900    2.5780    0.0960 C   0  0  0  0  0  0  0  0  0  0  0  0
   -3.6170    1.1300    0.2870 C   0  0  0  0  0  0  0  0  0  0  0  0
    2.1900   -0.7480    0.7840 C   0  0  0  0  0  0  0  0  0  0  0  0
    2.2710   -2.0710    0.9090 N   0  0  0  0  0  0  0  0  0  0  0  0
    3.5310   -2.4770    0.7980 N   0  0  0  0  0  0  0  0  0  0  0  0
    4.3230   -1.3900    0.5920 C   0  0  0  0  0  0  0  0  0  0  0  0
    3.4740   -0.2970    0.5840 C   0  0  0  0  0  0  0  0  0  0  0  0
    4.1110    1.0300    0.3720 C   0  0  0  0  0  0  0  0  0  0  0  0
    5.0040    0.8660   -0.8530 C   0  0  0  0  0  0  0  0  0  0  0  0
    6.0540   -0.1800   -0.6820 C   0  0  0  0  0  0  0  0  0  0  0  0
    5.7810   -1.1840    0.3960 C   0  0  0  0  0  0  0  0  0  0  0  0
  1  2  2  0
  2  3  1  0
  2 17  1  0
  3  4  1  0
  5  4  1  1
  5  6  1  0
  5 12  1  0
  5 16  1  0
  6  7  1  0
  7  8  2  0
  7 11  1  0
  8  9  1  0
  9 10  1  0
 10 11  2  0
 12 13  1  0
 13 14  1  0
 14 15  1  0
 15 16  1  0
 17 18  2  0
 17 21  1  0
 18 19  1  0
 19 20  1  0
 20 21  2  0
 20 25  1  0
 21 22  1  0
 22 23  1  0
 23 24  1  0
 24 25  1  0
M  END
