
     RDKit          3D

 27 28  0  0  0  0  0  0  0  0999 V2000
   -2.3980    1.3470    2.9240 C   0  0  0  0  0  0  0  0  0  0  0  0
   -2.4850   -0.0940    2.4040 C   0  0  0  0  0  0  0  0  0  0  0  0
   -1.6120   -0.2960    1.3100 N   0  0  0  0  0  0  0  0  0  0  0  0
   -2.0570   -0.0990   -0.0080 C   0  0  1  0  0  0  0  0  0  0  0  0
   -1.0980   -0.8280   -0.9370 C   0  0  0  0  0  0  0  0  0  0  0  0
    0.3340   -0.3330   -0.8350 C   0  0  1  0  0  0  0  0  0  0  0  0
    0.4140    1.1530   -1.1870 C   0  0  0  0  0  0  0  0  0  0  0  0
    1.8970    1.5140   -1.0460 C   0  0  0  0  0  0  0  0  0  0  0  0
    2.1160    2.9770   -1.3700 C   0  0  0  0  0  0  0  0  0  0  0  0
    3.5120    3.3180   -1.2380 N   0  0  0  0  0  0  0  0  0  0  0  0
    3.7140    4.5280   -0.4590 C   0  0  0  0  0  0  0  0  0  0  0  0
    0.9390   -0.6320    0.3490 O   0  0  0  0  0  0  0  0  0  0  0  0
    1.9710   -1.3280    0.8190 C   0  0  0  0  0  0  0  0  0  0  0  0
    2.2620   -1.3730    2.1980 C   0  0  0  0  0  0  0  0  0  0  0  0
    3.3020   -2.0670    2.7370 C   0  0  0  0  0  0  0  0  0  0  0  0
    4.1390   -2.7800    1.9030 C   0  0  0  0  0  0  0  0  0  0  0  0
    5.4800   -3.6770    2.5880 Cl  0  0  0  0  0  0  0  0  0  0  0  0
    3.9080   -2.7770    0.5450 C   0  0  0  0  0  0  0  0  0  0  0  0
    4.8060   -3.5430   -0.3600 C   0  0  0  0  0  0  0  0  0  0  0  0
    2.8260   -2.0490    0.0310 C   0  0  0  0  0  0  0  0  0  0  0  0
    2.6840   -2.1160   -1.3770 N   0  0  0  0  0  0  0  0  0  0  0  0
   -3.4460   -0.4630   -0.3840 C   0  0  1  0  0  0  0  0  0  0  0  0
   -3.7940   -1.9040   -0.2150 C   0  0  0  0  0  0  0  0  0  0  0  0
   -4.5400    0.4040    0.1410 C   0  0  0  0  0  0  0  0  0  0  0  0
   -5.3970    0.8210   -1.0690 C   0  0  0  0  0  0  0  0  0  0  0  0
   -4.8800   -0.1760   -2.0860 C   0  0  0  0  0  0  0  0  0  0  0  0
   -3.5450   -0.1860   -1.7790 O   0  0  0  0  0  0  0  0  0  0  0  0
  1  2  1  0
  2  3  1  0
  3  4  1  0
  4  5  1  6
  4 22  1  0
  6  5  1  1
  6  7  1  0
  6 12  1  0
  7  8  1  0
  8  9  1  0
  9 10  1  0
 10 11  1  0
 12 13  1  0
 13 14  2  0
 13 20  1  0
 14 15  1  0
 15 16  2  0
 16 17  1  0
 16 18  1  0
 18 19  1  0
 18 20  2  0
 20 21  1  0
 22 23  1  6
 22 24  1  0
 22 27  1  0
 24 25  1  0
 25 26  1  0
 26 27  1  0
M  CHG  2   3   1  10   1
M  END
