
     RDKit          3D

 28 29  0  0  0  0  0  0  0  0999 V2000
    9.4140    1.3500    0.0900 N   0  0  0  0  0  0  0  0  0  0  0  0
    8.6100    0.1990    0.0790 C   0  0  0  0  0  0  0  0  0  0  0  0
    7.2720    0.3170    0.2460 C   0  0  0  0  0  0  0  0  0  0  0  0
    6.4430   -0.8470    0.2360 C   0  0  0  0  0  0  0  0  0  0  0  0
    5.1050   -0.8390    0.3930 C   0  0  0  0  0  0  0  0  0  0  0  0
    4.4380    0.3950    0.5830 C   0  0  0  0  0  0  0  0  0  0  0  0
    3.2650    0.8230    0.7810 C   0  0  0  0  0  0  0  0  0  0  0  0
    1.9230    0.3610    0.9420 C   0  0  0  0  0  0  0  0  0  0  0  0
    1.5110   -0.8760    1.3320 C   0  0  0  0  0  0  0  0  0  0  0  0
    0.1680   -1.2370    1.3610 C   0  0  0  0  0  0  0  0  0  0  0  0
   -0.7800   -0.3270    0.9890 C   0  0  0  0  0  0  0  0  0  0  0  0
   -0.4430    0.9410    0.5860 C   0  0  0  0  0  0  0  0  0  0  0  0
   -1.4250    1.9370    0.1850 C   0  0  0  0  0  0  0  0  0  0  0  0
   -2.7920    1.4940    0.2670 N   0  0  0  0  0  0  0  0  0  0  0  0
   -3.1350    0.8420   -0.9570 C   0  0  0  0  0  0  0  0  0  0  0  0
   -4.5260    0.2640   -0.9830 C   0  0  2  0  0  0  0  0  0  0  0  0
   -5.5810    1.3300   -0.7790 C   0  0  0  0  0  0  0  0  0  0  0  0
   -6.8210    0.6660   -0.7300 O   0  0  0  0  0  0  0  0  0  0  0  0
   -6.9590   -0.0090    0.4840 C   0  0  0  0  0  0  0  0  0  0  0  0
   -5.6460   -0.5240    0.9810 C   0  0  0  0  0  0  0  0  0  0  0  0
   -4.7180   -0.8440   -0.1040 N   0  0  0  0  0  0  0  0  0  0  0  0
   -5.3120   -1.9820   -0.7970 C   0  0  0  0  0  0  0  0  0  0  0  0
   -4.4250   -2.3590   -1.9070 C   0  0  0  0  0  0  0  0  0  0  0  0
   -4.7270   -3.2890   -2.6230 O   0  0  0  0  0  0  0  0  0  0  0  0
    0.8900    1.2630    0.5680 C   0  0  0  0  0  0  0  0  0  0  0  0
    4.4350   -2.1870    0.2880 C   0  0  1  0  0  0  0  0  0  0  0  0
    3.4580   -2.1380   -0.6590 F   0  0  0  0  0  0  0  0  0  0  0  0
    5.6740   -3.3720   -0.2860 Cl  0  0  0  0  0  0  0  0  0  0  0  0
  1  2  1  0
  2  3  2  3
  3  4  1  0
  4  5  2  3
  5  6  1  0
  5 26  1  0
  6  7  2  3
  7  8  1  0
  8  9  2  0
  8 25  1  0
  9 10  1  0
 10 11  2  0
 11 12  1  0
 12 13  1  0
 12 25  2  0
 13 14  1  0
 14 15  1  0
 16 15  1  1
 16 17  1  0
 16 21  1  0
 17 18  1  0
 18 19  1  0
 19 20  1  0
 20 21  1  0
 21 22  1  0
 22 23  1  0
 23 24  2  0
 26 27  1  6
 26 28  1  0
M  CHG  2   1   1  14   1
M  END
