
     RDKit          3D

 28 29  0  0  0  0  0  0  0  0999 V2000
    0.8250   -4.4820   -1.2560 C   0  0  0  0  0  0  0  0  0  0  0  0
    1.3950   -3.5610   -0.5150 C   0  0  0  0  0  0  0  0  0  0  0  0
    1.5970   -3.8320    0.9290 C   0  0  0  0  0  0  0  0  0  0  0  0
    1.1130   -5.0850    1.2380 F   0  0  0  0  0  0  0  0  0  0  0  0
    1.7860   -2.3730   -1.1130 O   0  0  0  0  0  0  0  0  0  0  0  0
    1.9900   -1.1940   -0.4300 C   0  0  0  0  0  0  0  0  0  0  0  0
    3.2420   -0.9430    0.0530 C   0  0  0  0  0  0  0  0  0  0  0  0
    4.3400   -1.8530   -0.1220 N   0  0  0  0  0  0  0  0  0  0  0  0
    3.5110    0.2090    0.7390 C   0  0  0  0  0  0  0  0  0  0  0  0
    2.5290    1.1340    0.9550 C   0  0  0  0  0  0  0  0  0  0  0  0
    2.7330    2.3360    1.6480 O   0  0  0  0  0  0  0  0  0  0  0  0
    3.9790    2.6600    2.1560 C   0  0  0  0  0  0  0  0  0  0  0  0
    5.0870    2.7980    1.1690 C   0  0  0  0  0  0  0  0  0  0  0  0
    1.2580    0.8410    0.4440 C   0  0  0  0  0  0  0  0  0  0  0  0
    0.9360   -0.2780   -0.2400 C   0  0  0  0  0  0  0  0  0  0  0  0
   -0.3300   -0.6520   -0.7890 C   0  0  0  0  0  0  0  0  0  0  0  0
   -1.5010    0.0900   -0.7280 N   0  0  1  0  0  0  0  0  0  0  0  0
   -1.8810    0.3600    0.6500 C   0  0  0  0  0  0  0  0  0  0  0  0
   -3.3390    0.1450    0.8260 C   0  0  0  0  0  0  0  0  0  0  0  0
   -3.8890   -0.3130    1.9040 C   0  0  0  0  0  0  0  0  0  0  0  0
   -3.1600   -0.6900    3.1260 C   0  0  0  0  0  0  0  0  0  0  0  0
   -3.4830   -2.4350    3.4260 Cl  0  0  0  0  0  0  0  0  0  0  0  0
   -4.2800    0.5010   -0.3250 C   0  0  0  0  0  0  0  0  0  0  0  0
   -3.9390    1.8290   -0.6940 N   0  0  0  0  0  0  0  0  0  0  0  0
   -2.8050    2.0800   -1.4470 C   0  0  0  0  0  0  0  0  0  0  0  0
   -1.7360    1.1080   -1.6750 C   0  0  1  0  0  0  0  0  0  0  0  0
   -0.4640    1.9050   -2.0360 C   0  0  0  0  0  0  0  0  0  0  0  0
   -2.0390    0.3930   -3.0150 C   0  0  0  0  0  0  0  0  0  0  0  0
  1  2  2  0
  2  3  1  0
  2  5  1  0
  3  4  1  0
  5  6  1  0
  6  7  2  0
  6 15  1  0
  7  8  1  0
  7  9  1  0
  9 10  2  0
 10 11  1  0
 10 14  1  0
 11 12  1  0
 12 13  1  0
 14 15  2  0
 15 16  1  0
 17 16  1  1
 17 18  1  0
 17 26  1  0
 18 19  1  0
 19 20  2  3
 19 23  1  0
 20 21  1  0
 21 22  1  0
 23 24  1  0
 24 25  1  0
 25 26  1  0
 26 27  1  6
 26 28  1  0
M  CHG  2  17   1  24   1
M  END
