
     RDKit          3D

 17 18  0  0  0  0  0  0  0  0999 V2000
   -4.1190    0.9460   -0.5000 C   0  0  0  0  0  0  0  0  0  0  0  0
   -2.9580    0.1510   -0.9420 C   0  0  0  0  0  0  0  0  0  0  0  0
   -2.0790   -0.2910   -0.0880 C   0  0  0  0  0  0  0  0  0  0  0  0
   -2.2640    0.0190    1.3520 C   0  0  0  0  0  0  0  0  0  0  0  0
   -2.3740   -1.1760    2.0540 F   0  0  0  0  0  0  0  0  0  0  0  0
   -0.9220   -1.0880   -0.5600 C   0  0  2  0  0  0  0  0  0  0  0  0
   -1.0040   -2.4530   -0.0720 N   0  0  0  0  0  0  0  0  0  0  0  0
    0.3710   -0.4620   -0.2330 C   0  0  0  0  0  0  0  0  0  0  0  0
    1.5990   -1.0460   -0.3810 C   0  0  0  0  0  0  0  0  0  0  0  0
    2.5480   -0.1160    0.0420 C   0  0  0  0  0  0  0  0  0  0  0  0
    3.9220   -0.1650    0.1120 C   0  0  0  0  0  0  0  0  0  0  0  0
    4.6100    0.9500    0.5890 C   0  0  0  0  0  0  0  0  0  0  0  0
    5.9580    0.8900    0.6530 F   0  0  0  0  0  0  0  0  0  0  0  0
    3.9070    2.0790    0.9820 C   0  0  0  0  0  0  0  0  0  0  0  0
    2.5300    2.0900    0.8970 C   0  0  0  0  0  0  0  0  0  0  0  0
    1.8190    0.9910    0.4240 C   0  0  0  0  0  0  0  0  0  0  0  0
    0.5440    0.7260    0.2390 O   0  0  0  0  0  0  0  0  0  0  0  0
  1  2  1  0
  2  3  2  3
  3  4  1  0
  3  6  1  0
  4  5  1  0
  6  7  1  1
  6  8  1  0
  8  9  2  0
  8 17  1  0
  9 10  1  0
 10 11  2  0
 10 16  1  0
 11 12  1  0
 12 13  1  0
 12 14  2  0
 14 15  1  0
 15 16  2  0
 16 17  1  0
M  CHG  1   7   1
M  END
