
     RDKit          3D

 17 18  0  0  0  0  0  0  0  0999 V2000
    2.5980   -0.4750   -1.2930 O   0  0  0  0  0  0  0  0  0  0  0  0
    1.6220    0.0880   -0.6190 C   0  0  0  0  0  0  0  0  0  0  0  0
    1.9170    1.3940   -0.2970 N   0  0  0  0  0  0  0  0  0  0  0  0
    3.0400    2.1470   -0.6400 C   0  0  0  0  0  0  0  0  0  0  0  0
    4.0760    1.8510   -1.3240 C   0  0  0  0  0  0  0  0  0  0  0  0
    4.4200    0.7160   -1.9380 F   0  0  0  0  0  0  0  0  0  0  0  0
    5.0410    2.8630   -1.4820 F   0  0  0  0  0  0  0  0  0  0  0  0
    0.5600   -0.8370   -0.4170 C   0  0  0  0  0  0  0  0  0  0  0  0
   -0.6620   -0.8320    0.0120 C   0  0  0  0  0  0  0  0  0  0  0  0
   -1.5540    0.2120    0.4880 C   0  0  0  0  0  0  0  0  0  0  0  0
   -2.7730   -0.0620    0.9740 C   0  0  0  0  0  0  0  0  0  0  0  0
   -3.4180    1.2100    1.3540 C   0  0  0  0  0  0  0  0  0  0  0  0
   -2.4930    2.2600    0.9820 C   0  0  0  0  0  0  0  0  0  0  0  0
   -1.4100    1.6360    0.4850 C   0  0  0  0  0  0  0  0  0  0  0  0
   -1.2060   -2.2790   -0.0240 C   0  0  0  0  0  0  0  0  0  0  0  0
    0.1100   -3.0070    0.2690 C   0  0  0  0  0  0  0  0  0  0  0  0
    0.9060   -2.3190   -0.8130 C   0  0  0  0  0  0  0  0  0  0  0  0
  1  2  2  0
  2  3  1  0
  2  8  1  0
  3  4  1  0
  4  5  2  3
  5  6  1  0
  5  7  1  0
  8  9  2  0
  8 17  1  0
  9 10  1  0
  9 15  1  0
 10 11  2  0
 10 14  1  0
 11 12  1  0
 12 13  1  0
 13 14  2  0
 15 16  1  0
 16 17  1  0
M  END
