
     RDKit          3D

 17 17  0  0  0  0  0  0  0  0999 V2000
    2.2150    1.6260   -0.1000 C   0  0  0  0  0  0  0  0  0  0  0  0
    2.6330    0.7380    0.7750 C   0  0  0  0  0  0  0  0  0  0  0  0
    1.7580   -0.1760    1.4710 C   0  0  0  0  0  0  0  0  0  0  0  0
    2.2690   -1.0400    2.3410 C   0  0  0  0  0  0  0  0  0  0  0  0
    0.3500   -0.2160    1.2850 N   0  0  0  0  0  0  0  0  0  0  0  0
   -0.3060   -0.4490    0.0500 C   0  0  0  0  0  0  0  0  0  0  0  0
    0.0450   -1.4200   -0.7760 C   0  0  0  0  0  0  0  0  0  0  0  0
    1.1680   -2.3310   -0.4380 C   0  0  0  0  0  0  0  0  0  0  0  0
   -0.6600   -1.6260   -2.0360 C   0  0  0  0  0  0  0  0  0  0  0  0
   -1.6690   -0.8650   -2.4100 C   0  0  0  0  0  0  0  0  0  0  0  0
   -2.1130    0.2230   -1.5560 C   0  0  0  0  0  0  0  0  0  0  0  0
   -3.0840    0.9750   -1.8890 O   0  0  0  0  0  0  0  0  0  0  0  0
   -1.4240    0.4450   -0.2970 C   0  0  0  0  0  0  0  0  0  0  0  0
   -1.7830    1.4220    0.5160 C   0  0  0  0  0  0  0  0  0  0  0  0
   -2.8670    2.3770    0.2990 C   0  0  2  0  0  0  0  0  0  0  0  0
   -2.6490    3.2430   -0.7540 F   0  0  0  0  0  0  0  0  0  0  0  0
   -3.0910    3.1430    1.4530 F   0  0  0  0  0  0  0  0  0  0  0  0
  1  2  2  0
  2  3  1  0
  3  4  2  0
  3  5  1  0
  5  6  1  0
  6  7  2  0
  6 13  1  0
  7  8  1  0
  7  9  1  0
  9 10  2  0
 10 11  1  0
 11 12  2  0
 11 13  1  0
 13 14  2  3
 14 15  1  0
 15 16  1  6
 15 17  1  0
M  END
