
     RDKit          3D

 20 20  0  0  0  0  0  0  0  0999 V2000
    0.8310    3.6740    0.6790 C   0  0  0  0  0  0  0  0  0  0  0  0
    0.6990    2.2610    0.8130 O   0  0  0  0  0  0  0  0  0  0  0  0
    0.4870    1.4530   -0.2870 C   0  0  0  0  0  0  0  0  0  0  0  0
    0.4140    2.0040   -1.4140 O   0  0  0  0  0  0  0  0  0  0  0  0
    0.3480    0.0000   -0.1820 C   0  0  1  0  0  0  0  0  0  0  0  0
    0.1490   -0.6160   -1.5060 N   0  0  0  0  0  0  0  0  0  0  0  0
    1.6910   -0.5810    0.2910 C   0  0  2  0  0  0  0  0  0  0  0  0
    2.5300   -0.9990   -0.8810 C   0  0  0  0  0  0  0  0  0  0  0  0
    3.8480   -1.5700   -0.4290 C   0  0  0  0  0  0  0  0  0  0  0  0
    4.6690   -1.9790   -1.5790 C   0  0  0  0  0  0  0  0  0  0  0  0
    4.2880   -1.8540   -2.7660 O   0  0  0  0  0  0  0  0  0  0  0  0
    5.9200   -2.5270   -1.3280 O   0  0  0  0  0  0  0  0  0  0  0  0
    1.2540   -1.7740    1.0860 C   0  0  0  0  0  0  0  0  0  0  0  0
    0.0850   -1.1970    1.8700 C   0  0  0  0  0  0  0  0  0  0  0  0
   -0.6960   -0.5080    0.7360 C   0  0  1  0  0  0  0  0  0  0  0  0
   -1.6410    0.4640    1.3230 C   0  0  0  0  0  0  0  0  0  0  0  0
   -2.4540    1.2180    0.4460 N   0  0  0  0  0  0  0  0  0  0  0  0
   -3.1170    0.4930   -0.5970 C   0  0  1  0  0  0  0  0  0  0  0  0
   -3.7500   -0.7880   -0.1580 C   0  0  0  0  0  0  0  0  0  0  0  0
   -4.2570    1.4010   -1.0870 C   0  0  0  0  0  0  0  0  0  0  0  0
  1  2  1  0
  2  3  1  0
  3  4  2  0
  3  5  1  0
  5  6  1  6
  5  7  1  0
  5 15  1  0
  7  8  1  6
  7 13  1  0
  8  9  1  0
  9 10  1  0
 10 11  2  0
 10 12  1  0
 13 14  1  0
 14 15  1  0
 15 16  1  1
 16 17  1  0
 17 18  1  0
 18 19  1  1
 18 20  1  0
M  CHG  1  17   1
M  END
