
     RDKit          3D

 20 20  0  0  0  0  0  0  0  0999 V2000
    5.3950    0.0760    0.4030 C   0  0  0  0  0  0  0  0  0  0  0  0
    4.4560    1.2280    0.0840 C   0  0  2  0  0  0  0  0  0  0  0  0
    5.1660    2.1630   -0.8720 C   0  0  0  0  0  0  0  0  0  0  0  0
    4.2420    1.9820    1.3760 C   0  0  0  0  0  0  0  0  0  0  0  0
    3.2940    0.8010   -0.4990 O   0  0  0  0  0  0  0  0  0  0  0  0
    2.5520   -0.0680    0.2710 C   0  0  0  0  0  0  0  0  0  0  0  0
    1.3040   -0.4300   -0.5440 C   0  0  0  0  0  0  0  0  0  0  0  0
    0.4930   -1.3090    0.1640 O   0  0  0  0  0  0  0  0  0  0  0  0
   -0.6070   -1.6320   -0.5730 C   0  0  1  0  0  0  0  0  0  0  0  0
   -0.5130   -3.1340   -0.8650 C   0  0  0  0  0  0  0  0  0  0  0  0
   -1.6390   -3.5670   -1.6420 N   0  0  0  0  0  0  0  0  0  0  0  0
   -1.9170   -1.3420    0.0890 C   0  0  0  0  0  0  0  0  0  0  0  0
   -2.1740    0.0780    0.4430 C   0  0  2  0  0  0  0  0  0  0  0  0
   -1.1870    0.5750    1.3280 O   0  0  0  0  0  0  0  0  0  0  0  0
   -3.4560    0.1060    1.2670 C   0  0  0  0  0  0  0  0  0  0  0  0
   -4.6320   -0.2130    0.5360 N   0  0  0  0  0  0  0  0  0  0  0  0
   -5.3390    0.9140   -0.0050 C   0  0  0  0  0  0  0  0  0  0  0  0
   -4.4220    1.8540   -0.7650 C   0  0  0  0  0  0  0  0  0  0  0  0
   -3.4680    1.0340   -1.3750 O   0  0  0  0  0  0  0  0  0  0  0  0
   -2.2530    1.0150   -0.7280 C   0  0  0  0  0  0  0  0  0  0  0  0
  2  1  1  1
  2  3  1  0
  2  4  1  0
  2  5  1  0
  5  6  1  0
  6  7  1  0
  7  8  1  0
  8  9  1  0
  9 10  1  1
  9 12  1  0
 10 11  1  0
 12 13  1  0
 13 14  1  1
 13 15  1  0
 13 20  1  0
 15 16  1  0
 16 17  1  0
 17 18  1  0
 18 19  1  0
 19 20  1  0
M  CHG  1  11   1
M  END
