
     RDKit          3D

 20 20  0  0  0  0  0  0  0  0999 V2000
   -6.8810    0.1350   -1.1730 N   0  0  0  0  0  0  0  0  0  0  0  0
   -5.8460   -0.3900   -1.4530 C   0  0  0  0  0  0  0  0  0  0  0  0
   -4.5880   -1.0050   -1.7760 C   0  0  0  0  0  0  0  0  0  0  0  0
   -3.5840   -0.5320   -0.7150 C   0  0  2  0  0  0  0  0  0  0  0  0
   -3.5100    0.9460   -0.8170 C   0  0  0  0  0  0  0  0  0  0  0  0
   -2.1430    1.5160   -1.0040 C   0  0  0  0  0  0  0  0  0  0  0  0
   -1.0980    0.8440   -0.1710 C   0  0  0  0  0  0  0  0  0  0  0  0
   -1.2150   -0.6250   -0.0310 C   0  0  2  0  0  0  0  0  0  0  0  0
   -1.4560   -1.0530    1.4090 C   0  0  0  0  0  0  0  0  0  0  0  0
   -2.6230   -0.5010    1.9460 O   0  0  0  0  0  0  0  0  0  0  0  0
    0.1070   -1.2690   -0.4740 C   0  0  1  0  0  0  0  0  0  0  0  0
    0.3850   -0.9410   -1.7970 O   0  0  0  0  0  0  0  0  0  0  0  0
    1.2740   -0.7680    0.3100 C   0  0  0  0  0  0  0  0  0  0  0  0
    1.3610   -1.2860    1.4990 O   0  0  0  0  0  0  0  0  0  0  0  0
    2.2050    0.0940   -0.0020 O   0  0  0  0  0  0  0  0  0  0  0  0
    3.3070    0.6540    0.5450 C   0  0  0  0  0  0  0  0  0  0  0  0
    4.4300   -0.2630    0.9120 C   0  0  0  0  0  0  0  0  0  0  0  0
    5.5500    0.5370    1.5310 C   0  0  0  0  0  0  0  0  0  0  0  0
    6.0630    1.5580    0.6360 N   0  0  0  0  0  0  0  0  0  0  0  0
   -2.2720   -1.1760   -0.9350 C   0  0  0  0  0  0  0  0  0  0  0  0
  1  2  3  0
  2  3  1  0
  4  3  1  6
  4  5  1  0
  4 20  1  0
  5  6  1  0
  6  7  1  0
  7  8  1  0
  8  9  1  1
  8 11  1  0
  8 20  1  0
  9 10  1  0
 11 12  1  6
 11 13  1  0
 13 14  2  0
 13 15  1  0
 15 16  1  0
 16 17  1  0
 17 18  1  0
 18 19  1  0
M  CHG  1  19   1
M  END
