
     RDKit          3D

 33 37  0  0  0  0  0  0  0  0999 V2000
    6.8190    0.5960   -1.4510 C   0  0  0  0  0  0  0  0  0  0  0  0
    5.5030   -0.1850   -1.3640 C   0  0  1  0  0  0  0  0  0  0  0  0
    5.5980   -1.0530   -0.1380 C   0  0  0  0  0  0  0  0  0  0  0  0
    4.4430    0.7600   -1.3590 N   0  0  0  0  0  0  0  0  0  0  0  0
    4.3940    1.6710   -0.2730 C   0  0  0  0  0  0  0  0  0  0  0  0
    2.9680    1.8850    0.1690 C   0  0  0  0  0  0  0  0  0  0  0  0
    2.3580    0.5730    0.3300 N   0  0  0  0  0  0  0  0  0  0  0  0
    1.9220    0.1140    1.6010 C   0  0  0  0  0  0  0  0  0  0  0  0
    2.7210   -0.2630    2.5540 N   0  0  0  0  0  0  0  0  0  0  0  0
    2.0090   -0.6580    3.6730 N   0  0  0  0  0  0  0  0  0  0  0  0
    0.7370   -0.5560    3.4990 C   0  0  0  0  0  0  0  0  0  0  0  0
    0.5570   -0.0330    2.1050 C   0  0  2  0  0  0  0  0  0  0  0  0
   -0.2720   -0.9470    1.3720 N   0  0  0  0  0  0  0  0  0  0  0  0
   -1.4250   -0.6400    0.8680 C   0  0  0  0  0  0  0  0  0  0  0  0
   -2.0760    0.5320    0.9070 N   0  0  0  0  0  0  0  0  0  0  0  0
   -3.2620    0.4870    0.2770 C   0  0  0  0  0  0  0  0  0  0  0  0
   -4.2460    1.5540    0.1100 C   0  0  0  0  0  0  0  0  0  0  0  0
   -4.8560    1.8580   -1.0900 C   0  0  0  0  0  0  0  0  0  0  0  0
   -5.7870    2.8790   -1.1940 C   0  0  0  0  0  0  0  0  0  0  0  0
   -6.1270    3.6220   -0.0880 C   0  0  0  0  0  0  0  0  0  0  0  0
   -7.3120    4.9330   -0.1930 Cl  0  0  0  0  0  0  0  0  0  0  0  0
   -5.5330    3.3390    1.1160 C   0  0  0  0  0  0  0  0  0  0  0  0
   -4.6100    2.3190    1.1980 C   0  0  0  0  0  0  0  0  0  0  0  0
   -3.3940   -0.7980   -0.2040 C   0  0  0  0  0  0  0  0  0  0  0  0
   -4.5370   -1.1680   -0.8990 C   0  0  0  0  0  0  0  0  0  0  0  0
   -4.8100   -2.1720   -1.8040 C   0  0  0  0  0  0  0  0  0  0  0  0
   -4.3030   -3.4470   -2.0700 C   0  0  0  0  0  0  0  0  0  0  0  0
   -3.1830   -4.1540   -1.6510 C   0  0  0  0  0  0  0  0  0  0  0  0
   -2.1910   -3.9550   -0.7160 C   0  0  0  0  0  0  0  0  0  0  0  0
   -1.7610   -2.8440   -0.0180 C   0  0  0  0  0  0  0  0  0  0  0  0
   -2.1990   -1.5430    0.1760 C   0  0  0  0  0  0  0  0  0  0  0  0
    2.2300   -0.2150   -0.8750 C   0  0  0  0  0  0  0  0  0  0  0  0
    3.1970    0.3360   -1.9020 C   0  0  0  0  0  0  0  0  0  0  0  0
  2  1  1  1
  2  3  1  0
  2  4  1  0
  4  5  1  0
  4 33  1  0
  5  6  1  0
  6  7  1  0
  7  8  1  0
  7 32  1  0
  8  9  2  0
  8 12  1  0
  9 10  1  0
 10 11  2  0
 11 12  1  0
 12 13  1  6
 13 14  2  3
 14 15  1  0
 14 31  1  0
 15 16  2  0
 16 17  1  0
 16 24  1  0
 17 18  2  0
 17 23  1  0
 18 19  1  0
 19 20  2  0
 20 21  1  0
 20 22  1  0
 22 23  2  0
 24 25  2  0
 24 31  1  0
 25 26  1  0
 26 27  2  0
 27 28  1  0
 28 29  2  0
 29 30  1  0
 30 31  2  0
 32 33  1  0
M  END
