
     RDKit          3D

 32 36  0  0  0  0  0  0  0  0999 V2000
   -6.3200    0.2940   -0.3430 C   0  0  0  0  0  0  0  0  0  0  0  0
   -5.2080    0.8960    0.4920 C   0  0  0  0  0  0  0  0  0  0  0  0
   -3.9290    0.3090    0.1080 N   0  0  0  0  0  0  0  0  0  0  0  0
   -3.0730    0.7930   -0.8290 C   0  0  0  0  0  0  0  0  0  0  0  0
   -1.9620    0.0090   -0.9310 C   0  0  0  0  0  0  0  0  0  0  0  0
   -0.7560    0.1480   -1.7840 C   0  0  1  0  0  0  0  0  0  0  0  0
   -1.0520    1.0600   -2.9470 C   0  0  0  0  0  0  0  0  0  0  0  0
    0.4500    0.4400   -1.1210 N   0  0  0  0  0  0  0  0  0  0  0  0
    0.8170    1.4960   -0.4590 C   0  0  0  0  0  0  0  0  0  0  0  0
   -0.0830    2.6380   -0.3020 C   0  0  0  0  0  0  0  0  0  0  0  0
    2.2240    1.4010    0.0160 C   0  0  0  0  0  0  0  0  0  0  0  0
    2.7520    2.3800    0.7040 C   0  0  0  0  0  0  0  0  0  0  0  0
    2.0660    3.6340    1.0950 C   0  0  0  0  0  0  0  0  0  0  0  0
    4.1690    2.2900    1.0400 N   0  0  0  0  0  0  0  0  0  0  0  0
    4.8860    1.2870    0.6750 C   0  0  0  0  0  0  0  0  0  0  0  0
    4.3510    0.2260   -0.0600 N   0  0  0  0  0  0  0  0  0  0  0  0
    5.1780   -0.8530   -0.5410 C   0  0  0  0  0  0  0  0  0  0  0  0
    4.5330   -2.2130   -0.3140 C   0  0  0  0  0  0  0  0  0  0  0  0
    3.3790   -2.1320    0.5930 C   0  0  0  0  0  0  0  0  0  0  0  0
    3.0980   -3.1460    1.4180 N   0  0  0  0  0  0  0  0  0  0  0  0
    2.0670   -3.1300    2.2760 C   0  0  0  0  0  0  0  0  0  0  0  0
    1.2770   -2.0360    2.3080 N   0  0  0  0  0  0  0  0  0  0  0  0
    1.5170   -0.9740    1.4910 C   0  0  0  0  0  0  0  0  0  0  0  0
    2.5540   -0.9950    0.6300 C   0  0  0  0  0  0  0  0  0  0  0  0
    2.9460    0.1270   -0.3110 C   0  0  1  0  0  0  0  0  0  0  0  0
   -2.1470   -1.0250    0.0030 C   0  0  0  0  0  0  0  0  0  0  0  0
   -1.3730   -2.1090    0.3300 C   0  0  0  0  0  0  0  0  0  0  0  0
   -1.7510   -3.0300    1.2780 C   0  0  0  0  0  0  0  0  0  0  0  0
   -2.9590   -2.8200    1.8970 C   0  0  0  0  0  0  0  0  0  0  0  0
   -3.7390   -1.7300    1.5670 C   0  0  0  0  0  0  0  0  0  0  0  0
   -5.2890   -1.4730    2.3560 Cl  0  0  0  0  0  0  0  0  0  0  0  0
   -3.3560   -0.7950    0.6050 C   0  0  0  0  0  0  0  0  0  0  0  0
  1  2  1  0
  2  3  1  0
  3  4  1  0
  3 32  1  0
  4  5  2  0
  5  6  1  0
  5 26  1  0
  6  7  1  6
  6  8  1  0
  8  9  2  3
  9 10  1  0
  9 11  1  0
 11 12  2  0
 25 11  1  1
 12 13  1  0
 12 14  1  0
 14 15  2  0
 15 16  1  0
 16 17  1  0
 16 25  1  0
 17 18  1  0
 18 19  1  0
 19 20  2  0
 19 24  1  0
 20 21  1  0
 21 22  2  0
 22 23  1  0
 23 24  2  0
 24 25  1  0
 26 27  2  0
 26 32  1  0
 27 28  1  0
 28 29  2  0
 29 30  1  0
 30 31  1  0
 30 32  2  0
M  END
