
     RDKit          3D

 33 35  0  0  0  0  0  0  0  0999 V2000
   -3.2060    6.2190   -1.1830 C   0  0  0  0  0  0  0  0  0  0  0  0
   -2.8480    4.8960   -0.5010 C   0  0  0  0  0  0  0  0  0  0  0  0
   -1.3400    4.7880   -0.4040 C   0  0  0  0  0  0  0  0  0  0  0  0
   -0.8890    3.5280    0.2520 C   0  0  0  0  0  0  0  0  0  0  0  0
   -1.3600    2.2780   -0.5140 C   0  0  0  0  0  0  0  0  0  0  0  0
   -0.8650    1.0880    0.2030 C   0  0  1  0  0  0  0  0  0  0  0  0
   -1.4330    1.1490    1.5080 O   0  0  0  0  0  0  0  0  0  0  0  0
   -2.7600    0.7580    1.5160 C   0  0  0  0  0  0  0  0  0  0  0  0
   -2.9070   -0.6730    1.0450 C   0  0  0  0  0  0  0  0  0  0  0  0
   -1.8070   -1.1720    0.3230 N   0  0  0  0  0  0  0  0  0  0  0  0
   -1.2120   -2.2600    0.9970 C   0  0  0  0  0  0  0  0  0  0  0  0
   -1.9560   -3.5640    1.0290 C   0  0  2  0  0  0  0  0  0  0  0  0
   -3.3020   -3.6100    1.6430 C   0  0  0  0  0  0  0  0  0  0  0  0
   -3.4950   -5.1590    1.6400 C   0  0  0  0  0  0  0  0  0  0  0  0
   -2.0940   -5.6070    1.9080 C   0  0  0  0  0  0  0  0  0  0  0  0
   -1.2150   -4.5540    1.7080 O   0  0  0  0  0  0  0  0  0  0  0  0
   -1.0280   -0.2550   -0.4300 C   0  0  1  0  0  0  0  0  0  0  0  0
   -1.7850   -0.0010   -1.7280 C   0  0  0  0  0  0  0  0  0  0  0  0
   -2.0880   -1.1280   -2.6080 C   0  0  0  0  0  0  0  0  0  0  0  0
   -2.8940   -2.2710   -2.2250 C   0  0  0  0  0  0  0  0  0  0  0  0
    0.3190   -0.8230   -0.6900 C   0  0  0  0  0  0  0  0  0  0  0  0
    1.3150   -0.2220   -1.5800 C   0  0  1  0  0  0  0  0  0  0  0  0
    1.8800    1.1070   -1.3620 C   0  0  0  0  0  0  0  0  0  0  0  0
    2.9880    1.3240   -2.4300 C   0  0  0  0  0  0  0  0  0  0  0  0
    4.1110    0.6100   -1.8870 O   0  0  0  0  0  0  0  0  0  0  0  0
    3.7620   -0.5170   -1.1150 C   0  0  0  0  0  0  0  0  0  0  0  0
    4.5030   -0.9360   -0.1210 C   0  0  0  0  0  0  0  0  0  0  0  0
    5.7340   -0.2630    0.2490 C   0  0  0  0  0  0  0  0  0  0  0  0
    6.4940   -0.6650    1.2440 C   0  0  0  0  0  0  0  0  0  0  0  0
    7.7210    0.0270    1.5920 C   0  0  0  0  0  0  0  0  0  0  0  0
    8.2170    1.2140    0.8830 C   0  0  0  0  0  0  0  0  0  0  0  0
    8.4210   -0.4080    2.5690 O   0  0  0  0  0  0  0  0  0  0  0  0
    2.5170   -1.1980   -1.4880 C   0  0  0  0  0  0  0  0  0  0  0  0
  1  2  1  0
  2  3  1  0
  3  4  1  0
  4  5  1  0
  6  5  1  6
  6  7  1  0
  6 17  1  0
  7  8  1  0
  8  9  1  0
  9 10  1  0
 10 11  1  0
 10 17  1  0
 12 11  1  1
 12 13  1  0
 12 16  1  0
 13 14  1  0
 14 15  1  0
 15 16  1  0
 17 18  1  6
 17 21  1  0
 18 19  1  0
 19 20  1  0
 22 21  1  1
 22 23  1  0
 22 33  1  0
 23 24  1  0
 24 25  1  0
 25 26  1  0
 26 27  2  3
 26 33  1  0
 27 28  1  0
 28 29  2  3
 29 30  1  0
 30 31  1  0
 30 32  2  0
M  END
