
     RDKit          3D

 33 35  0  0  0  0  0  0  0  0999 V2000
    2.9650   -0.7190   -1.8270 C   0  0  0  0  0  0  0  0  0  0  0  0
    4.4340   -0.8190   -1.5780 C   0  0  0  0  0  0  0  0  0  0  0  0
    4.8390   -0.9460   -0.1500 C   0  0  0  0  0  0  0  0  0  0  0  0
    4.3980    0.2100    0.6520 C   0  0  0  0  0  0  0  0  0  0  0  0
    5.2270    1.3070    0.7490 C   0  0  0  0  0  0  0  0  0  0  0  0
    4.8260    2.3720    1.4930 C   0  0  0  0  0  0  0  0  0  0  0  0
    3.6000    2.3800    2.1560 C   0  0  0  0  0  0  0  0  0  0  0  0
    3.2340    3.5790    2.9460 C   0  0  0  0  0  0  0  0  0  0  0  0
    2.7770    1.2790    2.0550 C   0  0  0  0  0  0  0  0  0  0  0  0
    1.4980    1.3070    2.7610 C   0  0  0  0  0  0  0  0  0  0  0  0
    1.1370    2.2950    3.4460 O   0  0  0  0  0  0  0  0  0  0  0  0
    0.5940    0.2350    2.7200 O   0  0  0  0  0  0  0  0  0  0  0  0
   -0.6390    0.2830    3.4120 C   0  0  2  0  0  0  0  0  0  0  0  0
   -0.5940   -0.8520    4.4360 C   0  0  0  0  0  0  0  0  0  0  0  0
   -1.8020    0.0190    2.5400 C   0  0  0  0  0  0  0  0  0  0  0  0
   -2.9370    0.0580    3.0990 O   0  0  0  0  0  0  0  0  0  0  0  0
   -1.7380   -0.2580    1.2070 O   0  0  0  0  0  0  0  0  0  0  0  0
   -2.8800   -0.5030    0.4120 C   0  0  1  0  0  0  0  0  0  0  0  0
   -3.1140    0.5340   -0.6490 C   0  0  0  0  0  0  0  0  0  0  0  0
   -2.0440    0.6700   -1.5860 N   0  0  0  0  0  0  0  0  0  0  0  0
   -0.8780    1.2280   -0.9790 C   0  0  0  0  0  0  0  0  0  0  0  0
   -0.3420    2.4260   -1.7520 C   0  0  0  0  0  0  0  0  0  0  0  0
   -1.4180    3.4950   -1.8200 C   0  0  0  0  0  0  0  0  0  0  0  0
   -2.6880    2.9120   -2.3560 C   0  0  0  0  0  0  0  0  0  0  0  0
   -2.4430    1.4680   -2.7200 C   0  0  0  0  0  0  0  0  0  0  0  0
   -2.9260   -1.8770   -0.1040 C   0  0  0  0  0  0  0  0  0  0  0  0
   -2.6780   -2.9690    0.6950 C   0  0  0  0  0  0  0  0  0  0  0  0
   -2.7210   -4.2630    0.2090 C   0  0  0  0  0  0  0  0  0  0  0  0
   -3.0180   -4.5050   -1.1070 C   0  0  0  0  0  0  0  0  0  0  0  0
   -3.0760   -5.8910   -1.6720 C   0  0  0  0  0  0  0  0  0  0  0  0
   -3.2710   -3.4260   -1.9280 C   0  0  0  0  0  0  0  0  0  0  0  0
   -3.2240   -2.1200   -1.4240 C   0  0  0  0  0  0  0  0  0  0  0  0
    3.1760    0.1960    1.3030 C   0  0  0  0  0  0  0  0  0  0  0  0
  1  2  1  0
  2  3  1  0
  3  4  1  0
  4  5  2  0
  4 33  1  0
  5  6  1  0
  6  7  2  0
  7  8  1  0
  7  9  1  0
  9 10  1  0
  9 33  2  0
 10 11  2  0
 10 12  1  0
 12 13  1  0
 13 14  1  1
 13 15  1  0
 15 16  2  0
 15 17  1  0
 17 18  1  0
 18 19  1  6
 18 26  1  0
 19 20  1  0
 20 21  1  0
 20 25  1  0
 21 22  1  0
 22 23  1  0
 23 24  1  0
 24 25  1  0
 26 27  2  0
 26 32  1  0
 27 28  1  0
 28 29  2  0
 29 30  1  0
 29 31  1  0
 31 32  2  0
M  END
