
     RDKit          3D

 33 37  0  0  0  0  0  0  0  0999 V2000
   -4.0380    3.3030   -2.0750 Cl  0  0  0  0  0  0  0  0  0  0  0  0
   -4.4760    1.8190   -2.8910 C   0  0  0  0  0  0  0  0  0  0  0  0
   -3.8810    0.6380   -2.2330 C   0  0  0  0  0  0  0  0  0  0  0  0
   -3.1200    0.6710   -1.1720 C   0  0  0  0  0  0  0  0  0  0  0  0
   -2.8560    1.9960   -0.6280 N   0  0  0  0  0  0  0  0  0  0  0  0
   -1.7610    2.2410    0.0030 C   0  0  0  0  0  0  0  0  0  0  0  0
   -0.7890    1.1710    0.1910 C   0  0  0  0  0  0  0  0  0  0  0  0
   -1.0230   -0.1130   -0.2640 C   0  0  0  0  0  0  0  0  0  0  0  0
   -0.0500   -1.0680   -0.3030 C   0  0  0  0  0  0  0  0  0  0  0  0
    1.2240   -0.7560    0.1330 C   0  0  0  0  0  0  0  0  0  0  0  0
    2.3140   -1.7950    0.1000 C   0  0  0  0  0  0  0  0  0  0  0  0
    3.5210   -1.1810    0.5360 N   0  0  0  0  0  0  0  0  0  0  0  0
    4.0060   -0.0920   -0.2130 C   0  0  0  0  0  0  0  0  0  0  0  0
    5.2670   -0.5660   -0.9520 C   0  0  0  0  0  0  0  0  0  0  0  0
    6.2860   -0.7460    0.1820 C   0  0  0  0  0  0  0  0  0  0  0  0
    5.8380   -1.8200    1.1210 C   0  0  0  0  0  0  0  0  0  0  0  0
    4.3880   -1.9230    1.3470 C   0  0  0  0  0  0  0  0  0  0  0  0
    1.4680    0.4730    0.5830 N   0  0  0  0  0  0  0  0  0  0  0  0
    0.5160    1.4180    0.6220 C   0  0  0  0  0  0  0  0  0  0  0  0
    0.8380    2.7640    1.1290 C   0  0  0  0  0  0  0  0  0  0  0  0
    1.9220    3.4630    0.6540 C   0  0  0  0  0  0  0  0  0  0  0  0
    2.2570    4.7130    1.1460 C   0  0  0  0  0  0  0  0  0  0  0  0
    1.4930    5.2550    2.1180 N   0  0  0  0  0  0  0  0  0  0  0  0
    0.4340    4.5970    2.5980 C   0  0  0  0  0  0  0  0  0  0  0  0
    0.0810    3.3360    2.1150 C   0  0  0  0  0  0  0  0  0  0  0  0
   -2.4740   -0.4220   -0.4950 C   0  0  2  0  0  0  0  0  0  0  0  0
   -2.7810   -1.8280   -0.7900 C   0  0  0  0  0  0  0  0  0  0  0  0
   -4.1430   -2.2970   -0.5270 C   0  0  0  0  0  0  0  0  0  0  0  0
   -5.1010   -2.3110   -1.4300 N   0  0  0  0  0  0  0  0  0  0  0  0
   -6.3650   -2.7330   -1.2280 C   0  0  0  0  0  0  0  0  0  0  0  0
   -6.6970   -3.1960    0.0430 C   0  0  0  0  0  0  0  0  0  0  0  0
   -5.7080   -3.1900    1.0000 C   0  0  0  0  0  0  0  0  0  0  0  0
   -4.4780   -2.7530    0.7130 N   0  0  0  0  0  0  0  0  0  0  0  0
  1  2  1  0
  2  3  1  0
  3  4  2  3
  4  5  1  0
  4 26  1  0
  5  6  2  0
  6  7  1  0
  7  8  2  0
  7 19  1  0
  8  9  1  0
  8 26  1  0
  9 10  2  0
 10 11  1  0
 10 18  1  0
 11 12  1  0
 12 13  1  0
 12 17  1  0
 13 14  1  0
 14 15  1  0
 15 16  1  0
 16 17  1  0
 18 19  2  0
 19 20  1  0
 20 21  2  0
 20 25  1  0
 21 22  1  0
 22 23  2  0
 23 24  1  0
 24 25  2  0
 26 27  1  6
 27 28  1  0
 28 29  2  0
 28 33  1  0
 29 30  1  0
 30 31  2  0
 31 32  1  0
 32 33  2  0
M  END
