
     RDKit          3D

 18 19  0  0  0  0  0  0  0  0999 V2000
   -3.8030    1.8170    0.1210 C   0  0  0  0  0  0  0  0  0  0  0  0
   -3.6620    0.3850   -0.2990 C   0  0  0  0  0  0  0  0  0  0  0  0
   -2.5420    0.0530   -1.0210 O   0  0  0  0  0  0  0  0  0  0  0  0
   -1.2080    0.1430   -0.6960 C   0  0  0  0  0  0  0  0  0  0  0  0
   -0.7040    1.3140   -0.4250 C   0  0  0  0  0  0  0  0  0  0  0  0
    0.6580    1.7030   -0.0540 C   0  0  0  0  0  0  0  0  0  0  0  0
    1.7910    1.1340   -0.4100 C   0  0  0  0  0  0  0  0  0  0  0  0
    3.0250    1.7190    0.0990 C   0  0  0  0  0  0  0  0  0  0  0  0
    2.9430    2.7320    0.8470 O   0  0  0  0  0  0  0  0  0  0  0  0
    4.2730    1.2360   -0.1860 O   0  0  0  0  0  0  0  0  0  0  0  0
    5.4860    1.7700    0.2830 C   0  0  0  0  0  0  0  0  0  0  0  0
    2.0530   -0.2920   -1.4540 S   0  0  0  0  0  0  0  0  0  0  0  0
    0.7390   -1.4530   -0.9890 C   0  0  0  0  0  0  0  0  0  0  0  0
   -0.5180   -1.1850   -0.7080 C   0  0  0  0  0  0  0  0  0  0  0  0
   -1.2000   -2.4560   -0.3970 C   0  0  2  0  0  0  0  0  0  0  0  0
   -2.1630   -2.3460    0.6010 O   0  0  0  0  0  0  0  0  0  0  0  0
   -0.0860   -3.3870   -0.0090 C   0  0  0  0  0  0  0  0  0  0  0  0
    0.9830   -2.8550   -0.8750 N   0  0  0  0  0  0  0  0  0  0  0  0
  1  2  1  0
  2  3  1  0
  3  4  1  0
  4  5  2  0
  4 14  1  0
  5  6  1  0
  6  7  2  0
  7  8  1  0
  7 12  1  0
  8  9  2  0
  8 10  1  0
 10 11  1  0
 12 13  1  0
 13 14  2  0
 13 18  1  0
 14 15  1  0
 15 16  1  1
 15 17  1  0
 17 18  1  0
M  END
