
     RDKit          3D

 18 19  0  0  0  0  0  0  0  0999 V2000
   -4.8740    1.4900    1.2680 C   0  0  0  0  0  0  0  0  0  0  0  0
   -4.3680    0.1720    0.7500 C   0  0  0  0  0  0  0  0  0  0  0  0
   -2.8770    0.2100    0.5310 C   0  0  0  0  0  0  0  0  0  0  0  0
   -2.3010    1.2920    0.8020 O   0  0  0  0  0  0  0  0  0  0  0  0
   -2.2100   -0.9340    0.0460 N   0  0  0  0  0  0  0  0  0  0  0  0
   -2.8950   -2.1910   -0.2670 C   0  0  0  0  0  0  0  0  0  0  0  0
   -2.1670   -2.4690   -1.9350 S   0  0  0  0  0  0  0  0  0  0  0  0
   -0.6790   -1.4120   -1.7040 C   0  0  0  0  0  0  0  0  0  0  0  0
   -0.8240   -1.0910   -0.2210 C   0  0  1  0  0  0  0  0  0  0  0  0
   -0.0480    0.1090    0.1810 C   0  0  0  0  0  0  0  0  0  0  0  0
    1.4220   -0.0450   -0.0940 C   0  0  0  0  0  0  0  0  0  0  0  0
    1.8520   -1.1090   -0.6080 O   0  0  0  0  0  0  0  0  0  0  0  0
    2.3160    0.9450    0.1990 O   0  0  0  0  0  0  0  0  0  0  0  0
    3.6760    0.8950   -0.0170 C   0  0  0  0  0  0  0  0  0  0  0  0
    4.5620    0.4460    0.8560 C   0  0  0  0  0  0  0  0  0  0  0  0
    5.9340    0.5380    0.2940 C   0  0  0  0  0  0  0  0  0  0  0  0
    5.6980    0.6270   -1.0550 O   0  0  0  0  0  0  0  0  0  0  0  0
    4.4860    1.2970   -1.1970 C   0  0  0  0  0  0  0  0  0  0  0  0
  1  2  1  0
  2  3  1  0
  3  4  2  0
  3  5  1  0
  5  6  1  0
  5  9  1  0
  6  7  1  0
  7  8  1  0
  8  9  1  0
  9 10  1  6
 10 11  1  0
 11 12  2  0
 11 13  1  0
 13 14  1  0
 14 15  2  0
 14 18  1  0
 15 16  1  0
 16 17  1  0
 17 18  1  0
M  END
