
     RDKit          3D

 18 19  0  0  0  0  0  0  0  0999 V2000
    3.6390    2.3460   -0.8120 C   0  0  0  0  0  0  0  0  0  0  0  0
    3.7420    0.9030   -0.5540 C   0  0  0  0  0  0  0  0  0  0  0  0
    2.6840    0.2210   -0.1450 C   0  0  0  0  0  0  0  0  0  0  0  0
    2.7960   -1.2460    0.1160 C   0  0  0  0  0  0  0  0  0  0  0  0
    3.9000   -1.8620   -0.0490 O   0  0  0  0  0  0  0  0  0  0  0  0
    4.1560   -2.9990    0.1090 C   0  0  0  0  0  0  0  0  0  0  0  0
    5.1610   -3.7700    0.0010 O   0  0  0  0  0  0  0  0  0  0  0  0
    2.4980   -3.6260    0.6640 S   0  0  0  0  0  0  0  0  0  0  0  0
    1.7310   -1.9900    0.5400 C   0  0  0  0  0  0  0  0  0  0  0  0
    0.3500   -1.7930    0.8590 C   0  0  0  0  0  0  0  0  0  0  0  0
   -0.3210   -2.8520    1.2420 O   0  0  0  0  0  0  0  0  0  0  0  0
   -0.4460   -0.6480    0.8400 N   0  0  0  0  0  0  0  0  0  0  0  0
   -1.8660   -0.6670    1.2120 C   0  0  0  0  0  0  0  0  0  0  0  0
   -2.4650    0.7060    1.0960 C   0  0  1  0  0  0  0  0  0  0  0  0
   -2.4090    1.2080   -0.3290 C   0  0  0  0  0  0  0  0  0  0  0  0
   -3.8680    1.2200   -0.7340 C   0  0  0  0  0  0  0  0  0  0  0  0
   -4.4350    0.2400    0.2990 C   0  0  0  0  0  0  0  0  0  0  0  0
   -3.8030    0.6590    1.4550 O   0  0  0  0  0  0  0  0  0  0  0  0
  1  2  1  0
  2  3  2  3
  3  4  1  0
  4  5  1  0
  4  9  2  0
  5  6  1  0
  6  7  2  0
  6  8  1  0
  8  9  1  0
  9 10  1  0
 10 11  2  0
 10 12  1  0
 12 13  1  0
 14 13  1  6
 14 15  1  0
 14 18  1  0
 15 16  1  0
 16 17  1  0
 17 18  1  0
M  END
