
     RDKit          3D

 20 20  0  0  0  0  0  0  0  0999 V2000
    2.1540   -2.2360   -0.2650 C   0  0  0  0  0  0  0  0  0  0  0  0
    2.8700   -0.9900    0.2090 C   0  0  0  0  0  0  0  0  0  0  0  0
    2.1610    0.2760   -0.2170 C   0  0  2  0  0  0  0  0  0  0  0  0
    3.0090    1.4310    0.3390 C   0  0  0  0  0  0  0  0  0  0  0  0
    3.0430    1.2640    1.8520 C   0  0  0  0  0  0  0  0  0  0  0  0
    0.9210    0.4260    0.3240 O   0  0  0  0  0  0  0  0  0  0  0  0
   -0.1000    0.6620   -0.5520 C   0  0  2  0  0  0  0  0  0  0  0  0
   -0.8220    1.9620   -0.3260 C   0  0  0  0  0  0  0  0  0  0  0  0
   -1.4910    2.0320    1.0230 C   0  0  2  0  0  0  0  0  0  0  0  0
   -0.6660    2.7320    2.0360 C   0  0  0  0  0  0  0  0  0  0  0  0
   -0.3010    2.1340    3.0770 O   0  0  0  0  0  0  0  0  0  0  0  0
   -0.2710    4.0480    1.8790 O   0  0  0  0  0  0  0  0  0  0  0  0
   -1.9040    0.6530    1.5120 C   0  0  0  0  0  0  0  0  0  0  0  0
   -2.3310   -0.1250    0.2870 C   0  0  2  0  0  0  0  0  0  0  0  0
   -3.0350   -1.3310    0.6430 N   0  0  0  0  0  0  0  0  0  0  0  0
   -1.0710   -0.5090   -0.4710 C   0  0  1  0  0  0  0  0  0  0  0  0
   -1.4470   -0.9770   -1.7790 N   0  0  0  0  0  0  0  0  0  0  0  0
   -1.2590   -2.3240   -2.1650 C   0  0  0  0  0  0  0  0  0  0  0  0
   -1.6420   -2.8100   -3.5050 C   0  0  0  0  0  0  0  0  0  0  0  0
   -0.7490   -3.1850   -1.3740 O   0  0  0  0  0  0  0  0  0  0  0  0
  1  2  1  0
  3  2  1  1
  3  4  1  0
  3  6  1  0
  4  5  1  0
  7  6  1  1
  7  8  1  0
  7 16  1  0
  8  9  1  0
  9 10  1  1
  9 13  1  0
 10 11  2  0
 10 12  1  0
 13 14  1  0
 14 15  1  1
 14 16  1  0
 16 17  1  6
 17 18  1  0
 18 19  1  0
 18 20  2  0
M  CHG  1  15   1
M  END
