
     RDKit          3D

 18 19  0  0  0  0  0  0  0  0999 V2000
    5.4520    1.4830   -0.0560 C   0  0  0  0  0  0  0  0  0  0  0  0
    4.9020    0.2010   -0.0550 O   0  0  0  0  0  0  0  0  0  0  0  0
    3.5350    0.3300   -0.0510 C   0  0  0  0  0  0  0  0  0  0  0  0
    2.8330   -0.9790   -0.0490 C   0  0  0  0  0  0  0  0  0  0  0  0
    3.4250   -2.0880   -0.0510 O   0  0  0  0  0  0  0  0  0  0  0  0
    1.3950   -1.0230   -0.0450 N   0  0  0  0  0  0  0  0  0  0  0  0
    0.6760   -2.2670   -0.0430 C   0  0  0  0  0  0  0  0  0  0  0  0
   -0.8070   -2.1100   -0.0660 C   0  0  0  0  0  0  0  0  0  0  0  0
   -1.4010   -1.4530   -1.2490 C   0  0  1  0  0  0  0  0  0  0  0  0
   -3.2470   -1.3720   -1.0620 S   0  0  0  0  0  0  0  0  0  0  0  0
   -3.6250    0.1590   -0.1850 C   0  0  0  0  0  0  0  0  0  0  0  0
   -4.6970    0.5260    0.4810 C   0  0  0  0  0  0  0  0  0  0  0  0
   -4.4860    1.8770    1.0030 C   0  0  0  0  0  0  0  0  0  0  0  0
   -3.1370    2.2160    0.5350 C   0  0  0  0  0  0  0  0  0  0  0  0
   -2.6220    1.1970   -0.1730 C   0  0  0  0  0  0  0  0  0  0  0  0
   -1.4110    1.0340   -0.8100 O   0  0  0  0  0  0  0  0  0  0  0  0
   -0.9800   -0.0590   -1.5160 C   0  0  0  0  0  0  0  0  0  0  0  0
   -0.1510    0.0670   -2.4940 O   0  0  0  0  0  0  0  0  0  0  0  0
  1  2  1  0
  2  3  1  0
  3  4  1  0
  4  5  2  0
  4  6  1  0
  6  7  1  0
  7  8  1  0
  9  8  1  1
  9 10  1  0
  9 17  1  0
 10 11  1  0
 11 12  2  0
 11 15  1  0
 12 13  1  0
 13 14  1  0
 14 15  2  0
 15 16  1  0
 16 17  1  0
 17 18  2  0
M  END
