
     RDKit          3D

 18 19  0  0  0  0  0  0  0  0999 V2000
    5.9540   -1.5210   -0.0490 O   0  0  0  0  0  0  0  0  0  0  0  0
    4.9430   -0.7470    0.0110 C   0  0  0  0  0  0  0  0  0  0  0  0
    3.6060   -1.2580   -0.2290 C   0  0  0  0  0  0  0  0  0  0  0  0
    3.4530   -2.4750   -0.4980 O   0  0  0  0  0  0  0  0  0  0  0  0
    2.4990   -0.3180   -0.1440 C   0  0  0  0  0  0  0  0  0  0  0  0
    0.8530   -0.9210   -0.4340 S   0  0  0  0  0  0  0  0  0  0  0  0
   -0.3080    0.4360   -0.2670 C   0  0  0  0  0  0  0  0  0  0  0  0
   -1.7330    0.0040   -0.4990 C   0  0  1  0  0  0  0  0  0  0  0  0
   -2.1420   -1.0480    0.4800 C   0  0  0  0  0  0  0  0  0  0  0  0
   -3.4540   -1.6800    0.1260 C   0  0  0  0  0  0  0  0  0  0  0  0
   -4.5110   -0.9640    0.7030 O   0  0  0  0  0  0  0  0  0  0  0  0
   -4.6450    0.2850    0.0980 C   0  0  0  0  0  0  0  0  0  0  0  0
   -3.4900    1.1970    0.4270 C   0  0  0  0  0  0  0  0  0  0  0  0
   -2.5500    1.0920   -0.5570 O   0  0  0  0  0  0  0  0  0  0  0  0
    2.7200    0.9560    0.1440 C   0  0  0  0  0  0  0  0  0  0  0  0
    4.0610    1.4780    0.3870 C   0  0  0  0  0  0  0  0  0  0  0  0
    5.0960    0.6670    0.3210 C   0  0  0  0  0  0  0  0  0  0  0  0
    6.3620    1.1840    0.5550 O   0  0  0  0  0  0  0  0  0  0  0  0
  1  2  2  0
  2  3  1  0
  2 17  1  0
  3  4  2  0
  3  5  1  0
  5  6  1  0
  5 15  2  0
  6  7  1  0
  8  7  1  1
  8  9  1  0
  8 14  1  0
  9 10  1  0
 10 11  1  0
 11 12  1  0
 12 13  1  0
 13 14  1  0
 15 16  1  0
 16 17  2  0
 17 18  1  0
M  END
