
     RDKit          3D

 33 36  0  0  0  0  0  0  0  0999 V2000
   10.0580    1.3700    0.4560 C   0  0  0  0  0  0  0  0  0  0  0  0
    8.6590    0.8840    0.4320 C   0  0  0  0  0  0  0  0  0  0  0  0
    8.1560    0.4400    1.4410 O   0  0  0  0  0  0  0  0  0  0  0  0
    7.8750    0.9380   -0.8120 C   0  0  0  0  0  0  0  0  0  0  0  0
    6.4710    0.3950   -0.6290 C   0  0  0  0  0  0  0  0  0  0  0  0
    5.7580    0.4880   -1.9290 C   0  0  0  0  0  0  0  0  0  0  0  0
    6.3430    0.9770   -2.9560 O   0  0  0  0  0  0  0  0  0  0  0  0
    4.4200    0.0520   -2.0990 N   0  0  0  0  0  0  0  0  0  0  0  0
    3.7560   -0.4620   -1.0990 C   0  0  0  0  0  0  0  0  0  0  0  0
    4.1120   -0.7750    0.5130 S   0  0  0  0  0  0  0  0  0  0  0  0
    2.8020   -1.4690    1.3110 C   0  0  0  0  0  0  0  0  0  0  0  0
    2.6820   -1.8750    2.6270 C   0  0  0  0  0  0  0  0  0  0  0  0
    1.4930   -2.4240    3.0570 C   0  0  0  0  0  0  0  0  0  0  0  0
    0.4150   -2.5840    2.2140 C   0  0  0  0  0  0  0  0  0  0  0  0
   -1.0960   -3.2900    2.7840 Cl  0  0  0  0  0  0  0  0  0  0  0  0
    0.5290   -2.1850    0.9100 C   0  0  0  0  0  0  0  0  0  0  0  0
   -0.5870   -2.3510    0.0390 N   0  0  0  0  0  0  0  0  0  0  0  0
   -1.5800   -1.3400   -0.1190 C   0  0  0  0  0  0  0  0  0  0  0  0
   -1.3930   -0.2910    0.5700 O   0  0  0  0  0  0  0  0  0  0  0  0
   -2.6900   -1.4680   -0.9650 N   0  0  0  0  0  0  0  0  0  0  0  0
   -2.9460   -2.6700   -1.7790 C   0  0  0  0  0  0  0  0  0  0  0  0
   -4.4540   -2.7670   -1.8870 C   0  0  0  0  0  0  0  0  0  0  0  0
   -4.9910   -1.5310   -1.2100 C   0  0  0  0  0  0  0  0  0  0  0  0
   -3.7960   -0.6000   -1.2850 C   0  0  1  0  0  0  0  0  0  0  0  0
   -3.9670    0.4470   -0.2110 C   0  0  0  0  0  0  0  0  0  0  0  0
   -5.1280    1.3450   -0.5530 C   0  0  0  0  0  0  0  0  0  0  0  0
   -5.8060    1.1980   -1.6000 O   0  0  0  0  0  0  0  0  0  0  0  0
   -5.4870    2.4010    0.3250 N   0  0  0  0  0  0  0  0  0  0  0  0
   -6.6060    3.2550   -0.0200 C   0  0  2  0  0  0  0  0  0  0  0  0
   -6.4780    4.7040    0.4300 C   0  0  0  0  0  0  0  0  0  0  0  0
   -7.4310    3.8090    1.1260 C   0  0  0  0  0  0  0  0  0  0  0  0
    1.7340   -1.6160    0.4320 C   0  0  0  0  0  0  0  0  0  0  0  0
    2.1120   -1.0500   -1.1280 S   0  0  0  0  0  0  0  0  0  0  0  0
  1  2  1  0
  2  3  2  0
  2  4  1  0
  4  5  1  0
  5  6  1  0
  6  7  2  0
  6  8  1  0
  8  9  2  3
  9 10  1  0
  9 33  1  0
 10 11  1  0
 11 12  2  0
 11 32  1  0
 12 13  1  0
 13 14  2  0
 14 15  1  0
 14 16  1  0
 16 17  1  0
 16 32  2  0
 17 18  1  0
 18 19  2  0
 18 20  1  0
 20 21  1  0
 20 24  1  0
 21 22  1  0
 22 23  1  0
 23 24  1  0
 24 25  1  1
 25 26  1  0
 26 27  2  0
 26 28  1  0
 29 28  1  1
 29 30  1  0
 29 31  1  0
 30 31  1  0
 32 33  1  0
M  END
