
     RDKit          3D

 32 34  0  0  0  0  0  0  0  0999 V2000
   -7.7400    0.8890   -1.4750 N   0  0  0  0  0  0  0  0  0  0  0  0
   -7.2950    2.0250   -1.8500 C   0  0  0  0  0  0  0  0  0  0  0  0
   -8.0050    2.7770   -2.8080 N   0  0  0  0  0  0  0  0  0  0  0  0
   -6.0600    2.5690   -1.3030 C   0  0  0  0  0  0  0  0  0  0  0  0
   -5.3870    1.7140   -0.2590 C   0  0  1  0  0  0  0  0  0  0  0  0
   -6.2600    1.4780    0.9160 C   0  0  0  0  0  0  0  0  0  0  0  0
   -5.7800    0.7280    1.9040 C   0  0  0  0  0  0  0  0  0  0  0  0
   -4.3990    0.2190    1.6810 C   0  0  1  0  0  0  0  0  0  0  0  0
   -3.4160    1.1570    1.7910 O   0  0  0  0  0  0  0  0  0  0  0  0
   -4.0980   -0.9120    2.6720 C   0  0  0  0  0  0  0  0  0  0  0  0
   -2.6810   -1.3210    2.5010 C   0  0  0  0  0  0  0  0  0  0  0  0
   -2.2370   -1.3280    1.0850 N   0  0  0  0  0  0  0  0  0  0  0  0
   -0.8580   -1.3010    0.9300 C   0  0  0  0  0  0  0  0  0  0  0  0
   -0.0160   -1.1700    1.7080 O   0  0  0  0  0  0  0  0  0  0  0  0
   -0.3460   -1.5090   -0.7030 N   0  0  0  0  0  0  0  0  0  0  0  0
    1.0140   -1.3650   -0.4860 C   0  0  0  0  0  0  0  0  0  0  0  0
    1.6560   -1.0480    0.4530 O   0  0  0  0  0  0  0  0  0  0  0  0
    1.7570   -1.6880   -1.7340 N   0  0  0  0  0  0  0  0  0  0  0  0
    3.0940   -1.6090   -1.9030 N   0  0  0  0  0  0  0  0  0  0  0  0
    4.1020   -1.6460   -0.9190 C   0  0  0  0  0  0  0  0  0  0  0  0
    3.8460   -1.7830    0.2760 O   0  0  0  0  0  0  0  0  0  0  0  0
    5.5370   -1.5070   -1.2940 C   0  0  0  0  0  0  0  0  0  0  0  0
    6.2570   -0.9980   -0.0660 C   0  0  0  0  0  0  0  0  0  0  0  0
    7.6930   -0.8020   -0.3070 C   0  0  0  0  0  0  0  0  0  0  0  0
    8.2760   -1.3660   -1.2710 O   0  0  0  0  0  0  0  0  0  0  0  0
    8.4400    0.0560    0.5740 N   0  0  0  0  0  0  0  0  0  0  0  0
    9.8540    0.3090    0.4190 C   0  0  1  0  0  0  0  0  0  0  0  0
   10.2110    1.7830    0.2720 C   0  0  0  0  0  0  0  0  0  0  0  0
   10.5440    1.0310    1.5550 C   0  0  0  0  0  0  0  0  0  0  0  0
   -3.2390   -1.3280    0.0650 C   0  0  0  0  0  0  0  0  0  0  0  0
   -4.4450   -0.4890    0.3360 C   0  0  2  0  0  0  0  0  0  0  0  0
   -4.8240    0.4350   -0.7720 C   0  0  0  0  0  0  0  0  0  0  0  0
  1  2  2  0
  2  3  1  0
  2  4  1  0
  5  4  1  6
  5  6  1  0
  5 32  1  0
  6  7  2  0
  7  8  1  0
  8  9  1  6
  8 10  1  0
  8 31  1  0
 10 11  1  0
 11 12  1  0
 12 13  1  0
 12 30  1  0
 13 14  2  0
 13 15  1  0
 15 16  1  0
 16 17  2  0
 16 18  1  0
 18 19  1  0
 19 20  1  0
 20 21  2  0
 20 22  1  0
 22 23  1  0
 23 24  1  0
 24 25  2  0
 24 26  1  0
 27 26  1  1
 27 28  1  0
 27 29  1  0
 28 29  1  0
 31 30  1  6
 31 32  1  0
M  END
