
     RDKit          3D

 33 36  0  0  0  0  0  0  0  0999 V2000
   -1.8710   -2.3560   -1.5170 C   0  0  0  0  0  0  0  0  0  0  0  0
   -1.2660   -1.1440   -2.1330 C   0  0  0  0  0  0  0  0  0  0  0  0
   -0.7710   -0.1380   -1.1310 C   0  0  0  0  0  0  0  0  0  0  0  0
    0.5670   -0.0120   -0.8590 C   0  0  0  0  0  0  0  0  0  0  0  0
    1.0600    0.9300    0.0700 C   0  0  0  0  0  0  0  0  0  0  0  0
    2.7780    0.9180    0.3120 S   0  0  0  0  0  0  0  0  0  0  0  0
    3.6150    2.3860    0.7160 C   0  0  0  0  0  0  0  0  0  0  0  0
    3.1200    3.6210    0.8370 N   0  0  0  0  0  0  0  0  0  0  0  0
    3.8130    4.6880    1.1470 N   0  0  0  0  0  0  0  0  0  0  0  0
    5.1310    4.5970    1.3730 C   0  0  0  0  0  0  0  0  0  0  0  0
    5.8250    5.6300    1.6770 O   0  0  0  0  0  0  0  0  0  0  0  0
    5.7310    3.3670    1.2710 C   0  0  0  0  0  0  0  0  0  0  0  0
    4.9970    2.2610    0.9470 C   0  0  0  0  0  0  0  0  0  0  0  0
    5.6430    0.9420    0.8380 C   0  0  0  0  0  0  0  0  0  0  0  0
    6.8730    0.8890    1.0710 O   0  0  0  0  0  0  0  0  0  0  0  0
    4.9700   -0.1960    0.5020 O   0  0  0  0  0  0  0  0  0  0  0  0
    5.6840   -1.4170    0.4240 C   0  0  2  0  0  0  0  0  0  0  0  0
    5.4070   -2.1880   -0.9060 C   0  0  0  0  0  0  0  0  0  0  0  0
    4.9550   -2.6970    0.4150 C   0  0  0  0  0  0  0  0  0  0  0  0
    0.1950    1.7590    0.7390 C   0  0  0  0  0  0  0  0  0  0  0  0
    0.7500    2.9070    1.9360 Cl  0  0  0  0  0  0  0  0  0  0  0  0
   -1.1630    1.6270    0.4580 C   0  0  0  0  0  0  0  0  0  0  0  0
   -1.6300    0.7020   -0.4520 C   0  0  0  0  0  0  0  0  0  0  0  0
   -3.0700    0.5970   -0.7010 C   0  0  0  0  0  0  0  0  0  0  0  0
   -3.5060    1.2920   -1.6610 O   0  0  0  0  0  0  0  0  0  0  0  0
   -3.9040   -0.2200    0.0800 N   0  0  0  0  0  0  0  0  0  0  0  0
   -3.4900   -1.0360    1.1910 C   0  0  0  0  0  0  0  0  0  0  0  0
   -4.3050   -2.2730    1.0000 C   0  0  0  0  0  0  0  0  0  0  0  0
   -5.4470   -1.9220    0.0730 C   0  0  0  0  0  0  0  0  0  0  0  0
   -5.3210   -0.4180   -0.0470 C   0  0  2  0  0  0  0  0  0  0  0  0
   -5.9030    0.1140   -1.2710 C   0  0  0  0  0  0  0  0  0  0  0  0
   -6.7940    1.0100   -1.2380 N   0  0  0  0  0  0  0  0  0  0  0  0
   -5.3650   -0.4950   -2.8550 S   0  0  0  0  0  0  0  0  0  0  0  0
  1  2  1  0
  2  3  1  0
  3  4  2  0
  3 23  1  0
  4  5  1  0
  5  6  1  0
  5 20  2  0
  6  7  1  0
  7  8  2  0
  7 13  1  0
  8  9  1  0
  9 10  1  0
 10 11  2  0
 10 12  1  0
 12 13  2  0
 13 14  1  0
 14 15  2  0
 14 16  1  0
 17 16  1  6
 17 18  1  0
 17 19  1  0
 18 19  1  0
 20 21  1  0
 20 22  1  0
 22 23  2  0
 23 24  1  0
 24 25  2  0
 24 26  1  0
 26 27  1  0
 26 30  1  0
 27 28  1  0
 28 29  1  0
 29 30  1  0
 30 31  1  6
 31 32  2  0
 31 33  1  0
M  END
