
     RDKit          3D

 31 34  0  0  0  0  0  0  0  0999 V2000
    8.2380   -1.7660   -1.8330 C   0  0  0  0  0  0  0  0  0  0  0  0
    8.4210   -0.5330   -0.9670 C   0  0  0  0  0  0  0  0  0  0  0  0
    7.8230   -0.8330    0.3870 C   0  0  0  0  0  0  0  0  0  0  0  0
    7.9150    0.1980    1.2810 O   0  0  0  0  0  0  0  0  0  0  0  0
    7.2950    1.3640    0.9190 C   0  0  0  0  0  0  0  0  0  0  0  0
    5.8430    1.2450    0.7030 C   0  0  0  0  0  0  0  0  0  0  0  0
    4.7840    1.3730    1.5240 C   0  0  0  0  0  0  0  0  0  0  0  0
    3.5360    1.2040    1.0350 C   0  0  0  0  0  0  0  0  0  0  0  0
    2.3240    1.3010    1.7530 C   0  0  0  0  0  0  0  0  0  0  0  0
    2.2900    1.5910    3.0750 F   0  0  0  0  0  0  0  0  0  0  0  0
    1.1230    1.0940    1.0900 C   0  0  0  0  0  0  0  0  0  0  0  0
    0.9910    0.7970   -0.2270 C   0  0  0  0  0  0  0  0  0  0  0  0
   -0.2270    0.5680   -0.8830 N   0  0  0  0  0  0  0  0  0  0  0  0
   -1.4900    0.3880   -0.3290 C   0  0  0  0  0  0  0  0  0  0  0  0
   -1.6340    0.4160    0.8940 O   0  0  0  0  0  0  0  0  0  0  0  0
   -2.6870    0.1580   -1.2150 C   0  0  0  0  0  0  0  0  0  0  0  0
   -3.9070   -0.0110   -0.3470 C   0  0  0  0  0  0  0  0  0  0  0  0
   -3.7720    0.0600    0.8900 O   0  0  0  0  0  0  0  0  0  0  0  0
   -5.1650   -0.2430   -0.9350 N   0  0  0  0  0  0  0  0  0  0  0  0
   -6.3900   -0.4200   -0.2610 C   0  0  0  0  0  0  0  0  0  0  0  0
   -6.5570   -0.4010    1.0980 C   0  0  0  0  0  0  0  0  0  0  0  0
   -7.8010   -0.5830    1.7000 C   0  0  0  0  0  0  0  0  0  0  0  0
   -8.9250   -0.7920    0.9340 C   0  0  0  0  0  0  0  0  0  0  0  0
   -8.7770   -0.8140   -0.4230 C   0  0  0  0  0  0  0  0  0  0  0  0
   -7.5450   -0.6330   -1.0080 C   0  0  0  0  0  0  0  0  0  0  0  0
  -10.0470   -1.0380   -0.9530 O   0  0  0  0  0  0  0  0  0  0  0  0
  -11.0250   -0.8250    0.0390 C   0  0  0  0  0  0  0  0  0  0  0  0
  -10.2620   -0.9990    1.2340 O   0  0  0  0  0  0  0  0  0  0  0  0
    2.2000    0.7000   -0.9440 C   0  0  0  0  0  0  0  0  0  0  0  0
    3.3850    0.9090   -0.2680 C   0  0  0  0  0  0  0  0  0  0  0  0
    5.1130    0.8650   -0.8530 S   0  0  0  0  0  0  0  0  0  0  0  0
  1  2  1  0
  2  3  1  0
  3  4  1  0
  4  5  1  0
  5  6  1  0
  6  7  2  0
  6 31  1  0
  7  8  1  0
  8  9  2  0
  8 30  1  0
  9 10  1  0
  9 11  1  0
 11 12  2  0
 12 13  1  0
 12 29  1  0
 13 14  1  0
 14 15  2  0
 14 16  1  0
 16 17  1  0
 17 18  2  0
 17 19  1  0
 19 20  1  0
 20 21  2  0
 20 25  1  0
 21 22  1  0
 22 23  2  0
 23 24  1  0
 23 28  1  0
 24 25  2  0
 24 26  1  0
 26 27  1  0
 27 28  1  0
 29 30  2  0
 30 31  1  0
M  END
