
     RDKit          3D

 31 33  0  0  0  0  0  0  0  0999 V2000
    7.5260    1.6410    0.7630 N   0  0  0  0  0  0  0  0  0  0  0  0
    6.2310    2.0570    1.1590 C   0  0  0  0  0  0  0  0  0  0  0  0
    5.9840    3.2990    1.1840 N   0  0  0  0  0  0  0  0  0  0  0  0
    5.2470    1.0490    1.5130 C   0  0  0  0  0  0  0  0  0  0  0  0
    5.6150   -0.3100    1.4600 C   0  0  0  0  0  0  0  0  0  0  0  0
    4.6870   -1.2770    1.7920 C   0  0  0  0  0  0  0  0  0  0  0  0
    3.4050   -0.9660    2.1770 C   0  0  0  0  0  0  0  0  0  0  0  0
    2.4620   -2.0420    2.5230 C   0  0  0  0  0  0  0  0  0  0  0  0
    1.9420   -2.6370    1.3270 N   0  0  0  0  0  0  0  0  0  0  0  0
    0.9430   -2.0310    0.5190 C   0  0  0  0  0  0  0  0  0  0  0  0
    0.5170   -0.9060    0.9150 O   0  0  0  0  0  0  0  0  0  0  0  0
    0.4280   -2.6900   -0.7260 C   0  0  2  0  0  0  0  0  0  0  0  0
    1.2400   -2.4790   -1.9560 C   0  0  0  0  0  0  0  0  0  0  0  0
    0.4530   -1.1580   -1.9990 C   0  0  0  0  0  0  0  0  0  0  0  0
   -0.6170   -1.8040   -1.3030 N   0  0  0  0  0  0  0  0  0  0  0  0
   -1.9880   -1.7830   -1.0970 C   0  0  0  0  0  0  0  0  0  0  0  0
   -2.4840   -2.6920   -0.3110 O   0  0  0  0  0  0  0  0  0  0  0  0
   -2.9920   -0.8560   -1.6550 C   0  0  2  0  0  0  0  0  0  0  0  0
   -2.5360    0.2080   -2.4460 N   0  0  0  0  0  0  0  0  0  0  0  0
   -1.7830    1.2550   -1.8410 C   0  0  0  0  0  0  0  0  0  0  0  0
   -2.4000    2.6060   -2.1370 C   0  0  0  0  0  0  0  0  0  0  0  0
   -1.9170    3.6450   -1.6120 O   0  0  0  0  0  0  0  0  0  0  0  0
   -3.4880    2.7590   -2.9740 O   0  0  0  0  0  0  0  0  0  0  0  0
   -4.0060   -0.5070   -0.5500 C   0  0  2  0  0  0  0  0  0  0  0  0
   -5.0890    0.3990   -0.9450 C   0  0  0  0  0  0  0  0  0  0  0  0
   -5.3000    1.6550   -0.1870 C   0  0  0  0  0  0  0  0  0  0  0  0
   -4.8690    1.5950    1.2520 C   0  0  0  0  0  0  0  0  0  0  0  0
   -3.4800    1.0290    1.4120 C   0  0  0  0  0  0  0  0  0  0  0  0
   -3.3460   -0.2930    0.7690 C   0  0  0  0  0  0  0  0  0  0  0  0
    3.0660    0.3630    2.2230 C   0  0  0  0  0  0  0  0  0  0  0  0
    3.9740    1.3630    1.8960 C   0  0  0  0  0  0  0  0  0  0  0  0
  1  2  1  0
  2  3  2  0
  2  4  1  0
  4  5  2  0
  4 31  1  0
  5  6  1  0
  6  7  2  0
  7  8  1  0
  7 30  1  0
  8  9  1  0
  9 10  1  0
 10 11  2  0
 12 10  1  1
 12 13  1  0
 12 15  1  0
 13 14  1  0
 14 15  1  0
 15 16  1  0
 16 17  2  0
 16 18  1  0
 18 19  1  1
 18 24  1  0
 19 20  1  0
 20 21  1  0
 21 22  2  0
 21 23  1  0
 24 25  1  6
 24 29  1  0
 25 26  1  0
 26 27  1  0
 27 28  1  0
 28 29  1  0
 30 31  2  0
M  CHG  2   3   1  19   1
M  END
