
     RDKit          3D

 30 33  0  0  0  0  0  0  0  0999 V2000
   -6.6570   -1.7700   -0.5800 C   0  0  0  0  0  0  0  0  0  0  0  0
   -6.4980   -0.4080   -1.1460 C   0  0  0  0  0  0  0  0  0  0  0  0
   -7.3930    0.2960   -1.8190 C   0  0  0  0  0  0  0  0  0  0  0  0
   -6.7990    1.6050   -2.1910 C   0  0  0  0  0  0  0  0  0  0  0  0
   -5.4340    1.5390   -1.6280 C   0  0  0  0  0  0  0  0  0  0  0  0
   -5.2740    0.3730   -1.0280 C   0  0  0  0  0  0  0  0  0  0  0  0
   -4.0220   -0.0400   -0.3490 C   0  0  0  0  0  0  0  0  0  0  0  0
   -4.3430   -0.2910    1.0160 O   0  0  0  0  0  0  0  0  0  0  0  0
   -3.3130   -0.6870    1.8590 C   0  0  0  0  0  0  0  0  0  0  0  0
   -2.0060   -0.8200    1.3690 C   0  0  0  0  0  0  0  0  0  0  0  0
   -0.9620   -1.2090    2.1670 C   0  0  0  0  0  0  0  0  0  0  0  0
    0.4270   -1.3200    1.6610 C   0  0  0  0  0  0  0  0  0  0  0  0
    1.0310   -0.3740    1.0150 C   0  0  0  0  0  0  0  0  0  0  0  0
    0.3200    0.9330    0.7440 C   0  0  0  0  0  0  0  0  0  0  0  0
    2.3900   -0.4650    0.5110 C   0  0  0  0  0  0  0  0  0  0  0  0
    2.9400    0.5960   -0.2230 C   0  0  0  0  0  0  0  0  0  0  0  0
    4.2230    0.5920   -0.7240 C   0  0  0  0  0  0  0  0  0  0  0  0
    5.0220   -0.5050   -0.5020 C   0  0  0  0  0  0  0  0  0  0  0  0
    4.5110   -1.5240    0.1950 N   0  0  0  0  0  0  0  0  0  0  0  0
    3.2380   -1.5290    0.6960 C   0  0  0  0  0  0  0  0  0  0  0  0
    2.8690   -2.5490    1.3380 O   0  0  0  0  0  0  0  0  0  0  0  0
    6.4260   -0.5260   -1.0340 C   0  0  0  0  0  0  0  0  0  0  0  0
    6.9390    0.8990   -0.8870 C   0  0  0  0  0  0  0  0  0  0  0  0
    6.1460    1.7640   -1.8100 C   0  0  1  0  0  0  0  0  0  0  0  0
    6.3710    1.3980   -3.2670 C   0  0  0  0  0  0  0  0  0  0  0  0
    4.6960    1.7980   -1.4950 C   0  0  0  0  0  0  0  0  0  0  0  0
   -1.2180   -1.4770    3.4940 C   0  0  0  0  0  0  0  0  0  0  0  0
   -2.5080   -1.3480    3.9870 C   0  0  0  0  0  0  0  0  0  0  0  0
   -3.5630   -0.9560    3.1930 C   0  0  0  0  0  0  0  0  0  0  0  0
   -4.8590   -0.8270    3.6910 O   0  0  0  0  0  0  0  0  0  0  0  0
  1  2  1  0
  2  3  2  0
  2  6  1  0
  3  4  1  0
  4  5  1  0
  5  6  2  0
  6  7  1  0
  7  8  1  0
  8  9  1  0
  9 10  2  0
  9 29  1  0
 10 11  1  0
 11 12  1  0
 11 27  2  0
 12 13  2  3
 13 14  1  0
 13 15  1  0
 15 16  2  0
 15 20  1  0
 16 17  1  0
 17 18  2  0
 17 26  1  0
 18 19  1  0
 18 22  1  0
 19 20  1  0
 20 21  2  0
 22 23  1  0
 23 24  1  0
 24 25  1  6
 24 26  1  0
 27 28  1  0
 28 29  2  0
 29 30  1  0
M  END
