
     RDKit          3D

 33 37  0  0  0  0  0  0  0  0999 V2000
    4.0850    1.7340   -1.9870 C   0  0  0  0  0  0  0  0  0  0  0  0
    4.4270    1.0290   -0.7330 C   0  0  0  0  0  0  0  0  0  0  0  0
    5.7280    0.7240   -0.5140 N   0  0  0  0  0  0  0  0  0  0  0  0
    6.1260    0.0850    0.5950 C   0  0  0  0  0  0  0  0  0  0  0  0
    7.4790   -0.2110    0.7850 C   0  0  0  0  0  0  0  0  0  0  0  0
    7.8790   -0.8650    1.9220 C   0  0  0  0  0  0  0  0  0  0  0  0
    6.9220   -1.2100    2.8470 C   0  0  0  0  0  0  0  0  0  0  0  0
    5.5960   -0.8960    2.6180 C   0  0  0  0  0  0  0  0  0  0  0  0
    5.2000   -0.2550    1.5040 N   0  0  0  0  0  0  0  0  0  0  0  0
    3.8840    0.0330    1.3210 C   0  0  0  0  0  0  0  0  0  0  0  0
    3.0200   -0.2810    2.1600 O   0  0  0  0  0  0  0  0  0  0  0  0
    3.4540    0.6930    0.1800 C   0  0  0  0  0  0  0  0  0  0  0  0
    2.0500    1.0350   -0.0780 C   0  0  0  0  0  0  0  0  0  0  0  0
    1.3880    0.1390   -1.0930 C   0  0  0  0  0  0  0  0  0  0  0  0
    1.3720   -1.2390   -0.7100 N   0  0  0  0  0  0  0  0  0  0  0  0
    0.5900   -2.1360   -1.9600 S   0  0  2  0  0  0  0  0  0  0  0  0
    1.2620   -3.4840   -2.0710 O   0  0  0  0  0  0  0  0  0  0  0  0
    0.8230   -1.4230   -3.2620 O   0  0  0  0  0  0  0  0  0  0  0  0
   -1.0660   -2.2670   -1.6000 N   0  0  0  0  0  0  0  0  0  0  0  0
   -1.8960   -1.2240   -2.1170 C   0  0  1  0  0  0  0  0  0  0  0  0
   -2.8790   -1.8000   -3.1490 C   0  0  0  0  0  0  0  0  0  0  0  0
   -2.6880   -0.6310   -1.0120 C   0  0  0  0  0  0  0  0  0  0  0  0
   -4.0500   -0.3690   -1.2040 C   0  0  0  0  0  0  0  0  0  0  0  0
   -4.7870    0.1850   -0.1720 C   0  0  0  0  0  0  0  0  0  0  0  0
   -4.2110    0.4790    1.0260 C   0  0  0  0  0  0  0  0  0  0  0  0
   -4.8020    1.0230    2.1280 C   0  0  0  0  0  0  0  0  0  0  0  0
   -3.8260    1.1260    3.0630 N   0  0  0  0  0  0  0  0  0  0  0  0
   -2.6670    0.6560    2.5450 C   0  0  0  0  0  0  0  0  0  0  0  0
   -2.8770    0.2340    1.2440 C   0  0  0  0  0  0  0  0  0  0  0  0
   -2.1240   -0.3210    0.2190 C   0  0  0  0  0  0  0  0  0  0  0  0
   -6.2590    1.3480    2.0560 C   0  0  0  0  0  0  0  0  0  0  0  0
   -6.6270    1.5900    0.6350 C   0  0  0  0  0  0  0  0  0  0  0  0
   -6.2450    0.4890   -0.3260 C   0  0  0  0  0  0  0  0  0  0  0  0
  1  2  1  0
  2  3  1  0
  2 12  2  0
  3  4  2  0
  4  5  1  0
  4  9  1  0
  5  6  2  0
  6  7  1  0
  7  8  2  0
  8  9  1  0
  9 10  1  0
 10 11  2  0
 10 12  1  0
 12 13  1  0
 13 14  1  0
 14 15  1  0
 16 15  1  1
 16 17  2  0
 16 18  2  0
 16 19  1  0
 19 20  1  0
 20 21  1  6
 20 22  1  0
 22 23  1  0
 22 30  2  0
 23 24  2  0
 24 25  1  0
 24 33  1  0
 25 26  2  0
 25 29  1  0
 26 27  1  0
 26 31  1  0
 27 28  1  0
 28 29  2  0
 29 30  1  0
 31 32  1  0
 32 33  1  0
M  END
