
     RDKit          3D

 34 36  0  0  0  0  0  0  0  0999 V2000
   -7.9640    2.9190    0.2350 C   0  0  0  0  0  0  0  0  0  0  0  0
   -8.4380    1.5290    0.6500 C   0  0  0  0  0  0  0  0  0  0  0  0
   -7.6610    0.5230   -0.1590 C   0  0  0  0  0  0  0  0  0  0  0  0
   -6.2550    0.6800    0.1220 N   0  0  0  0  0  0  0  0  0  0  0  0
   -5.2580   -0.1290   -0.4960 C   0  0  0  0  0  0  0  0  0  0  0  0
   -5.5860   -0.9970   -1.3020 O   0  0  0  0  0  0  0  0  0  0  0  0
   -3.8200    0.1330   -0.1160 C   0  0  0  0  0  0  0  0  0  0  0  0
   -3.0100   -0.7930   -0.8520 N   0  0  0  0  0  0  0  0  0  0  0  0
   -1.6750   -0.3630   -1.1490 C   0  0  1  0  0  0  0  0  0  0  0  0
   -1.0710    0.5510   -0.1900 C   0  0  0  0  0  0  0  0  0  0  0  0
   -1.6800    0.7530    0.9080 O   0  0  0  0  0  0  0  0  0  0  0  0
    0.1650    1.2310   -0.4290 N   0  0  0  0  0  0  0  0  0  0  0  0
    0.9100    2.2180    0.3900 C   0  0  0  0  0  0  0  0  0  0  0  0
    1.3850    2.8050   -0.9200 C   0  0  0  0  0  0  0  0  0  0  0  0
    1.2160    1.3500   -1.3880 C   0  0  1  0  0  0  0  0  0  0  0  0
    2.4400    0.5350   -1.1960 C   0  0  0  0  0  0  0  0  0  0  0  0
    3.3690    0.6840   -2.0280 O   0  0  0  0  0  0  0  0  0  0  0  0
    2.6240   -0.3870   -0.1510 N   0  0  0  0  0  0  0  0  0  0  0  0
    3.7850   -1.2030    0.0890 C   0  0  0  0  0  0  0  0  0  0  0  0
    4.8310   -0.4070    0.7410 C   0  0  0  0  0  0  0  0  0  0  0  0
    5.9670   -1.0260    1.2640 C   0  0  0  0  0  0  0  0  0  0  0  0
    6.9540   -0.2940    1.8900 C   0  0  0  0  0  0  0  0  0  0  0  0
    6.8830    1.0840    2.0380 C   0  0  0  0  0  0  0  0  0  0  0  0
    7.8880    1.8910    2.7040 C   0  0  0  0  0  0  0  0  0  0  0  0
    7.6890    3.2960    2.7630 N   0  0  0  0  0  0  0  0  0  0  0  0
    8.9160    1.3700    3.2190 N   0  0  0  0  0  0  0  0  0  0  0  0
    5.7380    1.6630    1.5030 C   0  0  0  0  0  0  0  0  0  0  0  0
    4.7440    0.9420    0.8750 C   0  0  0  0  0  0  0  0  0  0  0  0
   -0.7850   -1.5840   -1.4360 C   0  0  1  0  0  0  0  0  0  0  0  0
   -0.7290   -2.4790   -0.2700 C   0  0  0  0  0  0  0  0  0  0  0  0
   -0.8420   -3.9400   -0.4960 C   0  0  0  0  0  0  0  0  0  0  0  0
   -1.7030   -4.2700   -1.6820 C   0  0  0  0  0  0  0  0  0  0  0  0
   -0.9730   -3.6330   -2.8780 C   0  0  0  0  0  0  0  0  0  0  0  0
   -1.2420   -2.1530   -2.7350 C   0  0  0  0  0  0  0  0  0  0  0  0
  1  2  1  0
  2  3  1  0
  3  4  1  0
  4  5  1  0
  5  6  2  0
  5  7  1  0
  7  8  1  0
  9  8  1  1
  9 10  1  0
  9 29  1  0
 10 11  2  0
 10 12  1  0
 12 13  1  0
 12 15  1  0
 13 14  1  0
 14 15  1  0
 15 16  1  1
 16 17  2  0
 16 18  1  0
 18 19  1  0
 19 20  1  0
 20 21  2  0
 20 28  1  0
 21 22  1  0
 22 23  2  0
 23 24  1  0
 23 27  1  0
 24 25  1  0
 24 26  2  0
 27 28  2  0
 29 30  1  1
 29 34  1  0
 30 31  1  0
 31 32  1  0
 32 33  1  0
 33 34  1  0
M  CHG  2   8   1  26   1
M  END
