
     RDKit          3D

 35 39  0  0  0  0  0  0  0  0999 V2000
   -4.7120    2.1740    1.8890 C   0  0  0  0  0  0  0  0  0  0  0  0
   -5.2050    2.6210    0.5580 C   0  0  0  0  0  0  0  0  0  0  0  0
   -4.8400    1.6980   -0.5360 C   0  0  0  0  0  0  0  0  0  0  0  0
   -5.3770    0.3090   -0.5310 C   0  0  1  0  0  0  0  0  0  0  0  0
   -4.7880   -0.3200   -1.8320 C   0  0  0  0  0  0  0  0  0  0  0  0
   -3.4210   -0.6500   -1.3770 N   0  0  0  0  0  0  0  0  0  0  0  0
   -2.2510   -0.5060   -2.1410 C   0  0  0  0  0  0  0  0  0  0  0  0
   -2.4040   -0.0200   -3.3210 O   0  0  0  0  0  0  0  0  0  0  0  0
   -0.9040   -0.8470   -1.7370 C   0  0  0  0  0  0  0  0  0  0  0  0
   -0.3080   -2.0690   -1.9480 C   0  0  0  0  0  0  0  0  0  0  0  0
   -0.9490   -3.2430   -2.6270 C   0  0  0  0  0  0  0  0  0  0  0  0
    0.9180   -1.9930   -1.4400 N   0  0  0  0  0  0  0  0  0  0  0  0
    1.1630   -0.8070   -0.9120 N   0  0  0  0  0  0  0  0  0  0  0  0
    2.3860   -0.4270   -0.2940 C   0  0  0  0  0  0  0  0  0  0  0  0
    2.5090   -0.3010    1.0700 C   0  0  0  0  0  0  0  0  0  0  0  0
    3.7190    0.0750    1.6910 C   0  0  0  0  0  0  0  0  0  0  0  0
    3.7120    0.1580    2.9480 N   0  0  0  0  0  0  0  0  0  0  0  0
    5.0360    0.5890    3.9200 Cl  0  0  0  0  0  0  0  0  0  0  0  0
    4.8060    0.3240    0.9150 C   0  0  0  0  0  0  0  0  0  0  0  0
    6.1270    0.7060    1.1580 C   0  0  0  0  0  0  0  0  0  0  0  0
    6.7370    0.7920   -0.0750 C   0  0  0  0  0  0  0  0  0  0  0  0
    8.1520    1.1690   -0.3360 C   0  0  0  0  0  0  0  0  0  0  0  0
    8.8750    1.4800    0.9370 C   0  0  0  0  0  0  0  0  0  0  0  0
    8.1800    2.8200    1.8430 Cl  0  0  0  0  0  0  0  0  0  0  0  0
    5.8490    0.4830   -1.0180 N   0  0  0  0  0  0  0  0  0  0  0  0
    4.6570    0.1910   -0.4540 C   0  0  0  0  0  0  0  0  0  0  0  0
    3.4860   -0.1710   -1.0210 N   0  0  0  0  0  0  0  0  0  0  0  0
    0.0400   -0.0820   -1.0880 C   0  0  0  0  0  0  0  0  0  0  0  0
   -0.1400    1.3260   -0.6460 C   0  0  0  0  0  0  0  0  0  0  0  0
   -3.6390   -1.1170   -0.0430 C   0  0  0  0  0  0  0  0  0  0  0  0
   -2.9070   -1.9960    0.7160 C   0  0  0  0  0  0  0  0  0  0  0  0
   -3.3160   -2.3560    1.9930 C   0  0  0  0  0  0  0  0  0  0  0  0
   -4.4760   -1.8240    2.5080 C   0  0  0  0  0  0  0  0  0  0  0  0
   -5.2270   -0.9420    1.7740 C   0  0  0  0  0  0  0  0  0  0  0  0
   -4.8000   -0.5910    0.4920 C   0  0  0  0  0  0  0  0  0  0  0  0
  1  2  1  0
  2  3  1  0
  4  3  1  1
  4  5  1  0
  4 35  1  0
  5  6  1  0
  6  7  1  0
  6 30  1  0
  7  8  2  0
  7  9  1  0
  9 10  1  0
  9 28  2  0
 10 11  1  0
 10 12  2  0
 12 13  1  0
 13 14  1  0
 13 28  1  0
 14 15  2  0
 14 27  1  0
 15 16  1  0
 16 17  2  3
 16 19  1  0
 17 18  1  0
 19 20  1  0
 19 26  2  0
 20 21  2  0
 21 22  1  0
 21 25  1  0
 22 23  1  0
 23 24  1  0
 25 26  1  0
 26 27  1  0
 28 29  1  0
 30 31  2  0
 30 35  1  0
 31 32  1  0
 32 33  2  0
 33 34  1  0
 34 35  2  0
M  END
