
     RDKit          3D

 35 39  0  0  0  0  0  0  0  0999 V2000
   -0.7250    2.4910   -0.0640 C   0  0  0  0  0  0  0  0  0  0  0  0
    0.3470    1.4800   -0.0440 C   0  0  0  0  0  0  0  0  0  0  0  0
    1.6380    1.8780    0.2310 N   0  0  0  0  0  0  0  0  0  0  0  0
    2.6560    1.0320    0.2330 C   0  0  0  0  0  0  0  0  0  0  0  0
    3.9900    1.2120    0.4760 N   0  0  0  0  0  0  0  0  0  0  0  0
    4.5430    0.0060    0.3400 C   0  0  0  0  0  0  0  0  0  0  0  0
    6.0140   -0.2170    0.5290 C   0  0  1  0  0  0  0  0  0  0  0  0
    6.7900    0.4750   -0.5850 C   0  0  0  0  0  0  0  0  0  0  0  0
    6.5060    0.3660    1.8350 C   0  0  0  0  0  0  0  0  0  0  0  0
    3.5960   -0.8650    0.0300 N   0  0  0  0  0  0  0  0  0  0  0  0
    2.4080   -0.2540   -0.0440 N   0  0  0  0  0  0  0  0  0  0  0  0
    1.1710   -0.6840   -0.3160 C   0  0  0  0  0  0  0  0  0  0  0  0
    0.0650    0.1930   -0.3250 C   0  0  0  0  0  0  0  0  0  0  0  0
   -1.1910   -0.4070   -0.6260 C   0  0  1  0  0  0  0  0  0  0  0  0
   -1.3010   -1.7510    0.0780 C   0  0  0  0  0  0  0  0  0  0  0  0
   -2.2030   -2.6580   -0.4780 C   0  0  0  0  0  0  0  0  0  0  0  0
   -2.4100   -3.9160    0.0290 C   0  0  0  0  0  0  0  0  0  0  0  0
   -1.7080   -4.3260    1.1370 C   0  0  0  0  0  0  0  0  0  0  0  0
   -1.9460   -5.9350    1.8200 Cl  0  0  0  0  0  0  0  0  0  0  0  0
   -0.8180   -3.4340    1.6890 C   0  0  0  0  0  0  0  0  0  0  0  0
   -0.6160   -2.1490    1.1580 C   0  0  0  0  0  0  0  0  0  0  0  0
   -2.4440    0.2650   -0.6830 C   0  0  0  0  0  0  0  0  0  0  0  0
   -3.2520    0.7270    0.3000 C   0  0  0  0  0  0  0  0  0  0  0  0
   -3.0950    0.7720    1.7320 C   0  0  0  0  0  0  0  0  0  0  0  0
   -4.0590    1.1550    2.6040 C   0  0  0  0  0  0  0  0  0  0  0  0
   -3.5570    1.0770    3.9680 C   0  0  0  0  0  0  0  0  0  0  0  0
   -4.2220    1.7280    5.4180 Cl  0  0  0  0  0  0  0  0  0  0  0  0
   -2.4500    0.3760    3.8380 C   0  0  0  0  0  0  0  0  0  0  0  0
   -1.9600    0.5120    2.6030 C   0  0  0  0  0  0  0  0  0  0  0  0
   -4.3790    1.2470   -0.2950 N   0  0  0  0  0  0  0  0  0  0  0  0
   -4.3180    1.1370   -1.5780 N   0  0  0  0  0  0  0  0  0  0  0  0
   -3.1590    0.5460   -1.8640 C   0  0  0  0  0  0  0  0  0  0  0  0
   -2.6980    0.2360   -3.2340 C   0  0  0  0  0  0  0  0  0  0  0  0
   -1.6240    1.2450   -3.6640 C   0  0  0  0  0  0  0  0  0  0  0  0
   -2.1550    2.5360   -3.6390 O   0  0  0  0  0  0  0  0  0  0  0  0
  1  2  1  0
  2  3  2  0
  2 13  1  0
  3  4  1  0
  4  5  2  0
  4 11  1  0
  5  6  1  0
  6  7  1  0
  6 10  2  0
  7  8  1  6
  7  9  1  0
 10 11  1  0
 11 12  1  0
 12 13  2  0
 14 13  1  1
 14 15  1  0
 14 22  1  0
 15 16  2  0
 15 21  1  0
 16 17  1  0
 17 18  2  0
 18 19  1  0
 18 20  1  0
 20 21  2  0
 22 23  1  0
 22 32  2  0
 23 24  1  0
 23 30  2  0
 24 25  2  0
 24 29  1  0
 25 26  1  0
 26 27  1  0
 26 28  2  0
 28 29  2  0
 30 31  1  0
 31 32  1  0
 32 33  1  0
 33 34  1  0
 34 35  1  0
M  END
