
     RDKit          3D

 33 37  0  0  0  0  0  0  0  0999 V2000
   -6.9410    2.4740   -1.1600 C   0  0  0  0  0  0  0  0  0  0  0  0
   -7.4000    1.2130   -0.5490 C   0  0  0  0  0  0  0  0  0  0  0  0
   -6.5960    0.2470   -0.1960 C   0  0  0  0  0  0  0  0  0  0  0  0
   -5.2220    0.2200   -0.3210 C   0  0  0  0  0  0  0  0  0  0  0  0
   -4.4390    1.6100   -1.0600 Cl  0  0  0  0  0  0  0  0  0  0  0  0
   -4.4190   -0.8390    0.0800 C   0  0  0  0  0  0  0  0  0  0  0  0
   -5.0500   -1.9290    0.6370 C   0  0  0  0  0  0  0  0  0  0  0  0
   -4.0940   -2.8990    0.9750 C   0  0  0  0  0  0  0  0  0  0  0  0
   -2.9150   -2.3390    0.6010 C   0  0  0  0  0  0  0  0  0  0  0  0
   -3.1060   -1.0890    0.0580 N   0  0  0  0  0  0  0  0  0  0  0  0
   -2.0710   -0.2160   -0.4310 C   0  0  2  0  0  0  0  0  0  0  0  0
   -0.8990   -1.0870   -0.8340 C   0  0  0  0  0  0  0  0  0  0  0  0
    0.1300   -1.1150    0.2320 C   0  0  0  0  0  0  0  0  0  0  0  0
    0.7690    0.1860    0.3260 N   0  0  1  0  0  0  0  0  0  0  0  0
    1.7660    0.4010   -0.6970 C   0  0  0  0  0  0  0  0  0  0  0  0
    3.1420   -0.0220   -0.2160 C   0  0  0  0  0  0  0  0  0  0  0  0
    4.1540    0.2120   -1.3000 C   0  0  0  0  0  0  0  0  0  0  0  0
    5.5070   -0.1960   -0.8470 C   0  0  0  0  0  0  0  0  0  0  0  0
    6.2100   -1.3270   -1.1840 C   0  0  0  0  0  0  0  0  0  0  0  0
    7.4060   -1.3460   -0.5720 N   0  0  0  0  0  0  0  0  0  0  0  0
    7.5110   -0.2300    0.1770 C   0  0  0  0  0  0  0  0  0  0  0  0
    8.5280    0.2190    0.9870 C   0  0  0  0  0  0  0  0  0  0  0  0
    8.3390    1.4210    1.6370 C   0  0  0  0  0  0  0  0  0  0  0  0
    9.5920    2.0310    2.6720 Cl  0  0  0  0  0  0  0  0  0  0  0  0
    7.1770    2.1610    1.4910 C   0  0  0  0  0  0  0  0  0  0  0  0
    6.1780    1.6850    0.6740 C   0  0  0  0  0  0  0  0  0  0  0  0
    6.3310    0.5020    0.0170 C   0  0  0  0  0  0  0  0  0  0  0  0
   -0.2060    1.2340    0.3740 C   0  0  0  0  0  0  0  0  0  0  0  0
   -1.6040    0.6980    0.6570 C   0  0  0  0  0  0  0  0  0  0  0  0
   -6.3740   -1.9210    0.7660 N   0  0  0  0  0  0  0  0  0  0  0  0
   -7.1820   -0.8880    0.3780 C   0  0  0  0  0  0  0  0  0  0  0  0
   -8.4750   -0.9800    0.5480 C   0  0  0  0  0  0  0  0  0  0  0  0
   -8.9260   -2.1620    1.1310 F   0  0  0  0  0  0  0  0  0  0  0  0
  1  2  1  0
  2  3  2  3
  3  4  1  0
  3 31  1  0
  4  5  1  0
  4  6  2  0
  6  7  1  0
  6 10  1  0
  7  8  1  0
  7 30  2  0
  8  9  2  0
  9 10  1  0
 11 10  1  1
 11 12  1  0
 11 29  1  0
 12 13  1  0
 13 14  1  0
 14 15  1  6
 14 28  1  0
 15 16  1  0
 16 17  1  0
 17 18  1  0
 18 19  2  0
 18 27  1  0
 19 20  1  0
 20 21  1  0
 21 22  2  0
 21 27  1  0
 22 23  1  0
 23 24  1  0
 23 25  2  0
 25 26  1  0
 26 27  2  0
 28 29  1  0
 30 31  1  0
 31 32  2  3
 32 33  1  0
M  CHG  1  14   1
M  END
