
     RDKit          3D

 33 36  0  0  0  0  0  0  0  0999 V2000
    1.2530    2.1360   -2.6340 C   0  0  0  0  0  0  0  0  0  0  0  0
    0.3500    1.3510   -1.8650 C   0  0  0  0  0  0  0  0  0  0  0  0
   -1.4230    1.3950   -2.0350 S   0  0  0  0  0  0  0  0  0  0  0  0
   -1.8480    0.2040   -0.7370 C   0  0  0  0  0  0  0  0  0  0  0  0
   -0.6050   -0.1280   -0.2830 C   0  0  0  0  0  0  0  0  0  0  0  0
    0.4900    0.4120   -0.8110 C   0  0  0  0  0  0  0  0  0  0  0  0
    1.9140    0.0940   -0.4220 C   0  0  0  0  0  0  0  0  0  0  0  0
    2.2610   -0.0930    0.7460 O   0  0  0  0  0  0  0  0  0  0  0  0
    2.8800    0.0020   -1.4340 N   0  0  0  0  0  0  0  0  0  0  0  0
    4.2820   -0.2860   -1.1170 C   0  0  0  0  0  0  0  0  0  0  0  0
    4.8430    0.8230   -0.2630 C   0  0  0  0  0  0  0  0  0  0  0  0
    6.2800    0.5860    0.0820 C   0  0  0  0  0  0  0  0  0  0  0  0
    6.4040   -0.6560    0.8750 C   0  0  0  0  0  0  0  0  0  0  0  0
    5.4120   -1.2630    1.3200 O   0  0  0  0  0  0  0  0  0  0  0  0
    7.7000   -1.2100    1.1650 N   0  0  0  0  0  0  0  0  0  0  0  0
    8.8650   -0.5430    0.6730 C   0  0  0  0  0  0  0  0  0  0  0  0
    7.8170   -2.4140    1.9360 C   0  0  0  0  0  0  0  0  0  0  0  0
   -0.6550   -1.0740    0.7750 C   0  0  0  0  0  0  0  0  0  0  0  0
    0.3830   -1.5170    1.3340 O   0  0  0  0  0  0  0  0  0  0  0  0
   -1.8160   -1.5020    1.1800 N   0  0  0  0  0  0  0  0  0  0  0  0
   -3.0580   -1.1550    0.7110 C   0  0  0  0  0  0  0  0  0  0  0  0
   -4.2200   -1.6950    1.3700 C   0  0  0  0  0  0  0  0  0  0  0  0
   -4.1370   -2.2890    2.5930 C   0  0  0  0  0  0  0  0  0  0  0  0
   -5.4540   -2.7480    3.0420 C   0  0  0  0  0  0  0  0  0  0  0  0
   -6.1950   -2.7940    1.8970 O   0  0  0  0  0  0  0  0  0  0  0  0
   -5.6120   -1.8630    0.9920 C   0  0  0  0  0  0  0  0  0  0  0  0
   -3.0160   -0.2600   -0.2900 N   0  0  0  0  0  0  0  0  0  0  0  0
   -4.2270    0.2430   -0.8490 C   0  0  1  0  0  0  0  0  0  0  0  0
   -4.6610    1.3760    0.0970 C   0  0  0  0  0  0  0  0  0  0  0  0
   -5.9840    1.9830   -0.2990 C   0  0  0  0  0  0  0  0  0  0  0  0
   -6.0440    2.3150   -1.7620 C   0  0  0  0  0  0  0  0  0  0  0  0
   -4.6170    2.2030   -2.2920 C   0  0  0  0  0  0  0  0  0  0  0  0
   -4.2380    0.7600   -2.2320 C   0  0  0  0  0  0  0  0  0  0  0  0
  1  2  1  0
  2  3  1  0
  2  6  2  0
  3  4  1  0
  4  5  2  0
  4 27  1  0
  5  6  1  0
  5 18  1  0
  6  7  1  0
  7  8  2  0
  7  9  1  0
  9 10  1  0
 10 11  1  0
 11 12  1  0
 12 13  1  0
 13 14  2  0
 13 15  1  0
 15 16  1  0
 15 17  1  0
 18 19  2  0
 18 20  1  0
 20 21  2  0
 21 22  1  0
 21 27  1  0
 22 23  2  0
 22 26  1  0
 23 24  1  0
 24 25  1  0
 25 26  1  0
 28 27  1  1
 28 29  1  0
 28 33  1  0
 29 30  1  0
 30 31  1  0
 31 32  1  0
 32 33  1  0
M  END
