
     RDKit          3D

 33 37  0  0  0  0  0  0  0  0999 V2000
    6.6310    0.8270    0.7560 C   0  0  0  0  0  0  0  0  0  0  0  0
    6.2050   -0.6140    0.6280 C   0  0  0  0  0  0  0  0  0  0  0  0
    4.9440   -0.9250    0.4590 C   0  0  0  0  0  0  0  0  0  0  0  0
    3.8950    0.0740    0.3900 C   0  0  0  0  0  0  0  0  0  0  0  0
    2.6220   -0.2120    0.2290 C   0  0  0  0  0  0  0  0  0  0  0  0
    1.7030    0.9250    0.1780 N   0  0  0  0  0  0  0  0  0  0  0  0
    2.0080    2.2140    0.3750 C   0  0  0  0  0  0  0  0  0  0  0  0
    0.9180    2.9680    0.1950 N   0  0  0  0  0  0  0  0  0  0  0  0
   -0.1350    2.1560   -0.1310 C   0  0  0  0  0  0  0  0  0  0  0  0
   -1.4340    2.5720   -0.4780 N   0  0  0  0  0  0  0  0  0  0  0  0
   -1.8280    3.9450   -0.1210 C   0  0  0  0  0  0  0  0  0  0  0  0
   -3.3070    3.8830    0.1800 C   0  0  0  0  0  0  0  0  0  0  0  0
   -4.0210    3.6070   -1.0430 N   0  0  0  0  0  0  0  0  0  0  0  0
   -3.2040    2.8800   -2.0090 C   0  0  0  0  0  0  0  0  0  0  0  0
   -2.4320    1.8190   -1.1880 C   0  0  0  0  0  0  0  0  0  0  0  0
    0.4020    0.8650   -0.1290 C   0  0  0  0  0  0  0  0  0  0  0  0
   -0.3850   -0.2970   -0.4670 C   0  0  0  0  0  0  0  0  0  0  0  0
   -1.4020   -0.7900    0.2070 C   0  0  0  0  0  0  0  0  0  0  0  0
   -1.9630   -0.2750    1.4590 C   0  0  0  0  0  0  0  0  0  0  0  0
   -3.3800   -0.8130    1.5180 C   0  0  0  0  0  0  0  0  0  0  0  0
   -3.3630   -1.9910    0.6120 C   0  0  0  0  0  0  0  0  0  0  0  0
   -4.3070   -2.9960    0.4830 C   0  0  0  0  0  0  0  0  0  0  0  0
   -4.0810   -4.0030   -0.4300 C   0  0  0  0  0  0  0  0  0  0  0  0
   -5.2880   -5.2580   -0.5730 Cl  0  0  0  0  0  0  0  0  0  0  0  0
   -2.9320   -3.9810   -1.1830 C   0  0  0  0  0  0  0  0  0  0  0  0
   -1.9850   -2.9560   -1.0410 C   0  0  0  0  0  0  0  0  0  0  0  0
   -2.2150   -1.9600   -0.1330 C   0  0  0  0  0  0  0  0  0  0  0  0
    2.1360   -1.5770    0.1320 C   0  0  0  0  0  0  0  0  0  0  0  0
    3.0740   -2.6070    0.7210 C   0  0  0  0  0  0  0  0  0  0  0  0
    4.4800   -2.3100    0.3340 C   0  0  0  0  0  0  0  0  0  0  0  0
    5.2470   -3.2470   -0.1150 C   0  0  0  0  0  0  0  0  0  0  0  0
    6.5150   -3.0880   -0.5130 F   0  0  0  0  0  0  0  0  0  0  0  0
    4.6240   -4.9070   -0.2340 Cl  0  0  0  0  0  0  0  0  0  0  0  0
  1  2  1  0
  2  3  2  3
  3  4  1  0
  3 30  1  0
  4  5  2  0
  5  6  1  0
  5 28  1  0
  6  7  1  0
  6 16  1  0
  7  8  2  0
  8  9  1  0
  9 10  1  0
  9 16  2  0
 10 11  1  0
 10 15  1  0
 11 12  1  0
 12 13  1  0
 13 14  1  0
 14 15  1  0
 16 17  1  0
 17 18  2  3
 18 19  1  0
 18 27  1  0
 19 20  1  0
 20 21  1  0
 21 22  2  0
 21 27  1  0
 22 23  1  0
 23 24  1  0
 23 25  2  0
 25 26  1  0
 26 27  2  0
 28 29  1  0
 29 30  1  0
 30 31  2  3
 31 32  1  0
 31 33  1  0
M  CHG  1  13   1
M  END
