
     RDKit          3D

 32 35  0  0  0  0  0  0  0  0999 V2000
   -5.3670   -3.3000   -0.4050 C   0  0  0  0  0  0  0  0  0  0  0  0
   -4.1070   -2.5110   -0.1580 C   0  0  2  0  0  0  0  0  0  0  0  0
   -3.3580   -3.1230    0.9690 C   0  0  0  0  0  0  0  0  0  0  0  0
   -4.3800   -1.0660   -0.1190 C   0  0  0  0  0  0  0  0  0  0  0  0
   -5.5570   -0.4570   -0.1720 O   0  0  0  0  0  0  0  0  0  0  0  0
   -5.3900    0.8420   -0.1370 N   0  0  0  0  0  0  0  0  0  0  0  0
   -4.0340    1.0810   -0.0480 C   0  0  0  0  0  0  0  0  0  0  0  0
   -3.5640    2.4040    0.1070 N   0  0  0  0  0  0  0  0  0  0  0  0
   -4.4170    3.5330    0.0400 C   0  0  0  0  0  0  0  0  0  0  0  0
   -5.6170    3.3550   -0.2460 O   0  0  0  0  0  0  0  0  0  0  0  0
   -3.8630    4.8610    0.2980 C   0  0  0  0  0  0  0  0  0  0  0  0
   -2.6330    5.0090    0.6890 O   0  0  0  0  0  0  0  0  0  0  0  0
   -4.6230    6.0030    0.1310 O   0  0  0  0  0  0  0  0  0  0  0  0
   -3.3760   -0.1230   -0.0320 C   0  0  0  0  0  0  0  0  0  0  0  0
   -1.9610   -0.3900    0.2290 C   0  0  0  0  0  0  0  0  0  0  0  0
   -1.1600   -0.3780   -0.9580 N   0  0  0  0  0  0  0  0  0  0  0  0
    0.1030    0.2170   -0.9130 C   0  0  0  0  0  0  0  0  0  0  0  0
    0.5110    0.7670   -1.9120 O   0  0  0  0  0  0  0  0  0  0  0  0
    0.9140    0.1640    0.3010 C   0  0  0  0  0  0  0  0  0  0  0  0
    2.2740   -0.3420    0.1890 C   0  0  0  0  0  0  0  0  0  0  0  0
    2.6800   -1.6670    0.1080 C   0  0  0  0  0  0  0  0  0  0  0  0
    4.0650   -1.6910    0.1260 C   0  0  0  0  0  0  0  0  0  0  0  0
    5.0690   -2.6390    0.1070 C   0  0  0  0  0  0  0  0  0  0  0  0
    6.3980   -2.2410    0.1710 C   0  0  0  0  0  0  0  0  0  0  0  0
    6.7300   -0.8860    0.2620 C   0  0  0  0  0  0  0  0  0  0  0  0
    5.7350    0.0570    0.2870 C   0  0  0  0  0  0  0  0  0  0  0  0
    4.4280   -0.3890    0.2150 C   0  0  0  0  0  0  0  0  0  0  0  0
    3.3800    0.4310    0.2520 N   0  0  0  0  0  0  0  0  0  0  0  0
    3.6250    1.8230    0.3550 C   0  0  0  0  0  0  0  0  0  0  0  0
    2.7610    2.5850    0.8100 O   0  0  0  0  0  0  0  0  0  0  0  0
    4.9250    2.3760   -0.0900 C   0  0  0  0  0  0  0  0  0  0  0  0
    6.0720    1.4710    0.3900 C   0  0  0  0  0  0  0  0  0  0  0  0
  2  1  1  1
  2  3  1  0
  2  4  1  0
  4  5  1  0
  4 14  2  0
  5  6  1  0
  6  7  2  0
  7  8  1  0
  7 14  1  0
  8  9  1  0
  9 10  2  0
  9 11  1  0
 11 12  2  0
 11 13  1  0
 14 15  1  0
 15 16  1  0
 16 17  1  0
 17 18  2  0
 17 19  1  0
 19 20  1  0
 20 21  2  0
 20 28  1  0
 21 22  1  0
 22 23  2  0
 22 27  1  0
 23 24  1  0
 24 25  2  0
 25 26  1  0
 26 27  2  0
 26 32  1  0
 27 28  1  0
 28 29  1  0
 29 30  2  0
 29 31  1  0
 31 32  1  0
M  CHG  1  16   1
M  END
