
     RDKit          3D

 33 36  0  0  0  0  0  0  0  0999 V2000
   -6.3480   -2.8590   -1.2070 C   0  0  0  0  0  0  0  0  0  0  0  0
   -7.0320   -1.8170   -1.9530 N   0  0  0  0  0  0  0  0  0  0  0  0
   -7.7910   -1.0160   -1.0470 C   0  0  0  0  0  0  0  0  0  0  0  0
   -7.1870   -0.1640   -0.2180 C   0  0  0  0  0  0  0  0  0  0  0  0
   -7.9920    0.5940    0.6480 N   0  0  0  0  0  0  0  0  0  0  0  0
   -5.7560   -0.0440   -0.2320 C   0  0  0  0  0  0  0  0  0  0  0  0
   -5.1110    0.7820    0.5660 C   0  0  0  0  0  0  0  0  0  0  0  0
   -5.5380    1.6890    1.5530 N   0  0  0  0  0  0  0  0  0  0  0  0
   -4.4290    2.3680    2.1730 C   0  0  2  0  0  0  0  0  0  0  0  0
   -4.4830    3.8580    1.8560 C   0  0  0  0  0  0  0  0  0  0  0  0
   -3.2420    1.8380    1.4850 C   0  0  0  0  0  0  0  0  0  0  0  0
   -1.8820    2.1360    1.6520 C   0  0  0  0  0  0  0  0  0  0  0  0
   -0.9900    1.4660    0.8550 C   0  0  0  0  0  0  0  0  0  0  0  0
   -1.3440    0.5280   -0.0890 C   0  0  0  0  0  0  0  0  0  0  0  0
   -0.3590   -0.1610   -0.9200 C   0  0  0  0  0  0  0  0  0  0  0  0
   -0.7640   -1.0400   -1.7210 O   0  0  0  0  0  0  0  0  0  0  0  0
    1.0340    0.0980   -0.8820 N   0  0  0  0  0  0  0  0  0  0  0  0
    1.9580   -0.6200   -1.7350 C   0  0  0  0  0  0  0  0  0  0  0  0
    3.3880   -0.1660   -1.5040 C   0  0  0  0  0  0  0  0  0  0  0  0
    3.8290   -0.4080   -0.0860 C   0  0  0  0  0  0  0  0  0  0  0  0
    5.2170   -0.0090    0.1910 C   0  0  0  0  0  0  0  0  0  0  0  0
    5.5100    1.2410    0.7660 C   0  0  0  0  0  0  0  0  0  0  0  0
    6.7670    1.6890    1.0110 C   0  0  0  0  0  0  0  0  0  0  0  0
    7.8370    0.9010    0.6880 C   0  0  0  0  0  0  0  0  0  0  0  0
    7.6100   -0.3390    0.1200 C   0  0  0  0  0  0  0  0  0  0  0  0
    6.3110   -0.7890   -0.1250 C   0  0  0  0  0  0  0  0  0  0  0  0
    6.1460   -2.1010   -0.6920 C   0  0  0  0  0  0  0  0  0  0  0  0
    4.9820   -2.5350   -0.9210 O   0  0  0  0  0  0  0  0  0  0  0  0
    7.2940   -2.8860   -0.9830 N   0  0  0  0  0  0  0  0  0  0  0  0
    8.5660   -2.5980   -0.3760 C   0  0  0  0  0  0  0  0  0  0  0  0
    8.8000   -1.1360   -0.2040 C   0  0  0  0  0  0  0  0  0  0  0  0
   -2.6840    0.2570   -0.2290 C   0  0  0  0  0  0  0  0  0  0  0  0
   -3.6360    0.9150    0.5600 C   0  0  0  0  0  0  0  0  0  0  0  0
  1  2  1  0
  2  3  1  0
  3  4  2  3
  4  5  1  0
  4  6  1  0
  6  7  2  3
  7  8  1  0
  7 33  1  0
  8  9  1  0
  9 10  1  6
  9 11  1  0
 11 12  2  0
 11 33  1  0
 12 13  1  0
 13 14  2  0
 14 15  1  0
 14 32  1  0
 15 16  2  0
 15 17  1  0
 17 18  1  0
 18 19  1  0
 19 20  1  0
 20 21  1  0
 21 22  2  0
 21 26  1  0
 22 23  1  0
 23 24  2  0
 24 25  1  0
 25 26  2  0
 25 31  1  0
 26 27  1  0
 27 28  2  0
 27 29  1  0
 29 30  1  0
 30 31  1  0
 32 33  2  0
M  CHG  1   2   1
M  END
