
     RDKit          3D

 33 36  0  0  0  0  0  0  0  0999 V2000
   -5.3100    3.1120   -0.9570 N   0  0  0  0  0  0  0  0  0  0  0  0
   -6.6000    2.5420   -0.9400 C   0  0  0  0  0  0  0  0  0  0  0  0
   -6.7630    1.2790   -0.6180 C   0  0  0  0  0  0  0  0  0  0  0  0
   -5.5810    0.4510   -0.2690 C   0  0  0  0  0  0  0  0  0  0  0  0
   -5.6690   -0.8280    0.0680 C   0  0  0  0  0  0  0  0  0  0  0  0
   -4.4310   -1.5820    0.3970 C   0  0  0  0  0  0  0  0  0  0  0  0
   -3.2010   -0.9960    0.1610 C   0  0  0  0  0  0  0  0  0  0  0  0
   -2.0210   -1.6510    0.4910 C   0  0  0  0  0  0  0  0  0  0  0  0
   -0.8510   -0.9970    0.2230 O   0  0  0  0  0  0  0  0  0  0  0  0
    0.4500   -1.4190    0.4490 C   0  0  1  0  0  0  0  0  0  0  0  0
    1.2970   -1.3910   -0.8300 C   0  0  0  0  0  0  0  0  0  0  0  0
    2.6730   -1.8590   -0.4790 C   0  0  0  0  0  0  0  0  0  0  0  0
    3.2330   -1.2000    0.6760 N   0  0  0  0  0  0  0  0  0  0  0  0
    4.5470   -0.6760    0.7200 C   0  0  0  0  0  0  0  0  0  0  0  0
    4.9380   -0.1210    1.7750 O   0  0  0  0  0  0  0  0  0  0  0  0
    5.4350   -0.7330   -0.3170 O   0  0  0  0  0  0  0  0  0  0  0  0
    6.7310   -0.2600   -0.3950 C   0  0  0  0  0  0  0  0  0  0  0  0
    6.9370    1.2020   -0.2250 C   0  0  1  0  0  0  0  0  0  0  0  0
    6.3250    2.0210   -1.3420 C   0  0  0  0  0  0  0  0  0  0  0  0
    6.2300    3.3840   -0.6790 C   0  0  0  0  0  0  0  0  0  0  0  0
    6.1010    3.0260    0.7620 C   0  0  0  0  0  0  0  0  0  0  0  0
    6.5440    1.7510    0.9560 O   0  0  0  0  0  0  0  0  0  0  0  0
    2.4030   -1.0690    1.8520 C   0  0  0  0  0  0  0  0  0  0  0  0
    1.1090   -0.3940    1.3790 C   0  0  0  0  0  0  0  0  0  0  0  0
   -2.1380   -2.8810    1.0490 C   0  0  0  0  0  0  0  0  0  0  0  0
   -3.3520   -3.4600    1.2830 C   0  0  0  0  0  0  0  0  0  0  0  0
   -4.4720   -2.7930    0.9500 N   0  0  0  0  0  0  0  0  0  0  0  0
   -5.6330   -3.4540    1.2480 O   0  0  0  0  0  0  0  0  0  0  0  0
   -6.9490   -1.4300    0.0920 N   0  0  0  0  0  0  0  0  0  0  0  0
   -8.1680   -0.7060   -0.2320 C   0  0  0  0  0  0  0  0  0  0  0  0
   -9.2650   -1.3010   -0.1890 O   0  0  0  0  0  0  0  0  0  0  0  0
   -8.0890    0.6880   -0.5990 C   0  0  0  0  0  0  0  0  0  0  0  0
   -9.0790    1.3940   -0.8930 O   0  0  0  0  0  0  0  0  0  0  0  0
  1  2  1  0
  2  3  2  3
  3  4  1  0
  3 32  1  0
  4  5  2  0
  5  6  1  0
  5 29  1  0
  6  7  2  0
  6 27  1  0
  7  8  1  0
  8  9  1  0
  8 25  2  0
 10  9  1  6
 10 11  1  0
 10 24  1  0
 11 12  1  0
 12 13  1  0
 13 14  1  0
 13 23  1  0
 14 15  2  0
 14 16  1  0
 16 17  1  0
 18 17  1  1
 18 19  1  0
 18 22  1  0
 19 20  1  0
 20 21  1  0
 21 22  1  0
 23 24  1  0
 25 26  1  0
 26 27  2  0
 27 28  1  0
 29 30  1  0
 30 31  2  0
 30 32  1  0
 32 33  2  0
M  CHG  3   1   1  27   1  28  -1
M  END
