
     RDKit          3D

 33 36  0  0  0  0  0  0  0  0999 V2000
   -7.3310   -0.9250    1.4910 C   0  0  0  0  0  0  0  0  0  0  0  0
   -5.9460   -0.3940    1.5430 C   0  0  0  0  0  0  0  0  0  0  0  0
   -5.5240    0.5080    0.6410 N   0  0  0  0  0  0  0  0  0  0  0  0
   -4.2730    1.0000    0.6730 C   0  0  0  0  0  0  0  0  0  0  0  0
   -3.8810    1.8570   -0.1890 O   0  0  0  0  0  0  0  0  0  0  0  0
   -3.4050    0.5520    1.6760 C   0  0  0  0  0  0  0  0  0  0  0  0
   -3.8460   -0.3690    2.5930 C   0  0  0  0  0  0  0  0  0  0  0  0
   -2.9730   -0.8800    3.6740 C   0  0  0  0  0  0  0  0  0  0  0  0
   -2.3760   -2.1380    3.2900 N   0  0  0  0  0  0  0  0  0  0  0  0
   -1.9200   -2.1390    1.9460 C   0  0  0  0  0  0  0  0  0  0  0  0
   -2.5840   -2.8420    0.9460 C   0  0  0  0  0  0  0  0  0  0  0  0
   -2.1300   -2.8380   -0.3550 C   0  0  0  0  0  0  0  0  0  0  0  0
   -0.9970   -2.1310   -0.6980 C   0  0  0  0  0  0  0  0  0  0  0  0
   -0.3110   -1.4190    0.2800 C   0  0  0  0  0  0  0  0  0  0  0  0
    0.8310   -0.6990   -0.0310 O   0  0  0  0  0  0  0  0  0  0  0  0
    1.5030    0.0060    0.9580 C   0  0  0  0  0  0  0  0  0  0  0  0
    2.6960    0.6850    0.3330 C   0  0  0  0  0  0  0  0  0  0  0  0
    3.4560    1.3830    1.0340 O   0  0  0  0  0  0  0  0  0  0  0  0
    2.9650    0.5410   -1.0300 N   0  0  0  0  0  0  0  0  0  0  0  0
    4.0260    1.0980   -1.7760 C   0  0  0  0  0  0  0  0  0  0  0  0
    4.9990    1.9000   -1.2600 C   0  0  0  0  0  0  0  0  0  0  0  0
    6.0360    2.4330   -2.0350 C   0  0  0  0  0  0  0  0  0  0  0  0
    6.1040    2.1580   -3.3690 C   0  0  0  0  0  0  0  0  0  0  0  0
    5.1320    1.3480   -3.9190 C   0  0  0  0  0  0  0  0  0  0  0  0
    4.1170    0.8300   -3.1500 C   0  0  0  0  0  0  0  0  0  0  0  0
    3.1680    0.0310   -3.7220 O   0  0  0  0  0  0  0  0  0  0  0  0
    7.2810    2.8410   -3.9530 C   0  0  0  0  0  0  0  0  0  0  0  0
    7.8990    3.5100   -2.8860 O   0  0  0  0  0  0  0  0  0  0  0  0
    7.1720    3.2860   -1.7420 C   0  0  0  0  0  0  0  0  0  0  0  0
    7.4620    3.7580   -0.6210 O   0  0  0  0  0  0  0  0  0  0  0  0
   -0.7890   -1.4410    1.5730 C   0  0  0  0  0  0  0  0  0  0  0  0
   -5.1230   -0.8370    2.5170 N   0  0  0  0  0  0  0  0  0  0  0  0
   -5.5370   -1.7580    3.4460 O   0  0  0  0  0  0  0  0  0  0  0  0
  1  2  1  0
  2  3  1  0
  2 32  2  0
  3  4  1  0
  4  5  2  0
  4  6  1  0
  6  7  2  0
  7  8  1  0
  7 32  1  0
  8  9  1  0
  9 10  1  0
 10 11  2  0
 10 31  1  0
 11 12  1  0
 12 13  2  0
 13 14  1  0
 14 15  1  0
 14 31  2  0
 15 16  1  0
 16 17  1  0
 17 18  2  0
 17 19  1  0
 19 20  1  0
 20 21  2  0
 20 25  1  0
 21 22  1  0
 22 23  2  0
 22 29  1  0
 23 24  1  0
 23 27  1  0
 24 25  2  0
 25 26  1  0
 27 28  1  0
 28 29  1  0
 29 30  2  0
 32 33  1  0
M  CHG  3   9   1  32   1  33  -1
M  END
