
     RDKit          3D

 32 34  0  0  0  0  0  0  0  0999 V2000
    8.7210    1.5530   -0.9410 N   0  0  0  0  0  0  0  0  0  0  0  0
    7.6220    0.6690   -1.3090 C   0  0  0  0  0  0  0  0  0  0  0  0
    6.3250    1.2950   -0.9680 C   0  0  0  0  0  0  0  0  0  0  0  0
    5.7910    2.3710   -1.6680 C   0  0  0  0  0  0  0  0  0  0  0  0
    4.5910    2.6270   -1.0160 C   0  0  0  0  0  0  0  0  0  0  0  0
    4.4580    1.7250    0.0120 C   0  0  0  0  0  0  0  0  0  0  0  0
    3.3550    1.6120    0.9770 C   0  0  0  0  0  0  0  0  0  0  0  0
    2.8230    0.3860    1.3030 C   0  0  0  0  0  0  0  0  0  0  0  0
    1.7360    0.4070    2.2660 C   0  0  0  0  0  0  0  0  0  0  0  0
    0.4050    0.3790    2.2930 C   0  0  0  0  0  0  0  0  0  0  0  0
   -0.6470    0.3170    1.3430 C   0  0  0  0  0  0  0  0  0  0  0  0
   -1.5610   -0.4920    0.8400 C   0  0  0  0  0  0  0  0  0  0  0  0
   -2.4530    0.0860   -0.2370 C   0  0  0  0  0  0  0  0  0  0  0  0
   -3.4070   -0.5550   -0.8200 C   0  0  0  0  0  0  0  0  0  0  0  0
   -4.2440    0.0760   -1.8690 C   0  0  0  0  0  0  0  0  0  0  0  0
   -5.6480    0.1340   -1.4970 N   0  0  1  0  0  0  0  0  0  0  0  0
   -6.4570   -0.1290   -2.5480 O   0  0  0  0  0  0  0  0  0  0  0  0
   -5.9420   -0.7620   -0.4090 C   0  0  0  0  0  0  0  0  0  0  0  0
   -7.4080   -0.6010   -0.0620 C   0  0  0  0  0  0  0  0  0  0  0  0
   -7.5000    0.6500    0.5790 O   0  0  0  0  0  0  0  0  0  0  0  0
   -7.2790    1.5990   -0.4040 C   0  0  0  0  0  0  0  0  0  0  0  0
   -5.9540    1.4970   -1.0960 C   0  0  0  0  0  0  0  0  0  0  0  0
   -1.8780   -1.7960    1.1090 O   0  0  0  0  0  0  0  0  0  0  0  0
   -1.0960   -2.9780    1.2360 C   0  0  0  0  0  0  0  0  0  0  0  0
    0.3130   -2.6430    1.5750 C   0  0  0  0  0  0  0  0  0  0  0  0
    0.3940   -2.6220    2.8420 O   0  0  0  0  0  0  0  0  0  0  0  0
    1.4020   -2.3780    0.7910 N   0  0  0  0  0  0  0  0  0  0  0  0
    2.6490   -2.9990    0.4100 C   0  0  0  0  0  0  0  0  0  0  0  0
    3.7320   -1.9820    0.8150 C   0  0  0  0  0  0  0  0  0  0  0  0
    4.7370   -2.5750    1.2330 O   0  0  0  0  0  0  0  0  0  0  0  0
    3.4210   -0.6690    0.6530 O   0  0  0  0  0  0  0  0  0  0  0  0
    5.5060    0.9570    0.0040 O   0  0  0  0  0  0  0  0  0  0  0  0
  1  2  1  0
  2  3  1  0
  3  4  2  0
  3 32  1  0
  4  5  1  0
  5  6  2  0
  6  7  1  0
  6 32  1  0
  7  8  2  3
  8  9  1  0
  8 31  1  0
  9 10  2  0
 10 11  1  0
 11 12  2  0
 12 13  1  0
 12 23  1  0
 13 14  2  3
 14 15  1  0
 15 16  1  0
 16 17  1  6
 16 18  1  0
 16 22  1  0
 18 19  1  0
 19 20  1  0
 20 21  1  0
 21 22  1  0
 23 24  1  0
 24 25  1  0
 25 26  2  0
 25 27  1  0
 27 28  1  0
 28 29  1  0
 29 30  2  0
 29 31  1  0
M  CHG  3   1   1  16   1  17  -1
M  END
