
     RDKit          3D

 29 32  0  0  0  0  0  0  0  0999 V2000
    8.3690   -2.1810   -0.9520 C   0  0  0  0  0  0  0  0  0  0  0  0
    7.2460   -1.2300   -0.7490 C   0  0  0  0  0  0  0  0  0  0  0  0
    6.9690   -0.1310   -1.5110 N   0  0  0  0  0  0  0  0  0  0  0  0
    5.9150    0.4400   -1.0340 O   0  0  0  0  0  0  0  0  0  0  0  0
    5.4350   -0.1820    0.0090 C   0  0  0  0  0  0  0  0  0  0  0  0
    4.2700    0.1300    0.8270 C   0  0  0  0  0  0  0  0  0  0  0  0
    3.8680   -0.6080    1.9170 C   0  0  0  0  0  0  0  0  0  0  0  0
    2.7610   -0.0570    2.3990 N   0  0  0  0  0  0  0  0  0  0  0  0
    2.4040    1.0130    1.6850 N   0  0  0  0  0  0  0  0  0  0  0  0
    1.2300    1.7910    1.8950 C   0  0  0  0  0  0  0  0  0  0  0  0
    0.0480    1.3520    0.9680 C   0  0  1  0  0  0  0  0  0  0  0  0
   -0.1560   -0.0950    1.2820 C   0  0  0  0  0  0  0  0  0  0  0  0
   -0.6230   -1.0230    0.2580 C   0  0  0  0  0  0  0  0  0  0  0  0
   -1.9220   -1.4370   -0.0490 N   0  0  2  0  0  0  0  0  0  0  0  0
   -1.9220   -1.6700   -1.4790 C   0  0  0  0  0  0  0  0  0  0  0  0
   -3.0820   -1.6070   -2.3270 C   0  0  0  0  0  0  0  0  0  0  0  0
   -3.0080   -0.4220   -3.2520 C   0  0  0  0  0  0  0  0  0  0  0  0
   -2.4880    0.7840   -2.9080 C   0  0  0  0  0  0  0  0  0  0  0  0
   -1.8900    1.4580   -1.8380 C   0  0  0  0  0  0  0  0  0  0  0  0
   -2.4990    2.0300   -0.7540 C   0  0  0  0  0  0  0  0  0  0  0  0
   -4.0130    1.9660   -0.6120 C   0  0  0  0  0  0  0  0  0  0  0  0
   -4.6570    1.5170    0.4450 C   0  0  0  0  0  0  0  0  0  0  0  0
   -4.2390    0.9680    1.7390 C   0  0  0  0  0  0  0  0  0  0  0  0
   -3.1710   -0.0860    1.7120 C   0  0  0  0  0  0  0  0  0  0  0  0
   -3.0910   -0.9390    0.5250 C   0  0  0  0  0  0  0  0  0  0  0  0
   -1.7970    2.7650    0.3530 C   0  0  0  0  0  0  0  0  0  0  0  0
   -0.8530    2.2830    1.1280 O   0  0  0  0  0  0  0  0  0  0  0  0
    3.3410    1.1310    0.7110 C   0  0  0  0  0  0  0  0  0  0  0  0
    6.2850   -1.2450    0.1870 N   0  0  0  0  0  0  0  0  0  0  0  0
  1  2  1  0
  2  3  2  0
  2 29  1  0
  3  4  1  0
  4  5  1  0
  5  6  1  0
  5 29  2  0
  6  7  1  0
  6 28  2  0
  7  8  2  0
  8  9  1  0
  9 10  1  0
  9 28  1  0
 11 10  1  1
 11 12  1  0
 11 27  1  0
 12 13  1  0
 13 14  1  0
 14 15  1  6
 14 25  1  0
 15 16  1  0
 16 17  1  0
 17 18  2  0
 18 19  1  0
 19 20  2  0
 20 21  1  0
 20 26  1  0
 21 22  2  0
 22 23  1  0
 23 24  1  0
 24 25  1  0
 26 27  1  0
M  CHG  1  14   1
M  END
