
     RDKit          3D

 31 33  0  0  0  0  0  0  0  0999 V2000
    8.8120    0.0610   -1.0100 N   0  0  0  0  0  0  0  0  0  0  0  0
    7.6340   -0.7100   -0.7370 C   0  0  0  0  0  0  0  0  0  0  0  0
    7.7260   -1.9680   -0.8290 N   0  0  0  0  0  0  0  0  0  0  0  0
    6.4010   -0.0310   -0.3700 C   0  0  0  0  0  0  0  0  0  0  0  0
    6.4040    1.3730   -0.2980 C   0  0  0  0  0  0  0  0  0  0  0  0
    5.2560    2.0060    0.0430 C   0  0  0  0  0  0  0  0  0  0  0  0
    4.1030    1.2990    0.3160 C   0  0  0  0  0  0  0  0  0  0  0  0
    2.8760    2.0490    0.6860 C   0  0  0  0  0  0  0  0  0  0  0  0
    1.7320    1.2050    0.8740 N   0  0  0  0  0  0  0  0  0  0  0  0
    1.5960    0.4280    2.0440 C   0  0  0  0  0  0  0  0  0  0  0  0
    2.4860    0.4760    2.9210 O   0  0  0  0  0  0  0  0  0  0  0  0
    0.4230   -0.4530    2.2750 C   0  0  2  0  0  0  0  0  0  0  0  0
    0.6470   -1.9120    1.9710 C   0  0  0  0  0  0  0  0  0  0  0  0
    0.1000   -1.5500    0.6090 C   0  0  0  0  0  0  0  0  0  0  0  0
   -0.5730   -0.4250    1.2060 N   0  0  0  0  0  0  0  0  0  0  0  0
   -1.6830    0.4110    0.9690 C   0  0  0  0  0  0  0  0  0  0  0  0
   -1.9230    1.3440    1.7940 O   0  0  0  0  0  0  0  0  0  0  0  0
   -2.6170    0.3100   -0.1710 C   0  0  2  0  0  0  0  0  0  0  0  0
   -3.4630    1.4940   -0.2710 N   0  0  0  0  0  0  0  0  0  0  0  0
   -2.6340    2.6080   -0.7030 C   0  0  0  0  0  0  0  0  0  0  0  0
   -3.4620    3.8010   -0.9440 C   0  0  0  0  0  0  0  0  0  0  0  0
   -4.8540    3.7420   -0.7470 N   0  0  0  0  0  0  0  0  0  0  0  0
   -2.9310    4.8590   -1.3210 O   0  0  0  0  0  0  0  0  0  0  0  0
   -3.4600   -0.9420   -0.0850 C   0  0  2  0  0  0  0  0  0  0  0  0
   -4.4290   -1.0660   -1.2440 C   0  0  0  0  0  0  0  0  0  0  0  0
   -4.9710   -2.4830   -1.2850 C   0  0  0  0  0  0  0  0  0  0  0  0
   -5.2840   -3.0010    0.0940 C   0  0  0  0  0  0  0  0  0  0  0  0
   -5.4600   -1.8840    1.0880 C   0  0  0  0  0  0  0  0  0  0  0  0
   -4.1850   -1.0760    1.2330 C   0  0  0  0  0  0  0  0  0  0  0  0
    4.0890   -0.0680    0.2490 C   0  0  0  0  0  0  0  0  0  0  0  0
    5.2570   -0.7290   -0.0990 C   0  0  0  0  0  0  0  0  0  0  0  0
  1  2  1  0
  2  3  2  0
  2  4  1  0
  4  5  2  0
  4 31  1  0
  5  6  1  0
  6  7  2  0
  7  8  1  0
  7 30  1  0
  8  9  1  0
  9 10  1  0
 10 11  2  0
 12 10  1  6
 12 13  1  0
 12 15  1  0
 13 14  1  0
 14 15  1  0
 15 16  1  0
 16 17  2  0
 16 18  1  0
 18 19  1  1
 18 24  1  0
 19 20  1  0
 20 21  1  0
 21 22  1  0
 21 23  2  0
 24 25  1  6
 24 29  1  0
 25 26  1  0
 26 27  1  0
 27 28  1  0
 28 29  1  0
 30 31  2  0
M  CHG  2   3   1  19   1
M  END
