
     RDKit          3D

 29 33  0  0  0  0  0  0  0  0999 V2000
    2.0680   -2.8360   -0.0160 C   0  0  0  0  0  0  0  0  0  0  0  0
    2.7860   -1.7860    0.7410 C   0  0  0  0  0  0  0  0  0  0  0  0
    2.2480   -0.6520    1.0010 N   0  0  0  0  0  0  0  0  0  0  0  0
    0.9280   -0.3070    0.5910 C   0  0  0  0  0  0  0  0  0  0  0  0
    0.6600    0.7330   -0.1500 C   0  0  0  0  0  0  0  0  0  0  0  0
    1.5500    1.7380   -0.7130 C   0  0  0  0  0  0  0  0  0  0  0  0
    2.9610    1.7750   -0.5490 N   0  0  0  0  0  0  0  0  0  0  0  0
    4.1680    1.1820   -1.0740 C   0  0  0  0  0  0  0  0  0  0  0  0
    4.9940    2.3770   -0.5870 C   0  0  1  0  0  0  0  0  0  0  0  0
    5.0960    3.4870   -1.6100 C   0  0  0  0  0  0  0  0  0  0  0  0
    3.8160    2.5510    0.3500 C   0  0  0  0  0  0  0  0  0  0  0  0
    0.7850    2.5490   -1.3650 N   0  0  0  0  0  0  0  0  0  0  0  0
   -0.5420    2.1770   -1.2900 N   0  0  0  0  0  0  0  0  0  0  0  0
   -0.6990    1.1110   -0.5880 C   0  0  0  0  0  0  0  0  0  0  0  0
   -1.8840    0.3950   -0.2610 N   0  0  0  0  0  0  0  0  0  0  0  0
   -2.0460   -1.0010   -0.5010 C   0  0  0  0  0  0  0  0  0  0  0  0
   -3.2220   -1.2570   -1.4230 C   0  0  0  0  0  0  0  0  0  0  0  0
   -4.2660   -0.1670   -1.2920 C   0  0  0  0  0  0  0  0  0  0  0  0
   -4.2410    0.2790    0.1700 C   0  0  2  0  0  0  0  0  0  0  0  0
   -3.0090    1.1140    0.3560 C   0  0  0  0  0  0  0  0  0  0  0  0
   -4.2740   -0.7820    1.0420 O   0  0  0  0  0  0  0  0  0  0  0  0
   -5.6020   -1.1740    1.1180 C   0  0  0  0  0  0  0  0  0  0  0  0
   -6.3450    0.1200    0.8520 C   0  0  2  0  0  0  0  0  0  0  0  0
   -7.4170   -0.0630   -0.2100 C   0  0  0  0  0  0  0  0  0  0  0  0
   -5.3920    1.0340    0.4610 O   0  0  0  0  0  0  0  0  0  0  0  0
    4.1400   -2.0860    1.1850 C   0  0  0  0  0  0  0  0  0  0  0  0
    5.0710   -1.4050    1.8720 C   0  0  0  0  0  0  0  0  0  0  0  0
    6.0000   -2.5190    1.7850 C   0  0  0  0  0  0  0  0  0  0  0  0
    5.0930   -3.1860    1.1140 C   0  0  0  0  0  0  0  0  0  0  0  0
  1  2  1  0
  2  3  2  3
  2 26  1  0
  3  4  1  0
  4  5  2  3
  5  6  1  0
  5 14  1  0
  6  7  1  0
  6 12  2  0
  7  8  1  0
  7 11  1  0
  8  9  1  0
  9 10  1  6
  9 11  1  0
 12 13  1  0
 13 14  2  0
 14 15  1  0
 15 16  1  0
 15 20  1  0
 16 17  1  0
 17 18  1  0
 19 18  1  6
 19 20  1  0
 19 21  1  0
 19 25  1  0
 21 22  1  0
 22 23  1  0
 23 24  1  6
 23 25  1  0
 26 27  2  0
 26 29  1  0
 27 28  1  0
 28 29  2  0
M  CHG  1   3   1
M  END
