
     RDKit          3D

 30 33  0  0  0  0  0  0  0  0999 V2000
   -1.4370   -1.3630   -2.1960 C   0  0  0  0  0  0  0  0  0  0  0  0
   -1.0280   -1.6120   -0.8060 C   0  0  0  0  0  0  0  0  0  0  0  0
   -0.7060   -0.4950    0.0220 N   0  0  1  0  0  0  0  0  0  0  0  0
   -0.0100    0.5690   -0.6150 C   0  0  0  0  0  0  0  0  0  0  0  0
    1.4920    0.4560   -0.5540 C   0  0  0  0  0  0  0  0  0  0  0  0
    2.0460    0.4670    0.8150 C   0  0  0  0  0  0  0  0  0  0  0  0
    1.3180    0.6120    1.8100 O   0  0  0  0  0  0  0  0  0  0  0  0
    3.5030    0.2960    0.9250 C   0  0  0  0  0  0  0  0  0  0  0  0
    4.3100    0.1350   -0.1740 C   0  0  0  0  0  0  0  0  0  0  0  0
    5.6740   -0.0250   -0.0550 C   0  0  0  0  0  0  0  0  0  0  0  0
    6.4650   -0.1860   -1.1920 C   0  0  0  0  0  0  0  0  0  0  0  0
    7.8180   -0.3460   -1.0790 C   0  0  0  0  0  0  0  0  0  0  0  0
    8.4220   -0.3490    0.1540 C   0  0  0  0  0  0  0  0  0  0  0  0
    9.8930   -0.5180    0.3370 C   0  0  0  0  0  0  0  0  0  0  0  0
    7.6640   -0.1910    1.2980 C   0  0  0  0  0  0  0  0  0  0  0  0
    6.2960   -0.0310    1.1760 C   0  0  0  0  0  0  0  0  0  0  0  0
    5.4810    0.1320    2.2780 C   0  0  0  0  0  0  0  0  0  0  0  0
    4.1170    0.2920    2.1720 C   0  0  0  0  0  0  0  0  0  0  0  0
    3.3340    0.4520    3.3010 O   0  0  0  0  0  0  0  0  0  0  0  0
   -1.7900    0.0220    0.8230 C   0  0  0  0  0  0  0  0  0  0  0  0
   -3.0400    0.3590    0.1050 C   0  0  2  0  0  0  0  0  0  0  0  0
   -3.9980    0.9890    1.1170 C   0  0  0  0  0  0  0  0  0  0  0  0
   -5.3320    0.8890    0.5780 N   0  0  0  0  0  0  0  0  0  0  0  0
   -5.5240    1.6200   -0.6400 C   0  0  0  0  0  0  0  0  0  0  0  0
   -7.0250    1.7450   -0.8870 C   0  0  0  0  0  0  0  0  0  0  0  0
   -7.5940    0.3510   -1.0230 C   0  0  0  0  0  0  0  0  0  0  0  0
   -6.5040   -0.6920   -0.8770 C   0  0  0  0  0  0  0  0  0  0  0  0
   -5.7250   -0.4900    0.4050 C   0  0  1  0  0  0  0  0  0  0  0  0
   -4.4890   -1.3610    0.3300 C   0  0  0  0  0  0  0  0  0  0  0  0
   -3.5690   -0.7470   -0.5040 O   0  0  0  0  0  0  0  0  0  0  0  0
  1  2  1  0
  3  2  1  6
  3  4  1  0
  3 20  1  0
  4  5  1  0
  5  6  1  0
  6  7  2  0
  6  8  1  0
  8  9  2  0
  8 18  1  0
  9 10  1  0
 10 11  2  0
 10 16  1  0
 11 12  1  0
 12 13  2  0
 13 14  1  0
 13 15  1  0
 15 16  2  0
 16 17  1  0
 17 18  2  0
 18 19  1  0
 21 20  1  1
 21 22  1  0
 21 30  1  0
 22 23  1  0
 23 24  1  0
 23 28  1  0
 24 25  1  0
 25 26  1  0
 26 27  1  0
 28 27  1  6
 28 29  1  0
 29 30  1  0
M  CHG  1   3   1
M  END
