
     RDKit          3D

 32 34  0  0  0  0  0  0  0  0999 V2000
   -2.4050    0.7820   -2.6680 C   0  0  0  0  0  0  0  0  0  0  0  0
   -3.0620    1.1600   -1.5560 C   0  0  0  0  0  0  0  0  0  0  0  0
   -4.1870    2.0350   -1.6480 C   0  0  0  0  0  0  0  0  0  0  0  0
   -4.9980    2.5220   -0.7500 C   0  0  0  0  0  0  0  0  0  0  0  0
   -5.0940    2.3750    0.6730 C   0  0  0  0  0  0  0  0  0  0  0  0
   -6.1250    3.1190    1.1140 C   0  0  0  0  0  0  0  0  0  0  0  0
   -6.7420    3.7800   -0.0140 C   0  0  0  0  0  0  0  0  0  0  0  0
   -6.1110    3.4540   -1.1160 C   0  0  0  0  0  0  0  0  0  0  0  0
   -6.4510    3.9350   -2.4800 C   0  0  0  0  0  0  0  0  0  0  0  0
   -2.5340    0.6040   -0.3060 C   0  0  0  0  0  0  0  0  0  0  0  0
   -1.7600    1.6100    0.5220 C   0  0  2  0  0  0  0  0  0  0  0  0
   -0.6140    2.0360   -0.3680 C   0  0  0  0  0  0  0  0  0  0  0  0
   -0.5440    3.2170   -0.7930 O   0  0  0  0  0  0  0  0  0  0  0  0
    0.3950    1.1120   -0.7360 N   0  0  0  0  0  0  0  0  0  0  0  0
    0.6510    0.0020    0.1050 C   0  0  0  0  0  0  0  0  0  0  0  0
    1.5680   -0.9330   -0.1260 C   0  0  0  0  0  0  0  0  0  0  0  0
    2.4470   -0.9710   -1.2650 C   0  0  0  0  0  0  0  0  0  0  0  0
    3.3250   -1.8940   -1.4600 C   0  0  0  0  0  0  0  0  0  0  0  0
    3.5700   -3.0140   -0.5980 C   0  0  0  0  0  0  0  0  0  0  0  0
    4.9490   -3.0770   -0.0460 C   0  0  0  0  0  0  0  0  0  0  0  0
    5.1970   -3.0520    1.2510 C   0  0  0  0  0  0  0  0  0  0  0  0
    4.1590   -2.9590    2.3410 C   0  0  0  0  0  0  0  0  0  0  0  0
    6.6640   -3.1300    1.4730 C   0  0  0  0  0  0  0  0  0  0  0  0
    7.1900   -3.2010    0.1470 N   0  0  0  0  0  0  0  0  0  0  0  0
    6.2190   -3.1710   -0.7060 C   0  0  0  0  0  0  0  0  0  0  0  0
    6.3990   -3.2260   -2.1780 C   0  0  0  0  0  0  0  0  0  0  0  0
   -0.1810   -0.0910    1.3210 C   0  0  0  0  0  0  0  0  0  0  0  0
    0.0010   -1.0640    2.1180 O   0  0  0  0  0  0  0  0  0  0  0  0
   -1.1770    0.8740    1.6250 N   0  0  0  0  0  0  0  0  0  0  0  0
   -1.5990    1.1210    2.9540 C   0  0  0  0  0  0  0  0  0  0  0  0
   -1.0630    0.4320    4.0630 N   0  0  0  0  0  0  0  0  0  0  0  0
   -2.4910    1.9850    3.2240 O   0  0  0  0  0  0  0  0  0  0  0  0
  1  2  2  0
  2  3  1  0
  2 10  1  0
  3  4  2  3
  4  5  1  0
  4  8  1  0
  5  6  2  0
  6  7  1  0
  7  8  2  0
  8  9  1  0
 11 10  1  6
 11 12  1  0
 11 29  1  0
 12 13  2  0
 12 14  1  0
 14 15  1  0
 15 16  2  3
 15 27  1  0
 16 17  1  0
 17 18  2  3
 18 19  1  0
 19 20  1  0
 20 21  2  0
 20 25  1  0
 21 22  1  0
 21 23  1  0
 23 24  1  0
 24 25  2  0
 25 26  1  0
 27 28  2  0
 27 29  1  0
 29 30  1  0
 30 31  1  0
 30 32  2  0
M  END
