
     RDKit          3D

 33 36  0  0  0  0  0  0  0  0999 V2000
   -2.5970    0.0760   -1.7320 C   0  0  0  0  0  0  0  0  0  0  0  0
   -1.9060   -0.7480   -0.7670 N   0  0  0  0  0  0  0  0  0  0  0  0
   -0.7120   -1.3450   -0.8840 C   0  0  0  0  0  0  0  0  0  0  0  0
    0.1910   -1.2550   -1.9810 N   0  0  0  0  0  0  0  0  0  0  0  0
   -0.0770   -0.5240   -3.1770 C   0  0  0  0  0  0  0  0  0  0  0  0
    1.1930   -0.2170   -3.9250 C   0  0  0  0  0  0  0  0  0  0  0  0
    1.3380   -0.2120   -5.2740 C   0  0  0  0  0  0  0  0  0  0  0  0
    2.5220    0.1640   -5.8890 C   0  0  0  0  0  0  0  0  0  0  0  0
    3.5990    0.5450   -5.1410 C   0  0  0  0  0  0  0  0  0  0  0  0
    5.1160    1.0500   -5.9180 Cl  0  0  0  0  0  0  0  0  0  0  0  0
    3.4940    0.5500   -3.7400 C   0  0  0  0  0  0  0  0  0  0  0  0
    4.6340    1.0200   -3.0420 N   0  0  0  0  0  0  0  0  0  0  0  0
    4.8290    0.8950   -1.6410 C   0  0  0  0  0  0  0  0  0  0  0  0
    4.0330    0.2940   -0.9300 O   0  0  0  0  0  0  0  0  0  0  0  0
    5.9690    1.4790   -0.9890 N   0  0  0  0  0  0  0  0  0  0  0  0
    6.1410    1.3180    0.4540 C   0  0  0  0  0  0  0  0  0  0  0  0
    5.0180    1.8010    1.1310 C   0  0  0  0  0  0  0  0  0  0  0  0
    4.0060    2.2150    1.7390 N   0  0  0  0  0  0  0  0  0  0  0  0
    2.3070    0.1730   -3.1750 C   0  0  0  0  0  0  0  0  0  0  0  0
   -0.4690   -2.0400    0.2660 N   0  0  0  0  0  0  0  0  0  0  0  0
   -1.5060   -1.8810    1.1230 C   0  0  0  0  0  0  0  0  0  0  0  0
   -2.3850   -1.0800    0.4800 C   0  0  0  0  0  0  0  0  0  0  0  0
   -3.6350   -0.5890    1.0780 C   0  0  0  0  0  0  0  0  0  0  0  0
   -3.9270   -1.3120    2.3550 C   0  0  0  0  0  0  0  0  0  0  0  0
   -2.7310   -1.4600    3.1360 N   0  0  0  0  0  0  0  0  0  0  0  0
   -2.3890   -0.7850    4.2660 C   0  0  0  0  0  0  0  0  0  0  0  0
   -1.3010   -1.2040    4.8720 O   0  0  0  0  0  0  0  0  0  0  0  0
   -3.0240    0.3240    4.9080 C   0  0  0  0  0  0  0  0  0  0  0  0
   -4.0370    1.1430    4.6520 C   0  0  0  0  0  0  0  0  0  0  0  0
   -4.4510    2.0920    5.5120 C   0  0  0  0  0  0  0  0  0  0  0  0
   -3.7470    2.1820    6.7150 C   0  0  0  0  0  0  0  0  0  0  0  0
   -2.5180    0.9020    6.5830 S   0  0  0  0  0  0  0  0  0  0  0  0
   -1.7330   -2.4160    2.5260 C   0  0  0  0  0  0  0  0  0  0  0  0
  1  2  1  0
  2  3  1  0
  2 22  1  0
  3  4  1  0
  3 20  2  0
  4  5  1  0
  5  6  1  0
  6  7  2  0
  6 19  1  0
  7  8  1  0
  8  9  2  0
  9 10  1  0
  9 11  1  0
 11 12  1  0
 11 19  2  0
 12 13  1  0
 13 14  2  0
 13 15  1  0
 15 16  1  0
 16 17  1  0
 17 18  3  0
 20 21  1  0
 21 22  2  0
 21 33  1  0
 22 23  1  0
 23 24  1  0
 24 25  1  0
 25 26  1  0
 25 33  1  0
 26 27  2  0
 26 28  1  0
 28 29  2  0
 28 32  1  0
 29 30  1  0
 30 31  2  0
 31 32  1  0
M  CHG  1  20   1
M  END
