
     RDKit          3D

 33 36  0  0  0  0  0  0  0  0999 V2000
    7.9160    1.0120    3.0630 C   0  0  0  0  0  0  0  0  0  0  0  0
    6.9490    2.0840    2.6330 C   0  0  0  0  0  0  0  0  0  0  0  0
    6.0950    1.6450    1.5940 O   0  0  0  0  0  0  0  0  0  0  0  0
    6.5570    1.2180    0.3650 C   0  0  0  0  0  0  0  0  0  0  0  0
    7.7820    1.2130    0.1450 O   0  0  0  0  0  0  0  0  0  0  0  0
    5.6200    0.7800   -0.6600 C   0  0  0  0  0  0  0  0  0  0  0  0
    6.1420    0.3640   -1.8710 C   0  0  0  0  0  0  0  0  0  0  0  0
    5.2840   -0.0490   -2.8410 C   0  0  0  0  0  0  0  0  0  0  0  0
    3.9120   -0.0390   -2.5810 C   0  0  0  0  0  0  0  0  0  0  0  0
    3.3760    0.3660   -1.3900 C   0  0  0  0  0  0  0  0  0  0  0  0
    2.0170    0.3340   -1.0320 N   0  0  0  0  0  0  0  0  0  0  0  0
    1.0010   -0.3800   -1.6970 C   0  0  0  0  0  0  0  0  0  0  0  0
    1.2950   -1.5210   -2.4180 C   0  0  0  0  0  0  0  0  0  0  0  0
    0.3040   -2.2690   -3.0530 C   0  0  0  0  0  0  0  0  0  0  0  0
   -1.0100   -1.8800   -2.9690 C   0  0  0  0  0  0  0  0  0  0  0  0
   -2.1060   -2.6480   -3.6340 C   0  0  0  0  0  0  0  0  0  0  0  0
   -1.2690   -0.7490   -2.2460 C   0  0  0  0  0  0  0  0  0  0  0  0
   -0.3390    0.0240   -1.6030 C   0  0  0  0  0  0  0  0  0  0  0  0
   -0.7900    1.1790   -0.8350 C   0  0  0  0  0  0  0  0  0  0  0  0
   -1.0200    1.0750    0.5970 C   0  0  0  0  0  0  0  0  0  0  0  0
   -1.9790    0.1610    1.2180 C   0  0  2  0  0  0  0  0  0  0  0  0
   -1.7860    0.4410    2.6320 O   0  0  0  0  0  0  0  0  0  0  0  0
   -1.5930   -1.3050    1.1430 C   0  0  0  0  0  0  0  0  0  0  0  0
   -2.0040   -1.9840    2.4470 C   0  0  0  0  0  0  0  0  0  0  0  0
   -3.3430   -1.4660    2.9290 C   0  0  0  0  0  0  0  0  0  0  0  0
   -4.0870   -0.7890    1.8280 C   0  0  0  0  0  0  0  0  0  0  0  0
   -5.2700   -1.3450    1.6520 C   0  0  0  0  0  0  0  0  0  0  0  0
   -6.3210   -1.0620    0.7460 N   0  0  0  0  0  0  0  0  0  0  0  0
   -6.4410    0.0270   -0.1680 C   0  0  0  0  0  0  0  0  0  0  0  0
   -5.3960    1.0640    0.0820 C   0  0  0  0  0  0  0  0  0  0  0  0
   -4.0680    0.4470   -0.1440 N   0  0  0  0  0  0  0  0  0  0  0  0
   -3.4340    0.3670    1.0980 C   0  0  2  0  0  0  0  0  0  0  0  0
    4.2970    0.7720   -0.4510 N   0  0  0  0  0  0  0  0  0  0  0  0
  1  2  1  0
  2  3  1  0
  3  4  1  0
  4  5  2  0
  4  6  1  0
  6  7  2  0
  6 33  1  0
  7  8  1  0
  8  9  2  0
  9 10  1  0
 10 11  1  0
 10 33  2  0
 11 12  1  0
 12 13  2  0
 12 18  1  0
 13 14  1  0
 14 15  2  0
 15 16  1  0
 15 17  1  0
 17 18  2  0
 18 19  1  0
 19 20  1  0
 20 21  1  0
 21 22  1  1
 21 23  1  0
 21 32  1  0
 23 24  1  0
 24 25  1  0
 25 26  1  0
 26 27  2  0
 26 32  1  0
 27 28  1  0
 28 29  1  0
 29 30  1  0
 30 31  1  0
 32 31  1  6
M  CHG  1  31   1
M  END
