
     RDKit          3D

 33 35  0  0  0  0  0  0  0  0999 V2000
    3.1250   -1.4560    3.1430 C   0  0  0  0  0  0  0  0  0  0  0  0
    2.5650   -0.3590    2.6280 C   0  0  0  0  0  0  0  0  0  0  0  0
    1.3490   -0.2600    1.8450 C   0  0  0  0  0  0  0  0  0  0  0  0
    1.4650    0.3930    0.4980 N   0  0  0  0  0  0  0  0  0  0  0  0
    1.3050    1.7880    0.6000 C   0  0  0  0  0  0  0  0  0  0  0  0
    1.4560    2.3310    1.8100 O   0  0  0  0  0  0  0  0  0  0  0  0
    0.9990    2.8860   -0.3160 C   0  0  0  0  0  0  0  0  0  0  0  0
    0.0030    3.7290    0.0930 O   0  0  0  0  0  0  0  0  0  0  0  0
   -1.3260    3.8620    0.1330 C   0  0  0  0  0  0  0  0  0  0  0  0
   -1.7870    5.1010   -0.3690 C   0  0  0  0  0  0  0  0  0  0  0  0
   -3.1070    5.4670   -0.4310 C   0  0  0  0  0  0  0  0  0  0  0  0
   -4.0610    4.5860    0.0180 C   0  0  0  0  0  0  0  0  0  0  0  0
   -3.6350    3.3740    0.5110 C   0  0  0  0  0  0  0  0  0  0  0  0
   -2.2910    3.0180    0.5680 C   0  0  0  0  0  0  0  0  0  0  0  0
   -2.1100    1.6390    1.1720 C   0  0  0  0  0  0  0  0  0  0  0  0
   -2.3630    0.6390    0.0930 C   0  0  2  0  0  0  0  0  0  0  0  0
   -2.0420   -0.7660    0.2610 C   0  0  0  0  0  0  0  0  0  0  0  0
   -2.7290   -1.5080    1.3650 C   0  0  1  0  0  0  0  0  0  0  0  0
   -2.2760   -2.9830    1.3510 C   0  0  0  0  0  0  0  0  0  0  0  0
   -2.6140   -0.9720    2.6790 N   0  0  0  0  0  0  0  0  0  0  0  0
   -1.9570    1.2360   -1.1470 N   0  0  0  0  0  0  0  0  0  0  0  0
   -1.1670    0.8500   -2.2080 C   0  0  0  0  0  0  0  0  0  0  0  0
   -1.9480    1.0190   -3.3150 O   0  0  0  0  0  0  0  0  0  0  0  0
    0.0890    0.3790   -2.4910 N   0  0  0  0  0  0  0  0  0  0  0  0
    1.1150   -0.4270   -1.8950 C   0  0  0  0  0  0  0  0  0  0  0  0
    1.5980   -1.3900   -2.8030 C   0  0  0  0  0  0  0  0  0  0  0  0
    2.5910   -2.3370   -2.5830 C   0  0  0  0  0  0  0  0  0  0  0  0
    2.9170   -3.1510   -3.5750 C   0  0  0  0  0  0  0  0  0  0  0  0
    3.1660   -2.3410   -1.3560 C   0  0  0  0  0  0  0  0  0  0  0  0
    4.0730   -3.1780   -0.9670 C   0  0  0  0  0  0  0  0  0  0  0  0
    4.7010   -4.2790   -1.6630 C   0  0  0  0  0  0  0  0  0  0  0  0
    2.6970   -1.3810   -0.4310 C   0  0  0  0  0  0  0  0  0  0  0  0
    1.6980   -0.4340   -0.6660 C   0  0  0  0  0  0  0  0  0  0  0  0
  1  2  2  0
  2  3  1  0
  3  4  1  0
  4  5  1  0
  4 33  1  0
  5  6  2  0
  5  7  1  0
  7  8  1  0
  8  9  1  0
  9 10  2  0
  9 14  1  0
 10 11  1  0
 11 12  2  0
 12 13  1  0
 13 14  2  0
 14 15  1  0
 15 16  1  0
 16 17  1  1
 16 21  1  0
 17 18  1  0
 18 19  1  1
 18 20  1  0
 21 22  1  0
 22 23  2  0
 22 24  1  0
 24 25  1  0
 25 26  2  0
 25 33  1  0
 26 27  1  0
 27 28  2  0
 27 29  1  0
 29 30  2  3
 29 32  1  0
 30 31  1  0
 32 33  2  0
M  CHG  1  20   1
M  END
