
     RDKit          3D

 33 35  0  0  0  0  0  0  0  0999 V2000
    9.8810    0.0630   -0.8250 C   0  0  0  0  0  0  0  0  0  0  0  0
    9.0270    1.3010   -0.5570 C   0  0  0  0  0  0  0  0  0  0  0  0
    7.6210    0.8940   -0.7430 C   0  0  0  0  0  0  0  0  0  0  0  0
    6.7570    0.9980    0.2590 C   0  0  0  0  0  0  0  0  0  0  0  0
    5.3670    0.6100    0.1200 C   0  0  0  0  0  0  0  0  0  0  0  0
    4.9900    0.1610   -1.0000 O   0  0  0  0  0  0  0  0  0  0  0  0
    4.4500    0.7380    1.2400 C   0  0  0  0  0  0  0  0  0  0  0  0
    4.8130    1.2190    2.4700 C   0  0  0  0  0  0  0  0  0  0  0  0
    3.8900    1.3230    3.5170 C   0  0  0  0  0  0  0  0  0  0  0  0
    2.5990    0.9270    3.2780 C   0  0  0  0  0  0  0  0  0  0  0  0
    1.5860    1.0260    4.3780 C   0  0  0  0  0  0  0  0  0  0  0  0
    2.1580    0.4290    2.0520 C   0  0  0  0  0  0  0  0  0  0  0  0
    0.8020    0.0510    1.9180 N   0  0  0  0  0  0  0  0  0  0  0  0
    0.1580   -0.4680    0.7860 C   0  0  0  0  0  0  0  0  0  0  0  0
    0.8120   -0.6390   -0.2640 O   0  0  0  0  0  0  0  0  0  0  0  0
   -1.2560   -0.8260    0.7580 C   0  0  0  0  0  0  0  0  0  0  0  0
   -2.0800   -0.6980    1.8100 N   0  0  0  0  0  0  0  0  0  0  0  0
   -3.3230   -1.1220    1.4380 C   0  0  0  0  0  0  0  0  0  0  0  0
   -4.5220   -1.1410    2.3160 C   0  0  0  0  0  0  0  0  0  0  0  0
   -3.2790   -1.5330    0.1030 C   0  0  0  0  0  0  0  0  0  0  0  0
   -4.4040   -2.0590   -0.6820 C   0  0  0  0  0  0  0  0  0  0  0  0
   -5.3620   -0.9740   -1.1210 C   0  0  2  0  0  0  0  0  0  0  0  0
   -6.5050   -1.5510   -1.9240 C   0  0  0  0  0  0  0  0  0  0  0  0
   -7.8340   -0.9810   -1.4650 C   0  0  0  0  0  0  0  0  0  0  0  0
   -8.0170    0.2860   -2.1070 N   0  0  0  0  0  0  0  0  0  0  0  0
   -6.8750    1.1500   -1.9230 C   0  0  0  0  0  0  0  0  0  0  0  0
   -5.7330    0.7620   -2.7140 N   0  0  0  0  0  0  0  0  0  0  0  0
   -4.7030    0.1030   -1.9140 C   0  0  0  0  0  0  0  0  0  0  0  0
   -1.9740   -1.3350   -0.2910 C   0  0  0  0  0  0  0  0  0  0  0  0
   -1.4170   -1.6200   -1.6290 C   0  0  0  0  0  0  0  0  0  0  0  0
    3.1020    0.3510    1.0710 C   0  0  0  0  0  0  0  0  0  0  0  0
    7.1620    0.3970   -1.9510 O   0  0  0  0  0  0  0  0  0  0  0  0
    7.0340    1.2590   -3.0740 C   0  0  0  0  0  0  0  0  0  0  0  0
  1  2  1  0
  2  3  1  0
  3  4  2  3
  3 32  1  0
  4  5  1  0
  5  6  2  0
  5  7  1  0
  7  8  2  0
  7 31  1  0
  8  9  1  0
  9 10  2  0
 10 11  1  0
 10 12  1  0
 12 13  1  0
 12 31  2  0
 13 14  1  0
 14 15  2  0
 14 16  1  0
 16 17  1  0
 16 29  2  0
 17 18  1  0
 18 19  1  0
 18 20  2  0
 20 21  1  0
 20 29  1  0
 22 21  1  6
 22 23  1  0
 22 28  1  0
 23 24  1  0
 24 25  1  0
 25 26  1  0
 26 27  1  0
 27 28  1  0
 29 30  1  0
 32 33  1  0
M  CHG  1  25   1
M  END
