
     RDKit          3D

 33 36  0  0  0  0  0  0  0  0999 V2000
   -8.7750    1.8480   -0.8570 C   0  0  0  0  0  0  0  0  0  0  0  0
   -7.4490    1.2060   -0.6590 C   0  0  0  0  0  0  0  0  0  0  0  0
   -7.0980    0.0550   -1.3570 C   0  0  0  0  0  0  0  0  0  0  0  0
   -5.8610   -0.5190   -1.1560 C   0  0  0  0  0  0  0  0  0  0  0  0
   -5.5110   -1.7470   -1.9100 C   0  0  0  0  0  0  0  0  0  0  0  0
   -4.9660    0.0390   -0.2680 C   0  0  0  0  0  0  0  0  0  0  0  0
   -5.2880    1.1870    0.4420 C   0  0  0  0  0  0  0  0  0  0  0  0
   -4.3510    1.8150    1.4070 C   0  0  0  0  0  0  0  0  0  0  0  0
   -3.0670    1.0770    1.3950 N   0  0  0  0  0  0  0  0  0  0  0  0
   -2.1530    1.2520    0.3430 C   0  0  0  0  0  0  0  0  0  0  0  0
   -2.4770    2.0630   -0.5580 O   0  0  0  0  0  0  0  0  0  0  0  0
   -0.8840    0.5560    0.2660 C   0  0  0  0  0  0  0  0  0  0  0  0
    0.2440    1.1190   -0.2530 C   0  0  0  0  0  0  0  0  0  0  0  0
    0.3900    2.5000   -0.7570 C   0  0  0  0  0  0  0  0  0  0  0  0
    1.2910    0.1660   -0.2290 C   0  0  0  0  0  0  0  0  0  0  0  0
    2.6260    0.4540   -0.6470 C   0  0  0  0  0  0  0  0  0  0  0  0
    2.7860    1.7880   -0.9420 O   0  0  0  0  0  0  0  0  0  0  0  0
    3.8210   -0.1870   -0.8520 N   0  0  0  0  0  0  0  0  0  0  0  0
    4.2470   -1.5370   -0.7610 C   0  0  0  0  0  0  0  0  0  0  0  0
    5.0400   -1.6290    0.5600 C   0  0  0  0  0  0  0  0  0  0  0  0
    6.3020   -0.8240    0.3450 C   0  0  0  0  0  0  0  0  0  0  0  0
    6.0590    0.5640   -0.1790 C   0  0  1  0  0  0  0  0  0  0  0  0
    7.3540    1.0450   -0.7270 C   0  0  0  0  0  0  0  0  0  0  0  0
    8.4870    1.1540    0.1260 N   0  0  0  0  0  0  0  0  0  0  0  0
    7.4760    1.3510   -1.8950 O   0  0  0  0  0  0  0  0  0  0  0  0
    5.0260    0.6840   -1.2350 C   0  0  0  0  0  0  0  0  0  0  0  0
    0.7610   -0.9800    0.3130 N   0  0  0  0  0  0  0  0  0  0  0  0
   -0.5300   -0.7370    0.6060 C   0  0  0  0  0  0  0  0  0  0  0  0
   -1.3310   -1.7550    1.2730 C   0  0  0  0  0  0  0  0  0  0  0  0
   -0.8370   -2.9180    1.6260 C   0  0  0  0  0  0  0  0  0  0  0  0
    0.5520   -3.2290    1.3670 C   0  0  0  0  0  0  0  0  0  0  0  0
    1.2860   -2.2880    0.5240 C   0  0  0  0  0  0  0  0  0  0  0  0
   -6.5310    1.7440    0.2260 C   0  0  0  0  0  0  0  0  0  0  0  0
  1  2  1  0
  2  3  2  0
  2 33  1  0
  3  4  1  0
  4  5  1  0
  4  6  2  0
  6  7  1  0
  7  8  1  0
  7 33  2  0
  8  9  1  0
  9 10  1  0
 10 11  2  0
 10 12  1  0
 12 13  1  0
 12 28  2  0
 13 14  1  0
 13 15  2  0
 15 16  1  0
 15 27  1  0
 16 17  2  0
 16 18  1  0
 18 19  1  0
 18 26  1  0
 19 20  1  0
 20 21  1  0
 21 22  1  0
 22 23  1  6
 22 26  1  0
 23 24  1  0
 23 25  2  0
 27 28  1  0
 27 32  1  0
 28 29  1  0
 29 30  2  0
 30 31  1  0
 31 32  1  0
M  CHG  1  24   1
M  END
