
     RDKit          3D

 33 35  0  0  0  0  0  0  0  0999 V2000
   -7.2650   -0.3290   -1.0640 C   0  0  0  0  0  0  0  0  0  0  0  0
   -6.6140   -1.4590   -1.0090 C   0  0  0  0  0  0  0  0  0  0  0  0
   -7.5520   -2.9080   -1.4170 Cl  0  0  0  0  0  0  0  0  0  0  0  0
   -5.2320   -1.5790   -0.6320 C   0  0  0  0  0  0  0  0  0  0  0  0
   -4.5960   -2.7320   -0.5990 C   0  0  0  0  0  0  0  0  0  0  0  0
   -5.2010   -4.0140   -0.9430 C   0  0  0  0  0  0  0  0  0  0  0  0
   -4.4840   -0.3680   -0.3540 N   0  0  0  0  0  0  0  0  0  0  0  0
   -5.0590    0.7610    0.0770 N   0  0  0  0  0  0  0  0  0  0  0  0
   -4.1610    1.7420    0.2170 C   0  0  0  0  0  0  0  0  0  0  0  0
   -4.3250    3.0830    0.6420 N   0  0  0  0  0  0  0  0  0  0  0  0
   -5.6610    3.5620    1.0100 C   0  0  0  0  0  0  0  0  0  0  0  0
   -5.6210    5.0030    1.4290 C   0  0  0  0  0  0  0  0  0  0  0  0
   -2.9640    1.1800   -0.1520 C   0  0  0  0  0  0  0  0  0  0  0  0
   -3.1980   -0.1680   -0.5150 C   0  0  0  0  0  0  0  0  0  0  0  0
   -2.1410   -0.9740   -0.9920 N   0  0  0  0  0  0  0  0  0  0  0  0
   -1.1830   -1.1940    0.0600 C   0  0  0  0  0  0  0  0  0  0  0  0
    0.0670   -0.3350   -0.1820 C   0  0  0  0  0  0  0  0  0  0  0  0
    1.2460   -1.0860   -0.2040 C   0  0  0  0  0  0  0  0  0  0  0  0
    0.8990   -2.4190   -0.2080 O   0  0  0  0  0  0  0  0  0  0  0  0
    2.6330   -0.9950   -0.2220 N   0  0  0  0  0  0  0  0  0  0  0  0
    3.3530   -2.2830   -0.4070 C   0  0  0  0  0  0  0  0  0  0  0  0
    4.4940   -2.1490   -1.3870 C   0  0  0  0  0  0  0  0  0  0  0  0
    5.3670   -0.9570   -1.0120 C   0  0  0  0  0  0  0  0  0  0  0  0
    4.8870   -0.3710    0.2960 C   0  0  1  0  0  0  0  0  0  0  0  0
    5.7200    0.7660    0.6960 C   0  0  0  0  0  0  0  0  0  0  0  0
    5.1810    1.9270    0.6710 O   0  0  0  0  0  0  0  0  0  0  0  0
    7.0620    0.6820    1.1020 N   0  0  0  0  0  0  0  0  0  0  0  0
    7.7270   -0.5980    1.1690 C   0  0  0  0  0  0  0  0  0  0  0  0
    7.7860    1.8770    1.4540 C   0  0  0  0  0  0  0  0  0  0  0  0
    3.4410    0.1530   -0.0070 C   0  0  0  0  0  0  0  0  0  0  0  0
   -0.0020    0.9520   -0.2650 C   0  0  0  0  0  0  0  0  0  0  0  0
    1.1570    1.7240   -0.4970 N   0  0  0  0  0  0  0  0  0  0  0  0
   -1.4420    2.0700   -0.1220 S   0  0  0  0  0  0  0  0  0  0  0  0
  1  2  2  0
  2  3  1  0
  2  4  1  0
  4  5  2  3
  4  7  1  0
  5  6  1  0
  7  8  1  0
  7 14  1  0
  8  9  2  0
  9 10  1  0
  9 13  1  0
 10 11  1  0
 11 12  1  0
 13 14  2  0
 13 33  1  0
 14 15  1  0
 15 16  1  0
 16 17  1  0
 17 18  1  0
 17 31  2  0
 18 19  2  0
 18 20  1  0
 20 21  1  0
 20 30  1  0
 21 22  1  0
 22 23  1  0
 23 24  1  0
 24 25  1  6
 24 30  1  0
 25 26  2  0
 25 27  1  0
 27 28  1  0
 27 29  1  0
 31 32  1  0
 31 33  1  0
M  CHG  1  15   1
M  END
