
     RDKit          3D

 15 15  0  0  0  0  0  0  0  0999 V2000
   -1.8960   -2.1470    0.9310 O   0  0  0  0  0  0  0  0  0  0  0  0
   -2.7170   -1.2900    0.5100 C   0  0  0  0  0  0  0  0  0  0  0  0
   -3.9930   -1.3220    1.0690 O   0  0  0  0  0  0  0  0  0  0  0  0
   -2.3260   -0.3070   -0.5260 C   0  0  1  0  0  0  0  0  0  0  0  0
   -3.3890    0.5150   -0.8160 O   0  0  0  0  0  0  0  0  0  0  0  0
   -3.1890    1.7310   -0.1980 C   0  0  0  0  0  0  0  0  0  0  0  0
   -1.6870    1.9420   -0.4430 C   0  0  0  0  0  0  0  0  0  0  0  0
   -1.1990    0.5510   -0.0100 C   0  0  2  0  0  0  0  0  0  0  0  0
    0.0130    0.2830   -0.5810 O   0  0  0  0  0  0  0  0  0  0  0  0
    0.9350    0.0900    0.4450 C   0  0  0  0  0  0  0  0  0  0  0  0
    2.3230   -0.2170   -0.0800 C   0  0  0  0  0  0  0  0  0  0  0  0
    3.1370   -0.3860    1.0460 O   0  0  0  0  0  0  0  0  0  0  0  0
    4.7640   -0.7430    0.6420 P   0  0  0  0  0  0  0  0  0  0  0  0
    5.3130    0.3670   -0.5720 O   0  0  0  0  0  0  0  0  0  0  0  0
    4.8920   -2.3960    0.0840 O   0  0  0  0  0  0  0  0  0  0  0  0
  1  2  2  0
  2  3  1  0
  4  2  1  1
  4  5  1  0
  4  8  1  0
  5  6  1  0
  6  7  1  0
  7  8  1  0
  8  9  1  6
  9 10  1  0
 10 11  1  0
 11 12  1  0
 12 13  1  0
 13 14  1  0
 13 15  1  0
M  END
