
     RDKit          3D

 15 14  0  0  0  0  0  0  0  0999 V2000
    4.7220    0.3120   -0.6420 C   0  0  0  0  0  0  0  0  0  0  0  0
    3.8920    0.3570    0.5150 O   0  0  0  0  0  0  0  0  0  0  0  0
    2.5230    0.3880    0.3290 C   0  0  0  0  0  0  0  0  0  0  0  0
    2.0100    0.3770   -0.7980 O   0  0  0  0  0  0  0  0  0  0  0  0
    1.6670    0.4350    1.5350 C   0  0  0  0  0  0  0  0  0  0  0  0
    0.2910    0.4630    1.2150 O   0  0  0  0  0  0  0  0  0  0  0  0
   -0.3530   -0.5350    0.5000 C   0  0  0  0  0  0  0  0  0  0  0  0
    0.4140   -1.4920    0.1520 O   0  0  0  0  0  0  0  0  0  0  0  0
   -1.7750   -0.5320    0.1540 C   0  0  1  0  0  0  0  0  0  0  0  0
   -2.2120    0.5750   -0.7590 C   0  0  0  0  0  0  0  0  0  0  0  0
   -1.9460    1.9150   -0.1360 C   0  0  0  0  0  0  0  0  0  0  0  0
   -2.3670    2.9410   -0.9880 O   0  0  0  0  0  0  0  0  0  0  0  0
   -2.3280   -2.1350   -0.5970 P   0  0  0  0  0  0  0  0  0  0  0  0
   -3.5650   -2.9090    0.2980 O   0  0  0  0  0  0  0  0  0  0  0  0
   -1.0270   -3.1590   -1.0180 O   0  0  0  0  0  0  0  0  0  0  0  0
  1  2  1  0
  2  3  1  0
  3  4  2  0
  3  5  1  0
  5  6  1  0
  6  7  1  0
  7  8  2  0
  7  9  1  0
  9 10  1  6
  9 13  1  0
 10 11  1  0
 11 12  1  0
 13 14  1  0
 13 15  1  0
M  END
