
     RDKit          3D

 16 16  0  0  0  0  0  0  0  0999 V2000
    0.1350   -1.9680   -0.7560 O   0  0  0  0  0  0  0  0  0  0  0  0
   -0.5460   -0.7910   -0.5550 C   0  0  1  0  0  0  0  0  0  0  0  0
   -2.0460   -1.0190   -0.6010 C   0  0  2  0  0  0  0  0  0  0  0  0
   -2.4380   -1.5930   -1.8070 O   0  0  0  0  0  0  0  0  0  0  0  0
   -2.6800    0.3630   -0.4260 C   0  0  2  0  0  0  0  0  0  0  0  0
   -2.0430    1.1990   -1.3200 O   0  0  0  0  0  0  0  0  0  0  0  0
   -2.2930    0.8220    0.9750 C   0  0  0  0  0  0  0  0  0  0  0  0
   -0.9110    0.9470    1.0320 O   0  0  0  0  0  0  0  0  0  0  0  0
   -0.2660   -0.2700    0.8590 C   0  0  1  0  0  0  0  0  0  0  0  0
   -0.7260   -1.2460    1.7370 O   0  0  0  0  0  0  0  0  0  0  0  0
    1.2020   -0.1190    1.0410 C   0  0  0  0  0  0  0  0  0  0  0  0
    1.5980    0.7930    0.0760 O   0  0  0  0  0  0  0  0  0  0  0  0
    3.0640    1.1810   -0.0180 P   0  0  0  0  0  0  0  0  0  0  0  0
    3.5020   -0.4270   -0.1530 O   0  0  0  0  0  0  0  0  0  0  0  0
    3.0570    1.8980    1.4470 O   0  0  0  0  0  0  0  0  0  0  0  0
    2.7860    2.0740   -1.3710 O   0  0  0  0  0  0  0  0  0  0  0  0
  2  1  1  1
  2  3  1  0
  2  9  1  0
  3  4  1  6
  3  5  1  0
  5  6  1  6
  5  7  1  0
  7  8  1  0
  8  9  1  0
  9 10  1  1
  9 11  1  0
 11 12  1  0
 12 13  1  0
 13 14  1  0
 13 15  1  0
 13 16  1  0
M  END
