
     RDKit          3D

 14 14  0  0  0  0  0  0  0  0999 V2000
   -2.1590   -1.3190    0.5100 C   0  0  0  0  0  0  0  0  0  0  0  0
   -1.9710    0.1560    0.1620 C   0  0  2  0  0  0  0  0  0  0  0  0
   -1.1060    0.8310    1.1550 C   0  0  0  0  0  0  0  0  0  0  0  0
    0.1640    0.3480    1.1680 O   0  0  0  0  0  0  0  0  0  0  0  0
    0.8870    0.4400    0.0190 C   0  0  0  0  0  0  0  0  0  0  0  0
    2.3230   -0.0770    0.2360 C   0  0  0  0  0  0  0  0  0  0  0  0
    2.9580    0.6610    1.2060 O   0  0  0  0  0  0  0  0  0  0  0  0
    4.5520    0.0500    1.4120 P   0  0  0  0  0  0  0  0  0  0  0  0
    5.7030    1.0810    0.6550 O   0  0  0  0  0  0  0  0  0  0  0  0
    4.6550   -1.5750    0.8710 O   0  0  0  0  0  0  0  0  0  0  0  0
   -3.3660    0.8010    0.0890 C   0  0  0  0  0  0  0  0  0  0  0  0
   -3.8200    0.2860   -1.1190 O   0  0  0  0  0  0  0  0  0  0  0  0
   -2.7330   -0.1520   -1.8320 C   0  0  0  0  0  0  0  0  0  0  0  0
   -1.5840    0.3080   -1.1600 O   0  0  0  0  0  0  0  0  0  0  0  0
  2  1  1  1
  2  3  1  0
  2 11  1  0
  2 14  1  0
  3  4  1  0
  4  5  1  0
  5  6  1  0
  6  7  1  0
  7  8  1  0
  8  9  1  0
  8 10  1  0
 11 12  1  0
 12 13  1  0
 13 14  1  0
M  END
