
     RDKit          3D

 15 14  0  0  0  0  0  0  0  0999 V2000
   -0.4870   -0.2500    2.2340 C   0  0  0  0  0  0  0  0  0  0  0  0
   -0.4720   -0.0810    0.7150 C   0  0  1  0  0  0  0  0  0  0  0  0
   -1.1140    1.0840    0.3740 O   0  0  0  0  0  0  0  0  0  0  0  0
   -2.1290    0.9640   -0.5340 C   0  0  0  0  0  0  0  0  0  0  0  0
   -3.2320    0.0660   -0.0570 C   0  0  0  0  0  0  0  0  0  0  0  0
   -4.3470   -0.0410   -1.0980 C   0  0  0  0  0  0  0  0  0  0  0  0
   -5.3600   -0.8690   -0.6540 O   0  0  0  0  0  0  0  0  0  0  0  0
    0.9090    0.0740    0.3610 O   0  0  0  0  0  0  0  0  0  0  0  0
    1.5320   -0.8560   -0.4890 C   0  0  0  0  0  0  0  0  0  0  0  0
    0.8690   -1.8150   -0.9300 O   0  0  0  0  0  0  0  0  0  0  0  0
    2.9440   -0.7380   -0.8800 C   0  0  0  0  0  0  0  0  0  0  0  0
    3.5430    0.3970   -0.2960 O   0  0  0  0  0  0  0  0  0  0  0  0
    5.1880    0.5160   -0.7640 P   0  0  0  0  0  0  0  0  0  0  0  0
    6.1100   -0.7150   -0.0010 O   0  0  0  0  0  0  0  0  0  0  0  0
    5.8230    2.0880   -0.5060 O   0  0  0  0  0  0  0  0  0  0  0  0
  2  1  1  1
  2  3  1  0
  2  8  1  0
  3  4  1  0
  4  5  1  0
  5  6  1  0
  6  7  1  0
  8  9  1  0
  9 10  2  0
  9 11  1  0
 11 12  1  0
 12 13  1  0
 13 14  1  0
 13 15  1  0
M  END
