
     RDKit          3D

 10 10  0  0  0  0  0  0  0  0999 V2000
   -2.7160    1.3030    0.1220 C   0  0  0  0  0  0  0  0  0  0  0  0
   -2.1380   -0.0870    0.0880 C   0  0  0  0  0  0  0  0  0  0  0  0
   -0.7330   -0.1100   -0.3530 N   0  0  0  0  0  0  0  0  0  0  0  0
   -0.4680   -1.5340   -0.5870 C   0  0  0  0  0  0  0  0  0  0  0  0
    1.0170   -1.6810   -0.8720 C   0  0  0  0  0  0  0  0  0  0  0  0
    1.7810   -1.2900    0.1870 O   0  0  0  0  0  0  0  0  0  0  0  0
    1.4730   -0.0630    0.7410 C   0  0  1  0  0  0  0  0  0  0  0  0
    2.4040    1.0160    0.1740 C   0  0  0  0  0  0  0  0  0  0  0  0
    2.3380    1.1410   -1.1880 O   0  0  0  0  0  0  0  0  0  0  0  0
    0.0550    0.3230    0.7960 C   0  0  0  0  0  0  0  0  0  0  0  0
  1  2  1  0
  2  3  1  0
  3  4  1  0
  3 10  1  0
  4  5  1  0
  5  6  1  0
  6  7  1  0
  7  8  1  6
  7 10  1  0
  8  9  1  0
M  END
