
     RDKit          3D

 22 22  0  0  0  0  0  0  0  0999 V2000
    7.4630    0.1150   -0.8890 C   0  0  0  0  0  0  0  0  0  0  0  0
    6.8600   -0.5290    0.3320 C   0  0  0  0  0  0  0  0  0  0  0  0
    5.6500    0.2890    0.7390 C   0  0  0  0  0  0  0  0  0  0  0  0
    4.6310    0.3490   -0.3140 C   0  0  0  0  0  0  0  0  0  0  0  0
    3.4090   -0.0740   -0.2040 C   0  0  0  0  0  0  0  0  0  0  0  0
    2.8810   -0.6760    1.0050 C   0  0  0  0  0  0  0  0  0  0  0  0
    1.6070   -1.0950    1.0590 C   0  0  0  0  0  0  0  0  0  0  0  0
    0.8230   -0.9220   -0.0990 N   0  0  0  0  0  0  0  0  0  0  0  0
   -0.4210   -0.1430   -0.0350 C   0  0  0  0  0  0  0  0  0  0  0  0
   -0.2030    1.2950    0.1260 C   0  0  0  0  0  0  0  0  0  0  0  0
   -1.5170   -0.8320   -0.1280 C   0  0  0  0  0  0  0  0  0  0  0  0
   -1.5400   -2.3200   -0.2910 C   0  0  0  0  0  0  0  0  0  0  0  0
   -0.5130   -3.0690   -0.3550 O   0  0  0  0  0  0  0  0  0  0  0  0
   -2.8830   -2.7100   -0.3570 N   0  0  0  0  0  0  0  0  0  0  0  0
   -3.6820   -1.5720   -0.2470 C   0  0  0  0  0  0  0  0  0  0  0  0
   -5.1920   -1.5170   -0.2670 C   0  0  0  0  0  0  0  0  0  0  0  0
   -2.9150   -0.4650   -0.1130 C   0  0  0  0  0  0  0  0  0  0  0  0
   -3.4820    0.8750    0.0240 C   0  0  0  0  0  0  0  0  0  0  0  0
   -2.8770    1.9370    0.1500 O   0  0  0  0  0  0  0  0  0  0  0  0
   -4.8840    1.0220    0.0160 O   0  0  0  0  0  0  0  0  0  0  0  0
   -5.4780    2.3070    0.1450 C   0  0  0  0  0  0  0  0  0  0  0  0
   -6.9700    2.0640    0.0930 C   0  0  0  0  0  0  0  0  0  0  0  0
  1  2  1  0
  2  3  1  0
  3  4  1  0
  4  5  2  3
  5  6  1  0
  6  7  2  3
  7  8  1  0
  8  9  1  0
  9 10  1  0
  9 11  2  3
 11 12  1  0
 11 17  1  0
 12 13  2  0
 12 14  1  0
 14 15  1  0
 15 16  1  0
 15 17  2  0
 17 18  1  0
 18 19  2  0
 18 20  1  0
 20 21  1  0
 21 22  1  0
M  END
