
     RDKit          3D

 10 10  0  0  0  0  0  0  0  0999 V2000
   -4.0520    1.0090   -0.2450 C   0  0  0  0  0  0  0  0  0  0  0  0
   -2.6630    1.0690   -0.3880 O   0  0  0  0  0  0  0  0  0  0  0  0
   -2.0980   -0.1680   -0.1510 C   0  0  0  0  0  0  0  0  0  0  0  0
   -0.6000   -0.0600   -0.3150 C   0  0  2  0  0  0  0  0  0  0  0  0
    0.0860   -1.3840   -0.0440 C   0  0  0  0  0  0  0  0  0  0  0  0
    1.4670   -1.1780   -0.5080 N   0  0  0  0  0  0  0  0  0  0  0  0
    2.0540   -0.2080    0.3610 C   0  0  1  0  0  0  0  0  0  0  0  0
    3.4040    0.2480   -0.1980 C   0  0  0  0  0  0  0  0  0  0  0  0
    1.2350    0.9960    0.6240 C   0  0  0  0  0  0  0  0  0  0  0  0
   -0.1140    0.8520    0.5780 O   0  0  0  0  0  0  0  0  0  0  0  0
  1  2  1  0
  2  3  1  0
  4  3  1  1
  4  5  1  0
  4 10  1  0
  5  6  1  0
  6  7  1  0
  7  8  1  6
  7  9  1  0
  9 10  1  0
M  CHG  1   6   1
M  END
