
     RDKit          3D

 12 12  0  0  0  0  0  0  0  0999 V2000
    3.4670    0.0270    0.2390 C   0  0  0  0  0  0  0  0  0  0  0  0
    2.3760   -0.1700   -0.7780 C   0  0  0  0  0  0  0  0  0  0  0  0
    1.0510   -0.0660   -0.1520 N   0  0  0  0  0  0  0  0  0  0  0  0
   -0.1320   -0.2110   -0.8810 C   0  0  0  0  0  0  0  0  0  0  0  0
   -0.0300   -0.4380   -2.1150 O   0  0  0  0  0  0  0  0  0  0  0  0
   -1.4610   -0.1050   -0.2450 C   0  0  0  0  0  0  0  0  0  0  0  0
   -1.7900    0.1230    1.0020 C   0  0  0  0  0  0  0  0  0  0  0  0
   -0.8660    0.3210    2.0330 O   0  0  0  0  0  0  0  0  0  0  0  0
   -3.2550    0.1440    1.1840 C   0  0  0  0  0  0  0  0  0  0  0  0
   -3.8390    0.3410    2.2800 O   0  0  0  0  0  0  0  0  0  0  0  0
   -3.7480   -0.0930   -0.0770 O   0  0  0  0  0  0  0  0  0  0  0  0
   -2.7440   -0.2590   -1.0210 C   0  0  0  0  0  0  0  0  0  0  0  0
  1  2  1  0
  2  3  1  0
  3  4  1  0
  4  5  2  0
  4  6  1  0
  6  7  2  0
  6 12  1  0
  7  8  1  0
  7  9  1  0
  9 10  2  0
  9 11  1  0
 11 12  1  0
M  END
