
     RDKit          3D

 28 30  0  0  0  0  0  0  0  0999 V2000
    6.4890   -0.5960   -0.5190 C   0  0  0  0  0  0  0  0  0  0  0  0
    5.5600   -0.2520    0.6060 C   0  0  1  0  0  0  0  0  0  0  0  0
    5.5350   -1.5500    1.4650 C   0  0  0  0  0  0  0  0  0  0  0  0
    6.1760    0.7630    1.5610 C   0  0  0  0  0  0  0  0  0  0  0  0
    5.2980    1.0830    2.5900 O   0  0  0  0  0  0  0  0  0  0  0  0
    4.1730    0.0150    0.2430 C   0  0  0  0  0  0  0  0  0  0  0  0
    3.1110   -0.7580    0.7430 C   0  0  0  0  0  0  0  0  0  0  0  0
    1.7930   -0.5340    0.4080 C   0  0  0  0  0  0  0  0  0  0  0  0
    1.4480    0.4730   -0.4480 C   0  0  0  0  0  0  0  0  0  0  0  0
    0.0700    0.7790   -0.8570 C   0  0  0  0  0  0  0  0  0  0  0  0
   -0.8570   -0.1640   -0.2970 O   0  0  0  0  0  0  0  0  0  0  0  0
   -2.2140   -0.0520   -0.5610 C   0  0  0  0  0  0  0  0  0  0  0  0
   -2.5570    0.8860   -1.2880 O   0  0  0  0  0  0  0  0  0  0  0  0
   -3.1230   -1.0180    0.0180 C   0  0  0  0  0  0  0  0  0  0  0  0
   -2.6040   -2.0860    0.7830 C   0  0  0  0  0  0  0  0  0  0  0  0
   -3.3880   -3.0460    1.3530 C   0  0  0  0  0  0  0  0  0  0  0  0
   -4.7470   -2.9820    1.1840 C   0  0  0  0  0  0  0  0  0  0  0  0
   -5.2990   -1.9650    0.4510 C   0  0  0  0  0  0  0  0  0  0  0  0
   -4.4990   -0.9990   -0.1230 C   0  0  0  0  0  0  0  0  0  0  0  0
   -5.1220    0.0860   -0.8910 C   0  0  1  0  0  0  0  0  0  0  0  0
   -6.5790   -0.0660   -1.1890 C   0  0  0  0  0  0  0  0  0  0  0  0
   -7.3430    0.6500   -0.1180 C   0  0  0  0  0  0  0  0  0  0  0  0
   -6.4030    1.5430    0.5980 C   0  0  0  0  0  0  0  0  0  0  0  0
   -5.0780    1.3480   -0.0470 C   0  0  0  0  0  0  0  0  0  0  0  0
    2.4770    1.2380   -0.9450 C   0  0  0  0  0  0  0  0  0  0  0  0
    3.8220    1.0140   -0.6060 C   0  0  0  0  0  0  0  0  0  0  0  0
    4.7930    1.9290   -1.2070 C   0  0  0  0  0  0  0  0  0  0  0  0
    4.1590    2.8690   -2.0700 O   0  0  0  0  0  0  0  0  0  0  0  0
  2  1  1  6
  2  3  1  0
  2  4  1  0
  2  6  1  0
  4  5  1  0
  6  7  2  0
  6 26  1  0
  7  8  1  0
  8  9  2  0
  9 10  1  0
  9 25  1  0
 10 11  1  0
 11 12  1  0
 12 13  2  0
 12 14  1  0
 14 15  2  0
 14 19  1  0
 15 16  1  0
 16 17  2  0
 17 18  1  0
 18 19  2  0
 20 19  1  1
 20 21  1  0
 20 24  1  0
 21 22  1  0
 22 23  1  0
 23 24  1  0
 25 26  2  0
 26 27  1  0
 27 28  1  0
M  END
