
     RDKit          3D

 28 30  0  0  0  0  0  0  0  0999 V2000
   -1.5570   -4.2030    0.2670 C   0  0  0  0  0  0  0  0  0  0  0  0
   -1.2680   -2.7260    0.3580 C   0  0  0  0  0  0  0  0  0  0  0  0
   -0.8460   -2.0970   -0.6700 C   0  0  0  0  0  0  0  0  0  0  0  0
   -0.5140   -0.6810   -0.8110 C   0  0  0  0  0  0  0  0  0  0  0  0
   -1.4530    0.3110   -0.6470 C   0  0  0  0  0  0  0  0  0  0  0  0
   -2.8050    0.0170   -0.3800 O   0  0  0  0  0  0  0  0  0  0  0  0
   -3.7370    1.0230   -0.2250 C   0  0  0  0  0  0  0  0  0  0  0  0
   -4.0250    1.5960    0.9960 C   0  0  0  0  0  0  0  0  0  0  0  0
   -4.9600    2.5950    1.1110 C   0  0  0  0  0  0  0  0  0  0  0  0
   -5.6300    3.0420   -0.0040 C   0  0  0  0  0  0  0  0  0  0  0  0
   -5.3580    2.4830   -1.2340 C   0  0  0  0  0  0  0  0  0  0  0  0
   -4.4310    1.4960   -1.3330 C   0  0  0  0  0  0  0  0  0  0  0  0
   -1.0940    1.6550   -0.7460 C   0  0  0  0  0  0  0  0  0  0  0  0
    0.2150    1.9930   -1.0130 C   0  0  0  0  0  0  0  0  0  0  0  0
    1.1870    1.0100   -1.1860 C   0  0  0  0  0  0  0  0  0  0  0  0
    2.6000    1.4310   -1.4820 C   0  0  0  0  0  0  0  0  0  0  0  0
    0.7920   -0.2880   -1.0800 C   0  0  0  0  0  0  0  0  0  0  0  0
    1.7150   -1.2980   -1.2420 O   0  0  0  0  0  0  0  0  0  0  0  0
    2.4800   -1.8880   -0.2190 C   0  0  0  0  0  0  0  0  0  0  0  0
    3.3590   -0.9480    0.5060 C   0  0  0  0  0  0  0  0  0  0  0  0
    2.8540   -0.2750    1.5990 C   0  0  0  0  0  0  0  0  0  0  0  0
    3.6560    0.6110    2.2980 C   0  0  0  0  0  0  0  0  0  0  0  0
    4.9610    0.8490    1.9330 C   0  0  0  0  0  0  0  0  0  0  0  0
    5.4650    0.1760    0.8390 C   0  0  0  0  0  0  0  0  0  0  0  0
    6.7870    0.3950    0.4450 O   0  0  0  0  0  0  0  0  0  0  0  0
    4.6830   -0.7130    0.1290 C   0  0  0  0  0  0  0  0  0  0  0  0
   -1.4140   -2.1320    1.6920 C   0  0  0  0  0  0  0  0  0  0  0  0
   -1.0610   -0.8210    1.8290 O   0  0  0  0  0  0  0  0  0  0  0  0
  1  2  1  0
  2  3  2  3
  2 27  1  0
  3  4  1  0
  4  5  2  0
  4 17  1  0
  5  6  1  0
  5 13  1  0
  6  7  1  0
  7  8  2  0
  7 12  1  0
  8  9  1  0
  9 10  2  0
 10 11  1  0
 11 12  2  0
 13 14  2  0
 14 15  1  0
 15 16  1  0
 15 17  2  0
 17 18  1  0
 18 19  1  0
 19 20  1  0
 20 21  2  0
 20 26  1  0
 21 22  1  0
 22 23  2  0
 23 24  1  0
 24 25  1  0
 24 26  2  0
 27 28  1  0
M  END
