
     RDKit          3D

 28 30  0  0  0  0  0  0  0  0999 V2000
   -5.3990   -3.5180   -0.6790 C   0  0  0  0  0  0  0  0  0  0  0  0
   -5.0560   -2.5570    0.4390 C   0  0  0  0  0  0  0  0  0  0  0  0
   -3.6310   -2.1940    0.3660 C   0  0  0  0  0  0  0  0  0  0  0  0
   -2.5400   -3.1700    0.4620 C   0  0  0  0  0  0  0  0  0  0  0  0
   -3.3150   -0.8900    0.1990 C   0  0  0  0  0  0  0  0  0  0  0  0
   -1.9130   -0.5520    0.1290 C   0  0  0  0  0  0  0  0  0  0  0  0
   -1.4030    0.6280   -0.0260 C   0  0  0  0  0  0  0  0  0  0  0  0
   -2.2990    1.8010   -0.1420 C   0  0  0  0  0  0  0  0  0  0  0  0
   -3.5170    1.7160   -0.0980 O   0  0  0  0  0  0  0  0  0  0  0  0
   -1.7000    3.0690   -0.3100 O   0  0  0  0  0  0  0  0  0  0  0  0
   -2.5660    4.1690   -0.4170 C   0  0  1  0  0  0  0  0  0  0  0  0
   -2.2810    5.0960    0.7540 C   0  0  0  0  0  0  0  0  0  0  0  0
   -2.3840    4.9400   -1.6920 C   0  0  0  0  0  0  0  0  0  0  0  0
    0.0250    0.8720   -0.1880 C   0  0  0  0  0  0  0  0  0  0  0  0
    0.3040    2.1520   -0.2070 O   0  0  0  0  0  0  0  0  0  0  0  0
    1.1410   -0.0220   -0.3230 C   0  0  0  0  0  0  0  0  0  0  0  0
    1.1310   -1.3440   -0.6650 C   0  0  0  0  0  0  0  0  0  0  0  0
    2.2880   -2.1240   -0.6500 C   0  0  0  0  0  0  0  0  0  0  0  0
    2.1680   -3.4520   -1.0110 O   0  0  0  0  0  0  0  0  0  0  0  0
    3.5190   -1.5890   -0.2870 C   0  0  0  0  0  0  0  0  0  0  0  0
    3.5560   -0.2620    0.0580 C   0  0  0  0  0  0  0  0  0  0  0  0
    2.4120    0.4850    0.0380 C   0  0  0  0  0  0  0  0  0  0  0  0
    4.9570    0.0340    0.3940 C   0  0  0  0  0  0  0  0  0  0  0  0
    5.7420    1.0170    0.7900 C   0  0  0  0  0  0  0  0  0  0  0  0
    7.1230    0.4960    0.9150 C   0  0  0  0  0  0  0  0  0  0  0  0
    7.0330   -0.9320    0.5350 C   0  0  0  0  0  0  0  0  0  0  0  0
    5.7440   -1.1670    0.2350 C   0  0  0  0  0  0  0  0  0  0  0  0
    4.8420   -2.2370   -0.2060 C   0  0  0  0  0  0  0  0  0  0  0  0
  1  2  1  0
  2  3  1  0
  3  4  1  0
  3  5  2  3
  5  6  1  0
  6  7  2  3
  7  8  1  0
  7 14  1  0
  8  9  2  0
  8 10  1  0
 10 11  1  0
 11 12  1  1
 11 13  1  0
 14 15  2  0
 14 16  1  0
 16 17  2  0
 16 22  1  0
 17 18  1  0
 18 19  1  0
 18 20  2  0
 20 21  1  0
 20 28  1  0
 21 22  2  0
 21 23  1  0
 23 24  2  0
 23 27  1  0
 24 25  1  0
 25 26  1  0
 26 27  2  0
 27 28  1  0
M  END
