
     RDKit          3D

 27 29  0  0  0  0  0  0  0  0999 V2000
    8.0200   -0.2410    1.3370 C   0  0  0  0  0  0  0  0  0  0  0  0
    7.1430   -0.9180    0.4170 N   0  0  0  0  0  0  0  0  0  0  0  0
    5.7000   -0.6310    0.4590 C   0  0  0  0  0  0  0  0  0  0  0  0
    4.9040   -0.0050    1.0010 N   0  0  0  0  0  0  0  0  0  0  0  0
    3.6050    0.0660    0.8320 C   0  0  0  0  0  0  0  0  0  0  0  0
    2.6300    0.9260    1.6000 C   0  0  0  0  0  0  0  0  0  0  0  0
    3.1280   -0.7600   -0.1760 C   0  0  0  0  0  0  0  0  0  0  0  0
    1.7600   -0.9680   -0.6670 C   0  0  0  0  0  0  0  0  0  0  0  0
    0.7540   -0.2900   -0.1080 N   0  0  0  0  0  0  0  0  0  0  0  0
   -0.5330   -0.4540   -0.5350 C   0  0  0  0  0  0  0  0  0  0  0  0
   -1.5770    0.2780    0.0600 N   0  0  0  0  0  0  0  0  0  0  0  0
   -2.9360    0.2270   -0.2480 C   0  0  0  0  0  0  0  0  0  0  0  0
   -3.5190   -0.6920   -1.0720 C   0  0  0  0  0  0  0  0  0  0  0  0
   -4.8960   -0.6670   -1.3430 C   0  0  0  0  0  0  0  0  0  0  0  0
   -5.7080    0.2900   -0.7850 C   0  0  0  0  0  0  0  0  0  0  0  0
   -5.1470    1.2260    0.0480 C   0  0  0  0  0  0  0  0  0  0  0  0
   -6.2000    2.4330    0.7460 S   0  0  1  0  0  0  0  0  0  0  0  0
   -6.8270    1.8840    2.2560 N   0  0  0  0  0  0  0  0  0  0  0  0
   -5.4220    3.7020    1.0100 O   0  0  0  0  0  0  0  0  0  0  0  0
   -7.3470    2.7220   -0.1910 O   0  0  0  0  0  0  0  0  0  0  0  0
   -3.8130    1.1840    0.2970 C   0  0  0  0  0  0  0  0  0  0  0  0
   -0.7650   -1.3140   -1.5310 N   0  0  0  0  0  0  0  0  0  0  0  0
    0.1920   -2.0270   -2.1390 C   0  0  0  0  0  0  0  0  0  0  0  0
    1.4890   -1.8430   -1.6880 C   0  0  0  0  0  0  0  0  0  0  0  0
    2.5520   -2.5800   -2.3050 C   0  0  0  0  0  0  0  0  0  0  0  0
    3.4240   -3.1700   -2.8000 N   0  0  0  0  0  0  0  0  0  0  0  0
    4.6110   -1.5640   -0.7840 S   0  0  0  0  0  0  0  0  0  0  0  0
  1  2  1  0
  2  3  1  0
  3  4  2  0
  3 27  1  0
  4  5  1  0
  5  6  1  0
  5  7  2  0
  7  8  1  0
  7 27  1  0
  8  9  2  0
  8 24  1  0
  9 10  1  0
 10 11  1  0
 10 22  2  0
 11 12  1  0
 12 13  2  0
 12 21  1  0
 13 14  1  0
 14 15  2  0
 15 16  1  0
 16 17  1  0
 16 21  2  0
 17 18  1  1
 17 19  2  0
 17 20  2  0
 22 23  1  0
 23 24  2  0
 24 25  1  0
 25 26  3  0
M  END
