
     RDKit          3D

 33 35  0  0  0  0  0  0  0  0999 V2000
    4.5450   -1.3250   -2.5870 C   0  0  0  0  0  0  0  0  0  0  0  0
    5.3300   -0.2950   -2.5100 C   0  0  0  0  0  0  0  0  0  0  0  0
    6.0260    0.0320   -3.6980 O   0  0  0  0  0  0  0  0  0  0  0  0
    5.5460    0.5280   -1.3470 C   0  0  0  0  0  0  0  0  0  0  0  0
    6.4230    1.5430   -1.4440 C   0  0  0  0  0  0  0  0  0  0  0  0
    6.6720    2.4030   -0.2860 C   0  0  0  0  0  0  0  0  0  0  0  0
    4.8860    0.3150   -0.0640 C   0  0  0  0  0  0  0  0  0  0  0  0
    3.4050    0.5040   -0.0530 C   0  0  0  0  0  0  0  0  0  0  0  0
    2.9360    0.2270    1.3530 C   0  0  0  0  0  0  0  0  0  0  0  0
    2.7220   -0.9560    1.6890 O   0  0  0  0  0  0  0  0  0  0  0  0
    2.7370    1.2350    2.2840 O   0  0  0  0  0  0  0  0  0  0  0  0
    2.3080    0.9770    3.5770 C   0  0  0  0  0  0  0  0  0  0  0  0
    0.9410    0.3690    3.5850 C   0  0  0  0  0  0  0  0  0  0  0  0
    0.5430   -0.0380    4.7010 O   0  0  0  0  0  0  0  0  0  0  0  0
    0.1140    0.2380    2.4640 N   0  0  0  0  0  0  0  0  0  0  0  0
   -1.1780   -0.3360    2.4050 C   0  0  0  0  0  0  0  0  0  0  0  0
   -1.6940   -1.0090    3.4730 C   0  0  0  0  0  0  0  0  0  0  0  0
   -2.9630   -1.5770    3.3430 C   0  0  0  0  0  0  0  0  0  0  0  0
   -3.6820   -1.4670    2.1740 C   0  0  0  0  0  0  0  0  0  0  0  0
   -3.1430   -0.7770    1.0990 C   0  0  0  0  0  0  0  0  0  0  0  0
   -1.9190   -0.2240    1.2040 C   0  0  0  0  0  0  0  0  0  0  0  0
   -1.3070    0.4740    0.1510 N   0  0  0  0  0  0  0  0  0  0  0  0
   -0.4070   -0.2180   -0.7000 C   0  0  0  0  0  0  0  0  0  0  0  0
    0.2390    0.5310   -1.8270 C   0  0  0  0  0  0  0  0  0  0  0  0
   -0.1210   -1.4260   -0.5640 O   0  0  0  0  0  0  0  0  0  0  0  0
   -3.9350   -0.6240   -0.0660 N   0  0  0  0  0  0  0  0  0  0  0  0
   -3.6490    0.4040   -1.0460 C   0  0  0  0  0  0  0  0  0  0  0  0
   -4.8640    0.4580   -2.0100 C   0  0  0  0  0  0  0  0  0  0  0  0
   -6.1400    0.5530   -1.2070 C   0  0  0  0  0  0  0  0  0  0  0  0
   -6.3210   -0.5850   -0.2640 C   0  0  0  0  0  0  0  0  0  0  0  0
   -5.0880   -1.4680   -0.3210 C   0  0  2  0  0  0  0  0  0  0  0  0
   -5.2190   -2.5660    0.7130 C   0  0  0  0  0  0  0  0  0  0  0  0
   -4.9420   -2.0170    1.9970 O   0  0  0  0  0  0  0  0  0  0  0  0
  1  2  2  0
  2  3  1  0
  2  4  1  0
  4  5  2  3
  4  7  1  0
  5  6  1  0
  7  8  1  0
  8  9  1  0
  9 10  2  0
  9 11  1  0
 11 12  1  0
 12 13  1  0
 13 14  2  0
 13 15  1  0
 15 16  1  0
 16 17  2  0
 16 21  1  0
 17 18  1  0
 18 19  2  0
 19 20  1  0
 19 33  1  0
 20 21  2  0
 20 26  1  0
 21 22  1  0
 22 23  1  0
 23 24  1  0
 23 25  2  0
 26 27  1  0
 26 31  1  0
 27 28  1  0
 28 29  1  0
 29 30  1  0
 31 30  1  1
 31 32  1  0
 32 33  1  0
M  END
