
     RDKit          3D

 31 34  0  0  0  0  0  0  0  0999 V2000
   -4.1770   -4.3540   -1.0720 C   0  0  0  0  0  0  0  0  0  0  0  0
   -4.4350   -2.9380   -0.7180 C   0  0  0  0  0  0  0  0  0  0  0  0
   -5.5820   -2.3920   -0.5290 N   0  0  0  0  0  0  0  0  0  0  0  0
   -5.8700   -1.0730   -0.2470 C   0  0  0  0  0  0  0  0  0  0  0  0
   -4.7680   -0.2900   -0.2020 C   0  0  0  0  0  0  0  0  0  0  0  0
   -3.4810   -0.7110   -0.3840 C   0  0  0  0  0  0  0  0  0  0  0  0
   -2.4380    0.1760   -0.1940 N   0  0  0  0  0  0  0  0  0  0  0  0
   -1.1150   -0.3610   -0.2240 C   0  0  0  0  0  0  0  0  0  0  0  0
    0.0710    0.4360   -0.2150 N   0  0  0  0  0  0  0  0  0  0  0  0
    1.2920   -0.0020    0.3360 C   0  0  0  0  0  0  0  0  0  0  0  0
    0.8970   -1.0680    1.1790 O   0  0  0  0  0  0  0  0  0  0  0  0
    2.6290    0.1770    0.3490 C   0  0  0  0  0  0  0  0  0  0  0  0
    3.6360    0.8650   -0.1830 C   0  0  0  0  0  0  0  0  0  0  0  0
    4.9820    0.4760    0.3740 C   0  0  0  0  0  0  0  0  0  0  0  0
    6.0860    1.0990   -0.0390 C   0  0  0  0  0  0  0  0  0  0  0  0
    6.0620    2.1720   -1.0320 C   0  0  0  0  0  0  0  0  0  0  0  0
    6.9680    3.5470   -0.1620 S   0  0  0  0  0  0  0  0  0  0  0  0
    7.3470    2.9480    1.5460 C   0  0  0  0  0  0  0  0  0  0  0  0
    7.8220    1.5630    1.6060 C   0  0  0  0  0  0  0  0  0  0  0  0
    7.4030    0.7070    0.4580 C   0  0  2  0  0  0  0  0  0  0  0  0
    8.4290    0.7340   -0.5380 N   0  0  0  0  0  0  0  0  0  0  0  0
   -1.1430   -1.6100   -0.4220 C   0  0  0  0  0  0  0  0  0  0  0  0
   -2.0230   -2.6120   -0.6500 C   0  0  0  0  0  0  0  0  0  0  0  0
   -1.7060   -4.0510   -0.4700 C   0  0  0  0  0  0  0  0  0  0  0  0
   -1.4790   -5.0670   -0.3610 N   0  0  0  0  0  0  0  0  0  0  0  0
   -3.3220   -2.0810   -0.6420 C   0  0  0  0  0  0  0  0  0  0  0  0
   -4.7970    1.1810    0.1450 C   0  0  0  0  0  0  0  0  0  0  0  0
   -5.5080    1.3610    1.4320 C   0  0  0  0  0  0  0  0  0  0  0  0
   -6.9930    1.1960    1.3880 C   0  0  0  0  0  0  0  0  0  0  0  0
   -7.5400    0.7210    0.0440 C   0  0  0  0  0  0  0  0  0  0  0  0
   -7.2950   -0.8160   -0.0550 C   0  0  0  0  0  0  0  0  0  0  0  0
  1  2  1  0
  2  3  2  0
  2 26  1  0
  3  4  1  0
  4  5  2  0
  4 31  1  0
  5  6  1  0
  5 27  1  0
  6  7  2  0
  6 26  1  0
  7  8  1  0
  8  9  1  0
  8 22  2  0
  9 10  1  0
 10 11  2  0
 10 12  1  0
 12 13  2  3
 13 14  1  0
 14 15  2  3
 15 16  1  0
 15 20  1  0
 16 17  1  0
 17 18  1  0
 18 19  1  0
 19 20  1  0
 20 21  1  6
 22 23  1  0
 23 24  1  0
 23 26  2  0
 24 25  3  0
 27 28  1  0
 28 29  1  0
 29 30  1  0
 30 31  1  0
M  CHG  1  21   1
M  END
