
     RDKit          3D

 33 36  0  0  0  0  0  0  0  0999 V2000
    8.9910    2.0270   -3.1080 C   0  0  0  0  0  0  0  0  0  0  0  0
    7.5600    2.0750   -3.1230 N   0  0  0  0  0  0  0  0  0  0  0  0
    6.8540    1.5050   -2.0150 C   0  0  0  0  0  0  0  0  0  0  0  0
    7.0260    0.9600   -0.9640 N   0  0  0  0  0  0  0  0  0  0  0  0
    6.1210    0.5210   -0.1330 C   0  0  0  0  0  0  0  0  0  0  0  0
    6.5560   -0.2270    1.1150 C   0  0  0  0  0  0  0  0  0  0  0  0
    4.8270    0.6800   -0.4530 C   0  0  0  0  0  0  0  0  0  0  0  0
    3.4980    0.3550    0.0070 C   0  0  0  0  0  0  0  0  0  0  0  0
    2.5330    0.0390   -0.9330 N   0  0  0  0  0  0  0  0  0  0  0  0
    1.2960   -0.3610   -0.6430 C   0  0  0  0  0  0  0  0  0  0  0  0
    0.3240   -0.6940   -1.6210 N   0  0  0  0  0  0  0  0  0  0  0  0
   -1.0030   -1.0960   -1.3180 C   0  0  0  0  0  0  0  0  0  0  0  0
   -1.7390   -1.6610   -2.4140 C   0  0  0  0  0  0  0  0  0  0  0  0
   -3.0190   -2.0520   -2.1480 C   0  0  0  0  0  0  0  0  0  0  0  0
   -3.6270   -1.9440   -0.9310 C   0  0  0  0  0  0  0  0  0  0  0  0
   -5.0040   -2.4010   -0.7310 C   0  0  0  0  0  0  0  0  0  0  0  0
   -2.9110   -1.3930    0.1390 C   0  0  0  0  0  0  0  0  0  0  0  0
   -3.5560   -1.1360    1.7310 S   0  0  2  0  0  0  0  0  0  0  0  0
   -2.4130   -0.7030    2.6490 O   0  0  0  0  0  0  0  0  0  0  0  0
   -4.1160   -2.4470    2.2870 O   0  0  0  0  0  0  0  0  0  0  0  0
   -4.7820   -0.0230    1.6730 N   0  0  0  0  0  0  0  0  0  0  0  0
   -6.0630   -0.3740    2.0740 C   0  0  0  0  0  0  0  0  0  0  0  0
   -7.1000    0.2620    1.1710 C   0  0  0  0  0  0  0  0  0  0  0  0
   -6.6690    1.4650    0.7110 O   0  0  0  0  0  0  0  0  0  0  0  0
   -5.7330    2.1710    1.4110 C   0  0  0  0  0  0  0  0  0  0  0  0
   -4.4400    1.3360    1.5720 C   0  0  0  0  0  0  0  0  0  0  0  0
   -1.6040   -0.9910   -0.1290 C   0  0  0  0  0  0  0  0  0  0  0  0
    1.0210   -0.4440    0.6810 N   0  0  0  0  0  0  0  0  0  0  0  0
    1.8670   -0.1660    1.6380 C   0  0  0  0  0  0  0  0  0  0  0  0
    3.1970    0.2660    1.3310 C   0  0  0  0  0  0  0  0  0  0  0  0
    3.9590    0.6710    2.4240 C   0  0  0  0  0  0  0  0  0  0  0  0
    4.6470    1.0400    3.3780 N   0  0  0  0  0  0  0  0  0  0  0  0
    4.9810    1.5210   -2.0710 S   0  0  0  0  0  0  0  0  0  0  0  0
  1  2  1  0
  2  3  1  0
  3  4  2  0
  3 33  1  0
  4  5  1  0
  5  6  1  0
  5  7  2  0
  7  8  1  0
  7 33  1  0
  8  9  2  0
  8 30  1  0
  9 10  1  0
 10 11  1  0
 10 28  2  0
 11 12  1  0
 12 13  2  0
 12 27  1  0
 13 14  1  0
 14 15  2  0
 15 16  1  0
 15 17  1  0
 17 18  1  0
 17 27  2  0
 18 19  2  0
 18 20  2  0
 18 21  1  6
 21 22  1  0
 21 26  1  0
 22 23  1  0
 23 24  1  0
 24 25  1  0
 25 26  1  0
 28 29  1  0
 29 30  2  0
 30 31  1  0
 31 32  3  0
M  END
