
     RDKit          3D

 32 36  0  0  0  0  0  0  0  0999 V2000
    6.5990    3.4140    1.0810 C   0  0  0  0  0  0  0  0  0  0  0  0
    5.3190    2.7790    0.9730 N   0  0  0  0  0  0  0  0  0  0  0  0
    5.2260    1.3890    0.7020 C   0  0  0  0  0  0  0  0  0  0  0  0
    6.3880    0.6680    0.5470 C   0  0  0  0  0  0  0  0  0  0  0  0
    6.3180   -0.6810    0.2850 C   0  0  0  0  0  0  0  0  0  0  0  0
    5.0970   -1.3110    0.1770 C   0  0  0  0  0  0  0  0  0  0  0  0
    3.9400   -0.5760    0.3340 C   0  0  0  0  0  0  0  0  0  0  0  0
    2.6440   -1.2720    0.2150 C   0  0  2  0  0  0  0  0  0  0  0  0
    2.8080   -2.6260   -0.5120 C   0  0  0  0  0  0  0  0  0  0  0  0
    3.1710   -2.4630   -1.9480 C   0  0  0  0  0  0  0  0  0  0  0  0
    2.2060   -1.5270   -2.6410 C   0  0  0  0  0  0  0  0  0  0  0  0
    2.1810   -0.2280   -1.8160 C   0  0  0  0  0  0  0  0  0  0  0  0
    1.6220   -0.6200   -0.5310 N   0  0  2  0  0  0  0  0  0  0  0  0
    0.9080    0.4400    0.0620 C   0  0  0  0  0  0  0  0  0  0  0  0
   -0.5720    0.2220   -0.1850 C   0  0  0  0  0  0  0  0  0  0  0  0
   -1.4400   -0.4770    0.6450 C   0  0  0  0  0  0  0  0  0  0  0  0
   -2.7060   -0.4680    0.1000 C   0  0  0  0  0  0  0  0  0  0  0  0
   -4.1270   -1.2210    0.7900 S   0  0  2  0  0  0  0  0  0  0  0  0
   -3.7950   -2.4880    1.5190 O   0  0  0  0  0  0  0  0  0  0  0  0
   -5.1800   -1.5440   -0.3410 N   0  0  0  0  0  0  0  0  0  0  0  0
   -6.5570   -1.5350    0.0610 C   0  0  0  0  0  0  0  0  0  0  0  0
   -6.9460   -0.1740    0.5520 C   0  0  0  0  0  0  0  0  0  0  0  0
   -8.1460    0.4010    0.1580 C   0  0  0  0  0  0  0  0  0  0  0  0
   -8.4870    1.6600    0.6290 C   0  0  0  0  0  0  0  0  0  0  0  0
   -7.6720    2.3630    1.4790 C   0  0  0  0  0  0  0  0  0  0  0  0
   -6.4890    1.7950    1.8670 C   0  0  0  0  0  0  0  0  0  0  0  0
   -5.6400    2.4390    2.7080 F   0  0  0  0  0  0  0  0  0  0  0  0
   -6.1140    0.5180    1.4060 C   0  0  0  0  0  0  0  0  0  0  0  0
   -4.8910   -0.0630    1.8080 N   0  0  0  0  0  0  0  0  0  0  0  0
   -2.5860    0.2510   -1.0750 C   0  0  0  0  0  0  0  0  0  0  0  0
   -1.3050    0.6540   -1.2260 N   0  0  0  0  0  0  0  0  0  0  0  0
    3.9890    0.7560    0.5940 C   0  0  0  0  0  0  0  0  0  0  0  0
  1  2  1  0
  2  3  1  0
  3  4  2  0
  3 32  1  0
  4  5  1  0
  5  6  2  0
  6  7  1  0
  8  7  1  6
  7 32  2  0
  8  9  1  0
  8 13  1  0
  9 10  1  0
 10 11  1  0
 11 12  1  0
 12 13  1  0
 13 14  1  1
 14 15  1  0
 15 16  2  0
 15 31  1  0
 16 17  1  0
 18 17  1  6
 17 30  2  0
 18 19  2  0
 18 20  2  0
 18 29  1  0
 20 21  1  0
 21 22  1  0
 22 23  2  0
 22 28  1  0
 23 24  1  0
 24 25  2  0
 25 26  1  0
 26 27  1  0
 26 28  2  0
 28 29  1  0
 30 31  1  0
M  CHG  1  13   1
M  END
