
     RDKit          3D

 33 35  0  0  0  0  0  0  0  0999 V2000
   -5.9990    1.0820    4.3710 C   0  0  0  0  0  0  0  0  0  0  0  0
   -5.7400    0.8080    2.9870 O   0  0  0  0  0  0  0  0  0  0  0  0
   -6.8030    0.5780    2.1040 C   0  0  0  0  0  0  0  0  0  0  0  0
   -7.9460    0.6280    2.5930 O   0  0  0  0  0  0  0  0  0  0  0  0
   -6.5370    0.3010    0.7040 C   0  0  0  0  0  0  0  0  0  0  0  0
   -5.2370    0.2580    0.2180 C   0  0  0  0  0  0  0  0  0  0  0  0
   -4.9170    0.0050   -1.0770 C   0  0  0  0  0  0  0  0  0  0  0  0
   -3.6370   -0.0690   -1.6520 N   0  0  0  0  0  0  0  0  0  0  0  0
   -2.3990   -0.0510   -0.9430 C   0  0  0  0  0  0  0  0  0  0  0  0
   -2.4240    0.0360    0.2980 O   0  0  0  0  0  0  0  0  0  0  0  0
   -1.1560   -0.1280   -1.6170 N   0  0  0  0  0  0  0  0  0  0  0  0
    0.1250   -0.1240   -1.0490 C   0  0  0  0  0  0  0  0  0  0  0  0
    1.2400   -0.0330   -1.8830 C   0  0  0  0  0  0  0  0  0  0  0  0
    2.5190   -0.0330   -1.3960 C   0  0  0  0  0  0  0  0  0  0  0  0
    2.7310   -0.1280   -0.0190 C   0  0  0  0  0  0  0  0  0  0  0  0
    4.0450   -0.1310    0.4990 C   0  0  0  0  0  0  0  0  0  0  0  0
    5.1310   -0.0220   -0.5120 C   0  0  0  0  0  0  0  0  0  0  0  0
    6.3480   -0.0380    0.0860 O   0  0  0  0  0  0  0  0  0  0  0  0
    7.4230    0.0580   -0.7590 C   0  0  2  0  0  0  0  0  0  0  0  0
    8.3130   -1.1590   -0.7620 C   0  0  0  0  0  0  0  0  0  0  0  0
    8.2520    1.2950   -0.5560 C   0  0  0  0  0  0  0  0  0  0  0  0
    4.2100   -0.2250    1.8410 C   0  0  0  0  0  0  0  0  0  0  0  0
    5.5640   -0.2330    2.4350 C   0  0  0  0  0  0  0  0  0  0  0  0
    3.1070   -0.3150    2.6430 N   0  0  0  0  0  0  0  0  0  0  0  0
    1.8580   -0.3130    2.1730 C   0  0  0  0  0  0  0  0  0  0  0  0
    0.8600   -0.3960    2.9310 O   0  0  0  0  0  0  0  0  0  0  0  0
    1.6520   -0.2180    0.8070 C   0  0  0  0  0  0  0  0  0  0  0  0
    0.3630   -0.2160    0.2840 C   0  0  0  0  0  0  0  0  0  0  0  0
   -6.0030   -0.2200   -1.9430 C   0  0  0  0  0  0  0  0  0  0  0  0
   -7.3040   -0.1870   -1.5050 C   0  0  0  0  0  0  0  0  0  0  0  0
   -8.3780   -0.4060   -2.3420 O   0  0  0  0  0  0  0  0  0  0  0  0
   -8.2810   -0.6820   -3.7050 C   0  0  0  0  0  0  0  0  0  0  0  0
   -7.5820    0.0780   -0.1580 C   0  0  0  0  0  0  0  0  0  0  0  0
  1  2  1  0
  2  3  1  0
  3  4  2  0
  3  5  1  0
  5  6  2  0
  5 33  1  0
  6  7  1  0
  7  8  1  0
  7 29  2  0
  8  9  1  0
  9 10  2  0
  9 11  1  0
 11 12  1  0
 12 13  2  0
 12 28  1  0
 13 14  1  0
 14 15  2  0
 15 16  1  0
 15 27  1  0
 16 17  1  0
 16 22  2  0
 17 18  1  0
 18 19  1  0
 19 20  1  1
 19 21  1  0
 22 23  1  0
 22 24  1  0
 24 25  1  0
 25 26  2  0
 25 27  1  0
 27 28  2  0
 29 30  1  0
 30 31  1  0
 30 33  2  0
 31 32  1  0
M  END
