
     RDKit          3D

 33 35  0  0  0  0  0  0  0  0999 V2000
    9.9060   -0.2730   -0.2050 C   0  0  0  0  0  0  0  0  0  0  0  0
    8.8400    0.6400    0.4110 C   0  0  0  0  0  0  0  0  0  0  0  0
    7.5240    0.1100   -0.0210 C   0  0  0  0  0  0  0  0  0  0  0  0
    6.7110   -0.8280    0.5890 C   0  0  0  0  0  0  0  0  0  0  0  0
    5.6040   -0.9690   -0.2130 C   0  0  0  0  0  0  0  0  0  0  0  0
    5.7640   -0.1270   -1.2770 C   0  0  0  0  0  0  0  0  0  0  0  0
    4.8670    0.0940   -2.4100 C   0  0  0  0  0  0  0  0  0  0  0  0
    5.1880    0.9160   -3.3000 O   0  0  0  0  0  0  0  0  0  0  0  0
    3.6240   -0.6350   -2.4900 N   0  0  0  0  0  0  0  0  0  0  0  0
    2.6920   -0.3670   -1.6030 C   0  0  0  0  0  0  0  0  0  0  0  0
    1.4960   -0.9250   -1.5140 N   0  0  0  0  0  0  0  0  0  0  0  0
    0.7790   -0.3880   -0.4460 C   0  0  0  0  0  0  0  0  0  0  0  0
   -0.5690   -0.7960   -0.1520 C   0  0  0  0  0  0  0  0  0  0  0  0
   -1.2880   -0.6240    0.8930 C   0  0  0  0  0  0  0  0  0  0  0  0
   -2.6850   -1.1890    0.8590 C   0  0  0  0  0  0  0  0  0  0  0  0
   -3.0700   -1.7860   -0.1580 O   0  0  0  0  0  0  0  0  0  0  0  0
   -3.5150   -1.0500    1.9270 O   0  0  0  0  0  0  0  0  0  0  0  0
   -4.8290   -1.5940    1.8640 C   0  0  0  0  0  0  0  0  0  0  0  0
   -5.6150   -0.9920    0.7590 C   0  0  0  0  0  0  0  0  0  0  0  0
   -5.1990    0.1260    0.0800 C   0  0  0  0  0  0  0  0  0  0  0  0
   -5.9600    0.6470   -0.9420 C   0  0  0  0  0  0  0  0  0  0  0  0
   -5.5360    1.8500   -1.6900 C   0  0  0  0  0  0  0  0  0  0  0  0
   -7.1450    0.0510   -1.2910 C   0  0  0  0  0  0  0  0  0  0  0  0
   -7.5540   -1.0730   -0.6020 C   0  0  0  0  0  0  0  0  0  0  0  0
   -8.8420   -1.6930   -1.0050 C   0  0  0  0  0  0  0  0  0  0  0  0
   -6.8110   -1.6130    0.4230 C   0  0  0  0  0  0  0  0  0  0  0  0
    1.6050    0.5450    0.1240 C   0  0  0  0  0  0  0  0  0  0  0  0
    1.3980    1.4550    1.2360 C   0  0  0  0  0  0  0  0  0  0  0  0
    2.3920    2.2330    1.5230 O   0  0  0  0  0  0  0  0  0  0  0  0
    0.3270    1.6260    2.0210 O   0  0  0  0  0  0  0  0  0  0  0  0
    0.2030    2.5420    3.0870 C   0  0  0  0  0  0  0  0  0  0  0  0
    2.7600    0.5180   -0.6180 N   0  0  0  0  0  0  0  0  0  0  0  0
    6.9090    0.4780   -1.1090 O   0  0  0  0  0  0  0  0  0  0  0  0
  1  2  1  0
  2  3  1  0
  3  4  2  0
  3 33  1  0
  4  5  1  0
  5  6  2  0
  6  7  1  0
  6 33  1  0
  7  8  2  0
  7  9  1  0
  9 10  2  3
 10 11  1  0
 10 32  1  0
 11 12  1  0
 12 13  1  0
 12 27  2  0
 13 14  2  3
 14 15  1  0
 15 16  2  0
 15 17  1  0
 17 18  1  0
 18 19  1  0
 19 20  2  0
 19 26  1  0
 20 21  1  0
 21 22  1  0
 21 23  2  0
 23 24  1  0
 24 25  1  0
 24 26  2  0
 27 28  1  0
 27 32  1  0
 28 29  2  0
 28 30  1  0
 30 31  1  0
M  END
