
     RDKit          3D

 24 25  0  0  0  0  0  0  0  0999 V2000
    6.5400    1.5640   -0.1070 C   0  0  0  0  0  0  0  0  0  0  0  0
    5.4140    0.7160   -1.2000 S   0  0  0  0  0  0  0  0  0  0  0  0
    3.8180    0.3390   -0.4100 C   0  0  0  0  0  0  0  0  0  0  0  0
    3.7150    0.7470    0.8890 C   0  0  0  0  0  0  0  0  0  0  0  0
    2.5470    0.4950    1.5150 N   0  0  0  0  0  0  0  0  0  0  0  0
    1.4690    0.7530    2.0260 C   0  0  0  0  0  0  0  0  0  0  0  0
    0.7360   -0.3360    2.5460 N   0  0  0  0  0  0  0  0  0  0  0  0
   -0.1340   -1.1250    2.1570 C   0  0  0  0  0  0  0  0  0  0  0  0
   -0.6090   -2.1330    3.0950 N   0  0  0  0  0  0  0  0  0  0  0  0
   -0.7790   -1.1560    0.7930 C   0  0  0  0  0  0  0  0  0  0  0  0
   -0.8030    0.1050    0.1400 N   0  0  0  0  0  0  0  0  0  0  0  0
   -1.5050    1.1910    0.7860 C   0  0  0  0  0  0  0  0  0  0  0  0
   -2.9050    1.3710    0.3880 C   0  0  0  0  0  0  0  0  0  0  0  0
   -3.4180    2.4740   -0.1930 C   0  0  0  0  0  0  0  0  0  0  0  0
   -4.8580    2.2960   -0.4490 C   0  0  0  0  0  0  0  0  0  0  0  0
   -5.1430    0.9510    0.0580 C   0  0  0  0  0  0  0  0  0  0  0  0
   -3.9950    0.4500    0.5310 C   0  0  0  0  0  0  0  0  0  0  0  0
   -0.1690    0.4070   -1.1000 C   0  0  0  0  0  0  0  0  0  0  0  0
    0.2960    1.5770   -1.2190 O   0  0  0  0  0  0  0  0  0  0  0  0
   -0.0020   -0.4870   -2.2350 C   0  0  2  0  0  0  0  0  0  0  0  0
   -1.2840   -1.2200   -2.6000 C   0  0  0  0  0  0  0  0  0  0  0  0
    1.0340   -1.4830   -2.0770 N   0  0  0  0  0  0  0  0  0  0  0  0
    2.1190   -1.3460   -1.1010 C   0  0  0  0  0  0  0  0  0  0  0  0
    2.7780   -0.3140   -1.0500 N   0  0  0  0  0  0  0  0  0  0  0  0
  1  2  1  0
  2  3  1  0
  3  4  2  0
  3 24  1  0
  4  5  1  0
  5  6  2  0
  6  7  1  0
  7  8  2  0
  8  9  1  0
  8 10  1  0
 10 11  1  0
 11 12  1  0
 11 18  1  0
 12 13  1  0
 13 14  2  0
 13 17  1  0
 14 15  1  0
 15 16  1  0
 16 17  2  0
 18 19  2  0
 18 20  1  0
 20 21  1  1
 20 22  1  0
 22 23  1  0
 23 24  2  0
M  END
