
     RDKit          3D

 24 26  0  0  0  0  0  0  0  0999 V2000
   -5.8880   -1.6730   -1.3990 C   0  0  0  0  0  0  0  0  0  0  0  0
   -4.9050   -0.8100   -1.3580 C   0  0  0  0  0  0  0  0  0  0  0  0
   -4.2120   -0.4510   -2.5750 C   0  0  0  0  0  0  0  0  0  0  0  0
   -3.2400    0.3850   -2.6220 N   0  0  0  0  0  0  0  0  0  0  0  0
   -4.5200   -0.2110   -0.0350 C   0  0  0  0  0  0  0  0  0  0  0  0
   -3.1580   -0.5090    0.3000 N   0  0  0  0  0  0  0  0  0  0  0  0
   -2.4630   -0.1270    1.4650 C   0  0  0  0  0  0  0  0  0  0  0  0
   -1.1380   -0.4460    1.7270 C   0  0  0  0  0  0  0  0  0  0  0  0
   -0.1890   -1.2110    0.8990 C   0  0  0  0  0  0  0  0  0  0  0  0
   -0.4720   -1.6970   -0.2050 O   0  0  0  0  0  0  0  0  0  0  0  0
    1.1430   -1.4010    1.4120 N   0  0  0  0  0  0  0  0  0  0  0  0
    2.0870   -0.5850    1.1090 C   0  0  0  0  0  0  0  0  0  0  0  0
    2.0450    0.5730    0.2830 N   0  0  0  0  0  0  0  0  0  0  0  0
    3.3050    0.8140   -0.3810 C   0  0  2  0  0  0  0  0  0  0  0  0
    3.5240   -0.3310   -1.3430 C   0  0  0  0  0  0  0  0  0  0  0  0
    4.8960   -0.3430   -1.9520 C   0  0  0  0  0  0  0  0  0  0  0  0
    5.7080    0.7960   -1.3690 C   0  0  0  0  0  0  0  0  0  0  0  0
    5.7430    0.5800    0.1310 C   0  0  0  0  0  0  0  0  0  0  0  0
    4.3890    0.8050    0.7080 C   0  0  2  0  0  0  0  0  0  0  0  0
    3.8050   -0.6640    1.6560 S   0  0  0  0  0  0  0  0  0  0  0  0
   -0.8380    0.0950    2.9430 C   0  0  0  0  0  0  0  0  0  0  0  0
   -1.9470    0.7010    3.3640 N   0  0  0  0  0  0  0  0  0  0  0  0
   -2.9390    0.5790    2.4880 N   0  0  0  0  0  0  0  0  0  0  0  0
   -4.2820    1.1500    2.6940 C   0  0  0  0  0  0  0  0  0  0  0  0
  1  2  2  0
  2  3  1  0
  2  5  1  0
  3  4  2  0
  5  6  1  0
  6  7  1  0
  7  8  2  0
  7 23  1  0
  8  9  1  0
  8 21  1  0
  9 10  2  0
  9 11  1  0
 11 12  2  3
 12 13  1  0
 12 20  1  0
 13 14  1  0
 14 15  1  6
 14 19  1  0
 15 16  1  0
 16 17  1  0
 17 18  1  0
 19 18  1  6
 19 20  1  0
 21 22  2  0
 22 23  1  0
 23 24  1  0
M  END
