
     RDKit          3D

 33 34  0  0  0  0  0  0  0  0999 V2000
    5.4930   -3.0520   -0.2550 C   0  0  0  0  0  0  0  0  0  0  0  0
    4.7210   -1.9340   -0.1670 O   0  0  0  0  0  0  0  0  0  0  0  0
    4.8720   -0.5980   -0.1920 C   0  0  0  0  0  0  0  0  0  0  0  0
    6.0970    0.0350   -0.3140 C   0  0  0  0  0  0  0  0  0  0  0  0
    6.1310    1.4170   -0.3520 C   0  0  0  0  0  0  0  0  0  0  0  0
    7.4090    2.1620   -0.5520 C   0  0  0  0  0  0  0  0  0  0  0  0
    8.2600    2.0240    0.6680 N   0  0  0  0  0  0  0  0  0  0  0  0
    5.0180    2.2080   -0.2830 C   0  0  0  0  0  0  0  0  0  0  0  0
    5.0530    3.5680   -0.3210 O   0  0  0  0  0  0  0  0  0  0  0  0
    3.8080    1.5560   -0.1560 C   0  0  0  0  0  0  0  0  0  0  0  0
    3.6990    0.1860   -0.1040 C   0  0  0  0  0  0  0  0  0  0  0  0
    2.5170   -0.4940    0.2050 N   0  0  0  0  0  0  0  0  0  0  0  0
    1.2310    0.0540    0.3260 C   0  0  0  0  0  0  0  0  0  0  0  0
    1.0450    1.3070    0.0750 O   0  0  0  0  0  0  0  0  0  0  0  0
    0.1500   -0.7080    0.7230 N   0  0  0  0  0  0  0  0  0  0  0  0
    0.1410   -2.0890    1.1630 C   0  0  0  0  0  0  0  0  0  0  0  0
   -0.9410   -2.8160    0.3470 C   0  0  0  0  0  0  0  0  0  0  0  0
   -1.2830   -1.9270   -0.8350 C   0  0  0  0  0  0  0  0  0  0  0  0
   -1.9530   -0.6510   -0.4750 C   0  0  1  0  0  0  0  0  0  0  0  0
   -1.5660    0.3050   -1.5880 C   0  0  0  0  0  0  0  0  0  0  0  0
   -1.7980    1.6910   -1.5410 N   0  0  0  0  0  0  0  0  0  0  0  0
   -0.8300   -0.2510   -2.9410 S   0  0  0  0  0  0  0  0  0  0  0  0
   -3.3710   -0.6450   -0.3750 N   0  0  2  0  0  0  0  0  0  0  0  0
   -4.0370   -0.5920    0.8540 C   0  0  0  0  0  0  0  0  0  0  0  0
   -4.0750    0.4390    1.8570 C   0  0  0  0  0  0  0  0  0  0  0  0
   -4.3990    1.8510    1.5730 C   0  0  0  0  0  0  0  0  0  0  0  0
   -5.6950    2.0560    0.8200 C   0  0  0  0  0  0  0  0  0  0  0  0
   -6.0420    3.4070    0.6700 O   0  0  0  0  0  0  0  0  0  0  0  0
   -3.8400   -1.8940   -1.0420 C   0  0  0  0  0  0  0  0  0  0  0  0
   -5.1510   -1.6240   -1.6780 C   0  0  0  0  0  0  0  0  0  0  0  0
   -5.7320   -0.3480   -1.7260 N   0  0  0  0  0  0  0  0  0  0  0  0
   -5.8110   -2.5750   -2.2230 O   0  0  0  0  0  0  0  0  0  0  0  0
   -1.2060   -0.1110    0.7260 C   0  0  0  0  0  0  0  0  0  0  0  0
  1  2  1  0
  2  3  1  0
  3  4  2  0
  3 11  1  0
  4  5  1  0
  5  6  1  0
  5  8  2  0
  6  7  1  0
  8  9  1  0
  8 10  1  0
 10 11  2  0
 11 12  1  0
 12 13  1  0
 13 14  2  0
 13 15  1  0
 15 16  1  0
 15 33  1  0
 16 17  1  0
 17 18  1  0
 18 19  1  0
 19 20  1  6
 19 23  1  0
 19 33  1  0
 20 21  1  0
 20 22  2  0
 23 24  1  1
 23 29  1  0
 24 25  1  0
 25 26  1  0
 26 27  1  0
 27 28  1  0
 29 30  1  0
 30 31  1  0
 30 32  2  0
M  CHG  1  23   1
M  END
