
     RDKit          3D

 32 34  0  0  0  0  0  0  0  0999 V2000
   -9.1920   -0.6620    0.1230 C   0  0  0  0  0  0  0  0  0  0  0  0
   -7.6750   -0.7890    0.0340 C   0  0  0  0  0  0  0  0  0  0  0  0
   -6.9630    0.2210    0.3920 C   0  0  0  0  0  0  0  0  0  0  0  0
   -5.5540    0.4830    0.4520 C   0  0  0  0  0  0  0  0  0  0  0  0
   -4.5560   -0.4090    0.1880 C   0  0  0  0  0  0  0  0  0  0  0  0
   -4.8550   -1.8210   -0.1490 C   0  0  0  0  0  0  0  0  0  0  0  0
   -3.2000   -0.0260    0.2490 C   0  0  0  0  0  0  0  0  0  0  0  0
   -2.8490    1.2520    0.5770 C   0  0  0  0  0  0  0  0  0  0  0  0
   -1.4630    1.6460    0.6340 C   0  0  0  0  0  0  0  0  0  0  0  0
   -1.1150    2.5300    1.4580 O   0  0  0  0  0  0  0  0  0  0  0  0
   -0.5070    1.0110   -0.2630 C   0  0  0  0  0  0  0  0  0  0  0  0
   -0.9330    0.5390   -1.4820 C   0  0  0  0  0  0  0  0  0  0  0  0
   -0.0080   -0.0250   -2.2630 N   0  0  0  0  0  0  0  0  0  0  0  0
    1.3110   -0.1490   -1.9060 C   0  0  0  0  0  0  0  0  0  0  0  0
    1.7460    0.3170   -0.6970 C   0  0  0  0  0  0  0  0  0  0  0  0
    3.0820    0.2280   -0.2560 N   0  0  0  0  0  0  0  0  0  0  0  0
    4.1910   -0.3140   -0.8980 C   0  0  0  0  0  0  0  0  0  0  0  0
    4.0490   -0.8110   -2.0330 O   0  0  0  0  0  0  0  0  0  0  0  0
    5.5520   -0.3530   -0.3390 C   0  0  0  0  0  0  0  0  0  0  0  0
    5.8490    0.0210    0.9510 C   0  0  0  0  0  0  0  0  0  0  0  0
    7.1570   -0.0240    1.4520 C   0  0  0  0  0  0  0  0  0  0  0  0
    7.4100    0.3480    2.7140 F   0  0  0  0  0  0  0  0  0  0  0  0
    8.2010   -0.4480    0.6610 C   0  0  0  0  0  0  0  0  0  0  0  0
    9.5980   -0.4980    1.1880 C   0  0  0  0  0  0  0  0  0  0  0  0
    7.9010   -0.8220   -0.6330 C   0  0  0  0  0  0  0  0  0  0  0  0
    8.9360   -1.2390   -1.4070 F   0  0  0  0  0  0  0  0  0  0  0  0
    6.6150   -0.7790   -1.1280 C   0  0  0  0  0  0  0  0  0  0  0  0
    0.8000    0.9180    0.1550 C   0  0  0  0  0  0  0  0  0  0  0  0
    1.2100    1.3870    1.3600 F   0  0  0  0  0  0  0  0  0  0  0  0
   -3.8220    2.1280    0.8370 N   0  0  0  0  0  0  0  0  0  0  0  0
   -5.1160    1.7830    0.7840 C   0  0  0  0  0  0  0  0  0  0  0  0
   -6.0270    2.6270    1.0340 O   0  0  0  0  0  0  0  0  0  0  0  0
  1  2  1  0
  2  3  2  3
  3  4  1  0
  4  5  2  0
  4 31  1  0
  5  6  1  0
  5  7  1  0
  7  8  2  0
  8  9  1  0
  8 30  1  0
  9 10  2  0
  9 11  1  0
 11 12  2  0
 11 28  1  0
 12 13  1  0
 13 14  2  0
 14 15  1  0
 15 16  1  0
 15 28  2  0
 16 17  1  0
 17 18  2  0
 17 19  1  0
 19 20  2  0
 19 27  1  0
 20 21  1  0
 21 22  1  0
 21 23  2  0
 23 24  1  0
 23 25  1  0
 25 26  1  0
 25 27  2  0
 28 29  1  0
 30 31  1  0
 31 32  2  0
M  END
