
     RDKit          3D

 33 34  0  0  0  0  0  0  0  0999 V2000
   -5.0850    0.3310   -3.6560 C   0  0  0  0  0  0  0  0  0  0  0  0
   -6.0930   -0.1890   -2.8470 O   0  0  0  0  0  0  0  0  0  0  0  0
   -5.9800   -0.1960   -1.4700 C   0  0  0  0  0  0  0  0  0  0  0  0
   -7.0020   -0.7200   -0.6800 C   0  0  0  0  0  0  0  0  0  0  0  0
   -6.9060   -0.7340    0.6810 C   0  0  0  0  0  0  0  0  0  0  0  0
   -7.9600   -1.2760    1.4800 N   0  0  0  0  0  0  0  0  0  0  0  0
   -5.7910   -0.2250    1.2660 C   0  0  0  0  0  0  0  0  0  0  0  0
   -4.7490    0.3070    0.5370 C   0  0  0  0  0  0  0  0  0  0  0  0
   -3.6250    0.8900    1.2560 C   0  0  0  0  0  0  0  0  0  0  0  0
   -2.5880    0.0150    1.8220 C   0  0  0  0  0  0  0  0  0  0  0  0
   -1.7870   -0.8450    1.0450 N   0  0  0  0  0  0  0  0  0  0  0  0
   -2.0810   -2.2440    0.9240 C   0  0  0  0  0  0  0  0  0  0  0  0
   -2.6900   -2.7050   -0.3080 C   0  0  0  0  0  0  0  0  0  0  0  0
   -3.0360   -4.1000   -0.4160 N   0  0  0  0  0  0  0  0  0  0  0  0
   -2.9390   -1.9940   -1.2800 O   0  0  0  0  0  0  0  0  0  0  0  0
   -0.5360   -0.3960    0.4490 C   0  0  0  0  0  0  0  0  0  0  0  0
    0.1560   -1.1840   -0.2420 O   0  0  0  0  0  0  0  0  0  0  0  0
   -0.0470    0.9860    0.6360 C   0  0  0  0  0  0  0  0  0  0  0  0
    1.2190    1.1260   -0.0470 N   0  0  0  0  0  0  0  0  0  0  0  0
    2.3010    0.3190    0.3550 C   0  0  0  0  0  0  0  0  0  0  0  0
    2.1350   -0.4920    1.2960 O   0  0  0  0  0  0  0  0  0  0  0  0
    3.6660    0.3700   -0.2820 C   0  0  1  0  0  0  0  0  0  0  0  0
    3.6750    1.2550   -1.4130 N   0  0  0  0  0  0  0  0  0  0  0  0
    4.6500    0.7410    0.8020 C   0  0  0  0  0  0  0  0  0  0  0  0
    6.0490    0.8130    0.3080 C   0  0  0  0  0  0  0  0  0  0  0  0
    6.2710    0.5040   -0.8830 O   0  0  0  0  0  0  0  0  0  0  0  0
    7.1110    1.2160    1.1330 N   0  0  0  0  0  0  0  0  0  0  0  0
    8.5070    1.2940    0.6770 C   0  0  0  0  0  0  0  0  0  0  0  0
    9.0120    0.7170   -0.4140 C   0  0  0  0  0  0  0  0  0  0  0  0
   10.2980    0.8890   -0.7380 C   0  0  0  0  0  0  0  0  0  0  0  0
   10.9760    1.9680    0.5720 S   0  0  0  0  0  0  0  0  0  0  0  0
    9.3690    2.0690    1.4510 C   0  0  0  0  0  0  0  0  0  0  0  0
   -4.8760    0.3050   -0.8160 C   0  0  0  0  0  0  0  0  0  0  0  0
  1  2  1  0
  2  3  1  0
  3  4  2  0
  3 33  1  0
  4  5  1  0
  5  6  1  0
  5  7  2  0
  7  8  1  0
  8  9  1  0
  8 33  2  0
  9 10  1  0
 10 11  1  0
 11 12  1  0
 11 16  1  0
 12 13  1  0
 13 14  1  0
 13 15  2  0
 16 17  2  0
 16 18  1  0
 18 19  1  0
 19 20  1  0
 20 21  2  0
 20 22  1  0
 22 23  1  6
 22 24  1  0
 24 25  1  0
 25 26  2  0
 25 27  1  0
 27 28  1  0
 28 29  1  0
 28 32  2  0
 29 30  2  0
 30 31  1  0
 31 32  1  0
M  CHG  1  23   1
M  END
