
     RDKit          3D

 32 35  0  0  0  0  0  0  0  0999 V2000
   -3.6140    1.5470   -0.7920 O   0  0  0  0  0  0  0  0  0  0  0  0
   -4.2190    0.6730   -0.1050 C   0  0  0  0  0  0  0  0  0  0  0  0
   -3.6770   -0.6130    0.0650 N   0  0  0  0  0  0  0  0  0  0  0  0
   -2.4630   -1.0570   -0.4840 C   0  0  0  0  0  0  0  0  0  0  0  0
   -1.6220   -0.3110   -1.2690 C   0  0  0  0  0  0  0  0  0  0  0  0
   -0.4190   -0.8220   -1.7890 C   0  0  0  0  0  0  0  0  0  0  0  0
    0.3760   -0.0490   -2.5570 F   0  0  0  0  0  0  0  0  0  0  0  0
   -0.0550   -2.1090   -1.5150 C   0  0  0  0  0  0  0  0  0  0  0  0
    1.1000   -2.6920   -1.9800 O   0  0  0  0  0  0  0  0  0  0  0  0
    2.3560   -2.1940   -1.6770 C   0  0  0  0  0  0  0  0  0  0  0  0
    3.1570   -1.7960   -2.7210 C   0  0  0  0  0  0  0  0  0  0  0  0
    4.4130   -1.2940   -2.4780 C   0  0  0  0  0  0  0  0  0  0  0  0
    4.8790   -1.1890   -1.1690 C   0  0  0  0  0  0  0  0  0  0  0  0
    6.1930   -0.6730   -0.9720 N   0  0  0  0  0  0  0  0  0  0  0  0
    6.7120   -0.4510    0.3500 C   0  0  0  0  0  0  0  0  0  0  0  0
    5.9570    0.6110    1.0700 C   0  0  0  0  0  0  0  0  0  0  0  0
    4.9540    1.3150    0.6310 C   0  0  0  0  0  0  0  0  0  0  0  0
    4.5090    2.2560    1.6800 C   0  0  0  0  0  0  0  0  0  0  0  0
    5.4100    1.9920    2.8010 C   0  0  0  0  0  0  0  0  0  0  0  0
    6.2400    1.0480    2.4510 C   0  0  0  0  0  0  0  0  0  0  0  0
    4.0910   -1.5840   -0.1100 C   0  0  0  0  0  0  0  0  0  0  0  0
    2.8240   -2.0880   -0.3750 C   0  0  0  0  0  0  0  0  0  0  0  0
    2.0400   -2.4760    0.6400 F   0  0  0  0  0  0  0  0  0  0  0  0
   -0.8890   -2.8790   -0.7250 C   0  0  0  0  0  0  0  0  0  0  0  0
   -2.0580   -2.3650   -0.2260 C   0  0  0  0  0  0  0  0  0  0  0  0
   -2.8550   -3.1390    0.5430 F   0  0  0  0  0  0  0  0  0  0  0  0
   -5.4570    1.1160    0.4540 N   0  0  0  0  0  0  0  0  0  0  0  0
   -5.8910    2.4540    0.2210 C   0  0  0  0  0  0  0  0  0  0  0  0
   -7.3030    2.7700    0.5450 C   0  0  0  0  0  0  0  0  0  0  0  0
   -7.9030    1.8420    1.3950 O   0  0  0  0  0  0  0  0  0  0  0  0
   -7.7150    0.5430    0.9310 C   0  0  0  0  0  0  0  0  0  0  0  0
   -6.2440    0.2060    1.2390 C   0  0  0  0  0  0  0  0  0  0  0  0
  1  2  2  0
  2  3  1  0
  2 27  1  0
  3  4  1  0
  4  5  2  0
  4 25  1  0
  5  6  1  0
  6  7  1  0
  6  8  2  0
  8  9  1  0
  8 24  1  0
  9 10  1  0
 10 11  2  0
 10 22  1  0
 11 12  1  0
 12 13  2  0
 13 14  1  0
 13 21  1  0
 14 15  1  0
 15 16  1  0
 16 17  2  0
 16 20  1  0
 17 18  1  0
 18 19  1  0
 19 20  2  0
 21 22  2  0
 22 23  1  0
 24 25  2  0
 25 26  1  0
 27 28  1  0
 27 32  1  0
 28 29  1  0
 29 30  1  0
 30 31  1  0
 31 32  1  0
M  END
