
     RDKit          3D

 33 34  0  0  0  0  0  0  0  0999 V2000
    4.8180    3.2550   -1.4640 N   0  0  0  0  0  0  0  0  0  0  0  0
    3.5690    2.6750   -1.3020 C   0  0  0  0  0  0  0  0  0  0  0  0
    2.6770    3.3440   -2.0530 O   0  0  0  0  0  0  0  0  0  0  0  0
    3.0510    1.5710   -0.5430 C   0  0  0  0  0  0  0  0  0  0  0  0
    1.7440    1.4650   -0.7750 N   0  0  0  0  0  0  0  0  0  0  0  0
    0.7530    0.6420   -0.3560 C   0  0  0  0  0  0  0  0  0  0  0  0
    0.4580   -0.5040   -1.1000 C   0  0  0  0  0  0  0  0  0  0  0  0
   -0.5640   -1.3320   -0.7060 C   0  0  0  0  0  0  0  0  0  0  0  0
   -1.3310   -1.0830    0.4110 C   0  0  0  0  0  0  0  0  0  0  0  0
   -2.3450   -1.9340    0.7740 O   0  0  0  0  0  0  0  0  0  0  0  0
   -3.6150   -1.6970    0.2720 C   0  0  0  0  0  0  0  0  0  0  0  0
   -4.5300   -0.8990    0.9210 C   0  0  0  0  0  0  0  0  0  0  0  0
   -5.7820   -0.6860    0.3930 C   0  0  0  0  0  0  0  0  0  0  0  0
   -6.1430   -1.2710   -0.8020 C   0  0  0  0  0  0  0  0  0  0  0  0
   -7.4400   -1.0650   -1.3710 N   0  0  0  0  0  0  0  0  0  0  0  0
   -8.3720   -0.2230   -0.6630 C   0  0  0  0  0  0  0  0  0  0  0  0
   -9.6860   -0.0920   -1.3630 C   0  0  0  0  0  0  0  0  0  0  0  0
  -10.5340    0.7720   -0.5630 N   0  0  0  0  0  0  0  0  0  0  0  0
   -5.2200   -2.0740   -1.4540 C   0  0  0  0  0  0  0  0  0  0  0  0
   -3.9560   -2.2910   -0.9240 C   0  0  0  0  0  0  0  0  0  0  0  0
   -1.0630    0.0450    1.1690 C   0  0  0  0  0  0  0  0  0  0  0  0
   -0.0450    0.8730    0.7810 C   0  0  0  0  0  0  0  0  0  0  0  0
    3.6170    0.6630    0.3190 C   0  0  0  0  0  0  0  0  0  0  0  0
    2.4540   -0.4780    0.9410 S   0  0  0  0  0  0  0  0  0  0  0  0
    4.8370    0.3590    0.8620 N   0  0  0  0  0  0  0  0  0  0  0  0
    6.1280    0.8520    0.7880 C   0  0  0  0  0  0  0  0  0  0  0  0
    6.3880    1.8220    0.0810 O   0  0  0  0  0  0  0  0  0  0  0  0
    7.2800    0.2640    1.5390 C   0  0  0  0  0  0  0  0  0  0  0  0
    7.0430   -0.7180    2.2600 O   0  0  0  0  0  0  0  0  0  0  0  0
    8.5690    0.8030    1.4320 N   0  0  0  0  0  0  0  0  0  0  0  0
    9.6610    0.2230    2.1590 C   0  0  0  0  0  0  0  0  0  0  0  0
    9.8750   -1.2040    1.7460 C   0  0  0  0  0  0  0  0  0  0  0  0
   10.1650   -1.3170    0.3910 O   0  0  0  0  0  0  0  0  0  0  0  0
  1  2  1  0
  2  3  2  0
  2  4  1  0
  4  5  2  3
  4 23  1  0
  5  6  1  0
  6  7  2  0
  6 22  1  0
  7  8  1  0
  8  9  2  0
  9 10  1  0
  9 21  1  0
 10 11  1  0
 11 12  2  0
 11 20  1  0
 12 13  1  0
 13 14  2  0
 14 15  1  0
 14 19  1  0
 15 16  1  0
 16 17  1  0
 17 18  1  0
 19 20  2  0
 21 22  2  0
 23 24  2  0
 23 25  1  0
 25 26  1  0
 26 27  2  0
 26 28  1  0
 28 29  2  0
 28 30  1  0
 30 31  1  0
 31 32  1  0
 32 33  1  0
M  CHG  1  18   1
M  END
