
     RDKit          3D

 29 31  0  0  0  0  0  0  0  0999 V2000
   -6.8040    1.7110   -0.4830 C   0  0  0  0  0  0  0  0  0  0  0  0
   -5.9870    1.1600   -1.3540 C   0  0  0  0  0  0  0  0  0  0  0  0
   -5.5720   -0.1920   -1.3040 N   0  0  0  0  0  0  0  0  0  0  0  0
   -6.4340   -1.3240   -1.3990 C   0  0  0  0  0  0  0  0  0  0  0  0
   -4.1960   -0.4890   -1.1330 C   0  0  0  0  0  0  0  0  0  0  0  0
   -3.2780   -0.4660   -2.1280 C   0  0  0  0  0  0  0  0  0  0  0  0
   -1.9520   -0.8460   -1.8740 C   0  0  0  0  0  0  0  0  0  0  0  0
   -1.6070   -1.2370   -0.6220 C   0  0  0  0  0  0  0  0  0  0  0  0
   -0.3500   -1.6280   -0.2610 O   0  0  0  0  0  0  0  0  0  0  0  0
    0.4780   -0.6480    0.3430 C   0  0  0  0  0  0  0  0  0  0  0  0
   -0.0060    0.2560    1.2510 C   0  0  0  0  0  0  0  0  0  0  0  0
    0.8210    1.1750    1.8120 C   0  0  0  0  0  0  0  0  0  0  0  0
    2.1800    1.1830    1.4140 C   0  0  0  0  0  0  0  0  0  0  0  0
    2.7190    0.3140    0.5120 C   0  0  0  0  0  0  0  0  0  0  0  0
    4.0380    0.2660    0.0130 C   0  0  0  0  0  0  0  0  0  0  0  0
    5.2410    0.3930    0.4890 C   0  0  0  0  0  0  0  0  0  0  0  0
    5.6020    0.6680    1.8270 C   0  0  0  0  0  0  0  0  0  0  0  0
    6.9760    0.9290    2.1720 N   0  0  0  0  0  0  0  0  0  0  0  0
    4.8140    0.6880    2.8180 O   0  0  0  0  0  0  0  0  0  0  0  0
    6.3040    0.0420   -0.5380 C   0  0  0  0  0  0  0  0  0  0  0  0
    5.9500   -0.2400   -1.8500 C   0  0  0  0  0  0  0  0  0  0  0  0
    7.1120   -0.7370   -2.4750 C   0  0  0  0  0  0  0  0  0  0  0  0
    8.1080   -0.7290   -1.5540 C   0  0  0  0  0  0  0  0  0  0  0  0
    7.5780   -0.2500   -0.3880 N   0  0  0  0  0  0  0  0  0  0  0  0
    1.7900   -0.6400   -0.0290 C   0  0  0  0  0  0  0  0  0  0  0  0
   -2.5600   -1.2530    0.4050 C   0  0  0  0  0  0  0  0  0  0  0  0
   -3.8570   -0.8750    0.1520 C   0  0  0  0  0  0  0  0  0  0  0  0
   -4.8680   -0.9560    1.2320 C   0  0  0  0  0  0  0  0  0  0  0  0
   -4.4960   -0.0170    2.3060 N   0  0  0  0  0  0  0  0  0  0  0  0
  1  2  2  0
  2  3  1  0
  3  4  1  0
  3  5  1  0
  5  6  2  0
  5 27  1  0
  6  7  1  0
  7  8  2  0
  8  9  1  0
  8 26  1  0
  9 10  1  0
 10 11  2  0
 10 25  1  0
 11 12  1  0
 12 13  2  0
 13 14  1  0
 14 15  1  0
 14 25  2  0
 15 16  2  3
 16 17  1  0
 16 20  1  0
 17 18  1  0
 17 19  2  0
 20 21  2  0
 20 24  1  0
 21 22  1  0
 22 23  2  0
 23 24  1  0
 26 27  2  0
 27 28  1  0
 28 29  1  0
M  CHG  1  29   1
M  END
