
     RDKit          3D

 29 32  0  0  0  0  0  0  0  0999 V2000
   -2.6870   -1.3050   -0.8500 C   0  0  0  0  0  0  0  0  0  0  0  0
   -3.6550   -0.2460   -0.3690 C   0  0  2  0  0  0  0  0  0  0  0  0
   -3.2820    0.3330    0.8880 N   0  0  0  0  0  0  0  0  0  0  0  0
   -1.8820    0.6510    0.9800 C   0  0  0  0  0  0  0  0  0  0  0  0
   -1.4630    1.7060   -0.0060 C   0  0  0  0  0  0  0  0  0  0  0  0
   -0.0070    2.0160    0.1200 C   0  0  0  0  0  0  0  0  0  0  0  0
    0.8670    0.9080   -0.1040 N   0  0  0  0  0  0  0  0  0  0  0  0
    2.2660    1.0870   -0.0080 C   0  0  0  0  0  0  0  0  0  0  0  0
    2.8410    2.3090    0.2990 C   0  0  0  0  0  0  0  0  0  0  0  0
    4.1960    2.5170    0.4000 C   0  0  0  0  0  0  0  0  0  0  0  0
    5.0650    1.4530    0.1860 C   0  0  0  0  0  0  0  0  0  0  0  0
    6.4220    1.6030    0.2730 C   0  0  0  0  0  0  0  0  0  0  0  0
    7.2410    0.5340    0.0550 C   0  0  0  0  0  0  0  0  0  0  0  0
    8.5970    0.6390    0.1320 N   0  0  0  0  0  0  0  0  0  0  0  0
    9.4250   -0.3960   -0.0780 C   0  0  0  0  0  0  0  0  0  0  0  0
   10.6760   -0.2800   -0.0020 O   0  0  0  0  0  0  0  0  0  0  0  0
    8.9120   -1.6350   -0.3860 C   0  0  0  0  0  0  0  0  0  0  0  0
    9.6350   -2.6420   -0.5930 O   0  0  0  0  0  0  0  0  0  0  0  0
    7.5770   -1.7680   -0.4690 N   0  0  0  0  0  0  0  0  0  0  0  0
    6.7430   -0.7120   -0.2540 C   0  0  0  0  0  0  0  0  0  0  0  0
    5.3750   -0.8560   -0.3410 C   0  0  0  0  0  0  0  0  0  0  0  0
    4.5200    0.2300   -0.1210 C   0  0  0  0  0  0  0  0  0  0  0  0
    3.1480    0.0470   -0.2160 C   0  0  0  0  0  0  0  0  0  0  0  0
   -5.0560   -0.7510   -0.4140 C   0  0  2  0  0  0  0  0  0  0  0  0
   -5.3640   -1.1140   -1.8650 C   0  0  0  0  0  0  0  0  0  0  0  0
   -6.0230    0.2510    0.1250 C   0  0  0  0  0  0  0  0  0  0  0  0
   -7.2760   -0.5970    0.3240 C   0  0  0  0  0  0  0  0  0  0  0  0
   -6.7550   -1.9470    0.7320 C   0  0  0  0  0  0  0  0  0  0  0  0
   -5.2870   -1.9880    0.4050 C   0  0  0  0  0  0  0  0  0  0  0  0
  2  1  1  1
  2  3  1  0
  2 24  1  0
  3  4  1  0
  4  5  1  0
  5  6  1  0
  6  7  1  0
  7  8  1  0
  8  9  2  0
  8 23  1  0
  9 10  1  0
 10 11  2  0
 11 12  1  0
 11 22  1  0
 12 13  2  0
 13 14  1  0
 13 20  1  0
 14 15  1  0
 15 16  2  0
 15 17  1  0
 17 18  2  0
 17 19  1  0
 19 20  1  0
 20 21  2  0
 21 22  1  0
 22 23  2  0
 24 25  1  6
 24 26  1  0
 24 29  1  0
 26 27  1  0
 27 28  1  0
 28 29  1  0
M  CHG  1   3   1
M  END
