
     RDKit          3D

 30 33  0  0  0  0  0  0  0  0999 V2000
    6.8500    3.2380   -1.8990 C   0  0  0  0  0  0  0  0  0  0  0  0
    5.6400    2.9520   -1.1480 N   0  0  0  0  0  0  0  0  0  0  0  0
    5.2810    1.5680   -1.0400 C   0  0  0  0  0  0  0  0  0  0  0  0
    5.8160    0.5200   -1.5070 N   0  0  0  0  0  0  0  0  0  0  0  0
    5.3490   -0.6700   -1.2750 C   0  0  0  0  0  0  0  0  0  0  0  0
    6.0370   -1.8350   -1.9910 C   0  0  0  0  0  0  0  0  0  0  0  0
    4.2570   -0.8320   -0.5000 C   0  0  0  0  0  0  0  0  0  0  0  0
    3.4480   -1.9170   -0.0510 C   0  0  0  0  0  0  0  0  0  0  0  0
    1.9580   -1.5360   -0.0280 N   0  0  0  0  0  0  0  0  0  0  0  0
    1.1330   -2.5450    0.2670 C   0  0  0  0  0  0  0  0  0  0  0  0
   -0.2580   -2.1900    0.5150 N   0  0  0  0  0  0  0  0  0  0  0  0
   -0.6980   -0.8230    0.5710 C   0  0  0  0  0  0  0  0  0  0  0  0
    0.1160    0.2090    0.8660 C   0  0  0  0  0  0  0  0  0  0  0  0
   -0.3590    1.5280    0.9800 C   0  0  0  0  0  0  0  0  0  0  0  0
   -1.6900    1.7250    0.7790 C   0  0  0  0  0  0  0  0  0  0  0  0
   -2.5850    0.6980    0.4740 C   0  0  0  0  0  0  0  0  0  0  0  0
   -3.9540    1.0170    0.4580 N   0  0  0  0  0  0  0  0  0  0  0  0
   -4.3730    1.6550    1.7260 C   0  0  0  0  0  0  0  0  0  0  0  0
   -5.2140    0.6670    2.5120 C   0  0  0  0  0  0  0  0  0  0  0  0
   -6.0420   -0.1370    1.5400 C   0  0  0  0  0  0  0  0  0  0  0  0
   -6.8590    0.6610    0.6860 N   0  0  0  0  0  0  0  0  0  0  0  0
   -6.1970    1.2420   -0.4470 C   0  0  0  0  0  0  0  0  0  0  0  0
   -4.7670    0.7500   -0.6590 C   0  0  0  0  0  0  0  0  0  0  0  0
   -2.0680   -0.5940    0.3650 C   0  0  0  0  0  0  0  0  0  0  0  0
    1.3900   -3.8490    0.5520 N   0  0  0  0  0  0  0  0  0  0  0  0
    2.8190   -4.2700    0.5490 C   0  0  0  0  0  0  0  0  0  0  0  0
    3.3160   -3.0810    0.2330 C   0  0  0  0  0  0  0  0  0  0  0  0
    4.9360   -3.5370    0.3220 C   0  0  0  0  0  0  0  0  0  0  0  0
    6.1400   -3.8980    0.3910 N   0  0  0  0  0  0  0  0  0  0  0  0
    3.8970    0.9060   -0.1000 S   0  0  0  0  0  0  0  0  0  0  0  0
  1  2  1  0
  2  3  1  0
  3  4  2  0
  3 30  1  0
  4  5  1  0
  5  6  1  0
  5  7  2  0
  7  8  1  0
  7 30  1  0
  8  9  2  0
  8 27  1  0
  9 10  1  0
 10 11  1  0
 10 25  2  0
 11 12  1  0
 12 13  2  0
 12 24  1  0
 13 14  1  0
 14 15  2  0
 15 16  1  0
 16 17  1  0
 16 24  2  0
 17 18  1  0
 17 23  1  0
 18 19  1  0
 19 20  1  0
 20 21  1  0
 21 22  1  0
 22 23  1  0
 25 26  1  0
 26 27  2  0
 27 28  1  0
 28 29  3  0
M  CHG  1  21   1
M  END
