
     RDKit          3D

 29 31  0  0  0  0  0  0  0  0999 V2000
   -8.8290    0.5820   -1.0130 C   0  0  0  0  0  0  0  0  0  0  0  0
   -8.2700   -0.6960   -0.4270 C   0  0  0  0  0  0  0  0  0  0  0  0
   -6.8220   -0.5200   -0.2630 C   0  0  0  0  0  0  0  0  0  0  0  0
   -6.2860    0.2250    0.7500 C   0  0  0  0  0  0  0  0  0  0  0  0
   -7.1910    0.8800    1.7230 C   0  0  0  0  0  0  0  0  0  0  0  0
   -4.8970    0.3930    0.9050 C   0  0  0  0  0  0  0  0  0  0  0  0
   -4.0730   -0.2110    0.0090 C   0  0  0  0  0  0  0  0  0  0  0  0
   -2.6610   -0.1250    0.0470 N   0  0  0  0  0  0  0  0  0  0  0  0
   -1.9040    0.5710    0.9840 C   0  0  0  0  0  0  0  0  0  0  0  0
   -2.4940    1.2160    1.9350 O   0  0  0  0  0  0  0  0  0  0  0  0
   -0.4220    0.6580    1.0130 C   0  0  0  0  0  0  0  0  0  0  0  0
    0.2080   -0.0600   -0.0440 N   0  0  0  0  0  0  0  0  0  0  0  0
    1.6590   -0.0460   -0.1420 C   0  0  0  0  0  0  0  0  0  0  0  0
    2.3240   -0.7170   -1.1360 C   0  0  0  0  0  0  0  0  0  0  0  0
    3.6970   -0.6650   -1.1800 C   0  0  0  0  0  0  0  0  0  0  0  0
    4.4300    0.0550   -0.2340 C   0  0  0  0  0  0  0  0  0  0  0  0
    5.8140    0.1010   -0.2870 O   0  0  0  0  0  0  0  0  0  0  0  0
    6.4810   -0.5920   -1.3110 C   0  0  0  0  0  0  0  0  0  0  0  0
    7.9460   -0.3660   -1.1260 C   0  0  0  0  0  0  0  0  0  0  0  0
    8.7310    0.1970   -2.0020 C   0  0  0  0  0  0  0  0  0  0  0  0
   10.0960    0.2440   -1.4700 C   0  0  0  0  0  0  0  0  0  0  0  0
    9.9940   -0.3820   -0.1340 C   0  0  0  0  0  0  0  0  0  0  0  0
    8.7330   -0.7230    0.0310 C   0  0  0  0  0  0  0  0  0  0  0  0
    3.7680    0.7360    0.7750 C   0  0  0  0  0  0  0  0  0  0  0  0
    4.5240    1.5180    1.8050 C   0  0  0  0  0  0  0  0  0  0  0  0
    2.4020    0.6640    0.7890 C   0  0  0  0  0  0  0  0  0  0  0  0
   -4.6100   -0.9600   -1.0110 N   0  0  0  0  0  0  0  0  0  0  0  0
   -5.9340   -1.1050   -1.1370 C   0  0  0  0  0  0  0  0  0  0  0  0
   -6.4220   -1.8960   -2.2190 N   0  0  0  0  0  0  0  0  0  0  0  0
  1  2  1  0
  2  3  1  0
  3  4  2  0
  3 28  1  0
  4  5  1  0
  4  6  1  0
  6  7  2  0
  7  8  1  0
  7 27  1  0
  8  9  1  0
  9 10  2  0
  9 11  1  0
 11 12  1  0
 12 13  1  0
 13 14  2  0
 13 26  1  0
 14 15  1  0
 15 16  2  0
 16 17  1  0
 16 24  1  0
 17 18  1  0
 18 19  1  0
 19 20  2  0
 19 23  1  0
 20 21  1  0
 21 22  1  0
 22 23  2  0
 24 25  1  0
 24 26  2  0
 27 28  2  0
 28 29  1  0
M  CHG  1  29   1
M  END
