
     RDKit          3D

 30 32  0  0  0  0  0  0  0  0999 V2000
   11.1170    2.2780    0.1060 N   0  0  0  0  0  0  0  0  0  0  0  0
   10.3080    1.1940   -0.2930 C   0  0  0  0  0  0  0  0  0  0  0  0
   10.8620    0.1510   -0.7140 O   0  0  0  0  0  0  0  0  0  0  0  0
    8.8430    1.3130   -0.2050 C   0  0  0  0  0  0  0  0  0  0  0  0
    8.3130    2.3530    0.2140 O   0  0  0  0  0  0  0  0  0  0  0  0
    8.0550    0.2330   -0.6030 N   0  0  0  0  0  0  0  0  0  0  0  0
    6.6410    0.1420   -0.5990 C   0  0  0  0  0  0  0  0  0  0  0  0
    6.0280   -1.0540   -0.9930 C   0  0  0  0  0  0  0  0  0  0  0  0
    4.6690   -1.2110   -1.0150 C   0  0  0  0  0  0  0  0  0  0  0  0
    3.8150   -0.1980   -0.6510 C   0  0  0  0  0  0  0  0  0  0  0  0
    2.4340   -0.3220   -0.6620 O   0  0  0  0  0  0  0  0  0  0  0  0
    1.8990   -1.5670   -1.0740 C   0  0  0  0  0  0  0  0  0  0  0  0
    0.4250   -1.5820   -1.0460 C   0  0  0  0  0  0  0  0  0  0  0  0
   -0.4030   -1.2330   -2.0890 C   0  0  0  0  0  0  0  0  0  0  0  0
   -1.7040   -1.3850   -1.6550 C   0  0  0  0  0  0  0  0  0  0  0  0
   -1.6140   -1.8240   -0.3590 C   0  0  0  0  0  0  0  0  0  0  0  0
   -2.7600   -2.1400    0.5620 C   0  0  0  0  0  0  0  0  0  0  0  0
   -3.1380   -0.9470    1.3000 N   0  0  0  0  0  0  0  0  0  0  0  0
   -4.2560   -0.3410    0.6050 C   0  0  0  0  0  0  0  0  0  0  0  0
   -5.2590    0.2720    1.5510 C   0  0  2  0  0  0  0  0  0  0  0  0
   -5.7630   -0.7110    2.3940 O   0  0  0  0  0  0  0  0  0  0  0  0
   -6.3180    0.9560    0.7510 C   0  0  1  0  0  0  0  0  0  0  0  0
   -7.0540    0.0680   -0.1550 C   0  0  0  0  0  0  0  0  0  0  0  0
   -8.3220    0.4780   -0.2640 C   0  0  0  0  0  0  0  0  0  0  0  0
   -9.2870   -0.1160   -1.0250 F   0  0  0  0  0  0  0  0  0  0  0  0
   -8.5340    1.6980    0.5800 C   0  0  0  0  0  0  0  0  0  0  0  0
   -7.4020    1.5680    1.5960 C   0  0  0  0  0  0  0  0  0  0  0  0
   -0.3630   -1.9210   -0.0550 O   0  0  0  0  0  0  0  0  0  0  0  0
    4.4070    0.9810   -0.2630 C   0  0  0  0  0  0  0  0  0  0  0  0
    5.7870    1.1510   -0.2360 C   0  0  0  0  0  0  0  0  0  0  0  0
  1  2  1  0
  2  3  2  0
  2  4  1  0
  4  5  2  0
  4  6  1  0
  6  7  1  0
  7  8  2  0
  7 30  1  0
  8  9  1  0
  9 10  2  0
 10 11  1  0
 10 29  1  0
 11 12  1  0
 12 13  1  0
 13 14  2  0
 13 28  1  0
 14 15  1  0
 15 16  2  0
 16 17  1  0
 16 28  1  0
 17 18  1  0
 18 19  1  0
 19 20  1  0
 20 21  1  6
 20 22  1  0
 22 23  1  0
 22 27  1  1
 23 24  2  0
 24 25  1  0
 24 26  1  0
 26 27  1  0
 29 30  2  0
M  CHG  1  18   1
M  END
