
     RDKit          3D

 29 31  0  0  0  0  0  0  0  0999 V2000
   -1.2570   -3.0540   -2.3000 C   0  0  0  0  0  0  0  0  0  0  0  0
   -2.4090   -2.6920   -1.7640 C   0  0  0  0  0  0  0  0  0  0  0  0
   -2.6280   -2.3720   -0.3350 C   0  0  0  0  0  0  0  0  0  0  0  0
   -3.1110   -0.9820   -0.1460 C   0  0  0  0  0  0  0  0  0  0  0  0
   -2.3920    0.2010   -0.2320 C   0  0  0  0  0  0  0  0  0  0  0  0
   -0.9540    0.3690   -0.5140 C   0  0  0  0  0  0  0  0  0  0  0  0
   -0.1430    0.0850    0.7010 C   0  0  0  0  0  0  0  0  0  0  0  0
    1.3190    0.2410    0.4740 C   0  0  0  0  0  0  0  0  0  0  0  0
    1.9390    1.4460    0.6760 C   0  0  0  0  0  0  0  0  0  0  0  0
    3.2920    1.5400    0.4550 C   0  0  0  0  0  0  0  0  0  0  0  0
    4.0430    0.4630    0.0380 C   0  0  0  0  0  0  0  0  0  0  0  0
    5.4320    0.5720   -0.1880 N   0  0  0  0  0  0  0  0  0  0  0  0
    3.4130   -0.7470   -0.1640 C   0  0  0  0  0  0  0  0  0  0  0  0
    4.1980   -1.8920   -0.6030 C   0  0  0  0  0  0  0  0  0  0  0  0
    5.3980   -2.1650    0.0000 C   0  0  0  0  0  0  0  0  0  0  0  0
    6.1240   -3.2550   -0.4330 C   0  0  0  0  0  0  0  0  0  0  0  0
    5.6780   -4.0690   -1.4490 C   0  0  0  0  0  0  0  0  0  0  0  0
    4.4700   -3.7870   -2.0500 C   0  0  0  0  0  0  0  0  0  0  0  0
    3.7320   -2.6830   -1.6120 C   0  0  0  0  0  0  0  0  0  0  0  0
    2.0540   -0.8490    0.0560 C   0  0  0  0  0  0  0  0  0  0  0  0
   -3.2800    1.2100    0.0000 N   0  0  0  0  0  0  0  0  0  0  0  0
   -2.9550    2.5950   -0.0050 C   0  0  0  0  0  0  0  0  0  0  0  0
   -2.5390    3.1800    1.3080 C   0  0  1  0  0  0  0  0  0  0  0  0
   -2.2550    4.5510    1.0820 O   0  0  0  0  0  0  0  0  0  0  0  0
   -3.6430    3.1920    2.3500 C   0  0  0  0  0  0  0  0  0  0  0  0
   -4.8110    3.9070    1.8980 N   0  0  0  0  0  0  0  0  0  0  0  0
   -4.4770    0.6740    0.2180 N   0  0  0  0  0  0  0  0  0  0  0  0
   -4.4180   -0.6580    0.1390 C   0  0  0  0  0  0  0  0  0  0  0  0
   -5.3570   -1.4640    0.2900 O   0  0  0  0  0  0  0  0  0  0  0  0
  1  2  2  0
  2  3  1  0
  3  4  1  0
  4  5  2  0
  4 28  1  0
  5  6  1  0
  5 21  1  0
  6  7  1  0
  7  8  1  0
  8  9  2  0
  8 20  1  0
  9 10  1  0
 10 11  2  0
 11 12  1  0
 11 13  1  0
 13 14  1  0
 13 20  2  0
 14 15  2  0
 14 19  1  0
 15 16  1  0
 16 17  2  0
 17 18  1  0
 18 19  2  0
 21 22  1  0
 21 27  1  0
 22 23  1  0
 23 24  1  6
 23 25  1  0
 25 26  1  0
 27 28  1  0
 28 29  2  0
M  CHG  1  26   1
M  END
