
     RDKit          3D

 27 29  0  0  0  0  0  0  0  0999 V2000
   -3.9330    2.3100    0.7060 C   0  0  0  0  0  0  0  0  0  0  0  0
   -4.8160    1.3290    0.5890 C   0  0  0  0  0  0  0  0  0  0  0  0
   -6.1820    1.5180    0.8980 N   0  0  0  0  0  0  0  0  0  0  0  0
   -7.0600    0.3940    0.7380 C   0  0  0  0  0  0  0  0  0  0  0  0
   -6.6360   -0.7860    0.3200 C   0  0  0  0  0  0  0  0  0  0  0  0
   -7.5620   -1.8220    0.1950 O   0  0  0  0  0  0  0  0  0  0  0  0
   -5.2350   -0.9750    0.0040 C   0  0  0  0  0  0  0  0  0  0  0  0
   -4.3610    0.0270    0.1300 C   0  0  0  0  0  0  0  0  0  0  0  0
   -3.0440   -0.1910   -0.1790 O   0  0  0  0  0  0  0  0  0  0  0  0
   -2.5100    0.0590   -1.4500 C   0  0  0  0  0  0  0  0  0  0  0  0
   -1.0800   -0.2740   -1.4550 C   0  0  0  0  0  0  0  0  0  0  0  0
   -0.4110   -0.1240   -2.4970 O   0  0  0  0  0  0  0  0  0  0  0  0
   -0.4410   -0.7650   -0.2950 N   0  0  0  0  0  0  0  0  0  0  0  0
    0.9830   -1.0950   -0.3030 C   0  0  0  0  0  0  0  0  0  0  0  0
    1.7170   -0.4390    0.5260 C   0  0  0  0  0  0  0  0  0  0  0  0
    3.1520   -0.5760    0.7160 C   0  0  0  0  0  0  0  0  0  0  0  0
    4.0400   -1.3120    0.1780 N   0  0  0  0  0  0  0  0  0  0  0  0
    5.3440   -1.1020    0.6860 C   0  0  0  0  0  0  0  0  0  0  0  0
    6.3950   -1.7780    0.5540 O   0  0  0  0  0  0  0  0  0  0  0  0
    5.2240    0.1690    1.4670 C   0  0  1  0  0  0  0  0  0  0  0  0
    5.6550    1.2810    0.5130 C   0  0  2  0  0  0  0  0  0  0  0  0
    7.0410    1.1780   -0.0080 C   0  0  0  0  0  0  0  0  0  0  0  0
    6.6470    2.2660    0.9530 C   0  0  0  0  0  0  0  0  0  0  0  0
    3.8350    0.2260    1.6790 O   0  0  0  0  0  0  0  0  0  0  0  0
    1.3650   -2.0950   -1.2250 C   0  0  0  0  0  0  0  0  0  0  0  0
    0.4240   -2.7400   -2.0920 N   0  0  0  0  0  0  0  0  0  0  0  0
    2.5380   -2.4910   -1.3570 O   0  0  0  0  0  0  0  0  0  0  0  0
  1  2  2  0
  2  3  1  0
  2  8  1  0
  3  4  1  0
  4  5  2  0
  5  6  1  0
  5  7  1  0
  7  8  2  0
  8  9  1  0
  9 10  1  0
 10 11  1  0
 11 12  2  0
 11 13  1  0
 13 14  1  0
 14 15  2  3
 14 25  1  0
 15 16  1  0
 16 17  2  0
 16 24  1  0
 17 18  1  0
 18 19  2  0
 18 20  1  0
 20 21  1  0
 20 24  1  6
 21 22  1  6
 21 23  1  0
 22 23  1  0
 25 26  1  0
 25 27  2  0
M  END
