
     RDKit          3D

 27 29  0  0  0  0  0  0  0  0999 V2000
    6.1980   -1.8150   -2.0660 C   0  0  0  0  0  0  0  0  0  0  0  0
    5.4330   -0.6120   -2.1030 O   0  0  0  0  0  0  0  0  0  0  0  0
    4.3000   -0.4450   -1.3730 C   0  0  0  0  0  0  0  0  0  0  0  0
    3.1220   -0.7830   -1.8770 C   0  0  0  0  0  0  0  0  0  0  0  0
    1.9720   -0.5750   -1.0350 C   0  0  0  0  0  0  0  0  0  0  0  0
    2.0920   -0.0620    0.2010 C   0  0  0  0  0  0  0  0  0  0  0  0
    1.0060    0.1380    1.0080 C   0  0  0  0  0  0  0  0  0  0  0  0
    1.1950    0.6540    2.2260 O   0  0  0  0  0  0  0  0  0  0  0  0
   -0.2870   -0.0660    0.8820 N   0  0  0  0  0  0  0  0  0  0  0  0
   -1.6010   -0.2650    0.7770 C   0  0  0  0  0  0  0  0  0  0  0  0
   -2.1610    0.0980    1.8910 O   0  0  0  0  0  0  0  0  0  0  0  0
   -2.3830   -0.7340   -0.1960 N   0  0  0  0  0  0  0  0  0  0  0  0
   -3.8230   -0.8530   -0.0590 C   0  0  2  0  0  0  0  0  0  0  0  0
   -4.5220   -1.8950   -0.8170 C   0  0  0  0  0  0  0  0  0  0  0  0
   -4.5890   -0.5200   -1.3400 C   0  0  1  0  0  0  0  0  0  0  0  0
   -5.7550    0.3840   -1.1190 C   0  0  1  0  0  0  0  0  0  0  0  0
   -6.7950   -0.1620   -0.1870 C   0  0  0  0  0  0  0  0  0  0  0  0
   -7.2010    1.1110    0.5690 C   0  0  0  0  0  0  0  0  0  0  0  0
   -6.0480    1.8700    0.6590 O   0  0  0  0  0  0  0  0  0  0  0  0
   -5.2980    1.6640   -0.4830 C   0  0  0  0  0  0  0  0  0  0  0  0
    3.3320    0.3060    0.7600 O   0  0  0  0  0  0  0  0  0  0  0  0
    4.4290    0.1100   -0.0360 C   0  0  0  0  0  0  0  0  0  0  0  0
    5.6280    0.4290    0.4120 C   0  0  0  0  0  0  0  0  0  0  0  0
    5.7660    0.9690    1.7090 N   0  0  0  0  0  0  0  0  0  0  0  0
    7.0380    1.3300    2.2400 C   0  0  0  0  0  0  0  0  0  0  0  0
    7.1480    1.8690    3.5440 N   0  0  0  0  0  0  0  0  0  0  0  0
    8.0680    1.1530    1.5100 O   0  0  0  0  0  0  0  0  0  0  0  0
  1  2  1  0
  2  3  1  0
  3  4  2  0
  3 22  1  0
  4  5  1  0
  5  6  2  0
  6  7  1  0
  6 21  1  0
  7  8  2  0
  7  9  1  0
  9 10  1  0
 10 11  2  0
 10 12  1  0
 13 12  1  6
 13 14  1  0
 13 15  1  0
 15 14  1  1
 15 16  1  0
 16 17  1  1
 16 20  1  0
 17 18  1  0
 18 19  1  0
 19 20  1  0
 21 22  1  0
 22 23  2  3
 23 24  1  0
 24 25  1  0
 25 26  1  0
 25 27  2  0
M  END
