
     RDKit          3D

 27 29  0  0  0  0  0  0  0  0999 V2000
    4.3870   -3.1470   -1.9730 C   0  0  0  0  0  0  0  0  0  0  0  0
    4.2240   -1.7120   -1.5570 C   0  0  0  0  0  0  0  0  0  0  0  0
    4.6700   -1.3030   -0.4540 O   0  0  0  0  0  0  0  0  0  0  0  0
    3.5660   -0.7690   -2.3870 N   0  0  0  0  0  0  0  0  0  0  0  0
    3.3970    0.6160   -2.0070 C   0  0  0  0  0  0  0  0  0  0  0  0
    2.5960    0.6120   -0.7330 C   0  0  0  0  0  0  0  0  0  0  0  0
    2.2000   -0.4460   -0.1980 O   0  0  0  0  0  0  0  0  0  0  0  0
    2.2790    1.8010   -0.1260 O   0  0  0  0  0  0  0  0  0  0  0  0
    1.5200    1.9080    1.0920 C   0  0  1  0  0  0  0  0  0  0  0  0
    2.2370    1.1960    2.1680 C   0  0  0  0  0  0  0  0  0  0  0  0
    1.6030    3.4120    1.4190 C   0  0  0  0  0  0  0  0  0  0  0  0
    0.1380    1.5380    0.8220 C   0  0  0  0  0  0  0  0  0  0  0  0
   -0.6210    0.6320    1.3510 C   0  0  0  0  0  0  0  0  0  0  0  0
   -0.4210   -0.3320    2.3670 N   0  0  0  0  0  0  0  0  0  0  0  0
   -1.2400   -1.5230    2.3430 C   0  0  0  0  0  0  0  0  0  0  0  0
   -0.9420   -2.5240    3.0680 O   0  0  0  0  0  0  0  0  0  0  0  0
   -2.4430   -1.6450    1.4940 C   0  0  0  0  0  0  0  0  0  0  0  0
   -2.3430   -0.7430    0.2770 C   0  0  1  0  0  0  0  0  0  0  0  0
   -3.6510   -0.7020   -0.4210 C   0  0  0  0  0  0  0  0  0  0  0  0
   -3.9680   -0.9940   -1.6650 C   0  0  0  0  0  0  0  0  0  0  0  0
   -5.4110   -0.7880   -1.8610 C   0  0  0  0  0  0  0  0  0  0  0  0
   -5.8050   -0.0620   -0.7600 O   0  0  0  0  0  0  0  0  0  0  0  0
   -4.8800   -0.3070    0.1940 N   0  0  0  0  0  0  0  0  0  0  0  0
   -2.0050    0.6360    0.7820 C   0  0  2  0  0  0  0  0  0  0  0  0
   -1.9330    1.5610   -0.2790 N   0  0  0  0  0  0  0  0  0  0  0  0
   -0.6580    2.1780   -0.2420 C   0  0  0  0  0  0  0  0  0  0  0  0
   -0.3190    3.1120   -1.0140 O   0  0  0  0  0  0  0  0  0  0  0  0
  1  2  1  0
  2  3  2  0
  2  4  1  0
  4  5  1  0
  5  6  1  0
  6  7  2  0
  6  8  1  0
  8  9  1  0
  9 10  1  1
  9 11  1  0
  9 12  1  0
 12 13  2  0
 12 26  1  0
 13 14  1  0
 13 24  1  0
 14 15  1  0
 15 16  2  0
 15 17  1  0
 17 18  1  0
 18 19  1  1
 18 24  1  0
 19 20  2  0
 19 23  1  0
 20 21  1  0
 21 22  1  0
 22 23  1  0
 24 25  1  6
 25 26  1  0
 26 27  2  0
M  END
