
     RDKit          3D

 16 17  0  0  0  0  0  0  0  0999 V2000
    4.7220    1.4920   -1.7970 O   0  0  0  0  0  0  0  0  0  0  0  0
    4.7300    1.1760   -0.5860 C   0  0  0  0  0  0  0  0  0  0  0  0
    5.8810    1.4000    0.1460 O   0  0  0  0  0  0  0  0  0  0  0  0
    3.5580    0.5800    0.0600 C   0  0  0  0  0  0  0  0  0  0  0  0
    2.3970    0.4100   -0.8940 C   0  0  0  0  0  0  0  0  0  0  0  0
    1.2060   -0.2080   -0.1900 C   0  0  0  0  0  0  0  0  0  0  0  0
    0.0360   -0.3830   -1.1330 C   0  0  0  0  0  0  0  0  0  0  0  0
   -1.0850   -0.9960   -0.3530 C   0  0  2  0  0  0  0  0  0  0  0  0
   -2.5660   -1.2560   -1.4000 S   0  0  0  0  0  0  0  0  0  0  0  0
   -3.8250   -0.8000   -0.1430 C   0  0  0  0  0  0  0  0  0  0  0  0
   -2.9930   -0.6080    1.0930 C   0  0  2  0  0  0  0  0  0  0  0  0
   -3.5500    0.5700    1.7790 N   0  0  0  0  0  0  0  0  0  0  0  0
   -3.0930    1.6690    0.9740 C   0  0  0  0  0  0  0  0  0  0  0  0
   -3.6520    2.8100    0.9820 O   0  0  0  0  0  0  0  0  0  0  0  0
   -1.9620    1.2390    0.2210 N   0  0  0  0  0  0  0  0  0  0  0  0
   -1.6510   -0.0750    0.6760 C   0  0  2  0  0  0  0  0  0  0  0  0
  1  2  2  0
  2  3  1  0
  2  4  1  0
  4  5  1  0
  5  6  1  0
  6  7  1  0
  8  7  1  6
  8  9  1  0
  8 16  1  0
  9 10  1  0
 11 10  1  6
 11 12  1  0
 11 16  1  0
 12 13  1  0
 13 14  2  0
 13 15  1  0
 16 15  1  6
M  END
