
     RDKit          3D

 27 28  0  0  0  0  0  0  0  0999 V2000
    4.6360   -0.2200    0.2210 C   0  0  0  0  0  0  0  0  0  0  0  0
    3.3480    0.1710   -0.4600 C   0  0  0  0  0  0  0  0  0  0  0  0
    2.8600   -0.7980   -1.4420 C   0  0  0  0  0  0  0  0  0  0  0  0
    1.7870   -1.4910   -1.4750 C   0  0  0  0  0  0  0  0  0  0  0  0
    0.6550   -1.6030   -0.5750 C   0  0  0  0  0  0  0  0  0  0  0  0
   -0.3870   -2.4120   -0.9190 C   0  0  0  0  0  0  0  0  0  0  0  0
   -0.2670   -3.0870   -2.1680 N   0  0  0  0  0  0  0  0  0  0  0  0
   -1.5380   -2.6570   -0.1630 N   0  0  0  0  0  0  0  0  0  0  0  0
   -2.4310   -1.7820    0.5170 C   0  0  0  0  0  0  0  0  0  0  0  0
   -2.8190   -1.8990    1.8070 C   0  0  0  0  0  0  0  0  0  0  0  0
   -3.7460   -0.7940    2.1120 C   0  0  0  0  0  0  0  0  0  0  0  0
   -3.8390   -0.0600    0.8500 C   0  0  0  0  0  0  0  0  0  0  0  0
   -3.0790   -0.6240   -0.0800 C   0  0  0  0  0  0  0  0  0  0  0  0
   -2.9030   -0.1890   -1.4700 C   0  0  0  0  0  0  0  0  0  0  0  0
   -3.9750    0.0730   -2.1520 O   0  0  0  0  0  0  0  0  0  0  0  0
   -1.6810   -0.0260   -2.1470 N   0  0  0  0  0  0  0  0  0  0  0  0
   -0.5900    0.7530   -1.8180 N   0  0  0  0  0  0  0  0  0  0  0  0
   -0.3960    1.6070   -0.7250 C   0  0  0  0  0  0  0  0  0  0  0  0
   -0.0620    2.8290   -1.0050 O   0  0  0  0  0  0  0  0  0  0  0  0
   -0.5150    1.3280    0.7040 C   0  0  2  0  0  0  0  0  0  0  0  0
    0.3890    2.3030    1.4300 C   0  0  0  0  0  0  0  0  0  0  0  0
    1.2240    1.8960    2.2460 O   0  0  0  0  0  0  0  0  0  0  0  0
    0.2740    3.6610    1.1740 O   0  0  0  0  0  0  0  0  0  0  0  0
    1.0820    4.6310    1.8130 C   0  0  0  0  0  0  0  0  0  0  0  0
   -0.1850    0.0730    1.1480 O   0  0  0  0  0  0  0  0  0  0  0  0
    0.6330   -0.9040    0.7160 C   0  0  0  0  0  0  0  0  0  0  0  0
    1.5370   -1.2900    1.5570 O   0  0  0  0  0  0  0  0  0  0  0  0
  1  2  1  0
  2  3  1  0
  3  4  2  3
  4  5  1  0
  5  6  2  0
  5 26  1  0
  6  7  1  0
  6  8  1  0
  8  9  1  0
  9 10  2  0
  9 13  1  0
 10 11  1  0
 11 12  1  0
 12 13  2  0
 13 14  1  0
 14 15  2  0
 14 16  1  0
 16 17  1  0
 17 18  1  0
 18 19  2  0
 18 20  1  0
 20 21  1  1
 20 25  1  0
 21 22  2  0
 21 23  1  0
 23 24  1  0
 25 26  1  0
 26 27  2  0
M  END
