
     RDKit          3D

 12 12  0  0  0  0  0  0  0  0999 V2000
    3.1850   -0.0190   -0.2860 C   0  0  0  0  0  0  0  0  0  0  0  0
    2.1560    1.0220   -0.3290 C   0  0  0  0  0  0  0  0  0  0  0  0
    2.4780    2.2240   -0.4000 O   0  0  0  0  0  0  0  0  0  0  0  0
    0.7510    0.6680   -0.2900 C   0  0  0  0  0  0  0  0  0  0  0  0
   -0.2080    1.6960   -0.3330 C   0  0  0  0  0  0  0  0  0  0  0  0
   -1.5470    1.3740   -0.2960 C   0  0  0  0  0  0  0  0  0  0  0  0
   -2.5270    2.4130   -0.3400 N   0  0  0  0  0  0  0  0  0  0  0  0
   -1.9130    0.0470   -0.2170 C   0  0  0  0  0  0  0  0  0  0  0  0
   -1.0000   -0.9790   -0.1730 C   0  0  0  0  0  0  0  0  0  0  0  0
   -1.4230   -2.4240   -0.0870 C   0  0  0  0  0  0  0  0  0  0  0  0
    0.3340   -0.6450   -0.2110 C   0  0  0  0  0  0  0  0  0  0  0  0
    1.2520   -1.6770   -0.1670 O   0  0  0  0  0  0  0  0  0  0  0  0
  1  2  1  0
  2  3  2  0
  2  4  1  0
  4  5  2  0
  4 11  1  0
  5  6  1  0
  6  7  1  0
  6  8  2  0
  8  9  1  0
  9 10  1  0
  9 11  2  0
 11 12  1  0
M  END
