
     RDKit          3D

 12 12  0  0  0  0  0  0  0  0999 V2000
   -3.4810   -0.8750    0.1850 C   0  0  0  0  0  0  0  0  0  0  0  0
   -2.5820    0.1720   -0.0950 O   0  0  0  0  0  0  0  0  0  0  0  0
   -1.2130    0.0730   -0.0420 C   0  0  0  0  0  0  0  0  0  0  0  0
   -0.6110   -1.1200    0.3050 C   0  0  0  0  0  0  0  0  0  0  0  0
    0.7720   -1.2070    0.3550 C   0  0  0  0  0  0  0  0  0  0  0  0
    1.4430   -2.4060    0.7060 N   0  0  0  0  0  0  0  0  0  0  0  0
    1.5390   -0.1020    0.0560 C   0  0  0  0  0  0  0  0  0  0  0  0
    3.0280   -0.2180    0.1160 C   0  0  0  0  0  0  0  0  0  0  0  0
    0.9070    1.0740   -0.2870 C   0  0  0  0  0  0  0  0  0  0  0  0
    1.6540    2.1930   -0.5910 O   0  0  0  0  0  0  0  0  0  0  0  0
   -0.4730    1.1950   -0.3460 C   0  0  0  0  0  0  0  0  0  0  0  0
   -1.0860    2.4970   -0.7250 C   0  0  0  0  0  0  0  0  0  0  0  0
  1  2  1  0
  2  3  1  0
  3  4  2  0
  3 11  1  0
  4  5  1  0
  5  6  1  0
  5  7  2  0
  7  8  1  0
  7  9  1  0
  9 10  1  0
  9 11  2  0
 11 12  1  0
M  END
