
     RDKit          3D

 12 12  0  0  0  0  0  0  0  0999 V2000
   -2.3410   -2.0960    0.2150 C   0  0  0  0  0  0  0  0  0  0  0  0
   -1.8900   -0.7420   -0.1770 C   0  0  0  0  0  0  0  0  0  0  0  0
   -0.6710   -0.2940    0.0410 C   0  0  0  0  0  0  0  0  0  0  0  0
    0.2760   -1.2260    0.7160 C   0  0  0  0  0  0  0  0  0  0  0  0
    1.5260   -0.4910    1.1280 C   0  0  0  0  0  0  0  0  0  0  0  0
    2.4800   -0.2850   -0.0570 C   0  0  0  0  0  0  0  0  0  0  0  0
    2.1220    0.9510   -0.7930 C   0  0  0  0  0  0  0  0  0  0  0  0
    3.0560    1.5540   -1.3610 O   0  0  0  0  0  0  0  0  0  0  0  0
    0.8340    1.5440   -0.9370 N   0  0  0  0  0  0  0  0  0  0  0  0
   -0.4350    1.0650   -0.4190 C   0  0  0  0  0  0  0  0  0  0  0  0
   -1.4090    1.9420   -0.3680 C   0  0  0  0  0  0  0  0  0  0  0  0
   -1.1800    3.2330   -0.8080 O   0  0  0  0  0  0  0  0  0  0  0  0
  1  2  1  0
  2  3  2  3
  3  4  1  0
  3 10  1  0
  4  5  1  0
  5  6  1  0
  6  7  1  0
  7  8  2  0
  7  9  1  0
  9 10  1  0
 10 11  2  3
 11 12  1  0
M  END
