
     RDKit          3D

 12 12  0  0  0  0  0  0  0  0999 V2000
    4.2610    0.6940    0.0170 O   0  0  0  0  0  0  0  0  0  0  0  0
    3.8330   -0.0910    1.0770 C   0  0  0  0  0  0  0  0  0  0  0  0
    2.5680   -0.3810    1.2910 C   0  0  0  0  0  0  0  0  0  0  0  0
    1.4910    0.0950    0.4330 C   0  0  0  0  0  0  0  0  0  0  0  0
    0.2530   -0.2350    0.7090 C   0  0  0  0  0  0  0  0  0  0  0  0
   -0.8960    0.1880   -0.0840 C   0  0  0  0  0  0  0  0  0  0  0  0
   -0.7900    0.9810   -1.2070 C   0  0  0  0  0  0  0  0  0  0  0  0
   -1.9290    1.3560   -1.9310 C   0  0  0  0  0  0  0  0  0  0  0  0
   -3.1610    0.9670   -1.5690 N   0  0  0  0  0  0  0  0  0  0  0  0
   -3.2970    0.1950   -0.4800 C   0  0  0  0  0  0  0  0  0  0  0  0
   -4.5560   -0.2370   -0.0600 O   0  0  0  0  0  0  0  0  0  0  0  0
   -2.1920   -0.1900    0.2510 C   0  0  0  0  0  0  0  0  0  0  0  0
  1  2  1  0
  2  3  2  3
  3  4  1  0
  4  5  2  3
  5  6  1  0
  6  7  2  0
  6 12  1  0
  7  8  1  0
  8  9  2  0
  9 10  1  0
 10 11  1  0
 10 12  2  0
M  END
