
     RDKit          3D

 17 18  0  0  0  0  0  0  0  0999 V2000
    1.3900   -2.6180    2.7670 Br  0  0  0  0  0  0  0  0  0  0  0  0
    1.8720   -1.3530    1.4240 C   0  0  0  0  0  0  0  0  0  0  0  0
    0.9740   -1.1450    0.3880 C   0  0  0  0  0  0  0  0  0  0  0  0
    1.2960   -0.2470   -0.5820 C   0  0  0  0  0  0  0  0  0  0  0  0
    0.4590    0.0200   -1.6850 N   0  0  0  0  0  0  0  0  0  0  0  0
   -0.8650   -0.5120   -1.8580 C   0  0  0  0  0  0  0  0  0  0  0  0
   -1.7610    0.1400   -0.8500 C   0  0  0  0  0  0  0  0  0  0  0  0
   -2.4620   -0.4700    0.0760 C   0  0  0  0  0  0  0  0  0  0  0  0
   -3.1660    0.4990    0.8110 N   0  0  0  0  0  0  0  0  0  0  0  0
   -2.8280    1.7310    0.2490 C   0  0  0  0  0  0  0  0  0  0  0  0
   -2.0130    1.5410   -0.7170 N   0  0  0  0  0  0  0  0  0  0  0  0
    2.5110    0.4220   -0.4920 C   0  0  0  0  0  0  0  0  0  0  0  0
    2.9560    1.6700   -1.8430 Br  0  0  0  0  0  0  0  0  0  0  0  0
    3.3770    0.1960    0.5410 C   0  0  0  0  0  0  0  0  0  0  0  0
    5.0300    1.1340    0.6240 Br  0  0  0  0  0  0  0  0  0  0  0  0
    3.0750   -0.6970    1.5210 C   0  0  0  0  0  0  0  0  0  0  0  0
    4.2900   -1.0140    2.9730 Br  0  0  0  0  0  0  0  0  0  0  0  0
  1  2  1  0
  2  3  2  0
  2 16  1  0
  3  4  1  0
  4  5  1  0
  4 12  2  0
  5  6  1  0
  6  7  1  0
  7  8  2  0
  7 11  1  0
  8  9  1  0
  9 10  1  0
 10 11  2  0
 12 13  1  0
 12 14  1  0
 14 15  1  0
 14 16  2  0
 16 17  1  0
M  CHG  1   9   1
M  END
