
     RDKit          3D

 17 17  0  0  0  0  0  0  0  0999 V2000
    1.9490    0.4860    1.7240 N   0  0  0  0  0  0  0  0  0  0  0  0
    1.5350   -0.1870    0.7350 C   0  0  0  0  0  0  0  0  0  0  0  0
    2.2150   -1.2580    0.0690 C   0  0  0  0  0  0  0  0  0  0  0  0
    1.2830   -2.0800   -1.4280 Br  0  0  0  0  0  0  0  0  0  0  0  0
    3.3730   -1.7540    0.3330 C   0  0  0  0  0  0  0  0  0  0  0  0
    4.1970   -1.2890    1.3810 N   0  0  0  0  0  0  0  0  0  0  0  0
    0.2160    0.2070    0.2540 N   0  0  0  0  0  0  0  0  0  0  0  0
   -0.9630   -0.5840    0.4260 C   0  0  0  0  0  0  0  0  0  0  0  0
   -1.8920    0.0360   -0.5900 C   0  0  0  0  0  0  0  0  0  0  0  0
   -2.7870   -0.5380   -1.3340 C   0  0  0  0  0  0  0  0  0  0  0  0
   -3.6710    0.0700   -2.3200 C   0  0  0  0  0  0  0  0  0  0  0  0
   -3.4170   -0.8030   -4.0760 Br  0  0  0  0  0  0  0  0  0  0  0  0
   -1.5710    1.4530   -0.4940 C   0  0  0  0  0  0  0  0  0  0  0  0
   -2.2890    2.5200   -0.3860 C   0  0  0  0  0  0  0  0  0  0  0  0
   -1.3730    4.2160   -0.3030 Br  0  0  0  0  0  0  0  0  0  0  0  0
   -4.1820    2.6160   -0.2100 Br  0  0  0  0  0  0  0  0  0  0  0  0
   -0.0600    1.4190   -0.4400 C   0  0  0  0  0  0  0  0  0  0  0  0
  1  2  2  0
  2  3  1  0
  2  7  1  0
  3  4  1  0
  3  5  2  3
  5  6  1  0
  7  8  1  0
  7 17  1  0
  8  9  1  0
  9 10  2  3
  9 13  1  0
 10 11  1  0
 11 12  1  0
 13 14  2  3
 13 17  1  0
 14 15  1  0
 14 16  1  0
M  CHG  1   6   1
M  END
