
     RDKit          3D

 22 24  0  0  0  0  0  0  0  0999 V2000
    5.3080   -1.9600    2.9160 N   0  0  0  0  0  0  0  0  0  0  0  0
    4.9350   -1.1120    2.2250 C   0  0  0  0  0  0  0  0  0  0  0  0
    4.4760   -0.0450    1.3320 C   0  0  0  0  0  0  0  0  0  0  0  0
    5.1340    1.1800    1.2620 C   0  0  0  0  0  0  0  0  0  0  0  0
    4.6690    2.1720    0.4010 C   0  0  0  0  0  0  0  0  0  0  0  0
    3.5580    1.9550   -0.3910 C   0  0  0  0  0  0  0  0  0  0  0  0
    2.9230    0.7370   -0.3010 C   0  0  0  0  0  0  0  0  0  0  0  0
    1.7390    0.5420   -1.0670 N   0  0  0  0  0  0  0  0  0  0  0  0
    0.5770    0.3410   -0.4900 C   0  0  0  0  0  0  0  0  0  0  0  0
   -0.3850    0.2090   -1.4400 C   0  0  0  0  0  0  0  0  0  0  0  0
   -1.8240   -0.0390   -1.1840 C   0  0  0  0  0  0  0  0  0  0  0  0
   -2.9480    0.0340   -1.9480 C   0  0  0  0  0  0  0  0  0  0  0  0
   -4.1260   -0.1890   -1.3360 C   0  0  0  0  0  0  0  0  0  0  0  0
   -4.1580   -0.4760   -0.0270 C   0  0  0  0  0  0  0  0  0  0  0  0
   -5.4550   -0.8690    1.0890 S   0  0  2  0  0  0  0  0  0  0  0  0
   -5.1990   -2.5330    1.5410 N   0  0  0  0  0  0  0  0  0  0  0  0
   -6.7970   -0.7510    0.5010 O   0  0  0  0  0  0  0  0  0  0  0  0
   -5.3550   -0.0800    2.3580 O   0  0  0  0  0  0  0  0  0  0  0  0
   -2.4690   -0.4440    0.4370 S   0  0  0  0  0  0  0  0  0  0  0  0
    0.2260    0.3370   -2.6320 N   0  0  0  0  0  0  0  0  0  0  0  0
    1.5310    0.5410   -2.3530 N   0  0  0  0  0  0  0  0  0  0  0  0
    3.3810   -0.2520    0.5520 C   0  0  0  0  0  0  0  0  0  0  0  0
  1  2  3  0
  2  3  1  0
  3  4  2  0
  3 22  1  0
  4  5  1  0
  5  6  2  0
  6  7  1  0
  7  8  1  0
  7 22  2  0
  8  9  1  0
  8 21  1  0
  9 10  2  0
 10 11  1  0
 10 20  1  0
 11 12  2  0
 11 19  1  0
 12 13  1  0
 13 14  2  0
 14 15  1  0
 14 19  1  0
 15 16  1  1
 15 17  2  0
 15 18  2  0
 20 21  2  0
M  END
