
     RDKit          3D

 39 43  0  0  0  0  0  0  0  0999 V2000
    6.1710   -1.6850   -2.9170 C   0  0  0  0  0  0  0  0  0  0  0  0
    6.6460   -0.9190   -1.7380 C   0  0  0  0  0  0  0  0  0  0  0  0
    7.9750   -0.5090   -1.6540 C   0  0  0  0  0  0  0  0  0  0  0  0
    8.4150    0.1970   -0.5870 C   0  0  0  0  0  0  0  0  0  0  0  0
    9.7400    0.6300   -0.4690 C   0  0  0  0  0  0  0  0  0  0  0  0
   10.0850    1.3230    0.6170 N   0  0  0  0  0  0  0  0  0  0  0  0
    9.2090    1.6280    1.6130 C   0  0  0  0  0  0  0  0  0  0  0  0
    7.8970    1.2270    1.5460 C   0  0  0  0  0  0  0  0  0  0  0  0
    7.5270    0.5030    0.4160 C   0  0  0  0  0  0  0  0  0  0  0  0
    6.1790    0.0890    0.3330 C   0  0  0  0  0  0  0  0  0  0  0  0
    5.7400   -0.6210   -0.7440 C   0  0  0  0  0  0  0  0  0  0  0  0
    4.4280   -1.0610   -0.9000 N   0  0  0  0  0  0  0  0  0  0  0  0
    3.3520   -0.6440   -0.0720 C   0  0  0  0  0  0  0  0  0  0  0  0
    3.4360    0.1390    0.8870 O   0  0  0  0  0  0  0  0  0  0  0  0
    2.0170   -1.1410   -0.3290 N   0  0  0  0  0  0  0  0  0  0  0  0
    0.8830   -0.6940    0.4940 C   0  0  0  0  0  0  0  0  0  0  0  0
   -0.3270   -1.3330   -0.0310 C   0  0  0  0  0  0  0  0  0  0  0  0
   -0.1880   -2.3390   -0.7740 O   0  0  0  0  0  0  0  0  0  0  0  0
   -1.6470   -0.8580    0.2540 N   0  0  0  0  0  0  0  0  0  0  0  0
   -2.7700   -1.3790   -0.2040 N   0  0  0  0  0  0  0  0  0  0  0  0
   -3.8520   -0.6800    0.1940 C   0  0  0  0  0  0  0  0  0  0  0  0
   -5.2490   -0.9420   -0.1450 C   0  0  0  0  0  0  0  0  0  0  0  0
   -5.6660   -0.9370   -1.4620 C   0  0  0  0  0  0  0  0  0  0  0  0
   -6.9690   -1.1610   -1.8290 C   0  0  0  0  0  0  0  0  0  0  0  0
   -7.3980   -1.1480   -3.2550 C   0  0  0  0  0  0  0  0  0  0  0  0
   -7.9390   -1.4050   -0.8760 C   0  0  0  0  0  0  0  0  0  0  0  0
   -9.2280   -1.6260   -1.2020 F   0  0  0  0  0  0  0  0  0  0  0  0
   -7.5450   -1.4170    0.4600 C   0  0  0  0  0  0  0  0  0  0  0  0
   -8.4920   -1.6520    1.3940 F   0  0  0  0  0  0  0  0  0  0  0  0
   -6.2150   -1.1870    0.8040 C   0  0  0  0  0  0  0  0  0  0  0  0
   -3.3660    0.3590    0.9620 C   0  0  0  0  0  0  0  0  0  0  0  0
   -4.1930    1.3770    1.5810 C   0  0  0  0  0  0  0  0  0  0  0  0
   -4.9330    2.3130    0.8860 C   0  0  0  0  0  0  0  0  0  0  0  0
   -5.7080    3.2710    1.5120 C   0  0  0  0  0  0  0  0  0  0  0  0
   -5.7260    3.2700    2.8490 N   0  0  0  0  0  0  0  0  0  0  0  0
   -5.0210    2.3760    3.5600 C   0  0  0  0  0  0  0  0  0  0  0  0
   -4.2760    1.4560    2.9220 N   0  0  0  0  0  0  0  0  0  0  0  0
   -1.9990    0.2090    0.9730 C   0  0  0  0  0  0  0  0  0  0  0  0
   -1.1190    1.0850    1.6580 N   0  0  0  0  0  0  0  0  0  0  0  0
  1  2  1  0
  2  3  2  0
  2 11  1  0
  3  4  1  0
  4  5  2  0
  4  9  1  0
  5  6  1  0
  6  7  2  0
  7  8  1  0
  8  9  2  0
  9 10  1  0
 10 11  2  0
 11 12  1  0
 12 13  1  0
 13 14  2  0
 13 15  1  0
 15 16  1  0
 16 17  1  0
 17 18  2  0
 17 19  1  0
 19 20  1  0
 19 38  1  0
 20 21  2  0
 21 22  1  0
 21 31  1  0
 22 23  2  0
 22 30  1  0
 23 24  1  0
 24 25  1  0
 24 26  2  0
 26 27  1  0
 26 28  1  0
 28 29  1  0
 28 30  2  0
 31 32  1  0
 31 38  2  0
 32 33  2  0
 32 37  1  0
 33 34  1  0
 34 35  2  0
 35 36  1  0
 36 37  2  0
 38 39  1  0
M  CHG  1  35   1
M  END
