
     RDKit          3D

 39 42  0  0  0  0  0  0  0  0999 V2000
    3.3430   -3.0380   -0.1890 N   0  0  0  0  0  0  0  0  0  0  0  0
    3.1470   -1.6650   -0.5070 C   0  0  0  0  0  0  0  0  0  0  0  0
    1.8890   -1.1110   -0.7030 C   0  0  0  0  0  0  0  0  0  0  0  0
    1.7440    0.2040   -1.0170 C   0  0  0  0  0  0  0  0  0  0  0  0
    0.5250    0.8620   -1.2870 N   0  0  0  0  0  0  0  0  0  0  0  0
   -0.7540    0.2900   -1.2310 C   0  0  0  0  0  0  0  0  0  0  0  0
   -0.9090   -0.8920   -0.8980 O   0  0  0  0  0  0  0  0  0  0  0  0
   -1.9240    1.0780   -1.5760 N   0  0  0  0  0  0  0  0  0  0  0  0
   -3.1550    0.3790   -1.4910 C   0  0  0  0  0  0  0  0  0  0  0  0
   -4.1210    0.6860   -0.6090 C   0  0  0  0  0  0  0  0  0  0  0  0
   -4.0240    1.8380    0.2750 C   0  0  0  0  0  0  0  0  0  0  0  0
   -3.0360    2.5820    0.2500 O   0  0  0  0  0  0  0  0  0  0  0  0
   -5.0300    2.1380    1.1630 O   0  0  0  0  0  0  0  0  0  0  0  0
   -5.1910    3.1400    2.0680 C   0  0  0  0  0  0  0  0  0  0  0  0
   -4.1420    3.2850    3.1360 C   0  0  0  0  0  0  0  0  0  0  0  0
   -4.5630    4.4020    3.9710 N   0  0  0  0  0  0  0  0  0  0  0  0
   -5.2740   -0.1170   -0.5700 C   0  0  0  0  0  0  0  0  0  0  0  0
   -5.4130   -1.1800   -1.4040 C   0  0  0  0  0  0  0  0  0  0  0  0
   -6.6040   -2.0290   -1.3480 C   0  0  2  0  0  0  0  0  0  0  0  0
   -7.6920   -1.4970   -0.4470 C   0  0  0  0  0  0  0  0  0  0  0  0
   -8.5270   -2.7760   -0.2630 C   0  0  0  0  0  0  0  0  0  0  0  0
   -7.4280   -3.8190   -0.2930 C   0  0  0  0  0  0  0  0  0  0  0  0
   -6.2580   -3.2030   -0.6650 O   0  0  0  0  0  0  0  0  0  0  0  0
   -4.4210   -1.5100   -2.3250 C   0  0  0  0  0  0  0  0  0  0  0  0
   -4.5840   -2.5970   -3.1650 O   0  0  0  0  0  0  0  0  0  0  0  0
   -3.2950   -0.7230   -2.3610 C   0  0  0  0  0  0  0  0  0  0  0  0
   -2.2650   -1.0360   -3.2890 N   0  0  0  0  0  0  0  0  0  0  0  0
    2.9040    0.9800   -1.1340 C   0  0  0  0  0  0  0  0  0  0  0  0
    4.1410    0.4320   -0.9410 C   0  0  0  0  0  0  0  0  0  0  0  0
    4.3190   -0.9110   -0.6200 C   0  0  0  0  0  0  0  0  0  0  0  0
    5.4960   -1.4110   -0.4450 O   0  0  0  0  0  0  0  0  0  0  0  0
    6.6640   -1.8950   -0.2750 C   0  0  0  0  0  0  0  0  0  0  0  0
    7.5350   -1.4070    0.8330 C   0  0  0  0  0  0  0  0  0  0  0  0
    7.9080   -0.0840    0.9310 N   0  0  0  0  0  0  0  0  0  0  0  0
    6.9850    0.9260    1.3030 C   0  0  0  0  0  0  0  0  0  0  0  0
    7.7860    1.8700    2.2380 C   0  0  0  0  0  0  0  0  0  0  0  0
    9.1210    1.9260    1.8520 O   0  0  0  0  0  0  0  0  0  0  0  0
    9.3250    1.7720    0.4930 C   0  0  0  0  0  0  0  0  0  0  0  0
    8.9130    0.3770   -0.0050 C   0  0  0  0  0  0  0  0  0  0  0  0
  1  2  1  0
  2  3  2  0
  2 30  1  0
  3  4  1  0
  4  5  1  0
  4 28  2  0
  5  6  1  0
  6  7  2  0
  6  8  1  0
  8  9  1  0
  9 10  2  0
  9 26  1  0
 10 11  1  0
 10 17  1  0
 11 12  2  0
 11 13  1  0
 13 14  1  0
 14 15  1  0
 15 16  1  0
 17 18  2  0
 19 18  1  1
 18 24  1  0
 19 20  1  0
 19 23  1  0
 20 21  1  0
 21 22  1  0
 22 23  1  0
 24 25  1  0
 24 26  2  0
 26 27  1  0
 28 29  1  0
 29 30  2  0
 30 31  1  0
 31 32  1  0
 32 33  1  0
 33 34  1  0
 34 35  1  0
 34 39  1  0
 35 36  1  0
 36 37  1  0
 37 38  1  0
 38 39  1  0
M  CHG  1  16   1
M  END
