
     RDKit          3D

 39 42  0  0  0  0  0  0  0  0999 V2000
   -9.9110    2.5620    1.5230 N   0  0  0  0  0  0  0  0  0  0  0  0
   -8.6050    2.2750    1.0670 C   0  0  0  0  0  0  0  0  0  0  0  0
   -7.9070    3.2220    0.6820 O   0  0  0  0  0  0  0  0  0  0  0  0
   -8.0380    0.8670    1.0320 C   0  0  1  0  0  0  0  0  0  0  0  0
   -9.1260    0.0810    1.5790 O   0  0  0  0  0  0  0  0  0  0  0  0
   -7.8210    0.4390   -0.3480 C   0  0  0  0  0  0  0  0  0  0  0  0
   -6.9040    1.2040   -1.1500 N   0  0  0  0  0  0  0  0  0  0  0  0
   -6.9590    0.7330    2.0250 C   0  0  0  0  0  0  0  0  0  0  0  0
   -5.6540    1.2260    1.8110 N   0  0  0  0  0  0  0  0  0  0  0  0
   -4.6730    0.6350    0.9730 C   0  0  0  0  0  0  0  0  0  0  0  0
   -4.9370   -0.4440    0.3840 O   0  0  0  0  0  0  0  0  0  0  0  0
   -3.4050    1.2410    0.7890 N   0  0  0  0  0  0  0  0  0  0  0  0
   -2.3700    0.7000   -0.0100 C   0  0  0  0  0  0  0  0  0  0  0  0
   -1.4410    1.5990   -0.5400 C   0  0  0  0  0  0  0  0  0  0  0  0
   -0.4000    1.2080   -1.2970 C   0  0  0  0  0  0  0  0  0  0  0  0
   -0.2370   -0.1710   -1.5680 C   0  0  0  0  0  0  0  0  0  0  0  0
    0.7540   -0.6090   -2.2990 O   0  0  0  0  0  0  0  0  0  0  0  0
    1.8100   -0.7610   -3.0400 C   0  0  2  0  0  0  0  0  0  0  0  0
    1.5600   -1.5830   -4.3130 C   0  0  0  0  0  0  0  0  0  0  0  0
    1.5610   -2.8930   -3.7580 O   0  0  0  0  0  0  0  0  0  0  0  0
    2.6120   -2.9600   -2.8190 C   0  0  0  0  0  0  0  0  0  0  0  0
    3.3830   -4.0050   -2.3590 C   0  0  0  0  0  0  0  0  0  0  0  0
    4.3540   -3.7520   -1.4230 C   0  0  0  0  0  0  0  0  0  0  0  0
    4.6010   -2.4660   -0.9070 C   0  0  0  0  0  0  0  0  0  0  0  0
    5.6130   -2.3070    0.0540 N   0  0  0  0  0  0  0  0  0  0  0  0
    6.1670   -1.0980    0.4950 C   0  0  0  0  0  0  0  0  0  0  0  0
    5.7470   -0.0420    0.0060 O   0  0  0  0  0  0  0  0  0  0  0  0
    7.2050   -1.0670    1.4950 N   0  0  0  0  0  0  0  0  0  0  0  0
    7.8180    0.0980    1.9980 C   0  0  0  0  0  0  0  0  0  0  0  0
    7.4860    1.3710    1.6150 C   0  0  0  0  0  0  0  0  0  0  0  0
    8.1290    2.4970    2.1590 C   0  0  0  0  0  0  0  0  0  0  0  0
    9.1130    2.3080    3.0970 C   0  0  0  0  0  0  0  0  0  0  0  0
    9.4500    1.0470    3.4830 C   0  0  0  0  0  0  0  0  0  0  0  0
    8.8110   -0.0650    2.9420 C   0  0  0  0  0  0  0  0  0  0  0  0
    9.2390   -1.2890    3.4130 O   0  0  0  0  0  0  0  0  0  0  0  0
    3.7910   -1.4730   -1.4120 C   0  0  0  0  0  0  0  0  0  0  0  0
    2.8000   -1.6840   -2.3580 C   0  0  0  0  0  0  0  0  0  0  0  0
   -1.1790   -1.0540   -1.0260 C   0  0  0  0  0  0  0  0  0  0  0  0
   -2.2330   -0.6300   -0.2560 C   0  0  0  0  0  0  0  0  0  0  0  0
  1  2  1  0
  2  3  2  0
  2  4  1  0
  4  5  1  1
  4  6  1  0
  4  8  1  0
  6  7  1  0
  8  9  1  0
  9 10  1  0
 10 11  2  0
 10 12  1  0
 12 13  1  0
 13 14  2  0
 13 39  1  0
 14 15  1  0
 15 16  2  0
 16 17  1  0
 16 38  1  0
 18 17  1  1
 18 19  1  0
 18 37  1  0
 19 20  1  0
 20 21  1  0
 21 22  2  0
 21 37  1  0
 22 23  1  0
 23 24  2  0
 24 25  1  0
 24 36  1  0
 25 26  1  0
 26 27  2  0
 26 28  1  0
 28 29  1  0
 29 30  2  0
 29 34  1  0
 30 31  1  0
 31 32  2  0
 32 33  1  0
 33 34  2  0
 34 35  1  0
 36 37  2  0
 38 39  2  0
M  CHG  1   7   1
M  END
