
     RDKit          3D

 39 44  0  0  0  0  0  0  0  0999 V2000
   -0.5640   -0.4440   -4.1600 O   0  0  0  0  0  0  0  0  0  0  0  0
   -0.7860    0.4740   -3.3130 C   0  0  0  0  0  0  0  0  0  0  0  0
   -0.1750    1.8530   -3.2960 C   0  0  0  0  0  0  0  0  0  0  0  0
   -0.4680    2.2540   -1.8340 C   0  0  2  0  0  0  0  0  0  0  0  0
    0.5580    1.7550   -0.9310 C   0  0  0  0  0  0  0  0  0  0  0  0
    1.2490    2.6070   -0.2740 O   0  0  0  0  0  0  0  0  0  0  0  0
    0.8910    0.3980   -0.6880 N   0  0  0  0  0  0  0  0  0  0  0  0
    1.9410    0.0420    0.2410 C   0  0  0  0  0  0  0  0  0  0  0  0
    1.7580   -0.6890    1.2960 C   0  0  0  0  0  0  0  0  0  0  0  0
    2.8780   -1.0110    2.2020 C   0  0  1  0  0  0  0  0  0  0  0  0
    2.5960   -0.4970    3.4930 F   0  0  0  0  0  0  0  0  0  0  0  0
    2.9440   -2.4090    2.3950 F   0  0  0  0  0  0  0  0  0  0  0  0
    4.2270   -0.5340    1.8470 C   0  0  0  0  0  0  0  0  0  0  0  0
    4.3080    0.2820    0.6440 C   0  0  0  0  0  0  0  0  0  0  0  0
    5.6420    0.8560    0.2400 C   0  0  0  0  0  0  0  0  0  0  0  0
    6.6090   -0.1790   -0.0100 N   0  0  0  0  0  0  0  0  0  0  0  0
    7.1500   -1.0060    1.0030 C   0  0  0  0  0  0  0  0  0  0  0  0
    7.6180   -0.8360    2.2370 C   0  0  0  0  0  0  0  0  0  0  0  0
    7.8990   -2.2570    2.3580 C   0  0  0  0  0  0  0  0  0  0  0  0
    7.4430   -2.4050    1.1630 N   0  0  0  0  0  0  0  0  0  0  0  0
    3.2590    0.5520   -0.1040 C   0  0  0  0  0  0  0  0  0  0  0  0
   -1.8340    1.7000   -1.6980 C   0  0  2  0  0  0  0  0  0  0  0  0
   -2.4910    1.7980   -0.4180 C   0  0  0  0  0  0  0  0  0  0  0  0
   -2.0640    2.4060    0.6910 N   0  0  0  0  0  0  0  0  0  0  0  0
   -3.0000    2.2480    1.6500 C   0  0  0  0  0  0  0  0  0  0  0  0
   -4.0160    1.5470    1.1620 N   0  0  0  0  0  0  0  0  0  0  0  0
   -3.7170    1.2620   -0.1140 C   0  0  0  0  0  0  0  0  0  0  0  0
   -4.6460    0.4820   -0.9550 C   0  0  0  0  0  0  0  0  0  0  0  0
   -5.0390    0.7460   -2.2480 C   0  0  0  0  0  0  0  0  0  0  0  0
   -5.9080   -0.2660   -2.5980 C   0  0  0  0  0  0  0  0  0  0  0  0
   -6.0470   -1.1370   -1.5390 C   0  0  0  0  0  0  0  0  0  0  0  0
   -5.2670   -0.6520   -0.5600 N   0  0  0  0  0  0  0  0  0  0  0  0
   -5.1060   -1.2510    0.7430 C   0  0  0  0  0  0  0  0  0  0  0  0
   -6.2640   -1.5370    1.4350 C   0  0  0  0  0  0  0  0  0  0  0  0
   -6.1610   -2.1100    2.6830 C   0  0  0  0  0  0  0  0  0  0  0  0
   -4.9750   -2.4020    3.2580 N   0  0  0  0  0  0  0  0  0  0  0  0
   -3.8470   -2.1090    2.5520 C   0  0  0  0  0  0  0  0  0  0  0  0
   -3.8990   -1.5350    1.2970 C   0  0  0  0  0  0  0  0  0  0  0  0
   -1.6720    0.3540   -2.2080 N   0  0  0  0  0  0  0  0  0  0  0  0
  1  2  2  0
  2  3  1  0
  2 39  1  0
  3  4  1  0
  4  5  1  1
  4 22  1  0
  5  6  2  0
  5  7  1  0
  7  8  1  0
  8  9  2  0
  8 21  1  0
  9 10  1  0
 10 11  1  1
 10 12  1  0
 10 13  1  0
 13 14  1  0
 14 15  1  0
 14 21  2  0
 15 16  1  0
 16 17  1  0
 17 18  2  0
 17 20  1  0
 18 19  1  0
 19 20  2  0
 22 23  1  1
 22 39  1  0
 23 24  1  0
 23 27  2  0
 24 25  1  0
 25 26  2  0
 26 27  1  0
 27 28  1  0
 28 29  2  0
 28 32  1  0
 29 30  1  0
 30 31  2  0
 31 32  1  0
 32 33  1  0
 33 34  2  0
 33 38  1  0
 34 35  1  0
 35 36  2  0
 36 37  1  0
 37 38  2  0
M  CHG  1  20   1
M  END
