
     RDKit          3D

 39 41  0  0  0  0  0  0  0  0999 V2000
   10.3750   -2.4890    1.5160 C   0  0  0  0  0  0  0  0  0  0  0  0
   10.0950   -1.4600    0.4760 C   0  0  0  0  0  0  0  0  0  0  0  0
    8.9530   -1.5880   -0.2790 C   0  0  0  0  0  0  0  0  0  0  0  0
    8.6670   -0.6500   -1.2400 C   0  0  0  0  0  0  0  0  0  0  0  0
    7.4380   -0.7870   -2.0370 C   0  0  0  0  0  0  0  0  0  0  0  0
    6.4670    0.2180   -1.4660 C   0  0  0  0  0  0  0  0  0  0  0  0
    6.8450    1.4070   -1.3780 O   0  0  0  0  0  0  0  0  0  0  0  0
    5.1930   -0.2320   -1.0610 N   0  0  0  0  0  0  0  0  0  0  0  0
    4.2100    0.6280   -0.5180 C   0  0  0  0  0  0  0  0  0  0  0  0
    3.1770    0.0660    0.2640 C   0  0  0  0  0  0  0  0  0  0  0  0
    2.1790    0.8610    0.8050 C   0  0  0  0  0  0  0  0  0  0  0  0
    2.1260    2.2200    0.6210 C   0  0  0  0  0  0  0  0  0  0  0  0
    1.1280    3.0180    1.1570 O   0  0  0  0  0  0  0  0  0  0  0  0
    0.0820    2.4820    1.9180 C   0  0  0  0  0  0  0  0  0  0  0  0
   -0.7160    1.5670    1.0800 C   0  0  0  0  0  0  0  0  0  0  0  0
   -0.4600    1.4620   -0.1390 O   0  0  0  0  0  0  0  0  0  0  0  0
   -1.7700    0.7960    1.6260 N   0  0  0  0  0  0  0  0  0  0  0  0
   -2.5340   -0.0810    0.8580 N   0  0  0  0  0  0  0  0  0  0  0  0
   -3.9680    0.1360    0.8300 C   0  0  0  0  0  0  0  0  0  0  0  0
   -4.3980    1.0970    1.4930 O   0  0  0  0  0  0  0  0  0  0  0  0
   -4.8130   -0.7030    0.0880 N   0  0  0  0  0  0  0  0  0  0  0  0
   -6.2250   -0.5900   -0.0170 C   0  0  0  0  0  0  0  0  0  0  0  0
   -6.9210    0.4410    0.5340 C   0  0  0  0  0  0  0  0  0  0  0  0
   -8.3180    0.4910    0.4020 C   0  0  0  0  0  0  0  0  0  0  0  0
   -8.9480   -0.5130   -0.2860 C   0  0  0  0  0  0  0  0  0  0  0  0
  -10.4290   -0.5210   -0.4620 C   0  0  1  0  0  0  0  0  0  0  0  0
  -11.0120   -1.6640    0.2510 N   0  0  0  0  0  0  0  0  0  0  0  0
  -11.0640    0.7570    0.0550 C   0  0  0  0  0  0  0  0  0  0  0  0
  -10.5140    1.8380   -0.6370 O   0  0  0  0  0  0  0  0  0  0  0  0
   -8.2440   -1.5690   -0.8500 C   0  0  0  0  0  0  0  0  0  0  0  0
   -8.9110   -2.6080   -1.5600 N   0  0  0  0  0  0  0  0  0  0  0  0
   -6.8850   -1.5990   -0.7110 C   0  0  0  0  0  0  0  0  0  0  0  0
    3.1410    2.7820   -0.1490 C   0  0  0  0  0  0  0  0  0  0  0  0
    4.1510    1.9740   -0.6950 C   0  0  0  0  0  0  0  0  0  0  0  0
    9.5090    0.4050   -1.4470 C   0  0  0  0  0  0  0  0  0  0  0  0
    9.2700    1.3830   -2.4070 O   0  0  0  0  0  0  0  0  0  0  0  0
   10.6720    0.5510   -0.6890 C   0  0  0  0  0  0  0  0  0  0  0  0
   10.9330   -0.4170    0.2760 C   0  0  0  0  0  0  0  0  0  0  0  0
   12.0910   -0.3050    1.0580 O   0  0  0  0  0  0  0  0  0  0  0  0
  1  2  1  0
  2  3  2  0
  2 38  1  0
  3  4  1  0
  4  5  1  0
  4 35  2  0
  5  6  1  0
  6  7  2  0
  6  8  1  0
  8  9  1  0
  9 10  2  0
  9 34  1  0
 10 11  1  0
 11 12  2  0
 12 13  1  0
 12 33  1  0
 13 14  1  0
 14 15  1  0
 15 16  2  0
 15 17  1  0
 17 18  1  0
 18 19  1  0
 19 20  2  0
 19 21  1  0
 21 22  1  0
 22 23  2  0
 22 32  1  0
 23 24  1  0
 24 25  2  0
 25 26  1  0
 25 30  1  0
 26 27  1  1
 26 28  1  0
 28 29  1  0
 30 31  1  0
 30 32  2  0
 33 34  2  0
 35 36  1  0
 35 37  1  0
 37 38  2  0
 38 39  1  0
M  CHG  1  27   1
M  END
