
     RDKit          3D

 39 41  0  0  0  0  0  0  0  0999 V2000
   -6.6630    2.1920    0.2860 C   0  0  0  0  0  0  0  0  0  0  0  0
   -5.4310    2.3030   -0.1250 C   0  0  0  0  0  0  0  0  0  0  0  0
   -4.6820    3.4630    0.3900 C   0  0  0  0  0  0  0  0  0  0  0  0
   -5.2190    4.3130    1.2000 N   0  0  0  0  0  0  0  0  0  0  0  0
   -3.3740    3.6780    0.0140 O   0  0  0  0  0  0  0  0  0  0  0  0
   -4.7750    1.3660   -1.0920 C   0  0  2  0  0  0  0  0  0  0  0  0
   -5.6240    0.5130   -1.7460 O   0  0  0  0  0  0  0  0  0  0  0  0
   -3.5120    0.8270   -0.5870 C   0  0  0  0  0  0  0  0  0  0  0  0
   -3.1090   -0.3460   -0.1540 C   0  0  0  0  0  0  0  0  0  0  0  0
   -4.0150   -1.5480   -0.0770 C   0  0  0  0  0  0  0  0  0  0  0  0
   -5.2980   -1.4700    0.1830 C   0  0  0  0  0  0  0  0  0  0  0  0
   -6.3700   -2.3490    0.3070 C   0  0  0  0  0  0  0  0  0  0  0  0
   -6.5190   -3.7430    0.1870 N   0  0  0  0  0  0  0  0  0  0  0  0
   -7.5290   -1.7920    0.6010 O   0  0  0  0  0  0  0  0  0  0  0  0
   -3.1200   -2.6940   -0.1550 C   0  0  0  0  0  0  0  0  0  0  0  0
   -3.3930   -4.0660   -0.3250 C   0  0  0  0  0  0  0  0  0  0  0  0
   -2.3660   -4.9600   -0.5710 C   0  0  0  0  0  0  0  0  0  0  0  0
   -1.0830   -4.4950   -0.6460 C   0  0  0  0  0  0  0  0  0  0  0  0
   -0.8220   -3.1580   -0.4710 C   0  0  0  0  0  0  0  0  0  0  0  0
   -1.8400   -2.2590   -0.2230 C   0  0  0  0  0  0  0  0  0  0  0  0
   -1.7820   -0.7940    0.2030 C   0  0  1  0  0  0  0  0  0  0  0  0
   -0.5780   -0.3170   -0.3610 N   0  0  0  0  0  0  0  0  0  0  0  0
   -0.3420    1.0360   -0.6120 C   0  0  0  0  0  0  0  0  0  0  0  0
    1.0130    1.5110   -0.6760 C   0  0  0  0  0  0  0  0  0  0  0  0
    1.4090    2.5960   -0.8840 O   0  0  0  0  0  0  0  0  0  0  0  0
    2.2590    0.3560   -0.4070 N   0  0  0  0  0  0  0  0  0  0  0  0
    3.3420    1.2450   -0.4310 C   0  0  0  0  0  0  0  0  0  0  0  0
    3.4000    2.4400   -0.5720 O   0  0  0  0  0  0  0  0  0  0  0  0
    4.5670    0.4410   -0.2260 N   0  0  0  0  0  0  0  0  0  0  0  0
    5.8220    0.9490   -0.1210 C   0  0  0  0  0  0  0  0  0  0  0  0
    6.1560    2.2800   -0.1030 C   0  0  0  0  0  0  0  0  0  0  0  0
    7.4540    2.7280    0.0610 C   0  0  0  0  0  0  0  0  0  0  0  0
    7.7440    4.1240    0.0880 N   0  0  0  0  0  0  0  0  0  0  0  0
    8.4510    1.8010    0.2110 C   0  0  0  0  0  0  0  0  0  0  0  0
    8.1460    0.4650    0.1970 C   0  0  0  0  0  0  0  0  0  0  0  0
    9.1970   -0.4440    0.3560 O   0  0  0  0  0  0  0  0  0  0  0  0
    6.8740    0.0150    0.0360 C   0  0  0  0  0  0  0  0  0  0  0  0
    6.5430   -1.3530    0.0140 O   0  0  0  0  0  0  0  0  0  0  0  0
    6.1650   -2.0740    1.1670 C   0  0  0  0  0  0  0  0  0  0  0  0
  1  2  2  0
  2  3  1  0
  2  6  1  0
  3  4  2  0
  3  5  1  0
  6  7  1  1
  6  8  1  0
  8  9  2  3
  9 10  1  0
  9 21  1  0
 10 11  2  3
 10 15  1  0
 11 12  1  0
 12 13  1  0
 12 14  2  0
 15 16  2  0
 15 20  1  0
 16 17  1  0
 17 18  2  0
 18 19  1  0
 19 20  2  0
 20 21  1  0
 21 22  1  6
 22 23  1  0
 23 24  1  0
 24 25  2  0
 24 26  1  0
 26 27  1  0
 27 28  2  0
 27 29  1  0
 29 30  1  0
 30 31  2  0
 30 37  1  0
 31 32  1  0
 32 33  1  0
 32 34  2  0
 34 35  1  0
 35 36  1  0
 35 37  2  0
 37 38  1  0
 38 39  1  0
M  CHG  1  22   1
M  END
