
     RDKit          3D

 23 24  0  0  0  0  0  0  0  0999 V2000
    3.7430   -1.6140   -0.0920 N   0  0  0  0  0  0  0  0  0  0  0  0
    3.2800   -0.3980   -0.2520 C   0  0  0  0  0  0  0  0  0  0  0  0
    4.1350    0.4980   -0.9160 N   0  0  0  0  0  0  0  0  0  0  0  0
    3.7840    2.2650   -0.6470 P   0  0  0  0  0  0  0  0  0  0  0  0
    4.5510    2.8040    0.8080 O   0  0  0  0  0  0  0  0  0  0  0  0
    2.0310    2.2720   -0.5020 O   0  0  0  0  0  0  0  0  0  0  0  0
    1.3450    1.1890    0.1420 C   0  0  0  0  0  0  0  0  0  0  0  0
    0.1800    1.4440    0.5930 N   0  0  0  0  0  0  0  0  0  0  0  0
   -0.7550    0.7560    1.2290 O   0  0  0  0  0  0  0  0  0  0  0  0
   -2.1320    0.8510    1.1250 C   0  0  1  0  0  0  0  0  0  0  0  0
   -2.7350    1.8300    2.0650 C   0  0  0  0  0  0  0  0  0  0  0  0
   -2.0870    2.5120    2.8770 O   0  0  0  0  0  0  0  0  0  0  0  0
   -4.1210    1.9790    2.0160 O   0  0  0  0  0  0  0  0  0  0  0  0
   -2.4910    1.2300   -0.2950 C   0  0  0  0  0  0  0  0  0  0  0  0
   -2.9610    0.0150   -1.0860 C   0  0  0  0  0  0  0  0  0  0  0  0
   -2.8900   -1.0690   -0.2590 O   0  0  0  0  0  0  0  0  0  0  0  0
   -1.8460   -1.9190   -0.4500 C   0  0  0  0  0  0  0  0  0  0  0  0
   -0.8200   -1.4650   -1.4440 C   0  0  0  0  0  0  0  0  0  0  0  0
    0.3780   -2.2600   -1.2590 N   0  0  0  0  0  0  0  0  0  0  0  0
    1.0990   -2.3530   -0.0370 C   0  0  0  0  0  0  0  0  0  0  0  0
    1.5670   -3.5080    0.2250 O   0  0  0  0  0  0  0  0  0  0  0  0
    1.3300   -1.2440    0.9010 C   0  0  0  0  0  0  0  0  0  0  0  0
    1.9630   -0.0720    0.2480 N   0  0  0  0  0  0  0  0  0  0  0  0
  1  2  2  0
  2  3  1  0
  2 23  1  0
  3  4  1  0
  4  5  1  0
  4  6  1  0
  6  7  1  0
  7  8  2  0
  7 23  1  0
  8  9  1  0
  9 10  1  0
 10 11  1  1
 10 14  1  0
 11 12  2  0
 11 13  1  0
 14 15  1  0
 15 16  1  0
 16 17  1  0
 17 18  1  0
 18 19  1  0
 19 20  1  0
 20 21  2  0
 20 22  1  0
 22 23  1  0
M  END
