
     RDKit          3D

 22 23  0  0  0  0  0  0  0  0999 V2000
   -0.3640   -1.8830   -2.0340 N   0  0  0  0  0  0  0  0  0  0  0  0
   -0.1610   -1.1960   -1.0470 C   0  0  0  0  0  0  0  0  0  0  0  0
    1.0740   -0.5920   -1.0630 N   0  0  0  0  0  0  0  0  0  0  0  0
    1.9860   -0.2040   -0.0940 C   0  0  0  0  0  0  0  0  0  0  0  0
    1.5760   -0.5430    1.0250 O   0  0  0  0  0  0  0  0  0  0  0  0
    3.2100    0.4830   -0.4270 C   0  0  0  0  0  0  0  0  0  0  0  0
    4.0890    0.8500    0.4340 C   0  0  0  0  0  0  0  0  0  0  0  0
    5.2800    1.5310   -0.0120 N   0  0  0  0  0  0  0  0  0  0  0  0
    6.8570    0.7270    0.2830 P   0  0  0  0  0  0  0  0  0  0  0  0
    6.7350   -0.9550   -0.1330 O   0  0  0  0  0  0  0  0  0  0  0  0
    8.0100    1.4560   -0.8210 O   0  0  0  0  0  0  0  0  0  0  0  0
   -1.3530   -0.9090   -0.3100 N   0  0  0  0  0  0  0  0  0  0  0  0
   -2.4660   -0.1490   -0.8410 C   0  0  0  0  0  0  0  0  0  0  0  0
   -2.6680   -0.0740   -2.0790 O   0  0  0  0  0  0  0  0  0  0  0  0
   -3.1750    0.4180    0.3160 C   0  0  1  0  0  0  0  0  0  0  0  0
   -4.6760    0.3470    0.1720 C   0  0  2  0  0  0  0  0  0  0  0  0
   -5.1240    1.5380   -0.3550 O   0  0  0  0  0  0  0  0  0  0  0  0
   -5.0900    0.1780    1.6180 C   0  0  0  0  0  0  0  0  0  0  0  0
   -4.0600   -0.7320    2.1930 C   0  0  0  0  0  0  0  0  0  0  0  0
   -2.9330   -0.6510    1.3030 N   0  0  0  0  0  0  0  0  0  0  0  0
   -1.6660   -1.2140    1.0120 C   0  0  0  0  0  0  0  0  0  0  0  0
   -1.0090   -1.8680    1.8760 O   0  0  0  0  0  0  0  0  0  0  0  0
  1  2  2  0
  2  3  1  0
  2 12  1  0
  3  4  1  0
  4  5  2  0
  4  6  1  0
  6  7  2  3
  7  8  1  0
  8  9  1  0
  9 10  1  0
  9 11  1  0
 12 13  1  0
 12 21  1  0
 13 14  2  0
 15 13  1  6
 15 16  1  0
 15 20  1  0
 16 17  1  1
 16 18  1  0
 18 19  1  0
 19 20  1  0
 20 21  1  0
 21 22  2  0
M  END
