
     RDKit          3D

 23 24  0  0  0  0  0  0  0  0999 V2000
    4.0310   -1.5760    0.0150 N   0  0  0  0  0  0  0  0  0  0  0  0
    3.6520   -0.3410   -0.1280 C   0  0  0  0  0  0  0  0  0  0  0  0
    4.7030    0.6080   -0.2080 N   0  0  0  0  0  0  0  0  0  0  0  0
    4.2810    2.3430    0.0100 P   0  0  0  0  0  0  0  0  0  0  0  0
    5.2020    3.3660   -1.0090 O   0  0  0  0  0  0  0  0  0  0  0  0
    2.5880    2.4120   -0.4510 O   0  0  0  0  0  0  0  0  0  0  0  0
    1.7530    1.3120   -0.3500 C   0  0  0  0  0  0  0  0  0  0  0  0
    0.4940    1.5210   -0.4000 N   0  0  0  0  0  0  0  0  0  0  0  0
   -0.5480    0.6830   -0.3320 O   0  0  0  0  0  0  0  0  0  0  0  0
   -1.8250    1.1710    0.0500 C   0  0  1  0  0  0  0  0  0  0  0  0
   -1.8620    2.6410   -0.1610 C   0  0  0  0  0  0  0  0  0  0  0  0
   -0.8580    3.2450   -0.6130 O   0  0  0  0  0  0  0  0  0  0  0  0
   -3.0050    3.3670    0.1390 O   0  0  0  0  0  0  0  0  0  0  0  0
   -2.9350    0.5330   -0.7340 C   0  0  0  0  0  0  0  0  0  0  0  0
   -3.6150   -0.5930   -0.0080 C   0  0  0  0  0  0  0  0  0  0  0  0
   -2.9010   -1.0620    1.0790 O   0  0  0  0  0  0  0  0  0  0  0  0
   -2.6480   -2.4310    1.0120 C   0  0  0  0  0  0  0  0  0  0  0  0
   -1.2000   -2.7020    0.6360 C   0  0  0  0  0  0  0  0  0  0  0  0
   -0.2890   -2.1220    1.5960 N   0  0  0  0  0  0  0  0  0  0  0  0
    0.7070   -1.1760    1.2460 C   0  0  0  0  0  0  0  0  0  0  0  0
    1.0300   -0.3410    2.1360 O   0  0  0  0  0  0  0  0  0  0  0  0
    1.3470   -1.1520   -0.0940 C   0  0  0  0  0  0  0  0  0  0  0  0
    2.2640    0.0040   -0.1970 N   0  0  0  0  0  0  0  0  0  0  0  0
  1  2  2  0
  2  3  1  0
  2 23  1  0
  3  4  1  0
  4  5  1  0
  4  6  1  0
  6  7  1  0
  7  8  2  0
  7 23  1  0
  8  9  1  0
  9 10  1  0
 10 11  1  6
 10 14  1  0
 11 12  2  0
 11 13  1  0
 14 15  1  0
 15 16  1  0
 16 17  1  0
 17 18  1  0
 18 19  1  0
 19 20  1  0
 20 21  2  0
 20 22  1  0
 22 23  1  0
M  END
