
     RDKit          3D

 23 24  0  0  0  0  0  0  0  0999 V2000
   -1.3010   -2.7430   -0.5960 C   0  0  0  0  0  0  0  0  0  0  0  0
   -0.4480   -1.5550   -0.7460 N   0  0  0  0  0  0  0  0  0  0  0  0
    0.5720   -1.7090    0.2890 C   0  0  0  0  0  0  0  0  0  0  0  0
    1.7940   -2.2760   -0.3480 C   0  0  0  0  0  0  0  0  0  0  0  0
    1.7200   -2.9130   -1.4550 O   0  0  0  0  0  0  0  0  0  0  0  0
    3.1260   -2.1270    0.2870 C   0  0  0  0  0  0  0  0  0  0  0  0
    3.7680   -3.2530    0.3430 O   0  0  0  0  0  0  0  0  0  0  0  0
    3.6000   -0.9380    0.7360 O   0  0  0  0  0  0  0  0  0  0  0  0
    4.0930    0.1920    0.1290 C   0  0  0  0  0  0  0  0  0  0  0  0
    3.1130    1.3080   -0.0670 C   0  0  0  0  0  0  0  0  0  0  0  0
    2.9900    2.6070    0.2150 N   0  0  0  0  0  0  0  0  0  0  0  0
    1.8550    3.0910   -0.2070 N   0  0  0  0  0  0  0  0  0  0  0  0
    1.1800    2.0420   -0.8030 C   0  0  0  0  0  0  0  0  0  0  0  0
    1.9920    1.0020   -0.6860 N   0  0  0  0  0  0  0  0  0  0  0  0
   -0.1310    1.9580   -1.3910 N   0  0  0  0  0  0  0  0  0  0  0  0
   -0.8300    0.7420   -1.6440 C   0  0  0  0  0  0  0  0  0  0  0  0
   -1.2930    0.6320   -2.8470 O   0  0  0  0  0  0  0  0  0  0  0  0
   -1.0930   -0.3540   -0.7170 C   0  0  2  0  0  0  0  0  0  0  0  0
   -1.6260    0.1530    0.6380 C   0  0  0  0  0  0  0  0  0  0  0  0
   -2.0870    1.4350    0.2000 O   0  0  0  0  0  0  0  0  0  0  0  0
   -3.7460    1.5360    0.2760 P   0  0  0  0  0  0  0  0  0  0  0  0
   -4.5910    0.0870    0.1600 O   0  0  0  0  0  0  0  0  0  0  0  0
   -4.5530    2.8670    0.7940 O   0  0  0  0  0  0  0  0  0  0  0  0
  1  2  1  0
  2  3  1  0
  2 18  1  0
  3  4  1  0
  4  5  2  0
  4  6  1  0
  6  7  2  0
  6  8  1  0
  8  9  1  0
  9 10  1  0
 10 11  2  0
 10 14  1  0
 11 12  1  0
 12 13  1  0
 13 14  2  0
 13 15  1  0
 15 16  1  0
 16 17  2  0
 16 18  1  0
 18 19  1  1
 19 20  1  0
 20 21  1  0
 21 22  1  0
 21 23  1  0
M  END
