
     RDKit          3D

 22 23  0  0  0  0  0  0  0  0999 V2000
   -0.7630   -2.0340   -2.4710 N   0  0  0  0  0  0  0  0  0  0  0  0
   -0.4170   -1.3950   -1.4830 C   0  0  0  0  0  0  0  0  0  0  0  0
    0.9400   -1.4800   -1.2370 N   0  0  0  0  0  0  0  0  0  0  0  0
    1.6430   -1.4650   -0.0280 C   0  0  0  0  0  0  0  0  0  0  0  0
    0.8940   -1.4230    0.9300 O   0  0  0  0  0  0  0  0  0  0  0  0
    3.0660   -1.5070   -0.0640 C   0  0  0  0  0  0  0  0  0  0  0  0
    3.7720   -1.5090    1.0220 C   0  0  0  0  0  0  0  0  0  0  0  0
    5.1730   -1.5510    0.9390 N   0  0  0  0  0  0  0  0  0  0  0  0
    6.2010   -0.1960    0.4150 P   0  0  0  0  0  0  0  0  0  0  0  0
    6.9240    0.6260    1.7610 O   0  0  0  0  0  0  0  0  0  0  0  0
    5.3370    0.9470   -0.5580 O   0  0  0  0  0  0  0  0  0  0  0  0
   -1.4030   -0.4950   -0.9690 N   0  0  0  0  0  0  0  0  0  0  0  0
   -2.5970   -0.8990   -0.3870 C   0  0  0  0  0  0  0  0  0  0  0  0
   -2.9770   -2.0540    0.0070 O   0  0  0  0  0  0  0  0  0  0  0  0
   -3.4390    0.2910   -0.2750 C   0  0  1  0  0  0  0  0  0  0  0  0
   -3.9400    0.4810    1.1510 C   0  0  2  0  0  0  0  0  0  0  0  0
   -5.2680    0.1050    1.1400 O   0  0  0  0  0  0  0  0  0  0  0  0
   -3.8370    1.9540    1.4020 C   0  0  0  0  0  0  0  0  0  0  0  0
   -3.3080    2.5490    0.1300 C   0  0  0  0  0  0  0  0  0  0  0  0
   -2.5290    1.4210   -0.4250 N   0  0  0  0  0  0  0  0  0  0  0  0
   -1.3570    0.9530   -0.9970 C   0  0  0  0  0  0  0  0  0  0  0  0
   -0.4260    1.6600   -1.4570 O   0  0  0  0  0  0  0  0  0  0  0  0
  1  2  2  0
  2  3  1  0
  2 12  1  0
  3  4  1  0
  4  5  2  0
  4  6  1  0
  6  7  2  3
  7  8  1  0
  8  9  1  0
  9 10  1  0
  9 11  1  0
 12 13  1  0
 12 21  1  0
 13 14  2  0
 15 13  1  1
 15 16  1  0
 15 20  1  0
 16 17  1  6
 16 18  1  0
 18 19  1  0
 19 20  1  0
 20 21  1  0
 21 22  2  0
M  END
