
     RDKit          3D

 27 29  0  0  0  0  0  0  0  0999 V2000
   -4.8730   -0.8130   -1.3810 C   0  0  0  0  0  0  0  0  0  0  0  0
   -5.1080    0.2490   -0.6130 C   0  0  0  0  0  0  0  0  0  0  0  0
   -6.4060    0.8420   -0.6120 N   0  0  0  0  0  0  0  0  0  0  0  0
   -6.6200    1.9850    0.2300 C   0  0  0  0  0  0  0  0  0  0  0  0
   -5.6620    2.4830    0.9800 C   0  0  0  0  0  0  0  0  0  0  0  0
   -5.9330    3.5840    1.7660 O   0  0  0  0  0  0  0  0  0  0  0  0
   -4.3310    1.8750    0.9780 C   0  0  0  0  0  0  0  0  0  0  0  0
   -4.0650    0.8130    0.2210 C   0  0  0  0  0  0  0  0  0  0  0  0
   -2.8020    0.2470    0.2280 O   0  0  0  0  0  0  0  0  0  0  0  0
   -2.5950   -0.8700    1.0620 C   0  0  0  0  0  0  0  0  0  0  0  0
   -1.1770   -1.3570    0.9490 C   0  0  0  0  0  0  0  0  0  0  0  0
   -0.8000   -2.3490    1.6210 O   0  0  0  0  0  0  0  0  0  0  0  0
   -0.3100   -0.6810    0.0870 N   0  0  0  0  0  0  0  0  0  0  0  0
    1.0840   -1.2010    0.0090 C   0  0  0  0  0  0  0  0  0  0  0  0
    1.9840   -0.3570    0.3620 C   0  0  0  0  0  0  0  0  0  0  0  0
    3.4200   -0.5660    0.3930 C   0  0  0  0  0  0  0  0  0  0  0  0
    4.0900   -1.6110    0.0850 N   0  0  0  0  0  0  0  0  0  0  0  0
    5.4830   -1.4030    0.2550 C   0  0  0  0  0  0  0  0  0  0  0  0
    6.4000   -2.2450    0.3780 O   0  0  0  0  0  0  0  0  0  0  0  0
    5.5800    0.0970    0.2490 C   0  0  1  0  0  0  0  0  0  0  0  0
    5.6410    0.5470   -1.1680 C   0  0  2  0  0  0  0  0  0  0  0  0
    5.7600    1.9840   -1.5260 C   0  0  0  0  0  0  0  0  0  0  0  0
    4.4330    1.1980   -1.7260 C   0  0  0  0  0  0  0  0  0  0  0  0
    4.3380    0.4460    0.8040 O   0  0  0  0  0  0  0  0  0  0  0  0
    1.1510   -2.5390   -0.4490 C   0  0  0  0  0  0  0  0  0  0  0  0
    2.2990   -3.3350   -0.6380 N   0  0  0  0  0  0  0  0  0  0  0  0
    0.0280   -3.1400   -0.7410 O   0  0  0  0  0  0  0  0  0  0  0  0
  1  2  2  0
  2  3  1  0
  2  8  1  0
  3  4  1  0
  4  5  2  0
  5  6  1  0
  5  7  1  0
  7  8  2  0
  8  9  1  0
  9 10  1  0
 10 11  1  0
 11 12  2  0
 11 13  1  0
 13 14  1  0
 14 15  2  3
 14 25  1  0
 15 16  1  0
 16 17  2  0
 16 24  1  0
 17 18  1  0
 18 19  2  0
 18 20  1  0
 20 21  1  0
 20 24  1  6
 21 22  1  1
 21 23  1  0
 22 23  1  0
 25 26  1  0
 25 27  2  0
M  END
