
     RDKit          3D

 27 29  0  0  0  0  0  0  0  0999 V2000
   -6.9050    0.6040   -3.6700 C   0  0  0  0  0  0  0  0  0  0  0  0
   -6.4200    0.0430   -2.4880 O   0  0  0  0  0  0  0  0  0  0  0  0
   -5.0800   -0.1410   -2.1880 C   0  0  0  0  0  0  0  0  0  0  0  0
   -4.2310   -0.3160   -3.1690 C   0  0  0  0  0  0  0  0  0  0  0  0
   -2.8470   -0.5080   -2.8950 C   0  0  0  0  0  0  0  0  0  0  0  0
   -2.3680   -0.5120   -1.6230 C   0  0  0  0  0  0  0  0  0  0  0  0
   -0.9520   -0.7180   -1.5690 C   0  0  0  0  0  0  0  0  0  0  0  0
   -0.1440   -0.9390   -2.3850 O   0  0  0  0  0  0  0  0  0  0  0  0
   -0.3410   -0.6000    0.0200 N   0  0  0  0  0  0  0  0  0  0  0  0
    0.9990   -0.9260   -0.2950 C   0  0  0  0  0  0  0  0  0  0  0  0
    1.6040   -1.3670   -1.2320 O   0  0  0  0  0  0  0  0  0  0  0  0
    1.8130   -0.5920    0.9150 N   0  0  0  0  0  0  0  0  0  0  0  0
    3.2050   -0.7840    0.9290 C   0  0  2  0  0  0  0  0  0  0  0  0
    3.8580   -0.8480    2.2950 C   0  0  0  0  0  0  0  0  0  0  0  0
    4.1130    0.3310    1.3430 C   0  0  1  0  0  0  0  0  0  0  0  0
    5.3930    0.4320    0.6000 C   0  0  1  0  0  0  0  0  0  0  0  0
    6.2580    1.6390    1.0180 C   0  0  0  0  0  0  0  0  0  0  0  0
    7.5510    1.1800    0.3160 C   0  0  0  0  0  0  0  0  0  0  0  0
    7.6330   -0.1560    0.6020 O   0  0  0  0  0  0  0  0  0  0  0  0
    6.4040   -0.6530    0.9560 C   0  0  0  0  0  0  0  0  0  0  0  0
   -3.2540   -0.3280   -0.5930 O   0  0  0  0  0  0  0  0  0  0  0  0
   -4.5980   -0.1390   -0.7620 C   0  0  0  0  0  0  0  0  0  0  0  0
   -5.5140    0.0440    0.1530 C   0  0  0  0  0  0  0  0  0  0  0  0
   -5.4710    0.1080    1.5260 N   0  0  0  0  0  0  0  0  0  0  0  0
   -4.3190   -0.0300    2.3180 C   0  0  0  0  0  0  0  0  0  0  0  0
   -4.4890    0.0640    3.7400 N   0  0  0  0  0  0  0  0  0  0  0  0
   -3.1920   -0.2230    1.8950 O   0  0  0  0  0  0  0  0  0  0  0  0
  1  2  1  0
  2  3  1  0
  3  4  2  0
  3 22  1  0
  4  5  1  0
  5  6  2  0
  6  7  1  0
  6 21  1  0
  7  8  2  0
  7  9  1  0
  9 10  1  0
 10 11  2  0
 10 12  1  0
 13 12  1  1
 13 14  1  0
 13 15  1  0
 15 14  1  1
 15 16  1  0
 16 17  1  1
 16 20  1  0
 17 18  1  0
 18 19  1  0
 19 20  1  0
 21 22  1  0
 22 23  2  3
 23 24  1  0
 24 25  1  0
 25 26  1  0
 25 27  2  0
M  END
