
     RDKit          3D

 16 17  0  0  0  0  0  0  0  0999 V2000
    4.2810   -1.1160    1.4320 O   0  0  0  0  0  0  0  0  0  0  0  0
    4.1060   -0.2860    0.4890 C   0  0  0  0  0  0  0  0  0  0  0  0
    4.0980    1.0580    0.8090 O   0  0  0  0  0  0  0  0  0  0  0  0
    3.9150   -0.7490   -0.9140 C   0  0  0  0  0  0  0  0  0  0  0  0
    2.5080   -1.3360   -1.0890 C   0  0  0  0  0  0  0  0  0  0  0  0
    1.5470   -0.2180   -0.7550 C   0  0  0  0  0  0  0  0  0  0  0  0
    0.0980   -0.6550   -0.8850 C   0  0  0  0  0  0  0  0  0  0  0  0
   -0.7590    0.5260   -0.5320 C   0  0  2  0  0  0  0  0  0  0  0  0
   -0.4590    1.1080    1.1670 S   0  0  0  0  0  0  0  0  0  0  0  0
   -2.1960    1.5260    1.5840 C   0  0  0  0  0  0  0  0  0  0  0  0
   -2.8970    1.3120    0.2670 C   0  0  2  0  0  0  0  0  0  0  0  0
   -4.1870    0.6880    0.5910 N   0  0  0  0  0  0  0  0  0  0  0  0
   -3.8600   -0.6740    0.8410 C   0  0  0  0  0  0  0  0  0  0  0  0
   -4.6580   -1.5090    1.3880 O   0  0  0  0  0  0  0  0  0  0  0  0
   -2.5160   -0.9360    0.3850 N   0  0  0  0  0  0  0  0  0  0  0  0
   -2.2130    0.1990   -0.4530 C   0  0  2  0  0  0  0  0  0  0  0  0
  1  2  2  0
  2  3  1  0
  2  4  1  0
  4  5  1  0
  5  6  1  0
  6  7  1  0
  8  7  1  1
  8  9  1  0
  8 16  1  0
  9 10  1  0
 11 10  1  1
 11 12  1  0
 11 16  1  0
 12 13  1  0
 13 14  2  0
 13 15  1  0
 16 15  1  1
M  END
