
     RDKit          3D

 10 11  0  0  0  0  0  0  0  0999 V2000
    3.3570    0.5360    0.5600 O   0  0  0  0  0  0  0  0  0  0  0  0
    2.0280    0.2880    0.2550 C   0  0  0  0  0  0  0  0  0  0  0  0
    1.7150   -0.0340   -1.0160 N   0  0  0  0  0  0  0  0  0  0  0  0
    0.4390   -0.2860   -1.3720 C   0  0  0  0  0  0  0  0  0  0  0  0
   -0.5640   -0.2180   -0.4380 C   0  0  0  0  0  0  0  0  0  0  0  0
   -1.8810   -0.4200   -0.5380 N   0  0  0  0  0  0  0  0  0  0  0  0
   -2.4080   -0.2200    0.7000 C   0  0  0  0  0  0  0  0  0  0  0  0
   -1.4000    0.1000    1.5320 N   0  0  0  0  0  0  0  0  0  0  0  0
   -0.2310    0.1120    0.8610 C   0  0  0  0  0  0  0  0  0  0  0  0
    1.0500    0.3590    1.1880 N   0  0  0  0  0  0  0  0  0  0  0  0
  1  2  1  0
  2  3  2  0
  2 10  1  0
  3  4  1  0
  4  5  2  0
  5  6  1  0
  5  9  1  0
  6  7  1  0
  7  8  2  0
  8  9  1  0
  9 10  2  0
M  END
