
     RDKit          3D

 10 11  0  0  0  0  0  0  0  0999 V2000
    2.5470   -0.0570   -0.0450 C   0  0  0  0  0  0  0  0  0  0  0  0
    1.1010   -0.0450   -0.0240 N   0  0  0  0  0  0  0  0  0  0  0  0
    0.3930    1.0380    0.2510 N   0  0  0  0  0  0  0  0  0  0  0  0
   -0.9160    0.7170    0.1890 C   0  0  0  0  0  0  0  0  0  0  0  0
   -2.2100    1.1250    0.3060 C   0  0  0  0  0  0  0  0  0  0  0  0
   -3.0030    0.0700    0.0570 N   0  0  0  0  0  0  0  0  0  0  0  0
   -2.2660   -0.9820   -0.2110 N   0  0  0  0  0  0  0  0  0  0  0  0
   -0.9850   -0.6380   -0.1430 C   0  0  0  0  0  0  0  0  0  0  0  0
    0.3190   -1.0960   -0.2720 C   0  0  0  0  0  0  0  0  0  0  0  0
    0.7250   -2.2530   -0.5620 O   0  0  0  0  0  0  0  0  0  0  0  0
  1  2  1  0
  2  3  1  0
  2  9  1  0
  3  4  1  0
  4  5  1  0
  4  8  2  0
  5  6  2  0
  6  7  1  0
  7  8  1  0
  8  9  1  0
  9 10  2  0
M  END
