
     RDKit          3D

 10 11  0  0  0  0  0  0  0  0999 V2000
   -1.7620   -0.9960   -0.1850 C   0  0  0  0  0  0  0  0  0  0  0  0
   -1.7630    0.4410    0.3550 C   0  0  0  0  0  0  0  0  0  0  0  0
   -1.1560    1.2350   -0.5960 O   0  0  0  0  0  0  0  0  0  0  0  0
    0.0800    1.7060   -0.2240 C   0  0  0  0  0  0  0  0  0  0  0  0
    1.0520    0.5790   -0.0830 C   0  0  0  0  0  0  0  0  0  0  0  0
    2.3730    0.7560    0.0910 N   0  0  0  0  0  0  0  0  0  0  0  0
    3.0000   -0.4060    0.1860 N   0  0  0  0  0  0  0  0  0  0  0  0
    2.0650   -1.3350    0.0710 N   0  0  0  0  0  0  0  0  0  0  0  0
    0.8520   -0.7780   -0.0960 C   0  0  0  0  0  0  0  0  0  0  0  0
   -0.3860   -1.4500   -0.2550 N   0  0  0  0  0  0  0  0  0  0  0  0
  1  2  1  0
  1 10  1  0
  2  3  1  0
  3  4  1  0
  4  5  1  0
  5  6  2  0
  5  9  1  0
  6  7  1  0
  7  8  1  0
  8  9  2  0
  9 10  1  0
M  END
