
     RDKit          3D

 10 11  0  0  0  0  0  0  0  0999 V2000
    2.5650    0.4290   -0.0540 C   0  0  0  0  0  0  0  0  0  0  0  0
    1.4920   -0.3380    0.0270 C   0  0  0  0  0  0  0  0  0  0  0  0
    1.4110   -1.7520    0.1700 N   0  0  0  0  0  0  0  0  0  0  0  0
    0.1950   -2.1210    0.2130 N   0  0  0  0  0  0  0  0  0  0  0  0
   -0.6780   -1.0320    0.1070 C   0  0  0  0  0  0  0  0  0  0  0  0
    0.0920    0.1120   -0.0120 C   0  0  0  0  0  0  0  0  0  0  0  0
   -0.7570    1.1320   -0.1110 N   0  0  0  0  0  0  0  0  0  0  0  0
   -1.9940    0.6800   -0.0600 N   0  0  0  0  0  0  0  0  0  0  0  0
   -2.0040   -0.6570    0.0750 C   0  0  0  0  0  0  0  0  0  0  0  0
   -3.0510   -1.3410    0.1480 O   0  0  0  0  0  0  0  0  0  0  0  0
  1  2  2  0
  2  3  1  0
  2  6  1  0
  3  4  2  0
  4  5  1  0
  5  6  2  0
  5  9  1  0
  6  7  1  0
  7  8  1  0
  8  9  1  0
  9 10  2  0
M  END
