
     RDKit          3D

 24 26  0  0  0  0  0  0  0  0999 V2000
   -1.9150    0.2470   -2.8430 C   0  0  0  0  0  0  0  0  0  0  0  0
   -0.7930   -0.1060   -1.9680 C   0  0  0  0  0  0  0  0  0  0  0  0
   -1.1070   -1.0400   -0.7940 C   0  0  1  0  0  0  0  0  0  0  0  0
    0.2020   -1.1680   -0.1570 N   0  0  0  0  0  0  0  0  0  0  0  0
    0.7340   -0.2300    0.7560 C   0  0  0  0  0  0  0  0  0  0  0  0
    2.2000   -0.1520    1.0580 C   0  0  0  0  0  0  0  0  0  0  0  0
    2.9640    0.1390   -0.1680 C   0  0  0  0  0  0  0  0  0  0  0  0
    2.3520    0.2720   -1.2500 O   0  0  0  0  0  0  0  0  0  0  0  0
    4.3700    0.2690   -0.1400 N   0  0  0  0  0  0  0  0  0  0  0  0
    5.1890    0.1350    1.0580 C   0  0  0  0  0  0  0  0  0  0  0  0
    6.5420   -0.3260    0.5660 C   0  0  0  0  0  0  0  0  0  0  0  0
    6.6190   -0.0080   -0.8920 C   0  0  0  0  0  0  0  0  0  0  0  0
    5.2750    0.5450   -1.1990 C   0  0  0  0  0  0  0  0  0  0  0  0
    4.9190    1.1820   -2.2440 O   0  0  0  0  0  0  0  0  0  0  0  0
   -0.1280    0.5930    1.3570 C   0  0  0  0  0  0  0  0  0  0  0  0
   -1.5610    0.5460    1.0890 C   0  0  0  0  0  0  0  0  0  0  0  0
   -2.4210    1.2830    1.8760 C   0  0  0  0  0  0  0  0  0  0  0  0
   -3.7870    1.0980    1.7490 C   0  0  0  0  0  0  0  0  0  0  0  0
   -4.7600    1.8700    2.5750 C   0  0  0  0  0  0  0  0  0  0  0  0
   -4.2490    0.1880    0.8450 C   0  0  0  0  0  0  0  0  0  0  0  0
   -3.3810   -0.5690    0.0350 C   0  0  0  0  0  0  0  0  0  0  0  0
   -3.9910   -1.5560   -0.8420 C   0  0  0  0  0  0  0  0  0  0  0  0
   -5.4500   -1.4730   -0.7240 N   0  0  0  0  0  0  0  0  0  0  0  0
   -2.0220   -0.3760    0.1620 C   0  0  0  0  0  0  0  0  0  0  0  0
  1  2  1  0
  3  2  1  6
  3  4  1  0
  3 24  1  0
  4  5  1  0
  5  6  1  0
  5 15  2  0
  6  7  1  0
  7  8  2  0
  7  9  1  0
  9 10  1  0
  9 13  1  0
 10 11  1  0
 11 12  1  0
 12 13  1  0
 13 14  2  0
 15 16  1  0
 16 17  2  0
 16 24  1  0
 17 18  1  0
 18 19  1  0
 18 20  2  0
 20 21  1  0
 21 22  1  0
 21 24  2  0
 22 23  1  0
M  END
