
     RDKit          3D

 19 20  0  0  0  0  0  0  0  0999 V2000
   -4.0160   -1.1190    2.2100 C   0  0  0  0  0  0  0  0  0  0  0  0
   -3.4170    0.0170    1.5590 N   0  0  0  0  0  0  0  0  0  0  0  0
   -2.2830   -0.1430    0.7360 C   0  0  0  0  0  0  0  0  0  0  0  0
   -1.7810   -1.2850    0.5610 O   0  0  0  0  0  0  0  0  0  0  0  0
   -1.6970    1.0650    0.0820 C   0  0  2  0  0  0  0  0  0  0  0  0
   -2.7440    1.6130   -0.8430 C   0  0  0  0  0  0  0  0  0  0  0  0
   -2.2780    1.0720   -2.1950 C   0  0  1  0  0  0  0  0  0  0  0  0
   -2.8280    1.7550   -3.2520 O   0  0  0  0  0  0  0  0  0  0  0  0
   -0.7770    1.2880   -2.0650 C   0  0  0  0  0  0  0  0  0  0  0  0
   -0.5480    0.7420   -0.7190 N   0  0  0  0  0  0  0  0  0  0  0  0
    0.6070    0.0250   -0.2960 C   0  0  0  0  0  0  0  0  0  0  0  0
    0.6730   -0.3870    0.8890 O   0  0  0  0  0  0  0  0  0  0  0  0
    1.7290   -0.2440   -1.2260 C   0  0  0  0  0  0  0  0  0  0  0  0
    2.7920   -1.0050   -0.5210 C   0  0  0  0  0  0  0  0  0  0  0  0
    3.8700   -0.4510    0.1800 C   0  0  0  0  0  0  0  0  0  0  0  0
    4.6320   -1.5010    0.6910 C   0  0  0  0  0  0  0  0  0  0  0  0
    5.8710   -1.3750    1.5020 C   0  0  0  0  0  0  0  0  0  0  0  0
    3.9860   -2.6090    0.2790 N   0  0  0  0  0  0  0  0  0  0  0  0
    2.9420   -2.3040   -0.4090 O   0  0  0  0  0  0  0  0  0  0  0  0
  1  2  1  0
  2  3  1  0
  3  4  2  0
  5  3  1  6
  5  6  1  0
  5 10  1  0
  6  7  1  0
  7  8  1  6
  7  9  1  0
  9 10  1  0
 10 11  1  0
 11 12  2  0
 11 13  1  0
 13 14  1  0
 14 15  2  0
 14 19  1  0
 15 16  1  0
 16 17  1  0
 16 18  2  0
 18 19  1  0
M  END
