
     RDKit          3D

 24 26  0  0  0  0  0  0  0  0999 V2000
    7.1310   -0.4260   -1.4240 C   0  0  0  0  0  0  0  0  0  0  0  0
    6.9850    0.0300   -0.1770 O   0  0  0  0  0  0  0  0  0  0  0  0
    6.0890   -0.4290    0.7060 C   0  0  0  0  0  0  0  0  0  0  0  0
    4.6660   -0.4150    0.3490 C   0  0  0  0  0  0  0  0  0  0  0  0
    3.9260   -1.5300    0.5330 N   0  0  0  0  0  0  0  0  0  0  0  0
    2.5750   -1.5250    0.3690 C   0  0  0  0  0  0  0  0  0  0  0  0
    1.8990   -0.3930    0.0080 C   0  0  0  0  0  0  0  0  0  0  0  0
    0.4360   -0.3610   -0.0990 C   0  0  0  0  0  0  0  0  0  0  0  0
   -0.3650   -1.2490   -0.7360 C   0  0  0  0  0  0  0  0  0  0  0  0
   -1.7630   -1.1080   -0.7550 C   0  0  0  0  0  0  0  0  0  0  0  0
   -2.3780   -0.0650   -0.1310 C   0  0  0  0  0  0  0  0  0  0  0  0
   -3.7620    0.1800   -0.0440 N   0  0  0  0  0  0  0  0  0  0  0  0
   -4.2330    1.5720    0.1460 C   0  0  0  0  0  0  0  0  0  0  0  0
   -4.6870    1.6170    1.5760 C   0  0  0  0  0  0  0  0  0  0  0  0
   -5.7080    0.6240    1.7650 N   0  0  0  0  0  0  0  0  0  0  0  0
   -6.0300   -0.1540    0.6300 C   0  0  0  0  0  0  0  0  0  0  0  0
   -4.8040   -0.7940   -0.0520 C   0  0  1  0  0  0  0  0  0  0  0  0
   -5.2810   -1.1710   -1.4360 C   0  0  0  0  0  0  0  0  0  0  0  0
   -1.5200    0.8380    0.5260 C   0  0  0  0  0  0  0  0  0  0  0  0
   -0.1770    0.7140    0.5520 C   0  0  0  0  0  0  0  0  0  0  0  0
    2.6510    0.7490   -0.1870 C   0  0  0  0  0  0  0  0  0  0  0  0
    2.0570    1.8020   -0.5260 O   0  0  0  0  0  0  0  0  0  0  0  0
    4.0150    0.7600   -0.0230 C   0  0  0  0  0  0  0  0  0  0  0  0
    4.8240    2.0060   -0.2810 C   0  0  0  0  0  0  0  0  0  0  0  0
  1  2  1  0
  2  3  1  0
  3  4  1  0
  4  5  1  0
  4 23  2  0
  5  6  1  0
  6  7  2  0
  7  8  1  0
  7 21  1  0
  8  9  2  0
  8 20  1  0
  9 10  1  0
 10 11  2  0
 11 12  1  0
 11 19  1  0
 12 13  1  0
 12 17  1  0
 13 14  1  0
 14 15  1  0
 15 16  1  0
 16 17  1  0
 17 18  1  6
 19 20  2  0
 21 22  2  0
 21 23  1  0
 23 24  1  0
M  END
