
     RDKit          3D

 21 24  0  0  0  0  0  0  0  0999 V2000
    5.5140    0.5140   -1.1580 C   0  0  0  0  0  0  0  0  0  0  0  0
    5.2720    0.1460    0.1490 C   0  0  0  0  0  0  0  0  0  0  0  0
    3.9690   -0.0470    0.5840 C   0  0  0  0  0  0  0  0  0  0  0  0
    2.8980    0.1160   -0.2450 C   0  0  0  0  0  0  0  0  0  0  0  0
    1.5420   -0.0990    0.2620 C   0  0  0  0  0  0  0  0  0  0  0  0
    0.4800    0.0650   -0.5690 N   0  0  0  0  0  0  0  0  0  0  0  0
   -0.7390   -0.1470   -0.0450 C   0  0  0  0  0  0  0  0  0  0  0  0
   -1.9470   -0.0110   -0.8010 N   0  0  0  0  0  0  0  0  0  0  0  0
   -2.8730   -1.1110   -0.9960 C   0  0  0  0  0  0  0  0  0  0  0  0
   -4.2460   -0.6220   -0.5970 C   0  0  0  0  0  0  0  0  0  0  0  0
   -4.2210    0.6630   -0.0710 O   0  0  0  0  0  0  0  0  0  0  0  0
   -3.7100    1.5910   -0.9740 C   0  0  0  0  0  0  0  0  0  0  0  0
   -2.3060    1.2540   -1.4160 C   0  0  0  0  0  0  0  0  0  0  0  0
   -0.8640   -0.5180    1.2970 C   0  0  0  0  0  0  0  0  0  0  0  0
   -2.2350   -0.8860    2.3590 S   0  0  0  0  0  0  0  0  0  0  0  0
   -1.2530   -1.2420    3.8820 C   0  0  0  0  0  0  0  0  0  0  0  0
   -0.0020   -1.0420    3.4080 C   0  0  0  0  0  0  0  0  0  0  0  0
    0.2240   -0.6870    2.1460 C   0  0  0  0  0  0  0  0  0  0  0  0
    1.4150   -0.4460    1.5130 N   0  0  0  0  0  0  0  0  0  0  0  0
    3.1270    0.4830   -1.5490 C   0  0  0  0  0  0  0  0  0  0  0  0
    4.4380    0.6800   -1.9970 C   0  0  0  0  0  0  0  0  0  0  0  0
  1  2  2  0
  1 21  1  0
  2  3  1  0
  3  4  2  0
  4  5  1  0
  4 20  1  0
  5  6  2  0
  5 19  1  0
  6  7  1  0
  7  8  1  0
  7 14  2  0
  8  9  1  0
  8 13  1  0
  9 10  1  0
 10 11  1  0
 11 12  1  0
 12 13  1  0
 14 15  1  0
 14 18  1  0
 15 16  1  0
 16 17  2  0
 17 18  1  0
 18 19  2  0
 20 21  2  0
M  END
