
     RDKit          3D

 21 24  0  0  0  0  0  0  0  0999 V2000
   -5.5750    1.2440   -0.2500 C   0  0  0  0  0  0  0  0  0  0  0  0
   -5.1550    0.3520    0.9030 C   0  0  0  0  0  0  0  0  0  0  0  0
   -3.3940    0.6280    1.2430 S   0  0  0  0  0  0  0  0  0  0  0  0
   -2.4790    0.0090   -0.2330 C   0  0  2  0  0  0  0  0  0  0  0  0
   -2.6670   -1.4440   -0.3090 C   0  0  0  0  0  0  0  0  0  0  0  0
   -1.5120   -2.3410   -0.4150 C   0  0  0  0  0  0  0  0  0  0  0  0
   -0.2270   -1.6930   -0.3450 N   0  0  0  0  0  0  0  0  0  0  0  0
    1.0260   -2.2480   -0.3390 C   0  0  0  0  0  0  0  0  0  0  0  0
    1.2460   -3.4840   -0.3980 O   0  0  0  0  0  0  0  0  0  0  0  0
    1.9630   -1.2610   -0.2610 C   0  0  0  0  0  0  0  0  0  0  0  0
    3.3510   -1.2130   -0.2190 C   0  0  0  0  0  0  0  0  0  0  0  0
    4.0060    0.0030   -0.1370 C   0  0  0  0  0  0  0  0  0  0  0  0
    5.3850    0.1020   -0.0930 C   0  0  0  0  0  0  0  0  0  0  0  0
    6.0520    1.3080   -0.0100 C   0  0  0  0  0  0  0  0  0  0  0  0
    5.3110    2.4850    0.0310 C   0  0  0  0  0  0  0  0  0  0  0  0
    3.9340    2.4180   -0.0110 C   0  0  0  0  0  0  0  0  0  0  0  0
    3.2900    1.1810   -0.0950 C   0  0  0  0  0  0  0  0  0  0  0  0
    1.9490    1.0940   -0.1370 N   0  0  0  0  0  0  0  0  0  0  0  0
    1.2760   -0.0720   -0.2170 C   0  0  0  0  0  0  0  0  0  0  0  0
   -0.0500   -0.3990   -0.2720 N   0  0  0  0  0  0  0  0  0  0  0  0
   -1.1270    0.5590   -0.2530 C   0  0  0  0  0  0  0  0  0  0  0  0
  1  2  1  0
  2  3  1  0
  4  3  1  1
  4  5  1  0
  4 21  1  0
  5  6  1  0
  6  7  1  0
  7  8  1  0
  7 20  1  0
  8  9  2  0
  8 10  1  0
 10 11  2  0
 10 19  1  0
 11 12  1  0
 12 13  2  0
 12 17  1  0
 13 14  1  0
 14 15  2  0
 15 16  1  0
 16 17  2  0
 17 18  1  0
 18 19  2  0
 19 20  1  0
 20 21  1  0
M  END
