
     RDKit          3D

 41 45  0  0  0  0  0  0  0  0999 V2000
    5.8030    1.7440    2.9010 O   0  0  0  0  0  0  0  0  0  0  0  0
    7.3170    1.8340    3.0240 S   0  0  0  0  0  0  0  0  0  0  0  0
    8.0420    0.3720    2.3370 N   0  0  0  0  0  0  0  0  0  0  0  0
    7.3480    0.0930    1.1420 C   0  0  0  0  0  0  0  0  0  0  0  0
    7.1380    1.1520    0.2510 C   0  0  0  0  0  0  0  0  0  0  0  0
    6.4410    0.9800   -0.9030 C   0  0  0  0  0  0  0  0  0  0  0  0
    5.9230   -0.2630   -1.2130 C   0  0  0  0  0  0  0  0  0  0  0  0
    5.1550   -0.4740   -2.4610 C   0  0  0  0  0  0  0  0  0  0  0  0
    3.7730   -0.5680   -2.2760 O   0  0  0  0  0  0  0  0  0  0  0  0
    2.9960    0.4230   -1.7240 C   0  0  0  0  0  0  0  0  0  0  0  0
    3.5820    1.4800   -1.3660 O   0  0  0  0  0  0  0  0  0  0  0  0
    1.5570    0.2430   -1.5680 C   0  0  0  0  0  0  0  0  0  0  0  0
    0.9860   -0.9350   -1.9880 C   0  0  0  0  0  0  0  0  0  0  0  0
   -0.3700   -1.0980   -1.8340 C   0  0  0  0  0  0  0  0  0  0  0  0
   -1.1740   -0.0990   -1.2640 C   0  0  0  0  0  0  0  0  0  0  0  0
   -2.5520   -0.4230   -1.1840 N   0  0  0  0  0  0  0  0  0  0  0  0
   -3.5490    0.3190   -0.5210 C   0  0  0  0  0  0  0  0  0  0  0  0
   -3.2730    1.3570    0.0690 O   0  0  0  0  0  0  0  0  0  0  0  0
   -4.9240   -0.0900   -0.5010 N   0  0  0  0  0  0  0  0  0  0  0  0
   -5.9540    0.6520    0.1690 C   0  0  1  0  0  0  0  0  0  0  0  0
   -7.0430    1.1130   -0.6630 C   0  0  0  0  0  0  0  0  0  0  0  0
   -6.8390    2.0710   -1.6220 C   0  0  0  0  0  0  0  0  0  0  0  0
   -7.8600    2.5280   -2.4250 C   0  0  0  0  0  0  0  0  0  0  0  0
   -9.1330    2.0260   -2.2810 C   0  0  0  0  0  0  0  0  0  0  0  0
  -10.4570    2.6090   -3.3110 Cl  0  0  0  0  0  0  0  0  0  0  0  0
   -9.3540    1.0690   -1.3280 C   0  0  0  0  0  0  0  0  0  0  0  0
   -8.3110    0.6050   -0.5110 C   0  0  0  0  0  0  0  0  0  0  0  0
   -8.6630   -0.4230    0.4710 C   0  0  0  0  0  0  0  0  0  0  0  0
   -7.6500   -0.6620    1.4940 C   0  0  0  0  0  0  0  0  0  0  0  0
   -7.6930   -1.3160    2.6300 O   0  0  0  0  0  0  0  0  0  0  0  0
   -6.5330   -1.2690    3.2310 C   0  0  0  0  0  0  0  0  0  0  0  0
   -6.1380   -2.0010    4.7640 Cl  0  0  0  0  0  0  0  0  0  0  0  0
   -5.6740   -0.5370    2.4400 C   0  0  0  0  0  0  0  0  0  0  0  0
   -6.3870   -0.1520    1.3360 C   0  0  0  0  0  0  0  0  0  0  0  0
   -0.6090    1.0630   -0.8500 C   0  0  0  0  0  0  0  0  0  0  0  0
    0.7710    1.2250   -1.0080 C   0  0  0  0  0  0  0  0  0  0  0  0
    6.1230   -1.2880   -0.3580 C   0  0  0  0  0  0  0  0  0  0  0  0
    6.8360   -1.1390    0.8350 C   0  0  0  0  0  0  0  0  0  0  0  0
    7.0240   -2.3490    1.6630 C   0  0  0  0  0  0  0  0  0  0  0  0
    8.2910   -3.1010    1.4270 C   0  0  0  0  0  0  0  0  0  0  0  0
    9.7610   -2.1980    1.7110 Cl  0  0  0  0  0  0  0  0  0  0  0  0
  1  2  2  0
  2  3  1  0
  3  4  1  0
  4  5  2  0
  4 38  1  0
  5  6  1  0
  6  7  2  0
  7  8  1  0
  7 37  1  0
  8  9  1  0
  9 10  1  0
 10 11  2  0
 10 12  1  0
 12 13  2  0
 12 36  1  0
 13 14  1  0
 14 15  2  0
 15 16  1  0
 15 35  1  0
 16 17  1  0
 17 18  2  0
 17 19  1  0
 20 19  1  6
 20 21  1  0
 20 34  1  0
 21 22  2  0
 21 27  1  0
 22 23  1  0
 23 24  2  0
 24 25  1  0
 24 26  1  0
 26 27  2  0
 27 28  1  0
 28 29  1  0
 29 30  1  0
 29 34  2  0
 30 31  1  0
 31 32  1  0
 31 33  2  0
 33 34  1  0
 35 36  2  0
 37 38  2  0
 38 39  1  0
 39 40  1  0
 40 41  1  0
M  CHG  1   3   1
M  END
