
     RDKit          3D

 41 45  0  0  0  0  0  0  0  0999 V2000
   -8.1390    0.9700    1.4940 C   0  0  0  0  0  0  0  0  0  0  0  0
   -7.3860    1.0880    0.3220 N   0  0  0  0  0  0  0  0  0  0  0  0
   -6.1830    0.8230    0.0890 C   0  0  0  0  0  0  0  0  0  0  0  0
   -5.6130    1.0430   -1.2710 C   0  0  0  0  0  0  0  0  0  0  0  0
   -6.4480    1.5180   -2.1760 C   0  0  0  0  0  0  0  0  0  0  0  0
   -5.8330    1.7960   -3.7920 Cl  0  0  0  0  0  0  0  0  0  0  0  0
   -8.1120    1.8790   -1.8490 Cl  0  0  0  0  0  0  0  0  0  0  0  0
   -4.2330    0.7300   -1.4990 C   0  0  0  0  0  0  0  0  0  0  0  0
   -3.4240    0.2540   -0.5710 C   0  0  0  0  0  0  0  0  0  0  0  0
   -2.0640   -0.0340   -0.8710 N   0  0  0  0  0  0  0  0  0  0  0  0
   -1.4970   -1.3140   -0.7490 C   0  0  0  0  0  0  0  0  0  0  0  0
   -2.3130   -2.2120   -0.3420 O   0  0  0  0  0  0  0  0  0  0  0  0
   -0.1380   -1.7210   -1.0220 C   0  0  0  0  0  0  0  0  0  0  0  0
    0.1820   -3.0610   -0.8330 C   0  0  0  0  0  0  0  0  0  0  0  0
    1.4320   -3.5790   -1.0590 C   0  0  0  0  0  0  0  0  0  0  0  0
    1.6870   -4.9310   -0.8500 O   0  0  0  0  0  0  0  0  0  0  0  0
    0.6280   -5.7460   -0.4030 C   0  0  0  0  0  0  0  0  0  0  0  0
    2.4600   -2.7380   -1.5040 C   0  0  0  0  0  0  0  0  0  0  0  0
    2.1390   -1.4240   -1.6880 C   0  0  0  0  0  0  0  0  0  0  0  0
    0.8760   -0.8980   -1.4600 C   0  0  0  0  0  0  0  0  0  0  0  0
    0.6260    0.4280   -1.6650 O   0  0  0  0  0  0  0  0  0  0  0  0
    1.6470    1.2600   -2.1060 C   0  0  0  0  0  0  0  0  0  0  0  0
    1.8100    1.4350   -3.4610 C   0  0  0  0  0  0  0  0  0  0  0  0
    2.8400    2.2720   -3.8600 C   0  0  0  0  0  0  0  0  0  0  0  0
    3.6550    2.8950   -2.9560 C   0  0  0  0  0  0  0  0  0  0  0  0
    3.5000    2.7250   -1.5750 C   0  0  0  0  0  0  0  0  0  0  0  0
    4.3290    3.3620   -0.7430 O   0  0  0  0  0  0  0  0  0  0  0  0
    4.4320    3.3890    0.6180 C   0  0  0  0  0  0  0  0  0  0  0  0
    4.7130    2.0400    1.1710 C   0  0  0  0  0  0  0  0  0  0  0  0
    4.0700    1.2800    2.0210 C   0  0  0  0  0  0  0  0  0  0  0  0
    2.5350    1.8390    2.7520 Cl  0  0  0  0  0  0  0  0  0  0  0  0
    4.6170   -0.0190    2.3480 C   0  0  2  0  0  0  0  0  0  0  0  0
    4.4290   -0.2180    3.7980 N   0  0  0  0  0  0  0  0  0  0  0  0
    6.1140   -0.0510    2.1430 C   0  0  0  0  0  0  0  0  0  0  0  0
    6.1950    1.0980    0.7060 S   0  0  0  0  0  0  0  0  0  0  0  0
    2.4860    1.9010   -1.1830 C   0  0  0  0  0  0  0  0  0  0  0  0
   -3.9600    0.0320    0.7620 C   0  0  0  0  0  0  0  0  0  0  0  0
   -3.3720   -0.4220    1.8270 O   0  0  0  0  0  0  0  0  0  0  0  0
   -4.1830   -0.4830    2.8490 C   0  0  0  0  0  0  0  0  0  0  0  0
   -5.4340   -0.0270    2.4310 C   0  0  0  0  0  0  0  0  0  0  0  0
   -5.2860    0.2990    1.1010 C   0  0  0  0  0  0  0  0  0  0  0  0
  1  2  1  0
  2  3  2  3
  3  4  1  0
  3 41  1  0
  4  5  2  3
  4  8  1  0
  5  6  1  0
  5  7  1  0
  8  9  2  0
  9 10  1  0
  9 37  1  0
 10 11  1  0
 11 12  2  0
 11 13  1  0
 13 14  2  0
 13 20  1  0
 14 15  1  0
 15 16  1  0
 15 18  2  0
 16 17  1  0
 18 19  1  0
 19 20  2  0
 20 21  1  0
 21 22  1  0
 22 23  2  0
 22 36  1  0
 23 24  1  0
 24 25  2  0
 25 26  1  0
 26 27  1  0
 26 36  2  0
 27 28  1  0
 28 29  1  0
 29 30  2  0
 29 35  1  0
 30 31  1  0
 30 32  1  0
 32 33  1  1
 32 34  1  0
 34 35  1  0
 37 38  1  0
 37 41  2  0
 38 39  1  0
 39 40  2  0
 40 41  1  0
M  CHG  1  33   1
M  END
