
     RDKit          3D

 41 45  0  0  0  0  0  0  0  0999 V2000
    3.5980   -0.6370   -3.5670 C   0  0  0  0  0  0  0  0  0  0  0  0
    4.1330   -1.1260   -2.3810 O   0  0  0  0  0  0  0  0  0  0  0  0
    3.4650   -1.1680   -1.1720 C   0  0  0  0  0  0  0  0  0  0  0  0
    2.2110   -0.6970   -0.9850 C   0  0  0  0  0  0  0  0  0  0  0  0
    1.5280   -0.7700    0.2540 C   0  0  0  0  0  0  0  0  0  0  0  0
    0.2680   -0.2270    0.2540 O   0  0  0  0  0  0  0  0  0  0  0  0
   -0.1330    0.7990    1.1290 C   0  0  0  0  0  0  0  0  0  0  0  0
    0.5840    1.1750    2.2340 C   0  0  0  0  0  0  0  0  0  0  0  0
    0.1410    2.2110    3.0660 C   0  0  0  0  0  0  0  0  0  0  0  0
   -1.0410    2.8590    2.7470 C   0  0  0  0  0  0  0  0  0  0  0  0
   -1.6460    4.1110    3.8010 Cl  0  0  0  0  0  0  0  0  0  0  0  0
   -1.7490    2.4830    1.6290 C   0  0  0  0  0  0  0  0  0  0  0  0
   -2.9390    3.6810    1.1040 Cl  0  0  0  0  0  0  0  0  0  0  0  0
   -1.3540    1.4790    0.8180 C   0  0  0  0  0  0  0  0  0  0  0  0
   -2.0550    1.0030   -0.4310 C   0  0  0  0  0  0  0  0  0  0  0  0
   -3.3080    0.4050   -0.2800 N   0  0  0  0  0  0  0  0  0  0  0  0
   -4.5740    0.8870   -0.4230 C   0  0  2  0  0  0  0  0  0  0  0  0
   -5.2680    1.5380    0.7850 C   0  0  0  0  0  0  0  0  0  0  0  0
   -6.0390    2.7470    0.3660 C   0  0  0  0  0  0  0  0  0  0  0  0
   -7.3080    2.4260   -0.3630 C   0  0  0  0  0  0  0  0  0  0  0  0
   -8.1360    3.3330   -0.3760 O   0  0  0  0  0  0  0  0  0  0  0  0
   -7.6590    1.2140   -1.0380 N   0  0  0  0  0  0  0  0  0  0  0  0
   -6.9120   -0.0210   -0.9250 C   0  0  0  0  0  0  0  0  0  0  0  0
   -7.7690   -1.1200   -1.0530 C   0  0  0  0  0  0  0  0  0  0  0  0
   -7.3050   -2.4010   -0.9610 C   0  0  0  0  0  0  0  0  0  0  0  0
   -8.3880   -3.7910   -1.1020 Cl  0  0  0  0  0  0  0  0  0  0  0  0
   -5.9420   -2.5930   -0.7290 C   0  0  0  0  0  0  0  0  0  0  0  0
   -5.4930   -3.9000   -0.6410 O   0  0  0  0  0  0  0  0  0  0  0  0
   -5.0700   -1.5040   -0.5950 C   0  0  0  0  0  0  0  0  0  0  0  0
   -5.5810   -0.2540   -0.6960 C   0  0  0  0  0  0  0  0  0  0  0  0
    2.1900   -1.3490    1.2820 C   0  0  0  0  0  0  0  0  0  0  0  0
    3.4930   -1.8380    1.1040 C   0  0  0  0  0  0  0  0  0  0  0  0
    4.1730   -1.7690   -0.0870 C   0  0  0  0  0  0  0  0  0  0  0  0
    5.3780   -2.1780   -0.3230 O   0  0  0  0  0  0  0  0  0  0  0  0
    6.5820   -2.6020   -0.4810 C   0  0  0  0  0  0  0  0  0  0  0  0
    7.6400   -1.7140    0.2120 C   0  0  0  0  0  0  0  0  0  0  0  0
    8.0930   -1.3130    1.1690 N   0  0  0  0  0  0  0  0  0  0  0  0
    9.0890   -0.4910    1.3860 C   0  0  0  0  0  0  0  0  0  0  0  0
    9.7140   -0.0120    0.2990 C   0  0  0  0  0  0  0  0  0  0  0  0
   10.8820    0.9030    0.0900 C   0  0  0  0  0  0  0  0  0  0  0  0
    8.7870   -0.8130   -1.0430 S   0  0  0  0  0  0  0  0  0  0  0  0
  1  2  1  0
  2  3  1  0
  3  4  2  0
  3 33  1  0
  4  5  1  0
  5  6  1  0
  5 31  2  0
  6  7  1  0
  7  8  2  0
  7 14  1  0
  8  9  1  0
  9 10  2  0
 10 11  1  0
 10 12  1  0
 12 13  1  0
 12 14  2  0
 14 15  1  0
 15 16  1  0
 17 16  1  1
 17 18  1  0
 17 30  1  0
 18 19  1  0
 19 20  1  0
 20 21  2  0
 20 22  1  0
 22 23  1  0
 23 24  2  0
 23 30  1  0
 24 25  1  0
 25 26  1  0
 25 27  2  0
 27 28  1  0
 27 29  1  0
 29 30  2  0
 31 32  1  0
 32 33  2  0
 33 34  1  0
 34 35  1  0
 35 36  1  0
 36 37  2  0
 36 41  1  0
 37 38  1  0
 38 39  2  0
 39 40  1  0
 39 41  1  0
M  CHG  1  16   1
M  END
