
     RDKit          3D

 41 45  0  0  0  0  0  0  0  0999 V2000
    7.7590    0.9060   -0.6530 C   0  0  0  0  0  0  0  0  0  0  0  0
    7.2800   -0.3640   -0.4750 O   0  0  0  0  0  0  0  0  0  0  0  0
    6.0030   -0.8330   -0.4350 C   0  0  0  0  0  0  0  0  0  0  0  0
    4.7960   -0.0170   -0.4140 C   0  0  0  0  0  0  0  0  0  0  0  0
    3.5800   -0.6670   -0.4170 C   0  0  0  0  0  0  0  0  0  0  0  0
    2.2010   -0.1090   -0.0790 C   0  0  0  0  0  0  0  0  0  0  0  0
    1.5460   -0.9780    0.8430 C   0  0  0  0  0  0  0  0  0  0  0  0
    0.2740   -0.8570    1.1340 C   0  0  0  0  0  0  0  0  0  0  0  0
   -0.4760   -1.9390    2.3290 Cl  0  0  0  0  0  0  0  0  0  0  0  0
   -0.5040    0.1860    0.5290 C   0  0  0  0  0  0  0  0  0  0  0  0
   -1.9300    0.1030    0.8840 C   0  0  0  0  0  0  0  0  0  0  0  0
   -2.6870   -0.9370    0.0940 N   0  0  0  0  0  0  0  0  0  0  0  0
   -3.8000   -1.2880    0.8250 C   0  0  2  0  0  0  0  0  0  0  0  0
   -3.7780   -2.3630    1.8890 C   0  0  0  0  0  0  0  0  0  0  0  0
   -5.1920   -2.1190    2.2410 O   0  0  0  0  0  0  0  0  0  0  0  0
   -5.8770   -2.3000    0.9700 C   0  0  0  0  0  0  0  0  0  0  0  0
   -7.0420   -2.8100    0.5660 C   0  0  0  0  0  0  0  0  0  0  0  0
   -7.4190   -2.8610   -0.7490 C   0  0  0  0  0  0  0  0  0  0  0  0
   -6.4740   -2.3410   -1.6680 C   0  0  0  0  0  0  0  0  0  0  0  0
   -6.9550   -2.4870   -3.0610 O   0  0  0  0  0  0  0  0  0  0  0  0
   -5.3370   -1.8520   -1.2970 C   0  0  0  0  0  0  0  0  0  0  0  0
   -4.9570   -1.7950    0.0850 C   0  0  0  0  0  0  0  0  0  0  0  0
    0.1840    1.0200   -0.3020 C   0  0  0  0  0  0  0  0  0  0  0  0
   -0.4860    2.2380   -0.8460 O   0  0  0  0  0  0  0  0  0  0  0  0
   -0.4900    3.0980    0.2420 C   0  0  0  0  0  0  0  0  0  0  0  0
   -1.0740    4.3690    0.1680 C   0  0  0  0  0  0  0  0  0  0  0  0
   -1.4600    5.0590   -0.9230 C   0  0  0  0  0  0  0  0  0  0  0  0
   -2.0360    6.3630   -0.7820 C   0  0  0  0  0  0  0  0  0  0  0  0
   -2.1900    6.9020    0.3460 C   0  0  0  0  0  0  0  0  0  0  0  0
   -1.8280    6.2570    1.5410 N   0  0  0  0  0  0  0  0  0  0  0  0
   -1.3210    5.0530    1.4050 C   0  0  0  0  0  0  0  0  0  0  0  0
   -1.0630    4.1000    2.9120 Cl  0  0  0  0  0  0  0  0  0  0  0  0
    1.5100    0.8680   -0.6090 C   0  0  0  0  0  0  0  0  0  0  0  0
    2.1840    1.7750   -1.4550 O   0  0  0  0  0  0  0  0  0  0  0  0
    3.5960   -2.0460   -0.4560 C   0  0  0  0  0  0  0  0  0  0  0  0
    2.0610   -2.9510   -0.7330 Cl  0  0  0  0  0  0  0  0  0  0  0  0
    4.6960   -2.7880   -0.4630 C   0  0  0  0  0  0  0  0  0  0  0  0
    5.9150   -2.1430   -0.4420 C   0  0  0  0  0  0  0  0  0  0  0  0
    7.0500   -3.1540   -0.1690 C   0  0  0  0  0  0  0  0  0  0  0  0
    8.0650   -2.5430   -0.0460 N   0  0  0  0  0  0  0  0  0  0  0  0
    6.7240   -4.8380    0.1970 S   0  0  0  0  0  0  0  0  0  0  0  0
  1  2  1  0
  2  3  1  0
  3  4  2  0
  3 38  1  0
  4  5  1  0
  5  6  1  0
  5 35  2  0
  6  7  2  0
  6 33  1  0
  7  8  1  0
  8  9  1  0
  8 10  2  0
 10 11  1  0
 10 23  1  0
 11 12  1  0
 13 12  1  6
 13 14  1  0
 13 22  1  0
 14 15  1  0
 15 16  1  0
 16 17  2  0
 16 22  1  0
 17 18  1  0
 18 19  2  0
 19 20  1  0
 19 21  1  0
 21 22  2  0
 23 24  1  0
 23 33  2  0
 24 25  1  0
 25 26  1  0
 26 27  2  0
 26 31  1  0
 27 28  1  0
 28 29  2  0
 29 30  1  0
 30 31  2  0
 31 32  1  0
 33 34  1  0
 35 36  1  0
 35 37  1  0
 37 38  2  0
 38 39  1  0
 39 40  2  0
 39 41  1  0
M  CHG  1  12   1
M  END
