
     RDKit          3D

 41 45  0  0  0  0  0  0  0  0999 V2000
   -4.5650   -2.0090   -1.2280 C   0  0  0  0  0  0  0  0  0  0  0  0
   -5.4500   -0.7560   -1.0200 C   0  0  1  0  0  0  0  0  0  0  0  0
   -5.7410   -0.7240    0.3490 N   0  0  0  0  0  0  0  0  0  0  0  0
   -6.4510    0.3720    0.9050 C   0  0  0  0  0  0  0  0  0  0  0  0
   -7.9340    0.3080    0.6410 C   0  0  0  0  0  0  0  0  0  0  0  0
   -8.6720   -0.6740    0.0660 C   0  0  0  0  0  0  0  0  0  0  0  0
   -9.9780   -0.2510    0.0570 C   0  0  0  0  0  0  0  0  0  0  0  0
   -9.9710    0.9980    0.6420 C   0  0  0  0  0  0  0  0  0  0  0  0
  -11.3470    2.0450    0.9140 Cl  0  0  0  0  0  0  0  0  0  0  0  0
   -8.7360    1.2950    0.9760 O   0  0  0  0  0  0  0  0  0  0  0  0
   -4.7850    0.3390   -1.7160 C   0  0  1  0  0  0  0  0  0  0  0  0
   -5.4670    1.6890   -1.6830 C   0  0  0  0  0  0  0  0  0  0  0  0
   -3.3430    0.5540   -1.4470 C   0  0  0  0  0  0  0  0  0  0  0  0
   -2.8640    1.6180   -1.0150 O   0  0  0  0  0  0  0  0  0  0  0  0
   -2.4760   -0.4850   -1.6920 O   0  0  0  0  0  0  0  0  0  0  0  0
   -1.0450   -0.4080   -1.4760 C   0  0  0  0  0  0  0  0  0  0  0  0
   -0.7710   -0.1650   -0.0620 C   0  0  0  0  0  0  0  0  0  0  0  0
   -2.1200   -0.0040    1.0960 S   0  0  0  0  0  0  0  0  0  0  0  0
   -1.1120    0.2680    2.5380 C   0  0  0  0  0  0  0  0  0  0  0  0
    0.1810    0.2160    2.0300 C   0  0  0  0  0  0  0  0  0  0  0  0
    1.3050    0.3880    2.8750 C   0  0  0  0  0  0  0  0  0  0  0  0
    1.1510    0.5940    4.1050 O   0  0  0  0  0  0  0  0  0  0  0  0
    2.5530    0.3390    2.4030 N   0  0  0  0  0  0  0  0  0  0  0  0
    2.7470    0.1210    1.1000 C   0  0  0  0  0  0  0  0  0  0  0  0
    4.0790    0.0700    0.6440 C   0  0  0  0  0  0  0  0  0  0  0  0
    4.3620   -0.1540   -0.6670 C   0  0  0  0  0  0  0  0  0  0  0  0
    5.6870   -0.2100   -1.1490 N   0  0  0  0  0  0  0  0  0  0  0  0
    6.8790   -0.0590   -0.4430 C   0  0  0  0  0  0  0  0  0  0  0  0
    6.8860    0.1570    0.7630 O   0  0  0  0  0  0  0  0  0  0  0  0
    8.1930   -0.1590   -1.1680 C   0  0  0  0  0  0  0  0  0  0  0  0
    9.2690    0.0410   -0.1470 C   0  0  0  0  0  0  0  0  0  0  0  0
   10.1650    1.0070   -0.1890 C   0  0  0  0  0  0  0  0  0  0  0  0
   11.0400    0.8590    0.9860 C   0  0  0  0  0  0  0  0  0  0  0  0
   10.5160   -0.3150    1.6900 C   0  0  0  0  0  0  0  0  0  0  0  0
    9.4810   -0.7930    1.0260 C   0  0  0  0  0  0  0  0  0  0  0  0
    8.4910   -2.1840    1.4330 Cl  0  0  0  0  0  0  0  0  0  0  0  0
    3.2820   -0.3260   -1.5160 C   0  0  0  0  0  0  0  0  0  0  0  0
    3.6000   -0.6150   -3.2020 Cl  0  0  0  0  0  0  0  0  0  0  0  0
    1.9700   -0.2800   -1.0880 C   0  0  0  0  0  0  0  0  0  0  0  0
    1.6870   -0.0550    0.2230 C   0  0  0  0  0  0  0  0  0  0  0  0
    0.3510   -0.0020    0.7240 C   0  0  0  0  0  0  0  0  0  0  0  0
  2  1  1  1
  2  3  1  0
  2 11  1  0
  3  4  1  0
  4  5  1  0
  5  6  2  0
  5 10  1  0
  6  7  1  0
  7  8  2  0
  8  9  1  0
  8 10  1  0
 11 12  1  1
 11 13  1  0
 13 14  2  0
 13 15  1  0
 15 16  1  0
 16 17  1  0
 17 18  1  0
 17 41  2  0
 18 19  1  0
 19 20  2  0
 20 21  1  0
 20 41  1  0
 21 22  2  0
 21 23  1  0
 23 24  1  0
 24 25  2  0
 24 40  1  0
 25 26  1  0
 26 27  1  0
 26 37  2  0
 27 28  1  0
 28 29  2  0
 28 30  1  0
 30 31  1  0
 31 32  2  0
 31 35  1  0
 32 33  1  0
 33 34  1  0
 34 35  2  0
 35 36  1  0
 37 38  1  0
 37 39  1  0
 39 40  2  0
 40 41  1  0
M  CHG  1   3   1
M  END
