
     RDKit          3D

 41 45  0  0  0  0  0  0  0  0999 V2000
    5.5790   -0.9560   -1.8670 O   0  0  0  0  0  0  0  0  0  0  0  0
    5.3120   -0.2120   -0.8890 C   0  0  0  0  0  0  0  0  0  0  0  0
    6.3930    0.4210   -0.2130 N   0  0  0  0  0  0  0  0  0  0  0  0
    7.7750    0.2400   -0.6050 C   0  0  0  0  0  0  0  0  0  0  0  0
    8.2530   -1.1410   -0.5340 C   0  0  0  0  0  0  0  0  0  0  0  0
    7.7210   -2.2980   -0.1370 C   0  0  0  0  0  0  0  0  0  0  0  0
    8.4540   -3.4270   -0.2020 C   0  0  0  0  0  0  0  0  0  0  0  0
    9.7190   -3.3650   -0.6700 C   0  0  0  0  0  0  0  0  0  0  0  0
   11.0010   -4.5030   -0.9310 Cl  0  0  0  0  0  0  0  0  0  0  0  0
    9.8360   -1.5450   -1.0350 S   0  0  0  0  0  0  0  0  0  0  0  0
    3.9150   -0.0540   -0.5230 C   0  0  0  0  0  0  0  0  0  0  0  0
    3.5150    0.6530    0.5900 C   0  0  0  0  0  0  0  0  0  0  0  0
    2.1610    0.7830    0.9060 C   0  0  0  0  0  0  0  0  0  0  0  0
    1.2040    0.2050    0.1050 C   0  0  0  0  0  0  0  0  0  0  0  0
   -0.2270    0.3300    0.4220 C   0  0  0  0  0  0  0  0  0  0  0  0
   -0.7530    0.9790    1.4720 N   0  0  0  0  0  0  0  0  0  0  0  0
   -2.1200    0.8870    1.4480 C   0  0  0  0  0  0  0  0  0  0  0  0
   -3.0620    1.4610    2.4160 C   0  0  0  0  0  0  0  0  0  0  0  0
   -3.7510    2.6800    2.0060 C   0  0  0  0  0  0  0  0  0  0  0  0
   -3.1230    3.8890    2.1530 C   0  0  0  0  0  0  0  0  0  0  0  0
   -3.7890    5.0310    1.7780 C   0  0  0  0  0  0  0  0  0  0  0  0
   -5.0230    4.9840    1.2780 N   0  0  0  0  0  0  0  0  0  0  0  0
   -5.6850    3.8310    1.1130 C   0  0  0  0  0  0  0  0  0  0  0  0
   -7.0520    3.8310    0.5560 C   0  0  0  0  0  0  0  0  0  0  0  0
   -7.5380    2.5240    0.4760 O   0  0  0  0  0  0  0  0  0  0  0  0
   -5.0240    2.6770    1.4870 C   0  0  0  0  0  0  0  0  0  0  0  0
   -2.3740    0.1460    0.3240 C   0  0  0  0  0  0  0  0  0  0  0  0
   -3.7120   -0.2490   -0.1740 C   0  0  0  0  0  0  0  0  0  0  0  0
   -3.6390   -1.0290   -1.3420 O   0  0  0  0  0  0  0  0  0  0  0  0
   -3.0290   -2.2620   -1.4460 C   0  0  0  0  0  0  0  0  0  0  0  0
   -2.4200   -2.8970   -0.3890 C   0  0  0  0  0  0  0  0  0  0  0  0
   -1.8440   -4.1300   -0.6290 C   0  0  0  0  0  0  0  0  0  0  0  0
   -1.0700   -4.9210    0.7420 Cl  0  0  0  0  0  0  0  0  0  0  0  0
   -1.8450   -4.7560   -1.8570 C   0  0  0  0  0  0  0  0  0  0  0  0
   -2.4670   -4.0860   -2.8890 C   0  0  0  0  0  0  0  0  0  0  0  0
   -3.0590   -2.8570   -2.7170 C   0  0  0  0  0  0  0  0  0  0  0  0
   -3.6770   -2.2060   -3.7740 O   0  0  0  0  0  0  0  0  0  0  0  0
   -1.2150   -0.1620   -0.2530 O   0  0  0  0  0  0  0  0  0  0  0  0
    1.5750   -0.5070   -1.0140 C   0  0  0  0  0  0  0  0  0  0  0  0
    0.3890   -1.2590   -2.0600 Cl  0  0  0  0  0  0  0  0  0  0  0  0
    2.9360   -0.6210   -1.3050 C   0  0  0  0  0  0  0  0  0  0  0  0
  1  2  2  0
  2  3  1  0
  2 11  1  0
  3  4  1  0
  4  5  1  0
  5  6  2  0
  5 10  1  0
  6  7  1  0
  7  8  2  0
  8  9  1  0
  8 10  1  0
 11 12  2  0
 11 41  1  0
 12 13  1  0
 13 14  2  0
 14 15  1  0
 14 39  1  0
 15 16  2  0
 15 38  1  0
 16 17  1  0
 17 18  1  0
 17 27  2  0
 18 19  1  0
 19 20  2  0
 19 26  1  0
 20 21  1  0
 21 22  2  0
 22 23  1  0
 23 24  1  0
 23 26  2  0
 24 25  1  0
 27 28  1  0
 27 38  1  0
 28 29  1  0
 29 30  1  0
 30 31  2  0
 30 36  1  0
 31 32  1  0
 32 33  1  0
 32 34  2  0
 34 35  1  0
 35 36  2  0
 36 37  1  0
 39 40  1  0
 39 41  2  0
M  CHG  1  22   1
M  END
