
     RDKit          3D

 25 25  0  0  0  0  0  0  0  0999 V2000
   -2.8430   -1.9600    1.5010 C   0  0  0  0  0  0  0  0  0  0  0  0
   -1.8250   -2.0310    0.3970 C   0  0  0  0  0  0  0  0  0  0  0  0
   -0.9470   -0.8340    0.3380 C   0  0  1  0  0  0  0  0  0  0  0  0
    0.0440   -0.9830   -0.7820 C   0  0  0  0  0  0  0  0  0  0  0  0
    1.2880   -1.4130   -0.5110 O   0  0  0  0  0  0  0  0  0  0  0  0
    2.3730   -1.2940    0.2300 C   0  0  0  0  0  0  0  0  0  0  0  0
    2.5610   -2.2570    1.3270 N   0  0  0  0  0  0  0  0  0  0  0  0
    3.3770   -0.4110    0.1500 C   0  0  0  0  0  0  0  0  0  0  0  0
    3.5550    0.6720   -0.7800 C   0  0  0  0  0  0  0  0  0  0  0  0
    4.6730    0.7500   -1.5250 C   0  0  0  0  0  0  0  0  0  0  0  0
    5.7630   -0.1940   -1.4780 C   0  0  0  0  0  0  0  0  0  0  0  0
    5.7510   -1.2100   -0.7020 O   0  0  0  0  0  0  0  0  0  0  0  0
    6.8810   -0.0390   -2.2800 O   0  0  0  0  0  0  0  0  0  0  0  0
    2.5550    1.7840   -0.9980 C   0  0  0  0  0  0  0  0  0  0  0  0
    2.1880    2.4440    0.1620 O   0  0  0  0  0  0  0  0  0  0  0  0
    1.4600    2.0730    1.2370 C   0  0  0  0  0  0  0  0  0  0  0  0
    2.0320    2.2270    2.3820 O   0  0  0  0  0  0  0  0  0  0  0  0
    0.1540    1.5400    1.2660 N   0  0  0  0  0  0  0  0  0  0  0  0
   -0.8310    1.6590    0.2210 C   0  0  0  0  0  0  0  0  0  0  0  0
   -1.7390    0.4250    0.2680 C   0  0  1  0  0  0  0  0  0  0  0  0
   -2.7020    0.4640   -0.8060 N   0  0  0  0  0  0  0  0  0  0  0  0
   -4.0840    0.6990   -0.5750 C   0  0  0  0  0  0  0  0  0  0  0  0
   -4.5120    0.8850    0.5890 O   0  0  0  0  0  0  0  0  0  0  0  0
   -5.0060    0.7310   -1.6380 O   0  0  0  0  0  0  0  0  0  0  0  0
   -6.3600    0.9700   -1.3270 C   0  0  0  0  0  0  0  0  0  0  0  0
  1  2  1  0
  3  2  1  6
  3  4  1  0
  3 20  1  0
  4  5  1  0
  5  6  1  0
  6  7  1  0
  6  8  2  0
  8  9  1  0
  9 10  2  3
  9 14  1  0
 10 11  1  0
 11 12  2  0
 11 13  1  0
 14 15  1  0
 15 16  1  0
 16 17  2  0
 16 18  1  0
 18 19  1  0
 19 20  1  0
 20 21  1  6
 21 22  1  0
 22 23  2  0
 22 24  1  0
 24 25  1  0
M  END
