
     RDKit          3D

 25 25  0  0  0  0  0  0  0  0999 V2000
   -4.9440    2.0040   -0.4470 C   0  0  0  0  0  0  0  0  0  0  0  0
   -3.7260    1.5710   -0.0850 C   0  0  0  0  0  0  0  0  0  0  0  0
   -3.6760    0.6470    1.0370 C   0  0  0  0  0  0  0  0  0  0  0  0
   -3.4180   -0.6460    1.0690 C   0  0  0  0  0  0  0  0  0  0  0  0
   -3.4340   -1.2990    2.3340 O   0  0  0  0  0  0  0  0  0  0  0  0
   -3.1130   -1.5360   -0.0570 C   0  0  1  0  0  0  0  0  0  0  0  0
   -4.1180   -1.4620   -1.0590 O   0  0  0  0  0  0  0  0  0  0  0  0
   -1.8010   -1.1440   -0.6950 C   0  0  0  0  0  0  0  0  0  0  0  0
   -1.0480   -0.5570    0.2970 O   0  0  0  0  0  0  0  0  0  0  0  0
    0.1720   -1.2140    0.4940 C   0  0  0  0  0  0  0  0  0  0  0  0
    1.1410   -0.5740   -0.4370 C   0  0  2  0  0  0  0  0  0  0  0  0
    1.6730   -1.5640   -1.4390 C   0  0  0  0  0  0  0  0  0  0  0  0
    2.3730   -2.6570   -0.7390 C   0  0  0  0  0  0  0  0  0  0  0  0
    3.7750   -2.6840   -0.5470 N   0  0  0  0  0  0  0  0  0  0  0  0
    1.7580   -3.6670   -0.2520 O   0  0  0  0  0  0  0  0  0  0  0  0
    2.3420   -0.0910    0.3300 C   0  0  0  0  0  0  0  0  0  0  0  0
    2.4410   -0.2560    1.5570 O   0  0  0  0  0  0  0  0  0  0  0  0
    3.3430    0.5480   -0.3680 O   0  0  0  0  0  0  0  0  0  0  0  0
    4.5070    1.0380    0.2440 C   0  0  0  0  0  0  0  0  0  0  0  0
    4.2350    2.0790    1.3070 C   0  0  0  0  0  0  0  0  0  0  0  0
    0.5500    0.6530   -1.1410 C   0  0  0  0  0  0  0  0  0  0  0  0
   -0.1870    1.4430   -0.1930 N   0  0  0  0  0  0  0  0  0  0  0  0
   -1.2700    2.3290   -0.4150 C   0  0  0  0  0  0  0  0  0  0  0  0
   -0.9090    3.5910   -0.2040 O   0  0  0  0  0  0  0  0  0  0  0  0
   -2.5930    2.0950   -0.8040 N   0  0  0  0  0  0  0  0  0  0  0  0
  1  2  2  0
  2  3  1  0
  2 25  1  0
  3  4  2  0
  4  5  1  0
  4  6  1  0
  6  7  1  6
  6  8  1  0
  8  9  1  0
  9 10  1  0
 10 11  1  0
 11 12  1  6
 11 16  1  0
 11 21  1  0
 12 13  1  0
 13 14  1  0
 13 15  2  0
 16 17  2  0
 16 18  1  0
 18 19  1  0
 19 20  1  0
 21 22  1  0
 22 23  1  0
 23 24  2  0
 23 25  1  0
M  END
