
     RDKit          3D

 25 25  0  0  0  0  0  0  0  0999 V2000
   -0.5460    3.1520   -1.9680 C   0  0  0  0  0  0  0  0  0  0  0  0
   -1.4770    2.2250   -1.8610 C   0  0  0  0  0  0  0  0  0  0  0  0
   -1.8160    1.6080   -0.5500 C   0  0  0  0  0  0  0  0  0  0  0  0
   -2.7700    0.6940   -0.5640 C   0  0  0  0  0  0  0  0  0  0  0  0
   -3.3130   -0.0760    0.5540 C   0  0  0  0  0  0  0  0  0  0  0  0
   -3.6920   -1.3590    0.2270 O   0  0  0  0  0  0  0  0  0  0  0  0
   -2.7090   -2.3060    0.3220 C   0  0  2  0  0  0  0  0  0  0  0  0
   -2.1190   -2.1530    1.5870 O   0  0  0  0  0  0  0  0  0  0  0  0
   -1.6330   -2.2560   -0.6950 C   0  0  0  0  0  0  0  0  0  0  0  0
   -0.3300   -2.6310   -0.1750 N   0  0  0  0  0  0  0  0  0  0  0  0
    0.8780   -2.5170   -0.8830 C   0  0  0  0  0  0  0  0  0  0  0  0
    1.7160   -3.4710   -0.6930 O   0  0  0  0  0  0  0  0  0  0  0  0
    1.2770   -1.4610   -1.7910 C   0  0  0  0  0  0  0  0  0  0  0  0
    1.7420   -1.8430   -2.9270 O   0  0  0  0  0  0  0  0  0  0  0  0
    1.2030   -0.0690   -1.5450 N   0  0  0  0  0  0  0  0  0  0  0  0
    1.6040    0.5860   -0.3270 C   0  0  2  0  0  0  0  0  0  0  0  0
    3.1010    0.6860   -0.2350 C   0  0  0  0  0  0  0  0  0  0  0  0
    3.7560    0.2050   -1.1920 O   0  0  0  0  0  0  0  0  0  0  0  0
    3.7230    1.2780    0.8490 O   0  0  0  0  0  0  0  0  0  0  0  0
    5.1240    1.3410    0.8750 C   0  0  0  0  0  0  0  0  0  0  0  0
    1.1720   -0.2100    0.8410 C   0  0  0  0  0  0  0  0  0  0  0  0
    0.2200    0.0850    1.6890 C   0  0  0  0  0  0  0  0  0  0  0  0
   -0.6390    1.2550    1.6930 C   0  0  0  0  0  0  0  0  0  0  0  0
   -1.0000    1.6210    2.8730 O   0  0  0  0  0  0  0  0  0  0  0  0
   -1.1170    2.0210    0.6220 N   0  0  0  0  0  0  0  0  0  0  0  0
  1  2  2  0
  2  3  1  0
  3  4  2  0
  3 25  1  0
  4  5  1  0
  5  6  1  0
  6  7  1  0
  7  8  1  1
  7  9  1  0
  9 10  1  0
 10 11  1  0
 11 12  2  0
 11 13  1  0
 13 14  2  0
 13 15  1  0
 15 16  1  0
 16 17  1  6
 16 21  1  0
 17 18  2  0
 17 19  1  0
 19 20  1  0
 21 22  2  0
 22 23  1  0
 23 24  2  0
 23 25  1  0
M  END
