
     RDKit          3D

 25 27  0  0  0  0  0  0  0  0999 V2000
   -3.2890    2.1260    1.1150 N   0  0  0  0  0  0  0  0  0  0  0  0
   -3.3060    0.7330    0.7640 C   0  0  0  0  0  0  0  0  0  0  0  0
   -2.2070   -0.0980    0.6010 C   0  0  0  0  0  0  0  0  0  0  0  0
   -0.8060    0.3040    0.7590 C   0  0  0  0  0  0  0  0  0  0  0  0
   -0.5520    1.5000    1.0640 O   0  0  0  0  0  0  0  0  0  0  0  0
    0.2790   -0.5750    0.5890 N   0  0  0  0  0  0  0  0  0  0  0  0
    1.6620   -0.1990    0.7410 C   0  0  0  0  0  0  0  0  0  0  0  0
    2.1120    0.8860   -0.2010 C   0  0  1  0  0  0  0  0  0  0  0  0
    3.4820    1.3350    0.1780 C   0  0  0  0  0  0  0  0  0  0  0  0
    4.5890    0.6680   -0.3960 N   0  0  0  0  0  0  0  0  0  0  0  0
    5.2550   -0.1670    0.5390 C   0  0  0  0  0  0  0  0  0  0  0  0
    6.5140   -0.7610    0.0840 C   0  0  0  0  0  0  0  0  0  0  0  0
    7.0500   -1.6510    0.8140 O   0  0  0  0  0  0  0  0  0  0  0  0
    7.1060   -0.3720   -1.0950 O   0  0  0  0  0  0  0  0  0  0  0  0
    4.3330    0.1510   -1.6850 C   0  0  0  0  0  0  0  0  0  0  0  0
    2.9430   -0.3930   -1.9100 C   0  0  0  0  0  0  0  0  0  0  0  0
    1.9620    0.4680   -1.4960 O   0  0  0  0  0  0  0  0  0  0  0  0
   -2.6550   -1.2920    0.2850 O   0  0  0  0  0  0  0  0  0  0  0  0
   -3.9600   -1.3230    0.2230 C   0  0  0  0  0  0  0  0  0  0  0  0
   -4.4040   -0.0570    0.5210 C   0  0  0  0  0  0  0  0  0  0  0  0
   -5.8680    0.1610    0.5120 C   0  0  1  0  0  0  0  0  0  0  0  0
   -6.1600    1.5300    0.3060 O   0  0  0  0  0  0  0  0  0  0  0  0
   -6.4150   -0.5530   -0.6910 C   0  0  0  0  0  0  0  0  0  0  0  0
   -6.0530   -1.8560   -0.8370 O   0  0  0  0  0  0  0  0  0  0  0  0
   -5.0260   -2.3250   -0.0710 C   0  0  0  0  0  0  0  0  0  0  0  0
  1  2  1  0
  2  3  2  0
  2 20  1  0
  3  4  1  0
  3 18  1  0
  4  5  2  0
  4  6  1  0
  6  7  1  0
  8  7  1  1
  8  9  1  0
  8 17  1  0
  9 10  1  0
 10 11  1  0
 10 15  1  0
 11 12  1  0
 12 13  2  0
 12 14  1  0
 15 16  1  0
 16 17  1  0
 18 19  1  0
 19 20  2  0
 19 25  1  0
 20 21  1  0
 21 22  1  6
 21 23  1  0
 23 24  1  0
 24 25  1  0
M  END
