
     RDKit          3D

 24 26  0  0  0  0  0  0  0  0999 V2000
    1.2950    1.3750    0.7060 O   0  0  0  0  0  0  0  0  0  0  0  0
    1.4660    0.1300    0.6120 C   0  0  0  0  0  0  0  0  0  0  0  0
    2.8300   -0.4210    0.6180 C   0  0  0  0  0  0  0  0  0  0  0  0
    3.8180    0.6880    0.7440 C   0  0  1  0  0  0  0  0  0  0  0  0
    5.4890   -0.0970    0.7430 S   0  0  0  0  0  0  0  0  0  0  0  0
    5.8140    0.1290   -0.9930 C   0  0  0  0  0  0  0  0  0  0  0  0
    7.1050   -0.3920   -1.7950 S   0  0  0  0  0  0  0  0  0  0  0  0
    4.7120    0.8490   -1.4930 N   0  0  0  0  0  0  0  0  0  0  0  0
    3.9410    1.4830   -0.5080 C   0  0  0  0  0  0  0  0  0  0  0  0
    3.3670    2.6240   -0.5950 O   0  0  0  0  0  0  0  0  0  0  0  0
    0.3890   -0.7700    0.5000 N   0  0  0  0  0  0  0  0  0  0  0  0
   -0.9230   -0.2650    0.4910 C   0  0  0  0  0  0  0  0  0  0  0  0
   -1.3900    1.4600    0.6130 S   0  0  0  0  0  0  0  0  0  0  0  0
   -3.1580    1.1620    0.5230 C   0  0  0  0  0  0  0  0  0  0  0  0
   -3.2710   -0.1600    0.4130 C   0  0  0  0  0  0  0  0  0  0  0  0
   -2.1460   -0.9220    0.3930 C   0  0  0  0  0  0  0  0  0  0  0  0
   -2.1130   -2.4570    0.2710 C   0  0  2  0  0  0  0  0  0  0  0  0
   -3.3720   -2.9610    0.1840 F   0  0  0  0  0  0  0  0  0  0  0  0
   -1.4870   -2.9480    1.3780 F   0  0  0  0  0  0  0  0  0  0  0  0
   -1.3850   -2.8070   -0.8460 F   0  0  0  0  0  0  0  0  0  0  0  0
   -4.6110   -0.4200    0.3420 C   0  0  0  0  0  0  0  0  0  0  0  0
   -5.3640    0.8420    0.4150 C   0  0  0  0  0  0  0  0  0  0  0  0
   -4.2970    1.8400    0.5350 C   0  0  0  0  0  0  0  0  0  0  0  0
   -4.3580    3.1870    0.6410 F   0  0  0  0  0  0  0  0  0  0  0  0
  1  2  2  0
  2  3  1  0
  2 11  1  0
  4  3  1  6
  4  5  1  0
  4  9  1  0
  5  6  1  0
  6  7  2  0
  6  8  1  0
  8  9  1  0
  9 10  2  0
 11 12  1  0
 12 13  1  0
 12 16  2  0
 13 14  1  0
 14 15  1  0
 14 23  2  0
 15 16  1  0
 15 21  2  0
 16 17  1  0
 17 18  1  6
 17 19  1  0
 17 20  1  0
 21 22  1  0
 22 23  1  0
 23 24  1  0
M  END
