
     RDKit          3D

 25 28  0  0  0  0  0  0  0  0999 V2000
   -4.7720   -1.4850   -1.9200 C   0  0  0  0  0  0  0  0  0  0  0  0
   -4.1810   -1.0460   -0.6150 C   0  0  0  0  0  0  0  0  0  0  0  0
   -4.9920   -0.9580    0.4820 C   0  0  0  0  0  0  0  0  0  0  0  0
   -4.4260   -0.5530    1.6670 C   0  0  0  0  0  0  0  0  0  0  0  0
   -3.0560   -0.2440    1.7260 C   0  0  0  0  0  0  0  0  0  0  0  0
   -2.2440   -0.3320    0.6260 C   0  0  0  0  0  0  0  0  0  0  0  0
   -2.8460   -0.7430   -0.5500 C   0  0  0  0  0  0  0  0  0  0  0  0
   -1.7820   -0.8980   -2.1290 Br  0  0  0  0  0  0  0  0  0  0  0  0
   -0.8960    0.0590    1.0020 C   0  0  1  0  0  0  0  0  0  0  0  0
   -0.0730   -1.0630    0.8540 O   0  0  0  0  0  0  0  0  0  0  0  0
   -0.3450    1.2070    0.1930 C   0  0  0  0  0  0  0  0  0  0  0  0
    1.0240    1.5790    0.6000 C   0  0  0  0  0  0  0  0  0  0  0  0
    1.1930    2.3710    1.5820 O   0  0  0  0  0  0  0  0  0  0  0  0
    2.2240    1.0910   -0.0590 C   0  0  0  0  0  0  0  0  0  0  0  0
    2.1260    0.2220   -1.1280 C   0  0  0  0  0  0  0  0  0  0  0  0
    3.2790   -0.2460   -1.7630 C   0  0  0  0  0  0  0  0  0  0  0  0
    4.5140    0.1710   -1.3100 C   0  0  0  0  0  0  0  0  0  0  0  0
    4.6430    1.0370   -0.2450 C   0  0  0  0  0  0  0  0  0  0  0  0
    3.4810    1.4780    0.3570 C   0  0  0  0  0  0  0  0  0  0  0  0
    6.0090    1.2630   -0.0340 O   0  0  0  0  0  0  0  0  0  0  0  0
    6.6430    0.1050   -0.5700 C   0  0  0  0  0  0  0  0  0  0  0  0
    5.8240   -0.1160   -1.7280 O   0  0  0  0  0  0  0  0  0  0  0  0
   -0.9590    0.3530    2.4390 C   0  0  0  0  0  0  0  0  0  0  0  0
   -0.0230    0.7060    3.2190 O   0  0  0  0  0  0  0  0  0  0  0  0
   -2.2980    0.1740    2.8530 N   0  0  0  0  0  0  0  0  0  0  0  0
  1  2  1  0
  2  3  2  0
  2  7  1  0
  3  4  1  0
  4  5  2  0
  5  6  1  0
  5 25  1  0
  6  7  2  0
  6  9  1  0
  7  8  1  0
  9 10  1  1
  9 11  1  0
  9 23  1  0
 11 12  1  0
 12 13  2  0
 12 14  1  0
 14 15  2  0
 14 19  1  0
 15 16  1  0
 16 17  2  0
 17 18  1  0
 17 22  1  0
 18 19  2  0
 18 20  1  0
 20 21  1  0
 21 22  1  0
 23 24  2  0
 23 25  1  0
M  END
