
     RDKit          3D

 24 25  0  0  0  0  0  0  0  0999 V2000
   -5.7340   -0.4400    1.5620 C   0  0  0  0  0  0  0  0  0  0  0  0
   -4.3550   -0.5440    1.0190 C   0  0  0  0  0  0  0  0  0  0  0  0
   -3.4040   -2.1040    0.8670 S   0  0  0  0  0  0  0  0  0  0  0  0
   -1.9640   -1.3740    0.1710 C   0  0  0  0  0  0  0  0  0  0  0  0
   -2.2570   -0.0580    0.0930 C   0  0  0  0  0  0  0  0  0  0  0  0
   -3.4640    0.3580    0.5210 C   0  0  0  0  0  0  0  0  0  0  0  0
   -3.8910    1.8360    0.4720 C   0  0  0  0  0  0  0  0  0  0  0  0
   -0.9470    0.9770   -0.5970 S   0  0  2  0  0  0  0  0  0  0  0  0
   -0.5720    2.0140    0.4160 O   0  0  0  0  0  0  0  0  0  0  0  0
   -1.4840    1.5760   -1.8540 O   0  0  0  0  0  0  0  0  0  0  0  0
    0.3450   -0.0590   -0.9660 N   0  0  0  0  0  0  0  0  0  0  0  0
    0.3630   -1.3260   -0.7830 C   0  0  0  0  0  0  0  0  0  0  0  0
    1.8700   -2.1930   -1.2650 S   0  0  0  0  0  0  0  0  0  0  0  0
    3.0900   -1.0340   -1.9280 C   0  0  0  0  0  0  0  0  0  0  0  0
    3.5200   -0.1410   -0.8380 C   0  0  0  0  0  0  0  0  0  0  0  0
    4.1560   -0.6830    0.3370 C   0  0  0  0  0  0  0  0  0  0  0  0
    4.3950   -1.9570    0.5200 C   0  0  0  0  0  0  0  0  0  0  0  0
    4.9920   -2.3840    1.6440 F   0  0  0  0  0  0  0  0  0  0  0  0
    3.3220    1.1500   -0.9410 C   0  0  0  0  0  0  0  0  0  0  0  0
    3.7440    2.0990    0.1460 C   0  0  1  0  0  0  0  0  0  0  0  0
    5.1090    2.0400    0.3320 F   0  0  0  0  0  0  0  0  0  0  0  0
    3.4310    3.3870   -0.2480 F   0  0  0  0  0  0  0  0  0  0  0  0
    3.1200    1.8380    1.3350 F   0  0  0  0  0  0  0  0  0  0  0  0
   -0.7330   -1.9980   -0.2360 N   0  0  0  0  0  0  0  0  0  0  0  0
  1  2  1  0
  2  3  1  0
  2  6  2  0
  3  4  1  0
  4  5  2  0
  4 24  1  0
  5  6  1  0
  5  8  1  0
  6  7  1  0
  8  9  2  0
  8 10  2  0
  8 11  1  6
 11 12  2  0
 12 13  1  0
 12 24  1  0
 13 14  1  0
 14 15  1  0
 15 16  1  0
 15 19  2  3
 16 17  2  3
 17 18  1  0
 19 20  1  0
 20 21  1  1
 20 22  1  0
 20 23  1  0
M  END
