
     RDKit          3D

 23 25  0  0  0  0  0  0  0  0999 V2000
   -2.3790   -1.5620   -0.2340 C   0  0  0  0  0  0  0  0  0  0  0  0
   -2.0970   -0.4710    1.1170 S   0  0  2  0  0  0  0  0  0  0  0  0
   -0.7540   -0.8920    1.7290 O   0  0  0  0  0  0  0  0  0  0  0  0
   -3.0670   -0.6170    2.2420 O   0  0  0  0  0  0  0  0  0  0  0  0
   -1.9740    1.2290    0.5760 C   0  0  0  0  0  0  0  0  0  0  0  0
   -3.0480    1.9540    0.4240 C   0  0  0  0  0  0  0  0  0  0  0  0
   -4.4980    1.7510    0.5880 C   0  0  1  0  0  0  0  0  0  0  0  0
   -5.0810    2.0920   -0.6430 F   0  0  0  0  0  0  0  0  0  0  0  0
   -4.9040    0.5350    1.0070 F   0  0  0  0  0  0  0  0  0  0  0  0
   -4.9540    2.7030    1.4880 F   0  0  0  0  0  0  0  0  0  0  0  0
   -2.4560    3.5900   -0.1300 S   0  0  0  0  0  0  0  0  0  0  0  0
   -0.8580    2.9350   -0.7760 C   0  0  0  0  0  0  0  0  0  0  0  0
   -0.6830    1.8320    0.2850 C   0  0  2  0  0  0  0  0  0  0  0  0
    0.2630    0.8260   -0.1600 C   0  0  0  0  0  0  0  0  0  0  0  0
    0.3970   -0.0430   -1.1840 C   0  0  0  0  0  0  0  0  0  0  0  0
    1.4810   -0.8440   -1.2300 C   0  0  0  0  0  0  0  0  0  0  0  0
    2.4030   -0.7720   -0.2730 C   0  0  0  0  0  0  0  0  0  0  0  0
    3.6590   -1.5090   -0.0730 C   0  0  0  0  0  0  0  0  0  0  0  0
    4.2140   -2.4890   -0.8500 C   0  0  0  0  0  0  0  0  0  0  0  0
    5.3760   -2.9150   -0.3270 N   0  0  0  0  0  0  0  0  0  0  0  0
    5.5620   -2.1940    0.8000 C   0  0  0  0  0  0  0  0  0  0  0  0
    4.5090   -1.3360    0.9500 N   0  0  0  0  0  0  0  0  0  0  0  0
    1.7610    0.4810    0.7830 S   0  0  0  0  0  0  0  0  0  0  0  0
  2  1  1  6
  2  3  2  0
  2  4  2  0
  2  5  1  0
  5  6  2  0
  5 13  1  0
  6  7  1  0
  6 11  1  0
  7  8  1  6
  7  9  1  0
  7 10  1  0
 11 12  1  0
 12 13  1  0
 13 14  1  6
 14 15  2  0
 14 23  1  0
 15 16  1  0
 16 17  2  0
 17 18  1  0
 17 23  1  0
 18 19  2  0
 18 22  1  0
 19 20  1  0
 20 21  2  0
 21 22  1  0
M  END
