
     RDKit          3D

 24 25  0  0  0  0  0  0  0  0999 V2000
    4.3290   -2.4440    0.5720 C   0  0  0  0  0  0  0  0  0  0  0  0
    3.0820   -1.6430    0.4440 C   0  0  0  0  0  0  0  0  0  0  0  0
    1.5040   -2.2380    0.6830 S   0  0  0  0  0  0  0  0  0  0  0  0
    0.2850   -1.0810    0.4640 C   0  0  0  0  0  0  0  0  0  0  0  0
   -0.9610   -1.3960    0.6140 N   0  0  0  0  0  0  0  0  0  0  0  0
   -2.0130   -0.4960    0.4510 C   0  0  0  0  0  0  0  0  0  0  0  0
   -2.1510    0.6340    1.2180 C   0  0  0  0  0  0  0  0  0  0  0  0
   -3.1850    1.5270    1.0640 C   0  0  0  0  0  0  0  0  0  0  0  0
   -3.3060    2.9740    2.0920 S   0  0  0  0  0  0  0  0  0  0  0  0
   -4.1280    1.2810    0.0980 C   0  0  0  0  0  0  0  0  0  0  0  0
   -4.0380    0.1580   -0.7040 C   0  0  0  0  0  0  0  0  0  0  0  0
   -4.9830   -0.1060   -1.6860 O   0  0  0  0  0  0  0  0  0  0  0  0
   -2.9710   -0.7220   -0.5130 C   0  0  0  0  0  0  0  0  0  0  0  0
   -2.8750   -1.9230   -1.3700 C   0  0  2  0  0  0  0  0  0  0  0  0
   -1.6990   -1.9540   -2.1060 F   0  0  0  0  0  0  0  0  0  0  0  0
   -3.9170   -1.9780   -2.2600 F   0  0  0  0  0  0  0  0  0  0  0  0
   -2.9010   -3.0900   -0.6210 F   0  0  0  0  0  0  0  0  0  0  0  0
    0.7080    0.1470    0.1350 N   0  0  0  0  0  0  0  0  0  0  0  0
    1.9860    0.4820   -0.0220 C   0  0  0  0  0  0  0  0  0  0  0  0
    2.2030    1.7020   -0.3380 O   0  0  0  0  0  0  0  0  0  0  0  0
    3.0910   -0.2940    0.1080 C   0  0  0  0  0  0  0  0  0  0  0  0
    4.7460    0.3910   -0.1580 S   0  0  0  0  0  0  0  0  0  0  0  0
    4.6720    2.1370   -0.5850 C   0  0  0  0  0  0  0  0  0  0  0  0
    5.9560    2.6120   -0.7850 F   0  0  0  0  0  0  0  0  0  0  0  0
  1  2  1  0
  2  3  1  0
  2 21  2  0
  3  4  1  0
  4  5  2  3
  4 18  1  0
  5  6  1  0
  6  7  2  0
  6 13  1  0
  7  8  1  0
  8  9  1  0
  8 10  2  0
 10 11  1  0
 11 12  1  0
 11 13  2  0
 13 14  1  0
 14 15  1  6
 14 16  1  0
 14 17  1  0
 18 19  1  0
 19 20  2  0
 19 21  1  0
 21 22  1  0
 22 23  1  0
 23 24  1  0
M  END
