
     RDKit          3D

 23 24  0  0  0  0  0  0  0  0999 V2000
    5.8610    1.1560   -0.2140 C   0  0  0  0  0  0  0  0  0  0  0  0
    5.2140   -0.1210   -0.3610 N   0  0  0  0  0  0  0  0  0  0  0  0
    4.1450   -0.5100    0.4800 C   0  0  0  0  0  0  0  0  0  0  0  0
    3.1030   -1.1930    0.0370 C   0  0  0  0  0  0  0  0  0  0  0  0
    2.7810   -1.7700   -1.6250 S   0  0  0  0  0  0  0  0  0  0  0  0
    1.0240   -2.0660   -1.5430 C   0  0  0  0  0  0  0  0  0  0  0  0
    0.1170   -2.5870   -2.8160 S   0  0  0  0  0  0  0  0  0  0  0  0
    0.4990   -1.8040   -0.2660 N   0  0  0  0  0  0  0  0  0  0  0  0
   -0.9210   -1.6150    0.0140 C   0  0  0  0  0  0  0  0  0  0  0  0
   -1.3180   -0.1530   -0.1100 C   0  0  0  0  0  0  0  0  0  0  0  0
   -0.3640    0.6580   -0.4340 C   0  0  0  0  0  0  0  0  0  0  0  0
   -0.3420    2.1040   -0.6490 C   0  0  2  0  0  0  0  0  0  0  0  0
    0.8520    2.4270   -1.3670 F   0  0  0  0  0  0  0  0  0  0  0  0
   -0.2580    2.7780    0.5490 F   0  0  0  0  0  0  0  0  0  0  0  0
   -1.3510    2.5500   -1.4640 F   0  0  0  0  0  0  0  0  0  0  0  0
   -2.7100    0.1470    0.1770 C   0  0  0  0  0  0  0  0  0  0  0  0
   -3.6220   -0.8060    0.4920 C   0  0  0  0  0  0  0  0  0  0  0  0
   -4.9440   -0.2070    0.7270 C   0  0  0  0  0  0  0  0  0  0  0  0
   -4.5740    1.1830    1.1580 C   0  0  0  0  0  0  0  0  0  0  0  0
   -3.3860    1.4590    0.2110 C   0  0  0  0  0  0  0  0  0  0  0  0
    1.7210   -1.7380    0.9500 S   0  0  2  0  0  0  0  0  0  0  0  0
    1.3220   -0.7740    2.0120 O   0  0  0  0  0  0  0  0  0  0  0  0
    2.0410   -3.1000    1.4890 O   0  0  0  0  0  0  0  0  0  0  0  0
  1  2  1  0
  2  3  1  0
  3  4  2  3
  4  5  1  0
  4 21  1  0
  5  6  1  0
  6  7  2  0
  6  8  1  0
  8  9  1  0
 21  8  1  6
  9 10  1  0
 10 11  2  3
 10 16  1  0
 11 12  1  0
 12 13  1  6
 12 14  1  0
 12 15  1  0
 16 17  2  0
 16 20  1  0
 17 18  1  0
 18 19  1  0
 19 20  1  0
 21 22  2  0
 21 23  2  0
M  END
