
     RDKit          3D

 20 19  0  0  0  0  0  0  0  0999 V2000
   -1.0300    4.6460   -1.9870 C   0  0  0  0  0  0  0  0  0  0  0  0
   -0.6870    3.3140   -1.6460 O   0  0  0  0  0  0  0  0  0  0  0  0
   -1.5800    2.3700   -1.2260 C   0  0  0  0  0  0  0  0  0  0  0  0
   -2.8080    2.7040   -1.1330 O   0  0  0  0  0  0  0  0  0  0  0  0
   -1.1560    1.0110   -0.8900 C   0  0  2  0  0  0  0  0  0  0  0  0
   -2.1790    0.1590   -0.4820 O   0  0  0  0  0  0  0  0  0  0  0  0
   -2.5510   -1.0140   -1.0920 C   0  0  0  0  0  0  0  0  0  0  0  0
   -1.9080   -1.3610   -2.1220 O   0  0  0  0  0  0  0  0  0  0  0  0
   -3.6640   -1.8640   -0.5820 C   0  0  0  0  0  0  0  0  0  0  0  0
   -3.1530   -2.9850    0.2920 C   0  0  0  0  0  0  0  0  0  0  0  0
   -4.2340   -3.7370    0.7330 O   0  0  0  0  0  0  0  0  0  0  0  0
    0.0240    0.9940    0.0920 C   0  0  1  0  0  0  0  0  0  0  0  0
   -0.3690    1.3900    1.3490 O   0  0  0  0  0  0  0  0  0  0  0  0
    0.5920   -0.3940    0.0270 C   0  0  0  0  0  0  0  0  0  0  0  0
    1.7650   -0.6360    0.9150 C   0  0  2  0  0  0  0  0  0  0  0  0
    2.1820   -2.0970    0.6930 C   0  0  0  0  0  0  0  0  0  0  0  0
    1.4360   -0.5320    2.2650 O   0  0  0  0  0  0  0  0  0  0  0  0
    2.9480    0.2260    0.5780 C   0  0  0  0  0  0  0  0  0  0  0  0
    4.0910   -0.0570    1.4950 C   0  0  0  0  0  0  0  0  0  0  0  0
    5.1740    0.7740    1.1420 O   0  0  0  0  0  0  0  0  0  0  0  0
  1  2  1  0
  2  3  1  0
  3  4  2  0
  3  5  1  0
  5  6  1  1
  5 12  1  0
  6  7  1  0
  7  8  2  0
  7  9  1  0
  9 10  1  0
 10 11  1  0
 12 13  1  1
 12 14  1  0
 14 15  1  0
 15 16  1  1
 15 17  1  0
 15 18  1  0
 18 19  1  0
 19 20  1  0
M  END
