
     RDKit          3D

 20 20  0  0  0  0  0  0  0  0999 V2000
    4.5510    1.7570   -1.6840 O   0  0  0  0  0  0  0  0  0  0  0  0
    5.1620    1.5170   -0.6180 C   0  0  0  0  0  0  0  0  0  0  0  0
    6.4380    2.1060   -0.5110 O   0  0  0  0  0  0  0  0  0  0  0  0
    4.6160    0.6800    0.4690 C   0  0  0  0  0  0  0  0  0  0  0  0
    3.2730    0.1070    0.1550 C   0  0  2  0  0  0  0  0  0  0  0  0
    3.3420   -0.7760   -1.0670 C   0  0  0  0  0  0  0  0  0  0  0  0
    4.3070   -1.7730   -0.9200 O   0  0  0  0  0  0  0  0  0  0  0  0
    2.3110    1.0630   -0.0850 O   0  0  0  0  0  0  0  0  0  0  0  0
    1.2070    1.0120    0.7240 C   0  0  0  0  0  0  0  0  0  0  0  0
    0.4280   -0.2870    0.6390 C   0  0  0  0  0  0  0  0  0  0  0  0
   -0.6370   -0.1600    1.5100 O   0  0  0  0  0  0  0  0  0  0  0  0
   -1.4840   -1.2270    1.5900 C   0  0  0  0  0  0  0  0  0  0  0  0
   -2.1760   -1.4690    0.2780 C   0  0  0  0  0  0  0  0  0  0  0  0
   -2.9950   -0.2560   -0.0620 C   0  0  2  0  0  0  0  0  0  0  0  0
   -2.2020    0.8510   -0.1630 O   0  0  0  0  0  0  0  0  0  0  0  0
   -4.1540   -0.0650    0.8900 C   0  0  0  0  0  0  0  0  0  0  0  0
   -5.3150   -0.1040    0.1610 O   0  0  0  0  0  0  0  0  0  0  0  0
   -4.9860    0.3610   -1.1310 C   0  0  1  0  0  0  0  0  0  0  0  0
   -4.7230    1.7100   -1.0730 O   0  0  0  0  0  0  0  0  0  0  0  0
   -3.7250   -0.4360   -1.3950 C   0  0  0  0  0  0  0  0  0  0  0  0
  1  2  2  0
  2  3  1  0
  2  4  1  0
  5  4  1  6
  5  6  1  0
  5  8  1  0
  6  7  1  0
  8  9  1  0
  9 10  1  0
 10 11  1  0
 11 12  1  0
 12 13  1  0
 13 14  1  0
 14 15  1  6
 14 16  1  0
 14 20  1  0
 16 17  1  0
 17 18  1  0
 18 19  1  1
 18 20  1  0
M  END
