
     RDKit          3D

 19 19  0  0  0  0  0  0  0  0999 V2000
    2.6920   -1.8000   -3.6860 O   0  0  0  0  0  0  0  0  0  0  0  0
    2.2680   -2.2370   -2.4080 C   0  0  0  0  0  0  0  0  0  0  0  0
    0.8920   -1.7160   -2.1770 C   0  0  0  0  0  0  0  0  0  0  0  0
    0.1850   -2.0830   -0.9480 C   0  0  0  0  0  0  0  0  0  0  0  0
    0.7170   -1.7560    0.3930 C   0  0  2  0  0  0  0  0  0  0  0  0
    0.9240   -0.4230    0.5480 O   0  0  0  0  0  0  0  0  0  0  0  0
    1.7100   -2.6810    1.0030 C   0  0  0  0  0  0  0  0  0  0  0  0
    3.0080   -2.6000    0.6720 O   0  0  0  0  0  0  0  0  0  0  0  0
   -0.5430   -2.0370    1.3260 C   0  0  0  0  0  0  0  0  0  0  0  0
   -1.6320   -1.3480    1.0230 O   0  0  0  0  0  0  0  0  0  0  0  0
   -1.6660   -0.0010    1.2160 C   0  0  2  0  0  0  0  0  0  0  0  0
   -2.7700    0.3460    2.0560 O   0  0  0  0  0  0  0  0  0  0  0  0
   -1.9110    0.8180   -0.0390 C   0  0  0  0  0  0  0  0  0  0  0  0
   -1.9310    2.2740    0.3610 C   0  0  1  0  0  0  0  0  0  0  0  0
   -0.6150    2.6720    0.9760 C   0  0  0  0  0  0  0  0  0  0  0  0
   -0.4900    4.0670    1.0120 O   0  0  0  0  0  0  0  0  0  0  0  0
   -0.4890    4.5970   -0.2820 C   0  0  0  0  0  0  0  0  0  0  0  0
   -1.2240    3.7270   -1.2620 C   0  0  0  0  0  0  0  0  0  0  0  0
   -2.3070    3.0970   -0.6910 O   0  0  0  0  0  0  0  0  0  0  0  0
  1  2  1  0
  2  3  1  0
  3  4  1  0
  4  5  1  0
  5  6  1  6
  5  7  1  0
  5  9  1  0
  7  8  1  0
  9 10  1  0
 10 11  1  0
 11 12  1  1
 11 13  1  0
 14 13  1  6
 14 15  1  0
 14 19  1  0
 15 16  1  0
 16 17  1  0
 17 18  1  0
 18 19  1  0
M  END
