
     RDKit          3D

 20 19  0  0  0  0  0  0  0  0999 V2000
   -1.8250    1.2380   -1.9900 C   0  0  0  0  0  0  0  0  0  0  0  0
   -1.9640    0.6480   -0.6310 C   0  0  1  0  0  0  0  0  0  0  0  0
   -0.7510    0.3160   -0.0100 O   0  0  0  0  0  0  0  0  0  0  0  0
   -0.4090   -0.9770    0.3770 C   0  0  0  0  0  0  0  0  0  0  0  0
   -1.2740   -1.8540    0.1310 O   0  0  0  0  0  0  0  0  0  0  0  0
    0.8450   -1.3510    1.0240 C   0  0  1  0  0  0  0  0  0  0  0  0
    0.6060   -1.9200    2.4330 C   0  0  0  0  0  0  0  0  0  0  0  0
    1.6460   -2.3800    0.2880 C   0  0  0  0  0  0  0  0  0  0  0  0
    0.9500   -3.6900    0.0820 C   0  0  0  0  0  0  0  0  0  0  0  0
    1.8640   -4.5120   -0.6210 O   0  0  0  0  0  0  0  0  0  0  0  0
    1.7110   -0.2350    1.2340 O   0  0  0  0  0  0  0  0  0  0  0  0
    2.2060    0.5620    0.2460 C   0  0  0  0  0  0  0  0  0  0  0  0
    1.9040    0.3330   -0.9310 O   0  0  0  0  0  0  0  0  0  0  0  0
    3.1000    1.6930    0.6030 C   0  0  0  0  0  0  0  0  0  0  0  0
    3.5390    2.4540   -0.6460 C   0  0  0  0  0  0  0  0  0  0  0  0
    2.4640    2.9760   -1.3340 O   0  0  0  0  0  0  0  0  0  0  0  0
   -2.8240    1.5520    0.2230 C   0  0  2  0  0  0  0  0  0  0  0  0
   -3.1430    0.9470    1.4420 O   0  0  0  0  0  0  0  0  0  0  0  0
   -4.1260    1.7770   -0.5130 C   0  0  0  0  0  0  0  0  0  0  0  0
   -4.8020    0.5730   -0.7480 O   0  0  0  0  0  0  0  0  0  0  0  0
  2  1  1  6
  2  3  1  0
  2 17  1  0
  3  4  1  0
  4  5  2  0
  4  6  1  0
  6  7  1  1
  6  8  1  0
  6 11  1  0
  8  9  1  0
  9 10  1  0
 11 12  1  0
 12 13  2  0
 12 14  1  0
 14 15  1  0
 15 16  1  0
 17 18  1  1
 17 19  1  0
 19 20  1  0
M  END
