
     RDKit          3D

 23 25  0  0  0  0  0  0  0  0999 V2000
    5.6600   -0.8090    0.4590 N   0  0  0  0  0  0  0  0  0  0  0  0
    4.9360   -0.7210   -0.6000 C   0  0  0  0  0  0  0  0  0  0  0  0
    4.4510   -1.9770   -1.2650 C   0  0  0  0  0  0  0  0  0  0  0  0
    2.9990   -1.9390   -1.6140 C   0  0  0  0  0  0  0  0  0  0  0  0
    2.4270   -0.5590   -1.2570 C   0  0  0  0  0  0  0  0  0  0  0  0
    1.2490   -0.5020   -0.7570 C   0  0  0  0  0  0  0  0  0  0  0  0
    0.5030    0.6650   -0.3370 C   0  0  0  0  0  0  0  0  0  0  0  0
    0.9870    1.8040   -0.4150 O   0  0  0  0  0  0  0  0  0  0  0  0
   -0.8340    0.5140    0.1870 N   0  0  0  0  0  0  0  0  0  0  0  0
   -1.6270    1.6080    0.6190 C   0  0  0  0  0  0  0  0  0  0  0  0
   -1.3330    2.9430    0.6370 C   0  0  0  0  0  0  0  0  0  0  0  0
   -2.4290    3.5780    1.1440 N   0  0  0  0  0  0  0  0  0  0  0  0
   -3.3670    2.6640    1.4280 C   0  0  0  0  0  0  0  0  0  0  0  0
   -2.8980    1.4410    1.1140 N   0  0  0  0  0  0  0  0  0  0  0  0
   -3.5600    0.1890    1.2520 C   0  0  0  0  0  0  0  0  0  0  0  0
   -3.7440   -0.6670    0.1910 C   0  0  0  0  0  0  0  0  0  0  0  0
   -4.4020   -1.8870    0.3850 C   0  0  0  0  0  0  0  0  0  0  0  0
   -4.8570   -2.2350    1.5890 N   0  0  0  0  0  0  0  0  0  0  0  0
   -4.6950   -1.4250    2.6480 C   0  0  0  0  0  0  0  0  0  0  0  0
   -4.0410   -0.2010    2.4820 C   0  0  0  0  0  0  0  0  0  0  0  0
    3.2690    0.5850   -1.5330 C   0  0  0  0  0  0  0  0  0  0  0  0
    2.7700    1.7340   -2.1530 N   0  0  0  0  0  0  0  0  0  0  0  0
    4.5570    0.5320   -1.2070 N   0  0  0  0  0  0  0  0  0  0  0  0
  1  2  2  0
  2  3  1  0
  2 23  1  0
  3  4  1  0
  4  5  1  0
  5  6  2  3
  5 21  1  0
  6  7  1  0
  7  8  2  0
  7  9  1  0
  9 10  1  0
 10 11  2  0
 10 14  1  0
 11 12  1  0
 12 13  2  0
 13 14  1  0
 14 15  1  0
 15 16  2  0
 15 20  1  0
 16 17  1  0
 17 18  2  0
 18 19  1  0
 19 20  2  0
 21 22  1  0
 21 23  2  0
M  END
