
     RDKit          3D

 23 25  0  0  0  0  0  0  0  0999 V2000
    5.9210    2.8320   -0.1150 C   0  0  0  0  0  0  0  0  0  0  0  0
    5.0830    1.9870    0.8060 C   0  0  0  0  0  0  0  0  0  0  0  0
    5.4560    1.5840    2.0730 C   0  0  0  0  0  0  0  0  0  0  0  0
    4.4050    0.8400    2.5430 C   0  0  0  0  0  0  0  0  0  0  0  0
    3.4390    0.8050    1.5840 C   0  0  0  0  0  0  0  0  0  0  0  0
    2.1380    0.1430    1.6050 C   0  0  0  0  0  0  0  0  0  0  0  0
    1.6450   -0.5960    2.6140 N   0  0  0  0  0  0  0  0  0  0  0  0
    0.4250   -1.0240    2.2230 C   0  0  0  0  0  0  0  0  0  0  0  0
    0.1530   -0.5640    0.9920 N   0  0  0  0  0  0  0  0  0  0  0  0
   -0.9850   -0.7540    0.1600 C   0  0  0  0  0  0  0  0  0  0  0  0
   -0.7350   -0.7910   -1.2560 N   0  0  0  0  0  0  0  0  0  0  0  0
   -2.2210   -0.9060    0.5660 C   0  0  0  0  0  0  0  0  0  0  0  0
   -2.5620   -0.8960    1.9470 C   0  0  0  0  0  0  0  0  0  0  0  0
   -2.8480   -0.9020    3.0780 N   0  0  0  0  0  0  0  0  0  0  0  0
   -3.2690   -1.0750   -0.4330 C   0  0  0  0  0  0  0  0  0  0  0  0
   -4.2350   -2.0490   -0.2430 C   0  0  0  0  0  0  0  0  0  0  0  0
   -5.2350   -2.2050   -1.2000 C   0  0  0  0  0  0  0  0  0  0  0  0
   -5.2820   -1.4490   -2.2790 N   0  0  0  0  0  0  0  0  0  0  0  0
   -4.3700   -0.4930   -2.5070 C   0  0  0  0  0  0  0  0  0  0  0  0
   -4.4860    0.2780   -3.6820 N   0  0  0  0  0  0  0  0  0  0  0  0
   -3.3630   -0.3120   -1.5750 C   0  0  0  0  0  0  0  0  0  0  0  0
    1.2160    0.1390    0.6520 N   0  0  0  0  0  0  0  0  0  0  0  0
    3.9030    1.5130    0.5590 O   0  0  0  0  0  0  0  0  0  0  0  0
  1  2  1  0
  2  3  2  0
  2 23  1  0
  3  4  1  0
  4  5  2  0
  5  6  1  0
  5 23  1  0
  6  7  1  0
  6 22  2  0
  7  8  2  0
  8  9  1  0
  9 10  1  0
  9 22  1  0
 10 11  1  0
 10 12  2  3
 12 13  1  0
 12 15  1  0
 13 14  3  0
 15 16  2  0
 15 21  1  0
 16 17  1  0
 17 18  2  0
 18 19  1  0
 19 20  1  0
 19 21  2  0
M  END
