
     RDKit          3D

 42 46  0  0  0  0  0  0  0  0999 V2000
    4.4050    4.4890   -1.9790 C   0  0  0  0  0  0  0  0  0  0  0  0
    4.5950    3.2050   -1.3870 O   0  0  0  0  0  0  0  0  0  0  0  0
    4.1850    2.0400   -1.9490 C   0  0  0  0  0  0  0  0  0  0  0  0
    3.6120    2.0110   -3.0530 O   0  0  0  0  0  0  0  0  0  0  0  0
    4.4400    0.7200   -1.1870 C   0  0  2  0  0  0  0  0  0  0  0  0
    3.8870    0.9730    0.1420 C   0  0  0  0  0  0  0  0  0  0  0  0
    3.8720    0.0480    1.2060 N   0  0  0  0  0  0  0  0  0  0  0  0
    5.0430    0.1110    2.1240 C   0  0  0  0  0  0  0  0  0  0  0  0
    6.0330   -1.0020    1.7790 C   0  0  0  0  0  0  0  0  0  0  0  0
    5.7200   -2.0450    1.0300 C   0  0  0  0  0  0  0  0  0  0  0  0
    6.6290   -3.0230    0.7550 C   0  0  0  0  0  0  0  0  0  0  0  0
    8.1010   -2.4150    1.6490 S   0  0  0  0  0  0  0  0  0  0  0  0
    7.3400   -0.9140    2.2950 C   0  0  0  0  0  0  0  0  0  0  0  0
    2.8990   -0.8890    1.5670 C   0  0  0  0  0  0  0  0  0  0  0  0
    3.1840   -1.5290    2.6930 O   0  0  0  0  0  0  0  0  0  0  0  0
    1.6450   -1.3150    0.9900 C   0  0  2  0  0  0  0  0  0  0  0  0
    1.8240   -2.2760   -0.2270 C   0  0  0  0  0  0  0  0  0  0  0  0
    1.0450   -0.9470   -0.2800 C   0  0  1  0  0  0  0  0  0  0  0  0
   -0.4200   -1.2260   -0.5020 C   0  0  0  0  0  0  0  0  0  0  0  0
   -0.9960   -0.6120   -1.4260 O   0  0  0  0  0  0  0  0  0  0  0  0
   -1.1380   -2.1190    0.2700 N   0  0  0  0  0  0  0  0  0  0  0  0
   -2.5060   -2.4470    0.1610 C   0  0  0  0  0  0  0  0  0  0  0  0
   -3.4540   -1.3260    0.2390 C   0  0  0  0  0  0  0  0  0  0  0  0
   -4.4550   -1.2230   -0.6960 C   0  0  0  0  0  0  0  0  0  0  0  0
   -5.4390   -0.2500   -0.6250 C   0  0  0  0  0  0  0  0  0  0  0  0
   -5.3770    0.6200    0.4270 C   0  0  0  0  0  0  0  0  0  0  0  0
   -4.3630    0.5330    1.3910 C   0  0  0  0  0  0  0  0  0  0  0  0
   -3.3830   -0.4300    1.3240 C   0  0  0  0  0  0  0  0  0  0  0  0
   -2.3530   -0.6410    2.1650 O   0  0  0  0  0  0  0  0  0  0  0  0
   -1.9080    0.0010    3.2760 C   0  0  0  0  0  0  0  0  0  0  0  0
   -1.3520    1.3780    3.0660 C   0  0  0  0  0  0  0  0  0  0  0  0
   -2.1530    2.3310    2.5390 O   0  0  0  0  0  0  0  0  0  0  0  0
   -6.2440    1.6830    0.7270 O   0  0  0  0  0  0  0  0  0  0  0  0
   -7.5020    1.8700    0.0530 C   0  0  0  0  0  0  0  0  0  0  0  0
   -8.1530    0.5260   -0.0480 C   0  0  0  0  0  0  0  0  0  0  0  0
   -7.8580   -0.2470   -1.2830 C   0  0  0  0  0  0  0  0  0  0  0  0
   -6.4280   -0.3110   -1.7100 C   0  0  1  0  0  0  0  0  0  0  0  0
   -6.1820    0.7330   -2.8030 C   0  0  0  0  0  0  0  0  0  0  0  0
    5.9390    0.5570   -1.2770 C   0  0  0  0  0  0  0  0  0  0  0  0
    6.1290   -0.6950   -1.8250 O   0  0  0  0  0  0  0  0  0  0  0  0
    4.9720   -1.0000   -2.5340 C   0  0  0  0  0  0  0  0  0  0  0  0
    3.9370   -0.3020   -1.9380 O   0  0  0  0  0  0  0  0  0  0  0  0
  1  2  1  0
  2  3  1  0
  3  4  2  0
  3  5  1  0
  5  6  1  1
  5 39  1  0
  5 42  1  0
  6  7  1  0
  7  8  1  0
  7 14  1  0
  8  9  1  0
  9 10  1  0
  9 13  2  0
 10 11  2  0
 11 12  1  0
 12 13  1  0
 14 15  2  0
 16 14  1  6
 16 17  1  0
 16 18  1  0
 17 18  1  0
 18 19  1  1
 19 20  2  0
 19 21  1  0
 21 22  1  0
 22 23  1  0
 23 24  2  0
 23 28  1  0
 24 25  1  0
 25 26  2  0
 25 37  1  0
 26 27  1  0
 26 33  1  0
 27 28  2  0
 28 29  1  0
 29 30  1  0
 30 31  1  0
 31 32  1  0
 33 34  1  0
 34 35  1  0
 35 36  1  0
 36 37  1  0
 37 38  1  6
 39 40  1  0
 40 41  1  0
 41 42  1  0
M  END
