
     RDKit          3D

 42 45  0  0  0  0  0  0  0  0999 V2000
   -4.5540   -2.8560    1.1140 C   0  0  0  0  0  0  0  0  0  0  0  0
   -3.4030   -2.6990    0.2840 N   0  0  0  0  0  0  0  0  0  0  0  0
   -3.6610   -3.1350   -1.0790 C   0  0  0  0  0  0  0  0  0  0  0  0
   -2.9350   -1.3300    0.2170 C   0  0  1  0  0  0  0  0  0  0  0  0
   -2.4970   -0.8080    1.5580 C   0  0  0  0  0  0  0  0  0  0  0  0
   -1.4180    0.2160    1.1990 C   0  0  0  0  0  0  0  0  0  0  0  0
   -1.1960    0.0880   -0.2090 N   0  0  0  0  0  0  0  0  0  0  0  0
   -0.6590    1.0480   -1.0810 C   0  0  0  0  0  0  0  0  0  0  0  0
   -0.5100    0.7190   -2.3040 O   0  0  0  0  0  0  0  0  0  0  0  0
   -0.2580    2.4240   -0.6240 C   0  0  2  0  0  0  0  0  0  0  0  0
   -1.3190    3.3450   -1.2130 C   0  0  0  0  0  0  0  0  0  0  0  0
   -2.6580    3.0460   -0.7850 N   0  0  0  0  0  0  0  0  0  0  0  0
   -3.7350    3.8450   -1.2660 C   0  0  0  0  0  0  0  0  0  0  0  0
   -3.4510    4.7830   -2.0500 O   0  0  0  0  0  0  0  0  0  0  0  0
   -5.1150    3.5730   -0.8580 C   0  0  0  0  0  0  0  0  0  0  0  0
   -5.6340    2.6080   -0.0270 C   0  0  0  0  0  0  0  0  0  0  0  0
   -6.9310    2.5720    0.1800 C   0  0  0  0  0  0  0  0  0  0  0  0
   -7.7810    3.4800   -0.4170 C   0  0  0  0  0  0  0  0  0  0  0  0
   -9.4420    3.7720   -0.4160 Cl  0  0  0  0  0  0  0  0  0  0  0  0
   -6.4910    4.4490   -1.3570 S   0  0  0  0  0  0  0  0  0  0  0  0
    0.9620    2.7570   -1.2680 N   0  0  0  0  0  0  0  0  0  0  0  0
    2.3040    3.1250   -0.3400 S   0  0  1  0  0  0  0  0  0  0  0  0
    3.4190    3.5110   -1.3290 O   0  0  0  0  0  0  0  0  0  0  0  0
    2.1400    4.3780    0.4920 O   0  0  0  0  0  0  0  0  0  0  0  0
    2.9030    1.8800    0.7090 C   0  0  0  0  0  0  0  0  0  0  0  0
    2.7790    2.0300    2.0830 C   0  0  0  0  0  0  0  0  0  0  0  0
    3.2220    1.0520    2.9570 C   0  0  0  0  0  0  0  0  0  0  0  0
    3.7990   -0.0970    2.4640 C   0  0  0  0  0  0  0  0  0  0  0  0
    3.9340   -0.2690    1.1130 C   0  0  0  0  0  0  0  0  0  0  0  0
    4.5360   -1.4740    0.6420 N   0  0  0  0  0  0  0  0  0  0  0  0
    3.8920   -2.7370    0.9430 C   0  0  0  0  0  0  0  0  0  0  0  0
    4.8420   -3.8750    0.7490 C   0  0  0  0  0  0  0  0  0  0  0  0
    5.6610   -3.7510   -0.5080 C   0  0  0  0  0  0  0  0  0  0  0  0
    6.6110   -2.5850   -0.3250 C   0  0  0  0  0  0  0  0  0  0  0  0
    5.7450   -1.3760   -0.1040 C   0  0  0  0  0  0  0  0  0  0  0  0
    6.1400   -0.2910   -0.6060 O   0  0  0  0  0  0  0  0  0  0  0  0
    3.4810    0.7290    0.2510 C   0  0  0  0  0  0  0  0  0  0  0  0
    3.6620    0.4680   -1.0790 O   0  0  0  0  0  0  0  0  0  0  0  0
    2.6880   -0.2470   -1.8040 C   0  0  1  0  0  0  0  0  0  0  0  0
    2.3990    0.2750   -3.0300 F   0  0  0  0  0  0  0  0  0  0  0  0
    3.1850   -1.5440   -2.0750 F   0  0  0  0  0  0  0  0  0  0  0  0
   -1.6360   -1.2350   -0.5760 C   0  0  0  0  0  0  0  0  0  0  0  0
  1  2  1  0
  2  3  1  0
  4  2  1  1
  4  5  1  0
  4 42  1  0
  5  6  1  0
  6  7  1  0
  7  8  1  0
  7 42  1  0
  8  9  2  0
  8 10  1  0
 10 11  1  6
 10 21  1  0
 11 12  1  0
 12 13  1  0
 13 14  2  0
 13 15  1  0
 15 16  2  0
 15 20  1  0
 16 17  1  0
 17 18  2  0
 18 19  1  0
 18 20  1  0
 22 21  1  6
 22 23  2  0
 22 24  2  0
 22 25  1  0
 25 26  2  0
 25 37  1  0
 26 27  1  0
 27 28  2  0
 28 29  1  0
 29 30  1  0
 29 37  2  0
 30 31  1  0
 30 35  1  0
 31 32  1  0
 32 33  1  0
 33 34  1  0
 34 35  1  0
 35 36  2  0
 37 38  1  0
 38 39  1  0
 39 40  1  6
 39 41  1  0
M  END
