
     RDKit          3D

 42 45  0  0  0  0  0  0  0  0999 V2000
   -4.9270    3.1620   -2.5800 C   0  0  0  0  0  0  0  0  0  0  0  0
   -3.8320    2.1610   -2.3130 C   0  0  0  0  0  0  0  0  0  0  0  0
   -2.5050    2.6060   -2.2640 C   0  0  0  0  0  0  0  0  0  0  0  0
   -1.4760    1.7510   -2.0300 C   0  0  0  0  0  0  0  0  0  0  0  0
   -1.7390    0.4140   -1.8350 C   0  0  0  0  0  0  0  0  0  0  0  0
   -3.0550   -0.0190   -1.8850 C   0  0  0  0  0  0  0  0  0  0  0  0
   -4.1130    0.8340   -2.1220 C   0  0  0  0  0  0  0  0  0  0  0  0
   -5.4630    0.3200   -2.1600 C   0  0  0  0  0  0  0  0  0  0  0  0
   -6.4170    1.0900   -2.3550 O   0  0  0  0  0  0  0  0  0  0  0  0
   -5.7060   -1.1200   -1.9660 C   0  0  0  0  0  0  0  0  0  0  0  0
   -7.4010   -1.6240   -1.8280 S   0  0  0  0  0  0  0  0  0  0  0  0
   -8.1520   -1.1530   -0.2740 C   0  0  1  0  0  0  0  0  0  0  0  0
   -8.3040    0.3200   -0.0870 C   0  0  0  0  0  0  0  0  0  0  0  0
   -9.2090    0.5770    1.1170 C   0  0  0  0  0  0  0  0  0  0  0  0
  -10.6190    0.1490    0.8420 C   0  0  0  0  0  0  0  0  0  0  0  0
  -10.9910   -1.0820    1.6690 C   0  0  1  0  0  0  0  0  0  0  0  0
  -12.4650   -1.3550    1.4830 C   0  0  0  0  0  0  0  0  0  0  0  0
  -10.2290   -2.2570    1.0830 C   0  0  0  0  0  0  0  0  0  0  0  0
   -9.4710   -1.8750   -0.1180 C   0  0  0  0  0  0  0  0  0  0  0  0
   -9.9570   -2.1740   -1.2070 O   0  0  0  0  0  0  0  0  0  0  0  0
   -0.6860   -0.4440   -1.5980 O   0  0  0  0  0  0  0  0  0  0  0  0
    0.5990    0.0390   -1.2720 C   0  0  1  0  0  0  0  0  0  0  0  0
    1.5450   -1.1200   -1.4520 C   0  0  0  0  0  0  0  0  0  0  0  0
    2.9140   -0.8400   -1.1690 N   0  0  0  0  0  0  0  0  0  0  0  0
    3.4100   -0.3980    0.0880 C   0  0  0  0  0  0  0  0  0  0  0  0
    2.5600   -0.2460    1.0070 O   0  0  0  0  0  0  0  0  0  0  0  0
    4.8220   -0.1460    0.2640 C   0  0  0  0  0  0  0  0  0  0  0  0
    5.6010   -0.3140   -0.6850 O   0  0  0  0  0  0  0  0  0  0  0  0
    5.3960    0.2960    1.4910 N   0  0  0  0  0  0  0  0  0  0  0  0
    6.8150    0.5410    1.6510 C   0  0  0  0  0  0  0  0  0  0  0  0
    7.6560   -0.6590    1.3960 C   0  0  0  0  0  0  0  0  0  0  0  0
    9.0120   -0.3270    1.5730 O   0  0  0  0  0  0  0  0  0  0  0  0
    9.6150    0.1240    2.7040 C   0  0  0  0  0  0  0  0  0  0  0  0
    8.9560    0.2850    3.7340 O   0  0  0  0  0  0  0  0  0  0  0  0
   11.0800    0.4230    2.6940 C   0  0  0  0  0  0  0  0  0  0  0  0
   11.6400    0.1560    1.3140 C   0  0  1  0  0  0  0  0  0  0  0  0
   13.1020    0.4370    1.2420 C   0  0  0  0  0  0  0  0  0  0  0  0
   13.6400   -0.7800    0.5010 C   0  0  0  0  0  0  0  0  0  0  0  0
   12.6020   -1.8180    0.8610 C   0  0  0  0  0  0  0  0  0  0  0  0
   11.4030   -1.1170    0.8610 O   0  0  0  0  0  0  0  0  0  0  0  0
    0.9180    1.2010   -2.1550 C   0  0  0  0  0  0  0  0  0  0  0  0
   -0.1440    2.1480   -1.9730 O   0  0  0  0  0  0  0  0  0  0  0  0
  1  2  1  0
  2  3  2  0
  2  7  1  0
  3  4  1  0
  4  5  2  0
  4 42  1  0
  5  6  1  0
  5 21  1  0
  6  7  2  0
  7  8  1  0
  8  9  2  0
  8 10  1  0
 10 11  1  0
 12 11  1  6
 12 13  1  0
 12 19  1  0
 13 14  1  0
 14 15  1  0
 15 16  1  0
 16 17  1  6
 16 18  1  0
 18 19  1  0
 19 20  2  0
 21 22  1  0
 22 23  1  6
 22 41  1  0
 23 24  1  0
 24 25  1  0
 25 26  2  0
 25 27  1  0
 27 28  2  0
 27 29  1  0
 29 30  1  0
 30 31  1  0
 31 32  1  0
 32 33  1  0
 33 34  2  0
 33 35  1  0
 36 35  1  1
 36 37  1  0
 36 40  1  0
 37 38  1  0
 38 39  1  0
 39 40  1  0
 41 42  1  0
M  END
