
     RDKit          3D

 42 45  0  0  0  0  0  0  0  0999 V2000
   -3.6170   -1.1860   -3.1430 C   0  0  0  0  0  0  0  0  0  0  0  0
   -3.9700    0.0910   -2.4790 C   0  0  0  0  0  0  0  0  0  0  0  0
   -3.6610    0.2230   -1.1210 O   0  0  0  0  0  0  0  0  0  0  0  0
   -4.1350   -0.6160   -0.1300 C   0  0  0  0  0  0  0  0  0  0  0  0
   -5.4180   -0.3890    0.4100 C   0  0  0  0  0  0  0  0  0  0  0  0
   -6.1370    0.6720   -0.0920 O   0  0  0  0  0  0  0  0  0  0  0  0
   -7.4220    1.0260    0.3400 C   0  0  0  0  0  0  0  0  0  0  0  0
   -5.9180   -1.1900    1.3870 C   0  0  0  0  0  0  0  0  0  0  0  0
   -5.1480   -2.2410    1.8510 C   0  0  0  0  0  0  0  0  0  0  0  0
   -5.6200   -3.0810    2.8450 O   0  0  0  0  0  0  0  0  0  0  0  0
   -6.9070   -2.8420    3.3770 C   0  0  0  0  0  0  0  0  0  0  0  0
   -3.8950   -2.4530    1.3170 C   0  0  0  0  0  0  0  0  0  0  0  0
   -3.3550   -1.6430    0.3110 C   0  0  0  0  0  0  0  0  0  0  0  0
   -2.0090   -1.9220   -0.1470 C   0  0  2  0  0  0  0  0  0  0  0  0
   -1.3750   -3.0480    0.7060 C   0  0  0  0  0  0  0  0  0  0  0  0
   -1.0970   -0.8120   -0.0140 N   0  0  0  0  0  0  0  0  0  0  0  0
   -0.2280   -0.4250   -1.0420 C   0  0  0  0  0  0  0  0  0  0  0  0
   -0.2280   -1.0640   -2.1190 O   0  0  0  0  0  0  0  0  0  0  0  0
    0.7240    0.7280   -0.9440 C   0  0  1  0  0  0  0  0  0  0  0  0
   -0.0000    2.0100   -0.7360 C   0  0  0  0  0  0  0  0  0  0  0  0
    0.8040    3.2440   -0.6230 C   0  0  0  0  0  0  0  0  0  0  0  0
    1.7150    3.2930    0.4470 O   0  0  0  0  0  0  0  0  0  0  0  0
    2.5410    4.3790    0.6910 C   0  0  0  0  0  0  0  0  0  0  0  0
    2.8900    4.7260    1.9220 C   0  0  0  0  0  0  0  0  0  0  0  0
    3.7650    5.8730    2.2250 C   0  0  2  0  0  0  0  0  0  0  0  0
    3.0580    6.7860    3.0310 O   0  0  0  0  0  0  0  0  0  0  0  0
    4.1910    6.5610    1.0880 O   0  0  0  0  0  0  0  0  0  0  0  0
    3.8560    6.2410   -0.2030 C   0  0  0  0  0  0  0  0  0  0  0  0
    3.0630    5.1940   -0.4050 C   0  0  0  0  0  0  0  0  0  0  0  0
    1.6550    0.4480    0.2330 C   0  0  0  0  0  0  0  0  0  0  0  0
    2.3240   -0.9170    0.0380 C   0  0  0  0  0  0  0  0  0  0  0  0
    3.0280   -0.9400   -1.2230 N   0  0  0  0  0  0  0  0  0  0  0  0
    4.3230   -1.4730   -1.2990 C   0  0  0  0  0  0  0  0  0  0  0  0
    4.9020   -1.4550   -2.4440 O   0  0  0  0  0  0  0  0  0  0  0  0
    5.1050   -2.0610   -0.1950 C   0  0  2  0  0  0  0  0  0  0  0  0
    6.5930   -2.1920   -0.6030 C   0  0  0  0  0  0  0  0  0  0  0  0
    7.1570   -3.2370    0.8050 S   0  0  0  0  0  0  0  0  0  0  0  0
    5.5070   -3.8700    1.3230 C   0  0  0  0  0  0  0  0  0  0  0  0
    4.7200   -3.5010    0.0580 C   0  0  1  0  0  0  0  0  0  0  0  0
    3.3800   -3.6740    0.2050 O   0  0  0  0  0  0  0  0  0  0  0  0
    2.4220   -0.4040   -2.4380 C   0  0  0  0  0  0  0  0  0  0  0  0
    1.5900    0.8260   -2.1650 C   0  0  0  0  0  0  0  0  0  0  0  0
  1  2  1  0
  2  3  1  0
  3  4  1  0
  4  5  2  0
  4 13  1  0
  5  6  1  0
  5  8  1  0
  6  7  1  0
  8  9  2  0
  9 10  1  0
  9 12  1  0
 10 11  1  0
 12 13  2  0
 13 14  1  0
 14 15  1  1
 14 16  1  0
 16 17  1  0
 17 18  2  0
 17 19  1  0
 19 20  1  1
 19 30  1  0
 19 42  1  0
 20 21  1  0
 21 22  1  0
 22 23  1  0
 23 24  2  0
 23 29  1  0
 24 25  1  0
 25 26  1  1
 25 27  1  0
 27 28  1  0
 28 29  2  0
 30 31  1  0
 31 32  1  0
 32 33  1  0
 32 41  1  0
 33 34  2  0
 35 33  1  6
 35 36  1  0
 35 39  1  0
 36 37  1  0
 37 38  1  0
 38 39  1  0
 39 40  1  1
 41 42  1  0
M  END
