
     RDKit          3D

 22 24  0  0  0  0  0  0  0  0999 V2000
    5.6690    0.9110    1.6410 C   0  0  0  0  0  0  0  0  0  0  0  0
    4.8760    0.5480    0.5270 O   0  0  0  0  0  0  0  0  0  0  0  0
    3.4980    0.4180    0.6140 C   0  0  0  0  0  0  0  0  0  0  0  0
    2.8510    0.6430    1.8100 C   0  0  0  0  0  0  0  0  0  0  0  0
    1.4690    0.5140    1.9040 C   0  0  0  0  0  0  0  0  0  0  0  0
    0.8530    0.7400    3.0910 N   0  0  0  0  0  0  0  0  0  0  0  0
   -0.4810    0.6100    3.1640 C   0  0  0  0  0  0  0  0  0  0  0  0
   -1.1440    0.2640    2.0600 N   0  0  0  0  0  0  0  0  0  0  0  0
   -0.5970    0.0260    0.8540 C   0  0  0  0  0  0  0  0  0  0  0  0
   -1.3620   -0.3060   -0.2660 N   0  0  0  0  0  0  0  0  0  0  0  0
   -2.7750   -0.4730   -0.1720 C   0  0  0  0  0  0  0  0  0  0  0  0
   -3.4620   -0.8040    0.9660 C   0  0  0  0  0  0  0  0  0  0  0  0
   -4.8400   -0.8980    0.9050 C   0  0  0  0  0  0  0  0  0  0  0  0
   -5.5600   -0.6800   -0.2330 C   0  0  0  0  0  0  0  0  0  0  0  0
   -4.8910   -0.3450   -1.3990 C   0  0  0  0  0  0  0  0  0  0  0  0
   -5.5890   -0.1180   -2.5700 O   0  0  0  0  0  0  0  0  0  0  0  0
   -3.5300   -0.2520   -1.3360 C   0  0  0  0  0  0  0  0  0  0  0  0
    0.7900    0.1560    0.7580 C   0  0  0  0  0  0  0  0  0  0  0  0
    1.4370   -0.0660   -0.4240 C   0  0  0  0  0  0  0  0  0  0  0  0
    2.8340    0.0610   -0.5330 C   0  0  0  0  0  0  0  0  0  0  0  0
    3.4860   -0.1660   -1.7360 O   0  0  0  0  0  0  0  0  0  0  0  0
    2.7640   -0.5330   -2.8970 C   0  0  0  0  0  0  0  0  0  0  0  0
  1  2  1  0
  2  3  1  0
  3  4  2  0
  3 20  1  0
  4  5  1  0
  5  6  2  0
  5 18  1  0
  6  7  1  0
  7  8  2  0
  8  9  1  0
  9 10  1  0
  9 18  2  0
 10 11  1  0
 11 12  2  0
 11 17  1  0
 12 13  1  0
 13 14  2  0
 14 15  1  0
 15 16  1  0
 15 17  2  0
 18 19  1  0
 19 20  2  0
 20 21  1  0
 21 22  1  0
M  END
