
     RDKit          3D

 12 13  0  0  0  0  0  0  0  0999 V2000
   -3.3410   -0.0010   -0.1620 C   0  0  0  0  0  0  0  0  0  0  0  0
   -1.9820   -0.4320    0.2440 C   0  0  1  0  0  0  0  0  0  0  0  0
   -1.0540   -1.1770   -1.1700 S   0  0  0  0  0  0  0  0  0  0  0  0
    0.5340   -0.6160   -0.5680 C   0  0  0  0  0  0  0  0  0  0  0  0
    0.3310    0.3670    0.2780 C   0  0  0  0  0  0  0  0  0  0  0  0
    1.4580    0.9610    0.8780 O   0  0  0  0  0  0  0  0  0  0  0  0
    2.7220    0.9170    0.2960 C   0  0  0  0  0  0  0  0  0  0  0  0
    2.9410   -0.4510   -0.2400 C   0  0  0  0  0  0  0  0  0  0  0  0
    4.0600   -1.0390   -0.1470 O   0  0  0  0  0  0  0  0  0  0  0  0
    1.8220   -1.0680   -0.8660 N   0  0  0  0  0  0  0  0  0  0  0  0
   -1.0450    0.7120    0.4810 C   0  0  0  0  0  0  0  0  0  0  0  0
   -1.5270    1.8460    0.8290 O   0  0  0  0  0  0  0  0  0  0  0  0
  2  1  1  6
  2  3  1  0
  2 11  1  0
  3  4  1  0
  4  5  2  0
  4 10  1  0
  5  6  1  0
  5 11  1  0
  6  7  1  0
  7  8  1  0
  8  9  2  0
  8 10  1  0
 11 12  2  0
M  END
