
     RDKit          3D

 12 13  0  0  0  0  0  0  0  0999 V2000
   -3.2560   -0.1520   -0.2710 C   0  0  0  0  0  0  0  0  0  0  0  0
   -1.8640   -0.2080    0.3220 C   0  0  1  0  0  0  0  0  0  0  0  0
   -0.9590   -1.0940   -0.4960 C   0  0  0  0  0  0  0  0  0  0  0  0
    0.3850   -0.4490   -0.2210 C   0  0  0  0  0  0  0  0  0  0  0  0
    1.5650   -0.9930   -0.4120 C   0  0  0  0  0  0  0  0  0  0  0  0
    2.9940   -0.0960   -0.0370 S   0  0  1  0  0  0  0  0  0  0  0  0
    3.6720   -0.7950    1.1250 O   0  0  0  0  0  0  0  0  0  0  0  0
    3.9270    0.0210   -1.2050 O   0  0  0  0  0  0  0  0  0  0  0  0
    2.4920    1.4410    0.5420 N   0  0  0  0  0  0  0  0  0  0  0  0
    1.1120    1.7240    0.6300 C   0  0  0  0  0  0  0  0  0  0  0  0
    0.1550    0.8770    0.2870 C   0  0  0  0  0  0  0  0  0  0  0  0
   -1.2380    1.0640    0.3380 O   0  0  0  0  0  0  0  0  0  0  0  0
  2  1  1  6
  2  3  1  0
  2 12  1  0
  3  4  1  0
  4  5  2  0
  4 11  1  0
  5  6  1  0
  6  7  2  0
  6  8  2  0
  6  9  1  1
  9 10  1  0
 10 11  2  0
 11 12  1  0
M  END
