
     RDKit          3D

 12 13  0  0  0  0  0  0  0  0999 V2000
    3.6400    0.3820   -0.1560 O   0  0  0  0  0  0  0  0  0  0  0  0
    2.3770    0.4110   -0.0240 C   0  0  0  0  0  0  0  0  0  0  0  0
    1.6920   -0.6980   -0.3080 N   0  0  0  0  0  0  0  0  0  0  0  0
    0.3360   -0.6560   -0.1630 C   0  0  0  0  0  0  0  0  0  0  0  0
   -0.2210    0.5250    0.2630 C   0  0  0  0  0  0  0  0  0  0  0  0
    0.5020    1.6140    0.5370 O   0  0  0  0  0  0  0  0  0  0  0  0
    1.8040    1.5890    0.4030 C   0  0  0  0  0  0  0  0  0  0  0  0
    2.5370    2.5890    0.6480 O   0  0  0  0  0  0  0  0  0  0  0  0
   -1.6730    0.3100    0.3370 C   0  0  0  0  0  0  0  0  0  0  0  0
   -2.8390    1.5880    0.8530 S   0  0  0  0  0  0  0  0  0  0  0  0
   -1.9620   -0.9270   -0.0260 C   0  0  0  0  0  0  0  0  0  0  0  0
   -0.7220   -1.6600   -0.3770 C   0  0  0  0  0  0  0  0  0  0  0  0
  1  2  2  0
  2  3  1  0
  2  7  1  0
  3  4  1  0
  4  5  2  0
  4 12  1  0
  5  6  1  0
  5  9  1  0
  6  7  1  0
  7  8  2  0
  9 10  1  0
  9 11  2  0
 11 12  1  0
M  END
