
     RDKit          3D

 12 13  0  0  0  0  0  0  0  0999 V2000
    3.8490   -1.6120   -0.0860 O   0  0  0  0  0  0  0  0  0  0  0  0
    2.7930   -0.9370   -0.2630 C   0  0  0  0  0  0  0  0  0  0  0  0
    2.9050    0.4600   -0.7390 C   0  0  0  0  0  0  0  0  0  0  0  0
    1.7480    1.2010   -0.4020 O   0  0  0  0  0  0  0  0  0  0  0  0
    0.5140    0.6340   -0.1560 C   0  0  0  0  0  0  0  0  0  0  0  0
    0.3600   -0.6780    0.0390 C   0  0  0  0  0  0  0  0  0  0  0  0
    1.5160   -1.5060   -0.0110 N   0  0  0  0  0  0  0  0  0  0  0  0
   -1.0740   -1.6700    0.3690 S   0  0  0  0  0  0  0  0  0  0  0  0
   -2.5650   -1.0020   -0.3910 C   0  0  0  0  0  0  0  0  0  0  0  0
   -2.6050    0.5090   -0.3080 C   0  0  0  0  0  0  0  0  0  0  0  0
   -1.5770    1.1110   -1.0190 O   0  0  0  0  0  0  0  0  0  0  0  0
   -0.6170    1.6090   -0.1290 C   0  0  0  0  0  0  0  0  0  0  0  0
  1  2  2  0
  2  3  1  0
  2  7  1  0
  3  4  1  0
  4  5  1  0
  5  6  2  0
  5 12  1  0
  6  7  1  0
  6  8  1  0
  8  9  1  0
  9 10  1  0
 10 11  1  0
 11 12  1  0
M  END
