
     RDKit          3D

 32 32  0  0  0  0  0  0  0  0999 V2000
   -7.0150    2.6130    2.4300 C   0  0  0  0  0  0  0  0  0  0  0  0
   -5.5520    2.6420    2.5680 C   0  0  0  0  0  0  0  0  0  0  0  0
   -4.7570    1.9510    1.7560 C   0  0  0  0  0  0  0  0  0  0  0  0
   -5.2780    1.1240    0.6840 C   0  0  0  0  0  0  0  0  0  0  0  0
   -4.4770    0.4620   -0.0980 C   0  0  0  0  0  0  0  0  0  0  0  0
   -2.9790    0.5730    0.1260 C   0  0  0  0  0  0  0  0  0  0  0  0
   -2.2800    0.0930   -1.0780 N   0  0  0  0  0  0  0  0  0  0  0  0
   -1.2510   -0.8340   -0.7980 C   0  0  0  0  0  0  0  0  0  0  0  0
   -0.5950   -1.2920   -1.7840 O   0  0  0  0  0  0  0  0  0  0  0  0
   -0.9490   -1.2530    0.5730 C   0  0  0  0  0  0  0  0  0  0  0  0
    0.1670   -2.1510    0.5330 O   0  0  0  0  0  0  0  0  0  0  0  0
    1.3960   -1.6930    0.0290 C   0  0  0  0  0  0  0  0  0  0  0  0
    1.4470   -0.5030   -0.3610 O   0  0  0  0  0  0  0  0  0  0  0  0
    2.4870   -2.5880   -0.0080 N   0  0  0  0  0  0  0  0  0  0  0  0
    3.7550   -2.1550   -0.5150 C   0  0  0  0  0  0  0  0  0  0  0  0
    4.3350   -1.0060    0.2690 C   0  0  0  0  0  0  0  0  0  0  0  0
    5.9800   -0.4820   -0.4260 P   0  0  0  0  0  0  0  0  0  0  0  0
    6.0620    1.2370   -0.5230 O   0  0  0  0  0  0  0  0  0  0  0  0
    7.2070    1.7180    0.0730 C   0  0  0  0  0  0  0  0  0  0  0  0
    7.2010    3.2420   -0.0570 C   0  0  0  0  0  0  0  0  0  0  0  0
    7.2990   -1.1240    0.5080 O   0  0  0  0  0  0  0  0  0  0  0  0
    7.1370   -2.4980    0.6360 C   0  0  0  0  0  0  0  0  0  0  0  0
    8.2780   -3.0790    1.4470 C   0  0  0  0  0  0  0  0  0  0  0  0
   -2.5010    0.4330   -2.4610 C   0  0  2  0  0  0  0  0  0  0  0  0
   -2.5610    1.8920   -2.7190 C   0  0  0  0  0  0  0  0  0  0  0  0
   -2.3590    2.7880   -1.6470 N   0  0  0  0  0  0  0  0  0  0  0  0
   -2.7900    2.3100   -3.8830 O   0  0  0  0  0  0  0  0  0  0  0  0
   -3.5870   -0.3250   -3.1360 C   0  0  0  0  0  0  0  0  0  0  0  0
   -4.8350   -0.3260   -2.4970 O   0  0  0  0  0  0  0  0  0  0  0  0
   -5.1640   -0.3350   -1.1180 C   0  0  0  0  0  0  0  0  0  0  0  0
   -6.1280   -1.0870   -0.6870 C   0  0  0  0  0  0  0  0  0  0  0  0
   -6.6620   -1.2950    0.6460 C   0  0  0  0  0  0  0  0  0  0  0  0
  1  2  1  0
  2  3  2  3
  3  4  1  0
  4  5  2  3
  5  6  1  0
  5 30  1  0
  6  7  1  0
  7  8  1  0
  7 24  1  0
  8  9  2  0
  8 10  1  0
 10 11  1  0
 11 12  1  0
 12 13  2  0
 12 14  1  0
 14 15  1  0
 15 16  1  0
 16 17  1  0
 17 18  1  0
 17 21  1  0
 18 19  1  0
 19 20  1  0
 21 22  1  0
 22 23  1  0
 24 25  1  1
 24 28  1  0
 25 26  1  0
 25 27  2  0
 28 29  1  0
 29 30  1  0
 30 31  2  3
 31 32  1  0
M  END
