
     RDKit          3D

 32 33  0  0  0  0  0  0  0  0999 V2000
    7.8400    0.6410   -4.4480 C   0  0  0  0  0  0  0  0  0  0  0  0
    8.1300    1.7650   -3.4820 C   0  0  0  0  0  0  0  0  0  0  0  0
    7.0230    1.8250   -2.4230 C   0  0  0  0  0  0  0  0  0  0  0  0
    7.0050    0.5010   -1.6970 C   0  0  0  0  0  0  0  0  0  0  0  0
    6.0750    0.3630   -0.7030 O   0  0  0  0  0  0  0  0  0  0  0  0
    4.7210    0.3880   -0.6740 C   0  0  0  0  0  0  0  0  0  0  0  0
    4.1220    0.2160    0.5830 C   0  0  0  0  0  0  0  0  0  0  0  0
    2.7610    0.2160    0.7690 C   0  0  0  0  0  0  0  0  0  0  0  0
    1.9220    0.3910   -0.3090 C   0  0  0  0  0  0  0  0  0  0  0  0
    0.5090    0.4020   -0.1820 N   0  0  0  0  0  0  0  0  0  0  0  0
   -0.2560   -0.7300   -0.2750 O   0  0  0  0  0  0  0  0  0  0  0  0
   -0.5950   -1.0800    1.0110 C   0  0  2  0  0  0  0  0  0  0  0  0
   -0.1070   -2.3500    1.3720 O   0  0  0  0  0  0  0  0  0  0  0  0
   -0.7320   -2.6620    2.5520 C   0  0  0  0  0  0  0  0  0  0  0  0
   -2.0700   -1.9530    2.5960 C   0  0  2  0  0  0  0  0  0  0  0  0
   -2.0480   -0.9050    3.6750 C   0  0  0  0  0  0  0  0  0  0  0  0
   -3.1480   -2.8810    2.7320 N   0  0  0  0  0  0  0  0  0  0  0  0
   -3.1840   -3.7310    3.8690 C   0  0  0  0  0  0  0  0  0  0  0  0
   -4.2970   -4.7060    4.0320 C   0  0  0  0  0  0  0  0  0  0  0  0
   -2.2970   -3.7010    4.7700 O   0  0  0  0  0  0  0  0  0  0  0  0
   -2.0650   -1.2800    1.2270 C   0  0  1  0  0  0  0  0  0  0  0  0
   -2.8480   -0.0860    1.1730 N   0  0  0  0  0  0  0  0  0  0  0  0
   -3.9260   -0.0010    0.2270 C   0  0  0  0  0  0  0  0  0  0  0  0
   -4.1610   -0.9740   -0.5360 O   0  0  0  0  0  0  0  0  0  0  0  0
   -4.7620    1.2480    0.1560 C   0  0  0  0  0  0  0  0  0  0  0  0
   -5.8120    1.0830   -0.9220 C   0  0  0  0  0  0  0  0  0  0  0  0
   -6.6510    2.3230   -0.9970 C   0  0  0  0  0  0  0  0  0  0  0  0
   -5.6790    3.8360   -1.3980 P   0  0  0  0  0  0  0  0  0  0  0  0
   -4.6680    4.3250   -0.0990 O   0  0  0  0  0  0  0  0  0  0  0  0
   -4.8290    3.7180   -2.8850 O   0  0  0  0  0  0  0  0  0  0  0  0
    2.4840    0.5620   -1.5520 C   0  0  0  0  0  0  0  0  0  0  0  0
    3.8720    0.5580   -1.7210 C   0  0  0  0  0  0  0  0  0  0  0  0
  1  2  1  0
  2  3  1  0
  3  4  1  0
  4  5  1  0
  5  6  1  0
  6  7  2  0
  6 32  1  0
  7  8  1  0
  8  9  2  0
  9 10  1  0
  9 31  1  0
 10 11  1  0
 12 11  1  6
 12 13  1  0
 12 21  1  0
 13 14  1  0
 14 15  1  0
 15 16  1  1
 15 17  1  0
 15 21  1  0
 17 18  1  0
 18 19  1  0
 18 20  2  0
 21 22  1  1
 22 23  1  0
 23 24  2  0
 23 25  1  0
 25 26  1  0
 26 27  1  0
 27 28  1  0
 28 29  1  0
 28 30  1  0
 31 32  2  0
M  END
