
     RDKit          3D

 32 33  0  0  0  0  0  0  0  0999 V2000
    8.2510    1.8190    1.9220 C   0  0  0  0  0  0  0  0  0  0  0  0
    6.7730    1.7870    2.1970 C   0  0  0  0  0  0  0  0  0  0  0  0
    6.1470    1.1000    1.1220 O   0  0  0  0  0  0  0  0  0  0  0  0
    6.4490   -0.1960    0.8050 C   0  0  0  0  0  0  0  0  0  0  0  0
    7.3020   -0.8530    1.4520 O   0  0  0  0  0  0  0  0  0  0  0  0
    5.7770   -0.9030   -0.3340 C   0  0  0  0  0  0  0  0  0  0  0  0
    4.7890    0.0380   -0.9930 C   0  0  0  0  0  0  0  0  0  0  0  0
    4.1380   -0.7350   -2.1380 C   0  0  0  0  0  0  0  0  0  0  0  0
    3.4400   -1.8950   -1.7100 N   0  0  0  0  0  0  0  0  0  0  0  0
    4.2080   -3.1620   -1.6990 C   0  0  0  0  0  0  0  0  0  0  0  0
    2.1270   -1.9620   -1.3050 C   0  0  0  0  0  0  0  0  0  0  0  0
    1.7000   -3.1590   -1.0150 O   0  0  0  0  0  0  0  0  0  0  0  0
    1.1280   -0.9140   -1.1420 C   0  0  0  0  0  0  0  0  0  0  0  0
    1.2420    0.3820   -1.3290 C   0  0  0  0  0  0  0  0  0  0  0  0
   -0.0370    1.1180   -1.0510 C   0  0  0  0  0  0  0  0  0  0  0  0
   -0.9540    0.0650   -0.6610 C   0  0  0  0  0  0  0  0  0  0  0  0
   -2.2340    0.2140   -0.3110 C   0  0  0  0  0  0  0  0  0  0  0  0
   -2.8090    1.5080   -0.3000 N   0  0  0  0  0  0  0  0  0  0  0  0
   -3.6170    2.0040   -1.3450 C   0  0  0  0  0  0  0  0  0  0  0  0
   -4.8160    2.5560   -1.1100 C   0  0  0  0  0  0  0  0  0  0  0  0
   -5.3470    2.9480   -2.4340 C   0  0  0  0  0  0  0  0  0  0  0  0
   -4.2920    2.9350   -3.3140 O   0  0  0  0  0  0  0  0  0  0  0  0
   -3.3620    2.0320   -2.7910 C   0  0  0  0  0  0  0  0  0  0  0  0
   -3.0910   -0.9200    0.0730 C   0  0  2  0  0  0  0  0  0  0  0  0
   -4.3320   -0.9610   -0.8100 C   0  0  0  0  0  0  0  0  0  0  0  0
   -3.6150   -0.7470    1.5040 C   0  0  0  0  0  0  0  0  0  0  0  0
   -4.4020   -1.8520    1.7660 O   0  0  0  0  0  0  0  0  0  0  0  0
   -4.9560   -1.8510    3.0270 C   0  0  0  0  0  0  0  0  0  0  0  0
   -5.8510   -0.6550    3.2830 C   0  0  0  0  0  0  0  0  0  0  0  0
   -6.3410   -0.7850    4.5920 O   0  0  0  0  0  0  0  0  0  0  0  0
   -7.1360    0.2160    4.9120 O   0  0  0  0  0  0  0  0  0  0  0  0
   -0.2460   -1.1500   -0.7200 N   0  0  0  0  0  0  0  0  0  0  0  0
  1  2  1  0
  2  3  1  0
  3  4  1  0
  4  5  2  0
  4  6  1  0
  6  7  1  0
  7  8  1  0
  8  9  1  0
  9 10  1  0
  9 11  1  0
 11 12  2  0
 11 13  1  0
 13 14  2  0
 13 32  1  0
 14 15  1  0
 15 16  1  0
 16 17  2  3
 16 32  1  0
 17 18  1  0
 17 24  1  0
 18 19  1  0
 19 20  2  0
 19 23  1  0
 20 21  1  0
 21 22  1  0
 22 23  1  0
 24 25  1  6
 24 26  1  0
 26 27  1  0
 27 28  1  0
 28 29  1  0
 29 30  1  0
 30 31  1  0
M  END
