
     RDKit          3D

 32 32  0  0  0  0  0  0  0  0999 V2000
   -4.1280   -2.4140   -3.4750 C   0  0  0  0  0  0  0  0  0  0  0  0
   -3.7700   -1.5960   -2.1970 C   0  0  0  0  0  0  0  0  0  0  0  0
   -3.2730   -2.4400   -1.3280 O   0  0  0  0  0  0  0  0  0  0  0  0
   -2.6450   -2.3010    0.1530 P   0  0  0  0  0  0  0  0  0  0  0  0
   -1.5800   -3.6960    0.3770 O   0  0  0  0  0  0  0  0  0  0  0  0
   -2.5450   -4.6240    0.9130 C   0  0  0  0  0  0  0  0  0  0  0  0
   -2.5550   -5.7910   -0.0320 C   0  0  0  0  0  0  0  0  0  0  0  0
   -2.1480   -0.8160    0.8810 C   0  0  1  0  0  0  0  0  0  0  0  0
   -0.6270   -0.7210    1.3040 C   0  0  0  0  0  0  0  0  0  0  0  0
    0.0800   -0.8220    0.0910 N   0  0  0  0  0  0  0  0  0  0  0  0
    1.2840   -0.0380   -0.0900 C   0  0  1  0  0  0  0  0  0  0  0  0
    1.6000   -0.2250   -1.5190 C   0  0  0  0  0  0  0  0  0  0  0  0
    1.5140   -1.3510   -2.0870 O   0  0  0  0  0  0  0  0  0  0  0  0
    1.9870    0.8560   -2.3010 O   0  0  0  0  0  0  0  0  0  0  0  0
    1.0820    1.3770    0.2490 C   0  0  0  0  0  0  0  0  0  0  0  0
    2.2740    2.2510   -0.0420 C   0  0  0  0  0  0  0  0  0  0  0  0
    3.5280    1.5300    0.0210 C   0  0  0  0  0  0  0  0  0  0  0  0
    3.6470    0.2580    0.3300 C   0  0  0  0  0  0  0  0  0  0  0  0
    4.9570   -0.4060    0.3660 C   0  0  0  0  0  0  0  0  0  0  0  0
    5.9690    0.2660    0.1330 N   0  0  0  0  0  0  0  0  0  0  0  0
    7.3210    0.0880    0.0690 C   0  0  1  0  0  0  0  0  0  0  0  0
    8.1390    1.3450   -0.2990 C   0  0  0  0  0  0  0  0  0  0  0  0
    7.9990   -0.3960    1.3920 C   0  0  0  0  0  0  0  0  0  0  0  0
    2.4570   -0.5720    0.6940 C   0  0  0  0  0  0  0  0  0  0  0  0
   -2.2210    0.2850   -0.0040 O   0  0  0  0  0  0  0  0  0  0  0  0
   -2.8160    1.3920    0.5380 C   0  0  0  0  0  0  0  0  0  0  0  0
   -4.2620    1.1280    0.7840 C   0  0  0  0  0  0  0  0  0  0  0  0
   -4.9140    2.2650    1.3530 N   0  0  0  0  0  0  0  0  0  0  0  0
   -4.9380    3.5140    0.7310 C   0  0  0  0  0  0  0  0  0  0  0  0
   -4.3970    3.7240   -0.3490 O   0  0  0  0  0  0  0  0  0  0  0  0
   -5.6000    4.5610    1.3830 O   0  0  0  0  0  0  0  0  0  0  0  0
   -5.6640    5.8370    0.7510 C   0  0  0  0  0  0  0  0  0  0  0  0
  1  2  1  0
  2  3  1  0
  3  4  1  0
  4  5  1  0
  4  8  1  0
  5  6  1  0
  6  7  1  0
  8  9  1  6
  8 25  1  0
  9 10  1  0
 11 10  1  1
 11 12  1  0
 11 15  1  0
 11 24  1  0
 12 13  2  0
 12 14  1  0
 15 16  1  0
 16 17  1  0
 17 18  2  0
 18 19  1  0
 18 24  1  0
 19 20  2  3
 20 21  1  0
 21 22  1  1
 21 23  1  0
 25 26  1  0
 26 27  1  0
 27 28  1  0
 28 29  1  0
 29 30  2  0
 29 31  1  0
 31 32  1  0
M  END
