
     RDKit          3D

 38 42  0  0  0  0  0  0  0  0999 V2000
   -8.6760    2.2620    0.4880 N   0  0  0  0  0  0  0  0  0  0  0  0
   -8.5470    0.8750    0.2810 C   0  0  0  0  0  0  0  0  0  0  0  0
   -9.5480    0.1400    0.4460 O   0  0  0  0  0  0  0  0  0  0  0  0
   -7.2790    0.2850   -0.1190 C   0  0  0  0  0  0  0  0  0  0  0  0
   -7.1280   -1.0630   -0.3630 C   0  0  0  0  0  0  0  0  0  0  0  0
   -5.9020   -1.5670   -0.7390 C   0  0  0  0  0  0  0  0  0  0  0  0
   -4.7820   -0.7750   -0.8900 C   0  0  0  0  0  0  0  0  0  0  0  0
   -3.5210   -1.3410   -1.2850 N   0  0  0  0  0  0  0  0  0  0  0  0
   -3.4430   -1.9610   -2.5930 C   0  0  0  0  0  0  0  0  0  0  0  0
   -3.0290   -0.8940   -3.5990 C   0  0  0  0  0  0  0  0  0  0  0  0
   -2.9410   -1.4490   -4.8770 O   0  0  0  0  0  0  0  0  0  0  0  0
   -2.3920   -1.2910   -0.4170 C   0  0  0  0  0  0  0  0  0  0  0  0
   -1.3290   -1.7930   -0.8290 O   0  0  0  0  0  0  0  0  0  0  0  0
   -2.4790   -0.6970    0.8550 N   0  0  0  0  0  0  0  0  0  0  0  0
   -1.4520   -0.5750    1.8130 C   0  0  0  0  0  0  0  0  0  0  0  0
   -1.7090    0.0700    3.0320 C   0  0  0  0  0  0  0  0  0  0  0  0
   -0.7410    0.2140    3.9960 C   0  0  0  0  0  0  0  0  0  0  0  0
    0.5350   -0.2670    3.8200 C   0  0  0  0  0  0  0  0  0  0  0  0
    0.8180   -0.9020    2.6410 C   0  0  0  0  0  0  0  0  0  0  0  0
   -0.1810   -1.0440    1.6590 C   0  0  0  0  0  0  0  0  0  0  0  0
    2.2390   -1.3220    2.6830 C   0  0  1  0  0  0  0  0  0  0  0  0
    3.0150   -0.2400    2.1120 N   0  0  0  0  0  0  0  0  0  0  0  0
    3.9030   -0.5340    1.0340 C   0  0  0  0  0  0  0  0  0  0  0  0
    3.9750   -1.7060    0.6280 O   0  0  0  0  0  0  0  0  0  0  0  0
    4.6570    0.5260    0.4800 N   0  0  0  0  0  0  0  0  0  0  0  0
    5.5770    0.4040   -0.5780 C   0  0  0  0  0  0  0  0  0  0  0  0
    5.8820   -0.7860   -1.1950 C   0  0  0  0  0  0  0  0  0  0  0  0
    6.8090   -0.8870   -2.2430 C   0  0  0  0  0  0  0  0  0  0  0  0
    7.4600    0.2160   -2.7010 C   0  0  0  0  0  0  0  0  0  0  0  0
    7.1720    1.4360   -2.0950 C   0  0  0  0  0  0  0  0  0  0  0  0
    6.2630    1.5200   -1.0720 C   0  0  0  0  0  0  0  0  0  0  0  0
    6.1540    2.7770   -0.6570 C   0  0  0  0  0  0  0  0  0  0  0  0
    7.0660    3.6000   -1.4700 C   0  0  0  0  0  0  0  0  0  0  0  0
    7.6760    2.6110   -2.3770 C   0  0  0  0  0  0  0  0  0  0  0  0
    2.4790   -1.4810    4.1600 C   0  0  0  0  0  0  0  0  0  0  0  0
    1.7470   -0.2450    4.6960 C   0  0  0  0  0  0  0  0  0  0  0  0
   -4.9280    0.5780   -0.6460 C   0  0  0  0  0  0  0  0  0  0  0  0
   -6.1500    1.0920   -0.2700 C   0  0  0  0  0  0  0  0  0  0  0  0
  1  2  1  0
  2  3  2  0
  2  4  1  0
  4  5  2  0
  4 38  1  0
  5  6  1  0
  6  7  2  0
  7  8  1  0
  7 37  1  0
  8  9  1  0
  8 12  1  0
  9 10  1  0
 10 11  1  0
 12 13  2  0
 12 14  1  0
 14 15  1  0
 15 16  2  0
 15 20  1  0
 16 17  1  0
 17 18  2  0
 18 19  1  0
 18 36  1  0
 19 20  2  0
 19 21  1  0
 21 22  1  1
 21 35  1  0
 22 23  1  0
 23 24  2  0
 23 25  1  0
 25 26  1  0
 26 27  2  0
 26 31  1  0
 27 28  1  0
 28 29  2  0
 29 30  1  0
 30 31  1  0
 30 34  2  0
 31 32  2  0
 32 33  1  0
 33 34  1  0
 35 36  1  0
 37 38  2  0
M  END
