
     RDKit          3D

 38 42  0  0  0  0  0  0  0  0999 V2000
    3.9550    0.7640    2.8470 C   0  0  0  0  0  0  0  0  0  0  0  0
    4.7050    0.6060    1.5660 C   0  0  0  0  0  0  0  0  0  0  0  0
    6.0760    0.6940    1.5610 C   0  0  0  0  0  0  0  0  0  0  0  0
    6.8320    0.5560    0.4260 C   0  0  0  0  0  0  0  0  0  0  0  0
    8.2770    0.5690    0.3370 C   0  0  0  0  0  0  0  0  0  0  0  0
    9.2590    0.4890    1.1220 C   0  0  0  0  0  0  0  0  0  0  0  0
    9.4800    0.3370    2.5150 C   0  0  0  0  0  0  0  0  0  0  0  0
    8.5740    0.1850    3.5850 N   0  0  0  0  0  0  0  0  0  0  0  0
   10.7380    0.3310    2.9350 O   0  0  0  0  0  0  0  0  0  0  0  0
    6.0880    0.3170   -0.7390 C   0  0  0  0  0  0  0  0  0  0  0  0
    4.7160    0.2200   -0.7870 C   0  0  0  0  0  0  0  0  0  0  0  0
    4.0260    0.3660    0.3720 C   0  0  0  0  0  0  0  0  0  0  0  0
    2.6460    0.2850    0.4250 O   0  0  0  0  0  0  0  0  0  0  0  0
    1.8120    0.0590   -0.6710 C   0  0  0  0  0  0  0  0  0  0  0  0
    2.0790    0.6820   -1.7540 N   0  0  0  0  0  0  0  0  0  0  0  0
    1.3180    0.5450   -2.9320 C   0  0  0  0  0  0  0  0  0  0  0  0
    1.6150    1.2140   -4.1040 C   0  0  0  0  0  0  0  0  0  0  0  0
    0.8670    1.0630   -5.2490 C   0  0  0  0  0  0  0  0  0  0  0  0
   -0.2230    0.2020   -5.2020 C   0  0  0  0  0  0  0  0  0  0  0  0
   -0.5560   -0.4830   -4.0600 C   0  0  0  0  0  0  0  0  0  0  0  0
    0.2360   -0.2970   -2.9200 C   0  0  0  0  0  0  0  0  0  0  0  0
   -0.0950   -1.0000   -1.7470 N   0  0  0  0  0  0  0  0  0  0  0  0
    0.6810   -0.8690   -0.5470 C   0  0  2  0  0  0  0  0  0  0  0  0
   -0.1660   -0.5350    0.5910 N   0  0  0  0  0  0  0  0  0  0  0  0
   -1.1630   -1.5060    0.6680 N   0  0  0  0  0  0  0  0  0  0  0  0
   -2.5340   -1.1290    0.8090 C   0  0  0  0  0  0  0  0  0  0  0  0
   -2.7720    0.1050    0.8510 O   0  0  0  0  0  0  0  0  0  0  0  0
   -3.6350   -2.1350    0.9030 C   0  0  0  0  0  0  0  0  0  0  0  0
   -4.9050   -1.4090    1.0530 C   0  0  0  0  0  0  0  0  0  0  0  0
   -5.3820   -1.0490    2.2910 C   0  0  0  0  0  0  0  0  0  0  0  0
   -6.5880   -0.3670    2.3990 C   0  0  0  0  0  0  0  0  0  0  0  0
   -7.3370   -0.0330    1.2870 C   0  0  0  0  0  0  0  0  0  0  0  0
   -6.8290   -0.4100    0.0640 C   0  0  0  0  0  0  0  0  0  0  0  0
   -5.6470   -1.0790   -0.0600 C   0  0  0  0  0  0  0  0  0  0  0  0
   -7.6060   -0.0760   -1.1830 C   0  0  0  0  0  0  0  0  0  0  0  0
   -8.9480   -0.0870   -0.8030 O   0  0  0  0  0  0  0  0  0  0  0  0
   -9.2120    0.9690    0.0700 C   0  0  0  0  0  0  0  0  0  0  0  0
   -8.6230    0.6950    1.4180 C   0  0  0  0  0  0  0  0  0  0  0  0
  1  2  1  0
  2  3  2  0
  2 12  1  0
  3  4  1  0
  4  5  1  0
  4 10  2  0
  5  6  2  3
  6  7  1  0
  7  8  1  0
  7  9  2  0
 10 11  1  0
 11 12  2  0
 12 13  1  0
 13 14  1  0
 14 15  2  0
 14 23  1  0
 15 16  1  0
 16 17  2  0
 16 21  1  0
 17 18  1  0
 18 19  2  0
 19 20  1  0
 20 21  2  0
 21 22  1  0
 22 23  1  0
 23 24  1  1
 24 25  1  0
 25 26  1  0
 26 27  2  0
 26 28  1  0
 28 29  1  0
 29 30  2  0
 29 34  1  0
 30 31  1  0
 31 32  2  0
 32 33  1  0
 32 38  1  0
 33 34  2  0
 33 35  1  0
 35 36  1  0
 36 37  1  0
 37 38  1  0
M  END
