
     RDKit          3D

 38 42  0  0  0  0  0  0  0  0999 V2000
    3.2400    0.2670   -4.6030 C   0  0  0  0  0  0  0  0  0  0  0  0
    2.5220   -0.1730   -3.3460 C   0  0  0  0  0  0  0  0  0  0  0  0
    1.2980   -0.2770   -3.4270 O   0  0  0  0  0  0  0  0  0  0  0  0
    3.3280   -0.4300   -2.1690 C   0  0  0  0  0  0  0  0  0  0  0  0
    4.7140   -0.2360   -2.2540 C   0  0  0  0  0  0  0  0  0  0  0  0
    5.5710   -0.4370   -1.2020 C   0  0  0  0  0  0  0  0  0  0  0  0
    5.0880   -0.8470    0.0110 C   0  0  0  0  0  0  0  0  0  0  0  0
    3.7050   -1.0420    0.1010 C   0  0  0  0  0  0  0  0  0  0  0  0
    2.8310   -0.8460   -0.9430 C   0  0  0  0  0  0  0  0  0  0  0  0
    1.4480   -1.0770   -0.7920 N   0  0  0  0  0  0  0  0  0  0  0  0
    0.7930   -1.4370    0.4050 C   0  0  0  0  0  0  0  0  0  0  0  0
    1.3890   -1.5840    1.4660 O   0  0  0  0  0  0  0  0  0  0  0  0
   -0.6260   -1.6540    0.4480 N   0  0  0  0  0  0  0  0  0  0  0  0
   -1.3300   -2.0170    1.6320 C   0  0  0  0  0  0  0  0  0  0  0  0
   -1.2300   -1.0240    2.7620 C   0  0  0  0  0  0  0  0  0  0  0  0
   -1.7330    0.2670    2.4370 N   0  0  0  0  0  0  0  0  0  0  0  0
   -3.0610    0.5530    2.0400 C   0  0  0  0  0  0  0  0  0  0  0  0
   -3.8750   -0.3880    1.9620 O   0  0  0  0  0  0  0  0  0  0  0  0
   -3.4930    1.9030    1.7260 C   0  0  0  0  0  0  0  0  0  0  0  0
   -2.7410    3.0440    1.8300 N   0  0  0  0  0  0  0  0  0  0  0  0
   -3.4440    4.1080    1.4770 C   0  0  0  0  0  0  0  0  0  0  0  0
   -4.6810    3.6700    1.1330 C   0  0  0  0  0  0  0  0  0  0  0  0
   -4.7410    2.2740    1.2810 C   0  0  0  0  0  0  0  0  0  0  0  0
   -5.9150    1.4870    0.9680 C   0  0  0  0  0  0  0  0  0  0  0  0
   -7.1450    1.7390    1.5400 C   0  0  0  0  0  0  0  0  0  0  0  0
   -8.2670    0.9970    1.2190 C   0  0  0  0  0  0  0  0  0  0  0  0
   -8.1660   -0.0260    0.3040 C   0  0  0  0  0  0  0  0  0  0  0  0
   -6.9360   -0.3080   -0.2930 C   0  0  0  0  0  0  0  0  0  0  0  0
   -6.8200   -1.3790   -1.2550 C   0  0  0  0  0  0  0  0  0  0  0  0
   -5.5730   -1.6530   -1.8490 N   0  0  0  0  0  0  0  0  0  0  0  0
   -7.8160   -2.0580   -1.5580 O   0  0  0  0  0  0  0  0  0  0  0  0
   -5.8390    0.4670    0.0620 C   0  0  0  0  0  0  0  0  0  0  0  0
    6.1930   -0.9980    0.9980 C   0  0  0  0  0  0  0  0  0  0  0  0
    7.3990   -0.6350    0.2520 C   0  0  0  0  0  0  0  0  0  0  0  0
    8.7250   -0.5230    0.4260 C   0  0  0  0  0  0  0  0  0  0  0  0
    9.3010   -0.0810   -0.8590 C   0  0  0  0  0  0  0  0  0  0  0  0
    8.1200    0.0390   -1.7710 C   0  0  0  0  0  0  0  0  0  0  0  0
    7.0380   -0.2910   -1.0890 C   0  0  0  0  0  0  0  0  0  0  0  0
  1  2  1  0
  2  3  2  0
  2  4  1  0
  4  5  2  0
  4  9  1  0
  5  6  1  0
  6  7  2  0
  6 38  1  0
  7  8  1  0
  7 33  1  0
  8  9  2  0
  9 10  1  0
 10 11  1  0
 11 12  2  0
 11 13  1  0
 13 14  1  0
 14 15  1  0
 15 16  1  0
 16 17  1  0
 17 18  2  0
 17 19  1  0
 19 20  1  0
 19 23  2  0
 20 21  1  0
 21 22  2  0
 22 23  1  0
 23 24  1  0
 24 25  2  0
 24 32  1  0
 25 26  1  0
 26 27  2  0
 27 28  1  0
 28 29  1  0
 28 32  2  0
 29 30  1  0
 29 31  2  0
 33 34  1  0
 34 35  2  0
 34 38  1  0
 35 36  1  0
 36 37  1  0
 37 38  2  0
M  END
