
     RDKit          3D

 38 42  0  0  0  0  0  0  0  0999 V2000
    8.1550   -2.0390    2.9200 C   0  0  0  0  0  0  0  0  0  0  0  0
    6.8960   -1.9230    2.1870 C   0  0  0  0  0  0  0  0  0  0  0  0
    6.6540   -2.7480    1.1140 C   0  0  0  0  0  0  0  0  0  0  0  0
    5.4630   -2.6540    0.3980 C   0  0  0  0  0  0  0  0  0  0  0  0
    4.5210   -1.7210    0.7770 C   0  0  0  0  0  0  0  0  0  0  0  0
    3.3370   -1.6120    0.0790 C   0  0  0  0  0  0  0  0  0  0  0  0
    2.3610   -0.6990    0.4090 C   0  0  0  0  0  0  0  0  0  0  0  0
    1.1780   -0.5730   -0.2770 C   0  0  0  0  0  0  0  0  0  0  0  0
    0.2050    0.3680    0.0780 C   0  0  0  0  0  0  0  0  0  0  0  0
   -1.0400    0.4440   -0.7320 C   0  0  2  0  0  0  0  0  0  0  0  0
   -1.6790    1.7160   -0.5720 N   0  0  0  0  0  0  0  0  0  0  0  0
   -1.5510    2.6830   -1.6170 C   0  0  0  0  0  0  0  0  0  0  0  0
   -0.8760    2.3920   -2.6410 O   0  0  0  0  0  0  0  0  0  0  0  0
   -2.1390    3.9720   -1.5840 N   0  0  0  0  0  0  0  0  0  0  0  0
   -1.9620    4.9050   -2.6660 C   0  0  0  0  0  0  0  0  0  0  0  0
   -2.3900    4.5500   -4.0020 C   0  0  0  0  0  0  0  0  0  0  0  0
   -2.9140    3.4230   -4.1860 O   0  0  0  0  0  0  0  0  0  0  0  0
   -1.4060    6.0880   -2.4520 C   0  0  0  0  0  0  0  0  0  0  0  0
   -1.2210    7.0120   -3.4800 N   0  0  0  0  0  0  0  0  0  0  0  0
   -2.0040   -0.6220   -0.4740 C   0  0  0  0  0  0  0  0  0  0  0  0
   -1.6840   -1.7050    0.2960 C   0  0  0  0  0  0  0  0  0  0  0  0
   -2.6570   -2.6830    0.4910 C   0  0  0  0  0  0  0  0  0  0  0  0
   -3.9040   -2.5760   -0.0660 C   0  0  0  0  0  0  0  0  0  0  0  0
   -4.2160   -1.4760   -0.8420 C   0  0  0  0  0  0  0  0  0  0  0  0
   -3.2620   -0.5120   -1.0360 C   0  0  0  0  0  0  0  0  0  0  0  0
   -5.4970   -1.3300   -1.4320 N   0  0  0  0  0  0  0  0  0  0  0  0
   -6.4640   -2.3780   -1.3080 C   0  0  2  0  0  0  0  0  0  0  0  0
   -7.3870   -2.1070   -0.1480 C   0  0  0  0  0  0  0  0  0  0  0  0
   -5.7910   -3.6910   -1.0560 C   0  0  0  0  0  0  0  0  0  0  0  0
   -4.9290   -3.5160    0.0850 O   0  0  0  0  0  0  0  0  0  0  0  0
    0.4870    1.1680    1.1550 C   0  0  0  0  0  0  0  0  0  0  0  0
   -0.3510    2.0360    1.5270 O   0  0  0  0  0  0  0  0  0  0  0  0
    1.6610    1.0290    1.8210 N   0  0  0  0  0  0  0  0  0  0  0  0
    2.6000    0.1280    1.4850 C   0  0  0  0  0  0  0  0  0  0  0  0
    3.7880    0.0500    2.2190 C   0  0  0  0  0  0  0  0  0  0  0  0
    4.7390   -0.8870    1.8450 C   0  0  0  0  0  0  0  0  0  0  0  0
    5.9500   -1.0110    2.5410 C   0  0  0  0  0  0  0  0  0  0  0  0
    6.1260   -0.0900    3.6760 C   0  0  0  0  0  0  0  0  0  0  0  0
  1  2  1  0
  2  3  2  0
  2 37  1  0
  3  4  1  0
  4  5  2  0
  5  6  1  0
  5 36  1  0
  6  7  2  0
  7  8  1  0
  7 34  1  0
  8  9  2  0
  9 10  1  0
  9 31  1  0
 10 11  1  1
 10 20  1  0
 11 12  1  0
 12 13  2  0
 12 14  1  0
 14 15  1  0
 15 16  1  0
 15 18  2  3
 16 17  2  0
 18 19  1  0
 20 21  2  0
 20 25  1  0
 21 22  1  0
 22 23  2  0
 23 24  1  0
 23 30  1  0
 24 25  2  0
 24 26  1  0
 26 27  1  0
 27 28  1  1
 27 29  1  0
 29 30  1  0
 31 32  2  0
 31 33  1  0
 33 34  1  0
 34 35  2  0
 35 36  1  0
 36 37  2  0
 37 38  1  0
M  END
