
     RDKit          3D

 28 30  0  0  0  0  0  0  0  0999 V2000
   -3.9510    4.7010    0.8660 C   0  0  0  0  0  0  0  0  0  0  0  0
   -4.2700    4.4920   -0.6000 C   0  0  0  0  0  0  0  0  0  0  0  0
   -3.6880    3.3020   -1.0970 O   0  0  0  0  0  0  0  0  0  0  0  0
   -2.3070    3.1850   -1.0380 C   0  0  0  0  0  0  0  0  0  0  0  0
   -1.3740    4.0900   -1.2380 C   0  0  0  0  0  0  0  0  0  0  0  0
   -0.0860    3.4440   -1.0520 C   0  0  0  0  0  0  0  0  0  0  0  0
   -0.2520    2.1670   -0.7450 C   0  0  0  0  0  0  0  0  0  0  0  0
   -1.6040    1.9380   -0.7190 C   0  0  0  0  0  0  0  0  0  0  0  0
   -2.0190    0.6690   -0.4200 C   0  0  0  0  0  0  0  0  0  0  0  0
   -1.1520   -0.3850   -0.1450 C   0  0  0  0  0  0  0  0  0  0  0  0
   -1.6790   -1.6850    0.1600 C   0  0  0  0  0  0  0  0  0  0  0  0
   -0.9690   -2.6620    0.4130 O   0  0  0  0  0  0  0  0  0  0  0  0
   -3.0520   -1.8720    0.1750 O   0  0  0  0  0  0  0  0  0  0  0  0
   -3.6280   -3.1520    0.4730 C   0  0  1  0  0  0  0  0  0  0  0  0
   -4.5560   -2.9610    1.6290 C   0  0  0  0  0  0  0  0  0  0  0  0
   -4.3360   -3.5990   -0.7900 C   0  0  0  0  0  0  0  0  0  0  0  0
    0.1990   -0.1340   -0.1760 C   0  0  0  0  0  0  0  0  0  0  0  0
    1.1670   -1.0650    0.0720 O   0  0  0  0  0  0  0  0  0  0  0  0
    0.6580    1.1650   -0.4820 C   0  0  0  0  0  0  0  0  0  0  0  0
    1.9490    1.4090   -0.5120 C   0  0  0  0  0  0  0  0  0  0  0  0
    2.9380    0.3810   -0.2410 C   0  0  0  0  0  0  0  0  0  0  0  0
    3.4170    0.1370    1.0400 C   0  0  0  0  0  0  0  0  0  0  0  0
    4.3630   -0.8370    1.2820 C   0  0  0  0  0  0  0  0  0  0  0  0
    4.8810   -1.6180    0.2680 C   0  0  0  0  0  0  0  0  0  0  0  0
    5.9010   -2.6670    0.5370 C   0  0  0  0  0  0  0  0  0  0  0  0
    7.2660   -2.0540    0.4190 C   0  0  0  0  0  0  0  0  0  0  0  0
    4.4070   -1.3780   -1.0060 C   0  0  0  0  0  0  0  0  0  0  0  0
    3.4610   -0.4040   -1.2490 C   0  0  0  0  0  0  0  0  0  0  0  0
  1  2  1  0
  2  3  1  0
  3  4  1  0
  4  5  2  0
  4  8  1  0
  5  6  1  0
  6  7  2  0
  7  8  1  0
  7 19  1  0
  8  9  2  0
  9 10  1  0
 10 11  1  0
 10 17  2  0
 11 12  2  0
 11 13  1  0
 13 14  1  0
 14 15  1  1
 14 16  1  0
 17 18  1  0
 17 19  1  0
 19 20  2  3
 20 21  1  0
 21 22  2  0
 21 28  1  0
 22 23  1  0
 23 24  2  0
 24 25  1  0
 24 27  1  0
 25 26  1  0
 27 28  2  0
M  END
