
     RDKit          3D

 28 30  0  0  0  0  0  0  0  0999 V2000
    5.0220    3.5450   -0.0880 C   0  0  0  0  0  0  0  0  0  0  0  0
    4.4870    2.1880    0.1980 C   0  0  0  0  0  0  0  0  0  0  0  0
    3.4890    1.7090   -0.6230 C   0  0  0  0  0  0  0  0  0  0  0  0
    2.9630    0.4370   -0.3830 C   0  0  0  0  0  0  0  0  0  0  0  0
    3.4490   -0.3040    0.6610 C   0  0  0  0  0  0  0  0  0  0  0  0
    2.9560   -1.6680    0.9340 C   0  0  0  0  0  0  0  0  0  0  0  0
    1.9120   -2.0590    0.1130 O   0  0  0  0  0  0  0  0  0  0  0  0
    0.6510   -1.4980    0.0630 C   0  0  0  0  0  0  0  0  0  0  0  0
    0.2770   -0.4580    0.8780 C   0  0  0  0  0  0  0  0  0  0  0  0
   -0.9970    0.0650    0.7920 C   0  0  0  0  0  0  0  0  0  0  0  0
   -1.9060   -0.4280   -0.0910 C   0  0  0  0  0  0  0  0  0  0  0  0
   -3.2080    0.0790   -0.2050 O   0  0  0  0  0  0  0  0  0  0  0  0
   -3.5590    1.1510    0.6510 C   0  0  0  0  0  0  0  0  0  0  0  0
   -4.9830    1.5730    0.3970 C   0  0  0  0  0  0  0  0  0  0  0  0
   -5.7830    1.0240   -0.4910 C   0  0  0  0  0  0  0  0  0  0  0  0
   -7.0840    1.7150   -0.4330 C   0  0  0  0  0  0  0  0  0  0  0  0
   -6.9100    2.7360    0.6160 C   0  0  0  0  0  0  0  0  0  0  0  0
   -5.6990    2.6330    1.0750 C   0  0  0  0  0  0  0  0  0  0  0  0
   -1.5060   -1.4880   -0.9130 C   0  0  0  0  0  0  0  0  0  0  0  0
   -2.4300   -1.9900   -1.8110 O   0  0  0  0  0  0  0  0  0  0  0  0
   -0.2490   -2.0520   -0.8730 C   0  0  0  0  0  0  0  0  0  0  0  0
    0.1910   -3.1470   -1.7110 C   0  0  0  0  0  0  0  0  0  0  0  0
   -0.4880   -3.7840   -2.6250 C   0  0  0  0  0  0  0  0  0  0  0  0
    0.1560   -4.8730   -3.3640 C   0  0  0  0  0  0  0  0  0  0  0  0
   -0.4650   -5.5010   -4.2420 O   0  0  0  0  0  0  0  0  0  0  0  0
    4.4610    0.1750    1.4960 C   0  0  0  0  0  0  0  0  0  0  0  0
    4.9610   -0.6640    2.6170 C   0  0  0  0  0  0  0  0  0  0  0  0
    4.9580    1.4290    1.2340 C   0  0  0  0  0  0  0  0  0  0  0  0
  1  2  1  0
  2  3  2  0
  2 28  1  0
  3  4  1  0
  4  5  2  0
  5  6  1  0
  5 26  1  0
  6  7  1  0
  7  8  1  0
  8  9  2  0
  8 21  1  0
  9 10  1  0
 10 11  2  0
 11 12  1  0
 11 19  1  0
 12 13  1  0
 13 14  1  0
 14 15  2  0
 14 18  1  0
 15 16  1  0
 16 17  1  0
 17 18  2  0
 19 20  1  0
 19 21  2  0
 21 22  1  0
 22 23  2  3
 23 24  1  0
 24 25  2  0
 26 27  1  0
 26 28  2  0
M  END
