
     RDKit          3D

 28 30  0  0  0  0  0  0  0  0999 V2000
   -2.8550   -3.4900   -0.0920 C   0  0  0  0  0  0  0  0  0  0  0  0
   -3.4700   -2.4550   -0.2930 C   0  0  0  0  0  0  0  0  0  0  0  0
   -4.1400   -2.8440   -1.7540 C   0  0  0  0  0  0  0  0  0  0  0  0
   -3.7360   -1.0930   -0.1240 C   0  0  0  0  0  0  0  0  0  0  0  0
   -4.9300   -0.6580   -0.6680 C   0  0  0  0  0  0  0  0  0  0  0  0
   -5.4010    0.7160   -0.6200 C   0  0  0  0  0  0  0  0  0  0  0  0
   -4.9900    1.5250    0.5490 C   0  0  1  0  0  0  0  0  0  0  0  0
   -5.7460    1.0960    1.6650 O   0  0  0  0  0  0  0  0  0  0  0  0
   -3.5310    1.1960    0.7850 C   0  0  0  0  0  0  0  0  0  0  0  0
   -2.8000    2.2480    1.2530 C   0  0  0  0  0  0  0  0  0  0  0  0
   -1.4930    2.0600    1.5760 C   0  0  0  0  0  0  0  0  0  0  0  0
   -0.9690    0.8000    1.4100 C   0  0  0  0  0  0  0  0  0  0  0  0
   -1.6800   -0.2970    0.9320 C   0  0  0  0  0  0  0  0  0  0  0  0
   -1.0100   -1.5790    0.7350 C   0  0  0  0  0  0  0  0  0  0  0  0
    0.4060   -1.4870    1.0230 O   0  0  0  0  0  0  0  0  0  0  0  0
    1.2190   -0.7230    0.1970 C   0  0  0  0  0  0  0  0  0  0  0  0
    0.7720   -0.0590   -0.9090 C   0  0  0  0  0  0  0  0  0  0  0  0
    1.6310    0.6930   -1.7010 C   0  0  0  0  0  0  0  0  0  0  0  0
    2.9610    0.7930   -1.3970 C   0  0  0  0  0  0  0  0  0  0  0  0
    3.4440    0.1200   -0.2680 C   0  0  0  0  0  0  0  0  0  0  0  0
    4.8510    0.2540    0.0140 C   0  0  0  0  0  0  0  0  0  0  0  0
    5.3900   -0.2950    0.9870 O   0  0  0  0  0  0  0  0  0  0  0  0
    5.7150    1.0720   -0.8740 C   0  0  0  0  0  0  0  0  0  0  0  0
    7.1360    1.0780   -0.3850 C   0  0  0  0  0  0  0  0  0  0  0  0
    7.1270    1.6690    1.0170 C   0  0  0  0  0  0  0  0  0  0  0  0
    2.5740   -0.6370    0.5280 C   0  0  0  0  0  0  0  0  0  0  0  0
    2.9690   -1.3130    1.6320 O   0  0  0  0  0  0  0  0  0  0  0  0
   -3.0190   -0.0670    0.6150 C   0  0  0  0  0  0  0  0  0  0  0  0
  1  2  2  0
  2  3  1  0
  2  4  1  0
  4  5  2  0
  4 28  1  0
  5  6  1  0
  6  7  1  0
  7  8  1  1
  7  9  1  0
  9 10  2  0
  9 28  1  0
 10 11  1  0
 11 12  2  0
 12 13  1  0
 13 14  1  0
 13 28  2  0
 14 15  1  0
 15 16  1  0
 16 17  2  0
 16 26  1  0
 17 18  1  0
 18 19  2  0
 19 20  1  0
 20 21  1  0
 20 26  2  0
 21 22  2  0
 21 23  1  0
 23 24  1  0
 24 25  1  0
 26 27  1  0
M  END
