
     RDKit          3D

 24 27  0  0  0  0  0  0  0  0999 V2000
   -0.2290   -1.6180    0.3730 O   0  0  0  0  0  0  0  0  0  0  0  0
   -1.3760   -1.1160    0.2820 C   0  0  0  0  0  0  0  0  0  0  0  0
   -2.4790   -1.8820    0.3540 N   0  0  0  0  0  0  0  0  0  0  0  0
   -3.7250   -1.3470    0.2570 C   0  0  0  0  0  0  0  0  0  0  0  0
   -4.8390   -2.1400    0.3320 C   0  0  0  0  0  0  0  0  0  0  0  0
   -6.1140   -1.6140    0.2350 C   0  0  0  0  0  0  0  0  0  0  0  0
   -6.2210   -0.2510    0.0600 C   0  0  0  0  0  0  0  0  0  0  0  0
   -5.1130    0.5460   -0.0160 C   0  0  0  0  0  0  0  0  0  0  0  0
   -3.8530    0.0080    0.0820 C   0  0  0  0  0  0  0  0  0  0  0  0
   -2.7060    0.7950    0.0080 C   0  0  0  0  0  0  0  0  0  0  0  0
   -1.4460    0.2720    0.1040 C   0  0  0  0  0  0  0  0  0  0  0  0
   -0.2150    1.0580    0.0330 C   0  0  0  0  0  0  0  0  0  0  0  0
   -0.2580    2.4200   -0.1410 C   0  0  0  0  0  0  0  0  0  0  0  0
    0.9100    3.1280   -0.2040 N   0  0  0  0  0  0  0  0  0  0  0  0
    2.0840    2.4760   -0.0940 C   0  0  0  0  0  0  0  0  0  0  0  0
    2.1530    1.1130    0.0810 C   0  0  0  0  0  0  0  0  0  0  0  0
    3.4470    0.4250    0.1990 C   0  0  0  0  0  0  0  0  0  0  0  0
    3.5900   -0.9390    0.3760 C   0  0  0  0  0  0  0  0  0  0  0  0
    4.9310   -1.1870    0.4390 C   0  0  0  0  0  0  0  0  0  0  0  0
    5.5630    0.0290    0.2990 C   0  0  0  0  0  0  0  0  0  0  0  0
    7.0470    0.2460    0.3060 C   0  0  0  0  0  0  0  0  0  0  0  0
    7.7330    0.1330   -1.3210 Cl  0  0  0  0  0  0  0  0  0  0  0  0
    4.6390    0.9240    0.1630 O   0  0  0  0  0  0  0  0  0  0  0  0
    0.9920    0.4470    0.1390 N   0  0  0  0  0  0  0  0  0  0  0  0
  1  2  2  0
  2  3  1  0
  2 11  1  0
  3  4  1  0
  4  5  2  0
  4  9  1  0
  5  6  1  0
  6  7  2  0
  7  8  1  0
  8  9  2  0
  9 10  1  0
 10 11  2  0
 11 12  1  0
 12 13  2  0
 12 24  1  0
 13 14  1  0
 14 15  2  0
 15 16  1  0
 16 17  1  0
 16 24  2  0
 17 18  2  0
 17 23  1  0
 18 19  1  0
 19 20  2  0
 20 21  1  0
 20 23  1  0
 21 22  1  0
M  END
