
     RDKit          3D

 25 28  0  0  0  0  0  0  0  0999 V2000
   -8.0000   -0.5270    0.0000 C   0  0  0  0  0  0  0  0  0  0  0  0
   -6.5890   -0.6500    0.3950 C   0  0  0  0  0  0  0  0  0  0  0  0
   -6.2170   -1.3170    1.5420 C   0  0  0  0  0  0  0  0  0  0  0  0
   -4.9370   -1.4100    1.8700 N   0  0  0  0  0  0  0  0  0  0  0  0
   -3.9410   -0.8720    1.1210 C   0  0  0  0  0  0  0  0  0  0  0  0
   -2.6250   -0.9830    1.4830 C   0  0  0  0  0  0  0  0  0  0  0  0
   -1.5630   -0.4450    0.7420 C   0  0  0  0  0  0  0  0  0  0  0  0
   -0.2370   -0.5960    1.1940 N   0  0  0  0  0  0  0  0  0  0  0  0
    0.9060   -0.2960    0.4610 C   0  0  0  0  0  0  0  0  0  0  0  0
    0.8660    0.1370   -0.6980 O   0  0  0  0  0  0  0  0  0  0  0  0
    2.2350   -0.4680    0.9970 N   0  0  0  0  0  0  0  0  0  0  0  0
    3.3970   -0.1630    0.2440 C   0  0  0  0  0  0  0  0  0  0  0  0
    4.2600    0.7700    0.6350 C   0  0  0  0  0  0  0  0  0  0  0  0
    5.4650    1.1110   -0.1120 C   0  0  0  0  0  0  0  0  0  0  0  0
    6.4600    1.9680    0.0440 C   0  0  0  0  0  0  0  0  0  0  0  0
    7.4240    1.8530   -1.0730 C   0  0  0  0  0  0  0  0  0  0  0  0
    6.8400    0.7900   -1.9170 C   0  0  0  0  0  0  0  0  0  0  0  0
    5.7110    0.3740   -1.3480 C   0  0  0  0  0  0  0  0  0  0  0  0
    4.7780   -0.5870   -1.7050 O   0  0  0  0  0  0  0  0  0  0  0  0
    3.6360   -0.9290   -1.0010 C   0  0  0  0  0  0  0  0  0  0  0  0
   -1.9140    0.2210   -0.3990 C   0  0  0  0  0  0  0  0  0  0  0  0
   -3.2640    0.3400   -0.7780 C   0  0  0  0  0  0  0  0  0  0  0  0
   -4.2680   -0.1990   -0.0300 C   0  0  0  0  0  0  0  0  0  0  0  0
   -5.6120   -0.0950   -0.3840 C   0  0  0  0  0  0  0  0  0  0  0  0
   -6.0080    0.7650   -1.8510 Cl  0  0  0  0  0  0  0  0  0  0  0  0
  1  2  1  0
  2  3  2  0
  2 24  1  0
  3  4  1  0
  4  5  2  0
  5  6  1  0
  5 23  1  0
  6  7  2  0
  7  8  1  0
  7 21  1  0
  8  9  1  0
  9 10  2  0
  9 11  1  0
 11 12  1  0
 12 13  2  0
 12 20  1  0
 13 14  1  0
 14 15  2  0
 14 18  1  0
 15 16  1  0
 16 17  1  0
 17 18  2  0
 18 19  1  0
 19 20  1  0
 21 22  2  0
 22 23  1  0
 23 24  2  0
 24 25  1  0
M  END
