
     RDKit          3D

 25 28  0  0  0  0  0  0  0  0999 V2000
   -4.3710   -2.3290   -1.3230 O   0  0  0  0  0  0  0  0  0  0  0  0
   -4.7670   -1.2810   -0.7620 C   0  0  0  0  0  0  0  0  0  0  0  0
   -6.1090   -1.0570   -0.6340 N   0  0  0  0  0  0  0  0  0  0  0  0
   -6.5530    0.0610   -0.0350 C   0  0  0  0  0  0  0  0  0  0  0  0
   -7.9280    0.2550    0.0770 O   0  0  0  0  0  0  0  0  0  0  0  0
   -5.6530    0.9390    0.4270 N   0  0  0  0  0  0  0  0  0  0  0  0
   -4.3190    0.7700    0.3290 C   0  0  0  0  0  0  0  0  0  0  0  0
   -3.4500    1.7260    0.8330 C   0  0  0  0  0  0  0  0  0  0  0  0
   -2.0830    1.4970    0.7030 C   0  0  0  0  0  0  0  0  0  0  0  0
   -1.5890    0.3660    0.0970 C   0  0  0  0  0  0  0  0  0  0  0  0
   -0.1380    0.2190    0.0100 C   0  0  0  0  0  0  0  0  0  0  0  0
    0.4510   -0.8840   -0.5820 C   0  0  0  0  0  0  0  0  0  0  0  0
    1.8220   -0.9880   -0.6460 C   0  0  0  0  0  0  0  0  0  0  0  0
    2.6180   -0.0070   -0.1270 C   0  0  0  0  0  0  0  0  0  0  0  0
    4.0840   -0.0830   -0.1760 C   0  0  0  0  0  0  0  0  0  0  0  0
    4.8590    0.4950    0.8320 C   0  0  0  0  0  0  0  0  0  0  0  0
    6.2340    0.4250    0.7890 C   0  0  0  0  0  0  0  0  0  0  0  0
    6.8980   -0.2130   -0.2430 C   0  0  0  0  0  0  0  0  0  0  0  0
    8.6520   -0.3020   -0.2980 Cl  0  0  0  0  0  0  0  0  0  0  0  0
    6.1300   -0.7840   -1.2390 C   0  0  0  0  0  0  0  0  0  0  0  0
    4.7530   -0.7180   -1.2030 C   0  0  0  0  0  0  0  0  0  0  0  0
    1.9940    1.0790    0.4560 C   0  0  0  0  0  0  0  0  0  0  0  0
    0.6780    1.1640    0.5090 N   0  0  0  0  0  0  0  0  0  0  0  0
   -2.4850   -0.5550   -0.3890 C   0  0  0  0  0  0  0  0  0  0  0  0
   -3.8560   -0.3740   -0.2840 C   0  0  0  0  0  0  0  0  0  0  0  0
  1  2  2  0
  2  3  1  0
  2 25  1  0
  3  4  1  0
  4  5  1  0
  4  6  2  0
  6  7  1  0
  7  8  2  0
  7 25  1  0
  8  9  1  0
  9 10  2  0
 10 11  1  0
 10 24  1  0
 11 12  2  0
 11 23  1  0
 12 13  1  0
 13 14  2  0
 14 15  1  0
 14 22  1  0
 15 16  2  0
 15 21  1  0
 16 17  1  0
 17 18  2  0
 18 19  1  0
 18 20  1  0
 20 21  2  0
 22 23  2  0
 24 25  2  0
M  END
