
     RDKit          3D

 25 28  0  0  0  0  0  0  0  0999 V2000
   -4.3030   -1.1400   -1.6560 C   0  0  0  0  0  0  0  0  0  0  0  0
   -3.8760    0.1540   -1.0070 C   0  0  2  0  0  0  0  0  0  0  0  0
   -2.3970    0.2480   -0.8730 C   0  0  0  0  0  0  0  0  0  0  0  0
   -1.8130    1.1960   -1.4400 O   0  0  0  0  0  0  0  0  0  0  0  0
   -1.6420   -0.6880   -0.1350 N   0  0  0  0  0  0  0  0  0  0  0  0
   -0.2390   -0.6890    0.0530 C   0  0  0  0  0  0  0  0  0  0  0  0
    0.2700   -1.7260    0.8550 C   0  0  0  0  0  0  0  0  0  0  0  0
    1.6280   -1.7840    1.0750 C   0  0  0  0  0  0  0  0  0  0  0  0
    2.5270   -0.8930    0.5630 C   0  0  0  0  0  0  0  0  0  0  0  0
    2.0300    0.1230   -0.2220 C   0  0  0  0  0  0  0  0  0  0  0  0
    0.6490    0.2040   -0.4620 C   0  0  0  0  0  0  0  0  0  0  0  0
    2.9080    1.0370   -0.7530 O   0  0  0  0  0  0  0  0  0  0  0  0
    4.2880    0.9700   -0.5240 C   0  0  0  0  0  0  0  0  0  0  0  0
    5.1420    1.9220   -1.0850 C   0  0  0  0  0  0  0  0  0  0  0  0
    6.5030    1.8860   -0.8800 C   0  0  0  0  0  0  0  0  0  0  0  0
    7.5880    3.0730   -1.5770 Cl  0  0  0  0  0  0  0  0  0  0  0  0
    6.9810    0.8590   -0.0890 C   0  0  0  0  0  0  0  0  0  0  0  0
    6.1580   -0.0760    0.4640 C   0  0  0  0  0  0  0  0  0  0  0  0
    4.7950   -0.0440    0.2620 C   0  0  0  0  0  0  0  0  0  0  0  0
    3.9180   -1.0150    0.8340 N   0  0  0  0  0  0  0  0  0  0  0  0
   -4.5460    0.3360    0.2660 N   0  0  0  0  0  0  0  0  0  0  0  0
   -5.7390   -0.1850    0.6100 C   0  0  0  0  0  0  0  0  0  0  0  0
   -6.0720    0.1910    1.8910 C   0  0  0  0  0  0  0  0  0  0  0  0
   -5.0350    0.9730    2.3400 C   0  0  0  0  0  0  0  0  0  0  0  0
   -4.1200    1.0390    1.3190 C   0  0  0  0  0  0  0  0  0  0  0  0
  2  1  1  1
  2  3  1  0
  2 21  1  0
  3  4  2  0
  3  5  1  0
  5  6  1  0
  6  7  2  0
  6 11  1  0
  7  8  1  0
  8  9  2  0
  9 10  1  0
  9 20  1  0
 10 11  2  0
 10 12  1  0
 12 13  1  0
 13 14  2  0
 13 19  1  0
 14 15  1  0
 15 16  1  0
 15 17  2  0
 17 18  1  0
 18 19  2  0
 19 20  1  0
 21 22  1  0
 21 25  1  0
 22 23  2  0
 23 24  1  0
 24 25  2  0
M  END
