
     RDKit          3D

 25 28  0  0  0  0  0  0  0  0999 V2000
   -0.1940    1.7300    0.2450 O   0  0  0  0  0  0  0  0  0  0  0  0
    0.1810    0.4990   -0.0200 C   0  0  0  0  0  0  0  0  0  0  0  0
   -0.9310   -0.2970   -0.2510 N   0  0  0  0  0  0  0  0  0  0  0  0
   -2.3100    0.1440   -0.2380 C   0  0  0  0  0  0  0  0  0  0  0  0
   -2.7520    1.4130   -0.4230 C   0  0  0  0  0  0  0  0  0  0  0  0
   -4.1090    1.7710   -0.3680 C   0  0  0  0  0  0  0  0  0  0  0  0
   -5.0150    0.7810   -0.1150 C   0  0  0  0  0  0  0  0  0  0  0  0
   -4.5910   -0.5180    0.0760 C   0  0  0  0  0  0  0  0  0  0  0  0
   -3.2730   -0.8440    0.0190 C   0  0  0  0  0  0  0  0  0  0  0  0
   -5.8090   -1.3200    0.3230 C   0  0  0  0  0  0  0  0  0  0  0  0
   -6.8870   -0.5250    0.0520 O   0  0  0  0  0  0  0  0  0  0  0  0
   -6.4840    0.7830    0.0130 C   0  0  0  0  0  0  0  0  0  0  0  0
    1.5990    0.3250    0.0050 C   0  0  0  0  0  0  0  0  0  0  0  0
    2.3450    1.4150    0.3430 C   0  0  0  0  0  0  0  0  0  0  0  0
    3.7830    1.3470    0.3990 C   0  0  0  0  0  0  0  0  0  0  0  0
    4.4780    2.4240    0.7330 C   0  0  0  0  0  0  0  0  0  0  0  0
    5.9490    2.3150    0.7790 C   0  0  0  0  0  0  0  0  0  0  0  0
    6.5060    2.6970    2.4440 Cl  0  0  0  0  0  0  0  0  0  0  0  0
    4.4150    0.1180    0.0920 N   0  0  0  0  0  0  0  0  0  0  0  0
    3.7630   -0.9200   -0.2290 C   0  0  0  0  0  0  0  0  0  0  0  0
    4.4160   -2.1770   -0.5460 C   0  0  0  0  0  0  0  0  0  0  0  0
    3.7080   -3.2420   -0.8810 C   0  0  0  0  0  0  0  0  0  0  0  0
    2.2600   -3.1940   -0.9450 C   0  0  0  0  0  0  0  0  0  0  0  0
    1.6380   -2.0510   -0.6580 C   0  0  0  0  0  0  0  0  0  0  0  0
    2.3190   -0.8610   -0.2870 N   0  0  0  0  0  0  0  0  0  0  0  0
  1  2  2  0
  2  3  1  0
  2 13  1  0
  3  4  1  0
  4  5  2  0
  4  9  1  0
  5  6  1  0
  6  7  2  0
  7  8  1  0
  7 12  1  0
  8  9  2  0
  8 10  1  0
 10 11  1  0
 11 12  1  0
 13 14  2  0
 13 25  1  0
 14 15  1  0
 15 16  2  3
 15 19  1  0
 16 17  1  0
 17 18  1  0
 19 20  2  0
 20 21  1  0
 20 25  1  0
 21 22  2  0
 22 23  1  0
 23 24  2  0
 24 25  1  0
M  END
