
     RDKit          3D

 25 28  0  0  0  0  0  0  0  0999 V2000
    5.1430   -2.8680    1.2960 C   0  0  0  0  0  0  0  0  0  0  0  0
    3.9840   -2.2460    0.6880 N   0  0  0  0  0  0  0  0  0  0  0  0
    4.1450   -1.0600    0.1790 C   0  0  0  0  0  0  0  0  0  0  0  0
    5.2960   -0.4340    0.2030 O   0  0  0  0  0  0  0  0  0  0  0  0
    5.4860    0.7530   -0.2990 C   0  0  0  0  0  0  0  0  0  0  0  0
    4.4290    1.4070   -0.8940 C   0  0  0  0  0  0  0  0  0  0  0  0
    4.6570    2.7500   -1.4580 C   0  0  0  0  0  0  0  0  0  0  0  0
    3.1900    0.8180   -0.9580 C   0  0  0  0  0  0  0  0  0  0  0  0
    3.0550   -0.4290   -0.4140 C   0  0  0  0  0  0  0  0  0  0  0  0
    1.7700   -1.1320   -0.4380 C   0  0  0  0  0  0  0  0  0  0  0  0
    1.8120   -2.3720   -0.6100 O   0  0  0  0  0  0  0  0  0  0  0  0
    0.5300   -0.5050   -0.2810 N   0  0  0  0  0  0  0  0  0  0  0  0
   -0.7440   -1.1440   -0.2970 C   0  0  0  0  0  0  0  0  0  0  0  0
   -1.0020   -2.4840   -0.4660 C   0  0  0  0  0  0  0  0  0  0  0  0
   -2.3540   -2.6550   -0.4130 N   0  0  0  0  0  0  0  0  0  0  0  0
   -2.9540   -1.4800   -0.2180 C   0  0  0  0  0  0  0  0  0  0  0  0
   -4.3100   -1.1590   -0.0970 C   0  0  0  0  0  0  0  0  0  0  0  0
   -5.5160   -2.4150   -0.2010 Cl  0  0  0  0  0  0  0  0  0  0  0  0
   -4.6220    0.1730    0.1030 C   0  0  0  0  0  0  0  0  0  0  0  0
   -3.6570    1.1430    0.1810 C   0  0  0  0  0  0  0  0  0  0  0  0
   -2.3090    0.8010    0.0580 C   0  0  0  0  0  0  0  0  0  0  0  0
   -1.9800   -0.5180   -0.1410 C   0  0  0  0  0  0  0  0  0  0  0  0
   -4.3100    2.4660    0.4000 C   0  0  0  0  0  0  0  0  0  0  0  0
   -5.6910    2.0830    0.9020 C   0  0  0  0  0  0  0  0  0  0  0  0
   -5.9790    0.7650    0.2600 C   0  0  0  0  0  0  0  0  0  0  0  0
  1  2  1  0
  2  3  2  3
  3  4  1  0
  3  9  1  0
  4  5  1  0
  5  6  2  0
  6  7  1  0
  6  8  1  0
  8  9  2  0
  9 10  1  0
 10 11  2  0
 10 12  1  0
 12 13  1  0
 13 14  2  0
 13 22  1  0
 14 15  1  0
 15 16  1  0
 16 17  2  0
 16 22  1  0
 17 18  1  0
 17 19  1  0
 19 20  2  0
 19 25  1  0
 20 21  1  0
 20 23  1  0
 21 22  2  0
 23 24  1  0
 24 25  1  0
M  END
