
     RDKit          3D

 25 28  0  0  0  0  0  0  0  0999 V2000
   -5.5940   -0.6520    3.1310 O   0  0  0  0  0  0  0  0  0  0  0  0
   -5.1810   -0.1320    2.0800 C   0  0  0  0  0  0  0  0  0  0  0  0
   -6.0780    0.7380    1.2890 C   0  0  0  0  0  0  0  0  0  0  0  0
   -5.8400    0.5110   -0.1080 O   0  0  0  0  0  0  0  0  0  0  0  0
   -4.5590    0.2990   -0.5860 C   0  0  0  0  0  0  0  0  0  0  0  0
   -4.3280    0.5350   -1.9250 C   0  0  0  0  0  0  0  0  0  0  0  0
   -3.0540    0.3220   -2.3870 C   0  0  0  0  0  0  0  0  0  0  0  0
   -2.0080   -0.1160   -1.5650 C   0  0  0  0  0  0  0  0  0  0  0  0
   -0.7440   -0.3330   -2.1510 N   0  0  0  0  0  0  0  0  0  0  0  0
    0.4790   -0.2590   -1.4490 C   0  0  0  0  0  0  0  0  0  0  0  0
    1.6020   -0.9610   -1.9150 C   0  0  0  0  0  0  0  0  0  0  0  0
    2.8280   -0.9100   -1.3000 C   0  0  0  0  0  0  0  0  0  0  0  0
    3.0210   -0.1440   -0.1590 C   0  0  0  0  0  0  0  0  0  0  0  0
    4.3170   -0.0890    0.5080 C   0  0  0  0  0  0  0  0  0  0  0  0
    5.4900    0.1270   -0.1870 C   0  0  0  0  0  0  0  0  0  0  0  0
    6.7180    0.1720    0.4530 C   0  0  0  0  0  0  0  0  0  0  0  0
    6.7970    0.0040    1.7830 N   0  0  0  0  0  0  0  0  0  0  0  0
    5.6750   -0.2050    2.4710 C   0  0  0  0  0  0  0  0  0  0  0  0
    4.4090   -0.2590    1.8700 C   0  0  0  0  0  0  0  0  0  0  0  0
    1.9300    0.5510    0.3120 C   0  0  0  0  0  0  0  0  0  0  0  0
    2.1350    1.5420    1.7530 Cl  0  0  0  0  0  0  0  0  0  0  0  0
    0.6800    0.4980   -0.3190 C   0  0  0  0  0  0  0  0  0  0  0  0
   -2.2700   -0.3420   -0.2450 C   0  0  0  0  0  0  0  0  0  0  0  0
   -3.5500   -0.1350    0.2550 C   0  0  0  0  0  0  0  0  0  0  0  0
   -3.8550   -0.3590    1.6240 N   0  0  0  0  0  0  0  0  0  0  0  0
  1  2  2  0
  2  3  1  0
  2 25  1  0
  3  4  1  0
  4  5  1  0
  5  6  2  0
  5 24  1  0
  6  7  1  0
  7  8  2  0
  8  9  1  0
  8 23  1  0
  9 10  1  0
 10 11  2  0
 10 22  1  0
 11 12  1  0
 12 13  2  0
 13 14  1  0
 13 20  1  0
 14 15  2  0
 14 19  1  0
 15 16  1  0
 16 17  2  0
 17 18  1  0
 18 19  2  0
 20 21  1  0
 20 22  2  0
 23 24  2  0
 24 25  1  0
M  END
