
     RDKit          3D

 12 12  0  0  0  0  0  0  0  0999 V2000
    3.2660   -0.6310   -0.3930 C   0  0  0  0  0  0  0  0  0  0  0  0
    2.2440   -0.8630    0.5360 O   0  0  0  0  0  0  0  0  0  0  0  0
    1.0390   -0.3160    0.1180 C   0  0  1  0  0  0  0  0  0  0  0  0
    0.0580   -1.3010   -0.0770 O   0  0  0  0  0  0  0  0  0  0  0  0
   -1.0130   -0.6740   -0.7000 C   0  0  1  0  0  0  0  0  0  0  0  0
   -2.0020   -1.6020   -1.3010 C   0  0  0  0  0  0  0  0  0  0  0  0
   -1.6680    0.2120    0.3570 C   0  0  1  0  0  0  0  0  0  0  0  0
   -1.7090   -0.4560    1.5920 O   0  0  0  0  0  0  0  0  0  0  0  0
   -0.6990    1.3650    0.5350 C   0  0  1  0  0  0  0  0  0  0  0  0
   -1.2060    2.3520    1.3570 O   0  0  0  0  0  0  0  0  0  0  0  0
    0.5740    0.7520    1.0810 C   0  0  2  0  0  0  0  0  0  0  0  0
    1.5940    1.6860    1.1880 O   0  0  0  0  0  0  0  0  0  0  0  0
  1  2  1  0
  3  2  1  1
  3  4  1  0
  3 11  1  0
  4  5  1  0
  5  6  1  1
  5  7  1  0
  7  8  1  1
  7  9  1  0
  9 10  1  1
  9 11  1  0
 11 12  1  6
M  END
