
     RDKit          3D

 37 39  0  0  0  0  0  0  0  0999 V2000
   -3.9160   -5.9220    2.0970 C   0  0  0  0  0  0  0  0  0  0  0  0
   -3.7860   -4.4350    1.8330 C   0  0  0  0  0  0  0  0  0  0  0  0
   -3.2160   -4.2820    0.4300 C   0  0  0  0  0  0  0  0  0  0  0  0
   -3.0510   -2.8490    0.0730 C   0  0  0  0  0  0  0  0  0  0  0  0
   -1.8110   -2.2100    0.0630 C   0  0  0  0  0  0  0  0  0  0  0  0
   -1.6000   -0.8960   -0.2610 C   0  0  0  0  0  0  0  0  0  0  0  0
   -2.7820   -0.1530   -0.6050 C   0  0  0  0  0  0  0  0  0  0  0  0
   -3.9890   -0.8200   -0.5870 C   0  0  0  0  0  0  0  0  0  0  0  0
   -4.1650   -2.1380   -0.2610 C   0  0  0  0  0  0  0  0  0  0  0  0
   -5.4290   -2.7340   -0.2700 O   0  0  0  0  0  0  0  0  0  0  0  0
   -2.6730    1.1760   -0.9310 O   0  0  0  0  0  0  0  0  0  0  0  0
   -2.1290    2.2890   -0.4130 C   0  0  0  0  0  0  0  0  0  0  0  0
   -2.2730    2.8660    0.7160 O   0  0  0  0  0  0  0  0  0  0  0  0
   -1.1490    3.0560   -1.2800 C   0  0  1  0  0  0  0  0  0  0  0  0
   -1.7320    3.2000   -2.6730 C   0  0  0  0  0  0  0  0  0  0  0  0
   -0.8120    4.3000   -0.7870 O   0  0  0  0  0  0  0  0  0  0  0  0
   -0.3020    4.6780    0.4160 C   0  0  0  0  0  0  0  0  0  0  0  0
   -1.0090    5.4860    1.1270 O   0  0  0  0  0  0  0  0  0  0  0  0
    0.9790    4.2770    1.0170 C   0  0  0  0  0  0  0  0  0  0  0  0
    1.1880    2.8340    1.2570 C   0  0  0  0  0  0  0  0  0  0  0  0
    1.4540    2.4720    2.6010 O   0  0  0  0  0  0  0  0  0  0  0  0
    1.4530    1.1610    3.0470 C   0  0  0  0  0  0  0  0  0  0  0  0
    2.1530    0.8190    4.0320 O   0  0  0  0  0  0  0  0  0  0  0  0
    0.6330    0.0720    2.4040 C   0  0  0  0  0  0  0  0  0  0  0  0
    1.5250   -0.6960    1.6000 O   0  0  0  0  0  0  0  0  0  0  0  0
    1.8860   -0.3700    0.2820 C   0  0  0  0  0  0  0  0  0  0  0  0
    3.1990   -0.2610   -0.0860 C   0  0  0  0  0  0  0  0  0  0  0  0
    3.5980    0.0630   -1.3610 C   0  0  0  0  0  0  0  0  0  0  0  0
    5.0310    0.1730   -1.7430 C   0  0  1  0  0  0  0  0  0  0  0  0
    5.2950    1.3910   -2.3750 O   0  0  0  0  0  0  0  0  0  0  0  0
    5.9680   -0.1170   -0.6260 C   0  0  0  0  0  0  0  0  0  0  0  0
    5.9570    0.8270    0.3940 O   0  0  0  0  0  0  0  0  0  0  0  0
    2.6170    0.2840   -2.2970 C   0  0  0  0  0  0  0  0  0  0  0  0
    3.0400    0.6110   -3.5760 O   0  0  0  0  0  0  0  0  0  0  0  0
    1.2900    0.1740   -1.9300 C   0  0  0  0  0  0  0  0  0  0  0  0
    0.8390   -0.1500   -0.6680 C   0  0  0  0  0  0  0  0  0  0  0  0
   -0.4220   -0.2720   -0.2880 O   0  0  0  0  0  0  0  0  0  0  0  0
  1  2  1  0
  2  3  1  0
  3  4  1  0
  4  5  2  0
  4  9  1  0
  5  6  1  0
  6  7  2  0
  6 37  1  0
  7  8  1  0
  7 11  1  0
  8  9  2  0
  9 10  1  0
 11 12  1  0
 12 13  2  0
 12 14  1  0
 14 15  1  6
 14 16  1  0
 16 17  1  0
 17 18  2  0
 17 19  1  0
 19 20  1  0
 20 21  1  0
 21 22  1  0
 22 23  2  0
 22 24  1  0
 24 25  1  0
 25 26  1  0
 26 27  2  0
 26 36  1  0
 27 28  1  0
 28 29  1  0
 28 33  2  0
 29 30  1  1
 29 31  1  0
 31 32  1  0
 33 34  1  0
 33 35  1  0
 35 36  2  0
 36 37  1  0
M  END
