
     RDKit          3D

 36 38  0  0  0  0  0  0  0  0999 V2000
   -3.8950   -1.9920   -2.9470 C   0  0  0  0  0  0  0  0  0  0  0  0
   -3.0840   -2.4040   -1.6980 C   0  0  0  0  0  0  0  0  0  0  0  0
   -3.4060   -1.3990   -0.6700 C   0  0  0  0  0  0  0  0  0  0  0  0
   -2.7870   -1.5230    0.6360 N   0  0  0  0  0  0  0  0  0  0  0  0
   -1.5940   -0.8100    0.8640 C   0  0  0  0  0  0  0  0  0  0  0  0
   -1.2610   -0.7560    2.1360 O   0  0  0  0  0  0  0  0  0  0  0  0
   -0.7010   -0.1680   -0.0310 C   0  0  2  0  0  0  0  0  0  0  0  0
    0.7970   -0.5560    0.3940 C   0  0  0  0  0  0  0  0  0  0  0  0
    1.5470   -0.6250   -0.7700 O   0  0  0  0  0  0  0  0  0  0  0  0
    2.8930   -0.9430   -0.7070 C   0  0  0  0  0  0  0  0  0  0  0  0
    3.6010   -0.9810   -1.8780 C   0  0  0  0  0  0  0  0  0  0  0  0
    4.9270   -1.2770   -1.8330 C   0  0  0  0  0  0  0  0  0  0  0  0
    5.7300   -1.4150   -3.0610 C   0  0  0  0  0  0  0  0  0  0  0  0
    5.5220   -1.5290   -0.6280 C   0  0  0  0  0  0  0  0  0  0  0  0
    6.9280   -1.7800   -0.5760 N   0  0  0  0  0  0  0  0  0  0  0  0
    4.8190   -1.5010    0.5330 C   0  0  0  0  0  0  0  0  0  0  0  0
    5.5670   -1.6350    1.7990 C   0  0  0  0  0  0  0  0  0  0  0  0
    5.3580   -2.8310    2.4890 O   0  0  0  0  0  0  0  0  0  0  0  0
    3.4700   -1.2050    0.5280 C   0  0  0  0  0  0  0  0  0  0  0  0
   -0.6710    1.0900   -0.5190 O   0  0  0  0  0  0  0  0  0  0  0  0
   -0.7560    2.3450   -0.0650 C   0  0  0  0  0  0  0  0  0  0  0  0
   -1.1170    2.5520    1.2600 C   0  0  0  0  0  0  0  0  0  0  0  0
   -1.1660    3.8380    1.7360 C   0  0  0  0  0  0  0  0  0  0  0  0
   -0.8670    4.9120    0.9290 C   0  0  0  0  0  0  0  0  0  0  0  0
   -0.8870    6.2850    1.4940 C   0  0  0  0  0  0  0  0  0  0  0  0
   -0.5030    4.7060   -0.4130 C   0  0  0  0  0  0  0  0  0  0  0  0
   -0.4570    3.4130   -0.8950 C   0  0  0  0  0  0  0  0  0  0  0  0
   -0.1060    3.1730   -2.1830 C   0  0  0  0  0  0  0  0  0  0  0  0
    0.2210    4.2500   -3.1090 C   0  0  0  0  0  0  0  0  0  0  0  0
    0.1880    5.5070   -2.5010 O   0  0  0  0  0  0  0  0  0  0  0  0
   -0.1690    5.6920   -1.1950 C   0  0  0  0  0  0  0  0  0  0  0  0
   -3.3280   -2.4300    1.5870 C   0  0  2  0  0  0  0  0  0  0  0  0
   -4.2650   -1.7400    2.6220 C   0  0  0  0  0  0  0  0  0  0  0  0
   -5.5200   -1.2430    1.9120 C   0  0  0  0  0  0  0  0  0  0  0  0
   -2.3960   -3.3230    2.2680 C   0  0  0  0  0  0  0  0  0  0  0  0
   -3.0920   -4.2120    3.1030 O   0  0  0  0  0  0  0  0  0  0  0  0
  1  2  1  0
  2  3  1  0
  3  4  1  0
  4  5  1  0
  4 32  1  0
  5  6  2  0
  5  7  1  0
  7  8  1  1
  7 20  1  0
  8  9  1  0
  9 10  1  0
 10 11  2  0
 10 19  1  0
 11 12  1  0
 12 13  1  0
 12 14  2  0
 14 15  1  0
 14 16  1  0
 16 17  1  0
 16 19  2  0
 17 18  1  0
 20 21  1  0
 21 22  2  0
 21 27  1  0
 22 23  1  0
 23 24  2  0
 24 25  1  0
 24 26  1  0
 26 27  1  0
 26 31  2  0
 27 28  2  0
 28 29  1  0
 29 30  1  0
 30 31  1  0
 32 33  1  1
 32 35  1  0
 33 34  1  0
 35 36  1  0
M  END
