
     RDKit          3D

 37 39  0  0  0  0  0  0  0  0999 V2000
   -2.3520   -0.0280    4.7760 C   0  0  0  0  0  0  0  0  0  0  0  0
   -2.8720   -0.2900    3.4980 O   0  0  0  0  0  0  0  0  0  0  0  0
   -1.9610   -0.5380    2.4540 C   0  0  0  0  0  0  0  0  0  0  0  0
   -0.6140   -0.5270    2.6760 C   0  0  0  0  0  0  0  0  0  0  0  0
    0.2680   -0.7760    1.6270 C   0  0  0  0  0  0  0  0  0  0  0  0
   -0.1520   -1.0410    0.3410 C   0  0  0  0  0  0  0  0  0  0  0  0
    0.7520   -1.2970   -0.7970 C   0  0  2  0  0  0  0  0  0  0  0  0
    2.1630   -1.6450   -0.3970 C   0  0  0  0  0  0  0  0  0  0  0  0
    2.3250   -2.5560    0.7180 C   0  0  0  0  0  0  0  0  0  0  0  0
    1.5690   -3.4810    1.0810 O   0  0  0  0  0  0  0  0  0  0  0  0
    3.4910   -2.3790    1.5020 O   0  0  0  0  0  0  0  0  0  0  0  0
    4.7210   -1.9870    0.9210 C   0  0  0  0  0  0  0  0  0  0  0  0
    5.3610   -0.9530    1.8080 C   0  0  1  0  0  0  0  0  0  0  0  0
    6.7140   -0.7660    1.4880 O   0  0  0  0  0  0  0  0  0  0  0  0
    4.5910    0.3290    1.7260 C   0  0  0  0  0  0  0  0  0  0  0  0
    4.8110    1.0860    0.4280 C   0  0  0  0  0  0  0  0  0  0  0  0
    3.6730    1.8220    0.1370 O   0  0  0  0  0  0  0  0  0  0  0  0
    2.9830    1.9610   -1.0170 C   0  0  0  0  0  0  0  0  0  0  0  0
    2.2690    3.0180   -1.1430 O   0  0  0  0  0  0  0  0  0  0  0  0
    3.0300    0.9650   -2.0900 C   0  0  2  0  0  0  0  0  0  0  0  0
    3.3040    1.7910   -3.3760 C   0  0  0  0  0  0  0  0  0  0  0  0
    1.8980    0.2390   -2.3500 O   0  0  0  0  0  0  0  0  0  0  0  0
    0.7740   -0.1320   -1.7570 C   0  0  0  0  0  0  0  0  0  0  0  0
   -0.3240    0.4270   -1.9320 O   0  0  0  0  0  0  0  0  0  0  0  0
   -1.5430   -1.0450    0.1500 C   0  0  0  0  0  0  0  0  0  0  0  0
   -2.0310   -1.3030   -1.0910 O   0  0  0  0  0  0  0  0  0  0  0  0
   -3.3100   -1.3590   -1.5690 C   0  0  0  0  0  0  0  0  0  0  0  0
   -4.1110   -0.1140   -1.5510 C   0  0  0  0  0  0  0  0  0  0  0  0
   -3.6700    1.0470   -1.1170 C   0  0  0  0  0  0  0  0  0  0  0  0
   -4.4710    2.1810   -1.1230 O   0  0  0  0  0  0  0  0  0  0  0  0
   -5.7780    2.1820   -1.5790 C   0  0  0  0  0  0  0  0  0  0  0  0
   -6.4840    3.2930   -1.5570 C   0  0  0  0  0  0  0  0  0  0  0  0
   -7.8010    3.3510   -2.0030 O   0  0  0  0  0  0  0  0  0  0  0  0
   -6.2830    0.9070   -2.0630 C   0  0  0  0  0  0  0  0  0  0  0  0
   -5.5100   -0.1600   -2.0510 C   0  0  0  0  0  0  0  0  0  0  0  0
   -5.9820   -1.3830   -2.5110 O   0  0  0  0  0  0  0  0  0  0  0  0
   -2.4130   -0.7960    1.1990 C   0  0  0  0  0  0  0  0  0  0  0  0
  1  2  1  0
  2  3  1  0
  3  4  2  0
  3 37  1  0
  4  5  1  0
  5  6  2  0
  7  6  1  1
  6 25  1  0
  7  8  1  0
  7 23  1  0
  8  9  1  0
  9 10  2  0
  9 11  1  0
 11 12  1  0
 12 13  1  0
 13 14  1  6
 13 15  1  0
 15 16  1  0
 16 17  1  0
 17 18  1  0
 18 19  2  0
 18 20  1  0
 20 21  1  6
 20 22  1  0
 22 23  1  0
 23 24  2  0
 25 26  1  0
 25 37  2  0
 26 27  1  0
 27 28  1  0
 28 29  2  0
 28 35  1  0
 29 30  1  0
 30 31  1  0
 31 32  2  3
 31 34  1  0
 32 33  1  0
 34 35  2  0
 35 36  1  0
M  END
