
     RDKit          3D

 37 39  0  0  0  0  0  0  0  0999 V2000
   -1.6700    4.6380    1.4530 C   0  0  0  0  0  0  0  0  0  0  0  0
   -1.9850    3.2640    1.2790 O   0  0  0  0  0  0  0  0  0  0  0  0
   -2.9200    2.6630    2.0990 C   0  0  0  0  0  0  0  0  0  0  0  0
   -3.4650    3.3640    2.9880 O   0  0  0  0  0  0  0  0  0  0  0  0
   -3.2310    1.2570    1.8960 C   0  0  0  0  0  0  0  0  0  0  0  0
   -4.2040    0.6230    2.6710 C   0  0  0  0  0  0  0  0  0  0  0  0
   -4.4710   -0.6970    2.4060 C   0  0  0  0  0  0  0  0  0  0  0  0
   -3.8280   -1.4250    1.4180 C   0  0  0  0  0  0  0  0  0  0  0  0
   -2.8700   -0.7880    0.6610 C   0  0  0  0  0  0  0  0  0  0  0  0
   -2.5940    0.5380    0.9190 C   0  0  0  0  0  0  0  0  0  0  0  0
   -1.5330    1.1570    0.0990 C   0  0  0  0  0  0  0  0  0  0  0  0
   -1.7470    1.7700   -0.9540 O   0  0  0  0  0  0  0  0  0  0  0  0
   -0.2220    1.0260    0.5560 O   0  0  0  0  0  0  0  0  0  0  0  0
    0.9090    1.5600   -0.1300 C   0  0  1  0  0  0  0  0  0  0  0  0
    1.5950    2.5920    0.6810 C   0  0  0  0  0  0  0  0  0  0  0  0
    2.3560    1.9370    1.7730 C   0  0  0  0  0  0  0  0  0  0  0  0
    3.3610    0.9530    1.3250 C   0  0  1  0  0  0  0  0  0  0  0  0
    3.7190    0.2150    2.4920 O   0  0  0  0  0  0  0  0  0  0  0  0
    2.8940    0.0150    0.2580 C   0  0  2  0  0  0  0  0  0  0  0  0
    4.0070   -0.6420   -0.4230 C   0  0  0  0  0  0  0  0  0  0  0  0
    4.3190   -1.9370   -0.2120 C   0  0  0  0  0  0  0  0  0  0  0  0
    3.6180   -2.8210    0.6900 C   0  0  0  0  0  0  0  0  0  0  0  0
    3.0660   -3.9430   -0.0070 O   0  0  0  0  0  0  0  0  0  0  0  0
    4.9080   -0.0020   -1.3750 C   0  0  0  0  0  0  0  0  0  0  0  0
    5.9480   -0.8360   -1.9460 O   0  0  0  0  0  0  0  0  0  0  0  0
    4.9350    1.2020   -1.8000 C   0  0  0  0  0  0  0  0  0  0  0  0
    5.9560    1.5400   -2.7520 O   0  0  0  0  0  0  0  0  0  0  0  0
    4.0980    2.2270   -1.4510 O   0  0  0  0  0  0  0  0  0  0  0  0
    1.8140    0.4940   -0.6180 C   0  0  0  0  0  0  0  0  0  0  0  0
   -2.3320   -1.7590   -0.3180 C   0  0  0  0  0  0  0  0  0  0  0  0
   -3.5030   -2.7490   -0.3890 C   0  0  2  0  0  0  0  0  0  0  0  0
   -3.0460   -4.0960   -0.8590 C   0  0  0  0  0  0  0  0  0  0  0  0
   -4.6070   -2.1930   -1.2120 C   0  0  0  0  0  0  0  0  0  0  0  0
   -5.6880   -1.8180   -0.6900 O   0  0  0  0  0  0  0  0  0  0  0  0
   -4.5030   -2.0590   -2.5910 O   0  0  0  0  0  0  0  0  0  0  0  0
   -5.5700   -1.5240   -3.3690 C   0  0  0  0  0  0  0  0  0  0  0  0
   -3.9210   -2.7530    0.9640 O   0  0  0  0  0  0  0  0  0  0  0  0
  1  2  1  0
  2  3  1  0
  3  4  2  0
  3  5  1  0
  5  6  2  0
  5 10  1  0
  6  7  1  0
  7  8  2  0
  8  9  1  0
  8 37  1  0
  9 10  2  0
  9 30  1  0
 10 11  1  0
 11 12  2  0
 11 13  1  0
 14 13  1  1
 14 15  1  0
 14 29  1  0
 15 16  1  0
 16 17  1  0
 17 18  1  1
 17 19  1  0
 19 20  1  6
 19 29  1  0
 20 21  2  3
 20 24  1  0
 21 22  1  0
 22 23  1  0
 24 25  1  0
 24 26  2  3
 26 27  1  0
 26 28  1  0
 30 31  1  0
 31 32  1  6
 31 33  1  0
 31 37  1  0
 33 34  2  0
 33 35  1  0
 35 36  1  0
M  END
