
     RDKit          3D

 36 38  0  0  0  0  0  0  0  0999 V2000
    6.7480    3.8540   -1.1690 C   0  0  0  0  0  0  0  0  0  0  0  0
    6.7800    2.3370   -1.3510 C   0  0  0  0  0  0  0  0  0  0  0  0
    5.5030    1.8030   -0.7720 C   0  0  0  0  0  0  0  0  0  0  0  0
    5.4300    1.4380    0.5560 C   0  0  0  0  0  0  0  0  0  0  0  0
    4.2620    0.9400    1.1270 C   0  0  0  0  0  0  0  0  0  0  0  0
    3.1250    0.7950    0.3600 C   0  0  0  0  0  0  0  0  0  0  0  0
    1.8890    0.2650    0.9690 C   0  0  1  0  0  0  0  0  0  0  0  0
    0.7500    0.9970    0.6050 O   0  0  0  0  0  0  0  0  0  0  0  0
    1.6320   -1.1690    0.6210 C   0  0  2  0  0  0  0  0  0  0  0  0
    2.8130   -2.0610    0.9210 C   0  0  0  0  0  0  0  0  0  0  0  0
    1.3990   -1.2560   -0.7510 O   0  0  0  0  0  0  0  0  0  0  0  0
    0.3810   -1.6170    1.3340 C   0  0  0  0  0  0  0  0  0  0  0  0
    0.0150   -3.0320    1.0680 C   0  0  0  0  0  0  0  0  0  0  0  0
   -1.2540   -3.3540    1.8420 C   0  0  0  0  0  0  0  0  0  0  0  0
   -2.2770   -2.5250    1.4090 O   0  0  0  0  0  0  0  0  0  0  0  0
   -2.7350   -2.5040    0.0290 C   0  0  0  0  0  0  0  0  0  0  0  0
   -2.8720   -3.6770   -0.4660 C   0  0  0  0  0  0  0  0  0  0  0  0
   -3.3100   -4.0900   -1.7690 C   0  0  0  0  0  0  0  0  0  0  0  0
   -3.3190   -5.5190   -2.1050 N   0  0  0  0  0  0  0  0  0  0  0  0
   -3.6950   -3.2970   -2.6390 O   0  0  0  0  0  0  0  0  0  0  0  0
   -2.9010   -1.1570   -0.4470 C   0  0  0  0  0  0  0  0  0  0  0  0
   -2.7600   -0.7810   -1.7520 C   0  0  0  0  0  0  0  0  0  0  0  0
   -3.0510    0.5300   -2.1590 C   0  0  0  0  0  0  0  0  0  0  0  0
   -2.8790    0.8400   -3.5670 C   0  0  0  0  0  0  0  0  0  0  0  0
   -2.4890   -0.0050   -4.4040 O   0  0  0  0  0  0  0  0  0  0  0  0
   -3.4750    1.4370   -1.2340 C   0  0  0  0  0  0  0  0  0  0  0  0
   -3.6090    1.0600    0.0540 N   0  0  0  0  0  0  0  0  0  0  0  0
   -4.0570    2.0450    1.0110 C   0  0  0  0  0  0  0  0  0  0  0  0
   -4.3380    3.2970    0.6920 C   0  0  0  0  0  0  0  0  0  0  0  0
   -4.7680    4.0300    1.9110 C   0  0  0  0  0  0  0  0  0  0  0  0
   -4.6920    3.0160    2.9620 C   0  0  0  0  0  0  0  0  0  0  0  0
   -4.2780    1.8610    2.4340 C   0  0  0  0  0  0  0  0  0  0  0  0
   -3.3410   -0.1780    0.4650 C   0  0  0  0  0  0  0  0  0  0  0  0
   -3.4540   -0.5600    1.6490 O   0  0  0  0  0  0  0  0  0  0  0  0
    3.1870    1.1560   -0.9680 C   0  0  0  0  0  0  0  0  0  0  0  0
    4.3640    1.6570   -1.5370 C   0  0  0  0  0  0  0  0  0  0  0  0
  1  2  1  0
  2  3  1  0
  3  4  2  0
  3 36  1  0
  4  5  1  0
  5  6  2  0
  6  7  1  0
  6 35  1  0
  7  8  1  6
  7  9  1  0
  9 10  1  1
  9 11  1  0
  9 12  1  0
 12 13  1  0
 13 14  1  0
 14 15  1  0
 15 16  1  0
 16 17  2  3
 16 21  1  0
 17 18  1  0
 18 19  1  0
 18 20  2  0
 21 22  2  0
 21 33  1  0
 22 23  1  0
 23 24  1  0
 23 26  2  0
 24 25  2  0
 26 27  1  0
 27 28  1  0
 27 33  1  0
 28 29  2  0
 28 32  1  0
 29 30  1  0
 30 31  1  0
 31 32  2  0
 33 34  2  0
 35 36  2  0
M  END
