
     RDKit          3D

 35 39  0  0  0  0  0  0  0  0999 V2000
    2.0180   -4.2740   -1.3620 C   0  0  0  0  0  0  0  0  0  0  0  0
    2.1010   -3.5150   -0.1700 O   0  0  0  0  0  0  0  0  0  0  0  0
    0.9150   -3.0250    0.4000 C   0  0  0  0  0  0  0  0  0  0  0  0
   -0.3040   -3.2800   -0.1950 C   0  0  0  0  0  0  0  0  0  0  0  0
   -1.5040   -2.8110    0.3400 C   0  0  0  0  0  0  0  0  0  0  0  0
   -1.5330   -2.0660    1.4890 C   0  0  0  0  0  0  0  0  0  0  0  0
   -2.7480   -1.5190    2.0710 C   0  0  0  0  0  0  0  0  0  0  0  0
   -3.2100   -1.6990    3.3150 N   0  0  0  0  0  0  0  0  0  0  0  0
   -4.3100   -1.0150    3.5080 N   0  0  0  0  0  0  0  0  0  0  0  0
   -4.6370   -0.3280    2.3670 C   0  0  0  0  0  0  0  0  0  0  0  0
   -5.8310    0.5320    2.2680 C   0  0  0  0  0  0  0  0  0  0  0  0
   -3.6670   -0.6330    1.4590 C   0  0  0  0  0  0  0  0  0  0  0  0
   -3.4570   -0.1840    0.0910 C   0  0  0  0  0  0  0  0  0  0  0  0
   -4.4070    0.7150   -0.4400 N   0  0  2  0  0  0  0  0  0  0  0  0
   -5.4690    0.0850   -1.1840 C   0  0  0  0  0  0  0  0  0  0  0  0
   -6.6070    1.0500   -1.3550 C   0  0  0  0  0  0  0  0  0  0  0  0
   -6.1160    2.4470   -1.0760 C   0  0  0  0  0  0  0  0  0  0  0  0
   -4.7640    2.7310   -1.6640 C   0  0  1  0  0  0  0  0  0  0  0  0
   -4.3290    3.9490   -1.1400 O   0  0  0  0  0  0  0  0  0  0  0  0
   -3.7700    1.6220   -1.4330 C   0  0  0  0  0  0  0  0  0  0  0  0
   -0.2940   -1.8140    2.0820 C   0  0  0  0  0  0  0  0  0  0  0  0
    0.9080   -2.2810    1.5530 C   0  0  0  0  0  0  0  0  0  0  0  0
    2.1040   -1.9840    2.2090 O   0  0  0  0  0  0  0  0  0  0  0  0
    3.1470   -1.2900    1.6670 C   0  0  0  0  0  0  0  0  0  0  0  0
    3.1460    0.0930    1.6090 C   0  0  0  0  0  0  0  0  0  0  0  0
    4.2100    0.8010    1.0570 C   0  0  0  0  0  0  0  0  0  0  0  0
    5.3220    0.1510    0.5400 C   0  0  0  0  0  0  0  0  0  0  0  0
    6.3940    0.9380   -0.0190 C   0  0  0  0  0  0  0  0  0  0  0  0
    7.4850    0.3390   -0.5260 C   0  0  0  0  0  0  0  0  0  0  0  0
    8.5190    1.2870   -1.0740 C   0  0  0  0  0  0  0  0  0  0  0  0
    7.8320    2.0770   -2.0880 N   0  0  0  0  0  0  0  0  0  0  0  0
    6.7710    2.8750   -1.5210 C   0  0  0  0  0  0  0  0  0  0  0  0
    6.4200    2.4170   -0.0980 C   0  0  0  0  0  0  0  0  0  0  0  0
    5.3350   -1.2080    0.5910 C   0  0  0  0  0  0  0  0  0  0  0  0
    4.2610   -1.9070    1.1470 C   0  0  0  0  0  0  0  0  0  0  0  0
  1  2  1  0
  2  3  1  0
  3  4  2  0
  3 22  1  0
  4  5  1  0
  5  6  2  0
  6  7  1  0
  6 21  1  0
  7  8  2  0
  7 12  1  0
  8  9  1  0
  9 10  1  0
 10 11  1  0
 10 12  2  0
 12 13  1  0
 14 13  1  6
 14 15  1  0
 14 20  1  0
 15 16  1  0
 16 17  1  0
 17 18  1  0
 18 19  1  1
 18 20  1  0
 21 22  2  0
 22 23  1  0
 23 24  1  0
 24 25  2  0
 24 35  1  0
 25 26  1  0
 26 27  2  0
 27 28  1  0
 27 34  1  0
 28 29  2  0
 28 33  1  0
 29 30  1  0
 30 31  1  0
 31 32  1  0
 32 33  1  0
 34 35  2  0
M  CHG  1  14   1
M  END
