
     RDKit          3D

 35 38  0  0  0  0  0  0  0  0999 V2000
   -2.1660   -2.9250    4.9330 C   0  0  0  0  0  0  0  0  0  0  0  0
   -0.8580   -2.3830    4.3540 C   0  0  0  0  0  0  0  0  0  0  0  0
   -1.0830   -1.9180    2.9820 N   0  0  0  0  0  0  0  0  0  0  0  0
    0.0030   -1.4130    2.2620 C   0  0  0  0  0  0  0  0  0  0  0  0
    1.1200   -1.4000    2.8560 O   0  0  0  0  0  0  0  0  0  0  0  0
   -0.0810   -0.9210    0.9110 C   0  0  0  0  0  0  0  0  0  0  0  0
    1.0680   -0.6540    0.1310 C   0  0  0  0  0  0  0  0  0  0  0  0
    0.6330   -0.2030   -1.0800 C   0  0  0  0  0  0  0  0  0  0  0  0
    1.4490    0.1730   -2.2090 C   0  0  0  0  0  0  0  0  0  0  0  0
    0.8180    0.4980   -3.2830 O   0  0  0  0  0  0  0  0  0  0  0  0
    2.8310    0.2260   -2.2770 N   0  0  0  0  0  0  0  0  0  0  0  0
    3.4460    0.5360   -3.5870 C   0  0  0  0  0  0  0  0  0  0  0  0
    3.6100    2.0130   -3.7220 C   0  0  0  0  0  0  0  0  0  0  0  0
    3.7210    0.0080   -1.2300 C   0  0  0  0  0  0  0  0  0  0  0  0
    4.0000    1.0000   -0.2840 C   0  0  0  0  0  0  0  0  0  0  0  0
    4.8920    0.8150    0.7380 C   0  0  0  0  0  0  0  0  0  0  0  0
    5.5260   -0.4000    0.8160 C   0  0  0  0  0  0  0  0  0  0  0  0
    5.2670   -1.4100   -0.1150 C   0  0  0  0  0  0  0  0  0  0  0  0
    4.3690   -1.2250   -1.1430 C   0  0  0  0  0  0  0  0  0  0  0  0
    4.1170   -2.3240   -2.1220 C   0  0  0  0  0  0  0  0  0  0  0  0
    6.4020   -0.6230    1.7760 C   0  0  0  0  0  0  0  0  0  0  0  0
    6.6590    0.3700    2.6760 O   0  0  0  0  0  0  0  0  0  0  0  0
    6.0350    1.6280    2.6930 C   0  0  0  0  0  0  0  0  0  0  0  0
    5.0840    1.8030    1.5880 C   0  0  0  0  0  0  0  0  0  0  0  0
   -0.7220   -0.2000   -1.0280 N   0  0  0  0  0  0  0  0  0  0  0  0
   -1.1820   -0.6220    0.1450 C   0  0  0  0  0  0  0  0  0  0  0  0
   -2.6090   -0.7530    0.4690 C   0  0  0  0  0  0  0  0  0  0  0  0
   -3.4930   -0.2340   -0.5920 N   0  0  1  0  0  0  0  0  0  0  0  0
   -3.7820   -1.2740   -1.4970 C   0  0  0  0  0  0  0  0  0  0  0  0
   -4.6340    0.4260    0.0010 C   0  0  1  0  0  0  0  0  0  0  0  0
   -4.2290    1.7860    0.5290 C   0  0  0  0  0  0  0  0  0  0  0  0
   -4.3470    2.8880   -0.4960 C   0  0  0  0  0  0  0  0  0  0  0  0
   -5.8150    2.9040   -0.9330 C   0  0  0  0  0  0  0  0  0  0  0  0
   -5.9850    1.6350   -1.7630 C   0  0  0  0  0  0  0  0  0  0  0  0
   -5.8690    0.4720   -0.8090 C   0  0  0  0  0  0  0  0  0  0  0  0
  1  2  1  0
  2  3  1  0
  3  4  1  0
  4  5  2  0
  4  6  1  0
  6  7  1  0
  6 26  2  0
  7  8  2  0
  8  9  1  0
  8 25  1  0
  9 10  2  0
  9 11  1  0
 11 12  1  0
 11 14  1  0
 12 13  1  0
 14 15  2  0
 14 19  1  0
 15 16  1  0
 16 17  1  0
 16 24  2  0
 17 18  1  0
 17 21  2  0
 18 19  2  0
 19 20  1  0
 21 22  1  0
 22 23  1  0
 23 24  1  0
 25 26  1  0
 26 27  1  0
 27 28  1  0
 28 29  1  6
 28 30  1  0
 30 31  1  6
 30 35  1  0
 31 32  1  0
 32 33  1  0
 33 34  1  0
 34 35  1  0
M  CHG  1  28   1
M  END
