
     RDKit          3D

 37 40  0  0  0  0  0  0  0  0999 V2000
    9.4650    2.3810    0.7620 C   0  0  0  0  0  0  0  0  0  0  0  0
    9.0630    1.0910    1.3830 C   0  0  0  0  0  0  0  0  0  0  0  0
    8.3790    0.0980    0.4940 C   0  0  1  0  0  0  0  0  0  0  0  0
    8.0890   -1.1140    1.4100 C   0  0  0  0  0  0  0  0  0  0  0  0
    7.3360   -2.0320    0.7340 O   0  0  0  0  0  0  0  0  0  0  0  0
    7.0450    0.5870    0.1600 N   0  0  0  0  0  0  0  0  0  0  0  0
    6.9890    1.4150   -0.9920 C   0  0  0  0  0  0  0  0  0  0  0  0
    5.6070    2.0010   -1.1290 C   0  0  0  0  0  0  0  0  0  0  0  0
    4.6180    0.9240   -1.3350 N   0  0  0  0  0  0  0  0  0  0  0  0
    4.3560    0.4790   -2.6520 C   0  0  0  0  0  0  0  0  0  0  0  0
    4.8350    0.9570   -3.7360 O   0  0  0  0  0  0  0  0  0  0  0  0
    3.2260   -0.8830   -2.4970 S   0  0  0  0  0  0  0  0  0  0  0  0
    2.9750   -0.7470   -0.6560 C   0  0  2  0  0  0  0  0  0  0  0  0
    1.6620   -0.3040   -0.4970 N   0  0  0  0  0  0  0  0  0  0  0  0
    0.5550   -1.3000   -0.7840 C   0  0  0  0  0  0  0  0  0  0  0  0
    0.9410   -2.3870   -1.1480 O   0  0  0  0  0  0  0  0  0  0  0  0
   -0.6590   -0.7090   -0.5580 N   0  0  0  0  0  0  0  0  0  0  0  0
   -1.6530   -1.9910   -1.1820 C   0  0  0  0  0  0  0  0  0  0  0  0
   -1.0320   -2.9210   -1.5270 O   0  0  0  0  0  0  0  0  0  0  0  0
   -3.0320   -1.6420   -1.1470 C   0  0  0  0  0  0  0  0  0  0  0  0
   -3.5720   -0.9700   -2.2550 C   0  0  0  0  0  0  0  0  0  0  0  0
   -4.8880   -0.6190   -2.3360 C   0  0  0  0  0  0  0  0  0  0  0  0
   -5.7480   -0.9290   -1.2900 C   0  0  0  0  0  0  0  0  0  0  0  0
   -5.2600   -1.5770   -0.2050 C   0  0  0  0  0  0  0  0  0  0  0  0
   -6.1480   -1.9730    0.9040 C   0  0  0  0  0  0  0  0  0  0  0  0
   -7.1740   -0.9460    1.2030 C   0  0  0  0  0  0  0  0  0  0  0  0
   -6.9340    0.0020    2.1670 C   0  0  0  0  0  0  0  0  0  0  0  0
   -7.8750    0.9720    2.4910 C   0  0  0  0  0  0  0  0  0  0  0  0
   -9.0750    0.9920    1.8370 C   0  0  0  0  0  0  0  0  0  0  0  0
   -9.3550    0.0510    0.8540 C   0  0  0  0  0  0  0  0  0  0  0  0
   -8.3830   -0.9070    0.5610 C   0  0  0  0  0  0  0  0  0  0  0  0
  -10.5430    0.2430    0.3500 C   0  0  0  0  0  0  0  0  0  0  0  0
  -11.1730    1.4180    1.0260 C   0  0  0  0  0  0  0  0  0  0  0  0
  -10.1020    1.8190    1.9650 C   0  0  0  0  0  0  0  0  0  0  0  0
   -3.9140   -1.9250   -0.1440 C   0  0  0  0  0  0  0  0  0  0  0  0
    3.8930    0.3350   -0.3140 C   0  0  0  0  0  0  0  0  0  0  0  0
    3.9850    0.6950    0.9330 O   0  0  0  0  0  0  0  0  0  0  0  0
  1  2  1  0
  3  2  1  1
  3  4  1  0
  3  6  1  0
  4  5  1  0
  6  7  1  0
  7  8  1  0
  8  9  1  0
  9 10  1  0
  9 36  1  0
 10 11  2  0
 10 12  1  0
 12 13  1  0
 13 14  1  6
 13 36  1  0
 14 15  1  0
 15 16  2  0
 15 17  1  0
 17 18  1  0
 18 19  2  0
 18 20  1  0
 20 21  2  0
 20 35  1  0
 21 22  1  0
 22 23  2  0
 23 24  1  0
 24 25  1  0
 24 35  2  0
 25 26  1  0
 26 27  1  0
 26 31  2  0
 27 28  2  0
 28 29  1  0
 29 30  1  0
 29 34  2  0
 30 31  1  0
 30 32  2  0
 32 33  1  0
 33 34  1  0
 36 37  2  0
M  CHG  1   6   1
M  END
