
     RDKit          3D

 37 40  0  0  0  0  0  0  0  0999 V2000
  -11.1580   -0.0430   -2.4720 C   0  0  0  0  0  0  0  0  0  0  0  0
  -10.3260    0.4900   -1.6140 C   0  0  0  0  0  0  0  0  0  0  0  0
   -9.3230   -0.1160   -0.7260 C   0  0  0  0  0  0  0  0  0  0  0  0
   -8.2400    0.8130   -0.4410 C   0  0  0  0  0  0  0  0  0  0  0  0
   -6.9580    0.4960    0.0380 C   0  0  0  0  0  0  0  0  0  0  0  0
   -6.0240    1.4430    0.2950 C   0  0  0  0  0  0  0  0  0  0  0  0
   -4.7190    1.0350    0.8010 C   0  0  0  0  0  0  0  0  0  0  0  0
   -4.0910    1.7420    1.6500 O   0  0  0  0  0  0  0  0  0  0  0  0
   -4.0710   -0.1540    0.3930 N   0  0  0  0  0  0  0  0  0  0  0  0
   -2.8190   -0.6140    0.8590 C   0  0  1  0  0  0  0  0  0  0  0  0
   -2.6360   -2.0610    1.0890 C   0  0  0  0  0  0  0  0  0  0  0  0
   -2.1330   -2.8400   -0.0930 C   0  0  0  0  0  0  0  0  0  0  0  0
   -1.0560   -2.2420   -0.9060 C   0  0  0  0  0  0  0  0  0  0  0  0
   -0.6710   -0.9510   -0.3780 N   0  0  0  0  0  0  0  0  0  0  0  0
    0.7280   -0.5710   -0.2170 C   0  0  0  0  0  0  0  0  0  0  0  0
    1.5370   -1.4340   -0.6310 O   0  0  0  0  0  0  0  0  0  0  0  0
    1.1220    0.6630    0.3620 C   0  0  0  0  0  0  0  0  0  0  0  0
    2.1770    1.2740    0.6390 C   0  0  0  0  0  0  0  0  0  0  0  0
    3.5760    1.0600    0.5210 C   0  0  0  0  0  0  0  0  0  0  0  0
    4.3760    2.0120    0.9840 O   0  0  0  0  0  0  0  0  0  0  0  0
    4.3130   -0.0070   -0.0090 N   0  0  0  0  0  0  0  0  0  0  0  0
    5.7460   -0.0220    0.0070 C   0  0  0  0  0  0  0  0  0  0  0  0
    6.4700    0.4870    1.0310 C   0  0  0  0  0  0  0  0  0  0  0  0
    7.8610    0.4830    1.0070 C   0  0  0  0  0  0  0  0  0  0  0  0
    8.5310   -0.0430   -0.0600 C   0  0  0  0  0  0  0  0  0  0  0  0
    9.9750   -0.1210   -0.1500 C   0  0  0  0  0  0  0  0  0  0  0  0
   10.5090   -0.4930   -1.2530 O   0  0  0  0  0  0  0  0  0  0  0  0
   10.8750    0.2110    0.9700 C   0  0  0  0  0  0  0  0  0  0  0  0
   10.4580   -0.4250    2.1910 N   0  0  0  0  0  0  0  0  0  0  0  0
    7.7680   -0.5660   -1.1090 C   0  0  0  0  0  0  0  0  0  0  0  0
    6.4020   -0.5530   -1.0720 C   0  0  0  0  0  0  0  0  0  0  0  0
   -1.7250   -0.0640   -0.0440 C   0  0  0  0  0  0  0  0  0  0  0  0
   -1.7280    1.1010   -0.4800 O   0  0  0  0  0  0  0  0  0  0  0  0
   -6.3080    2.7750    0.0900 C   0  0  0  0  0  0  0  0  0  0  0  0
   -7.5530    3.1290   -0.3790 C   0  0  0  0  0  0  0  0  0  0  0  0
   -8.4850    2.1410   -0.6320 C   0  0  0  0  0  0  0  0  0  0  0  0
  -10.1720    2.2360   -1.2540 S   0  0  0  0  0  0  0  0  0  0  0  0
  1  2  2  0
  2  3  1  0
  2 37  1  0
  3  4  1  0
  4  5  2  0
  4 36  1  0
  5  6  1  0
  6  7  1  0
  6 34  2  0
  7  8  2  0
  7  9  1  0
 10  9  1  6
 10 11  1  0
 10 32  1  0
 11 12  1  0
 12 13  1  0
 13 14  1  0
 14 15  1  0
 14 32  1  0
 15 16  2  0
 15 17  1  0
 17 18  2  3
 18 19  1  0
 19 20  2  0
 19 21  1  0
 21 22  1  0
 22 23  2  0
 22 31  1  0
 23 24  1  0
 24 25  2  0
 25 26  1  0
 25 30  1  0
 26 27  2  0
 26 28  1  0
 28 29  1  0
 30 31  2  0
 32 33  2  0
 34 35  1  0
 35 36  2  0
 36 37  1  0
M  CHG  1  29   1
M  END
