
     RDKit          3D

 37 40  0  0  0  0  0  0  0  0999 V2000
    2.3420    6.4600    0.5830 C   0  0  0  0  0  0  0  0  0  0  0  0
    1.8580    5.6020   -0.5960 C   0  0  0  0  0  0  0  0  0  0  0  0
    1.7270    4.2500   -0.0830 N   0  0  0  0  0  0  0  0  0  0  0  0
    1.0940    3.3380   -1.0300 C   0  0  2  0  0  0  0  0  0  0  0  0
    0.3470    4.0130   -2.0640 C   0  0  0  0  0  0  0  0  0  0  0  0
    0.9560    4.8270   -2.8410 O   0  0  0  0  0  0  0  0  0  0  0  0
   -1.0280    3.8590   -2.3100 N   0  0  0  0  0  0  0  0  0  0  0  0
   -1.7650    2.9470   -1.5150 C   0  0  0  0  0  0  0  0  0  0  0  0
   -2.9990    2.7890   -1.7240 O   0  0  0  0  0  0  0  0  0  0  0  0
   -1.0580    2.2030   -0.4560 C   0  0  0  0  0  0  0  0  0  0  0  0
   -1.7830    1.1700    0.2740 C   0  0  0  0  0  0  0  0  0  0  0  0
   -1.1220    0.4310    1.0670 O   0  0  0  0  0  0  0  0  0  0  0  0
   -3.1570    0.8900    0.2020 N   0  0  0  0  0  0  0  0  0  0  0  0
   -3.7150   -0.2000    1.0160 C   0  0  1  0  0  0  0  0  0  0  0  0
   -4.7410    0.3190    1.9870 C   0  0  0  0  0  0  0  0  0  0  0  0
   -4.2740   -1.2700    0.1430 C   0  0  0  0  0  0  0  0  0  0  0  0
   -5.0510   -0.8660   -0.9230 C   0  0  0  0  0  0  0  0  0  0  0  0
   -5.5730   -1.8510   -1.7360 C   0  0  0  0  0  0  0  0  0  0  0  0
   -5.3280   -3.1870   -1.4960 C   0  0  0  0  0  0  0  0  0  0  0  0
   -4.5520   -3.6020   -0.4330 C   0  0  0  0  0  0  0  0  0  0  0  0
   -4.3020   -5.0450   -0.1940 C   0  0  0  0  0  0  0  0  0  0  0  0
   -5.5560   -5.7870    0.8860 S   0  0  0  0  0  0  0  0  0  0  0  0
   -4.0280   -2.6100    0.3840 C   0  0  0  0  0  0  0  0  0  0  0  0
    0.2160    2.3880   -0.2500 C   0  0  0  0  0  0  0  0  0  0  0  0
    0.9080    1.7060    0.8790 C   0  0  0  0  0  0  0  0  0  0  0  0
    1.7650    0.6300    0.3040 C   0  0  0  0  0  0  0  0  0  0  0  0
    1.7650    0.4640   -0.9260 O   0  0  0  0  0  0  0  0  0  0  0  0
    2.5750   -0.2030    1.1170 N   0  0  0  0  0  0  0  0  0  0  0  0
    3.4180   -1.2420    0.7140 C   0  0  0  0  0  0  0  0  0  0  0  0
    3.5520   -1.6840   -0.5610 C   0  0  0  0  0  0  0  0  0  0  0  0
    4.4160   -2.7240   -0.9010 C   0  0  0  0  0  0  0  0  0  0  0  0
    5.1650   -3.3350    0.0610 C   0  0  0  0  0  0  0  0  0  0  0  0
    5.0490   -2.9060    1.3660 C   0  0  0  0  0  0  0  0  0  0  0  0
    4.1890   -1.8780    1.6750 C   0  0  0  0  0  0  0  0  0  0  0  0
    5.9000   -3.6620    2.1960 O   0  0  0  0  0  0  0  0  0  0  0  0
    6.2490   -4.8420    1.4950 C   0  0  0  0  0  0  0  0  0  0  0  0
    6.1710   -4.4560    0.0460 C   0  0  0  0  0  0  0  0  0  0  0  0
  1  2  1  0
  2  3  1  0
  4  3  1  1
  4  5  1  0
  4 24  1  0
  5  6  2  0
  5  7  1  0
  7  8  1  0
  8  9  2  0
  8 10  1  0
 10 11  1  0
 10 24  2  0
 11 12  2  0
 11 13  1  0
 13 14  1  0
 14 15  1  1
 14 16  1  0
 16 17  2  0
 16 23  1  0
 17 18  1  0
 18 19  2  0
 19 20  1  0
 20 21  1  0
 20 23  2  0
 21 22  1  0
 24 25  1  0
 25 26  1  0
 26 27  2  0
 26 28  1  0
 28 29  1  0
 29 30  2  0
 29 34  1  0
 30 31  1  0
 31 32  2  0
 32 33  1  0
 32 37  1  0
 33 34  2  0
 33 35  1  0
 35 36  1  0
 36 37  1  0
M  CHG  1   3   1
M  END
