
     RDKit          3D

 37 40  0  0  0  0  0  0  0  0999 V2000
   -3.6760   -3.4810    2.8920 C   0  0  0  0  0  0  0  0  0  0  0  0
   -4.4170   -3.1730    1.6910 N   0  0  0  0  0  0  0  0  0  0  0  0
   -3.5940   -2.5460    0.6900 C   0  0  0  0  0  0  0  0  0  0  0  0
   -4.3620   -2.2240   -0.5410 C   0  0  0  0  0  0  0  0  0  0  0  0
   -5.7180   -2.5210   -0.6290 C   0  0  0  0  0  0  0  0  0  0  0  0
   -6.4610   -2.2240   -1.7600 C   0  0  0  0  0  0  0  0  0  0  0  0
   -5.8430   -1.6240   -2.8120 C   0  0  0  0  0  0  0  0  0  0  0  0
   -4.4930   -1.3320   -2.7150 C   0  0  0  0  0  0  0  0  0  0  0  0
   -3.7360   -1.6180   -1.6020 C   0  0  0  0  0  0  0  0  0  0  0  0
   -2.3960   -1.2720   -1.6380 O   0  0  0  0  0  0  0  0  0  0  0  0
   -1.9940   -0.0650   -1.0720 C   0  0  0  0  0  0  0  0  0  0  0  0
   -2.8800    0.6100   -0.5650 O   0  0  0  0  0  0  0  0  0  0  0  0
   -0.5310    0.3550   -1.1060 C   0  0  0  0  0  0  0  0  0  0  0  0
    0.2480   -0.5790   -1.7930 N   0  0  0  0  0  0  0  0  0  0  0  0
    1.6070   -0.8220   -1.8990 C   0  0  0  0  0  0  0  0  0  0  0  0
    2.4070   -0.1370   -1.2720 O   0  0  0  0  0  0  0  0  0  0  0  0
    2.1200   -1.9420   -2.7970 C   0  0  0  0  0  0  0  0  0  0  0  0
    2.8290   -3.2130   -1.6870 S   0  0  0  0  0  0  0  0  0  0  0  0
    4.2800   -2.4900   -0.9480 C   0  0  0  0  0  0  0  0  0  0  0  0
    5.5060   -2.5830   -1.5720 C   0  0  0  0  0  0  0  0  0  0  0  0
    6.6490   -2.0270   -1.0150 C   0  0  0  0  0  0  0  0  0  0  0  0
    6.5000   -1.3700    0.2040 C   0  0  0  0  0  0  0  0  0  0  0  0
    5.2970   -1.2660    0.8400 C   0  0  0  0  0  0  0  0  0  0  0  0
    5.1470   -0.6050    2.0660 O   0  0  0  0  0  0  0  0  0  0  0  0
    6.3080   -0.0260    2.6540 C   0  0  0  0  0  0  0  0  0  0  0  0
    4.1550   -1.8360    0.2570 C   0  0  0  0  0  0  0  0  0  0  0  0
   -0.2090    1.3440   -0.3530 C   0  0  0  0  0  0  0  0  0  0  0  0
    1.1110    1.9910   -0.2040 C   0  0  0  0  0  0  0  0  0  0  0  0
    0.9410    3.5230   -0.0780 C   0  0  1  0  0  0  0  0  0  0  0  0
    0.6210    4.0900   -1.4710 C   0  0  0  0  0  0  0  0  0  0  0  0
   -0.0490    3.9370    0.9060 C   0  0  0  0  0  0  0  0  0  0  0  0
   -1.0300    3.1370    1.2350 C   0  0  0  0  0  0  0  0  0  0  0  0
   -1.1580    1.8420    0.6450 N   0  0  0  0  0  0  0  0  0  0  0  0
   -1.8610    3.7780    2.2110 N   0  0  0  0  0  0  0  0  0  0  0  0
   -1.0810    4.8180    2.7980 C   0  0  0  0  0  0  0  0  0  0  0  0
   -0.1820    5.1870    1.6870 C   0  0  0  0  0  0  0  0  0  0  0  0
    0.3750    6.2520    1.3950 O   0  0  0  0  0  0  0  0  0  0  0  0
  1  2  1  0
  2  3  1  0
  3  4  1  0
  4  5  2  0
  4  9  1  0
  5  6  1  0
  6  7  2  0
  7  8  1  0
  8  9  2  0
  9 10  1  0
 10 11  1  0
 11 12  2  0
 11 13  1  0
 13 14  1  0
 13 27  2  3
 14 15  1  0
 15 16  2  0
 15 17  1  0
 17 18  1  0
 18 19  1  0
 19 20  2  0
 19 26  1  0
 20 21  1  0
 21 22  2  0
 22 23  1  0
 23 24  1  0
 23 26  2  0
 24 25  1  0
 27 28  1  0
 27 33  1  0
 28 29  1  0
 29 30  1  6
 29 31  1  0
 31 32  2  0
 31 36  1  0
 32 33  1  0
 32 34  1  0
 34 35  1  0
 35 36  1  0
 36 37  2  0
M  CHG  1  34   1
M  END
