
     RDKit          3D

 16 16  0  0  0  0  0  0  0  0999 V2000
   -5.8490    0.2040    0.8520 C   0  0  0  0  0  0  0  0  0  0  0  0
   -4.6790    0.9340    0.2000 C   0  0  0  0  0  0  0  0  0  0  0  0
   -3.3590    0.3630    0.6970 C   0  0  0  0  0  0  0  0  0  0  0  0
   -2.2570    1.1450   -0.0020 C   0  0  0  0  0  0  0  0  0  0  0  0
   -0.9310    0.6640    0.4160 C   0  0  0  0  0  0  0  0  0  0  0  0
    0.1670    0.2600    0.7490 C   0  0  0  0  0  0  0  0  0  0  0  0
    1.4820   -0.2360    1.1610 C   0  0  2  0  0  0  0  0  0  0  0  0
    2.1880    0.7440    2.0660 C   0  0  0  0  0  0  0  0  0  0  0  0
    2.3230   -0.5770   -0.0300 C   0  0  0  0  0  0  0  0  0  0  0  0
    3.4980   -0.0180   -0.1350 C   0  0  0  0  0  0  0  0  0  0  0  0
    4.5120   -0.1770   -1.1920 C   0  0  0  0  0  0  0  0  0  0  0  0
    3.9910   -1.2850   -2.4460 S   0  0  1  0  0  0  0  0  0  0  0  0
    3.9940   -0.5910   -3.8020 O   0  0  0  0  0  0  0  0  0  0  0  0
    4.9960   -2.4100   -2.5470 O   0  0  0  0  0  0  0  0  0  0  0  0
    2.4110   -1.8730   -2.0570 C   0  0  0  0  0  0  0  0  0  0  0  0
    1.7770   -1.5070   -0.9930 C   0  0  0  0  0  0  0  0  0  0  0  0
  1  2  1  0
  2  3  1  0
  3  4  1  0
  4  5  1  0
  5  6  3  0
  6  7  1  0
  7  8  1  6
  7  9  1  0
  9 10  2  0
  9 16  1  0
 10 11  1  0
 12 11  1  1
 12 13  2  0
 12 14  2  0
 12 15  1  0
 15 16  2  0
M  END
