
     RDKit          3D

 16 16  0  0  0  0  0  0  0  0999 V2000
   -3.2800   -0.9090    1.1770 C   0  0  0  0  0  0  0  0  0  0  0  0
   -2.0420   -0.0410    1.1780 C   0  0  0  0  0  0  0  0  0  0  0  0
   -1.4390   -0.0880   -0.1960 C   0  0  2  0  0  0  0  0  0  0  0  0
   -2.4420    0.4330   -1.2010 C   0  0  0  0  0  0  0  0  0  0  0  0
   -1.0040   -1.4890   -0.4860 C   0  0  0  0  0  0  0  0  0  0  0  0
    0.3920   -1.5310    0.0940 C   0  0  0  0  0  0  0  0  0  0  0  0
    0.9500   -2.6080    0.4230 O   0  0  0  0  0  0  0  0  0  0  0  0
    0.9070   -0.1810    0.1850 C   0  0  0  0  0  0  0  0  0  0  0  0
    2.0710    0.2310    0.6180 C   0  0  0  0  0  0  0  0  0  0  0  0
    3.1770   -0.5930    1.1340 C   0  0  0  0  0  0  0  0  0  0  0  0
    4.6560   -0.3990    0.1690 S   0  0  2  0  0  0  0  0  0  0  0  0
    4.8350    1.0760   -0.0680 O   0  0  0  0  0  0  0  0  0  0  0  0
    4.5420   -1.0940   -1.1530 O   0  0  0  0  0  0  0  0  0  0  0  0
   -0.1760    0.6950   -0.3260 C   0  0  1  0  0  0  0  0  0  0  0  0
    0.1100    0.9270   -1.8050 C   0  0  0  0  0  0  0  0  0  0  0  0
   -0.2180    2.0260    0.3790 C   0  0  0  0  0  0  0  0  0  0  0  0
  1  2  1  0
  2  3  1  0
  3  4  1  6
  3  5  1  0
  3 14  1  0
  5  6  1  0
  6  7  2  0
  6  8  1  0
  8  9  2  3
  8 14  1  0
  9 10  1  0
 11 10  1  1
 11 12  2  0
 11 13  2  0
 14 15  1  6
 14 16  1  0
M  END
