
     RDKit          3D

 15 15  0  0  0  0  0  0  0  0999 V2000
   -2.1080   -3.7360    0.6160 C   0  0  0  0  0  0  0  0  0  0  0  0
   -2.5810   -2.4820   -0.0930 C   0  0  0  0  0  0  0  0  0  0  0  0
   -1.3810   -1.7150   -0.5590 C   0  0  0  0  0  0  0  0  0  0  0  0
   -1.1690   -0.5120   -0.1460 C   0  0  0  0  0  0  0  0  0  0  0  0
   -2.1850    0.4190    0.9830 S   0  0  0  0  0  0  0  0  0  0  0  0
   -1.0690    1.8910    1.0270 C   0  0  2  0  0  0  0  0  0  0  0  0
   -1.8300    3.1360    1.0360 C   0  0  0  0  0  0  0  0  0  0  0  0
   -2.5100    3.4180    2.0570 O   0  0  0  0  0  0  0  0  0  0  0  0
   -1.8630    4.0440   -0.0090 O   0  0  0  0  0  0  0  0  0  0  0  0
   -0.3530    1.6840   -0.1590 O   0  0  0  0  0  0  0  0  0  0  0  0
   -0.0820    0.3890   -0.4730 C   0  0  0  0  0  0  0  0  0  0  0  0
    1.0750   -0.0240   -1.0290 C   0  0  0  0  0  0  0  0  0  0  0  0
    2.1860    0.8980   -1.3630 C   0  0  0  0  0  0  0  0  0  0  0  0
    3.4560    0.5220   -0.6130 C   0  0  0  0  0  0  0  0  0  0  0  0
    3.2680    0.5720    0.8680 C   0  0  0  0  0  0  0  0  0  0  0  0
  1  2  1  0
  2  3  1  0
  3  4  2  3
  4  5  1  0
  4 11  1  0
  5  6  1  0
  6  7  1  6
  6 10  1  0
  7  8  2  0
  7  9  1  0
 10 11  1  0
 11 12  2  3
 12 13  1  0
 13 14  1  0
 14 15  1  0
M  END
