
     RDKit          3D

 16 16  0  0  0  0  0  0  0  0999 V2000
    1.8310   -2.1340   -0.7550 C   0  0  0  0  0  0  0  0  0  0  0  0
    1.3230   -0.6790   -0.5900 C   0  0  0  0  0  0  0  0  0  0  0  0
    0.1100   -0.4820   -1.0150 C   0  0  0  0  0  0  0  0  0  0  0  0
   -0.6960    0.7320   -1.0260 C   0  0  0  0  0  0  0  0  0  0  0  0
   -1.9740    0.6240   -0.2420 C   0  0  1  0  0  0  0  0  0  0  0  0
   -2.6620    1.8330   -0.3200 O   0  0  0  0  0  0  0  0  0  0  0  0
   -2.8390   -0.5210   -0.6730 C   0  0  0  0  0  0  0  0  0  0  0  0
   -4.1430   -0.2660    0.0980 C   0  0  0  0  0  0  0  0  0  0  0  0
   -3.4570    0.1010    1.7240 S   0  0  2  0  0  0  0  0  0  0  0  0
   -3.5980   -1.0440    2.6500 O   0  0  0  0  0  0  0  0  0  0  0  0
   -4.0240    1.3780    2.2530 O   0  0  0  0  0  0  0  0  0  0  0  0
   -1.7390    0.3380    1.2270 C   0  0  0  0  0  0  0  0  0  0  0  0
    2.3240    0.1780    0.0230 C   0  0  1  0  0  0  0  0  0  0  0  0
    2.6370   -0.3050    1.4590 C   0  0  0  0  0  0  0  0  0  0  0  0
    3.6460   -0.0740   -0.7740 C   0  0  0  0  0  0  0  0  0  0  0  0
    2.1670    1.6390    0.0360 C   0  0  0  0  0  0  0  0  0  0  0  0
  1  2  1  0
  2  3  2  3
  2 13  1  0
  3  4  1  0
  4  5  1  0
  5  6  1  1
  5  7  1  0
  5 12  1  0
  7  8  1  0
  9  8  1  6
  9 10  2  0
  9 11  2  0
  9 12  1  0
 13 14  1  1
 13 15  1  0
 13 16  1  0
M  END
