
     RDKit          3D

 16 16  0  0  0  0  0  0  0  0999 V2000
    1.2360   -3.0940   -0.8890 C   0  0  0  0  0  0  0  0  0  0  0  0
    1.9890   -1.8790   -1.0790 C   0  0  0  0  0  0  0  0  0  0  0  0
    1.7760   -0.6340   -0.9130 C   0  0  0  0  0  0  0  0  0  0  0  0
    0.7570    0.2640   -0.4810 C   0  0  0  0  0  0  0  0  0  0  0  0
    1.1300    1.5890   -0.4500 C   0  0  0  0  0  0  0  0  0  0  0  0
    2.3860    2.1420   -0.8030 C   0  0  0  0  0  0  0  0  0  0  0  0
    3.4130    1.5890   -1.2030 O   0  0  0  0  0  0  0  0  0  0  0  0
    2.5670    3.5670   -0.7030 O   0  0  0  0  0  0  0  0  0  0  0  0
   -0.1490    2.6940    0.2470 S   0  0  0  0  0  0  0  0  0  0  0  0
   -0.7590    1.7740    1.7180 C   0  0  0  0  0  0  0  0  0  0  0  0
   -0.9110    0.3120    1.3560 C   0  0  2  0  0  0  0  0  0  0  0  0
   -2.2880   -0.1000    1.7520 C   0  0  0  0  0  0  0  0  0  0  0  0
    0.0060   -0.4770    2.0470 O   0  0  0  0  0  0  0  0  0  0  0  0
   -0.6430    0.0870   -0.1240 C   0  0  1  0  0  0  0  0  0  0  0  0
   -1.5930    1.0460   -0.8840 C   0  0  0  0  0  0  0  0  0  0  0  0
   -1.1840   -1.2620   -0.4920 C   0  0  0  0  0  0  0  0  0  0  0  0
  1  2  1  0
  2  3  2  3
  3  4  1  0
  4  5  2  0
  4 14  1  0
  5  6  1  0
  5  9  1  0
  6  7  2  0
  6  8  1  0
  9 10  1  0
 10 11  1  0
 11 12  1  6
 11 13  1  0
 11 14  1  0
 14 15  1  6
 14 16  1  0
M  END
