
     RDKit          3D

 29 32  0  0  0  0  0  0  0  0999 V2000
    9.5890    0.8060   -0.4560 C   0  0  0  0  0  0  0  0  0  0  0  0
    8.2260    0.9780    0.0960 C   0  0  0  0  0  0  0  0  0  0  0  0
    7.1860    0.2890   -0.3360 C   0  0  0  0  0  0  0  0  0  0  0  0
    5.8600    0.4860    0.2310 C   0  0  0  0  0  0  0  0  0  0  0  0
    5.6730    1.3370    1.1670 O   0  0  0  0  0  0  0  0  0  0  0  0
    4.7250   -0.2390   -0.2120 N   0  0  0  0  0  0  0  0  0  0  0  0
    3.4220   -0.0720    0.3140 C   0  0  0  0  0  0  0  0  0  0  0  0
    2.2770   -0.6830   -0.0100 N   0  0  0  0  0  0  0  0  0  0  0  0
    1.2620   -0.2000    0.7640 C   0  0  0  0  0  0  0  0  0  0  0  0
    1.7990    0.7130    1.5630 N   0  0  0  0  0  0  0  0  0  0  0  0
    3.1050    0.7880    1.2890 N   0  0  0  0  0  0  0  0  0  0  0  0
    0.9910    1.4510    2.4940 C   0  0  0  0  0  0  0  0  0  0  0  0
   -0.1950    0.6910    2.9440 C   0  0  0  0  0  0  0  0  0  0  0  0
   -0.9130    0.1180    1.7770 C   0  0  0  0  0  0  0  0  0  0  0  0
   -2.1450    0.2630    1.7180 O   0  0  0  0  0  0  0  0  0  0  0  0
   -0.1390   -0.5580    0.8180 N   0  0  0  0  0  0  0  0  0  0  0  0
   -0.6550   -1.5080   -0.0900 C   0  0  0  0  0  0  0  0  0  0  0  0
   -1.0900   -1.1290   -1.4230 C   0  0  0  0  0  0  0  0  0  0  0  0
   -2.1710   -0.2160   -1.7610 C   0  0  0  0  0  0  0  0  0  0  0  0
   -3.5420   -0.5270   -1.3500 C   0  0  0  0  0  0  0  0  0  0  0  0
   -4.2880   -1.6410   -1.7080 C   0  0  0  0  0  0  0  0  0  0  0  0
   -3.7110   -2.7510   -2.5250 C   0  0  0  0  0  0  0  0  0  0  0  0
   -5.4680   -1.5100   -1.2240 O   0  0  0  0  0  0  0  0  0  0  0  0
   -5.6120   -0.3900   -0.5530 C   0  0  0  0  0  0  0  0  0  0  0  0
   -4.4010    0.2670   -0.6130 C   0  0  0  0  0  0  0  0  0  0  0  0
   -4.2890    1.5860    0.0170 C   0  0  0  0  0  0  0  0  0  0  0  0
   -5.3220    2.1290    0.6240 C   0  0  0  0  0  0  0  0  0  0  0  0
   -6.5670    1.4570    0.6860 N   0  0  0  0  0  0  0  0  0  0  0  0
   -6.7950    0.1410    0.1540 C   0  0  0  0  0  0  0  0  0  0  0  0
  1  2  1  0
  2  3  2  3
  3  4  1  0
  4  5  2  0
  4  6  1  0
  6  7  1  0
  7  8  1  0
  7 11  2  0
  8  9  2  0
  9 10  1  0
  9 16  1  0
 10 11  1  0
 10 12  1  0
 12 13  1  0
 13 14  1  0
 14 15  2  0
 14 16  1  0
 16 17  1  0
 17 18  1  0
 18 19  1  0
 19 20  1  0
 20 21  2  0
 20 25  1  0
 21 22  1  0
 21 23  1  0
 23 24  1  0
 24 25  2  0
 24 29  1  0
 25 26  1  0
 26 27  2  0
 27 28  1  0
 28 29  1  0
M  END
