
     RDKit          3D

 30 33  0  0  0  0  0  0  0  0999 V2000
    9.4550    1.2120    0.7620 C   0  0  0  0  0  0  0  0  0  0  0  0
    8.3200    0.7610    0.2410 C   0  0  0  0  0  0  0  0  0  0  0  0
    8.3300   -0.1240   -0.9550 C   0  0  0  0  0  0  0  0  0  0  0  0
    7.4100    0.6430   -2.3420 S   0  0  0  0  0  0  0  0  0  0  0  0
    5.6780    0.7290   -1.8450 C   0  0  0  0  0  0  0  0  0  0  0  0
    4.7570   -0.2240   -2.0550 N   0  0  0  0  0  0  0  0  0  0  0  0
    3.5540    0.1650   -1.5520 C   0  0  0  0  0  0  0  0  0  0  0  0
    2.3170   -0.4070   -1.4970 C   0  0  0  0  0  0  0  0  0  0  0  0
    1.2740    0.2990   -0.8850 C   0  0  0  0  0  0  0  0  0  0  0  0
    0.0240   -0.3470   -0.8880 N   0  0  0  0  0  0  0  0  0  0  0  0
   -1.0140    0.0100    0.0730 C   0  0  0  0  0  0  0  0  0  0  0  0
   -0.7860    0.8600    0.8890 O   0  0  0  0  0  0  0  0  0  0  0  0
   -2.2640   -0.6390    0.0370 N   0  0  0  0  0  0  0  0  0  0  0  0
   -3.4360   -0.5650    0.7700 C   0  0  0  0  0  0  0  0  0  0  0  0
   -4.4660   -1.3820    0.3950 C   0  0  0  0  0  0  0  0  0  0  0  0
   -4.2780   -2.2640   -0.7250 C   0  0  0  0  0  0  0  0  0  0  0  0
   -5.1290   -3.1470   -1.1810 C   0  0  0  0  0  0  0  0  0  0  0  0
   -6.7140   -3.5810   -0.6460 Cl  0  0  0  0  0  0  0  0  0  0  0  0
   -5.7710   -1.3330    1.0940 C   0  0  2  0  0  0  0  0  0  0  0  0
   -6.8270   -0.7520    0.1120 C   0  0  0  0  0  0  0  0  0  0  0  0
   -5.8210   -0.5080    2.2460 N   0  0  0  0  0  0  0  0  0  0  0  0
   -4.9050    0.2400    2.6530 C   0  0  0  0  0  0  0  0  0  0  0  0
   -4.8070    1.1450    3.7780 N   0  0  0  0  0  0  0  0  0  0  0  0
   -3.5600    1.7050    3.7500 N   0  0  0  0  0  0  0  0  0  0  0  0
   -2.8590    1.1570    2.6200 C   0  0  0  0  0  0  0  0  0  0  0  0
   -3.6170    0.3010    1.9670 C   0  0  0  0  0  0  0  0  0  0  0  0
    1.5480    1.5400   -0.3690 C   0  0  0  0  0  0  0  0  0  0  0  0
    2.7720    2.1260   -0.4130 N   0  0  0  0  0  0  0  0  0  0  0  0
    3.7850    1.4840   -0.9860 C   0  0  0  0  0  0  0  0  0  0  0  0
    5.0980    1.7580   -1.2030 N   0  0  0  0  0  0  0  0  0  0  0  0
  1  2  2  0
  2  3  1  0
  3  4  1  0
  4  5  1  0
  5  6  2  0
  5 30  1  0
  6  7  1  0
  7  8  2  0
  7 29  1  0
  8  9  1  0
  9 10  1  0
  9 27  2  0
 10 11  1  0
 11 12  2  0
 11 13  1  0
 13 14  1  0
 14 15  2  0
 14 26  1  0
 15 16  1  0
 15 19  1  0
 16 17  2  3
 17 18  1  0
 19 20  1  6
 19 21  1  0
 21 22  2  0
 22 23  1  0
 22 26  1  0
 23 24  1  0
 24 25  1  0
 25 26  2  0
 27 28  1  0
 28 29  1  0
 29 30  2  0
M  END
