
     RDKit          3D

 30 34  0  0  0  0  0  0  0  0999 V2000
   -3.8070    1.1560   -1.5760 C   0  0  0  0  0  0  0  0  0  0  0  0
   -4.5580   -0.1180   -1.3630 C   0  0  0  0  0  0  0  0  0  0  0  0
   -5.0780   -0.2970   -0.0410 N   0  0  0  0  0  0  0  0  0  0  0  0
   -4.2160   -0.3750    1.0660 C   0  0  0  0  0  0  0  0  0  0  0  0
   -2.8500   -0.3090    0.9000 C   0  0  0  0  0  0  0  0  0  0  0  0
   -1.9850   -0.3900    1.9800 C   0  0  0  0  0  0  0  0  0  0  0  0
   -0.6200   -0.3540    2.1010 C   0  0  0  0  0  0  0  0  0  0  0  0
    0.3270   -0.2030    0.9720 C   0  0  0  0  0  0  0  0  0  0  0  0
   -0.1000   -0.0960   -0.1980 O   0  0  0  0  0  0  0  0  0  0  0  0
    1.7200   -0.1790    1.2150 N   0  0  0  0  0  0  0  0  0  0  0  0
    2.7500   -0.0420    0.2540 C   0  0  0  0  0  0  0  0  0  0  0  0
    2.5420    0.0900   -1.0790 C   0  0  0  0  0  0  0  0  0  0  0  0
    3.6180    0.2200   -1.9510 C   0  0  0  0  0  0  0  0  0  0  0  0
    3.6730    0.4050   -3.7120 S   0  0  0  0  0  0  0  0  0  0  0  0
    5.4870    0.4790   -3.7950 C   0  0  0  0  0  0  0  0  0  0  0  0
    6.5210    0.6050   -4.6510 N   0  0  0  0  0  0  0  0  0  0  0  0
    7.6010    0.5630   -3.8780 C   0  0  0  0  0  0  0  0  0  0  0  0
    7.2070    0.4180   -2.6180 N   0  0  0  0  0  0  0  0  0  0  0  0
    5.8350    0.3610   -2.5490 N   0  0  0  0  0  0  0  0  0  0  0  0
    4.9250    0.2290   -1.5960 C   0  0  0  0  0  0  0  0  0  0  0  0
    5.1360    0.0910   -0.1930 C   0  0  0  0  0  0  0  0  0  0  0  0
    4.0890   -0.0360    0.6620 C   0  0  0  0  0  0  0  0  0  0  0  0
    4.3760   -0.2060    2.3840 Cl  0  0  0  0  0  0  0  0  0  0  0  0
   -0.3590   -0.4790    3.4070 N   0  0  0  0  0  0  0  0  0  0  0  0
   -1.4690   -0.5910    4.1060 N   0  0  0  0  0  0  0  0  0  0  0  0
   -2.5170   -0.5420    3.2680 C   0  0  0  0  0  0  0  0  0  0  0  0
   -3.8780   -0.6100    3.4580 C   0  0  0  0  0  0  0  0  0  0  0  0
   -4.7110   -0.5270    2.3660 C   0  0  0  0  0  0  0  0  0  0  0  0
   -6.1440   -0.5930    2.5050 C   0  0  0  0  0  0  0  0  0  0  0  0
   -7.3070   -0.6480    2.6280 N   0  0  0  0  0  0  0  0  0  0  0  0
  1  2  1  0
  2  3  1  0
  3  4  1  0
  4  5  2  0
  4 28  1  0
  5  6  1  0
  6  7  1  0
  6 26  2  0
  7  8  1  0
  7 24  2  0
  8  9  2  0
  8 10  1  0
 10 11  1  0
 11 12  2  0
 11 22  1  0
 12 13  1  0
 13 14  1  0
 13 20  2  0
 14 15  1  0
 15 16  2  0
 15 19  1  0
 16 17  1  0
 17 18  2  0
 18 19  1  0
 19 20  1  0
 20 21  1  0
 21 22  2  0
 22 23  1  0
 24 25  1  0
 25 26  1  0
 26 27  1  0
 27 28  2  0
 28 29  1  0
 29 30  3  0
M  END
