
     RDKit          3D

 19 19  0  0  0  0  0  0  0  0999 V2000
    1.3770   -4.7840   -2.5480 C   0  0  0  0  0  0  0  0  0  0  0  0
    1.0200   -3.8430   -1.6410 C   0  0  0  0  0  0  0  0  0  0  0  0
    0.6760   -4.2760   -0.3380 C   0  0  0  0  0  0  0  0  0  0  0  0
    0.3050   -3.4220    0.6390 C   0  0  0  0  0  0  0  0  0  0  0  0
    0.2390   -2.0440    0.4130 C   0  0  0  0  0  0  0  0  0  0  0  0
   -0.0980   -1.0300    1.2500 C   0  0  0  0  0  0  0  0  0  0  0  0
   -0.0390    0.2830    0.5970 C   0  0  0  0  0  0  0  0  0  0  0  0
   -0.2380    1.5010    0.8880 C   0  0  0  0  0  0  0  0  0  0  0  0
   -0.6350    2.1170    2.0810 N   0  0  0  0  0  0  0  0  0  0  0  0
   -0.0350    2.5230   -0.1820 N   0  0  0  0  0  0  0  0  0  0  0  0
   -0.3860    2.2260   -1.5350 C   0  0  0  0  0  0  0  0  0  0  0  0
   -1.1070    3.3410   -2.2120 C   0  0  0  0  0  0  0  0  0  0  0  0
   -0.6100    4.5780   -1.8040 O   0  0  0  0  0  0  0  0  0  0  0  0
   -0.3040    4.8270   -0.4900 C   0  0  0  0  0  0  0  0  0  0  0  0
   -0.6670    5.8680    0.1490 O   0  0  0  0  0  0  0  0  0  0  0  0
    0.5170    3.7900    0.2250 C   0  0  0  0  0  0  0  0  0  0  0  0
   -0.4340   -1.2440    2.6100 C   0  0  0  0  0  0  0  0  0  0  0  0
   -0.3780   -2.5610    3.2010 N   0  0  0  0  0  0  0  0  0  0  0  0
   -0.8780   -0.0840    3.6610 S   0  0  0  0  0  0  0  0  0  0  0  0
  1  2  2  0
  2  3  1  0
  3  4  2  3
  4  5  1  0
  5  6  2  3
  6  7  1  0
  6 17  1  0
  7  8  2  3
  8  9  1  0
  8 10  1  0
 10 11  1  0
 10 16  1  0
 11 12  1  0
 12 13  1  0
 13 14  1  0
 14 15  2  0
 14 16  1  0
 17 18  1  0
 17 19  2  0
M  END
