
     RDKit          3D

 19 19  0  0  0  0  0  0  0  0999 V2000
   -2.0050   -3.4180    2.2240 C   0  0  0  0  0  0  0  0  0  0  0  0
   -2.5480   -2.5290    3.0140 C   0  0  0  0  0  0  0  0  0  0  0  0
   -2.1990   -1.1250    2.9520 C   0  0  0  0  0  0  0  0  0  0  0  0
   -2.7600   -0.2800    3.7770 C   0  0  0  0  0  0  0  0  0  0  0  0
   -2.4060    1.1490    3.7150 C   0  0  0  0  0  0  0  0  0  0  0  0
   -1.2240   -0.6570    1.9810 N   0  0  0  0  0  0  0  0  0  0  0  0
   -1.4690   -0.6940    0.6070 C   0  0  0  0  0  0  0  0  0  0  0  0
   -2.6740   -1.1840    0.3540 O   0  0  0  0  0  0  0  0  0  0  0  0
   -0.7360   -0.3360   -0.5290 C   0  0  0  0  0  0  0  0  0  0  0  0
    0.4400    0.1630   -0.8280 C   0  0  0  0  0  0  0  0  0  0  0  0
    1.4500    0.5270    0.1490 C   0  0  0  0  0  0  0  0  0  0  0  0
    0.7510    0.3630   -2.2490 C   0  0  0  0  0  0  0  0  0  0  0  0
    1.7640    0.8150   -2.8780 C   0  0  0  0  0  0  0  0  0  0  0  0
    1.6560    0.8620   -4.7380 S   0  0  0  0  0  0  0  0  0  0  0  0
    3.2780    1.5510   -4.9390 C   0  0  0  0  0  0  0  0  0  0  0  0
    3.8490    1.8510   -6.1940 N   0  0  0  0  0  0  0  0  0  0  0  0
    3.7980    1.7140   -3.8250 N   0  0  0  0  0  0  0  0  0  0  0  0
    3.0720    1.3530   -2.6820 C   0  0  0  0  0  0  0  0  0  0  0  0
    3.6110    1.5240   -1.5460 O   0  0  0  0  0  0  0  0  0  0  0  0
  1  2  2  0
  2  3  1  0
  3  4  2  3
  3  6  1  0
  4  5  1  0
  6  7  1  0
  7  8  2  0
  7  9  1  0
  9 10  2  3
 10 11  1  0
 10 12  1  0
 12 13  2  3
 13 14  1  0
 13 18  1  0
 14 15  1  0
 15 16  1  0
 15 17  2  0
 17 18  1  0
 18 19  2  0
M  END
