
     RDKit          3D

 11 11  0  0  0  0  0  0  0  0999 V2000
   -2.1510   -0.9320    1.2500 O   0  0  0  0  0  0  0  0  0  0  0  0
   -1.3770   -1.3000    0.1530 C   0  0  0  0  0  0  0  0  0  0  0  0
   -0.3670   -0.2310   -0.0990 C   0  0  1  0  0  0  0  0  0  0  0  0
   -1.0730    1.0780   -0.3850 C   0  0  0  0  0  0  0  0  0  0  0  0
   -0.1860    2.1140   -0.6280 O   0  0  0  0  0  0  0  0  0  0  0  0
    0.6330   -0.0810    1.0240 C   0  0  0  0  0  0  0  0  0  0  0  0
    1.9010    0.2370    0.2750 C   0  0  2  0  0  0  0  0  0  0  0  0
    2.5570    1.3470    0.7580 O   0  0  0  0  0  0  0  0  0  0  0  0
    1.5540    0.3560   -1.0750 O   0  0  0  0  0  0  0  0  0  0  0  0
    0.5730   -0.6080   -1.2270 C   0  0  2  0  0  0  0  0  0  0  0  0
   -0.0170   -0.5400   -2.4690 O   0  0  0  0  0  0  0  0  0  0  0  0
  1  2  1  0
  3  2  1  1
  3  4  1  0
  3  6  1  0
  3 10  1  0
  4  5  1  0
  6  7  1  0
  7  8  1  1
  7  9  1  0
  9 10  1  0
 10 11  1  6
M  END
