
     RDKit          3D

 19 19  0  0  0  0  0  0  0  0999 V2000
   -6.8590    0.9140   -0.5400 C   0  0  0  0  0  0  0  0  0  0  0  0
   -6.8370   -0.4940   -1.0550 C   0  0  0  0  0  0  0  0  0  0  0  0
   -5.7430   -1.2890   -0.3760 C   0  0  0  0  0  0  0  0  0  0  0  0
   -4.4510   -0.6300   -0.6680 C   0  0  0  0  0  0  0  0  0  0  0  0
   -4.3920    0.4090   -1.3630 O   0  0  0  0  0  0  0  0  0  0  0  0
   -3.2620   -1.1920   -0.1470 N   0  0  0  0  0  0  0  0  0  0  0  0
   -2.0000   -0.6260   -0.3780 N   0  0  0  0  0  0  0  0  0  0  0  0
   -0.9170   -0.6430    0.5060 C   0  0  0  0  0  0  0  0  0  0  0  0
   -1.0730   -1.2250    1.6290 O   0  0  0  0  0  0  0  0  0  0  0  0
    0.3500   -0.0360    0.2020 N   0  0  0  0  0  0  0  0  0  0  0  0
    1.3890   -0.1120    1.1780 C   0  0  0  0  0  0  0  0  0  0  0  0
    2.6400    0.5590    0.7410 C   0  0  0  0  0  0  0  0  0  0  0  0
    3.7360   -0.1670    0.6470 C   0  0  0  0  0  0  0  0  0  0  0  0
    5.0420    0.3350    0.2340 C   0  0  0  0  0  0  0  0  0  0  0  0
    6.0450   -0.5150    0.1880 C   0  0  0  0  0  0  0  0  0  0  0  0
    7.4460   -0.2570   -0.1920 C   0  0  0  0  0  0  0  0  0  0  0  0
    7.7740    1.4360   -0.6450 S   0  0  0  0  0  0  0  0  0  0  0  0
    6.2630    2.3410   -0.4920 C   0  0  0  0  0  0  0  0  0  0  0  0
    5.1520    1.7420   -0.1010 C   0  0  0  0  0  0  0  0  0  0  0  0
  1  2  1  0
  2  3  1  0
  3  4  1  0
  4  5  2  0
  4  6  1  0
  6  7  1  0
  7  8  1  0
  8  9  2  0
  8 10  1  0
 10 11  1  0
 11 12  1  0
 12 13  2  3
 13 14  1  0
 14 15  2  0
 14 19  1  0
 15 16  1  0
 16 17  1  0
 17 18  1  0
 18 19  2  0
M  END
