
     RDKit          3D

 23 25  0  0  0  0  0  0  0  0999 V2000
   -5.5540   -1.6320    0.6530 O   0  0  0  0  0  0  0  0  0  0  0  0
   -5.4200   -0.5490   -0.1990 C   0  0  0  0  0  0  0  0  0  0  0  0
   -3.9900   -0.3490   -0.6740 C   0  0  0  0  0  0  0  0  0  0  0  0
   -3.1190   -0.1570    0.4320 N   0  0  0  0  0  0  0  0  0  0  0  0
   -1.7860    0.3020    0.3140 C   0  0  0  0  0  0  0  0  0  0  0  0
   -0.7070   -0.5990    0.2410 C   0  0  0  0  0  0  0  0  0  0  0  0
    0.5930   -0.1550    0.1550 C   0  0  0  0  0  0  0  0  0  0  0  0
    1.6830   -1.1200    0.1290 C   0  0  0  0  0  0  0  0  0  0  0  0
    1.6650   -2.4420    0.2240 N   0  0  0  0  0  0  0  0  0  0  0  0
    2.8990   -2.8920    0.1010 N   0  0  0  0  0  0  0  0  0  0  0  0
    3.7670   -1.8980   -0.0780 C   0  0  0  0  0  0  0  0  0  0  0  0
    5.1330   -1.8110   -0.2420 C   0  0  0  0  0  0  0  0  0  0  0  0
    5.7920   -0.6680   -0.3980 N   0  0  0  0  0  0  0  0  0  0  0  0
    5.0320    0.4690   -0.3880 C   0  0  0  0  0  0  0  0  0  0  0  0
    3.6540    0.4370   -0.2110 C   0  0  0  0  0  0  0  0  0  0  0  0
    2.9930   -0.7520   -0.0540 C   0  0  0  0  0  0  0  0  0  0  0  0
    0.8410    1.1620    0.1320 N   0  0  0  0  0  0  0  0  0  0  0  0
   -0.1230    2.0940    0.1960 C   0  0  0  0  0  0  0  0  0  0  0  0
    0.2450    3.5130    0.1630 C   0  0  2  0  0  0  0  0  0  0  0  0
    1.5590    3.7210   -0.2860 F   0  0  0  0  0  0  0  0  0  0  0  0
    0.3160    4.0150    1.4880 F   0  0  0  0  0  0  0  0  0  0  0  0
   -0.5530    4.3390   -0.5640 F   0  0  0  0  0  0  0  0  0  0  0  0
   -1.4200    1.6400    0.2870 C   0  0  0  0  0  0  0  0  0  0  0  0
  1  2  1  0
  2  3  1  0
  3  4  1  0
  4  5  1  0
  5  6  2  0
  5 23  1  0
  6  7  1  0
  7  8  1  0
  7 17  2  0
  8  9  2  0
  8 16  1  0
  9 10  1  0
 10 11  1  0
 11 12  2  0
 11 16  1  0
 12 13  1  0
 13 14  2  0
 14 15  1  0
 15 16  2  0
 17 18  1  0
 18 19  1  0
 18 23  2  0
 19 20  1  6
 19 21  1  0
 19 22  1  0
M  END
