
     RDKit          3D

 14 14  0  0  0  0  0  0  0  0999 V2000
   -3.1250    0.8130    0.2700 C   0  0  0  0  0  0  0  0  0  0  0  0
   -2.1970   -0.0440   -0.5100 C   0  0  0  0  0  0  0  0  0  0  0  0
   -0.9600    0.4020   -0.7110 C   0  0  0  0  0  0  0  0  0  0  0  0
   -0.4410    1.6780   -0.2210 C   0  0  0  0  0  0  0  0  0  0  0  0
    0.5910    1.6120    0.8210 C   0  0  0  0  0  0  0  0  0  0  0  0
    1.8400    0.8890    0.5790 C   0  0  0  0  0  0  0  0  0  0  0  0
    3.0630    1.4700    0.4850 C   0  0  0  0  0  0  0  0  0  0  0  0
    4.1140    0.4950    0.2480 C   0  0  0  0  0  0  0  0  0  0  0  0
    3.3940   -0.7950    0.2480 C   0  0  0  0  0  0  0  0  0  0  0  0
    2.1030   -0.5270    0.4360 C   0  0  0  0  0  0  0  0  0  0  0  0
    1.1260   -1.6480    0.5430 C   0  0  0  0  0  0  0  0  0  0  0  0
   -2.6850   -1.3310   -1.0160 C   0  0  0  0  0  0  0  0  0  0  0  0
   -3.1340   -2.2300    0.1010 C   0  0  0  0  0  0  0  0  0  0  0  0
   -3.0620   -1.8510    1.2390 O   0  0  0  0  0  0  0  0  0  0  0  0
  1  2  1  0
  2  3  2  3
  2 12  1  0
  3  4  1  0
  4  5  1  0
  5  6  1  0
  6  7  2  0
  6 10  1  0
  7  8  1  0
  8  9  1  0
  9 10  2  0
 10 11  1  0
 12 13  1  0
 13 14  2  0
M  END
