
     RDKit          3D

 13 12  0  0  0  0  0  0  0  0999 V2000
    0.6500    2.8250   -1.2640 C   0  0  0  0  0  0  0  0  0  0  0  0
    0.6040    1.3540   -1.6260 C   0  0  0  0  0  0  0  0  0  0  0  0
    0.4910    0.5160   -0.4110 C   0  0  0  0  0  0  0  0  0  0  0  0
   -0.5230   -0.2800   -0.2170 C   0  0  0  0  0  0  0  0  0  0  0  0
   -1.6200   -0.4360   -1.1280 C   0  0  0  0  0  0  0  0  0  0  0  0
   -2.6580   -1.2400   -0.9640 C   0  0  0  0  0  0  0  0  0  0  0  0
   -2.7290   -2.0710    0.2530 C   0  0  0  0  0  0  0  0  0  0  0  0
   -3.7570   -1.3320   -1.9440 C   0  0  0  0  0  0  0  0  0  0  0  0
    1.5960    0.6440    0.6000 C   0  0  0  0  0  0  0  0  0  0  0  0
    1.3690   -0.2270    1.8160 C   0  0  0  0  0  0  0  0  0  0  0  0
    2.5760    0.0490    2.7260 C   0  0  0  0  0  0  0  0  0  0  0  0
    3.7970   -0.3170    1.9900 C   0  0  0  0  0  0  0  0  0  0  0  0
    3.9420   -1.4230    1.5070 O   0  0  0  0  0  0  0  0  0  0  0  0
  1  2  1  0
  2  3  1  0
  3  4  2  3
  3  9  1  0
  4  5  1  0
  5  6  2  3
  6  7  1  0
  6  8  1  0
  9 10  1  0
 10 11  1  0
 11 12  1  0
 12 13  2  0
M  END
