
     RDKit          3D

 33 36  0  0  0  0  0  0  0  0999 V2000
   -8.0550    2.8730   -0.8390 C   0  0  0  0  0  0  0  0  0  0  0  0
   -6.7690    3.4390   -0.6340 O   0  0  0  0  0  0  0  0  0  0  0  0
   -5.7210    2.5390   -0.4050 C   0  0  0  0  0  0  0  0  0  0  0  0
   -4.4980    3.0290   -0.2090 N   0  0  0  0  0  0  0  0  0  0  0  0
   -3.4520    2.2290    0.0170 C   0  0  0  0  0  0  0  0  0  0  0  0
   -3.6010    0.8480    0.0570 C   0  0  0  0  0  0  0  0  0  0  0  0
   -2.4960    0.0210    0.3370 N   0  0  0  0  0  0  0  0  0  0  0  0
   -1.2030    0.5460    0.5440 C   0  0  0  0  0  0  0  0  0  0  0  0
   -1.0740    1.4970    1.4000 N   0  0  0  0  0  0  0  0  0  0  0  0
    0.1240    2.1480    1.7430 C   0  0  0  0  0  0  0  0  0  0  0  0
    0.2330    3.0460    3.2430 Cl  0  0  0  0  0  0  0  0  0  0  0  0
    1.1530    2.1040    0.9830 N   0  0  0  0  0  0  0  0  0  0  0  0
    2.3750    2.7240    1.2540 C   0  0  0  0  0  0  0  0  0  0  0  0
    3.5770    2.2790    1.0820 C   0  0  0  0  0  0  0  0  0  0  0  0
    3.9500    0.9780    0.5450 C   0  0  0  0  0  0  0  0  0  0  0  0
    3.0920    0.0040    0.1450 C   0  0  0  0  0  0  0  0  0  0  0  0
    3.5290   -1.2070   -0.3580 C   0  0  0  0  0  0  0  0  0  0  0  0
    4.8820   -1.4290   -0.4540 C   0  0  0  0  0  0  0  0  0  0  0  0
    5.8290   -0.4800   -0.0650 C   0  0  0  0  0  0  0  0  0  0  0  0
    5.3120    0.6740    0.4150 C   0  0  0  0  0  0  0  0  0  0  0  0
    7.3730   -1.2310   -0.3750 S   0  0  0  0  0  0  0  0  0  0  0  0
    8.0460    0.1670   -0.8350 C   0  0  0  0  0  0  0  0  0  0  0  0
    7.5030   -1.6750   -2.0620 O   0  0  0  0  0  0  0  0  0  0  0  0
    6.7320   -2.5590   -0.2220 N   0  0  0  0  0  0  0  0  0  0  0  0
    5.5150   -2.6200   -0.9280 N   0  0  0  0  0  0  0  0  0  0  0  0
   -4.8670    0.3450   -0.1480 C   0  0  0  0  0  0  0  0  0  0  0  0
   -5.0970   -1.0820   -0.1110 C   0  0  0  0  0  0  0  0  0  0  0  0
   -4.4060   -2.0030   -0.8510 C   0  0  0  0  0  0  0  0  0  0  0  0
   -4.6650   -3.3760   -0.7480 C   0  0  0  0  0  0  0  0  0  0  0  0
   -5.6250   -3.8460    0.1010 C   0  0  0  0  0  0  0  0  0  0  0  0
   -6.3300   -2.9300    0.8520 C   0  0  0  0  0  0  0  0  0  0  0  0
   -6.0820   -1.5660    0.7590 C   0  0  0  0  0  0  0  0  0  0  0  0
   -5.8700    1.2240   -0.3690 N   0  0  0  0  0  0  0  0  0  0  0  0
  1  2  1  0
  2  3  1  0
  3  4  2  0
  3 33  1  0
  4  5  1  0
  5  6  2  0
  6  7  1  0
  6 26  1  0
  7  8  1  0
  8  9  2  3
  9 10  1  0
 10 11  1  0
 10 12  2  3
 12 13  1  0
 13 14  2  3
 14 15  1  0
 15 16  2  0
 15 20  1  0
 16 17  1  0
 17 18  2  0
 18 19  1  0
 18 25  1  0
 19 20  2  0
 19 21  1  0
 21 22  1  0
 21 23  2  0
 21 24  1  0
 24 25  1  0
 26 27  1  0
 26 33  2  0
 27 28  2  0
 27 32  1  0
 28 29  1  0
 29 30  2  0
 30 31  1  0
 31 32  2  0
M  CHG  1  25   1
M  END
