
     RDKit          3D

 33 36  0  0  0  0  0  0  0  0999 V2000
   -5.4310   -4.3590   -0.3820 C   0  0  0  0  0  0  0  0  0  0  0  0
   -4.3740   -3.6510   -0.0380 C   0  0  0  0  0  0  0  0  0  0  0  0
   -3.5160   -3.1990   -1.0550 C   0  0  0  0  0  0  0  0  0  0  0  0
   -2.4440   -2.4820   -0.7290 N   0  0  0  0  0  0  0  0  0  0  0  0
   -2.1300   -2.1610    0.5440 C   0  0  0  0  0  0  0  0  0  0  0  0
   -0.9110   -1.3550    0.8250 C   0  0  0  0  0  0  0  0  0  0  0  0
   -0.2340   -1.0450   -0.4650 C   0  0  1  0  0  0  0  0  0  0  0  0
   -1.2990   -0.1190   -1.5450 S   0  0  0  0  0  0  0  0  0  0  0  0
   -1.6770    1.5160   -1.0700 C   0  0  0  0  0  0  0  0  0  0  0  0
   -2.5810    2.1780   -1.8630 N   0  0  0  0  0  0  0  0  0  0  0  0
   -2.9260    3.4230   -1.5530 C   0  0  0  0  0  0  0  0  0  0  0  0
   -3.9140    4.1540   -2.4160 C   0  0  0  0  0  0  0  0  0  0  0  0
   -2.3990    4.0670   -0.4550 C   0  0  0  0  0  0  0  0  0  0  0  0
   -1.5050    3.3750    0.3070 C   0  0  0  0  0  0  0  0  0  0  0  0
   -0.9740    3.8800    1.3260 O   0  0  0  0  0  0  0  0  0  0  0  0
   -1.1430    2.0950   -0.0020 N   0  0  0  0  0  0  0  0  0  0  0  0
    1.1650   -0.6750   -0.4300 C   0  0  0  0  0  0  0  0  0  0  0  0
    1.8980   -0.9240   -1.4200 O   0  0  0  0  0  0  0  0  0  0  0  0
    1.7600   -0.0380    0.6760 N   0  0  0  0  0  0  0  0  0  0  0  0
    3.1540    0.3280    0.6940 C   0  0  0  0  0  0  0  0  0  0  0  0
    3.6570    0.9440    1.8050 C   0  0  0  0  0  0  0  0  0  0  0  0
    4.9490    1.3210    1.9120 N   0  0  0  0  0  0  0  0  0  0  0  0
    5.7980    1.0870    0.8830 C   0  0  0  0  0  0  0  0  0  0  0  0
    7.1150    1.4540    0.9510 C   0  0  0  0  0  0  0  0  0  0  0  0
    7.9160    1.2030   -0.0890 N   0  0  0  0  0  0  0  0  0  0  0  0
    7.4930    0.5960   -1.2250 C   0  0  0  0  0  0  0  0  0  0  0  0
    6.1660    0.2310   -1.2840 C   0  0  0  0  0  0  0  0  0  0  0  0
    5.2840    0.4660   -0.2340 C   0  0  0  0  0  0  0  0  0  0  0  0
    3.9820    0.0890   -0.3320 N   0  0  0  0  0  0  0  0  0  0  0  0
   -2.9410   -2.5820    1.5720 C   0  0  0  0  0  0  0  0  0  0  0  0
   -4.0850   -3.3420    1.2700 C   0  0  0  0  0  0  0  0  0  0  0  0
   -4.8510   -3.7380    2.2670 C   0  0  0  0  0  0  0  0  0  0  0  0
   -4.4110   -3.3010    3.9190 Cl  0  0  0  0  0  0  0  0  0  0  0  0
  1  2  2  0
  2  3  1  0
  2 31  1  0
  3  4  2  0
  4  5  1  0
  5  6  1  0
  5 30  2  0
  7  6  1  1
  7  8  1  0
  7 17  1  0
  8  9  1  0
  9 10  2  0
  9 16  1  0
 10 11  1  0
 11 12  1  0
 11 13  2  0
 13 14  1  0
 14 15  2  0
 14 16  1  0
 17 18  2  0
 17 19  1  0
 19 20  1  0
 20 21  2  0
 20 29  1  0
 21 22  1  0
 22 23  2  0
 23 24  1  0
 23 28  1  0
 24 25  2  0
 25 26  1  0
 26 27  2  0
 27 28  1  0
 28 29  2  0
 30 31  1  0
 31 32  2  3
 32 33  1  0
M  CHG  1  25   1
M  END
