
     RDKit          3D

 33 35  0  0  0  0  0  0  0  0999 V2000
    5.0150    2.6670    0.6420 C   0  0  0  0  0  0  0  0  0  0  0  0
    3.7140    1.9550    0.5910 C   0  0  0  0  0  0  0  0  0  0  0  0
    3.4940    1.0690   -0.6030 C   0  0  2  0  0  0  0  0  0  0  0  0
    2.1660    0.4320   -0.5320 N   0  0  0  0  0  0  0  0  0  0  0  0
    2.0550   -0.5640    0.4660 C   0  0  0  0  0  0  0  0  0  0  0  0
    0.6700   -0.9990    0.7860 C   0  0  0  0  0  0  0  0  0  0  0  0
   -0.3260   -0.4580    0.1140 C   0  0  0  0  0  0  0  0  0  0  0  0
   -1.7670   -0.7460    0.2790 C   0  0  0  0  0  0  0  0  0  0  0  0
   -2.7090    0.2710   -0.2310 C   0  0  0  0  0  0  0  0  0  0  0  0
   -2.6460    1.5750    0.4860 C   0  0  1  0  0  0  0  0  0  0  0  0
   -2.9560    1.4280    1.9680 C   0  0  0  0  0  0  0  0  0  0  0  0
   -1.3740    2.2440    0.3980 N   0  0  0  0  0  0  0  0  0  0  0  0
   -3.6840    2.4750   -0.1000 C   0  0  0  0  0  0  0  0  0  0  0  0
   -3.3270    3.5840   -0.5440 O   0  0  0  0  0  0  0  0  0  0  0  0
   -5.0590    2.1240   -0.1730 N   0  0  0  0  0  0  0  0  0  0  0  0
   -6.0620    2.9960   -0.7380 C   0  0  0  0  0  0  0  0  0  0  0  0
   -5.7920    3.3320   -2.1880 C   0  0  0  0  0  0  0  0  0  0  0  0
   -6.8190    4.1750   -2.6270 O   0  0  0  0  0  0  0  0  0  0  0  0
   -2.3100   -1.7990    0.8470 N   0  0  0  0  0  0  0  0  0  0  0  0
   -1.6670   -2.9040    1.4380 N   0  0  0  0  0  0  0  0  0  0  0  0
   -2.3470   -4.1510    1.3560 C   0  0  2  0  0  0  0  0  0  0  0  0
   -1.8860   -5.3220    0.6010 C   0  0  0  0  0  0  0  0  0  0  0  0
   -2.9470   -4.4750   -0.0090 C   0  0  0  0  0  0  0  0  0  0  0  0
   -0.3960   -2.8070    2.1010 C   0  0  0  0  0  0  0  0  0  0  0  0
   -0.2490   -3.7700    3.2210 C   0  0  0  0  0  0  0  0  0  0  0  0
   -0.0430   -5.0770    2.8250 O   0  0  0  0  0  0  0  0  0  0  0  0
    1.1420   -5.2180    2.0940 C   0  0  0  0  0  0  0  0  0  0  0  0
    0.5720   -2.0080    1.8210 N   0  0  0  0  0  0  0  0  0  0  0  0
    4.5300    0.0490   -0.8550 C   0  0  0  0  0  0  0  0  0  0  0  0
    4.6630   -0.2200   -2.3680 C   0  0  0  0  0  0  0  0  0  0  0  0
    5.4330    0.9880   -2.9120 C   0  0  0  0  0  0  0  0  0  0  0  0
    4.6870    2.2160   -2.5130 C   0  0  0  0  0  0  0  0  0  0  0  0
    3.3850    1.9910   -1.8250 C   0  0  0  0  0  0  0  0  0  0  0  0
  1  2  1  0
  3  2  1  1
  3  4  1  0
  3 29  1  0
  3 33  1  0
  4  5  1  0
  5  6  1  0
  6  7  2  0
  6 28  1  0
  7  8  1  0
  8  9  1  0
  8 19  2  0
  9 10  1  0
 10 11  1  1
 10 12  1  0
 10 13  1  0
 13 14  2  0
 13 15  1  0
 15 16  1  0
 16 17  1  0
 17 18  1  0
 19 20  1  0
 21 20  1  6
 20 24  1  0
 21 22  1  0
 21 23  1  0
 22 23  1  0
 24 25  1  0
 24 28  2  0
 25 26  1  0
 26 27  1  0
 29 30  1  0
 30 31  1  0
 31 32  1  0
 32 33  1  0
M  CHG  2   4   1  12   1
M  END
