
     RDKit          3D

 32 35  0  0  0  0  0  0  0  0999 V2000
    0.2420   -2.6850    1.3060 C   0  0  0  0  0  0  0  0  0  0  0  0
    1.1000   -1.5570    0.8210 C   0  0  0  0  0  0  0  0  0  0  0  0
    2.2510   -1.3690    1.4170 N   0  0  0  0  0  0  0  0  0  0  0  0
    3.2680   -0.6710    0.8780 C   0  0  0  0  0  0  0  0  0  0  0  0
    4.3560   -0.5620    1.5000 O   0  0  0  0  0  0  0  0  0  0  0  0
    3.0660   -0.1110   -0.3140 N   0  0  0  0  0  0  0  0  0  0  0  0
    4.2430    0.0720   -1.2170 C   0  0  0  0  0  0  0  0  0  0  0  0
    5.4870    0.1010   -0.4320 C   0  0  0  0  0  0  0  0  0  0  0  0
    6.3210   -1.0190   -0.2380 C   0  0  0  0  0  0  0  0  0  0  0  0
    7.3450   -0.5540    0.5100 N   0  0  0  0  0  0  0  0  0  0  0  0
    7.1600    0.7720    0.7720 N   0  0  0  0  0  0  0  0  0  0  0  0
    6.0370    1.1330    0.1910 C   0  0  0  0  0  0  0  0  0  0  0  0
    5.3570    2.5060    0.3720 C   0  0  2  0  0  0  0  0  0  0  0  0
    6.3750    3.5310    0.0700 C   0  0  0  0  0  0  0  0  0  0  0  0
    5.1370    2.4670    1.8450 C   0  0  0  0  0  0  0  0  0  0  0  0
    4.9600    2.4280    3.1390 N   0  0  0  0  0  0  0  0  0  0  0  0
    1.8740   -0.2300   -0.9800 C   0  0  0  0  0  0  0  0  0  0  0  0
    1.7060    0.3480   -2.0550 O   0  0  0  0  0  0  0  0  0  0  0  0
    0.8490   -0.9700   -0.4260 C   0  0  0  0  0  0  0  0  0  0  0  0
   -0.4100   -1.3290   -1.0830 C   0  0  0  0  0  0  0  0  0  0  0  0
   -1.6150   -1.1910   -0.3400 N   0  0  0  0  0  0  0  0  0  0  0  0
   -2.6590   -2.0450   -0.9500 C   0  0  0  0  0  0  0  0  0  0  0  0
   -3.8100   -2.0280    0.0720 C   0  0  0  0  0  0  0  0  0  0  0  0
   -4.4940   -0.7790   -0.1840 N   0  0  1  0  0  0  0  0  0  0  0  0
   -5.2400   -0.2660    0.9470 C   0  0  0  0  0  0  0  0  0  0  0  0
   -6.3010    0.5680    0.4370 C   0  0  0  0  0  0  0  0  0  0  0  0
   -7.3050    1.2930    1.0450 C   0  0  0  0  0  0  0  0  0  0  0  0
   -8.2050    1.9600    0.3110 C   0  0  0  0  0  0  0  0  0  0  0  0
   -8.0800    1.9060   -1.0910 C   0  0  0  0  0  0  0  0  0  0  0  0
   -6.6650    0.8600   -1.3430 S   0  0  0  0  0  0  0  0  0  0  0  0
   -3.5980    0.2200   -0.7200 C   0  0  0  0  0  0  0  0  0  0  0  0
   -2.1820    0.1080   -0.2150 C   0  0  0  0  0  0  0  0  0  0  0  0
  1  2  1  0
  2  3  1  0
  2 19  2  0
  3  4  1  0
  4  5  2  0
  4  6  1  0
  6  7  1  0
  6 17  1  0
  7  8  1  0
  8  9  1  0
  8 12  2  0
  9 10  2  0
 10 11  1  0
 11 12  1  0
 12 13  1  0
 13 14  1  1
 13 15  1  0
 15 16  3  0
 17 18  2  0
 17 19  1  0
 19 20  1  0
 20 21  1  0
 21 22  1  0
 21 32  1  0
 22 23  1  0
 23 24  1  0
 24 25  1  1
 24 31  1  0
 25 26  1  0
 26 27  2  0
 26 30  1  0
 27 28  1  0
 28 29  2  0
 29 30  1  0
 31 32  1  0
M  CHG  1  24   1
M  END
