
     RDKit          3D

 21 22  0  0  0  0  0  0  0  0999 V2000
   -1.3370    2.6630   -0.8900 O   0  0  0  0  0  0  0  0  0  0  0  0
   -2.1650    1.8660   -0.0980 C   0  0  0  0  0  0  0  0  0  0  0  0
   -2.7340    0.7790   -0.9690 C   0  0  1  0  0  0  0  0  0  0  0  0
   -1.7980   -0.0390   -1.5650 O   0  0  0  0  0  0  0  0  0  0  0  0
   -1.0300   -0.6850   -0.6090 C   0  0  1  0  0  0  0  0  0  0  0  0
   -0.0670    0.0810   -0.0110 O   0  0  0  0  0  0  0  0  0  0  0  0
    1.2340   -0.2260   -0.2980 C   0  0  1  0  0  0  0  0  0  0  0  0
    1.7900    0.9680   -1.0740 C   0  0  2  0  0  0  0  0  0  0  0  0
    1.4250    0.9110   -2.4110 O   0  0  0  0  0  0  0  0  0  0  0  0
    3.2960    1.0150   -1.0050 C   0  0  0  0  0  0  0  0  0  0  0  0
    3.7960    1.0420    0.3380 N   0  0  0  0  0  0  0  0  0  0  0  0
    2.7690    0.7600    1.3230 C   0  0  0  0  0  0  0  0  0  0  0  0
    1.9900   -0.4770    0.9660 C   0  0  2  0  0  0  0  0  0  0  0  0
    2.9060   -1.6760    0.8820 C   0  0  0  0  0  0  0  0  0  0  0  0
    3.5680   -1.8330    2.1000 O   0  0  0  0  0  0  0  0  0  0  0  0
   -1.8550   -1.5190    0.2970 C   0  0  1  0  0  0  0  0  0  0  0  0
   -1.8980   -1.0950    1.6200 O   0  0  0  0  0  0  0  0  0  0  0  0
   -3.2890   -1.4820   -0.2170 C   0  0  1  0  0  0  0  0  0  0  0  0
   -4.1350   -2.2310    0.6020 O   0  0  0  0  0  0  0  0  0  0  0  0
   -3.7720   -0.0460   -0.2880 C   0  0  2  0  0  0  0  0  0  0  0  0
   -4.9670   -0.0410   -0.9830 O   0  0  0  0  0  0  0  0  0  0  0  0
  1  2  1  0
  3  2  1  1
  3  4  1  0
  3 20  1  0
  4  5  1  0
  5  6  1  1
  5 16  1  0
  7  6  1  1
  7  8  1  0
  7 13  1  0
  8  9  1  6
  8 10  1  0
 10 11  1  0
 11 12  1  0
 12 13  1  0
 13 14  1  6
 14 15  1  0
 16 17  1  1
 16 18  1  0
 18 19  1  1
 18 20  1  0
 20 21  1  6
M  CHG  1  11   1
M  END
