
     RDKit          3D

 18 20  0  0  0  0  0  0  0  0999 V2000
    4.2560    0.5250    0.2090 C   0  0  0  0  0  0  0  0  0  0  0  0
    2.8830    0.4640    0.7060 C   0  0  0  0  0  0  0  0  0  0  0  0
    1.8750    0.0920   -0.1090 C   0  0  0  0  0  0  0  0  0  0  0  0
    2.2550   -0.2300   -1.4680 C   0  0  0  0  0  0  0  0  0  0  0  0
    1.8520   -1.8860   -1.9910 Cl  0  0  0  0  0  0  0  0  0  0  0  0
    0.5880    0.0210    0.5670 C   0  0  0  0  0  0  0  0  0  0  0  0
    0.6000    0.1120    1.9510 N   0  0  0  0  0  0  0  0  0  0  0  0
   -0.4820    0.0630    2.7190 C   0  0  0  0  0  0  0  0  0  0  0  0
   -0.4390    0.1500    3.9790 O   0  0  0  0  0  0  0  0  0  0  0  0
   -1.6990   -0.0900    2.0990 C   0  0  0  0  0  0  0  0  0  0  0  0
   -3.0170   -0.1960    2.4820 C   0  0  0  0  0  0  0  0  0  0  0  0
   -3.7540   -0.3440    1.3400 N   0  0  0  0  0  0  0  0  0  0  0  0
   -2.9490   -0.3310    0.2860 N   0  0  0  0  0  0  0  0  0  0  0  0
   -1.7070   -0.1780    0.7270 C   0  0  0  0  0  0  0  0  0  0  0  0
   -0.5870   -0.1230   -0.0370 N   0  0  0  0  0  0  0  0  0  0  0  0
   -0.7630   -0.1750   -1.4850 C   0  0  0  0  0  0  0  0  0  0  0  0
   -2.1420    0.5110   -1.7780 C   0  0  0  0  0  0  0  0  0  0  0  0
   -3.1680   -0.4410   -1.1630 C   0  0  0  0  0  0  0  0  0  0  0  0
  1  2  1  0
  2  3  2  3
  3  4  1  0
  3  6  1  0
  4  5  1  0
  6  7  2  0
  6 15  1  0
  7  8  1  0
  8  9  2  0
  8 10  1  0
 10 11  1  0
 10 14  2  0
 11 12  2  0
 12 13  1  0
 13 14  1  0
 13 18  1  0
 14 15  1  0
 15 16  1  0
 16 17  1  0
 17 18  1  0
M  END
