
     RDKit          3D

 18 20  0  0  0  0  0  0  0  0999 V2000
   -3.0570   -2.2370    3.1120 Cl  0  0  0  0  0  0  0  0  0  0  0  0
   -2.8230   -2.0940    1.3710 C   0  0  0  0  0  0  0  0  0  0  0  0
   -1.6280   -1.2980    1.0170 C   0  0  0  0  0  0  0  0  0  0  0  0
   -1.6770   -0.2040    0.3120 C   0  0  0  0  0  0  0  0  0  0  0  0
   -2.9100    0.2600   -0.1430 O   0  0  0  0  0  0  0  0  0  0  0  0
   -3.0460    1.6820   -0.2630 C   0  0  0  0  0  0  0  0  0  0  0  0
   -2.0670    2.1530   -1.3040 C   0  0  0  0  0  0  0  0  0  0  0  0
   -0.8570    1.2900   -1.4160 C   0  0  0  0  0  0  0  0  0  0  0  0
   -0.5240    0.6260   -0.0710 C   0  0  2  0  0  0  0  0  0  0  0  0
    0.7210   -0.0410   -0.1450 N   0  0  0  0  0  0  0  0  0  0  0  0
    1.0190   -1.1490   -1.0310 C   0  0  0  0  0  0  0  0  0  0  0  0
    2.4940   -1.2440   -1.3500 C   0  0  0  0  0  0  0  0  0  0  0  0
    3.3520   -1.2650   -0.1330 C   0  0  0  0  0  0  0  0  0  0  0  0
    2.9910   -0.1700    0.7160 N   0  0  0  0  0  0  0  0  0  0  0  0
    3.7640    0.4530    1.6210 N   0  0  0  0  0  0  0  0  0  0  0  0
    3.0400    1.4160    2.1930 C   0  0  0  0  0  0  0  0  0  0  0  0
    1.8380    1.3730    1.6360 N   0  0  0  0  0  0  0  0  0  0  0  0
    1.7760    0.3900    0.7060 C   0  0  0  0  0  0  0  0  0  0  0  0
  1  2  1  0
  2  3  1  0
  3  4  2  3
  4  5  1  0
  4  9  1  0
  5  6  1  0
  6  7  1  0
  7  8  1  0
  8  9  1  0
  9 10  1  6
 10 11  1  0
 10 18  1  0
 11 12  1  0
 12 13  1  0
 13 14  1  0
 14 15  1  0
 14 18  1  0
 15 16  2  0
 16 17  1  0
 17 18  2  0
M  END
