
     RDKit          3D

 18 20  0  0  0  0  0  0  0  0999 V2000
    5.0050   -0.1850    0.1870 C   0  0  0  0  0  0  0  0  0  0  0  0
    3.7520    0.3110   -0.3860 N   0  0  0  0  0  0  0  0  0  0  0  0
    3.3110    1.5780   -0.4250 C   0  0  0  0  0  0  0  0  0  0  0  0
    2.1050    1.5940   -1.0440 N   0  0  0  0  0  0  0  0  0  0  0  0
    1.7690    0.3420   -1.4020 C   0  0  0  0  0  0  0  0  0  0  0  0
    0.5250   -0.0590   -2.1020 C   0  0  0  0  0  0  0  0  0  0  0  0
   -0.5650   -0.3890   -1.1640 C   0  0  0  0  0  0  0  0  0  0  0  0
   -1.5130    0.3750   -0.6210 N   0  0  0  0  0  0  0  0  0  0  0  0
   -2.2800   -0.3580    0.1700 C   0  0  0  0  0  0  0  0  0  0  0  0
   -3.4370    0.0220    0.9770 C   0  0  0  0  0  0  0  0  0  0  0  0
   -4.1840   -0.7390    1.7590 C   0  0  0  0  0  0  0  0  0  0  0  0
   -5.2340    0.0660    2.3710 C   0  0  0  0  0  0  0  0  0  0  0  0
   -6.4700   -0.4770    3.4800 Cl  0  0  0  0  0  0  0  0  0  0  0  0
   -5.0390    1.2720    1.9060 C   0  0  0  0  0  0  0  0  0  0  0  0
   -4.0110    1.3610    1.0780 C   0  0  0  0  0  0  0  0  0  0  0  0
   -1.7920   -1.6120    0.1150 N   0  0  0  0  0  0  0  0  0  0  0  0
   -0.7610   -1.6100   -0.6920 O   0  0  0  0  0  0  0  0  0  0  0  0
    2.8140   -0.4520   -0.9810 C   0  0  0  0  0  0  0  0  0  0  0  0
  1  2  1  0
  2  3  1  0
  2 18  1  0
  3  4  2  0
  4  5  1  0
  5  6  1  0
  5 18  2  0
  6  7  1  0
  7  8  2  0
  7 17  1  0
  8  9  1  0
  9 10  1  0
  9 16  2  0
 10 11  2  0
 10 15  1  0
 11 12  1  0
 12 13  1  0
 12 14  2  0
 14 15  2  0
 16 17  1  0
M  END
