
     RDKit          3D

 24 25  0  0  0  0  0  0  0  0999 V2000
   -3.5230   -2.6630    0.6760 N   0  0  0  0  0  0  0  0  0  0  0  0
   -3.2480   -1.3470    1.0940 C   0  0  0  0  0  0  0  0  0  0  0  0
   -3.8260   -0.9030    2.1070 O   0  0  0  0  0  0  0  0  0  0  0  0
   -2.2750   -0.5270    0.3110 C   0  0  0  0  0  0  0  0  0  0  0  0
   -2.0200    0.6850    0.6930 C   0  0  0  0  0  0  0  0  0  0  0  0
   -1.1800    1.7760    0.2430 C   0  0  2  0  0  0  0  0  0  0  0  0
   -2.1660    2.9200   -0.1490 C   0  0  0  0  0  0  0  0  0  0  0  0
   -1.4460    4.0690   -0.4390 O   0  0  0  0  0  0  0  0  0  0  0  0
   -0.3620    1.6200   -0.9090 N   0  0  0  0  0  0  0  0  0  0  0  0
    1.0340    1.5500   -0.9820 C   0  0  0  0  0  0  0  0  0  0  0  0
    1.5540    1.8930   -2.1150 O   0  0  0  0  0  0  0  0  0  0  0  0
    2.0210    1.1560   -0.0010 C   0  0  1  0  0  0  0  0  0  0  0  0
    1.6130    1.0840    1.4300 C   0  0  0  0  0  0  0  0  0  0  0  0
    2.8130    0.2730    1.9660 C   0  0  2  0  0  0  0  0  0  0  0  0
    3.9930    0.9630    1.8110 O   0  0  0  0  0  0  0  0  0  0  0  0
    2.8040   -0.7820    1.0550 O   0  0  0  0  0  0  0  0  0  0  0  0
    2.5800   -0.2450   -0.2040 C   0  0  1  0  0  0  0  0  0  0  0  0
    1.4230   -1.0320   -0.8100 C   0  0  1  0  0  0  0  0  0  0  0  0
    1.3820   -0.7240   -2.1440 O   0  0  0  0  0  0  0  0  0  0  0  0
    1.4640   -2.5040   -0.5270 C   0  0  0  0  0  0  0  0  0  0  0  0
    0.1070   -3.0130   -0.9530 C   0  0  0  0  0  0  0  0  0  0  0  0
    0.1610   -3.9980   -1.7510 O   0  0  0  0  0  0  0  0  0  0  0  0
   -0.9870   -2.3960   -0.4620 O   0  0  0  0  0  0  0  0  0  0  0  0
   -1.7080   -1.2710   -0.8560 C   0  0  0  0  0  0  0  0  0  0  0  0
  1  2  1  0
  2  3  2  0
  2  4  1  0
  4  5  2  0
  4 24  1  0
  5  6  1  0
  6  7  1  6
  6  9  1  0
  7  8  1  0
  9 10  1  0
 10 11  2  0
 10 12  1  0
 12 13  1  1
 12 17  1  0
 13 14  1  0
 14 15  1  6
 14 16  1  0
 17 16  1  1
 17 18  1  0
 18 19  1  6
 18 20  1  0
 20 21  1  0
 21 22  2  0
 21 23  1  0
 23 24  1  0
M  END
