
     RDKit          3D

 25 25  0  0  0  0  0  0  0  0999 V2000
   -4.2100   -2.0860   -0.7970 C   0  0  0  0  0  0  0  0  0  0  0  0
   -3.6510   -0.7360   -1.0530 C   0  0  0  0  0  0  0  0  0  0  0  0
   -3.4020    0.1400    0.1210 C   0  0  2  0  0  0  0  0  0  0  0  0
   -4.6800    0.3790    0.9270 C   0  0  0  0  0  0  0  0  0  0  0  0
   -3.1230    1.5740   -0.4340 C   0  0  0  0  0  0  0  0  0  0  0  0
   -1.7340    1.6930   -0.9320 C   0  0  1  0  0  0  0  0  0  0  0  0
   -1.4180    3.0530   -1.0240 O   0  0  0  0  0  0  0  0  0  0  0  0
   -0.7090    1.0710   -0.0130 C   0  0  2  0  0  0  0  0  0  0  0  0
    0.6220    1.1330   -0.6020 C   0  0  0  0  0  0  0  0  0  0  0  0
    1.1730    2.2200   -0.9000 O   0  0  0  0  0  0  0  0  0  0  0  0
    1.3360   -0.0650   -0.8560 N   0  0  0  0  0  0  0  0  0  0  0  0
    2.6040   -0.0690   -1.4150 N   0  0  0  0  0  0  0  0  0  0  0  0
    3.6330    0.6340   -0.7480 C   0  0  0  0  0  0  0  0  0  0  0  0
    3.3790    1.2440    0.3280 O   0  0  0  0  0  0  0  0  0  0  0  0
    5.0350    0.7080   -1.2400 C   0  0  2  0  0  0  0  0  0  0  0  0
    5.2210    0.0140   -2.4170 O   0  0  0  0  0  0  0  0  0  0  0  0
    5.9580    0.2110   -0.1480 C   0  0  1  0  0  0  0  0  0  0  0  0
    5.6820    0.9800    0.9860 O   0  0  0  0  0  0  0  0  0  0  0  0
    5.7210   -1.2070    0.1530 C   0  0  0  0  0  0  0  0  0  0  0  0
    5.3270   -1.5780    1.2940 O   0  0  0  0  0  0  0  0  0  0  0  0
    5.9170   -2.2000   -0.7910 O   0  0  0  0  0  0  0  0  0  0  0  0
   -1.0770   -0.2370    0.2170 O   0  0  0  0  0  0  0  0  0  0  0  0
   -2.2680   -0.1860    0.9820 C   0  0  2  0  0  0  0  0  0  0  0  0
   -2.2890   -1.3620    1.8660 C   0  0  0  0  0  0  0  0  0  0  0  0
   -2.1940   -2.5750    1.2120 O   0  0  0  0  0  0  0  0  0  0  0  0
  1  2  1  0
  2  3  1  0
  3  4  1  1
  3  5  1  0
  3 23  1  0
  5  6  1  0
  6  7  1  1
  6  8  1  0
  8  9  1  6
  8 22  1  0
  9 10  2  0
  9 11  1  0
 11 12  1  0
 12 13  1  0
 13 14  2  0
 13 15  1  0
 15 16  1  6
 15 17  1  0
 17 18  1  1
 17 19  1  0
 19 20  2  0
 19 21  1  0
 22 23  1  0
 23 24  1  6
 24 25  1  0
M  END
