
     RDKit          3D

 24 25  0  0  0  0  0  0  0  0999 V2000
   -5.6790    1.4540   -0.9270 N   0  0  0  0  0  0  0  0  0  0  0  0
   -4.9930    0.2390   -0.7730 C   0  0  0  0  0  0  0  0  0  0  0  0
   -5.2990   -0.7490   -1.4590 O   0  0  0  0  0  0  0  0  0  0  0  0
   -3.8940    0.1340    0.2130 C   0  0  2  0  0  0  0  0  0  0  0  0
   -4.5110    0.4160    1.5620 C   0  0  0  0  0  0  0  0  0  0  0  0
   -5.5180   -0.5430    1.8050 O   0  0  0  0  0  0  0  0  0  0  0  0
   -2.8540    1.1180   -0.1990 C   0  0  0  0  0  0  0  0  0  0  0  0
   -1.6930    1.1480    0.7180 C   0  0  2  0  0  0  0  0  0  0  0  0
   -0.5620    1.4300   -0.0580 O   0  0  0  0  0  0  0  0  0  0  0  0
    0.0120    0.2040   -0.3270 C   0  0  1  0  0  0  0  0  0  0  0  0
    1.3750    0.2720   -0.8380 C   0  0  0  0  0  0  0  0  0  0  0  0
    1.9270    1.3790   -1.0140 O   0  0  0  0  0  0  0  0  0  0  0  0
    2.0940   -0.9070   -1.1420 N   0  0  0  0  0  0  0  0  0  0  0  0
    3.4280   -0.9940   -1.6420 C   0  0  0  0  0  0  0  0  0  0  0  0
    4.4380   -0.4490   -0.7150 C   0  0  1  0  0  0  0  0  0  0  0  0
    5.8330   -0.7460   -1.3140 C   0  0  0  0  0  0  0  0  0  0  0  0
    5.8980   -2.0760   -1.7070 O   0  0  0  0  0  0  0  0  0  0  0  0
    4.3520    0.8540   -0.3340 O   0  0  0  0  0  0  0  0  0  0  0  0
    4.3930    1.0980    1.0160 C   0  0  0  0  0  0  0  0  0  0  0  0
    3.3630    0.4720    1.6840 O   0  0  0  0  0  0  0  0  0  0  0  0
    0.0120   -0.3990    1.0760 C   0  0  0  0  0  0  0  0  0  0  0  0
   -1.4720   -0.1310    1.4260 C   0  0  2  0  0  0  0  0  0  0  0  0
   -2.2320   -1.3190    0.9850 C   0  0  0  0  0  0  0  0  0  0  0  0
   -3.3550   -1.1410    0.2490 O   0  0  0  0  0  0  0  0  0  0  0  0
  1  2  1  0
  2  3  2  0
  2  4  1  0
  4  5  1  1
  4  7  1  0
  4 24  1  0
  5  6  1  0
  8  7  1  6
  8  9  1  0
  8 22  1  0
  9 10  1  0
 10 11  1  1
 10 21  1  0
 11 12  2  0
 11 13  1  0
 13 14  1  0
 15 14  1  6
 15 16  1  0
 15 18  1  0
 16 17  1  0
 18 19  1  0
 19 20  1  0
 22 21  1  6
 22 23  1  0
 23 24  1  0
M  END
