
     RDKit          3D

 25 26  0  0  0  0  0  0  0  0999 V2000
   -4.0850    2.6930   -0.9470 N   0  0  0  0  0  0  0  0  0  0  0  0
   -4.2410    1.4290   -0.7580 C   0  0  0  0  0  0  0  0  0  0  0  0
   -5.3560    0.8270   -1.3050 O   0  0  0  0  0  0  0  0  0  0  0  0
   -3.2010    0.7100    0.0400 C   0  0  1  0  0  0  0  0  0  0  0  0
   -2.3770    1.7490    0.5580 O   0  0  0  0  0  0  0  0  0  0  0  0
   -3.9120    0.0790    1.1910 C   0  0  0  0  0  0  0  0  0  0  0  0
   -3.0840   -0.4450    2.1480 O   0  0  0  0  0  0  0  0  0  0  0  0
   -2.3550   -0.2000   -0.7860 C   0  0  1  0  0  0  0  0  0  0  0  0
   -1.2670   -0.7330    0.0490 N   0  0  0  0  0  0  0  0  0  0  0  0
    0.0900   -0.4150   -0.3040 C   0  0  0  0  0  0  0  0  0  0  0  0
    0.2580    0.3050   -1.3110 O   0  0  0  0  0  0  0  0  0  0  0  0
    1.1600   -0.9550    0.5380 C   0  0  1  0  0  0  0  0  0  0  0  0
    0.6050   -1.7220    1.5820 O   0  0  0  0  0  0  0  0  0  0  0  0
    1.9870   -1.9010   -0.3050 C   0  0  0  0  0  0  0  0  0  0  0  0
    2.7430   -1.1460   -1.3410 C   0  0  0  0  0  0  0  0  0  0  0  0
    2.8570    0.2060   -1.1470 O   0  0  0  0  0  0  0  0  0  0  0  0
    3.1600    0.4740    0.1700 C   0  0  1  0  0  0  0  0  0  0  0  0
    4.5090   -0.1130    0.5720 C   0  0  0  0  0  0  0  0  0  0  0  0
    5.1050    0.9490    1.4540 C   0  0  0  0  0  0  0  0  0  0  0  0
    4.1020    1.9210    1.6160 O   0  0  0  0  0  0  0  0  0  0  0  0
    3.4310    1.9580    0.3950 C   0  0  0  0  0  0  0  0  0  0  0  0
    2.0670    0.0830    1.1100 C   0  0  0  0  0  0  0  0  0  0  0  0
   -3.1270   -1.3610   -1.2820 C   0  0  0  0  0  0  0  0  0  0  0  0
   -2.8230   -2.5560   -0.9320 O   0  0  0  0  0  0  0  0  0  0  0  0
   -4.2110   -1.2900   -2.1420 O   0  0  0  0  0  0  0  0  0  0  0  0
  1  2  2  0
  2  3  1  0
  2  4  1  0
  4  5  1  1
  4  6  1  0
  4  8  1  0
  6  7  1  0
  8  9  1  1
  8 23  1  0
  9 10  1  0
 10 11  2  0
 10 12  1  0
 12 13  1  1
 12 14  1  0
 12 22  1  0
 14 15  1  0
 15 16  1  0
 16 17  1  0
 17 18  1  1
 17 21  1  0
 17 22  1  0
 18 19  1  0
 19 20  1  0
 20 21  1  0
 23 24  2  0
 23 25  1  0
M  END
