
     RDKit          3D

 42 46  0  0  0  0  0  0  0  0999 V2000
   -6.9030    1.1370    2.9220 C   0  0  0  0  0  0  0  0  0  0  0  0
   -5.6280    0.7640    3.5660 C   0  0  0  0  0  0  0  0  0  0  0  0
   -4.4140    0.7210    2.7340 C   0  0  0  0  0  0  0  0  0  0  0  0
   -3.6170    1.7900    2.8280 O   0  0  0  0  0  0  0  0  0  0  0  0
   -2.5030    1.9240    2.1870 C   0  0  0  0  0  0  0  0  0  0  0  0
   -1.7590    2.9470    2.2880 O   0  0  0  0  0  0  0  0  0  0  0  0
   -2.0540    0.9240    1.3310 C   0  0  0  0  0  0  0  0  0  0  0  0
   -0.7920    1.0950    0.6250 C   0  0  0  0  0  0  0  0  0  0  0  0
   -0.7430    1.6510   -0.5150 O   0  0  0  0  0  0  0  0  0  0  0  0
    0.3880    0.6200    1.2540 N   0  0  0  0  0  0  0  0  0  0  0  0
    0.3450   -0.0280    2.5480 C   0  0  0  0  0  0  0  0  0  0  0  0
    1.7580   -0.1130    3.0990 C   0  0  0  0  0  0  0  0  0  0  0  0
    2.5200    1.1620    2.9680 C   0  0  0  0  0  0  0  0  0  0  0  0
    2.5020    1.7080    1.5710 C   0  0  1  0  0  0  0  0  0  0  0  0
    3.8780    1.9060    1.1090 C   0  0  0  0  0  0  0  0  0  0  0  0
    4.8460    1.5510    1.8710 O   0  0  0  0  0  0  0  0  0  0  0  0
    4.2140    2.4720   -0.1450 N   0  0  0  0  0  0  0  0  0  0  0  0
    5.5960    2.6330   -0.5220 C   0  0  0  0  0  0  0  0  0  0  0  0
    6.2140    1.3440   -0.9420 C   0  0  0  0  0  0  0  0  0  0  0  0
    5.4690    0.3060   -1.4490 C   0  0  0  0  0  0  0  0  0  0  0  0
    6.1210   -0.8480   -1.8060 C   0  0  0  0  0  0  0  0  0  0  0  0
    7.5060   -0.9780   -1.6630 C   0  0  0  0  0  0  0  0  0  0  0  0
    8.2290    0.0630   -1.1570 C   0  0  0  0  0  0  0  0  0  0  0  0
    7.5860    1.2450   -0.7880 C   0  0  0  0  0  0  0  0  0  0  0  0
    9.7010    0.1690   -0.9010 C   0  0  0  0  0  0  0  0  0  0  0  0
   10.4050   -0.5780   -2.0080 C   0  0  0  0  0  0  0  0  0  0  0  0
   10.3890   -2.0550   -1.6690 C   0  0  0  0  0  0  0  0  0  0  0  0
    9.2710   -2.7730   -2.3640 C   0  0  0  0  0  0  0  0  0  0  0  0
    7.9720   -2.2520   -2.0930 N   0  0  0  0  0  0  0  0  0  0  0  0
    1.7240    0.7540    0.6670 C   0  0  0  0  0  0  0  0  0  0  0  0
   -2.8490   -0.1790    1.2130 C   0  0  0  0  0  0  0  0  0  0  0  0
   -4.0520   -0.3210    1.9040 C   0  0  0  0  0  0  0  0  0  0  0  0
   -4.9080   -1.4850    1.6380 C   0  0  0  0  0  0  0  0  0  0  0  0
   -5.5240   -1.6230    0.3150 C   0  0  0  0  0  0  0  0  0  0  0  0
   -6.3060   -0.5840   -0.2980 C   0  0  0  0  0  0  0  0  0  0  0  0
   -6.2860    0.6180    0.0050 O   0  0  0  0  0  0  0  0  0  0  0  0
   -7.2210   -0.9090   -1.3740 N   0  0  0  0  0  0  0  0  0  0  0  0
   -8.0190    0.0950   -2.0130 C   0  0  2  0  0  0  0  0  0  0  0  0
   -9.4830   -0.2510   -1.6790 C   0  0  0  0  0  0  0  0  0  0  0  0
   -9.6560   -1.5000   -2.5190 C   0  0  0  0  0  0  0  0  0  0  0  0
   -8.7620   -1.3330   -3.7190 C   0  0  0  0  0  0  0  0  0  0  0  0
   -8.0600   -0.0150   -3.5100 C   0  0  0  0  0  0  0  0  0  0  0  0
  1  2  1  0
  2  3  1  0
  3  4  1  0
  3 32  2  0
  4  5  1  0
  5  6  2  0
  5  7  1  0
  7  8  1  0
  7 31  2  0
  8  9  2  0
  8 10  1  0
 10 11  1  0
 10 30  1  0
 11 12  1  0
 12 13  1  0
 13 14  1  0
 14 15  1  6
 14 30  1  0
 15 16  2  0
 15 17  1  0
 17 18  1  0
 18 19  1  0
 19 20  2  0
 19 24  1  0
 20 21  1  0
 21 22  2  0
 22 23  1  0
 22 29  1  0
 23 24  2  0
 23 25  1  0
 25 26  1  0
 26 27  1  0
 27 28  1  0
 28 29  1  0
 31 32  1  0
 32 33  1  0
 33 34  1  0
 34 35  1  0
 35 36  2  0
 35 37  1  0
 38 37  1  1
 38 39  1  0
 38 42  1  0
 39 40  1  0
 40 41  1  0
 41 42  1  0
M  END
