
     RDKit          3D

 42 45  0  0  0  0  0  0  0  0999 V2000
   -7.1800   -3.5010    2.4860 C   0  0  0  0  0  0  0  0  0  0  0  0
   -5.8480   -2.9330    2.8570 C   0  0  2  0  0  0  0  0  0  0  0  0
   -5.6720   -2.9210    4.3650 C   0  0  0  0  0  0  0  0  0  0  0  0
   -5.6190   -1.5410    2.3250 C   0  0  2  0  0  0  0  0  0  0  0  0
   -6.6520   -0.5680    2.8430 C   0  0  0  0  0  0  0  0  0  0  0  0
   -6.6420   -0.5130    4.2250 O   0  0  0  0  0  0  0  0  0  0  0  0
   -5.7180   -1.5170    0.8620 N   0  0  0  0  0  0  0  0  0  0  0  0
   -4.6460   -1.0850    0.0470 C   0  0  0  0  0  0  0  0  0  0  0  0
   -3.5940   -0.7260    0.6850 O   0  0  0  0  0  0  0  0  0  0  0  0
   -4.6640   -1.0270   -1.4010 C   0  0  0  0  0  0  0  0  0  0  0  0
   -5.7680   -1.4340   -2.1000 C   0  0  0  0  0  0  0  0  0  0  0  0
   -5.7420   -1.3540   -3.4780 C   0  0  0  0  0  0  0  0  0  0  0  0
   -4.6360   -0.8780   -4.1010 C   0  0  0  0  0  0  0  0  0  0  0  0
   -4.6620   -0.8040   -5.8520 Cl  0  0  0  0  0  0  0  0  0  0  0  0
   -3.4760   -0.4470   -3.4420 C   0  0  0  0  0  0  0  0  0  0  0  0
   -2.3970    0.0540   -4.1850 N   0  0  0  0  0  0  0  0  0  0  0  0
   -1.1210    0.4520   -3.7410 C   0  0  0  0  0  0  0  0  0  0  0  0
   -0.9140    0.3320   -2.5140 O   0  0  0  0  0  0  0  0  0  0  0  0
   -0.0530    0.9810   -4.5740 C   0  0  0  0  0  0  0  0  0  0  0  0
   -0.3710    1.3060   -5.9060 C   0  0  0  0  0  0  0  0  0  0  0  0
    0.5770    1.9250   -6.7160 C   0  0  0  0  0  0  0  0  0  0  0  0
    1.8160    2.2160   -6.2140 C   0  0  0  0  0  0  0  0  0  0  0  0
    2.1070    1.8880   -4.9090 C   0  0  0  0  0  0  0  0  0  0  0  0
    1.1830    1.2630   -4.0630 C   0  0  0  0  0  0  0  0  0  0  0  0
    1.5570    0.8260   -2.7820 N   0  0  0  0  0  0  0  0  0  0  0  0
    2.6110    1.3560   -1.9950 C   0  0  0  0  0  0  0  0  0  0  0  0
    3.2820    2.3180   -2.4170 O   0  0  0  0  0  0  0  0  0  0  0  0
    2.9200    0.7890   -0.6970 N   0  0  0  0  0  0  0  0  0  0  0  0
    3.9960    1.3840    0.0590 C   0  0  1  0  0  0  0  0  0  0  0  0
    3.5690    1.7570    1.4550 C   0  0  0  0  0  0  0  0  0  0  0  0
    3.9860    0.7190    2.4700 C   0  0  0  0  0  0  0  0  0  0  0  0
    5.5020    0.5780    2.5130 C   0  0  0  0  0  0  0  0  0  0  0  0
    6.0800    0.6940    1.1990 N   0  0  0  0  0  0  0  0  0  0  0  0
    7.4550    1.0100    0.9890 C   0  0  0  0  0  0  0  0  0  0  0  0
    7.8870    1.1090   -0.2060 O   0  0  0  0  0  0  0  0  0  0  0  0
    8.3860    1.2220    2.0680 C   0  0  0  0  0  0  0  0  0  0  0  0
    9.7340    1.5620    1.9330 C   0  0  0  0  0  0  0  0  0  0  0  0
   10.2610    1.6680    3.2110 C   0  0  0  0  0  0  0  0  0  0  0  0
    9.2010    1.3870    4.0520 C   0  0  0  0  0  0  0  0  0  0  0  0
    8.1410    1.1360    3.3420 O   0  0  0  0  0  0  0  0  0  0  0  0
    5.1970    0.4630    0.0640 C   0  0  0  0  0  0  0  0  0  0  0  0
   -3.5260   -0.5360   -2.0790 C   0  0  0  0  0  0  0  0  0  0  0  0
  2  1  1  1
  2  3  1  0
  2  4  1  0
  4  5  1  1
  4  7  1  0
  5  6  1  0
  7  8  1  0
  8  9  2  0
  8 10  1  0
 10 11  2  0
 10 42  1  0
 11 12  1  0
 12 13  2  0
 13 14  1  0
 13 15  1  0
 15 16  1  0
 15 42  2  0
 16 17  1  0
 17 18  2  0
 17 19  1  0
 19 20  2  0
 19 24  1  0
 20 21  1  0
 21 22  2  0
 22 23  1  0
 23 24  2  0
 24 25  1  0
 25 26  1  0
 26 27  2  0
 26 28  1  0
 29 28  1  1
 29 30  1  0
 29 41  1  0
 30 31  1  0
 31 32  1  0
 32 33  1  0
 33 34  1  0
 33 41  1  0
 34 35  2  0
 34 36  1  0
 36 37  2  0
 36 40  1  0
 37 38  1  0
 38 39  2  0
 39 40  1  0
M  END
