
     RDKit          3D

 42 46  0  0  0  0  0  0  0  0999 V2000
   -3.0170   -2.9730    0.6420 C   0  0  0  0  0  0  0  0  0  0  0  0
   -3.0790   -1.4950    0.5670 C   0  0  0  0  0  0  0  0  0  0  0  0
   -4.1370   -0.9510   -0.0490 C   0  0  0  0  0  0  0  0  0  0  0  0
   -5.1650   -1.7860   -0.6350 C   0  0  0  0  0  0  0  0  0  0  0  0
   -6.1890   -1.4780   -1.3150 C   0  0  0  0  0  0  0  0  0  0  0  0
   -6.6360   -0.1460   -1.7340 C   0  0  0  0  0  0  0  0  0  0  0  0
   -7.4740   -0.3900   -3.0240 C   0  0  0  0  0  0  0  0  0  0  0  0
   -8.7920   -0.9610   -2.5780 C   0  0  0  0  0  0  0  0  0  0  0  0
   -8.5310   -1.9430   -1.4160 C   0  0  0  0  0  0  0  0  0  0  0  0
   -7.1670   -2.5870   -1.7310 C   0  0  0  0  0  0  0  0  0  0  0  0
   -4.2680    0.4850    0.2010 C   0  0  0  0  0  0  0  0  0  0  0  0
   -3.4610    1.1810    0.9670 C   0  0  0  0  0  0  0  0  0  0  0  0
   -2.3050    0.5370    1.6860 C   0  0  2  0  0  0  0  0  0  0  0  0
   -1.4040    1.5200    2.2160 C   0  0  0  0  0  0  0  0  0  0  0  0
   -2.0800    2.6750    2.4680 O   0  0  0  0  0  0  0  0  0  0  0  0
   -0.0480    1.5560    2.5260 N   0  0  0  0  0  0  0  0  0  0  0  0
    0.8650    0.4980    2.2500 C   0  0  0  0  0  0  0  0  0  0  0  0
    1.4340    0.4110    0.8940 C   0  0  0  0  0  0  0  0  0  0  0  0
    2.2380    1.5930    0.4310 C   0  0  0  0  0  0  0  0  0  0  0  0
    2.6250    1.3940   -0.9580 N   0  0  0  0  0  0  0  0  0  0  0  0
    1.9320    1.8060   -2.0220 C   0  0  0  0  0  0  0  0  0  0  0  0
    0.8510    2.4550   -1.9750 O   0  0  0  0  0  0  0  0  0  0  0  0
    2.5430    1.4340   -3.1470 O   0  0  0  0  0  0  0  0  0  0  0  0
    3.6420    0.7770   -2.8340 C   0  0  0  0  0  0  0  0  0  0  0  0
    4.6290    0.1830   -3.5910 C   0  0  0  0  0  0  0  0  0  0  0  0
    5.7040   -0.4580   -2.9980 C   0  0  0  0  0  0  0  0  0  0  0  0
    5.7740   -0.4910   -1.6400 C   0  0  0  0  0  0  0  0  0  0  0  0
    6.8290   -1.1460   -0.9700 N   0  0  0  0  0  0  0  0  0  0  0  0
    7.6560   -2.1400   -1.5200 C   0  0  0  0  0  0  0  0  0  0  0  0
    7.5010   -2.5370   -2.6850 O   0  0  0  0  0  0  0  0  0  0  0  0
    8.7600   -2.7410   -0.6810 C   0  0  2  0  0  0  0  0  0  0  0  0
    9.7780   -1.6220   -0.4270 C   0  0  0  0  0  0  0  0  0  0  0  0
    9.3790   -3.7150   -1.4390 O   0  0  0  0  0  0  0  0  0  0  0  0
    4.7680    0.1150   -0.8870 C   0  0  0  0  0  0  0  0  0  0  0  0
    3.6870    0.7560   -1.4470 C   0  0  0  0  0  0  0  0  0  0  0  0
    0.3720    2.7370    3.3140 C   0  0  2  0  0  0  0  0  0  0  0  0
   -0.3570    2.7050    4.6160 C   0  0  0  0  0  0  0  0  0  0  0  0
   -0.9620    2.6910    5.6590 N   0  0  0  0  0  0  0  0  0  0  0  0
    0.2130    3.9880    2.5360 C   0  0  0  0  0  0  0  0  0  0  0  0
    1.6890    4.3100    2.7190 C   0  0  0  0  0  0  0  0  0  0  0  0
    1.7910    3.0110    3.5090 C   0  0  0  0  0  0  0  0  0  0  0  0
   -1.8820   -0.6540    0.9740 C   0  0  0  0  0  0  0  0  0  0  0  0
  1  2  1  0
  2  3  2  0
  2 42  1  0
  3  4  1  0
  3 11  1  0
  4  5  2  3
  5  6  1  0
  5 10  1  0
  6  7  1  0
  7  8  1  0
  8  9  1  0
  9 10  1  0
 11 12  2  0
 12 13  1  0
 13 14  1  6
 13 42  1  0
 14 15  2  0
 14 16  1  0
 16 17  1  0
 16 36  1  0
 17 18  1  0
 18 19  1  0
 19 20  1  0
 20 21  1  0
 20 35  1  0
 21 22  2  0
 21 23  1  0
 23 24  1  0
 24 25  2  0
 24 35  1  0
 25 26  1  0
 26 27  2  0
 27 28  1  0
 27 34  1  0
 28 29  1  0
 29 30  2  0
 29 31  1  0
 31 32  1  6
 31 33  1  0
 34 35  2  0
 36 37  1  1
 36 39  1  0
 36 41  1  0
 37 38  3  0
 39 40  1  0
 40 41  1  0
M  END
