
     RDKit          3D

 42 46  0  0  0  0  0  0  0  0999 V2000
    6.8570   -1.5170    2.5790 C   0  0  0  0  0  0  0  0  0  0  0  0
    5.6190   -0.6610    2.5410 C   0  0  0  0  0  0  0  0  0  0  0  0
    4.8310   -0.8550    1.2390 C   0  0  2  0  0  0  0  0  0  0  0  0
    4.4470   -2.3170    1.1890 C   0  0  0  0  0  0  0  0  0  0  0  0
    5.6440   -0.5290    0.0440 C   0  0  0  0  0  0  0  0  0  0  0  0
    5.2530    0.6370   -0.7670 C   0  0  0  0  0  0  0  0  0  0  0  0
    3.8350    1.0450   -0.8320 C   0  0  0  0  0  0  0  0  0  0  0  0
    3.0070    0.2260    0.0090 N   0  0  0  0  0  0  0  0  0  0  0  0
    1.7390   -0.2480   -0.3590 C   0  0  0  0  0  0  0  0  0  0  0  0
    1.1230   -0.9490    0.5150 O   0  0  0  0  0  0  0  0  0  0  0  0
    1.1340    0.0400   -1.6650 C   0  0  1  0  0  0  0  0  0  0  0  0
    1.3280   -1.0940   -2.6330 C   0  0  0  0  0  0  0  0  0  0  0  0
    2.7100   -1.4960   -2.9570 C   0  0  0  0  0  0  0  0  0  0  0  0
    3.4380   -1.9450   -1.8650 O   0  0  0  0  0  0  0  0  0  0  0  0
   -0.3280    0.2580   -1.5060 N   0  0  0  0  0  0  0  0  0  0  0  0
   -1.2110   -0.7320   -1.0440 C   0  0  0  0  0  0  0  0  0  0  0  0
   -0.9000   -1.9100   -0.7270 O   0  0  0  0  0  0  0  0  0  0  0  0
   -2.6650   -0.4110   -0.8980 C   0  0  0  0  0  0  0  0  0  0  0  0
   -3.4490   -1.5690   -0.4120 C   0  0  0  0  0  0  0  0  0  0  0  0
   -2.9270   -2.6840   -0.1700 O   0  0  0  0  0  0  0  0  0  0  0  0
   -4.8740   -1.3990   -0.2100 C   0  0  0  0  0  0  0  0  0  0  0  0
   -5.6170   -0.2600   -0.4140 C   0  0  0  0  0  0  0  0  0  0  0  0
   -6.8970   -0.5140   -0.1130 N   0  0  0  0  0  0  0  0  0  0  0  0
   -7.0440   -1.7910    0.2890 C   0  0  0  0  0  0  0  0  0  0  0  0
   -8.1210   -2.5470    0.7020 C   0  0  0  0  0  0  0  0  0  0  0  0
   -7.9310   -3.8650    1.0560 C   0  0  0  0  0  0  0  0  0  0  0  0
   -6.6750   -4.4450    1.0040 C   0  0  0  0  0  0  0  0  0  0  0  0
   -6.5290   -5.7750    1.3690 O   0  0  0  0  0  0  0  0  0  0  0  0
   -5.6240   -3.6680    0.5900 C   0  0  0  0  0  0  0  0  0  0  0  0
   -5.7730   -2.3580    0.2310 C   0  0  0  0  0  0  0  0  0  0  0  0
   -0.8370    1.5540   -1.8480 C   0  0  0  0  0  0  0  0  0  0  0  0
   -1.2000    1.8690   -3.1380 C   0  0  0  0  0  0  0  0  0  0  0  0
   -1.6840    3.1260   -3.4060 C   0  0  0  0  0  0  0  0  0  0  0  0
   -1.8170    4.0940   -2.4000 C   0  0  0  0  0  0  0  0  0  0  0  0
   -1.4470    3.7530   -1.1210 C   0  0  0  0  0  0  0  0  0  0  0  0
   -0.9600    2.4960   -0.8420 C   0  0  0  0  0  0  0  0  0  0  0  0
   -0.5530    2.1270    0.5330 C   0  0  0  0  0  0  0  0  0  0  0  0
   -1.0990    2.9500    1.5650 N   0  0  0  0  0  0  0  0  0  0  0  0
   -0.1200    3.5430    2.4370 C   0  0  0  0  0  0  0  0  0  0  0  0
   -2.1080    3.8760    1.1730 C   0  0  0  0  0  0  0  0  0  0  0  0
   -1.5590    4.7100    0.0050 C   0  0  0  0  0  0  0  0  0  0  0  0
    3.5560   -0.0680    1.3330 C   0  0  0  0  0  0  0  0  0  0  0  0
  1  2  1  0
  2  3  1  0
  3  4  1  6
  3  5  1  0
  3 42  1  0
  5  6  1  0
  6  7  1  0
  7  8  1  0
  8  9  1  0
  8 42  1  0
  9 10  2  0
  9 11  1  0
 11 12  1  6
 11 15  1  0
 12 13  1  0
 13 14  1  0
 15 16  1  0
 15 31  1  0
 16 17  2  0
 16 18  1  0
 18 19  1  0
 19 20  2  0
 19 21  1  0
 21 22  2  0
 21 30  1  0
 22 23  1  0
 23 24  1  0
 24 25  2  0
 24 30  1  0
 25 26  1  0
 26 27  2  0
 27 28  1  0
 27 29  1  0
 29 30  2  0
 31 32  2  0
 31 36  1  0
 32 33  1  0
 33 34  2  0
 34 35  1  0
 35 36  2  0
 35 41  1  0
 36 37  1  0
 37 38  1  0
 38 39  1  0
 38 40  1  0
 40 41  1  0
M  END
