
     RDKit          3D

 42 45  0  0  0  0  0  0  0  0999 V2000
    9.2330   -4.7430    1.2350 C   0  0  0  0  0  0  0  0  0  0  0  0
    8.9080   -3.6430    2.2240 C   0  0  0  0  0  0  0  0  0  0  0  0
    8.0430   -2.5980    1.6250 C   0  0  0  0  0  0  0  0  0  0  0  0
    8.5610   -1.3790    1.2450 C   0  0  0  0  0  0  0  0  0  0  0  0
    7.7050   -0.4480    0.6930 C   0  0  0  0  0  0  0  0  0  0  0  0
    6.3620   -0.6990    0.5120 C   0  0  0  0  0  0  0  0  0  0  0  0
    5.4720    0.3540   -0.0950 C   0  0  2  0  0  0  0  0  0  0  0  0
    6.0970    0.9050   -1.2180 O   0  0  0  0  0  0  0  0  0  0  0  0
    5.2170    1.4590    0.8910 C   0  0  0  0  0  0  0  0  0  0  0  0
    4.3800    2.4560    0.2810 N   0  0  0  0  0  0  0  0  0  0  0  0
    3.0720    2.2430   -0.2300 C   0  0  0  0  0  0  0  0  0  0  0  0
    2.6260    1.0800   -0.1370 O   0  0  0  0  0  0  0  0  0  0  0  0
    2.3100    3.2870   -0.8160 N   0  0  0  0  0  0  0  0  0  0  0  0
    1.0240    3.1520   -1.3570 C   0  0  0  0  0  0  0  0  0  0  0  0
    0.2960    2.0110   -1.5210 C   0  0  0  0  0  0  0  0  0  0  0  0
   -0.9840    1.9730   -2.0970 C   0  0  0  0  0  0  0  0  0  0  0  0
   -1.6560    0.6810   -2.2310 C   0  0  0  0  0  0  0  0  0  0  0  0
   -2.9590    0.5750   -2.0840 C   0  0  0  0  0  0  0  0  0  0  0  0
   -3.8270    1.6080   -1.7970 O   0  0  0  0  0  0  0  0  0  0  0  0
   -3.5490   -0.7790   -2.2410 C   0  0  0  0  0  0  0  0  0  0  0  0
   -4.2180   -1.1450   -1.0310 N   0  0  0  0  0  0  0  0  0  0  0  0
   -3.5350   -1.8370    0.0220 C   0  0  0  0  0  0  0  0  0  0  0  0
   -2.2940   -1.7460    0.1460 O   0  0  0  0  0  0  0  0  0  0  0  0
   -4.3510   -2.6460    0.9330 C   0  0  0  0  0  0  0  0  0  0  0  0
   -5.5000   -1.8250    1.4540 C   0  0  0  0  0  0  0  0  0  0  0  0
   -6.2560   -1.2100    0.4020 N   0  0  0  0  0  0  0  0  0  0  0  0
   -7.6590   -0.9290    0.4820 C   0  0  0  0  0  0  0  0  0  0  0  0
   -8.1220    0.3510    0.7210 C   0  0  0  0  0  0  0  0  0  0  0  0
   -9.4770    0.6310    0.7960 C   0  0  0  0  0  0  0  0  0  0  0  0
  -10.3920   -0.4010    0.6270 C   0  0  0  0  0  0  0  0  0  0  0  0
   -9.9290   -1.6550    0.3920 C   0  0  0  0  0  0  0  0  0  0  0  0
   -8.5730   -1.9190    0.3200 C   0  0  0  0  0  0  0  0  0  0  0  0
   -8.1370   -3.2270    0.0760 O   0  0  0  0  0  0  0  0  0  0  0  0
   -5.5750   -0.8490   -0.8060 C   0  0  0  0  0  0  0  0  0  0  0  0
   -6.1930   -0.2340   -1.7370 O   0  0  0  0  0  0  0  0  0  0  0  0
   -1.5470    3.1540   -2.5250 C   0  0  0  0  0  0  0  0  0  0  0  0
   -0.8390    4.3250   -2.3740 C   0  0  0  0  0  0  0  0  0  0  0  0
    0.4120    4.3310   -1.8070 C   0  0  0  0  0  0  0  0  0  0  0  0
    1.1620    5.6180   -1.6550 C   0  0  0  0  0  0  0  0  0  0  0  0
    5.8790   -1.8930    0.8880 N   0  0  0  0  0  0  0  0  0  0  0  0
    6.6970   -2.8330    1.4370 C   0  0  0  0  0  0  0  0  0  0  0  0
    6.0580   -4.3860    1.9250 Cl  0  0  0  0  0  0  0  0  0  0  0  0
  1  2  1  0
  2  3  1  0
  3  4  2  0
  3 41  1  0
  4  5  1  0
  5  6  2  0
  6  7  1  0
  6 40  1  0
  7  8  1  6
  7  9  1  0
  9 10  1  0
 10 11  1  0
 11 12  2  0
 11 13  1  0
 13 14  1  0
 14 15  2  0
 14 38  1  0
 15 16  1  0
 16 17  1  0
 16 36  2  0
 17 18  2  3
 18 19  1  0
 18 20  1  0
 20 21  1  0
 21 22  1  0
 21 34  1  0
 22 23  2  0
 22 24  1  0
 24 25  1  0
 25 26  1  0
 26 27  1  0
 26 34  1  0
 27 28  2  0
 27 32  1  0
 28 29  1  0
 29 30  2  0
 30 31  1  0
 31 32  2  0
 32 33  1  0
 34 35  2  0
 36 37  1  0
 37 38  2  0
 38 39  1  0
 40 41  2  0
 41 42  1  0
M  END
