
     RDKit          3D

 42 46  0  0  0  0  0  0  0  0999 V2000
   -7.0890    0.3230    4.3170 C   0  0  0  0  0  0  0  0  0  0  0  0
   -7.6750   -0.0250    3.0000 C   0  0  0  0  0  0  0  0  0  0  0  0
   -7.1430    0.6370    1.7900 C   0  0  0  0  0  0  0  0  0  0  0  0
   -5.7170    0.4470    1.4850 C   0  0  0  0  0  0  0  0  0  0  0  0
   -4.7400    1.1470    2.1260 C   0  0  0  0  0  0  0  0  0  0  0  0
   -4.9930    2.2460    3.1230 C   0  0  0  0  0  0  0  0  0  0  0  0
   -3.4030    0.8790    1.7880 C   0  0  0  0  0  0  0  0  0  0  0  0
   -3.0310   -0.0390    0.8530 C   0  0  0  0  0  0  0  0  0  0  0  0
   -1.6880   -0.3550    0.5300 N   0  0  0  0  0  0  0  0  0  0  0  0
   -0.5320    0.1600    1.1630 C   0  0  0  0  0  0  0  0  0  0  0  0
   -0.6090    0.9570    2.1060 O   0  0  0  0  0  0  0  0  0  0  0  0
    0.8510   -0.2480    0.7060 C   0  0  1  0  0  0  0  0  0  0  0  0
    1.0360    0.5200   -0.6100 C   0  0  0  0  0  0  0  0  0  0  0  0
    2.4420    0.5170   -1.0580 C   0  0  0  0  0  0  0  0  0  0  0  0
    3.4570    0.4910    0.0170 C   0  0  0  0  0  0  0  0  0  0  0  0
    3.2010    0.3940    1.3010 C   0  0  0  0  0  0  0  0  0  0  0  0
    1.7950    0.3080    1.6410 N   0  0  0  0  0  0  0  0  0  0  0  0
    4.1810    0.3670    2.3720 C   0  0  0  0  0  0  0  0  0  0  0  0
    3.8370    0.2700    3.5860 O   0  0  0  0  0  0  0  0  0  0  0  0
    5.5700    0.4530    2.0680 N   0  0  0  0  0  0  0  0  0  0  0  0
    6.5610    0.4300    3.1320 C   0  0  0  0  0  0  0  0  0  0  0  0
    7.0090   -0.9190    3.5530 C   0  0  2  0  0  0  0  0  0  0  0  0
    7.6960   -1.8640    2.5770 C   0  0  0  0  0  0  0  0  0  0  0  0
    6.3090   -2.1400    3.0610 C   0  0  0  0  0  0  0  0  0  0  0  0
    5.8900    0.5620    0.6910 C   0  0  0  0  0  0  0  0  0  0  0  0
    7.1140    0.6470    0.4000 O   0  0  0  0  0  0  0  0  0  0  0  0
    4.9090    0.5870   -0.3860 C   0  0  0  0  0  0  0  0  0  0  0  0
    5.1810    0.6690   -1.6690 C   0  0  0  0  0  0  0  0  0  0  0  0
    6.4180    0.7730   -2.3760 C   0  0  0  0  0  0  0  0  0  0  0  0
    7.5770    0.8100   -1.8830 O   0  0  0  0  0  0  0  0  0  0  0  0
    6.3730    0.8430   -3.7990 O   0  0  0  0  0  0  0  0  0  0  0  0
    7.6150    0.9480   -4.5100 C   0  0  0  0  0  0  0  0  0  0  0  0
    7.3480    1.0340   -5.9850 C   0  0  0  0  0  0  0  0  0  0  0  0
   -4.0310   -0.7580    0.1850 C   0  0  0  0  0  0  0  0  0  0  0  0
   -3.6710   -1.6810   -0.8260 N   0  0  0  0  0  0  0  0  0  0  0  0
   -3.5870   -1.4540   -2.2170 C   0  0  2  0  0  0  0  0  0  0  0  0
   -2.6360   -0.4050   -2.6960 C   0  0  0  0  0  0  0  0  0  0  0  0
   -2.9500   -0.3460   -4.1990 C   0  0  0  0  0  0  0  0  0  0  0  0
   -4.3740   -0.7880   -4.3380 C   0  0  0  0  0  0  0  0  0  0  0  0
   -4.8690   -1.0200   -2.8980 C   0  0  0  0  0  0  0  0  0  0  0  0
   -5.3420   -0.4930    0.5250 C   0  0  0  0  0  0  0  0  0  0  0  0
   -6.4020   -1.2940   -0.1800 C   0  0  0  0  0  0  0  0  0  0  0  0
  1  2  1  0
  2  3  1  0
  3  4  1  0
  4  5  2  0
  4 41  1  0
  5  6  1  0
  5  7  1  0
  7  8  2  0
  8  9  1  0
  8 34  1  0
  9 10  1  0
 10 11  2  0
 12 10  1  1
 12 13  1  0
 12 17  1  0
 13 14  1  0
 14 15  1  0
 15 16  2  0
 15 27  1  0
 16 17  1  0
 16 18  1  0
 18 19  2  0
 18 20  1  0
 20 21  1  0
 20 25  1  0
 22 21  1  6
 22 23  1  0
 22 24  1  0
 23 24  1  0
 25 26  2  0
 25 27  1  0
 27 28  2  3
 28 29  1  0
 29 30  2  0
 29 31  1  0
 31 32  1  0
 32 33  1  0
 34 35  1  0
 34 41  2  0
 36 35  1  1
 36 37  1  0
 36 40  1  0
 37 38  1  0
 38 39  1  0
 39 40  1  0
 41 42  1  0
M  END
