
     RDKit          3D

 42 46  0  0  0  0  0  0  0  0999 V2000
    3.5890    2.6160   -4.0830 C   0  0  0  0  0  0  0  0  0  0  0  0
    4.8640    2.1470   -3.6010 N   0  0  0  0  0  0  0  0  0  0  0  0
    5.0160    1.7350   -2.2520 C   0  0  0  0  0  0  0  0  0  0  0  0
    6.2690    1.3000   -1.8190 C   0  0  0  0  0  0  0  0  0  0  0  0
    6.4190    0.9000   -0.5050 C   0  0  0  0  0  0  0  0  0  0  0  0
    7.7630    0.4320   -0.0550 C   0  0  0  0  0  0  0  0  0  0  0  0
    5.3570    0.9170    0.4070 C   0  0  0  0  0  0  0  0  0  0  0  0
    4.1380    1.3360   -0.0050 C   0  0  0  0  0  0  0  0  0  0  0  0
    2.9730    1.3700    0.9070 C   0  0  0  0  0  0  0  0  0  0  0  0
    2.0350    0.2340    0.7220 C   0  0  0  0  0  0  0  0  0  0  0  0
    0.9540    0.3960   -0.1530 C   0  0  0  0  0  0  0  0  0  0  0  0
    0.0530   -0.6170   -0.4510 C   0  0  0  0  0  0  0  0  0  0  0  0
   -1.0320   -0.4130   -1.3890 C   0  0  0  0  0  0  0  0  0  0  0  0
   -0.6910    0.1340   -2.6060 N   0  0  0  0  0  0  0  0  0  0  0  0
   -1.6040    0.3850   -3.5540 C   0  0  0  0  0  0  0  0  0  0  0  0
   -2.9380    0.1070   -3.3580 C   0  0  0  0  0  0  0  0  0  0  0  0
   -3.3300   -0.4440   -2.1490 C   0  0  0  0  0  0  0  0  0  0  0  0
   -4.7320   -0.7650   -1.9680 C   0  0  0  0  0  0  0  0  0  0  0  0
   -5.5960   -0.5140   -2.8560 O   0  0  0  0  0  0  0  0  0  0  0  0
   -5.1620   -1.3620   -0.8070 O   0  0  0  0  0  0  0  0  0  0  0  0
   -6.5520   -1.6610   -0.6770 C   0  0  0  0  0  0  0  0  0  0  0  0
   -2.3670   -0.6870   -1.1990 C   0  0  0  0  0  0  0  0  0  0  0  0
   -2.7960   -1.2480    0.0470 C   0  0  0  0  0  0  0  0  0  0  0  0
   -2.8430   -2.5180    0.1250 O   0  0  0  0  0  0  0  0  0  0  0  0
   -3.1770   -0.5540    1.2260 N   0  0  0  0  0  0  0  0  0  0  0  0
   -3.5090   -1.3550    2.4350 C   0  0  0  0  0  0  0  0  0  0  0  0
   -4.9480   -1.7290    2.5100 C   0  0  0  0  0  0  0  0  0  0  0  0
   -5.1180   -2.4720    3.7080 O   0  0  0  0  0  0  0  0  0  0  0  0
   -3.3260    0.8590    1.3990 C   0  0  2  0  0  0  0  0  0  0  0  0
   -4.5090    1.4490    0.6600 C   0  0  0  0  0  0  0  0  0  0  0  0
   -2.1040    1.6860    1.2190 C   0  0  2  0  0  0  0  0  0  0  0  0
   -2.2300    3.1970    1.4240 C   0  0  0  0  0  0  0  0  0  0  0  0
   -1.9550    2.6270    0.0550 C   0  0  0  0  0  0  0  0  0  0  0  0
    0.2700   -1.8140    0.1600 C   0  0  0  0  0  0  0  0  0  0  0  0
    1.3450   -2.0390    1.0570 C   0  0  0  0  0  0  0  0  0  0  0  0
    2.1940   -0.9930    1.3060 C   0  0  0  0  0  0  0  0  0  0  0  0
    3.2550   -1.2120    2.2310 N   0  0  0  0  0  0  0  0  0  0  0  0
    3.3940   -2.4900    2.8510 C   0  0  0  0  0  0  0  0  0  0  0  0
    3.8900   -2.6460    3.9760 O   0  0  0  0  0  0  0  0  0  0  0  0
    2.9120   -3.6550    2.0800 C   0  0  0  0  0  0  0  0  0  0  0  0
    1.4930   -3.3700    1.6900 C   0  0  0  0  0  0  0  0  0  0  0  0
    4.0010    1.7410   -1.3430 C   0  0  0  0  0  0  0  0  0  0  0  0
  1  2  1  0
  2  3  1  0
  3  4  2  0
  3 42  1  0
  4  5  1  0
  5  6  1  0
  5  7  2  0
  7  8  1  0
  8  9  1  0
  8 42  2  0
  9 10  1  0
 10 11  2  0
 10 36  1  0
 11 12  1  0
 12 13  1  0
 12 34  2  0
 13 14  2  0
 13 22  1  0
 14 15  1  0
 15 16  2  0
 16 17  1  0
 17 18  1  0
 17 22  2  0
 18 19  2  0
 18 20  1  0
 20 21  1  0
 22 23  1  0
 23 24  2  0
 23 25  1  0
 25 26  1  0
 25 29  1  0
 26 27  1  0
 27 28  1  0
 29 30  1  6
 29 31  1  0
 31 32  1  1
 31 33  1  0
 32 33  1  0
 34 35  1  0
 35 36  2  0
 35 41  1  0
 36 37  1  0
 37 38  1  0
 38 39  2  0
 38 40  1  0
 40 41  1  0
M  END
