
     RDKit          3D

 42 46  0  0  0  0  0  0  0  0999 V2000
   -5.7690   -4.6910    3.1340 C   0  0  0  0  0  0  0  0  0  0  0  0
   -5.9740   -4.7170    1.6000 C   0  0  0  0  0  0  0  0  0  0  0  0
   -4.7800   -4.2820    0.9050 C   0  0  0  0  0  0  0  0  0  0  0  0
   -4.0910   -3.0240    1.0730 C   0  0  0  0  0  0  0  0  0  0  0  0
   -2.8360   -3.0670    1.6180 C   0  0  0  0  0  0  0  0  0  0  0  0
   -2.2870   -1.7860    1.7030 C   0  0  0  0  0  0  0  0  0  0  0  0
   -3.1250   -0.8290    1.2060 C   0  0  0  0  0  0  0  0  0  0  0  0
   -2.7230    0.5570    1.2270 C   0  0  0  0  0  0  0  0  0  0  0  0
   -2.5150    1.4720    0.1350 C   0  0  0  0  0  0  0  0  0  0  0  0
   -1.7010    1.2330   -1.0590 C   0  0  2  0  0  0  0  0  0  0  0  0
   -0.3090    1.0210   -1.0430 N   0  0  0  0  0  0  0  0  0  0  0  0
    0.6010    0.4810   -0.1690 C   0  0  0  0  0  0  0  0  0  0  0  0
    0.1770    0.0840    0.9460 O   0  0  0  0  0  0  0  0  0  0  0  0
    2.0510    0.3070   -0.3990 C   0  0  0  0  0  0  0  0  0  0  0  0
    2.8260   -0.1100    0.6420 C   0  0  0  0  0  0  0  0  0  0  0  0
    4.1870   -0.3750    0.4970 C   0  0  0  0  0  0  0  0  0  0  0  0
    4.7900   -0.2130   -0.7590 C   0  0  0  0  0  0  0  0  0  0  0  0
    6.1610   -0.5400   -0.8890 N   0  0  0  0  0  0  0  0  0  0  0  0
    7.2680    0.2670   -0.6570 C   0  0  0  0  0  0  0  0  0  0  0  0
    7.0800    1.4520   -0.2980 O   0  0  0  0  0  0  0  0  0  0  0  0
    8.6570   -0.2110   -0.8150 C   0  0  0  0  0  0  0  0  0  0  0  0
    8.7560   -1.4350   -1.1960 O   0  0  0  0  0  0  0  0  0  0  0  0
    9.8030    0.5310   -0.5910 N   0  0  0  0  0  0  0  0  0  0  0  0
   11.1780    0.0620   -0.7400 C   0  0  0  0  0  0  0  0  0  0  0  0
   11.8890    0.6240    0.4810 C   0  0  0  0  0  0  0  0  0  0  0  0
   11.1980    1.9550    0.7160 C   0  0  0  0  0  0  0  0  0  0  0  0
    9.9220    1.9030   -0.1520 C   0  0  0  0  0  0  0  0  0  0  0  0
    3.9890    0.2070   -1.7810 C   0  0  0  0  0  0  0  0  0  0  0  0
    2.6180    0.4750   -1.6320 C   0  0  0  0  0  0  0  0  0  0  0  0
   -1.9790    2.3440   -2.0890 C   0  0  2  0  0  0  0  0  0  0  0  0
   -1.1710    3.5500   -1.6830 C   0  0  0  0  0  0  0  0  0  0  0  0
   -2.1560    4.6660   -1.7310 C   0  0  0  0  0  0  0  0  0  0  0  0
   -3.4830    4.0290   -1.9420 C   0  0  0  0  0  0  0  0  0  0  0  0
   -3.2660    2.6980   -2.2090 O   0  0  0  0  0  0  0  0  0  0  0  0
   -4.3070   -1.6050    0.7940 C   0  0  0  0  0  0  0  0  0  0  0  0
   -5.4740   -1.1340    0.4090 C   0  0  0  0  0  0  0  0  0  0  0  0
   -6.6990   -2.0070    0.2620 C   0  0  0  0  0  0  0  0  0  0  0  0
   -7.8910   -1.1770   -0.2590 C   0  0  0  0  0  0  0  0  0  0  0  0
   -8.0960    0.0300    0.6390 C   0  0  0  0  0  0  0  0  0  0  0  0
   -6.9200    0.8970    0.4360 N   0  0  0  0  0  0  0  0  0  0  0  0
   -5.7750    0.2140   -0.0950 C   0  0  0  0  0  0  0  0  0  0  0  0
   -5.0300    0.6940   -0.9670 O   0  0  0  0  0  0  0  0  0  0  0  0
  1  2  1  0
  2  3  1  0
  3  4  1  0
  4  5  2  0
  4 35  1  0
  5  6  1  0
  6  7  2  0
  7  8  1  0
  7 35  1  0
  8  9  1  0
 10  9  1  1
 10 11  1  0
 10 30  1  0
 11 12  1  0
 12 13  2  0
 12 14  1  0
 14 15  2  0
 14 29  1  0
 15 16  1  0
 16 17  2  0
 17 18  1  0
 17 28  1  0
 18 19  1  0
 19 20  2  0
 19 21  1  0
 21 22  2  0
 21 23  1  0
 23 24  1  0
 23 27  1  0
 24 25  1  0
 25 26  1  0
 26 27  1  0
 28 29  2  0
 30 31  1  1
 30 34  1  0
 31 32  1  0
 32 33  1  0
 33 34  1  0
 35 36  2  3
 36 37  1  0
 36 41  1  0
 37 38  1  0
 38 39  1  0
 39 40  1  0
 40 41  1  0
 41 42  2  0
M  END
