
     RDKit          3D

 24 26  0  0  0  0  0  0  0  0999 V2000
    0.2320   -1.0150   -1.7450 C   0  0  0  0  0  0  0  0  0  0  0  0
    0.2000   -0.8930   -0.3190 O   0  0  0  0  0  0  0  0  0  0  0  0
    0.4190    0.3310    0.2980 C   0  0  0  0  0  0  0  0  0  0  0  0
   -0.5250    1.2380    0.6510 C   0  0  0  0  0  0  0  0  0  0  0  0
   -1.9980    1.2000    0.5430 C   0  0  0  0  0  0  0  0  0  0  0  0
   -2.6150    2.2130    0.9380 O   0  0  0  0  0  0  0  0  0  0  0  0
   -2.7360    0.1320    0.0380 N   0  0  0  0  0  0  0  0  0  0  0  0
   -4.1340    0.0120   -0.1090 C   0  0  0  0  0  0  0  0  0  0  0  0
   -5.0660    0.9620    0.2300 C   0  0  0  0  0  0  0  0  0  0  0  0
   -6.4330    0.7750    0.0570 C   0  0  0  0  0  0  0  0  0  0  0  0
   -6.8840   -0.4020   -0.4760 C   0  0  0  0  0  0  0  0  0  0  0  0
   -5.9950   -1.3410   -0.8130 N   0  0  0  0  0  0  0  0  0  0  0  0
   -4.6740   -1.1630   -0.6470 C   0  0  0  0  0  0  0  0  0  0  0  0
   -3.8630   -2.0710   -0.9770 O   0  0  0  0  0  0  0  0  0  0  0  0
    0.2010    2.2890    1.2230 C   0  0  0  0  0  0  0  0  0  0  0  0
    1.4620    1.9850    1.1890 O   0  0  0  0  0  0  0  0  0  0  0  0
    1.6630    0.8210    0.6460 C   0  0  0  0  0  0  0  0  0  0  0  0
    2.9360    0.1450    0.4360 C   0  0  0  0  0  0  0  0  0  0  0  0
    3.1520   -1.4570   -0.3040 S   0  0  0  0  0  0  0  0  0  0  0  0
    4.9390   -1.4840   -0.1620 C   0  0  0  0  0  0  0  0  0  0  0  0
    5.8320   -2.5730   -0.5990 C   0  0  0  0  0  0  0  0  0  0  0  0
    5.2130   -0.2850    0.4300 C   0  0  0  0  0  0  0  0  0  0  0  0
    4.2020    0.5400    0.7330 C   0  0  0  0  0  0  0  0  0  0  0  0
    4.4070    1.9010    1.3960 C   0  0  0  0  0  0  0  0  0  0  0  0
  1  2  1  0
  2  3  1  0
  3  4  1  0
  3 17  2  0
  4  5  1  0
  4 15  2  0
  5  6  2  0
  5  7  1  0
  7  8  1  0
  8  9  2  0
  8 13  1  0
  9 10  1  0
 10 11  2  0
 11 12  1  0
 12 13  1  0
 13 14  2  0
 15 16  1  0
 16 17  1  0
 17 18  1  0
 18 19  1  0
 18 23  2  0
 19 20  1  0
 20 21  1  0
 20 22  2  0
 22 23  1  0
 23 24  1  0
M  END
