
     RDKit          3D

 20 22  0  0  0  0  0  0  0  0999 V2000
   -2.0550    1.8440    1.3700 O   0  0  0  0  0  0  0  0  0  0  0  0
   -1.5920    0.7790    0.8540 C   0  0  0  0  0  0  0  0  0  0  0  0
   -2.3810   -0.3350    0.3720 C   0  0  0  0  0  0  0  0  0  0  0  0
   -3.8620   -0.3960    0.4120 C   0  0  0  0  0  0  0  0  0  0  0  0
   -4.4210    0.7720   -0.4080 C   0  0  0  0  0  0  0  0  0  0  0  0
   -5.7940    0.7470   -0.3930 O   0  0  0  0  0  0  0  0  0  0  0  0
   -1.5300   -1.2400   -0.0880 C   0  0  0  0  0  0  0  0  0  0  0  0
   -1.8970   -2.4750   -0.6450 O   0  0  0  0  0  0  0  0  0  0  0  0
   -0.1600   -0.8030    0.0520 C   0  0  0  0  0  0  0  0  0  0  0  0
   -0.2100    0.4380    0.6310 C   0  0  0  0  0  0  0  0  0  0  0  0
    0.9400    1.1650    0.9170 C   0  0  0  0  0  0  0  0  0  0  0  0
    2.1790    0.6470    0.6190 C   0  0  0  0  0  0  0  0  0  0  0  0
    3.2960    1.3870    0.9110 C   0  0  0  0  0  0  0  0  0  0  0  0
    4.5490    0.8770    0.6160 C   0  0  0  0  0  0  0  0  0  0  0  0
    5.6970    1.5830    0.8910 O   0  0  0  0  0  0  0  0  0  0  0  0
    4.6240   -0.3710    0.0320 C   0  0  0  0  0  0  0  0  0  0  0  0
    3.4860   -1.0960   -0.2520 C   0  0  0  0  0  0  0  0  0  0  0  0
    2.2260   -0.6100    0.0320 C   0  0  0  0  0  0  0  0  0  0  0  0
    1.0770   -1.3290   -0.2490 C   0  0  0  0  0  0  0  0  0  0  0  0
    1.2000   -2.5600   -0.8280 O   0  0  0  0  0  0  0  0  0  0  0  0
  1  2  2  0
  2  3  1  0
  2 10  1  0
  3  4  1  0
  3  7  2  0
  4  5  1  0
  5  6  1  0
  7  8  1  0
  7  9  1  0
  9 10  2  0
  9 19  1  0
 10 11  1  0
 11 12  2  0
 12 13  1  0
 12 18  1  0
 13 14  2  0
 14 15  1  0
 14 16  1  0
 16 17  2  0
 17 18  1  0
 18 19  2  0
 19 20  1  0
M  END
