
     RDKit          3D

 17 17  0  0  0  0  0  0  0  0999 V2000
   -2.8710    1.8860   -0.8570 C   0  0  0  0  0  0  0  0  0  0  0  0
   -2.4840    0.5120   -0.2910 C   0  0  1  0  0  0  0  0  0  0  0  0
   -3.5530    0.1120    0.6240 C   0  0  0  0  0  0  0  0  0  0  0  0
   -3.3220   -0.1080    2.0000 N   0  0  0  0  0  0  0  0  0  0  0  0
   -4.7140   -0.0410    0.1760 O   0  0  0  0  0  0  0  0  0  0  0  0
   -2.4910   -0.4380   -1.4670 C   0  0  0  0  0  0  0  0  0  0  0  0
   -1.9310   -1.6620   -1.1870 O   0  0  0  0  0  0  0  0  0  0  0  0
   -0.9210   -1.5920   -0.2210 C   0  0  0  0  0  0  0  0  0  0  0  0
   -0.3500   -0.1820   -0.3210 C   0  0  2  0  0  0  0  0  0  0  0  0
    1.0080   -0.0960    0.2190 C   0  0  0  0  0  0  0  0  0  0  0  0
    1.2440    0.6970    1.1600 O   0  0  0  0  0  0  0  0  0  0  0  0
    2.0330   -0.9110   -0.3310 N   0  0  0  0  0  0  0  0  0  0  0  0
    3.3950   -0.8680    0.1640 C   0  0  0  0  0  0  0  0  0  0  0  0
    4.0060    0.4670    0.0360 C   0  0  0  0  0  0  0  0  0  0  0  0
    5.3440    0.6640    0.4810 N   0  0  0  0  0  0  0  0  0  0  0  0
    3.4370    1.4340   -0.4330 O   0  0  0  0  0  0  0  0  0  0  0  0
   -1.2540    0.6530    0.2920 O   0  0  0  0  0  0  0  0  0  0  0  0
  2  1  1  6
  2  3  1  0
  2  6  1  0
  2 17  1  0
  3  4  1  0
  3  5  2  0
  6  7  1  0
  7  8  1  0
  8  9  1  0
  9 10  1  1
  9 17  1  0
 10 11  2  0
 10 12  1  0
 12 13  1  0
 13 14  1  0
 14 15  1  0
 14 16  2  0
M  CHG  1  15   1
M  END
