
     RDKit          3D

 16 16  0  0  0  0  0  0  0  0999 V2000
   -1.6200   -0.2410    2.3950 C   0  0  0  0  0  0  0  0  0  0  0  0
   -1.8380   -0.3960    1.0450 O   0  0  0  0  0  0  0  0  0  0  0  0
   -1.4740    0.7730    0.3610 C   0  0  2  0  0  0  0  0  0  0  0  0
   -2.6080    1.2910   -0.3790 N   0  0  0  0  0  0  0  0  0  0  0  0
   -2.7420    0.6980   -1.6880 C   0  0  2  0  0  0  0  0  0  0  0  0
   -4.1910    0.5940   -2.1120 C   0  0  0  0  0  0  0  0  0  0  0  0
   -2.1100   -0.6450   -1.7750 C   0  0  0  0  0  0  0  0  0  0  0  0
   -2.7160   -1.6520   -2.2140 O   0  0  0  0  0  0  0  0  0  0  0  0
   -0.7750   -0.7090   -1.3280 O   0  0  0  0  0  0  0  0  0  0  0  0
   -0.3590    0.4550   -0.6070 C   0  0  2  0  0  0  0  0  0  0  0  0
    0.9260    0.2130    0.0960 C   0  0  0  0  0  0  0  0  0  0  0  0
    1.3800    1.1780    0.7610 O   0  0  0  0  0  0  0  0  0  0  0  0
    1.6200   -0.9540    0.0630 O   0  0  0  0  0  0  0  0  0  0  0  0
    2.8400   -1.2300    0.7060 C   0  0  0  0  0  0  0  0  0  0  0  0
    3.8990   -0.3050    0.1770 C   0  0  0  0  0  0  0  0  0  0  0  0
    5.1900   -0.5390    0.8020 N   0  0  0  0  0  0  0  0  0  0  0  0
  1  2  1  0
  3  2  1  6
  3  4  1  0
  3 10  1  0
  4  5  1  0
  5  6  1  1
  5  7  1  0
  7  8  2  0
  7  9  1  0
  9 10  1  0
 10 11  1  1
 11 12  2  0
 11 13  1  0
 13 14  1  0
 14 15  1  0
 15 16  1  0
M  CHG  1  16   1
M  END
