
     RDKit          3D

 17 17  0  0  0  0  0  0  0  0999 V2000
   -4.9430    0.2910    1.2780 C   0  0  0  0  0  0  0  0  0  0  0  0
   -3.8530   -0.3500    0.6580 O   0  0  0  0  0  0  0  0  0  0  0  0
   -3.4520    0.3700   -0.4660 C   0  0  0  0  0  0  0  0  0  0  0  0
   -2.2840   -0.3790   -1.0750 C   0  0  1  0  0  0  0  0  0  0  0  0
   -1.8030    0.2660   -2.2170 O   0  0  0  0  0  0  0  0  0  0  0  0
   -0.5860   -0.3510   -2.4220 C   0  0  0  0  0  0  0  0  0  0  0  0
    0.0580   -0.5500   -1.0750 C   0  0  1  0  0  0  0  0  0  0  0  0
    1.0640    0.4570   -0.7970 N   0  0  0  0  0  0  0  0  0  0  0  0
    2.3810    0.1320   -0.4060 C   0  0  0  0  0  0  0  0  0  0  0  0
    2.6960   -1.0680   -0.2940 O   0  0  0  0  0  0  0  0  0  0  0  0
    3.3370    1.1920   -0.1440 C   0  0  0  0  0  0  0  0  0  0  0  0
    4.6080    0.7800    0.2350 O   0  0  0  0  0  0  0  0  0  0  0  0
    4.8850    0.0170    1.3610 C   0  0  0  0  0  0  0  0  0  0  0  0
    6.1950   -0.3870    1.7200 N   0  0  0  0  0  0  0  0  0  0  0  0
    3.8590   -0.2960    2.0560 O   0  0  0  0  0  0  0  0  0  0  0  0
   -1.1160   -0.2600   -0.1360 C   0  0  2  0  0  0  0  0  0  0  0  0
   -1.1580   -1.2330    0.9360 N   0  0  0  0  0  0  0  0  0  0  0  0
  1  2  1  0
  2  3  1  0
  4  3  1  1
  4  5  1  0
  4 16  1  0
  5  6  1  0
  6  7  1  0
  7  8  1  1
  7 16  1  0
  8  9  1  0
  9 10  2  0
  9 11  1  0
 11 12  1  0
 12 13  1  0
 13 14  1  0
 13 15  2  0
 16 17  1  1
M  CHG  1  17   1
M  END
