
     RDKit          3D

 17 17  0  0  0  0  0  0  0  0999 V2000
   -0.5200   -2.5370   -1.3980 O   0  0  0  0  0  0  0  0  0  0  0  0
    0.0750   -1.7980   -0.5430 C   0  0  0  0  0  0  0  0  0  0  0  0
   -0.6090   -1.6240    0.7510 C   0  0  0  0  0  0  0  0  0  0  0  0
   -2.0540   -1.7180    0.6250 N   0  0  0  0  0  0  0  0  0  0  0  0
   -2.5230   -0.6550   -0.2270 C   0  0  0  0  0  0  0  0  0  0  0  0
   -2.2420    0.7200    0.3350 C   0  0  2  0  0  0  0  0  0  0  0  0
   -3.4850    1.3950    0.3470 O   0  0  0  0  0  0  0  0  0  0  0  0
   -1.2350    1.4770   -0.5030 C   0  0  0  0  0  0  0  0  0  0  0  0
   -0.3350    2.1410    0.3580 O   0  0  0  0  0  0  0  0  0  0  0  0
    0.8460    2.7370   -0.0670 C   0  0  0  0  0  0  0  0  0  0  0  0
    1.2070    3.7330    0.6170 O   0  0  0  0  0  0  0  0  0  0  0  0
    1.5050    2.2000   -1.1750 N   0  0  0  0  0  0  0  0  0  0  0  0
    1.9650    1.0080   -1.2980 C   0  0  0  0  0  0  0  0  0  0  0  0
    1.8830   -0.0420   -0.2730 C   0  0  2  0  0  0  0  0  0  0  0  0
    3.2510   -0.4390    0.2540 C   0  0  0  0  0  0  0  0  0  0  0  0
    3.9230    0.5940    0.8560 O   0  0  0  0  0  0  0  0  0  0  0  0
    1.3030   -1.2130   -0.8700 N   0  0  0  0  0  0  0  0  0  0  0  0
  1  2  2  0
  2  3  1  0
  2 17  1  0
  3  4  1  0
  4  5  1  0
  5  6  1  0
  6  7  1  6
  6  8  1  0
  8  9  1  0
  9 10  1  0
 10 11  2  0
 10 12  1  0
 12 13  2  0
 13 14  1  0
 14 15  1  6
 14 17  1  0
 15 16  1  0
M  CHG  1   4   1
M  END
