
     RDKit          3D

 29 30  0  0  0  0  0  0  0  0999 V2000
    3.6810    1.4560    1.5720 C   0  0  0  0  0  0  0  0  0  0  0  0
    4.1850    0.3050    1.2150 C   0  0  0  0  0  0  0  0  0  0  0  0
    5.5950   -0.1070    1.4700 C   0  0  0  0  0  0  0  0  0  0  0  0
    6.4540    0.4950    2.2660 C   0  0  0  0  0  0  0  0  0  0  0  0
    7.7640   -0.0300    2.3960 N   0  0  0  0  0  0  0  0  0  0  0  0
    5.7500   -1.3180    0.6240 C   0  0  0  0  0  0  0  0  0  0  0  0
    4.3820   -1.9100    0.6360 C   0  0  0  0  0  0  0  0  0  0  0  0
    3.5160   -0.7290    0.5370 N   0  0  0  0  0  0  0  0  0  0  0  0
    2.2770   -0.7490   -0.1580 C   0  0  0  0  0  0  0  0  0  0  0  0
    1.9750   -1.8570   -0.7380 O   0  0  0  0  0  0  0  0  0  0  0  0
    1.3180    0.3300   -0.2880 C   0  0  0  0  0  0  0  0  0  0  0  0
    0.1770   -0.1130   -1.1320 N   0  0  0  0  0  0  0  0  0  0  0  0
    0.4200   -0.3680   -2.5430 C   0  0  0  0  0  0  0  0  0  0  0  0
   -0.9090   -0.3590   -3.2940 C   0  0  0  0  0  0  0  0  0  0  0  0
   -1.8980    0.5300   -2.6560 C   0  0  0  0  0  0  0  0  0  0  0  0
   -2.2350    0.0400   -1.1980 C   0  0  0  0  0  0  0  0  0  0  0  0
   -3.5090    0.4980   -0.7050 C   0  0  0  0  0  0  0  0  0  0  0  0
   -3.9000    1.1200    0.5200 C   0  0  0  0  0  0  0  0  0  0  0  0
   -3.3500    1.5440    1.5940 C   0  0  0  0  0  0  0  0  0  0  0  0
   -4.3500    2.1500    2.6520 C   0  0  0  0  0  0  0  0  0  0  0  0
   -1.9820    1.7300    2.0640 C   0  0  0  0  0  0  0  0  0  0  0  0
   -4.5420    0.3890   -1.5810 C   0  0  0  0  0  0  0  0  0  0  0  0
   -5.9030    0.9130   -1.0990 C   0  0  0  0  0  0  0  0  0  0  0  0
   -4.6790   -0.4260   -2.7450 C   0  0  0  0  0  0  0  0  0  0  0  0
   -3.8210   -1.4000   -3.2040 N   0  0  0  0  0  0  0  0  0  0  0  0
   -5.7560   -0.2220   -3.4710 O   0  0  0  0  0  0  0  0  0  0  0  0
   -1.1070   -0.2430   -0.6080 C   0  0  0  0  0  0  0  0  0  0  0  0
   -1.2650   -0.9680    0.7010 C   0  0  0  0  0  0  0  0  0  0  0  0
   -0.8670   -2.4540    0.5600 C   0  0  0  0  0  0  0  0  0  0  0  0
  1  2  2  0
  2  3  1  0
  2  8  1  0
  3  4  2  3
  3  6  1  0
  4  5  1  0
  6  7  1  0
  7  8  1  0
  8  9  1  0
  9 10  2  0
  9 11  1  0
 11 12  1  0
 12 13  1  0
 12 27  1  0
 13 14  1  0
 14 15  1  0
 15 16  1  0
 16 17  1  0
 16 27  2  0
 17 18  1  0
 17 22  2  3
 18 19  2  3
 19 20  1  0
 19 21  1  0
 22 23  1  0
 22 24  1  0
 24 25  1  0
 24 26  2  0
 27 28  1  0
 28 29  1  0
M  CHG  1   5   1
M  END
