
     RDKit          3D

 29 31  0  0  0  0  0  0  0  0999 V2000
   -7.1980    1.7760    1.3610 C   0  0  0  0  0  0  0  0  0  0  0  0
   -6.4380    1.3120    0.4030 C   0  0  0  0  0  0  0  0  0  0  0  0
   -6.7530    1.6330   -1.0250 C   0  0  0  0  0  0  0  0  0  0  0  0
   -5.5360    1.5860   -1.9160 C   0  0  0  0  0  0  0  0  0  0  0  0
   -4.2120    1.6070   -1.1580 C   0  0  0  0  0  0  0  0  0  0  0  0
   -4.3060    0.3610   -0.3380 N   0  0  0  0  0  0  0  0  0  0  0  0
   -3.5210   -0.7750   -0.5560 C   0  0  0  0  0  0  0  0  0  0  0  0
   -4.0430   -1.7850   -1.2830 C   0  0  0  0  0  0  0  0  0  0  0  0
   -3.3650   -2.9050   -1.5710 C   0  0  0  0  0  0  0  0  0  0  0  0
   -2.0590   -3.0680   -1.1050 C   0  0  0  0  0  0  0  0  0  0  0  0
   -1.4500   -2.0450   -0.3210 C   0  0  0  0  0  0  0  0  0  0  0  0
   -0.0510   -2.3050    0.0770 C   0  0  0  0  0  0  0  0  0  0  0  0
    1.0520   -1.4570   -0.4590 C   0  0  0  0  0  0  0  0  0  0  0  0
    1.0270   -0.1580    0.1160 N   0  0  0  0  0  0  0  0  0  0  0  0
    2.2490    0.4870    0.3860 C   0  0  0  0  0  0  0  0  0  0  0  0
    3.5620   -0.0330   -0.0330 C   0  0  0  0  0  0  0  0  0  0  0  0
    4.2280   -1.1170    0.4260 C   0  0  0  0  0  0  0  0  0  0  0  0
    5.6020   -1.1770    0.1640 C   0  0  0  0  0  0  0  0  0  0  0  0
    6.2810   -0.2450   -0.4960 C   0  0  0  0  0  0  0  0  0  0  0  0
    7.7570   -0.0790   -0.5890 C   0  0  0  0  0  0  0  0  0  0  0  0
    8.5690   -0.8040   -1.0930 O   0  0  0  0  0  0  0  0  0  0  0  0
    8.1640    1.1630    0.0790 N   0  0  0  0  0  0  0  0  0  0  0  0
    9.4360    1.6930    0.2420 C   0  0  0  0  0  0  0  0  0  0  0  0
    5.5830    0.8680   -0.9710 N   0  0  0  0  0  0  0  0  0  0  0  0
    4.3050    0.9420   -0.7450 C   0  0  0  0  0  0  0  0  0  0  0  0
    3.6100    1.9610   -1.1630 O   0  0  0  0  0  0  0  0  0  0  0  0
   -2.1560   -0.9350   -0.0550 C   0  0  0  0  0  0  0  0  0  0  0  0
   -5.2550    0.4820    0.6380 C   0  0  0  0  0  0  0  0  0  0  0  0
   -5.2040   -0.0690    1.9240 C   0  0  0  0  0  0  0  0  0  0  0  0
  1  2  2  0
  2  3  1  0
  2 28  1  0
  3  4  1  0
  4  5  1  0
  5  6  1  0
  6  7  1  0
  6 28  1  0
  7  8  2  0
  7 27  1  0
  8  9  1  0
  9 10  2  0
 10 11  1  0
 11 12  1  0
 11 27  2  0
 12 13  1  0
 13 14  1  0
 14 15  1  0
 15 16  1  0
 16 17  2  0
 16 25  1  0
 17 18  1  0
 18 19  2  0
 19 20  1  0
 19 24  1  0
 20 21  2  0
 20 22  1  0
 22 23  1  0
 24 25  1  0
 25 26  2  0
 28 29  2  0
M  CHG  1  14   1
M  END
