
     RDKit          3D

 29 31  0  0  0  0  0  0  0  0999 V2000
    4.2120    1.2190    1.4020 C   0  0  0  0  0  0  0  0  0  0  0  0
    4.4770   -0.2580    1.6340 C   0  0  2  0  0  0  0  0  0  0  0  0
    5.8220   -0.4310    2.1530 N   0  0  0  0  0  0  0  0  0  0  0  0
    4.2980   -1.0050    0.3600 C   0  0  0  0  0  0  0  0  0  0  0  0
    4.7510   -2.2980    0.1970 C   0  0  0  0  0  0  0  0  0  0  0  0
    4.5520   -2.9300   -1.0090 C   0  0  0  0  0  0  0  0  0  0  0  0
    3.8990   -2.2700   -2.0550 C   0  0  0  0  0  0  0  0  0  0  0  0
    3.5760   -2.6600   -3.3370 C   0  0  0  0  0  0  0  0  0  0  0  0
    2.9320   -1.6140   -3.9530 C   0  0  0  0  0  0  0  0  0  0  0  0
    2.8570   -0.5910   -3.0630 N   0  0  0  0  0  0  0  0  0  0  0  0
    2.2480    0.6800   -3.3340 C   0  0  0  0  0  0  0  0  0  0  0  0
    0.7890    0.7450   -3.0210 C   0  0  0  0  0  0  0  0  0  0  0  0
    0.5270    0.4680   -1.5710 C   0  0  0  0  0  0  0  0  0  0  0  0
   -0.9520    0.5400   -1.2990 C   0  0  0  0  0  0  0  0  0  0  0  0
   -1.7260    0.7850   -2.2460 O   0  0  0  0  0  0  0  0  0  0  0  0
   -1.4410    0.3350   -0.0080 N   0  0  0  0  0  0  0  0  0  0  0  0
   -2.6180    0.5860    0.4060 C   0  0  0  0  0  0  0  0  0  0  0  0
   -3.6200    1.1440   -0.4950 C   0  0  0  0  0  0  0  0  0  0  0  0
   -4.9430    1.4520    0.1590 C   0  0  1  0  0  0  0  0  0  0  0  0
   -5.4420    2.7720   -0.4310 C   0  0  0  0  0  0  0  0  0  0  0  0
   -5.9570    0.3990   -0.2530 C   0  0  0  0  0  0  0  0  0  0  0  0
   -4.8660    1.6270    1.6350 C   0  0  0  0  0  0  0  0  0  0  0  0
   -4.1490    0.5250    2.3440 C   0  0  0  0  0  0  0  0  0  0  0  0
   -2.8550    0.2780    1.7940 N   0  0  0  0  0  0  0  0  0  0  0  0
   -1.8090   -0.2730    2.6330 C   0  0  0  0  0  0  0  0  0  0  0  0
   -2.1510   -1.7060    3.0120 C   0  0  0  0  0  0  0  0  0  0  0  0
   -1.1290   -2.2090    3.8190 O   0  0  0  0  0  0  0  0  0  0  0  0
    3.4370   -0.9760   -1.9160 C   0  0  0  0  0  0  0  0  0  0  0  0
    3.6570   -0.3740   -0.6870 C   0  0  0  0  0  0  0  0  0  0  0  0
  2  1  1  6
  2  3  1  0
  2  4  1  0
  4  5  2  0
  4 29  1  0
  5  6  1  0
  6  7  2  0
  7  8  1  0
  7 28  1  0
  8  9  2  0
  9 10  1  0
 10 11  1  0
 10 28  1  0
 11 12  1  0
 12 13  1  0
 13 14  1  0
 14 15  2  0
 14 16  1  0
 16 17  2  3
 17 18  1  0
 17 24  1  0
 18 19  1  0
 19 20  1  6
 19 21  1  0
 19 22  1  0
 22 23  1  0
 23 24  1  0
 24 25  1  0
 25 26  1  0
 26 27  1  0
 28 29  2  0
M  CHG  1   3   1
M  END
