
     RDKit          3D

 40 43  0  0  0  0  0  0  0  0999 V2000
    5.6210    2.8140    0.8630 C   0  0  0  0  0  0  0  0  0  0  0  0
    4.9510    2.1370    0.0180 C   0  0  0  0  0  0  0  0  0  0  0  0
    3.9940    2.5820   -0.9450 O   0  0  0  0  0  0  0  0  0  0  0  0
    3.7650    1.7500   -2.1010 C   0  0  1  0  0  0  0  0  0  0  0  0
    4.6810    2.3570   -3.1730 C   0  0  0  0  0  0  0  0  0  0  0  0
    4.0330    0.2940   -1.9770 C   0  0  1  0  0  0  0  0  0  0  0  0
    5.4710   -0.0610   -2.3200 C   0  0  0  0  0  0  0  0  0  0  0  0
    6.0410   -1.2890   -1.7140 C   0  0  0  0  0  0  0  0  0  0  0  0
    6.9800   -0.9710   -0.5180 C   0  0  0  0  0  0  0  0  0  0  0  0
    6.3520    0.2430    0.1490 C   0  0  0  0  0  0  0  0  0  0  0  0
    5.1390    0.7000   -0.0390 C   0  0  0  0  0  0  0  0  0  0  0  0
    3.9490   -0.0910   -0.4490 C   0  0  1  0  0  0  0  0  0  0  0  0
    2.7000    0.3700    0.0780 N   0  0  0  0  0  0  0  0  0  0  0  0
    2.2200   -0.5580    1.0780 C   0  0  1  0  0  0  0  0  0  0  0  0
    3.1590   -0.4410    2.2810 C   0  0  0  0  0  0  0  0  0  0  0  0
    0.8290   -0.3910    1.4950 C   0  0  0  0  0  0  0  0  0  0  0  0
    0.5230   -0.5750    2.8490 C   0  0  0  0  0  0  0  0  0  0  0  0
   -0.7690   -0.4670    3.2880 C   0  0  0  0  0  0  0  0  0  0  0  0
   -1.8150   -0.1750    2.4270 C   0  0  0  0  0  0  0  0  0  0  0  0
   -3.1760   -0.0840    2.9210 C   0  0  0  0  0  0  0  0  0  0  0  0
   -3.3770   -0.2020    4.3560 N   0  0  0  0  0  0  0  0  0  0  0  0
   -4.2120    0.0840    2.2670 O   0  0  0  0  0  0  0  0  0  0  0  0
   -1.5550    0.0160    1.0850 C   0  0  0  0  0  0  0  0  0  0  0  0
   -2.6450    0.2640    0.1220 C   0  0  1  0  0  0  0  0  0  0  0  0
   -2.1540    0.8530   -1.1700 C   0  0  0  0  0  0  0  0  0  0  0  0
   -1.4870    2.4490   -1.2090 S   0  0  0  0  0  0  0  0  0  0  0  0
   -0.1360    3.0600   -0.3420 C   0  0  0  0  0  0  0  0  0  0  0  0
   -0.3500    3.3570    1.1160 C   0  0  0  0  0  0  0  0  0  0  0  0
    0.8230    3.8680    1.7050 O   0  0  0  0  0  0  0  0  0  0  0  0
   -3.4110   -1.0170   -0.1460 C   0  0  0  0  0  0  0  0  0  0  0  0
   -2.8390   -2.0940    0.1640 O   0  0  0  0  0  0  0  0  0  0  0  0
   -4.6880   -1.0440   -0.7050 N   0  0  0  0  0  0  0  0  0  0  0  0
   -5.5370    0.0860   -1.1400 C   0  0  0  0  0  0  0  0  0  0  0  0
   -5.7320   -0.3590   -2.6020 C   0  0  0  0  0  0  0  0  0  0  0  0
   -5.6170   -1.9110   -2.5610 C   0  0  0  0  0  0  0  0  0  0  0  0
   -5.5370   -2.1460   -1.0860 C   0  0  1  0  0  0  0  0  0  0  0  0
   -5.2670   -3.4800   -0.5680 C   0  0  0  0  0  0  0  0  0  0  0  0
   -5.4380   -3.5210    0.9310 C   0  0  0  0  0  0  0  0  0  0  0  0
   -6.9170   -3.1520    1.1760 C   0  0  0  0  0  0  0  0  0  0  0  0
   -0.2240   -0.0990    0.6590 C   0  0  0  0  0  0  0  0  0  0  0  0
  1  2  2  0
  2  3  1  0
  2 11  1  0
  3  4  1  0
  4  5  1  6
  4  6  1  0
  6  7  1  1
  6 12  1  0
  7  8  1  0
  8  9  1  0
  9 10  1  0
 10 11  2  0
 11 12  1  0
 12 13  1  1
 13 14  1  0
 14 15  1  1
 14 16  1  0
 16 17  2  0
 16 40  1  0
 17 18  1  0
 18 19  2  0
 19 20  1  0
 19 23  1  0
 20 21  1  0
 20 22  2  0
 23 24  1  0
 23 40  2  0
 24 25  1  6
 24 30  1  0
 25 26  1  0
 26 27  1  0
 27 28  1  0
 28 29  1  0
 30 31  2  0
 30 32  1  0
 32 33  1  0
 32 36  1  0
 33 34  1  0
 34 35  1  0
 35 36  1  0
 36 37  1  6
 37 38  1  0
 38 39  1  0
M  CHG  1  13   1
M  END
