
     RDKit          3D

 40 44  0  0  0  0  0  0  0  0999 V2000
   11.5960    0.0260   -2.0670 C   0  0  0  0  0  0  0  0  0  0  0  0
   10.3440    0.0030   -1.2470 C   0  0  0  0  0  0  0  0  0  0  0  0
   10.2170   -0.8220   -0.1490 C   0  0  0  0  0  0  0  0  0  0  0  0
    9.0530   -0.8510    0.6160 C   0  0  0  0  0  0  0  0  0  0  0  0
    7.9740   -0.0490    0.3010 C   0  0  0  0  0  0  0  0  0  0  0  0
    6.7270   -0.0860    1.1180 C   0  0  2  0  0  0  0  0  0  0  0  0
    5.6140   -0.7980    0.4050 C   0  0  0  0  0  0  0  0  0  0  0  0
    4.3610   -0.6930    1.2400 C   0  0  2  0  0  0  0  0  0  0  0  0
    3.3190    0.0080    0.4910 N   0  0  0  0  0  0  0  0  0  0  0  0
    2.1000   -0.7410    0.4980 C   0  0  0  0  0  0  0  0  0  0  0  0
    0.9170    0.1420    0.2000 C   0  0  0  0  0  0  0  0  0  0  0  0
    0.3700    0.9300    1.2150 C   0  0  0  0  0  0  0  0  0  0  0  0
   -0.7110    1.7610    1.0220 C   0  0  0  0  0  0  0  0  0  0  0  0
   -1.2740    1.8110   -0.2330 C   0  0  0  0  0  0  0  0  0  0  0  0
   -0.7550    1.0340   -1.2770 C   0  0  0  0  0  0  0  0  0  0  0  0
    0.3290    0.2170   -1.0360 C   0  0  0  0  0  0  0  0  0  0  0  0
   -1.5780    1.3080   -2.4970 C   0  0  0  0  0  0  0  0  0  0  0  0
   -2.9120    1.7490   -1.9220 C   0  0  1  0  0  0  0  0  0  0  0  0
   -3.7070    0.5920   -1.4700 C   0  0  0  0  0  0  0  0  0  0  0  0
   -3.3080   -0.5520   -1.7990 O   0  0  0  0  0  0  0  0  0  0  0  0
   -4.8710    0.6800   -0.7040 N   0  0  0  0  0  0  0  0  0  0  0  0
   -5.6850   -0.4400   -0.2490 C   0  0  1  0  0  0  0  0  0  0  0  0
   -5.3610   -0.7920    1.1870 C   0  0  1  0  0  0  0  0  0  0  0  0
   -3.8920   -0.9860    1.4030 C   0  0  0  0  0  0  0  0  0  0  0  0
   -6.0390    0.0140    2.2220 C   0  0  1  0  0  0  0  0  0  0  0  0
   -5.4620    1.3090    2.6170 C   0  0  0  0  0  0  0  0  0  0  0  0
   -7.4650    0.1050    1.8700 N   0  0  0  0  0  0  0  0  0  0  0  0
   -7.9030   -0.5070    0.6720 C   0  0  0  0  0  0  0  0  0  0  0  0
   -8.9320   -1.2150    0.7370 O   0  0  0  0  0  0  0  0  0  0  0  0
   -7.1300   -0.2790   -0.5680 C   0  0  2  0  0  0  0  0  0  0  0  0
   -7.4920   -1.2690   -1.6300 C   0  0  0  0  0  0  0  0  0  0  0  0
   -8.8830   -1.2600   -2.1280 C   0  0  0  0  0  0  0  0  0  0  0  0
   -9.0890   -2.5340   -3.4240 S   0  0  0  0  0  0  0  0  0  0  0  0
   -7.8510   -2.6500   -4.2780 O   0  0  0  0  0  0  0  0  0  0  0  0
   -2.4430    2.6030   -0.7590 C   0  0  0  0  0  0  0  0  0  0  0  0
    4.6120    0.0330    2.5210 C   0  0  0  0  0  0  0  0  0  0  0  0
    5.4040    1.2910    2.3800 C   0  0  0  0  0  0  0  0  0  0  0  0
    6.3260    1.2390    1.3420 O   0  0  0  0  0  0  0  0  0  0  0  0
    8.1010    0.7740   -0.7960 C   0  0  0  0  0  0  0  0  0  0  0  0
    9.2640    0.8030   -1.5590 C   0  0  0  0  0  0  0  0  0  0  0  0
  1  2  1  0
  2  3  2  0
  2 40  1  0
  3  4  1  0
  4  5  2  0
  6  5  1  6
  5 39  1  0
  6  7  1  0
  6 38  1  0
  7  8  1  0
  8  9  1  6
  8 36  1  0
  9 10  1  0
 10 11  1  0
 11 12  2  0
 11 16  1  0
 12 13  1  0
 13 14  2  0
 14 15  1  0
 14 35  1  0
 15 16  2  0
 15 17  1  0
 17 18  1  0
 18 19  1  1
 18 35  1  0
 19 20  2  0
 19 21  1  0
 22 21  1  1
 22 23  1  0
 22 30  1  0
 23 24  1  6
 23 25  1  0
 25 26  1  6
 25 27  1  0
 27 28  1  0
 28 29  2  0
 28 30  1  0
 30 31  1  6
 31 32  1  0
 32 33  1  0
 33 34  2  0
 36 37  1  0
 37 38  1  0
 39 40  2  0
M  CHG  1   9   1
M  END
