
     RDKit          3D

 40 43  0  0  0  0  0  0  0  0999 V2000
   -6.1870   -3.0980   -2.0670 C   0  0  0  0  0  0  0  0  0  0  0  0
   -6.1840   -2.9300   -0.5620 C   0  0  1  0  0  0  0  0  0  0  0  0
   -5.5010   -4.0880    0.1330 C   0  0  0  0  0  0  0  0  0  0  0  0
   -4.0120   -3.9170    0.1950 C   0  0  0  0  0  0  0  0  0  0  0  0
   -3.4860   -2.7520   -0.5750 C   0  0  2  0  0  0  0  0  0  0  0  0
   -2.0020   -2.6200   -0.2820 C   0  0  0  0  0  0  0  0  0  0  0  0
   -1.4250   -1.5410   -0.9670 O   0  0  0  0  0  0  0  0  0  0  0  0
   -0.0710   -1.2950   -0.8040 C   0  0  0  0  0  0  0  0  0  0  0  0
    0.6940   -2.1070    0.0210 C   0  0  0  0  0  0  0  0  0  0  0  0
    2.0480   -1.8690    0.1880 C   0  0  0  0  0  0  0  0  0  0  0  0
    2.6880   -0.8290   -0.4490 C   0  0  0  0  0  0  0  0  0  0  0  0
    3.9880   -0.4060   -0.4430 N   0  0  0  0  0  0  0  0  0  0  0  0
    4.0870    0.6540   -1.2360 C   0  0  0  0  0  0  0  0  0  0  0  0
    5.2930    1.4780   -1.5340 C   0  0  0  0  0  0  0  0  0  0  0  0
    5.3470    3.0330   -0.7500 S   0  0  1  0  0  0  0  0  0  0  0  0
    6.4850    3.8710   -1.3860 O   0  0  0  0  0  0  0  0  0  0  0  0
    4.0680    3.7790   -1.1820 O   0  0  0  0  0  0  0  0  0  0  0  0
    5.4400    3.1150    0.9680 C   0  0  0  0  0  0  0  0  0  0  0  0
    6.6780    2.6010    1.6190 C   0  0  0  0  0  0  0  0  0  0  0  0
    6.9130    1.1740    1.4310 C   0  0  0  0  0  0  0  0  0  0  0  0
    6.0590    0.4040    1.8240 O   0  0  0  0  0  0  0  0  0  0  0  0
    8.1560    0.6310    0.7840 C   0  0  2  0  0  0  0  0  0  0  0  0
    8.0950   -0.8760    0.7140 C   0  0  0  0  0  0  0  0  0  0  0  0
    9.3020    1.0480    1.6940 C   0  0  0  0  0  0  0  0  0  0  0  0
   10.5840    0.5550    1.1380 C   0  0  0  0  0  0  0  0  0  0  0  0
   10.5960   -0.0740    0.1100 O   0  0  0  0  0  0  0  0  0  0  0  0
    2.8080    0.9140   -1.7660 C   0  0  0  0  0  0  0  0  0  0  0  0
    1.9410   -0.0210   -1.2660 C   0  0  0  0  0  0  0  0  0  0  0  0
    0.5710   -0.2550   -1.4410 C   0  0  0  0  0  0  0  0  0  0  0  0
   -4.1900   -1.4670   -0.3030 C   0  0  0  0  0  0  0  0  0  0  0  0
   -5.6220   -1.6660   -0.1610 N   0  0  0  0  0  0  0  0  0  0  0  0
   -6.4620   -0.6620    0.3530 C   0  0  0  0  0  0  0  0  0  0  0  0
   -7.6950   -0.8850    0.4550 O   0  0  0  0  0  0  0  0  0  0  0  0
   -5.9600    0.6710    0.7890 C   0  0  1  0  0  0  0  0  0  0  0  0
   -5.3900    1.4660   -0.3330 C   0  0  0  0  0  0  0  0  0  0  0  0
   -5.8090    2.7630   -0.0500 O   0  0  0  0  0  0  0  0  0  0  0  0
   -6.9470    2.6610    0.7030 C   0  0  2  0  0  0  0  0  0  0  0  0
   -8.1910    2.9160   -0.1530 C   0  0  0  0  0  0  0  0  0  0  0  0
   -6.9820    3.6540    1.8540 C   0  0  0  0  0  0  0  0  0  0  0  0
   -7.0330    1.4120    1.2310 O   0  0  0  0  0  0  0  0  0  0  0  0
  2  1  1  6
  2  3  1  0
  2 31  1  0
  3  4  1  0
  4  5  1  0
  5  6  1  1
  5 30  1  0
  6  7  1  0
  7  8  1  0
  8  9  2  0
  8 29  1  0
  9 10  1  0
 10 11  2  0
 11 12  1  0
 11 28  1  0
 12 13  1  0
 13 14  1  0
 13 27  2  0
 15 14  1  1
 15 16  2  0
 15 17  2  0
 15 18  1  0
 18 19  1  0
 19 20  1  0
 20 21  2  0
 20 22  1  0
 22 23  1  1
 22 24  1  0
 24 25  1  0
 25 26  2  0
 27 28  1  0
 28 29  2  0
 30 31  1  0
 31 32  1  0
 32 33  2  0
 34 32  1  6
 34 35  1  0
 34 40  1  0
 35 36  1  0
 36 37  1  0
 37 38  1  6
 37 39  1  0
 37 40  1  0
M  END
