
     RDKit          3D

 19 20  0  0  0  0  0  0  0  0999 V2000
   -5.2430   -1.6000    0.0420 C   0  0  0  0  0  0  0  0  0  0  0  0
   -4.0870   -0.6660    0.1210 C   0  0  0  0  0  0  0  0  0  0  0  0
   -4.0920    0.6820   -0.1810 C   0  0  0  0  0  0  0  0  0  0  0  0
   -2.7950    1.1010    0.0480 C   0  0  0  0  0  0  0  0  0  0  0  0
   -2.0580   -0.0070    0.4780 C   0  0  0  0  0  0  0  0  0  0  0  0
   -0.6150    0.0500    0.8240 C   0  0  2  0  0  0  0  0  0  0  0  0
   -0.3850    1.1690    1.6090 O   0  0  0  0  0  0  0  0  0  0  0  0
    0.2260    0.0630   -0.4330 C   0  0  0  0  0  0  0  0  0  0  0  0
    1.6070    0.0860   -0.0240 N   0  0  0  0  0  0  0  0  0  0  0  0
    2.5900    0.1010   -1.0140 C   0  0  0  0  0  0  0  0  0  0  0  0
    2.2080    0.0940   -2.2250 O   0  0  0  0  0  0  0  0  0  0  0  0
    4.0340    0.1240   -0.7640 C   0  0  0  0  0  0  0  0  0  0  0  0
    5.2310    0.1420   -2.0840 S   0  0  0  0  0  0  0  0  0  0  0  0
    6.7530    0.1670   -1.4100 C   0  0  0  0  0  0  0  0  0  0  0  0
    7.9680    0.1860   -2.0730 O   0  0  0  0  0  0  0  0  0  0  0  0
    6.4410    0.1630    0.2040 S   0  0  0  0  0  0  0  0  0  0  0  0
    4.7270    0.1360    0.4370 C   0  0  0  0  0  0  0  0  0  0  0  0
    3.9660    0.1250    2.0250 Cl  0  0  0  0  0  0  0  0  0  0  0  0
   -2.8810   -1.0150    0.4990 O   0  0  0  0  0  0  0  0  0  0  0  0
  1  2  1  0
  2  3  2  0
  2 19  1  0
  3  4  1  0
  4  5  2  0
  5  6  1  0
  5 19  1  0
  6  7  1  6
  6  8  1  0
  8  9  1  0
  9 10  1  0
 10 11  2  0
 10 12  1  0
 12 13  1  0
 12 17  2  0
 13 14  1  0
 14 15  2  0
 14 16  1  0
 16 17  1  0
 17 18  1  0
M  END
