
     RDKit          3D

 24 26  0  0  0  0  0  0  0  0999 V2000
    2.2770   -2.5370   -1.2410 C   0  0  0  0  0  0  0  0  0  0  0  0
    2.9490   -1.3370   -0.5860 C   0  0  0  0  0  0  0  0  0  0  0  0
    2.0450   -0.6940    0.4480 C   0  0  1  0  0  0  0  0  0  0  0  0
    2.8020    0.4720    1.0280 C   0  0  0  0  0  0  0  0  0  0  0  0
    2.4130    1.7810    0.5060 C   0  0  0  0  0  0  0  0  0  0  0  0
    2.7960    2.8780    1.1150 C   0  0  0  0  0  0  0  0  0  0  0  0
    3.5550    2.8080    2.2330 F   0  0  0  0  0  0  0  0  0  0  0  0
    1.6100    1.8720   -0.6900 C   0  0  0  0  0  0  0  0  0  0  0  0
    1.7660    2.8110   -1.5980 C   0  0  0  0  0  0  0  0  0  0  0  0
    2.7110    3.7830   -1.4790 F   0  0  0  0  0  0  0  0  0  0  0  0
    0.9870    2.8570   -2.7030 F   0  0  0  0  0  0  0  0  0  0  0  0
    0.5530    0.8530   -0.9110 C   0  0  2  0  0  0  0  0  0  0  0  0
   -0.7080    1.4330   -0.4910 N   0  0  0  0  0  0  0  0  0  0  0  0
   -1.8750    0.6620   -0.2380 C   0  0  0  0  0  0  0  0  0  0  0  0
   -1.7200   -0.6100    0.0920 C   0  0  0  0  0  0  0  0  0  0  0  0
   -0.3610   -1.1340    0.1710 C   0  0  0  0  0  0  0  0  0  0  0  0
   -0.2320   -2.3650    0.4920 O   0  0  0  0  0  0  0  0  0  0  0  0
    0.7720   -0.3250   -0.0920 N   0  0  0  0  0  0  0  0  0  0  0  0
   -2.8440   -1.4230    0.3560 N   0  0  0  0  0  0  0  0  0  0  0  0
   -2.6740   -2.8110    0.7150 C   0  0  0  0  0  0  0  0  0  0  0  0
   -4.1510   -0.8470    0.2620 C   0  0  0  0  0  0  0  0  0  0  0  0
   -5.1390   -1.5820    0.0400 O   0  0  0  0  0  0  0  0  0  0  0  0
   -4.2700    0.6430    0.4380 C   0  0  0  0  0  0  0  0  0  0  0  0
   -3.2040    1.3280   -0.3580 C   0  0  0  0  0  0  0  0  0  0  0  0
  1  2  1  0
  3  2  1  6
  3  4  1  0
  3 18  1  0
  4  5  1  0
  5  6  2  3
  5  8  1  0
  6  7  1  0
  8  9  2  3
  8 12  1  0
  9 10  1  0
  9 11  1  0
 12 13  1  1
 12 18  1  0
 13 14  1  0
 14 15  2  0
 14 24  1  0
 15 16  1  0
 15 19  1  0
 16 17  2  0
 16 18  1  0
 19 20  1  0
 19 21  1  0
 21 22  2  0
 21 23  1  0
 23 24  1  0
M  END
