
     RDKit          3D

 19 20  0  0  0  0  0  0  0  0999 V2000
   -4.7150   -1.5780    1.2600 O   0  0  0  0  0  0  0  0  0  0  0  0
   -5.6860   -0.8530    0.6610 C   0  0  0  0  0  0  0  0  0  0  0  0
   -5.1360    0.2440   -0.2740 C   0  0  0  0  0  0  0  0  0  0  0  0
   -4.0700    1.3660    0.6050 S   0  0  0  0  0  0  0  0  0  0  0  0
   -2.3960    1.4630    0.0470 C   0  0  0  0  0  0  0  0  0  0  0  0
   -1.3270    0.9650    0.0660 N   0  0  0  0  0  0  0  0  0  0  0  0
   -0.1320    1.3470   -0.3190 C   0  0  0  0  0  0  0  0  0  0  0  0
    1.0170    0.7150   -0.2420 O   0  0  0  0  0  0  0  0  0  0  0  0
    2.1120    0.1190   -0.1700 C   0  0  0  0  0  0  0  0  0  0  0  0
    2.3500   -0.8180    0.8600 C   0  0  0  0  0  0  0  0  0  0  0  0
    3.5140   -1.4920    1.0150 C   0  0  0  0  0  0  0  0  0  0  0  0
    4.5550   -1.2910    0.1540 C   0  0  0  0  0  0  0  0  0  0  0  0
    5.7220   -1.9860    0.3230 O   0  0  0  0  0  0  0  0  0  0  0  0
    4.3950   -0.3800   -0.8950 C   0  0  0  0  0  0  0  0  0  0  0  0
    5.4770   -0.2180   -1.7140 O   0  0  0  0  0  0  0  0  0  0  0  0
    3.2150    0.2740   -1.0210 C   0  0  0  0  0  0  0  0  0  0  0  0
    3.0500    1.4130   -2.3250 Cl  0  0  0  0  0  0  0  0  0  0  0  0
   -0.1410    2.6560   -0.8970 C   0  0  0  0  0  0  0  0  0  0  0  0
   -1.8870    3.1490   -0.7970 S   0  0  0  0  0  0  0  0  0  0  0  0
  1  2  1  0
  2  3  1  0
  3  4  1  0
  4  5  1  0
  5  6  2  0
  5 19  1  0
  6  7  1  0
  7  8  1  0
  7 18  2  0
  8  9  1  0
  9 10  2  0
  9 16  1  0
 10 11  1  0
 11 12  2  0
 12 13  1  0
 12 14  1  0
 14 15  1  0
 14 16  2  0
 16 17  1  0
 18 19  1  0
M  END
