
     RDKit          3D

 28 30  0  0  0  0  0  0  0  0999 V2000
   -3.5410    0.8000    3.8790 C   0  0  0  0  0  0  0  0  0  0  0  0
   -3.4790    1.0960    2.6250 O   0  0  0  0  0  0  0  0  0  0  0  0
   -3.5940    1.2930    1.3490 C   0  0  0  0  0  0  0  0  0  0  0  0
   -4.6380    0.8440    0.5600 C   0  0  0  0  0  0  0  0  0  0  0  0
   -4.7270    1.0660   -0.7750 C   0  0  0  0  0  0  0  0  0  0  0  0
   -3.7310    1.7790   -1.4040 C   0  0  0  0  0  0  0  0  0  0  0  0
   -2.6560    2.2630   -0.6910 C   0  0  0  0  0  0  0  0  0  0  0  0
   -2.5660    2.0340    0.6840 C   0  0  0  0  0  0  0  0  0  0  0  0
   -1.5750    2.4610    1.4400 O   0  0  0  0  0  0  0  0  0  0  0  0
   -0.4120    3.0880    1.6080 C   0  0  0  0  0  0  0  0  0  0  0  0
    0.8080    2.7770    0.8530 C   0  0  0  0  0  0  0  0  0  0  0  0
    1.2660    1.4150    1.0250 N   0  0  0  0  0  0  0  0  0  0  0  0
    2.5380    1.1240    0.3760 C   0  0  0  0  0  0  0  0  0  0  0  0
    3.0740    2.1010   -0.2420 O   0  0  0  0  0  0  0  0  0  0  0  0
    3.1850   -0.1670    0.4090 C   0  0  0  0  0  0  0  0  0  0  0  0
    4.3680   -0.2720   -0.2080 C   0  0  0  0  0  0  0  0  0  0  0  0
    5.0610   -1.5540   -0.2060 C   0  0  0  0  0  0  0  0  0  0  0  0
    6.2860   -1.7780   -0.8170 C   0  0  0  0  0  0  0  0  0  0  0  0
    6.5640   -3.0900   -0.5700 C   0  0  0  0  0  0  0  0  0  0  0  0
    5.5080   -3.5980    0.1680 C   0  0  0  0  0  0  0  0  0  0  0  0
    5.3970   -4.9610    0.6430 C   0  0  0  0  0  0  0  0  0  0  0  0
    6.4620   -5.9470    0.3510 C   0  0  0  0  0  0  0  0  0  0  0  0
    4.3630   -5.2500    1.3060 O   0  0  0  0  0  0  0  0  0  0  0  0
    4.6290   -2.6300    0.3600 O   0  0  0  0  0  0  0  0  0  0  0  0
   -3.8720    1.9990   -2.8630 C   0  0  0  0  0  0  0  0  0  0  0  0
   -4.3140    0.8100   -3.5020 N   0  0  0  0  0  0  0  0  0  0  0  0
   -5.4170    0.1240   -2.9460 C   0  0  0  0  0  0  0  0  0  0  0  0
   -5.8690    0.5950   -1.5990 C   0  0  0  0  0  0  0  0  0  0  0  0
  1  2  1  0
  2  3  1  0
  3  4  2  0
  3  8  1  0
  4  5  1  0
  5  6  2  0
  5 28  1  0
  6  7  1  0
  6 25  1  0
  7  8  2  0
  8  9  1  0
  9 10  1  0
 10 11  1  0
 11 12  1  0
 12 13  1  0
 13 14  2  0
 13 15  1  0
 15 16  2  3
 16 17  1  0
 17 18  2  0
 17 24  1  0
 18 19  1  0
 19 20  2  0
 20 21  1  0
 20 24  1  0
 21 22  1  0
 21 23  2  0
 25 26  1  0
 26 27  1  0
 27 28  1  0
M  END
