
     RDKit          3D

 28 30  0  0  0  0  0  0  0  0999 V2000
   -3.3320    6.0490    0.2940 C   0  0  0  0  0  0  0  0  0  0  0  0
   -3.1020    4.5480    0.2370 C   0  0  0  0  0  0  0  0  0  0  0  0
   -1.7530    4.3460   -0.1380 O   0  0  0  0  0  0  0  0  0  0  0  0
   -1.2290    3.0550   -0.2780 C   0  0  0  0  0  0  0  0  0  0  0  0
    0.0890    2.8830   -0.6440 C   0  0  0  0  0  0  0  0  0  0  0  0
    0.6770    1.6200   -0.8020 C   0  0  0  0  0  0  0  0  0  0  0  0
    2.0310    1.5900   -1.1930 N   0  0  0  0  0  0  0  0  0  0  0  0
    2.8600    0.4310   -1.2000 C   0  0  0  0  0  0  0  0  0  0  0  0
    2.3990   -0.6630   -0.8340 O   0  0  0  0  0  0  0  0  0  0  0  0
    4.2120    0.4700   -1.6130 N   0  0  0  0  0  0  0  0  0  0  0  0
    5.1430   -0.6030   -1.6490 C   0  0  0  0  0  0  0  0  0  0  0  0
    5.5730   -1.2430   -0.3890 C   0  0  1  0  0  0  0  0  0  0  0  0
    4.5990   -2.0190    0.4090 C   0  0  0  0  0  0  0  0  0  0  0  0
    5.5340   -2.8750    1.3100 C   0  0  0  0  0  0  0  0  0  0  0  0
    6.8530   -2.6840    0.5990 C   0  0  0  0  0  0  0  0  0  0  0  0
    6.5320   -2.2690   -0.6870 O   0  0  0  0  0  0  0  0  0  0  0  0
   -0.1330    0.5450   -0.5710 C   0  0  0  0  0  0  0  0  0  0  0  0
   -1.4780    0.6620   -0.1960 C   0  0  0  0  0  0  0  0  0  0  0  0
   -2.2970   -0.5130    0.0370 C   0  0  0  0  0  0  0  0  0  0  0  0
   -1.8530   -1.6600   -0.0810 O   0  0  0  0  0  0  0  0  0  0  0  0
   -3.7110   -0.3180    0.4310 C   0  0  0  0  0  0  0  0  0  0  0  0
   -4.3940   -1.6450    0.6280 C   0  0  0  0  0  0  0  0  0  0  0  0
   -5.4410   -1.9830   -0.0890 C   0  0  0  0  0  0  0  0  0  0  0  0
   -6.1040   -3.2800    0.1060 C   0  0  0  0  0  0  0  0  0  0  0  0
   -5.5540   -4.1010    1.0820 O   0  0  0  0  0  0  0  0  0  0  0  0
   -4.4690   -3.7500    1.8240 C   0  0  0  0  0  0  0  0  0  0  0  0
   -3.9020   -2.5860    1.6240 C   0  0  0  0  0  0  0  0  0  0  0  0
   -1.9720    1.9390   -0.0650 C   0  0  0  0  0  0  0  0  0  0  0  0
  1  2  1  0
  2  3  1  0
  3  4  1  0
  4  5  2  0
  4 28  1  0
  5  6  1  0
  6  7  1  0
  6 17  2  0
  7  8  1  0
  8  9  2  0
  8 10  1  0
 10 11  1  0
 12 11  1  6
 12 13  1  0
 12 16  1  0
 13 14  1  0
 14 15  1  0
 15 16  1  0
 17 18  1  0
 18 19  1  0
 18 28  2  0
 19 20  2  0
 19 21  1  0
 21 22  1  0
 22 23  2  0
 22 27  1  0
 23 24  1  0
 24 25  1  0
 25 26  1  0
 26 27  2  0
M  END
