
     RDKit          3D

 28 30  0  0  0  0  0  0  0  0999 V2000
    0.7130   -3.2290   -1.8670 C   0  0  0  0  0  0  0  0  0  0  0  0
    0.4990   -2.6020   -0.4660 C   0  0  2  0  0  0  0  0  0  0  0  0
   -0.4540   -3.5230    0.2260 C   0  0  0  0  0  0  0  0  0  0  0  0
    0.0990   -1.1960   -0.6670 C   0  0  0  0  0  0  0  0  0  0  0  0
   -0.1670   -0.3440    0.5050 C   0  0  2  0  0  0  0  0  0  0  0  0
    0.9700   -0.2230    1.4950 C   0  0  0  0  0  0  0  0  0  0  0  0
    2.1620    0.3380    0.8870 N   0  0  0  0  0  0  0  0  0  0  0  0
    3.3390    0.5390    1.6260 C   0  0  0  0  0  0  0  0  0  0  0  0
    3.3010    0.2070    2.8410 O   0  0  0  0  0  0  0  0  0  0  0  0
    4.5680    1.0970    1.0740 C   0  0  0  0  0  0  0  0  0  0  0  0
    4.7000    1.4890   -0.2400 C   0  0  0  0  0  0  0  0  0  0  0  0
    5.9100    2.0120   -0.6950 C   0  0  0  0  0  0  0  0  0  0  0  0
    7.0080    2.1540    0.1540 C   0  0  0  0  0  0  0  0  0  0  0  0
    6.8360    1.7610    1.4260 N   0  0  0  0  0  0  0  0  0  0  0  0
    5.6750    1.2530    1.8810 C   0  0  0  0  0  0  0  0  0  0  0  0
   -1.4680   -0.4050    1.2020 C   0  0  0  0  0  0  0  0  0  0  0  0
   -2.6550   -0.0340    0.3900 C   0  0  0  0  0  0  0  0  0  0  0  0
   -3.3770   -1.1060   -0.1320 C   0  0  0  0  0  0  0  0  0  0  0  0
   -4.4940   -0.8820   -0.9040 C   0  0  0  0  0  0  0  0  0  0  0  0
   -4.9450    0.3850   -1.1920 C   0  0  0  0  0  0  0  0  0  0  0  0
   -4.2220    1.4330   -0.6690 C   0  0  0  0  0  0  0  0  0  0  0  0
   -3.0750    1.2370    0.1240 C   0  0  0  0  0  0  0  0  0  0  0  0
   -2.3710    2.3830    0.6610 C   0  0  0  0  0  0  0  0  0  0  0  0
   -1.4600    2.9640    0.0510 O   0  0  0  0  0  0  0  0  0  0  0  0
   -2.7330    2.8530    1.9140 O   0  0  0  0  0  0  0  0  0  0  0  0
   -4.8650    2.5850   -1.0930 O   0  0  0  0  0  0  0  0  0  0  0  0
   -6.0920    2.2820   -1.7310 C   0  0  0  0  0  0  0  0  0  0  0  0
   -6.0190    0.8960   -1.9290 O   0  0  0  0  0  0  0  0  0  0  0  0
  2  1  1  6
  2  3  1  0
  2  4  1  0
  5  4  1  1
  5  6  1  0
  5 16  1  0
  6  7  1  0
  7  8  1  0
  8  9  2  0
  8 10  1  0
 10 11  2  0
 10 15  1  0
 11 12  1  0
 12 13  2  0
 13 14  1  0
 14 15  2  0
 16 17  1  0
 17 18  2  0
 17 22  1  0
 18 19  1  0
 19 20  2  0
 20 21  1  0
 20 28  1  0
 21 22  2  0
 21 26  1  0
 22 23  1  0
 23 24  2  0
 23 25  1  0
 26 27  1  0
 27 28  1  0
M  END
