
     RDKit          3D

 28 29  0  0  0  0  0  0  0  0999 V2000
    4.6670    1.2710    2.8840 C   0  0  0  0  0  0  0  0  0  0  0  0
    3.4140    1.4010    2.9590 C   0  0  0  0  0  0  0  0  0  0  0  0
    2.2870    0.7160    2.3560 C   0  0  0  0  0  0  0  0  0  0  0  0
    1.1240    1.2820    2.7290 C   0  0  0  0  0  0  0  0  0  0  0  0
    0.9830    2.4370    3.5960 C   0  0  0  0  0  0  0  0  0  0  0  0
    2.4080   -0.2350    1.2820 C   0  0  0  0  0  0  0  0  0  0  0  0
    3.5740   -0.9390    1.1770 C   0  0  0  0  0  0  0  0  0  0  0  0
    3.8660   -1.9150    0.1590 C   0  0  0  0  0  0  0  0  0  0  0  0
    5.0230   -2.5750    0.1190 C   0  0  0  0  0  0  0  0  0  0  0  0
    2.8610   -2.1460   -0.8070 N   0  0  0  0  0  0  0  0  0  0  0  0
    1.6870   -1.4110   -0.6970 C   0  0  0  0  0  0  0  0  0  0  0  0
    1.4100   -0.4810    0.2690 C   0  0  0  0  0  0  0  0  0  0  0  0
    0.2120    0.3070    0.0490 C   0  0  0  0  0  0  0  0  0  0  0  0
   -0.3170    1.2410    0.6380 O   0  0  0  0  0  0  0  0  0  0  0  0
   -0.5980   -0.0130   -1.0980 O   0  0  0  0  0  0  0  0  0  0  0  0
   -1.7700    0.6680   -1.4190 C   0  0  2  0  0  0  0  0  0  0  0  0
   -3.0010   -0.2180   -1.3580 C   0  0  0  0  0  0  0  0  0  0  0  0
   -3.1860   -0.7660   -0.0290 N   0  0  0  0  0  0  0  0  0  0  0  0
   -2.6260   -2.0190    0.4220 C   0  0  0  0  0  0  0  0  0  0  0  0
   -3.5760   -2.4510    1.5080 C   0  0  0  0  0  0  0  0  0  0  0  0
   -4.1350   -1.1730    2.0490 C   0  0  0  0  0  0  0  0  0  0  0  0
   -3.9360   -0.1440    0.9910 C   0  0  0  0  0  0  0  0  0  0  0  0
   -4.3560    1.0330    1.0160 O   0  0  0  0  0  0  0  0  0  0  0  0
   -1.7080    1.2810   -2.7900 C   0  0  0  0  0  0  0  0  0  0  0  0
   -2.6950    1.9260   -3.2180 O   0  0  0  0  0  0  0  0  0  0  0  0
   -0.6060    1.1740   -3.6190 O   0  0  0  0  0  0  0  0  0  0  0  0
   -0.5180    1.7390   -4.9110 C   0  0  0  0  0  0  0  0  0  0  0  0
   -1.5800    1.2130   -5.8490 C   0  0  0  0  0  0  0  0  0  0  0  0
  1  2  2  0
  2  3  1  0
  3  4  2  3
  3  6  1  0
  4  5  1  0
  6  7  2  0
  6 12  1  0
  7  8  1  0
  8  9  2  0
  8 10  1  0
 10 11  1  0
 11 12  2  0
 12 13  1  0
 13 14  2  0
 13 15  1  0
 15 16  1  0
 16 17  1  6
 16 24  1  0
 17 18  1  0
 18 19  1  0
 18 22  1  0
 19 20  1  0
 20 21  1  0
 21 22  1  0
 22 23  2  0
 24 25  2  0
 24 26  1  0
 26 27  1  0
 27 28  1  0
M  END
