
     RDKit          3D

 28 30  0  0  0  0  0  0  0  0999 V2000
   -6.9770    0.1360   -2.2160 C   0  0  0  0  0  0  0  0  0  0  0  0
   -5.7970    0.2900   -1.3140 C   0  0  0  0  0  0  0  0  0  0  0  0
   -4.5700   -0.1240   -1.7200 C   0  0  0  0  0  0  0  0  0  0  0  0
   -3.4780    0.0300   -0.8610 C   0  0  0  0  0  0  0  0  0  0  0  0
   -3.5940    0.5880    0.3910 C   0  0  0  0  0  0  0  0  0  0  0  0
   -2.4540    0.7240    1.2150 N   0  0  0  0  0  0  0  0  0  0  0  0
   -1.1350    0.2950    0.8980 C   0  0  2  0  0  0  0  0  0  0  0  0
   -1.1860   -1.2300    0.7460 C   0  0  0  0  0  0  0  0  0  0  0  0
   -0.1780    0.5690    2.0340 C   0  0  0  0  0  0  0  0  0  0  0  0
    1.1280    0.1420    1.7240 O   0  0  0  0  0  0  0  0  0  0  0  0
    1.9120    0.5970    0.6970 C   0  0  0  0  0  0  0  0  0  0  0  0
    1.4750    1.4800   -0.0700 O   0  0  0  0  0  0  0  0  0  0  0  0
    3.2520    0.0730    0.4750 C   0  0  0  0  0  0  0  0  0  0  0  0
    4.1560    0.4260   -0.5060 C   0  0  0  0  0  0  0  0  0  0  0  0
    5.2950   -0.3250   -0.3360 C   0  0  0  0  0  0  0  0  0  0  0  0
    6.5130   -0.2760   -1.1570 C   0  0  0  0  0  0  0  0  0  0  0  0
    6.6260    0.4940   -2.1330 O   0  0  0  0  0  0  0  0  0  0  0  0
    7.5890   -1.0960   -0.8640 O   0  0  0  0  0  0  0  0  0  0  0  0
    8.7850   -1.0610   -1.6550 C   0  0  0  0  0  0  0  0  0  0  0  0
    9.7340   -2.0920   -1.0340 C   0  0  0  0  0  0  0  0  0  0  0  0
    9.0610   -3.3280   -1.1160 O   0  0  0  0  0  0  0  0  0  0  0  0
    5.0410   -1.1180    0.7570 C   0  0  0  0  0  0  0  0  0  0  0  0
    3.8220   -0.8730    1.2320 N   0  0  0  0  0  0  0  0  0  0  0  0
   -4.8520    0.9980    0.7720 C   0  0  0  0  0  0  0  0  0  0  0  0
   -5.9400    0.8530   -0.0640 C   0  0  0  0  0  0  0  0  0  0  0  0
   -7.1650    1.3720    0.5870 C   0  0  0  0  0  0  0  0  0  0  0  0
   -6.5960    2.3610    1.5770 C   0  0  0  0  0  0  0  0  0  0  0  0
   -5.3220    1.6220    2.0160 C   0  0  0  0  0  0  0  0  0  0  0  0
  1  2  1  0
  2  3  2  0
  2 25  1  0
  3  4  1  0
  4  5  2  0
  5  6  1  0
  5 24  1  0
  6  7  1  0
  7  8  1  1
  7  9  1  0
  9 10  1  0
 10 11  1  0
 11 12  2  0
 11 13  1  0
 13 14  2  0
 13 23  1  0
 14 15  1  0
 15 16  1  0
 15 22  2  0
 16 17  2  0
 16 18  1  0
 18 19  1  0
 19 20  1  0
 20 21  1  0
 22 23  1  0
 24 25  2  0
 24 28  1  0
 25 26  1  0
 26 27  1  0
 27 28  1  0
M  END
