
     RDKit          3D

 28 30  0  0  0  0  0  0  0  0999 V2000
    2.6580   -4.0910    1.2710 C   0  0  0  0  0  0  0  0  0  0  0  0
    2.6160   -2.7550    0.6210 C   0  0  0  0  0  0  0  0  0  0  0  0
    1.4040   -2.2570    0.1950 C   0  0  0  0  0  0  0  0  0  0  0  0
    1.3480   -0.9960   -0.4220 C   0  0  0  0  0  0  0  0  0  0  0  0
    0.0410   -0.4500   -0.8060 C   0  0  0  0  0  0  0  0  0  0  0  0
   -0.0300    0.7510   -1.1090 O   0  0  0  0  0  0  0  0  0  0  0  0
   -1.1620   -1.2890   -0.8380 C   0  0  0  0  0  0  0  0  0  0  0  0
   -2.4540   -0.6060   -1.1260 C   0  0  0  0  0  0  0  0  0  0  0  0
   -2.9840    0.3310   -0.2670 N   0  0  0  0  0  0  0  0  0  0  0  0
   -2.5150    1.6080   -0.0160 C   0  0  0  0  0  0  0  0  0  0  0  0
   -3.6140    2.5180    0.5900 C   0  0  0  0  0  0  0  0  0  0  0  0
   -4.7490    2.3080   -0.1590 O   0  0  0  0  0  0  0  0  0  0  0  0
   -5.2830    1.0810    0.1390 C   0  0  2  0  0  0  0  0  0  0  0  0
   -6.3570    0.7150   -0.8760 C   0  0  0  0  0  0  0  0  0  0  0  0
   -7.3590    1.3330    0.0800 C   0  0  0  0  0  0  0  0  0  0  0  0
   -6.3530    1.0580    1.2030 C   0  0  0  0  0  0  0  0  0  0  0  0
   -4.2510   -0.0030    0.3460 C   0  0  0  0  0  0  0  0  0  0  0  0
    2.5030   -0.2680   -0.6010 C   0  0  0  0  0  0  0  0  0  0  0  0
    2.4450    1.0230   -1.3320 C   0  0  0  0  0  0  0  0  0  0  0  0
    3.7310   -0.7350   -0.1830 C   0  0  0  0  0  0  0  0  0  0  0  0
    4.9730    0.0050   -0.2800 C   0  0  0  0  0  0  0  0  0  0  0  0
    5.1120    1.2040   -0.5820 O   0  0  0  0  0  0  0  0  0  0  0  0
    6.2030   -0.6580   -0.0140 O   0  0  0  0  0  0  0  0  0  0  0  0
    7.4350    0.0300   -0.1000 C   0  0  0  0  0  0  0  0  0  0  0  0
    7.5480    1.1690    0.8180 C   0  0  0  0  0  0  0  0  0  0  0  0
    6.5580    1.5900    1.7440 N   0  0  0  0  0  0  0  0  0  0  0  0
    8.6180    1.8300    0.7790 O   0  0  0  0  0  0  0  0  0  0  0  0
    3.7420   -2.0020    0.4310 C   0  0  0  0  0  0  0  0  0  0  0  0
  1  2  1  0
  2  3  2  0
  2 28  1  0
  3  4  1  0
  4  5  1  0
  4 18  2  0
  5  6  2  0
  5  7  1  0
  7  8  1  0
  8  9  1  0
  9 10  1  0
  9 17  1  0
 10 11  1  0
 11 12  1  0
 12 13  1  0
 13 14  1  6
 13 16  1  0
 13 17  1  0
 14 15  1  0
 15 16  1  0
 18 19  1  0
 18 20  1  0
 20 21  1  0
 20 28  2  0
 21 22  2  0
 21 23  1  0
 23 24  1  0
 24 25  1  0
 25 26  1  0
 25 27  2  0
M  END
