
     RDKit          3D

 28 29  0  0  0  0  0  0  0  0999 V2000
    6.4410    2.2790    3.3430 C   0  0  0  0  0  0  0  0  0  0  0  0
    5.1370    1.6850    3.8010 C   0  0  0  0  0  0  0  0  0  0  0  0
    4.0770    2.4880    3.2780 O   0  0  0  0  0  0  0  0  0  0  0  0
    3.8880    2.6910    1.9470 C   0  0  0  0  0  0  0  0  0  0  0  0
    4.6380    3.6620    1.1680 N   0  0  0  0  0  0  0  0  0  0  0  0
    2.9880    1.9990    1.2510 C   0  0  0  0  0  0  0  0  0  0  0  0
    2.1660    0.9900    1.8420 C   0  0  0  0  0  0  0  0  0  0  0  0
    1.2190    0.2510    1.1940 C   0  0  0  0  0  0  0  0  0  0  0  0
    0.9340    0.4110   -0.2000 C   0  0  0  0  0  0  0  0  0  0  0  0
    0.1980   -0.0800   -1.0520 C   0  0  0  0  0  0  0  0  0  0  0  0
   -0.8320   -1.0370   -1.4480 C   0  0  0  0  0  0  0  0  0  0  0  0
   -1.3370   -1.1260   -2.7450 C   0  0  0  0  0  0  0  0  0  0  0  0
   -0.9980   -0.3580   -3.9600 C   0  0  0  0  0  0  0  0  0  0  0  0
   -0.0720   -0.8420   -4.6870 O   0  0  0  0  0  0  0  0  0  0  0  0
   -1.6200    0.8120   -4.3180 O   0  0  0  0  0  0  0  0  0  0  0  0
   -1.2920    1.5390   -5.4940 C   0  0  0  0  0  0  0  0  0  0  0  0
   -2.2860   -2.1600   -2.7250 C   0  0  0  0  0  0  0  0  0  0  0  0
   -3.0890   -2.6490   -3.8350 C   0  0  0  0  0  0  0  0  0  0  0  0
   -4.0880   -3.7470   -3.5820 C   0  0  0  0  0  0  0  0  0  0  0  0
   -2.9520   -2.1560   -4.9650 O   0  0  0  0  0  0  0  0  0  0  0  0
   -2.3020   -2.6310   -1.4630 C   0  0  0  0  0  0  0  0  0  0  0  0
   -1.4360   -1.9730   -0.6670 N   0  0  0  0  0  0  0  0  0  0  0  0
   -1.3020   -2.2580    0.7570 C   0  0  0  0  0  0  0  0  0  0  0  0
   -2.4130   -1.5070    1.4760 C   0  0  2  0  0  0  0  0  0  0  0  0
   -2.4240   -0.0240    1.2800 C   0  0  0  0  0  0  0  0  0  0  0  0
   -3.3070    0.4050    2.4760 C   0  0  0  0  0  0  0  0  0  0  0  0
   -2.8650   -0.6120    3.4850 C   0  0  0  0  0  0  0  0  0  0  0  0
   -2.3570   -1.6840    2.8310 O   0  0  0  0  0  0  0  0  0  0  0  0
  1  2  1  0
  2  3  1  0
  3  4  1  0
  4  5  1  0
  4  6  2  3
  6  7  1  0
  7  8  2  3
  8  9  1  0
  9 10  2  3
 10 11  1  0
 11 12  2  0
 11 22  1  0
 12 13  1  0
 12 17  1  0
 13 14  2  0
 13 15  1  0
 15 16  1  0
 17 18  1  0
 17 21  2  0
 18 19  1  0
 18 20  2  0
 21 22  1  0
 22 23  1  0
 24 23  1  6
 24 25  1  0
 24 28  1  0
 25 26  1  0
 26 27  1  0
 27 28  1  0
M  END
