
     RDKit          3D

 28 29  0  0  0  0  0  0  0  0999 V2000
    5.7230    2.4940    1.6380 C   0  0  0  0  0  0  0  0  0  0  0  0
    5.6500    1.6610    0.6600 O   0  0  0  0  0  0  0  0  0  0  0  0
    5.5740    0.8340   -0.3110 C   0  0  0  0  0  0  0  0  0  0  0  0
    6.7170    0.3580   -0.8890 C   0  0  0  0  0  0  0  0  0  0  0  0
    8.0560    0.6510   -0.5640 C   0  0  0  0  0  0  0  0  0  0  0  0
    8.5840    1.5440    0.4800 C   0  0  0  0  0  0  0  0  0  0  0  0
    8.9910    0.0650   -1.2680 O   0  0  0  0  0  0  0  0  0  0  0  0
    4.3310    0.3220   -0.8950 C   0  0  0  0  0  0  0  0  0  0  0  0
    3.0950    0.5210   -0.6360 C   0  0  0  0  0  0  0  0  0  0  0  0
    2.3570    1.3200    0.3220 C   0  0  0  0  0  0  0  0  0  0  0  0
    2.8420    2.0610    1.2000 O   0  0  0  0  0  0  0  0  0  0  0  0
    0.9890    1.1150    0.0940 O   0  0  0  0  0  0  0  0  0  0  0  0
    0.8450    0.2390   -0.9480 C   0  0  0  0  0  0  0  0  0  0  0  0
   -0.4550   -0.2100   -1.4690 C   0  0  0  0  0  0  0  0  0  0  0  0
   -0.5220   -1.0200   -2.4340 O   0  0  0  0  0  0  0  0  0  0  0  0
   -1.6520    0.2640   -0.8930 N   0  0  0  0  0  0  0  0  0  0  0  0
   -1.5910    1.1840    0.2110 C   0  0  0  0  0  0  0  0  0  0  0  0
   -2.9220   -0.1950   -1.4390 C   0  0  0  0  0  0  0  0  0  0  0  0
   -3.3860   -1.4330   -0.7600 C   0  0  0  0  0  0  0  0  0  0  0  0
   -4.5510   -1.4090   -0.1330 C   0  0  0  0  0  0  0  0  0  0  0  0
   -5.4090   -0.1980   -0.0820 C   0  0  0  0  0  0  0  0  0  0  0  0
   -6.6910   -0.5420    0.6520 C   0  0  0  0  0  0  0  0  0  0  0  0
   -6.3890   -1.1300    1.9920 C   0  0  2  0  0  0  0  0  0  0  0  0
   -5.6730   -0.1700    2.8050 N   0  0  0  0  0  0  0  0  0  0  0  0
   -5.5810   -2.4040    1.9080 C   0  0  0  0  0  0  0  0  0  0  0  0
   -5.0160   -2.6400    0.5420 C   0  0  0  0  0  0  0  0  0  0  0  0
    2.0120   -0.1450   -1.4170 C   0  0  0  0  0  0  0  0  0  0  0  0
    2.1720   -1.0850   -2.5350 C   0  0  0  0  0  0  0  0  0  0  0  0
  1  2  1  0
  2  3  1  0
  3  4  2  3
  3  8  1  0
  4  5  1  0
  5  6  1  0
  5  7  2  0
  8  9  2  3
  9 10  1  0
  9 27  1  0
 10 11  2  0
 10 12  1  0
 12 13  1  0
 13 14  1  0
 13 27  2  0
 14 15  2  0
 14 16  1  0
 16 17  1  0
 16 18  1  0
 18 19  1  0
 19 20  2  3
 20 21  1  0
 20 26  1  0
 21 22  1  0
 22 23  1  0
 23 24  1  1
 23 25  1  0
 25 26  1  0
 27 28  1  0
M  END
