
     RDKit          3D

 28 29  0  0  0  0  0  0  0  0999 V2000
   -7.2260   -0.6760    2.4140 C   0  0  0  0  0  0  0  0  0  0  0  0
   -6.7060   -1.8870    2.4390 C   0  0  0  0  0  0  0  0  0  0  0  0
   -5.4540   -2.1690    1.7700 C   0  0  0  0  0  0  0  0  0  0  0  0
   -4.9610   -3.3870    1.8110 C   0  0  0  0  0  0  0  0  0  0  0  0
   -4.7410   -1.1670    1.0690 N   0  0  0  0  0  0  0  0  0  0  0  0
   -3.3660   -1.0070    1.3330 C   0  0  0  0  0  0  0  0  0  0  0  0
   -2.6410   -1.7100    2.1950 O   0  0  0  0  0  0  0  0  0  0  0  0
   -1.4180   -1.3240    2.2040 C   0  0  0  0  0  0  0  0  0  0  0  0
   -1.2750   -0.2760    1.2840 C   0  0  0  0  0  0  0  0  0  0  0  0
    0.0220    0.3470    1.0710 C   0  0  0  0  0  0  0  0  0  0  0  0
    0.7440   -0.1500   -0.1190 C   0  0  0  0  0  0  0  0  0  0  0  0
    0.2080   -1.0410   -0.8120 O   0  0  0  0  0  0  0  0  0  0  0  0
    2.0060    0.3430   -0.4910 N   0  0  0  0  0  0  0  0  0  0  0  0
    2.7320   -0.1060   -1.5990 O   0  0  0  0  0  0  0  0  0  0  0  0
    4.1030   -0.3230   -1.3170 C   0  0  0  0  0  0  0  0  0  0  0  0
    4.9480    0.7050   -1.3370 C   0  0  0  0  0  0  0  0  0  0  0  0
    6.3720    0.5210   -1.0500 C   0  0  0  0  0  0  0  0  0  0  0  0
    7.2190    1.7410   -1.0950 C   0  0  0  0  0  0  0  0  0  0  0  0
    6.8830   -0.6590   -0.7590 C   0  0  0  0  0  0  0  0  0  0  0  0
    6.0690   -1.8950   -0.6990 C   0  0  0  0  0  0  0  0  0  0  0  0
    4.6350   -1.6410   -1.0010 C   0  0  0  0  0  0  0  0  0  0  0  0
    3.8630   -2.6320   -0.9760 O   0  0  0  0  0  0  0  0  0  0  0  0
   -2.4890   -0.0730    0.7360 C   0  0  0  0  0  0  0  0  0  0  0  0
   -2.8900    0.9080   -0.2360 C   0  0  0  0  0  0  0  0  0  0  0  0
   -4.1240    1.0000   -0.5770 O   0  0  0  0  0  0  0  0  0  0  0  0
   -2.0130    1.8320   -0.8880 C   0  0  0  0  0  0  0  0  0  0  0  0
   -2.5770    2.7130   -1.7700 C   0  0  0  0  0  0  0  0  0  0  0  0
   -1.7750    3.7100   -2.4990 C   0  0  0  0  0  0  0  0  0  0  0  0
  1  2  2  0
  2  3  1  0
  3  4  2  0
  3  5  1  0
  5  6  1  0
  6  7  1  0
  6 23  2  0
  7  8  1  0
  8  9  2  0
  9 10  1  0
  9 23  1  0
 10 11  1  0
 11 12  2  0
 11 13  1  0
 13 14  1  0
 14 15  1  0
 15 16  2  0
 15 21  1  0
 16 17  1  0
 17 18  1  0
 17 19  2  0
 19 20  1  0
 20 21  1  0
 21 22  2  0
 23 24  1  0
 24 25  2  0
 24 26  1  0
 26 27  2  3
 27 28  1  0
M  END
