
     RDKit          3D

 27 28  0  0  0  0  0  0  0  0999 V2000
    3.7040   -4.0760   -0.1580 C   0  0  0  0  0  0  0  0  0  0  0  0
    3.2470   -2.8470   -0.8710 C   0  0  0  0  0  0  0  0  0  0  0  0
    3.8480   -1.5640   -0.2730 C   0  0  0  0  0  0  0  0  0  0  0  0
    3.4000   -0.3930   -0.9990 C   0  0  0  0  0  0  0  0  0  0  0  0
    4.0170   -0.1360   -2.2780 O   0  0  0  0  0  0  0  0  0  0  0  0
    5.3960    0.2100   -2.3610 C   0  0  0  0  0  0  0  0  0  0  0  0
    2.5060    0.4830   -0.6710 C   0  0  0  0  0  0  0  0  0  0  0  0
    2.1420    1.6790   -1.5420 C   0  0  0  0  0  0  0  0  0  0  0  0
    1.1150    2.4300   -0.6610 C   0  0  0  0  0  0  0  0  0  0  0  0
    0.4140    1.2460   -0.0650 C   0  0  2  0  0  0  0  0  0  0  0  0
   -0.1080    0.4690   -1.1120 O   0  0  0  0  0  0  0  0  0  0  0  0
   -0.4660    1.4300    1.0520 C   0  0  0  0  0  0  0  0  0  0  0  0
   -1.6650    2.1080    1.0620 O   0  0  0  0  0  0  0  0  0  0  0  0
   -2.7040    2.0540    0.1520 C   0  0  0  0  0  0  0  0  0  0  0  0
   -3.3500    0.7160   -0.0290 C   0  0  0  0  0  0  0  0  0  0  0  0
   -4.4370    0.7290   -1.0150 C   0  0  0  0  0  0  0  0  0  0  0  0
   -4.7700    1.8200   -1.5460 O   0  0  0  0  0  0  0  0  0  0  0  0
   -5.1290   -0.4420   -1.3930 N   0  0  0  0  0  0  0  0  0  0  0  0
   -6.2300   -0.4190   -2.3470 C   0  0  0  0  0  0  0  0  0  0  0  0
   -4.7610   -1.7620   -0.8580 C   0  0  0  0  0  0  0  0  0  0  0  0
    0.0770    0.8180    2.1270 C   0  0  0  0  0  0  0  0  0  0  0  0
   -0.5420    0.7760    3.4930 C   0  0  0  0  0  0  0  0  0  0  0  0
   -1.8540    1.4870    3.5650 C   0  0  0  0  0  0  0  0  0  0  0  0
   -2.2890    1.3620    4.9050 O   0  0  0  0  0  0  0  0  0  0  0  0
    1.3630    0.2930    1.7310 C   0  0  0  0  0  0  0  0  0  0  0  0
    2.3140   -0.4760    2.5930 C   0  0  0  0  0  0  0  0  0  0  0  0
    1.6470    0.5460    0.4870 C   0  0  0  0  0  0  0  0  0  0  0  0
  1  2  1  0
  2  3  1  0
  3  4  1  0
  4  5  1  0
  4  7  2  3
  5  6  1  0
  7  8  1  0
  7 27  1  0
  8  9  1  0
  9 10  1  0
 10 11  1  6
 10 12  1  0
 10 27  1  0
 12 13  1  0
 12 21  2  0
 13 14  1  0
 14 15  1  0
 15 16  1  0
 16 17  2  0
 16 18  1  0
 18 19  1  0
 18 20  1  0
 21 22  1  0
 21 25  1  0
 22 23  1  0
 23 24  1  0
 25 26  1  0
 25 27  2  0
M  END
