
     RDKit          3D

 33 33  0  0  0  0  0  0  0  0999 V2000
   -3.6620   -2.2910   -4.7010 C   0  0  0  0  0  0  0  0  0  0  0  0
   -2.7910   -2.9470   -4.0150 C   0  0  0  0  0  0  0  0  0  0  0  0
   -2.5360   -4.2380   -4.6300 F   0  0  0  0  0  0  0  0  0  0  0  0
   -2.0440   -2.7480   -2.8330 C   0  0  0  0  0  0  0  0  0  0  0  0
   -1.1920   -3.8160   -2.5190 C   0  0  0  0  0  0  0  0  0  0  0  0
   -1.9570   -1.7370   -1.8960 N   0  0  0  0  0  0  0  0  0  0  0  0
   -2.6080   -0.5090   -1.7980 C   0  0  0  0  0  0  0  0  0  0  0  0
   -3.4320   -0.1670   -2.6300 O   0  0  0  0  0  0  0  0  0  0  0  0
   -2.3160    0.4520   -0.6410 C   0  0  1  0  0  0  0  0  0  0  0  0
   -1.2120    1.3490   -1.0830 C   0  0  0  0  0  0  0  0  0  0  0  0
    0.0700    0.6810   -1.4110 C   0  0  0  0  0  0  0  0  0  0  0  0
    0.8250    0.0240   -0.3170 C   0  0  0  0  0  0  0  0  0  0  0  0
    1.2270    1.0180    0.7770 C   0  0  0  0  0  0  0  0  0  0  0  0
    2.0190    2.0980    0.0670 C   0  0  0  0  0  0  0  0  0  0  0  0
    3.0840    1.5940   -0.5770 O   0  0  0  0  0  0  0  0  0  0  0  0
    4.2430    0.9690   -0.3830 C   0  0  0  0  0  0  0  0  0  0  0  0
    4.7960    0.5730    0.8270 C   0  0  0  0  0  0  0  0  0  0  0  0
    5.9950   -0.0670    0.9590 C   0  0  0  0  0  0  0  0  0  0  0  0
    6.5520   -0.4780    2.2650 C   0  0  0  0  0  0  0  0  0  0  0  0
    6.3540   -1.9810    2.3590 C   0  0  0  0  0  0  0  0  0  0  0  0
    6.8570   -2.5610    3.5610 N   0  0  0  0  0  0  0  0  0  0  0  0
    6.7010   -0.3320   -0.2130 C   0  0  0  0  0  0  0  0  0  0  0  0
    7.8770   -0.9590   -0.1110 F   0  0  0  0  0  0  0  0  0  0  0  0
    6.2110    0.0330   -1.4430 C   0  0  0  0  0  0  0  0  0  0  0  0
    5.0090    0.6720   -1.5520 C   0  0  0  0  0  0  0  0  0  0  0  0
    4.4760    1.0500   -2.7270 F   0  0  0  0  0  0  0  0  0  0  0  0
   -3.5650    1.2360   -0.5100 N   0  0  0  0  0  0  0  0  0  0  0  0
   -4.4440    1.1350    0.5750 C   0  0  0  0  0  0  0  0  0  0  0  0
   -4.1760    0.3290    1.5120 O   0  0  0  0  0  0  0  0  0  0  0  0
   -5.6390    1.8910    0.6980 N   0  0  0  0  0  0  0  0  0  0  0  0
   -6.5180    1.7360    1.8410 C   0  0  2  0  0  0  0  0  0  0  0  0
   -7.8750    1.2280    1.3950 C   0  0  0  0  0  0  0  0  0  0  0  0
   -6.6160    3.0740    2.5340 C   0  0  0  0  0  0  0  0  0  0  0  0
  1  2  2  0
  2  3  1  0
  2  4  1  0
  4  5  2  0
  4  6  1  0
  6  7  1  0
  7  8  2  0
  7  9  1  0
  9 10  1  6
  9 27  1  0
 10 11  1  0
 11 12  1  0
 12 13  1  0
 13 14  1  0
 14 15  1  0
 15 16  1  0
 16 17  2  0
 16 25  1  0
 17 18  1  0
 18 19  1  0
 18 22  2  0
 19 20  1  0
 20 21  1  0
 22 23  1  0
 22 24  1  0
 24 25  2  0
 25 26  1  0
 27 28  1  0
 28 29  2  0
 28 30  1  0
 30 31  1  0
 31 32  1  6
 31 33  1  0
M  CHG  1  21   1
M  END
