
     RDKit          3D

 32 34  0  0  0  0  0  0  0  0999 V2000
   -6.4590   -1.4940    1.5890 C   0  0  0  0  0  0  0  0  0  0  0  0
   -5.6380   -2.6280    1.1670 C   0  0  0  0  0  0  0  0  0  0  0  0
   -6.0840   -3.8150    1.3380 O   0  0  0  0  0  0  0  0  0  0  0  0
   -4.3180   -2.5010    0.5490 C   0  0  0  0  0  0  0  0  0  0  0  0
   -3.6210   -3.6330    0.1920 C   0  0  0  0  0  0  0  0  0  0  0  0
   -2.4020   -3.4910   -0.3780 N   0  0  0  0  0  0  0  0  0  0  0  0
   -1.8520   -2.2600   -0.6030 C   0  0  0  0  0  0  0  0  0  0  0  0
   -2.4910   -1.1070   -0.2740 C   0  0  0  0  0  0  0  0  0  0  0  0
   -2.0250    0.1190   -0.4620 O   0  0  0  0  0  0  0  0  0  0  0  0
   -0.9570    0.7590   -0.9970 C   0  0  1  0  0  0  0  0  0  0  0  0
   -1.2590    1.9940   -1.7840 C   0  0  0  0  0  0  0  0  0  0  0  0
   -0.1150    2.6490   -2.3080 N   0  0  0  0  0  0  0  0  0  0  0  0
    0.8370    2.1320   -3.2200 C   0  0  0  0  0  0  0  0  0  0  0  0
    0.6740    0.9570   -3.6400 O   0  0  0  0  0  0  0  0  0  0  0  0
    1.9800    2.9390   -3.6620 C   0  0  0  0  0  0  0  0  0  0  0  0
    2.9820    2.6820   -4.5600 C   0  0  0  0  0  0  0  0  0  0  0  0
    3.8290    3.7530   -4.5970 C   0  0  0  0  0  0  0  0  0  0  0  0
    3.3520    4.6600   -3.7320 N   0  0  0  0  0  0  0  0  0  0  0  0
    2.2560    4.1800   -3.1740 N   0  0  0  0  0  0  0  0  0  0  0  0
    0.0660    0.9760    0.0570 C   0  0  0  0  0  0  0  0  0  0  0  0
    0.7650   -0.0480    0.6500 C   0  0  0  0  0  0  0  0  0  0  0  0
    1.6060    0.5210    1.5770 C   0  0  0  0  0  0  0  0  0  0  0  0
    2.5550   -0.1680    2.4320 C   0  0  0  0  0  0  0  0  0  0  0  0
    2.7490    0.2950    3.5860 O   0  0  0  0  0  0  0  0  0  0  0  0
    3.2640   -1.3230    2.0410 N   0  0  0  0  0  0  0  0  0  0  0  0
    4.1670   -1.9310    2.9410 N   0  0  0  0  0  0  0  0  0  0  0  0
    3.7550   -2.6240    4.0840 C   0  0  0  0  0  0  0  0  0  0  0  0
    4.6300   -3.2670    5.0260 N   0  0  0  0  0  0  0  0  0  0  0  0
    2.4960   -2.6960    4.3100 O   0  0  0  0  0  0  0  0  0  0  0  0
    1.4170    1.8780    1.5490 C   0  0  0  0  0  0  0  0  0  0  0  0
    0.4660    2.1280    0.6040 N   0  0  0  0  0  0  0  0  0  0  0  0
   -3.7530   -1.2600    0.3170 C   0  0  0  0  0  0  0  0  0  0  0  0
  1  2  1  0
  2  3  2  0
  2  4  1  0
  4  5  2  0
  4 32  1  0
  5  6  1  0
  6  7  2  0
  7  8  1  0
  8  9  1  0
  8 32  2  0
  9 10  1  0
 10 11  1  1
 10 20  1  0
 11 12  1  0
 12 13  1  0
 13 14  2  0
 13 15  1  0
 15 16  2  0
 15 19  1  0
 16 17  1  0
 17 18  2  0
 18 19  1  0
 20 21  2  0
 20 31  1  0
 21 22  1  0
 22 23  1  0
 22 30  2  0
 23 24  2  0
 23 25  1  0
 25 26  1  0
 26 27  1  0
 27 28  1  0
 27 29  2  0
 30 31  1  0
M  END
