
     RDKit          3D

 32 34  0  0  0  0  0  0  0  0999 V2000
   -2.6910   -5.1470    0.8230 C   0  0  0  0  0  0  0  0  0  0  0  0
   -2.4400   -3.7930    1.5100 C   0  0  2  0  0  0  0  0  0  0  0  0
   -0.9940   -3.7340    1.9450 C   0  0  0  0  0  0  0  0  0  0  0  0
   -3.2760   -3.6790    2.6140 O   0  0  0  0  0  0  0  0  0  0  0  0
   -2.7200   -2.7170    0.5130 C   0  0  0  0  0  0  0  0  0  0  0  0
   -2.5720   -1.3370    1.0040 C   0  0  2  0  0  0  0  0  0  0  0  0
   -2.9380   -0.4100   -0.1980 C   0  0  0  0  0  0  0  0  0  0  0  0
   -2.8340    0.9940    0.3090 C   0  0  0  0  0  0  0  0  0  0  0  0
   -3.1650    1.9040   -0.8330 C   0  0  0  0  0  0  0  0  0  0  0  0
   -2.3530    2.8100   -1.3300 C   0  0  0  0  0  0  0  0  0  0  0  0
   -3.0280    3.5020   -2.4340 C   0  0  1  0  0  0  0  0  0  0  0  0
   -2.2800    3.4220   -3.6770 N   0  0  0  0  0  0  0  0  0  0  0  0
   -4.3230    2.9060   -2.5320 N   0  0  0  0  0  0  0  0  0  0  0  0
   -4.4290    1.9050   -1.5400 C   0  0  0  0  0  0  0  0  0  0  0  0
   -5.4500    1.1650   -1.3340 O   0  0  0  0  0  0  0  0  0  0  0  0
   -1.3480   -0.9370    1.5800 N   0  0  0  0  0  0  0  0  0  0  0  0
   -0.1770   -0.5250    0.8630 C   0  0  0  0  0  0  0  0  0  0  0  0
   -0.1900   -0.5130   -0.3850 O   0  0  0  0  0  0  0  0  0  0  0  0
    1.0040   -0.1280    1.5340 N   0  0  0  0  0  0  0  0  0  0  0  0
    2.2040    0.2850    0.9530 C   0  0  0  0  0  0  0  0  0  0  0  0
    3.2190    0.7870    1.7870 C   0  0  0  0  0  0  0  0  0  0  0  0
    4.4340    1.2060    1.2920 C   0  0  0  0  0  0  0  0  0  0  0  0
    4.6890    1.1440   -0.0550 C   0  0  0  0  0  0  0  0  0  0  0  0
    5.9440    1.5740   -0.5920 N   0  0  0  0  0  0  0  0  0  0  0  0
    6.1490    2.6300   -1.3720 N   0  0  0  0  0  0  0  0  0  0  0  0
    7.4620    2.7180   -1.6790 C   0  0  0  0  0  0  0  0  0  0  0  0
    7.9400    3.6160   -2.3990 O   0  0  0  0  0  0  0  0  0  0  0  0
    8.0670    1.6800   -1.0630 N   0  0  0  0  0  0  0  0  0  0  0  0
    7.1180    0.9810   -0.3950 C   0  0  0  0  0  0  0  0  0  0  0  0
    7.3560   -0.0460    0.2830 O   0  0  0  0  0  0  0  0  0  0  0  0
    3.7310    0.6710   -0.8420 N   0  0  0  0  0  0  0  0  0  0  0  0
    2.5090    0.2450   -0.3680 C   0  0  0  0  0  0  0  0  0  0  0  0
  2  1  1  6
  2  3  1  0
  2  4  1  0
  2  5  1  0
  6  5  1  6
  6  7  1  0
  6 16  1  0
  7  8  1  0
  8  9  1  0
  9 10  2  0
  9 14  1  0
 10 11  1  0
 11 12  1  6
 11 13  1  0
 13 14  1  0
 14 15  2  0
 16 17  1  0
 17 18  2  0
 17 19  1  0
 19 20  1  0
 20 21  2  0
 20 32  1  0
 21 22  1  0
 22 23  2  0
 23 24  1  0
 23 31  1  0
 24 25  1  0
 24 29  1  0
 25 26  1  0
 26 27  2  0
 26 28  1  0
 28 29  1  0
 29 30  2  0
 31 32  2  0
M  END
