
     RDKit          3D

 36 40  0  0  0  0  0  0  0  0999 V2000
   -8.5130    0.9800    1.5000 C   0  0  0  0  0  0  0  0  0  0  0  0
   -7.4950   -0.0710    1.2440 C   0  0  0  0  0  0  0  0  0  0  0  0
   -7.9300   -1.2970    0.7910 C   0  0  0  0  0  0  0  0  0  0  0  0
   -6.9900   -2.2770    0.5450 C   0  0  0  0  0  0  0  0  0  0  0  0
   -5.6300   -2.0290    0.7510 C   0  0  0  0  0  0  0  0  0  0  0  0
   -5.1900   -0.8040    1.2040 C   0  0  0  0  0  0  0  0  0  0  0  0
   -3.7460   -0.5600    1.3970 C   0  0  1  0  0  0  0  0  0  0  0  0
   -3.2060    0.3600    0.3460 C   0  0  0  0  0  0  0  0  0  0  0  0
   -1.7120    0.5470    0.5580 C   0  0  0  0  0  0  0  0  0  0  0  0
   -0.7780    0.7530   -0.3050 N   0  0  0  0  0  0  0  0  0  0  0  0
    0.4520    0.9210   -0.0470 C   0  0  0  0  0  0  0  0  0  0  0  0
    1.6700    1.1710   -0.7510 N   0  0  0  0  0  0  0  0  0  0  0  0
    1.6850    1.3180   -2.1500 C   0  0  0  0  0  0  0  0  0  0  0  0
    0.5420    1.2200   -2.7350 O   0  0  0  0  0  0  0  0  0  0  0  0
    2.8790    1.5750   -2.9230 C   0  0  0  0  0  0  0  0  0  0  0  0
    2.8880    2.6660   -3.8210 C   0  0  0  0  0  0  0  0  0  0  0  0
    4.0060    3.0470   -4.5160 C   0  0  0  0  0  0  0  0  0  0  0  0
    5.1470    2.3150   -4.3070 C   0  0  0  0  0  0  0  0  0  0  0  0
    5.1580    1.2460   -3.4380 C   0  0  0  0  0  0  0  0  0  0  0  0
    4.0200    0.8430   -2.7210 C   0  0  0  0  0  0  0  0  0  0  0  0
    4.0990   -0.3630   -1.9140 C   0  0  0  0  0  0  0  0  0  0  0  0
    5.2580   -0.8970   -1.7870 O   0  0  0  0  0  0  0  0  0  0  0  0
    3.0910   -1.0090   -1.2720 O   0  0  0  0  0  0  0  0  0  0  0  0
    3.2600   -2.1990   -0.5070 C   0  0  0  0  0  0  0  0  0  0  0  0
    4.2300   -1.9200    0.5830 C   0  0  0  0  0  0  0  0  0  0  0  0
    4.0380   -0.9660    1.5560 C   0  0  0  0  0  0  0  0  0  0  0  0
    4.9390   -0.7150    2.5620 C   0  0  0  0  0  0  0  0  0  0  0  0
    6.1220   -1.4550    2.6260 C   0  0  0  0  0  0  0  0  0  0  0  0
    6.3410   -2.4190    1.6630 C   0  0  0  0  0  0  0  0  0  0  0  0
    5.4120   -2.6370    0.6730 C   0  0  0  0  0  0  0  0  0  0  0  0
    0.4000    0.7750    1.8050 S   0  0  0  0  0  0  0  0  0  0  0  0
   -1.3180    0.5060    1.9050 C   0  0  0  0  0  0  0  0  0  0  0  0
   -2.2450    0.2570    3.0010 C   0  0  0  0  0  0  0  0  0  0  0  0
   -1.7850    0.2470    4.1660 O   0  0  0  0  0  0  0  0  0  0  0  0
   -3.6120    0.0410    2.7100 O   0  0  0  0  0  0  0  0  0  0  0  0
   -6.1420    0.1630    1.4450 C   0  0  0  0  0  0  0  0  0  0  0  0
  1  2  1  0
  2  3  2  0
  2 36  1  0
  3  4  1  0
  4  5  2  0
  5  6  1  0
  7  6  1  6
  6 36  2  0
  7  8  1  0
  7 35  1  0
  8  9  1  0
  9 10  1  0
  9 32  2  0
 10 11  2  0
 11 12  1  0
 11 31  1  0
 12 13  1  0
 13 14  2  0
 13 15  1  0
 15 16  2  0
 15 20  1  0
 16 17  1  0
 17 18  2  0
 18 19  1  0
 19 20  2  0
 20 21  1  0
 21 22  2  0
 21 23  1  0
 23 24  1  0
 24 25  1  0
 25 26  2  0
 25 30  1  0
 26 27  1  0
 27 28  2  0
 28 29  1  0
 29 30  2  0
 31 32  1  0
 32 33  1  0
 33 34  2  0
 33 35  1  0
M  END
