
     RDKit          3D

 37 40  0  0  0  0  0  0  0  0999 V2000
    4.1760   -2.8030    2.0120 C   0  0  0  0  0  0  0  0  0  0  0  0
    4.1430   -1.6070    1.1310 C   0  0  0  0  0  0  0  0  0  0  0  0
    4.6720   -0.3610    1.2270 C   0  0  0  0  0  0  0  0  0  0  0  0
    4.4510    0.5170    0.2280 C   0  0  0  0  0  0  0  0  0  0  0  0
    3.7140    0.1350   -0.8310 C   0  0  0  0  0  0  0  0  0  0  0  0
    3.2720   -1.5330   -0.4820 S   0  0  0  0  0  0  0  0  0  0  0  0
    3.4390    0.9260   -1.9300 C   0  0  0  0  0  0  0  0  0  0  0  0
    2.5930    0.5230   -3.0340 C   0  0  0  0  0  0  0  0  0  0  0  0
    1.1480    0.8060   -2.9950 C   0  0  0  0  0  0  0  0  0  0  0  0
    0.2690    0.2320   -2.0070 C   0  0  0  0  0  0  0  0  0  0  0  0
    0.4840   -0.9950   -1.6930 O   0  0  0  0  0  0  0  0  0  0  0  0
   -0.8000    0.8560   -1.3560 N   0  0  0  0  0  0  0  0  0  0  0  0
   -0.9980    2.3070   -1.4290 C   0  0  0  0  0  0  0  0  0  0  0  0
   -1.2370    2.7970   -0.0380 C   0  0  0  0  0  0  0  0  0  0  0  0
   -0.6130    3.7850    0.3830 O   0  0  0  0  0  0  0  0  0  0  0  0
   -2.2060    2.1260    0.8570 N   0  0  0  0  0  0  0  0  0  0  0  0
   -2.7970    2.8580    1.8750 C   0  0  0  0  0  0  0  0  0  0  0  0
   -3.5890    2.7820    2.8690 C   0  0  0  0  0  0  0  0  0  0  0  0
   -4.3210    1.8710    3.4940 F   0  0  0  0  0  0  0  0  0  0  0  0
   -3.7660    4.0460    3.5400 F   0  0  0  0  0  0  0  0  0  0  0  0
   -2.4040    0.7720    0.5290 C   0  0  0  0  0  0  0  0  0  0  0  0
   -3.3020    0.0310    1.2530 C   0  0  0  0  0  0  0  0  0  0  0  0
   -3.5830   -1.3160    0.9850 C   0  0  0  0  0  0  0  0  0  0  0  0
   -4.5790   -1.9880    1.8190 C   0  0  0  0  0  0  0  0  0  0  0  0
   -5.9540   -2.0840    1.2320 C   0  0  2  0  0  0  0  0  0  0  0  0
   -6.4740   -0.8050    0.9750 F   0  0  0  0  0  0  0  0  0  0  0  0
   -6.8560   -2.6280    2.1590 F   0  0  0  0  0  0  0  0  0  0  0  0
   -2.9180   -1.9050   -0.0570 C   0  0  0  0  0  0  0  0  0  0  0  0
   -3.1560   -3.3130   -0.3720 C   0  0  0  0  0  0  0  0  0  0  0  0
   -2.3120   -3.6870   -1.5130 N   0  0  0  0  0  0  0  0  0  0  0  0
   -2.0020   -1.1550   -0.8010 C   0  0  0  0  0  0  0  0  0  0  0  0
   -1.7430    0.1500   -0.5240 C   0  0  0  0  0  0  0  0  0  0  0  0
    3.9640    2.2370   -1.9640 C   0  0  0  0  0  0  0  0  0  0  0  0
    4.7070    2.5870   -0.8700 C   0  0  0  0  0  0  0  0  0  0  0  0
    5.1920    3.7610   -0.8710 O   0  0  0  0  0  0  0  0  0  0  0  0
    4.9540    1.8010    0.1780 N   0  0  0  0  0  0  0  0  0  0  0  0
    5.7710    2.3540    1.2560 C   0  0  0  0  0  0  0  0  0  0  0  0
  1  2  1  0
  2  3  2  0
  2  6  1  0
  3  4  1  0
  4  5  2  0
  4 36  1  0
  5  6  1  0
  5  7  1  0
  7  8  1  0
  7 33  2  0
  8  9  1  0
  9 10  1  0
 10 11  2  0
 10 12  1  0
 12 13  1  0
 12 32  1  0
 13 14  1  0
 14 15  2  0
 14 16  1  0
 16 17  1  0
 16 21  1  0
 17 18  2  3
 18 19  1  0
 18 20  1  0
 21 22  2  0
 21 32  1  0
 22 23  1  0
 23 24  1  0
 23 28  2  0
 24 25  1  0
 25 26  1  1
 25 27  1  0
 28 29  1  0
 28 31  1  0
 29 30  1  0
 31 32  2  0
 33 34  1  0
 34 35  2  0
 34 36  1  0
 36 37  1  0
M  CHG  1  30   1
M  END
