
     RDKit          3D

 36 40  0  0  0  0  0  0  0  0999 V2000
   -2.7370   -3.0700   -1.4390 C   0  0  0  0  0  0  0  0  0  0  0  0
   -2.1610   -1.9160   -0.8920 O   0  0  0  0  0  0  0  0  0  0  0  0
   -2.8600   -0.7330   -0.7150 C   0  0  0  0  0  0  0  0  0  0  0  0
   -4.1870   -0.6340   -1.0770 C   0  0  0  0  0  0  0  0  0  0  0  0
   -4.8670    0.5460   -0.8970 C   0  0  0  0  0  0  0  0  0  0  0  0
   -6.1840    0.6690   -1.2490 O   0  0  0  0  0  0  0  0  0  0  0  0
   -7.2690    0.4110   -0.4400 C   0  0  0  0  0  0  0  0  0  0  0  0
   -7.8420   -0.8320   -0.3810 C   0  0  0  0  0  0  0  0  0  0  0  0
   -8.9440   -1.0790    0.4450 C   0  0  0  0  0  0  0  0  0  0  0  0
   -9.4340   -0.0320    1.2000 C   0  0  0  0  0  0  0  0  0  0  0  0
   -8.8820    1.2250    1.1630 C   0  0  0  0  0  0  0  0  0  0  0  0
   -7.7960    1.4170    0.3320 C   0  0  0  0  0  0  0  0  0  0  0  0
   -4.2090    1.6220   -0.3540 C   0  0  0  0  0  0  0  0  0  0  0  0
   -2.8920    1.5640    0.0190 C   0  0  0  0  0  0  0  0  0  0  0  0
   -2.2070    0.3570   -0.1680 C   0  0  0  0  0  0  0  0  0  0  0  0
   -0.8780    0.2850    0.2020 O   0  0  0  0  0  0  0  0  0  0  0  0
   -0.3540   -0.5570    1.1710 C   0  0  0  0  0  0  0  0  0  0  0  0
   -1.1020   -1.4230    1.9290 C   0  0  0  0  0  0  0  0  0  0  0  0
   -0.4910   -2.2290    2.8750 C   0  0  0  0  0  0  0  0  0  0  0  0
    0.8710   -2.1510    3.0450 C   0  0  0  0  0  0  0  0  0  0  0  0
    1.6340   -1.2750    2.2820 C   0  0  0  0  0  0  0  0  0  0  0  0
    2.9630   -1.1800    2.4280 N   0  0  0  0  0  0  0  0  0  0  0  0
    3.7460   -0.3390    1.7020 C   0  0  0  0  0  0  0  0  0  0  0  0
    4.9840   -0.3320    1.9220 O   0  0  0  0  0  0  0  0  0  0  0  0
    3.1510    0.4390    0.7890 N   0  0  0  0  0  0  0  0  0  0  0  0
    3.8420    1.3470   -0.0290 C   0  0  2  0  0  0  0  0  0  0  0  0
    3.9870    0.6910   -1.4170 C   0  0  0  0  0  0  0  0  0  0  0  0
    4.9810   -0.4450   -1.3380 C   0  0  0  0  0  0  0  0  0  0  0  0
    6.3540    0.0750   -0.9810 C   0  0  0  0  0  0  0  0  0  0  0  0
    6.2650    1.5400   -0.7350 C   0  0  2  0  0  0  0  0  0  0  0  0
    7.8280    2.1780   -0.0110 S   0  0  0  0  0  0  0  0  0  0  0  0
    9.1580    2.0270   -1.2330 C   0  0  0  0  0  0  0  0  0  0  0  0
    5.1690    1.8560    0.2960 C   0  0  0  0  0  0  0  0  0  0  0  0
    1.7950    0.3830    0.5980 C   0  0  0  0  0  0  0  0  0  0  0  0
    1.2230    1.1070   -0.2560 O   0  0  0  0  0  0  0  0  0  0  0  0
    1.0250   -0.4740    1.3410 C   0  0  0  0  0  0  0  0  0  0  0  0
  1  2  1  0
  2  3  1  0
  3  4  2  0
  3 15  1  0
  4  5  1  0
  5  6  1  0
  5 13  2  0
  6  7  1  0
  7  8  2  0
  7 12  1  0
  8  9  1  0
  9 10  2  0
 10 11  1  0
 11 12  2  0
 13 14  1  0
 14 15  2  0
 15 16  1  0
 16 17  1  0
 17 18  2  0
 17 36  1  0
 18 19  1  0
 19 20  2  0
 20 21  1  0
 21 22  1  0
 21 36  2  0
 22 23  1  0
 23 24  2  0
 23 25  1  0
 26 25  1  1
 25 34  1  0
 26 27  1  0
 26 33  1  0
 27 28  1  0
 28 29  1  0
 29 30  1  0
 30 31  1  1
 30 33  1  0
 31 32  1  0
 34 35  2  0
 34 36  1  0
M  END
