
     RDKit          3D

 36 39  0  0  0  0  0  0  0  0999 V2000
   -4.6350   -3.4170   -0.1310 C   0  0  0  0  0  0  0  0  0  0  0  0
   -3.4390   -2.7070   -0.8020 C   0  0  0  0  0  0  0  0  0  0  0  0
   -3.1990   -1.4310   -0.0270 C   0  0  0  0  0  0  0  0  0  0  0  0
   -2.0230   -0.6010   -0.5230 C   0  0  0  0  0  0  0  0  0  0  0  0
   -2.3370    0.6570   -0.9210 C   0  0  0  0  0  0  0  0  0  0  0  0
   -3.7280    1.0230   -0.7940 N   0  0  0  0  0  0  0  0  0  0  0  0
   -4.2710    2.2360   -1.2990 C   0  0  0  0  0  0  0  0  0  0  0  0
   -3.4490    3.0430   -1.9050 C   0  0  0  0  0  0  0  0  0  0  0  0
   -2.0430    2.7120   -2.0520 C   0  0  0  0  0  0  0  0  0  0  0  0
   -1.4240    1.6150   -1.6230 C   0  0  0  0  0  0  0  0  0  0  0  0
   -0.1240    1.4870   -1.8500 O   0  0  0  0  0  0  0  0  0  0  0  0
    1.1620    1.6590   -1.9020 C   0  0  0  0  0  0  0  0  0  0  0  0
    2.0080    0.7680   -2.2740 O   0  0  0  0  0  0  0  0  0  0  0  0
    1.7800    2.9900   -1.5140 C   0  0  0  0  0  0  0  0  0  0  0  0
    1.9040    3.2710   -0.2140 O   0  0  0  0  0  0  0  0  0  0  0  0
    2.3090    3.4850    0.9970 C   0  0  0  0  0  0  0  0  0  0  0  0
    3.0480    4.4400    1.3740 O   0  0  0  0  0  0  0  0  0  0  0  0
    1.9950    2.6390    2.2750 C   0  0  0  0  0  0  0  0  0  0  0  0
    1.3870    1.4250    1.6280 C   0  0  1  0  0  0  0  0  0  0  0  0
    0.0770    1.9890    1.2390 C   0  0  0  0  0  0  0  0  0  0  0  0
    2.5020    0.8790    0.8890 C   0  0  0  0  0  0  0  0  0  0  0  0
    3.6450    0.5460    1.9010 C   0  0  0  0  0  0  0  0  0  0  0  0
    3.7350   -0.5570    2.6250 C   0  0  0  0  0  0  0  0  0  0  0  0
    4.8000   -0.7910    3.4660 C   0  0  0  0  0  0  0  0  0  0  0  0
    5.8090    0.6980    3.2330 S   0  0  0  0  0  0  0  0  0  0  0  0
    4.7590    1.4490    2.0890 C   0  0  0  0  0  0  0  0  0  0  0  0
    0.8510    0.2750    2.4190 C   0  0  0  0  0  0  0  0  0  0  0  0
    0.7480    0.4530    3.6360 O   0  0  0  0  0  0  0  0  0  0  0  0
    0.5170   -0.8900    1.6990 N   0  0  0  0  0  0  0  0  0  0  0  0
    0.2970   -1.4470    0.4460 C   0  0  0  0  0  0  0  0  0  0  0  0
    1.3090   -2.4080    0.1060 C   0  0  0  0  0  0  0  0  0  0  0  0
    1.3350   -3.1980   -0.9900 C   0  0  0  0  0  0  0  0  0  0  0  0
    0.2980   -3.0850   -1.8710 C   0  0  0  0  0  0  0  0  0  0  0  0
    0.2470   -3.9240   -3.1140 C   0  0  0  0  0  0  0  0  0  0  0  0
   -0.6900   -2.2040   -1.6140 C   0  0  0  0  0  0  0  0  0  0  0  0
   -0.7610   -1.3430   -0.4730 C   0  0  0  0  0  0  0  0  0  0  0  0
  1  2  1  0
  2  3  1  0
  3  4  1  0
  4  5  2  0
  4 36  1  0
  5  6  1  0
  5 10  1  0
  6  7  1  0
  7  8  2  0
  8  9  1  0
  9 10  2  0
 10 11  1  0
 11 12  1  0
 12 13  2  0
 12 14  1  0
 14 15  1  0
 15 16  1  0
 16 17  2  0
 16 18  1  0
 18 19  1  0
 19 20  1  6
 19 21  1  0
 19 27  1  0
 21 22  1  0
 22 23  1  0
 22 26  2  0
 23 24  2  0
 24 25  1  0
 25 26  1  0
 27 28  2  0
 27 29  1  0
 29 30  1  0
 30 31  2  0
 30 36  1  0
 31 32  1  0
 32 33  2  0
 33 34  1  0
 33 35  1  0
 35 36  2  0
M  END
