
     RDKit          3D

 37 40  0  0  0  0  0  0  0  0999 V2000
    9.6210    1.3830   -2.3110 C   0  0  0  0  0  0  0  0  0  0  0  0
    8.2330    1.1130   -1.8610 C   0  0  0  0  0  0  0  0  0  0  0  0
    7.8080    0.2010   -0.9000 C   0  0  0  0  0  0  0  0  0  0  0  0
    6.4360    0.2920   -0.8110 C   0  0  0  0  0  0  0  0  0  0  0  0
    5.5830   -0.4560    0.0440 N   0  0  0  0  0  0  0  0  0  0  0  0
    6.0500   -1.3980    0.8830 C   0  0  0  0  0  0  0  0  0  0  0  0
    5.2490   -2.1260    1.7100 C   0  0  0  0  0  0  0  0  0  0  0  0
    3.8670   -1.8660    1.6710 C   0  0  0  0  0  0  0  0  0  0  0  0
    3.3520   -0.9220    0.8370 C   0  0  0  0  0  0  0  0  0  0  0  0
    1.9950   -0.5980    0.7310 N   0  0  0  0  0  0  0  0  0  0  0  0
    0.9700   -1.2040    1.4780 C   0  0  0  0  0  0  0  0  0  0  0  0
    1.1860   -2.1060    2.3200 O   0  0  0  0  0  0  0  0  0  0  0  0
   -0.4200   -0.8140    1.3130 C   0  0  0  0  0  0  0  0  0  0  0  0
   -1.1040    0.0550    0.5740 C   0  0  0  0  0  0  0  0  0  0  0  0
   -2.4440    0.1650    0.6740 C   0  0  0  0  0  0  0  0  0  0  0  0
   -3.2140    1.1580   -0.1540 C   0  0  0  0  0  0  0  0  0  0  0  0
   -4.0490    2.0700    0.4300 C   0  0  0  0  0  0  0  0  0  0  0  0
   -4.7580    2.9710   -0.3730 C   0  0  0  0  0  0  0  0  0  0  0  0
   -4.6210    2.9470   -1.7470 C   0  0  0  0  0  0  0  0  0  0  0  0
   -5.2940    3.8070   -2.5540 F   0  0  0  0  0  0  0  0  0  0  0  0
   -3.7800    2.0300   -2.3420 C   0  0  0  0  0  0  0  0  0  0  0  0
   -3.6370    2.0110   -3.8370 C   0  0  0  0  0  0  0  0  0  0  0  0
   -3.0940    1.1550   -1.5280 C   0  0  0  0  0  0  0  0  0  0  0  0
   -3.1060   -0.6230    1.5410 C   0  0  0  0  0  0  0  0  0  0  0  0
   -4.4630   -0.8460    1.9820 C   0  0  1  0  0  0  0  0  0  0  0  0
   -4.8950    0.0300    3.0750 N   0  0  0  0  0  0  0  0  0  0  0  0
   -5.4910   -0.8650    0.9260 C   0  0  0  0  0  0  0  0  0  0  0  0
   -5.7800   -1.9760    0.2890 C   0  0  0  0  0  0  0  0  0  0  0  0
   -5.1830   -3.3030    0.4910 C   0  0  2  0  0  0  0  0  0  0  0  0
   -3.8280   -3.3570    0.4270 F   0  0  0  0  0  0  0  0  0  0  0  0
   -5.6880   -4.2450   -0.3980 F   0  0  0  0  0  0  0  0  0  0  0  0
   -5.5810   -3.7620    1.7510 F   0  0  0  0  0  0  0  0  0  0  0  0
   -1.8070   -1.5790    2.2700 S   0  0  0  0  0  0  0  0  0  0  0  0
    4.2770   -0.2370    0.0320 C   0  0  0  0  0  0  0  0  0  0  0  0
    3.8190    0.6340   -0.7390 O   0  0  0  0  0  0  0  0  0  0  0  0
    6.0870    1.2350   -1.7010 N   0  0  0  0  0  0  0  0  0  0  0  0
    7.1570    1.6890   -2.2920 O   0  0  0  0  0  0  0  0  0  0  0  0
  1  2  1  0
  2  3  2  0
  2 37  1  0
  3  4  1  0
  4  5  1  0
  4 36  2  0
  5  6  1  0
  5 34  1  0
  6  7  2  0
  7  8  1  0
  8  9  2  0
  9 10  1  0
  9 34  1  0
 10 11  1  0
 11 12  2  0
 11 13  1  0
 13 14  2  0
 13 33  1  0
 14 15  1  0
 15 16  1  0
 15 24  2  0
 16 17  2  0
 16 23  1  0
 17 18  1  0
 18 19  2  0
 19 20  1  0
 19 21  1  0
 21 22  1  0
 21 23  2  0
 24 25  1  0
 24 33  1  0
 25 26  1  1
 25 27  1  0
 27 28  2  3
 28 29  1  0
 29 30  1  1
 29 31  1  0
 29 32  1  0
 34 35  2  0
 36 37  1  0
M  CHG  1  26   1
M  END
