
     RDKit          3D

 36 39  0  0  0  0  0  0  0  0999 V2000
   -9.7620   -0.2290    0.1300 C   0  0  0  0  0  0  0  0  0  0  0  0
   -8.5190    0.6380    0.1300 C   0  0  2  0  0  0  0  0  0  0  0  0
   -7.9330    0.6200   -1.2670 C   0  0  0  0  0  0  0  0  0  0  0  0
   -6.6400    1.3630   -1.3370 C   0  0  0  0  0  0  0  0  0  0  0  0
   -5.6560    0.9400   -0.3760 N   0  0  2  0  0  0  0  0  0  0  0  0
   -5.1150   -0.3540   -0.6420 C   0  0  0  0  0  0  0  0  0  0  0  0
   -3.7210   -0.4930   -0.1420 C   0  0  0  0  0  0  0  0  0  0  0  0
   -3.2860   -0.9120    1.0510 C   0  0  0  0  0  0  0  0  0  0  0  0
   -1.9450   -0.9500    1.2700 C   0  0  0  0  0  0  0  0  0  0  0  0
   -1.1330   -0.5670    0.2820 C   0  0  0  0  0  0  0  0  0  0  0  0
    0.3560   -0.5060    0.2380 C   0  0  0  0  0  0  0  0  0  0  0  0
    0.8630   -0.1140   -0.8050 O   0  0  0  0  0  0  0  0  0  0  0  0
    1.1480   -0.8740    1.3230 N   0  0  0  0  0  0  0  0  0  0  0  0
    2.5660   -0.8610    1.4070 C   0  0  0  0  0  0  0  0  0  0  0  0
    3.1590   -1.2740    2.5990 C   0  0  0  0  0  0  0  0  0  0  0  0
    4.5140   -1.2960    2.7740 C   0  0  0  0  0  0  0  0  0  0  0  0
    5.3700   -0.8970    1.7440 C   0  0  0  0  0  0  0  0  0  0  0  0
    6.8440   -0.9490    1.9880 C   0  0  2  0  0  0  0  0  0  0  0  0
    7.0760   -1.4000    3.2990 F   0  0  0  0  0  0  0  0  0  0  0  0
    7.4060    0.2650    1.7850 F   0  0  0  0  0  0  0  0  0  0  0  0
    7.4780   -1.8860    1.2010 F   0  0  0  0  0  0  0  0  0  0  0  0
    4.7900   -0.4900    0.5690 C   0  0  0  0  0  0  0  0  0  0  0  0
    5.4070   -0.1140   -0.4000 N   0  0  0  0  0  0  0  0  0  0  0  0
    6.5750    0.1490   -1.0020 C   0  0  0  0  0  0  0  0  0  0  0  0
    7.3310   -0.8280   -1.6750 C   0  0  0  0  0  0  0  0  0  0  0  0
    8.5060   -0.5690   -2.3140 C   0  0  0  0  0  0  0  0  0  0  0  0
    9.0200    0.7080   -2.3280 C   0  0  0  0  0  0  0  0  0  0  0  0
   10.2750    0.9870   -3.0080 C   0  0  0  0  0  0  0  0  0  0  0  0
   10.9280    0.0910   -3.5990 O   0  0  0  0  0  0  0  0  0  0  0  0
    8.3040    1.6820   -1.6810 C   0  0  0  0  0  0  0  0  0  0  0  0
    7.1260    1.4560   -1.0330 C   0  0  0  0  0  0  0  0  0  0  0  0
    6.4130    2.4540   -0.3820 O   0  0  0  0  0  0  0  0  0  0  0  0
    3.3870   -0.4910    0.4540 N   0  0  0  0  0  0  0  0  0  0  0  0
   -2.2180   -0.1360   -1.0010 S   0  0  0  0  0  0  0  0  0  0  0  0
   -6.2350    0.9620    0.9400 C   0  0  0  0  0  0  0  0  0  0  0  0
   -7.4790    0.1410    1.0890 C   0  0  0  0  0  0  0  0  0  0  0  0
  2  1  1  6
  2  3  1  0
  2 36  1  0
  3  4  1  0
  4  5  1  0
  5  6  1  6
  5 35  1  0
  6  7  1  0
  7  8  2  0
  7 34  1  0
  8  9  1  0
  9 10  2  0
 10 11  1  0
 10 34  1  0
 11 12  2  0
 11 13  1  0
 13 14  1  0
 14 15  2  0
 14 33  1  0
 15 16  1  0
 16 17  2  0
 17 18  1  0
 17 22  1  0
 18 19  1  1
 18 20  1  0
 18 21  1  0
 22 23  2  3
 22 33  1  0
 23 24  1  0
 24 25  2  0
 24 31  1  0
 25 26  1  0
 26 27  2  0
 27 28  1  0
 27 30  1  0
 28 29  2  0
 30 31  2  0
 31 32  1  0
 35 36  1  0
M  CHG  1   5   1
M  END
