
     RDKit          3D

 26 28  0  0  0  0  0  0  0  0999 V2000
    3.4800   -1.5450   -1.8540 O   0  0  0  0  0  0  0  0  0  0  0  0
    3.7540   -2.4490   -1.0040 C   0  0  0  0  0  0  0  0  0  0  0  0
    4.1820   -3.6650   -1.5800 O   0  0  0  0  0  0  0  0  0  0  0  0
    3.6440   -2.2560    0.3660 N   0  0  0  0  0  0  0  0  0  0  0  0
    3.2190   -1.0480    1.0050 C   0  0  1  0  0  0  0  0  0  0  0  0
    4.1820    0.0220    1.0850 N   0  0  0  0  0  0  0  0  0  0  0  0
    3.7030    1.1140    0.6880 C   0  0  0  0  0  0  0  0  0  0  0  0
    4.1830    2.5290    0.5480 C   0  0  0  0  0  0  0  0  0  0  0  0
    3.9910    2.9320   -1.2190 S   0  0  0  0  0  0  0  0  0  0  0  0
    2.2980    0.8310    0.2440 C   0  0  0  0  0  0  0  0  0  0  0  0
    2.0070   -0.4490    0.4170 C   0  0  0  0  0  0  0  0  0  0  0  0
    0.7350   -1.0240    0.0590 N   0  0  0  0  0  0  0  0  0  0  0  0
   -0.4600   -0.2210    0.3820 C   0  0  0  0  0  0  0  0  0  0  0  0
   -0.1760    0.8110    0.9960 O   0  0  0  0  0  0  0  0  0  0  0  0
   -1.7730   -0.6130    0.0170 C   0  0  1  0  0  0  0  0  0  0  0  0
   -2.3840   -1.7900    0.4800 N   0  0  0  0  0  0  0  0  0  0  0  0
   -3.5040   -2.2100   -0.3640 C   0  0  0  0  0  0  0  0  0  0  0  0
   -4.3050   -1.2830   -0.8970 C   0  0  0  0  0  0  0  0  0  0  0  0
   -3.9770    0.1330   -0.5880 C   0  0  0  0  0  0  0  0  0  0  0  0
   -4.9740    1.0420   -0.7010 N   0  0  0  0  0  0  0  0  0  0  0  0
   -4.8590    2.2040   -0.0470 C   0  0  0  0  0  0  0  0  0  0  0  0
   -5.8120    3.0660   -0.1520 O   0  0  0  0  0  0  0  0  0  0  0  0
   -3.7810    2.5090    0.7300 N   0  0  0  0  0  0  0  0  0  0  0  0
   -2.7420    1.5980    0.8620 C   0  0  0  0  0  0  0  0  0  0  0  0
   -1.7800    1.9470    1.6050 O   0  0  0  0  0  0  0  0  0  0  0  0
   -2.8600    0.4240    0.1880 C   0  0  0  0  0  0  0  0  0  0  0  0
  1  2  2  0
  2  3  1  0
  2  4  1  0
  5  4  1  6
  5  6  1  0
  5 11  1  0
  6  7  2  0
  7  8  1  0
  7 10  1  0
  8  9  1  0
 10 11  2  0
 11 12  1  0
 12 13  1  0
 13 14  2  0
 15 13  1  1
 15 16  1  0
 15 26  1  0
 16 17  1  0
 17 18  2  0
 18 19  1  0
 19 20  1  0
 19 26  2  0
 20 21  1  0
 21 22  2  0
 21 23  1  0
 23 24  1  0
 24 25  2  0
 24 26  1  0
M  END
