
     RDKit          3D

 26 27  0  0  0  0  0  0  0  0999 V2000
    7.3150   -2.1090   -1.5300 N   0  0  0  0  0  0  0  0  0  0  0  0
    8.0100   -0.8910   -1.7230 C   0  0  0  0  0  0  0  0  0  0  0  0
    8.8590   -0.7750   -2.6390 O   0  0  0  0  0  0  0  0  0  0  0  0
    7.7760    0.3080   -0.8590 C   0  0  0  0  0  0  0  0  0  0  0  0
    6.7680   -0.0590    0.1150 N   0  0  0  0  0  0  0  0  0  0  0  0
    5.5420    0.2700    0.0190 C   0  0  0  0  0  0  0  0  0  0  0  0
    4.8980    1.0200   -0.9860 N   0  0  0  0  0  0  0  0  0  0  0  0
    3.5530    1.2830   -0.7990 C   0  0  0  0  0  0  0  0  0  0  0  0
    2.8280    1.9520   -1.6240 O   0  0  0  0  0  0  0  0  0  0  0  0
    2.9520    0.7570    0.4140 C   0  0  0  0  0  0  0  0  0  0  0  0
    1.7460    0.8810    0.8860 C   0  0  0  0  0  0  0  0  0  0  0  0
    1.3840    0.2320    2.1670 C   0  0  0  0  0  0  0  0  0  0  0  0
    0.2570   -0.7330    1.8830 C   0  0  0  0  0  0  0  0  0  0  0  0
   -0.8550    0.0140    1.3490 N   0  0  0  0  0  0  0  0  0  0  0  0
   -2.0600   -0.6170    0.9860 C   0  0  0  0  0  0  0  0  0  0  0  0
   -2.1520   -1.8630    1.1360 O   0  0  0  0  0  0  0  0  0  0  0  0
   -3.1490    0.1560    0.4570 N   0  0  0  0  0  0  0  0  0  0  0  0
   -4.3760   -0.4990    0.0880 C   0  0  2  0  0  0  0  0  0  0  0  0
   -4.6910   -0.2790   -1.3370 C   0  0  0  0  0  0  0  0  0  0  0  0
   -3.7930   -0.5420   -2.1790 O   0  0  0  0  0  0  0  0  0  0  0  0
   -5.9740    0.2150   -1.7250 N   0  0  0  0  0  0  0  0  0  0  0  0
   -7.1550    0.0640   -0.9200 C   0  0  0  0  0  0  0  0  0  0  0  0
   -6.8040   -0.6570    0.3690 C   0  0  0  0  0  0  0  0  0  0  0  0
   -5.5540    0.0060    0.9110 C   0  0  2  0  0  0  0  0  0  0  0  0
   -5.7350    1.3930    0.7290 O   0  0  0  0  0  0  0  0  0  0  0  0
    4.2760   -0.1610    1.1960 S   0  0  0  0  0  0  0  0  0  0  0  0
  1  2  1  0
  2  3  2  0
  2  4  1  0
  4  5  1  0
  5  6  2  3
  6  7  1  0
  6 26  1  0
  7  8  1  0
  8  9  2  0
  8 10  1  0
 10 11  2  3
 10 26  1  0
 11 12  1  0
 12 13  1  0
 13 14  1  0
 14 15  1  0
 15 16  2  0
 15 17  1  0
 18 17  1  1
 18 19  1  0
 18 24  1  0
 19 20  2  0
 19 21  1  0
 21 22  1  0
 22 23  1  0
 23 24  1  0
 24 25  1  6
M  END
