
     RDKit          3D

 26 28  0  0  0  0  0  0  0  0999 V2000
    6.9310    0.5250    2.7020 N   0  0  0  0  0  0  0  0  0  0  0  0
    6.1280   -0.4630    3.3260 C   0  0  0  0  0  0  0  0  0  0  0  0
    6.6730   -1.1230    4.2690 O   0  0  0  0  0  0  0  0  0  0  0  0
    4.7300   -0.7420    2.9290 C   0  0  0  0  0  0  0  0  0  0  0  0
    4.3740    0.1470    1.8430 N   0  0  0  0  0  0  0  0  0  0  0  0
    3.0750    0.1070    1.2500 C   0  0  0  0  0  0  0  0  0  0  0  0
    2.2630   -0.7270    1.7100 O   0  0  0  0  0  0  0  0  0  0  0  0
    2.7310    1.0420    0.1220 C   0  0  0  0  0  0  0  0  0  0  0  0
    1.3800    0.8300   -0.3200 N   0  0  0  0  0  0  0  0  0  0  0  0
    0.9100   -0.4090   -0.8320 C   0  0  0  0  0  0  0  0  0  0  0  0
    1.7660   -1.3440   -0.8820 O   0  0  0  0  0  0  0  0  0  0  0  0
   -0.4550   -0.6050   -1.2730 C   0  0  0  0  0  0  0  0  0  0  0  0
   -1.0430   -1.7170   -1.7790 N   0  0  0  0  0  0  0  0  0  0  0  0
   -2.3200   -1.4770   -2.0620 C   0  0  0  0  0  0  0  0  0  0  0  0
   -2.5540   -0.1890   -1.7320 C   0  0  0  0  0  0  0  0  0  0  0  0
   -1.4170    0.3690   -1.2410 C   0  0  0  0  0  0  0  0  0  0  0  0
   -1.9180    2.0650   -0.8400 S   0  0  0  0  0  0  0  0  0  0  0  0
   -3.7250    1.6310   -0.7270 C   0  0  2  0  0  0  0  0  0  0  0  0
   -3.8950    1.0580    0.6150 C   0  0  0  0  0  0  0  0  0  0  0  0
   -3.1570   -0.0810    0.9860 N   0  0  0  0  0  0  0  0  0  0  0  0
   -4.6860    1.5730    1.4240 O   0  0  0  0  0  0  0  0  0  0  0  0
   -3.7430    0.6210   -1.8420 C   0  0  2  0  0  0  0  0  0  0  0  0
   -4.9410   -0.2940   -1.8350 C   0  0  0  0  0  0  0  0  0  0  0  0
   -4.6770   -1.4430   -2.6850 N   0  0  0  0  0  0  0  0  0  0  0  0
   -3.4850   -2.2100   -2.6000 C   0  0  0  0  0  0  0  0  0  0  0  0
   -3.3400   -3.3940   -2.9230 O   0  0  0  0  0  0  0  0  0  0  0  0
  1  2  1  0
  2  3  2  0
  2  4  1  0
  4  5  1  0
  5  6  1  0
  6  7  2  0
  6  8  1  0
  8  9  1  0
  9 10  1  0
 10 11  2  0
 10 12  1  0
 12 13  1  0
 12 16  2  0
 13 14  1  0
 14 15  2  0
 14 25  1  0
 15 16  1  0
 15 22  1  0
 16 17  1  0
 17 18  1  0
 18 19  1  1
 18 22  1  0
 19 20  1  0
 19 21  2  0
 22 23  1  1
 23 24  1  0
 24 25  1  0
 25 26  2  0
M  END
