
     RDKit          3D

 26 27  0  0  0  0  0  0  0  0999 V2000
   -4.6030    2.7550    2.0590 C   0  0  0  0  0  0  0  0  0  0  0  0
   -4.6240    2.3590    0.6260 C   0  0  2  0  0  0  0  0  0  0  0  0
   -5.8920    2.1250    0.1170 O   0  0  0  0  0  0  0  0  0  0  0  0
   -3.6830    1.1910    0.3370 C   0  0  0  0  0  0  0  0  0  0  0  0
   -2.5350    1.2540    0.7500 O   0  0  0  0  0  0  0  0  0  0  0  0
   -4.1180    0.0790   -0.3800 N   0  0  0  0  0  0  0  0  0  0  0  0
   -3.5220   -1.1100   -0.7940 C   0  0  0  0  0  0  0  0  0  0  0  0
   -2.3460   -1.7070   -0.7090 C   0  0  0  0  0  0  0  0  0  0  0  0
   -1.2350   -1.1550   -0.0520 N   0  0  0  0  0  0  0  0  0  0  0  0
    0.0300   -1.8050    0.0360 C   0  0  0  0  0  0  0  0  0  0  0  0
    0.2910   -2.9030   -0.4420 O   0  0  0  0  0  0  0  0  0  0  0  0
    1.1100   -1.1380    0.7410 N   0  0  0  0  0  0  0  0  0  0  0  0
    2.4330   -1.7350    0.8720 C   0  0  0  0  0  0  0  0  0  0  0  0
    3.0080   -1.9220   -0.5150 C   0  0  0  0  0  0  0  0  0  0  0  0
    3.1490   -0.3210   -1.3510 S   0  0  0  0  0  0  0  0  0  0  0  0
    4.4520    0.6100   -0.5650 C   0  0  0  0  0  0  0  0  0  0  0  0
    5.2660    0.1130    0.3420 C   0  0  0  0  0  0  0  0  0  0  0  0
    6.2950    0.8660    0.9530 N   0  0  0  0  0  0  0  0  0  0  0  0
    6.4670    2.1930    0.5870 N   0  0  0  0  0  0  0  0  0  0  0  0
    5.5760    2.7250   -0.4050 C   0  0  0  0  0  0  0  0  0  0  0  0
    4.6240    2.0060   -0.9600 C   0  0  0  0  0  0  0  0  0  0  0  0
   -2.3530   -3.0130   -1.3860 C   0  0  0  0  0  0  0  0  0  0  0  0
   -1.4240   -3.8490   -1.5070 O   0  0  0  0  0  0  0  0  0  0  0  0
   -3.6550   -3.2040   -1.9200 N   0  0  0  0  0  0  0  0  0  0  0  0
   -4.3760   -2.0740   -1.5780 C   0  0  0  0  0  0  0  0  0  0  0  0
   -5.5970   -1.9290   -1.9110 O   0  0  0  0  0  0  0  0  0  0  0  0
  2  1  1  1
  2  3  1  0
  2  4  1  0
  4  5  2  0
  4  6  1  0
  6  7  1  0
  7  8  2  0
  7 25  1  0
  8  9  1  0
  8 22  1  0
  9 10  1  0
 10 11  2  0
 10 12  1  0
 12 13  1  0
 13 14  1  0
 14 15  1  0
 15 16  1  0
 16 17  2  0
 16 21  1  0
 17 18  1  0
 18 19  1  0
 19 20  1  0
 20 21  2  0
 22 23  2  0
 22 24  1  0
 24 25  1  0
 25 26  2  0
M  END
