
     RDKit          3D

 19 20  0  0  0  0  0  0  0  0999 V2000
    3.4770   -1.3630   -1.3450 C   0  0  0  0  0  0  0  0  0  0  0  0
    3.4450    0.1210   -1.5090 C   0  0  0  0  0  0  0  0  0  0  0  0
    2.7000    0.8150   -0.3640 C   0  0  2  0  0  0  0  0  0  0  0  0
    2.7510    2.2950   -0.6680 C   0  0  0  0  0  0  0  0  0  0  0  0
    3.3630    0.5640    0.9520 C   0  0  0  0  0  0  0  0  0  0  0  0
    1.2700    0.3010   -0.4050 C   0  0  0  0  0  0  0  0  0  0  0  0
    0.4600    0.8850    0.6320 N   0  0  0  0  0  0  0  0  0  0  0  0
   -0.9090    0.5200    0.7480 C   0  0  0  0  0  0  0  0  0  0  0  0
   -1.7230    1.0530    1.7250 C   0  0  0  0  0  0  0  0  0  0  0  0
   -3.0360    0.6560    1.7780 C   0  0  0  0  0  0  0  0  0  0  0  0
   -3.5810   -0.2480    0.9050 C   0  0  0  0  0  0  0  0  0  0  0  0
   -4.8910   -0.6530    0.9470 C   0  0  0  0  0  0  0  0  0  0  0  0
   -5.6220   -0.1630    1.8390 O   0  0  0  0  0  0  0  0  0  0  0  0
   -5.4040   -1.5510    0.0680 N   0  0  0  0  0  0  0  0  0  0  0  0
   -4.5960   -2.0590   -0.8760 C   0  0  0  0  0  0  0  0  0  0  0  0
   -5.0920   -2.9010   -1.6940 O   0  0  0  0  0  0  0  0  0  0  0  0
   -3.3130   -1.6830   -0.9430 N   0  0  0  0  0  0  0  0  0  0  0  0
   -2.7760   -0.7880   -0.0770 C   0  0  0  0  0  0  0  0  0  0  0  0
   -1.4590   -0.3980   -0.1410 C   0  0  0  0  0  0  0  0  0  0  0  0
  1  2  1  0
  2  3  1  0
  3  4  1  6
  3  5  1  0
  3  6  1  0
  6  7  1  0
  7  8  1  0
  8  9  2  0
  8 19  1  0
  9 10  1  0
 10 11  2  0
 11 12  1  0
 11 18  1  0
 12 13  2  0
 12 14  1  0
 14 15  1  0
 15 16  2  0
 15 17  1  0
 17 18  1  0
 18 19  2  0
M  END
