
     RDKit          3D

 19 20  0  0  0  0  0  0  0  0999 V2000
    5.2440   -1.0700   -2.0520 C   0  0  0  0  0  0  0  0  0  0  0  0
    3.9960   -0.7260   -1.3470 C   0  0  0  0  0  0  0  0  0  0  0  0
    4.0300   -0.2050   -0.1220 C   0  0  0  0  0  0  0  0  0  0  0  0
    5.3530    0.0290    0.5350 C   0  0  0  0  0  0  0  0  0  0  0  0
    5.1790    0.5580    1.8320 N   0  0  0  0  0  0  0  0  0  0  0  0
    4.0640    0.8280    2.4080 C   0  0  0  0  0  0  0  0  0  0  0  0
    2.7840    0.6050    1.7490 C   0  0  0  0  0  0  0  0  0  0  0  0
    2.7470    0.1100    0.5320 C   0  0  0  0  0  0  0  0  0  0  0  0
    1.5250   -0.1550   -0.2290 C   0  0  0  0  0  0  0  0  0  0  0  0
    0.2850    0.1180    0.3850 N   0  0  0  0  0  0  0  0  0  0  0  0
   -0.9420   -0.1290   -0.3350 C   0  0  0  0  0  0  0  0  0  0  0  0
   -0.9300   -0.5900   -1.5140 O   0  0  0  0  0  0  0  0  0  0  0  0
   -2.1740    0.1570    0.3120 N   0  0  0  0  0  0  0  0  0  0  0  0
   -3.4580   -0.0710   -0.3650 C   0  0  1  0  0  0  0  0  0  0  0  0
   -4.1890   -1.0920    0.5130 C   0  0  0  0  0  0  0  0  0  0  0  0
   -4.8400   -0.2770    1.6250 C   0  0  0  0  0  0  0  0  0  0  0  0
   -5.9800    0.3010    1.0890 O   0  0  0  0  0  0  0  0  0  0  0  0
   -5.7340    0.9670   -0.1070 C   0  0  0  0  0  0  0  0  0  0  0  0
   -4.2580    1.1940   -0.3400 C   0  0  0  0  0  0  0  0  0  0  0  0
  1  2  1  0
  2  3  2  3
  3  4  1  0
  3  8  1  0
  4  5  1  0
  5  6  2  0
  6  7  1  0
  7  8  2  0
  8  9  1  0
  9 10  1  0
 10 11  1  0
 11 12  2  0
 11 13  1  0
 14 13  1  1
 14 15  1  0
 14 19  1  0
 15 16  1  0
 16 17  1  0
 17 18  1  0
 18 19  1  0
M  END
