
     RDKit          3D

 19 19  0  0  0  0  0  0  0  0999 V2000
   -4.9190   -3.7670    0.6050 C   0  0  0  0  0  0  0  0  0  0  0  0
   -3.5000   -3.3360    0.6580 C   0  0  0  0  0  0  0  0  0  0  0  0
   -3.1900   -2.0950    0.3090 C   0  0  0  0  0  0  0  0  0  0  0  0
   -1.8240   -1.5970    0.3340 C   0  0  0  0  0  0  0  0  0  0  0  0
   -1.5800   -0.3670   -0.0210 C   0  0  0  0  0  0  0  0  0  0  0  0
   -2.5580    0.6290   -0.4640 C   0  0  0  0  0  0  0  0  0  0  0  0
   -1.8450    1.9200   -0.2100 C   0  0  0  0  0  0  0  0  0  0  0  0
   -0.3650    1.5650   -0.1480 C   0  0  0  0  0  0  0  0  0  0  0  0
    0.6050    2.6170   -0.2720 N   0  0  0  0  0  0  0  0  0  0  0  0
    0.2280    3.9960   -0.3610 C   0  0  0  0  0  0  0  0  0  0  0  0
    1.2470    5.0680   -0.4980 C   0  0  0  0  0  0  0  0  0  0  0  0
   -0.9640    4.3110   -0.3260 O   0  0  0  0  0  0  0  0  0  0  0  0
   -0.2070    0.2750   -0.0390 C   0  0  0  0  0  0  0  0  0  0  0  0
    0.9600   -0.5800    0.1120 C   0  0  0  0  0  0  0  0  0  0  0  0
    2.2550   -0.1120    0.2430 N   0  0  0  0  0  0  0  0  0  0  0  0
    3.3020   -1.1360    0.3490 C   0  0  0  0  0  0  0  0  0  0  0  0
    2.9980   -2.3390    0.3190 O   0  0  0  0  0  0  0  0  0  0  0  0
    4.6490   -0.7560    0.4840 N   0  0  0  0  0  0  0  0  0  0  0  0
    5.6880   -1.7550    0.5890 C   0  0  0  0  0  0  0  0  0  0  0  0
  1  2  1  0
  2  3  2  3
  3  4  1  0
  4  5  2  3
  5  6  1  0
  5 13  1  0
  6  7  1  0
  7  8  1  0
  8  9  1  0
  8 13  2  0
  9 10  1  0
 10 11  1  0
 10 12  2  0
 13 14  1  0
 14 15  1  0
 15 16  1  0
 16 17  2  0
 16 18  1  0
 18 19  1  0
M  END
