
     RDKit          3D

 26 27  0  0  0  0  0  0  0  0999 V2000
   -2.0880    0.0400    4.1740 C   0  0  0  0  0  0  0  0  0  0  0  0
   -2.8740   -0.2880    2.9340 C   0  0  0  0  0  0  0  0  0  0  0  0
   -2.2400   -0.0370    1.7500 C   0  0  0  0  0  0  0  0  0  0  0  0
   -1.7140    0.1690    0.6280 C   0  0  0  0  0  0  0  0  0  0  0  0
   -0.4450    0.7090    0.4050 C   0  0  0  0  0  0  0  0  0  0  0  0
    0.0160    0.8740   -0.9620 C   0  0  0  0  0  0  0  0  0  0  0  0
   -0.8530    0.3280   -1.9950 N   0  0  0  0  0  0  0  0  0  0  0  0
   -0.8700   -1.0830   -2.1110 C   0  0  0  0  0  0  0  0  0  0  0  0
   -0.1490   -1.8710   -1.1990 C   0  0  0  0  0  0  0  0  0  0  0  0
   -0.2100   -3.2380   -1.3800 C   0  0  0  0  0  0  0  0  0  0  0  0
   -0.9350   -3.8140   -2.3990 C   0  0  0  0  0  0  0  0  0  0  0  0
   -1.6240   -3.0150   -3.2670 N   0  0  0  0  0  0  0  0  0  0  0  0
   -1.5920   -1.6740   -3.1250 C   0  0  0  0  0  0  0  0  0  0  0  0
   -2.2940   -0.8210   -4.0160 N   0  0  0  0  0  0  0  0  0  0  0  0
   -1.6400   -0.2770   -5.2130 C   0  0  0  0  0  0  0  0  0  0  0  0
   -3.6940   -0.4710   -3.7670 C   0  0  0  0  0  0  0  0  0  0  0  0
    0.3090    1.0440    1.5490 N   0  0  0  0  0  0  0  0  0  0  0  0
    0.8590    0.0440    2.4760 C   0  0  0  0  0  0  0  0  0  0  0  0
    2.3960    0.0420    2.3290 C   0  0  0  0  0  0  0  0  0  0  0  0
    2.7430    1.3080    1.7740 N   0  0  0  0  0  0  0  0  0  0  0  0
    4.2510    1.4870    1.0720 S   0  0  2  0  0  0  0  0  0  0  0  0
    5.6450    1.2510    2.1070 C   0  0  0  0  0  0  0  0  0  0  0  0
    4.3450    2.9030    0.5180 O   0  0  0  0  0  0  0  0  0  0  0  0
    4.3700    0.5740   -0.1320 O   0  0  0  0  0  0  0  0  0  0  0  0
    2.1030    2.4490    2.3190 C   0  0  0  0  0  0  0  0  0  0  0  0
    0.6390    2.4350    1.9020 C   0  0  0  0  0  0  0  0  0  0  0  0
  1  2  1  0
  2  3  2  3
  3  4  1  0
  4  5  2  3
  5  6  1  0
  5 17  1  0
  6  7  1  0
  7  8  1  0
  8  9  2  0
  8 13  1  0
  9 10  1  0
 10 11  2  0
 11 12  1  0
 12 13  2  0
 13 14  1  0
 14 15  1  0
 14 16  1  0
 17 18  1  0
 17 26  1  0
 18 19  1  0
 19 20  1  0
 20 21  1  0
 20 25  1  0
 21 22  1  1
 21 23  2  0
 21 24  2  0
 25 26  1  0
M  CHG  1  12   1
M  END
