
     RDKit          3D

 26 28  0  0  0  0  0  0  0  0999 V2000
    7.1970   -1.5680    0.2410 C   0  0  0  0  0  0  0  0  0  0  0  0
    5.7100   -1.4350    0.3040 C   0  0  0  0  0  0  0  0  0  0  0  0
    5.1200   -0.3330   -0.1010 C   0  0  0  0  0  0  0  0  0  0  0  0
    5.9100    0.7630   -0.6130 C   0  0  0  0  0  0  0  0  0  0  0  0
    5.3870    1.8580   -1.0210 N   0  0  0  0  0  0  0  0  0  0  0  0
    3.7200   -0.2130   -0.0400 N   0  0  0  0  0  0  0  0  0  0  0  0
    3.0970    0.3560    1.1060 C   0  0  0  0  0  0  0  0  0  0  0  0
    1.6170    0.4290    1.0870 C   0  0  0  0  0  0  0  0  0  0  0  0
    0.9400   -0.7410    0.4240 C   0  0  1  0  0  0  0  0  0  0  0  0
   -0.3110   -0.2010   -0.2100 C   0  0  0  0  0  0  0  0  0  0  0  0
   -1.1060   -1.1720   -0.8850 N   0  0  0  0  0  0  0  0  0  0  0  0
   -2.5090   -0.3870   -1.5500 S   0  0  1  0  0  0  0  0  0  0  0  0
   -2.1440    0.6260   -2.5890 O   0  0  0  0  0  0  0  0  0  0  0  0
   -3.2880   -1.4770   -2.2690 O   0  0  0  0  0  0  0  0  0  0  0  0
   -3.5060    0.3280   -0.3270 C   0  0  0  0  0  0  0  0  0  0  0  0
   -4.5470   -0.2930    0.3250 C   0  0  0  0  0  0  0  0  0  0  0  0
   -5.0370   -1.7040    0.1190 C   0  0  1  0  0  0  0  0  0  0  0  0
   -6.2090   -2.0840    0.9950 C   0  0  0  0  0  0  0  0  0  0  0  0
   -6.3830   -1.8110   -0.4730 C   0  0  0  0  0  0  0  0  0  0  0  0
   -5.0390    0.6160    1.1840 N   0  0  0  0  0  0  0  0  0  0  0  0
   -4.3710    1.7280    1.0930 N   0  0  0  0  0  0  0  0  0  0  0  0
   -4.6790    2.9060    1.9100 C   0  0  0  0  0  0  0  0  0  0  0  0
   -3.4130    1.6070    0.1760 C   0  0  0  0  0  0  0  0  0  0  0  0
   -2.4420    2.6830   -0.2040 C   0  0  0  0  0  0  0  0  0  0  0  0
    1.7750   -1.4720   -0.5400 C   0  0  0  0  0  0  0  0  0  0  0  0
    2.9060   -0.6650   -1.1350 C   0  0  0  0  0  0  0  0  0  0  0  0
  1  2  1  0
  2  3  2  3
  3  4  1  0
  3  6  1  0
  4  5  2  0
  6  7  1  0
  6 26  1  0
  7  8  1  0
  8  9  1  0
  9 10  1  6
  9 25  1  0
 10 11  1  0
 12 11  1  1
 12 13  2  0
 12 14  2  0
 12 15  1  0
 15 16  1  0
 15 23  2  0
 17 16  1  1
 16 20  2  0
 17 18  1  0
 17 19  1  0
 18 19  1  0
 20 21  1  0
 21 22  1  0
 21 23  1  0
 23 24  1  0
 25 26  1  0
M  CHG  1   5   1
M  END
