
     RDKit          3D

 19 20  0  0  0  0  0  0  0  0999 V2000
   -1.9580   -1.1340   -0.6580 O   0  0  0  0  0  0  0  0  0  0  0  0
   -1.6810    0.0710   -0.3210 C   0  0  0  0  0  0  0  0  0  0  0  0
   -2.7570    1.0590   -0.2240 C   0  0  0  0  0  0  0  0  0  0  0  0
   -4.0600    0.4120   -0.5670 C   0  0  2  0  0  0  0  0  0  0  0  0
   -5.1500    1.4910   -0.4440 C   0  0  0  0  0  0  0  0  0  0  0  0
   -6.3940    0.6450   -0.2150 C   0  0  0  0  0  0  0  0  0  0  0  0
   -5.9270   -0.4210    0.7160 C   0  0  0  0  0  0  0  0  0  0  0  0
   -4.4700   -0.6350    0.4350 C   0  0  0  0  0  0  0  0  0  0  0  0
   -0.3240    0.3790   -0.0590 N   0  0  0  0  0  0  0  0  0  0  0  0
    0.6450   -0.6110   -0.1680 N   0  0  0  0  0  0  0  0  0  0  0  0
    1.9660   -0.5070    0.3990 C   0  0  0  0  0  0  0  0  0  0  0  0
    2.2000    0.5470    1.0120 O   0  0  0  0  0  0  0  0  0  0  0  0
    2.9100   -1.5410    0.2550 N   0  0  0  0  0  0  0  0  0  0  0  0
    4.2440   -1.5820    0.7440 C   0  0  0  0  0  0  0  0  0  0  0  0
    5.2130   -0.6080    0.2150 C   0  0  0  0  0  0  0  0  0  0  0  0
    6.2900   -0.9930   -0.4780 C   0  0  0  0  0  0  0  0  0  0  0  0
    7.0550    0.2020   -0.8590 C   0  0  0  0  0  0  0  0  0  0  0  0
    6.3140    1.3370   -0.3000 C   0  0  0  0  0  0  0  0  0  0  0  0
    5.2410    0.8150    0.3190 C   0  0  0  0  0  0  0  0  0  0  0  0
  1  2  2  0
  2  3  1  0
  2  9  1  0
  4  3  1  1
  4  5  1  0
  4  8  1  0
  5  6  1  0
  6  7  1  0
  7  8  1  0
  9 10  1  0
 10 11  1  0
 11 12  2  0
 11 13  1  0
 13 14  1  0
 14 15  1  0
 15 16  2  0
 15 19  1  0
 16 17  1  0
 17 18  1  0
 18 19  2  0
M  END
