
     RDKit          3D

 29 31  0  0  0  0  0  0  0  0999 V2000
    6.8040   -2.0730    0.6810 C   0  0  0  0  0  0  0  0  0  0  0  0
    6.0180   -1.4330   -0.4810 C   0  0  0  0  0  0  0  0  0  0  0  0
    6.0610    0.0260   -0.3990 C   0  0  0  0  0  0  0  0  0  0  0  0
    5.0290    0.7840   -0.2840 C   0  0  0  0  0  0  0  0  0  0  0  0
    3.6640    0.3250   -0.2180 C   0  0  0  0  0  0  0  0  0  0  0  0
    2.6840    1.1840   -0.1010 C   0  0  0  0  0  0  0  0  0  0  0  0
    1.2800    0.8020   -0.0270 C   0  0  0  0  0  0  0  0  0  0  0  0
    0.3240    1.7800    0.0960 N   0  0  0  0  0  0  0  0  0  0  0  0
   -0.9710    1.4420    0.1640 C   0  0  0  0  0  0  0  0  0  0  0  0
   -1.9770    2.5580    0.2980 C   0  0  0  0  0  0  0  0  0  0  0  0
   -1.3230    3.7800    0.3260 O   0  0  0  0  0  0  0  0  0  0  0  0
   -1.3980    0.1330    0.1150 C   0  0  0  0  0  0  0  0  0  0  0  0
   -2.8020   -0.1550    0.2430 C   0  0  0  0  0  0  0  0  0  0  0  0
   -3.5640   -0.7790   -0.6380 C   0  0  0  0  0  0  0  0  0  0  0  0
   -3.2560   -1.3350   -1.9390 C   0  0  0  0  0  0  0  0  0  0  0  0
   -2.1350   -1.2900   -2.4990 O   0  0  0  0  0  0  0  0  0  0  0  0
   -4.4620   -1.9190   -2.4230 N   0  0  0  0  0  0  0  0  0  0  0  0
   -5.5030   -1.7490   -1.4830 C   0  0  0  0  0  0  0  0  0  0  0  0
   -6.7790   -1.9710   -1.2000 O   0  0  0  0  0  0  0  0  0  0  0  0
   -7.0970   -1.4930   -0.0530 N   0  0  0  0  0  0  0  0  0  0  0  0
   -6.0240   -0.9010    0.5280 C   0  0  0  0  0  0  0  0  0  0  0  0
   -5.9390   -0.2360    1.8430 C   0  0  0  0  0  0  0  0  0  0  0  0
   -5.8800    1.2760    1.7360 C   0  0  0  0  0  0  0  0  0  0  0  0
   -5.0000   -1.0580   -0.3770 C   0  0  0  0  0  0  0  0  0  0  0  0
   -0.4320   -0.8300   -0.0060 C   0  0  0  0  0  0  0  0  0  0  0  0
   -0.6910   -2.0590   -0.0550 O   0  0  0  0  0  0  0  0  0  0  0  0
    0.8900   -0.4780   -0.0760 N   0  0  0  0  0  0  0  0  0  0  0  0
    7.4270    0.6590   -0.4550 C   0  0  0  0  0  0  0  0  0  0  0  0
    8.2260    0.2310    0.5730 F   0  0  0  0  0  0  0  0  0  0  0  0
  1  2  1  0
  2  3  1  0
  3  4  2  3
  3 28  1  0
  4  5  1  0
  5  6  2  3
  6  7  1  0
  7  8  2  0
  7 27  1  0
  8  9  1  0
  9 10  1  0
  9 12  2  0
 10 11  1  0
 12 13  1  0
 12 25  1  0
 13 14  2  3
 14 15  1  0
 14 24  1  0
 15 16  2  0
 15 17  1  0
 17 18  1  0
 18 19  1  0
 18 24  2  0
 19 20  1  0
 20 21  2  0
 21 22  1  0
 21 24  1  0
 22 23  1  0
 25 26  2  0
 25 27  1  0
 28 29  1  0
M  END
