
     RDKit          3D

 31 34  0  0  0  0  0  0  0  0999 V2000
   -5.5660    1.9260   -0.6050 C   0  0  0  0  0  0  0  0  0  0  0  0
   -6.2930    1.6070    0.6680 C   0  0  0  0  0  0  0  0  0  0  0  0
   -5.4270    1.0500    1.6790 N   0  0  0  0  0  0  0  0  0  0  0  0
   -4.2760    0.4400    1.1560 C   0  0  0  0  0  0  0  0  0  0  0  0
   -3.0150    0.9380    0.9400 C   0  0  0  0  0  0  0  0  0  0  0  0
   -2.2160   -0.0650    0.3990 C   0  0  0  0  0  0  0  0  0  0  0  0
   -0.8410    0.0580    0.0460 N   0  0  0  0  0  0  0  0  0  0  0  0
   -0.0430   -0.9530   -0.5170 C   0  0  0  0  0  0  0  0  0  0  0  0
   -0.6230   -2.1230   -0.9620 C   0  0  0  0  0  0  0  0  0  0  0  0
    0.1020   -3.1500   -1.5790 C   0  0  0  0  0  0  0  0  0  0  0  0
    1.4360   -2.9560   -1.7340 C   0  0  0  0  0  0  0  0  0  0  0  0
    2.0460   -1.7740   -1.2880 C   0  0  0  0  0  0  0  0  0  0  0  0
    1.3410   -0.7590   -0.6800 C   0  0  0  0  0  0  0  0  0  0  0  0
    1.9610    0.4100   -0.1830 N   0  0  0  0  0  0  0  0  0  0  0  0
    3.2950    0.8290   -0.4130 C   0  0  0  0  0  0  0  0  0  0  0  0
    4.0620    0.1520   -1.1200 O   0  0  0  0  0  0  0  0  0  0  0  0
    3.7770    2.1220    0.2200 C   0  0  1  0  0  0  0  0  0  0  0  0
    3.7520    1.9060    1.7180 C   0  0  0  0  0  0  0  0  0  0  0  0
    4.6130    0.3350    2.0090 S   0  0  0  0  0  0  0  0  0  0  0  0
    5.9810    0.3000    0.8600 C   0  0  0  0  0  0  0  0  0  0  0  0
    6.9230   -0.7000    0.9100 C   0  0  0  0  0  0  0  0  0  0  0  0
    7.9610   -0.6880    0.0080 C   0  0  0  0  0  0  0  0  0  0  0  0
    8.0680    0.3100   -0.9420 C   0  0  0  0  0  0  0  0  0  0  0  0
    9.4170    0.2550   -2.0550 Cl  0  0  0  0  0  0  0  0  0  0  0  0
    7.1280    1.3180   -1.0010 C   0  0  0  0  0  0  0  0  0  0  0  0
    6.0720    1.3030   -0.0810 C   0  0  0  0  0  0  0  0  0  0  0  0
    5.1320    2.3250   -0.1510 O   0  0  0  0  0  0  0  0  0  0  0  0
   -2.9990   -1.1120    0.3070 N   0  0  0  0  0  0  0  0  0  0  0  0
   -4.2180   -0.8480    0.7440 N   0  0  0  0  0  0  0  0  0  0  0  0
   -5.2970   -1.8030    0.7660 C   0  0  0  0  0  0  0  0  0  0  0  0
   -6.0570   -1.7460   -0.5230 C   0  0  0  0  0  0  0  0  0  0  0  0
  1  2  1  0
  2  3  1  0
  3  4  1  0
  4  5  2  0
  4 29  1  0
  5  6  1  0
  6  7  1  0
  6 28  2  0
  7  8  1  0
  8  9  2  0
  8 13  1  0
  9 10  1  0
 10 11  2  0
 11 12  1  0
 12 13  2  0
 13 14  1  0
 14 15  1  0
 15 16  2  0
 17 15  1  6
 17 18  1  0
 17 27  1  0
 18 19  1  0
 19 20  1  0
 20 21  2  0
 20 26  1  0
 21 22  1  0
 22 23  2  0
 23 24  1  0
 23 25  1  0
 25 26  2  0
 26 27  1  0
 28 29  1  0
 29 30  1  0
 30 31  1  0
M  CHG  1   3   1
M  END
