
     RDKit          3D

 29 31  0  0  0  0  0  0  0  0999 V2000
   -6.3480    2.6800    1.5910 C   0  0  0  0  0  0  0  0  0  0  0  0
   -5.2840    3.0760    0.6220 C   0  0  0  0  0  0  0  0  0  0  0  0
   -4.1800    2.2730    0.5030 O   0  0  0  0  0  0  0  0  0  0  0  0
   -4.0660    0.9510    0.1070 C   0  0  0  0  0  0  0  0  0  0  0  0
   -5.1540    0.2140   -0.2340 C   0  0  0  0  0  0  0  0  0  0  0  0
   -5.0600   -1.0830   -0.6230 C   0  0  0  0  0  0  0  0  0  0  0  0
   -3.8420   -1.7120   -0.6870 C   0  0  0  0  0  0  0  0  0  0  0  0
   -3.7180   -2.9760   -1.0790 N   0  0  0  0  0  0  0  0  0  0  0  0
   -2.5090   -3.6020   -1.1500 C   0  0  0  0  0  0  0  0  0  0  0  0
   -2.4800   -4.7550   -1.5080 O   0  0  0  0  0  0  0  0  0  0  0  0
   -1.3620   -2.9320   -0.8210 C   0  0  0  0  0  0  0  0  0  0  0  0
   -1.4420   -1.5960   -0.4040 C   0  0  0  0  0  0  0  0  0  0  0  0
   -0.1860   -0.8990   -0.1510 C   0  0  0  0  0  0  0  0  0  0  0  0
    0.0760    0.0620    0.9290 C   0  0  0  0  0  0  0  0  0  0  0  0
    0.8990   -1.3060   -0.8530 C   0  0  0  0  0  0  0  0  0  0  0  0
    2.2350   -0.9260   -0.9170 C   0  0  0  0  0  0  0  0  0  0  0  0
    2.9890   -1.7660   -1.6610 O   0  0  0  0  0  0  0  0  0  0  0  0
    2.9690    0.1160   -0.3750 N   0  0  0  0  0  0  0  0  0  0  0  0
    4.4390    0.0550   -0.3270 C   0  0  0  0  0  0  0  0  0  0  0  0
    4.9620   -1.1370   -0.7270 N   0  0  0  0  0  0  0  0  0  0  0  0
    6.3040   -1.3750   -0.5900 C   0  0  0  0  0  0  0  0  0  0  0  0
    7.0620   -0.3770   -0.0640 C   0  0  0  0  0  0  0  0  0  0  0  0
    8.3910   -0.6190    0.0550 F   0  0  0  0  0  0  0  0  0  0  0  0
    6.5250    0.8440    0.3320 C   0  0  0  0  0  0  0  0  0  0  0  0
    7.4380    1.8130    1.0200 C   0  0  0  0  0  0  0  0  0  0  0  0
    7.7220    2.8640    0.1070 O   0  0  0  0  0  0  0  0  0  0  0  0
    5.2050    0.9870    0.1740 N   0  0  0  0  0  0  0  0  0  0  0  0
   -2.6840   -0.9590   -0.3330 C   0  0  0  0  0  0  0  0  0  0  0  0
   -2.8130    0.3500    0.0510 C   0  0  0  0  0  0  0  0  0  0  0  0
  1  2  1  0
  2  3  1  0
  3  4  1  0
  4  5  2  0
  4 29  1  0
  5  6  1  0
  6  7  2  0
  7  8  1  0
  7 28  1  0
  8  9  1  0
  9 10  2  0
  9 11  1  0
 11 12  2  0
 12 13  1  0
 12 28  1  0
 13 14  1  0
 13 15  2  3
 15 16  1  0
 16 17  2  0
 16 18  1  0
 18 19  1  0
 19 20  2  0
 19 27  1  0
 20 21  1  0
 21 22  2  0
 22 23  1  0
 22 24  1  0
 24 25  1  0
 24 27  2  0
 25 26  1  0
 28 29  2  0
M  END
