
     RDKit          3D

 31 34  0  0  0  0  0  0  0  0999 V2000
   -7.7040   -1.5690    1.3880 N   0  0  0  0  0  0  0  0  0  0  0  0
   -6.6240   -0.6750    0.9710 C   0  0  0  0  0  0  0  0  0  0  0  0
   -5.5630   -1.4300    0.1950 C   0  0  0  0  0  0  0  0  0  0  0  0
   -4.5460   -0.4740   -0.1720 N   0  0  2  0  0  0  0  0  0  0  0  0
   -5.0320    0.2320   -1.3520 C   0  0  0  0  0  0  0  0  0  0  0  0
   -4.4490    1.6280   -1.3090 C   0  0  0  0  0  0  0  0  0  0  0  0
   -2.6250    1.4260   -1.2530 S   0  0  0  0  0  0  0  0  0  0  0  0
   -2.2100   -0.0340   -0.2440 C   0  0  2  0  0  0  0  0  0  0  0  0
   -0.8740   -0.5600   -0.4850 C   0  0  0  0  0  0  0  0  0  0  0  0
   -0.7670   -1.7920   -1.0860 C   0  0  0  0  0  0  0  0  0  0  0  0
    0.4560   -2.3480   -1.3640 C   0  0  0  0  0  0  0  0  0  0  0  0
    1.6290   -1.6790   -1.0470 C   0  0  0  0  0  0  0  0  0  0  0  0
    1.5620   -0.4430   -0.4440 C   0  0  0  0  0  0  0  0  0  0  0  0
    2.6980    0.3400   -0.1630 N   0  0  0  0  0  0  0  0  0  0  0  0
    4.0210   -0.1880   -0.1120 C   0  0  0  0  0  0  0  0  0  0  0  0
    4.2150   -1.3750   -0.3080 O   0  0  0  0  0  0  0  0  0  0  0  0
    5.1460    0.6220    0.1620 N   0  0  0  0  0  0  0  0  0  0  0  0
    6.4960    0.2460    0.2480 C   0  0  0  0  0  0  0  0  0  0  0  0
    7.4710    1.2640    0.3320 C   0  0  0  0  0  0  0  0  0  0  0  0
    8.8140    1.0060    0.4290 C   0  0  0  0  0  0  0  0  0  0  0  0
    9.2670   -0.2950    0.4480 C   0  0  0  0  0  0  0  0  0  0  0  0
    8.3270   -1.2960    0.3670 C   0  0  0  0  0  0  0  0  0  0  0  0
    6.9500   -1.0360    0.2680 C   0  0  0  0  0  0  0  0  0  0  0  0
    0.2900    0.1150   -0.1610 C   0  0  0  0  0  0  0  0  0  0  0  0
    0.1470    1.3750    0.5220 C   0  0  0  0  0  0  0  0  0  0  0  0
    1.0890    2.1890    0.9740 N   0  0  0  0  0  0  0  0  0  0  0  0
    0.5790    3.2820    1.5670 C   0  0  0  0  0  0  0  0  0  0  0  0
    1.3930    4.6320    2.3110 Cl  0  0  0  0  0  0  0  0  0  0  0  0
   -0.7890    3.1000    1.4580 C   0  0  0  0  0  0  0  0  0  0  0  0
   -0.9740    1.9640    0.8360 O   0  0  0  0  0  0  0  0  0  0  0  0
   -3.2920   -1.1030   -0.5490 C   0  0  0  0  0  0  0  0  0  0  0  0
  1  2  1  0
  2  3  1  0
  4  3  1  6
  4  5  1  0
  4 31  1  0
  5  6  1  0
  6  7  1  0
  7  8  1  0
  8  9  1  6
  8 31  1  0
  9 10  2  0
  9 24  1  0
 10 11  1  0
 11 12  2  0
 12 13  1  0
 13 14  1  0
 13 24  2  0
 14 15  1  0
 15 16  2  0
 15 17  1  0
 17 18  1  0
 18 19  2  0
 18 23  1  0
 19 20  1  0
 20 21  2  0
 21 22  1  0
 22 23  2  0
 24 25  1  0
 25 26  2  0
 25 30  1  0
 26 27  1  0
 27 28  1  0
 27 29  2  0
 29 30  1  0
M  CHG  1   4   1
M  END
