
     RDKit          3D

 31 34  0  0  0  0  0  0  0  0999 V2000
   -5.4770   -0.9590    0.9580 C   0  0  0  0  0  0  0  0  0  0  0  0
   -6.0420    0.2460    0.2380 C   0  0  0  0  0  0  0  0  0  0  0  0
   -5.0660    0.7170   -0.6990 N   0  0  0  0  0  0  0  0  0  0  0  0
   -3.7220    0.6140   -0.1890 C   0  0  0  0  0  0  0  0  0  0  0  0
   -2.9010   -0.4900   -0.3660 C   0  0  0  0  0  0  0  0  0  0  0  0
   -1.7160   -0.2380    0.2450 C   0  0  0  0  0  0  0  0  0  0  0  0
   -0.5220   -0.9840    0.4360 N   0  0  0  0  0  0  0  0  0  0  0  0
   -0.2880   -2.3410    0.1320 C   0  0  0  0  0  0  0  0  0  0  0  0
   -1.2760   -3.2860    0.0520 C   0  0  0  0  0  0  0  0  0  0  0  0
   -0.9940   -4.6190   -0.1560 C   0  0  0  0  0  0  0  0  0  0  0  0
    0.2880   -5.0560   -0.2920 C   0  0  0  0  0  0  0  0  0  0  0  0
    1.3010   -4.0920   -0.2110 C   0  0  0  0  0  0  0  0  0  0  0  0
    1.0350   -2.7650   -0.0050 C   0  0  0  0  0  0  0  0  0  0  0  0
    2.0970   -1.8220    0.0090 N   0  0  0  0  0  0  0  0  0  0  0  0
    3.4760   -2.0730    0.0370 C   0  0  0  0  0  0  0  0  0  0  0  0
    3.9030   -3.2430    0.0570 O   0  0  0  0  0  0  0  0  0  0  0  0
    4.4970   -0.9740    0.0430 C   0  0  1  0  0  0  0  0  0  0  0  0
    5.5190   -1.1650   -1.0320 C   0  0  0  0  0  0  0  0  0  0  0  0
    5.9310    0.3620   -1.8860 S   0  0  0  0  0  0  0  0  0  0  0  0
    5.4020    1.7180   -0.8470 C   0  0  0  0  0  0  0  0  0  0  0  0
    6.0310    2.9370   -0.9350 C   0  0  0  0  0  0  0  0  0  0  0  0
    5.5950    3.9710   -0.1260 C   0  0  0  0  0  0  0  0  0  0  0  0
    4.5460    3.7520    0.7420 C   0  0  0  0  0  0  0  0  0  0  0  0
    3.9780    5.0650    1.7820 Cl  0  0  0  0  0  0  0  0  0  0  0  0
    3.9250    2.5240    0.8200 C   0  0  0  0  0  0  0  0  0  0  0  0
    4.3580    1.5040    0.0190 C   0  0  0  0  0  0  0  0  0  0  0  0
    3.8080    0.2360    0.0180 O   0  0  0  0  0  0  0  0  0  0  0  0
   -1.8580    1.0060    0.7690 N   0  0  0  0  0  0  0  0  0  0  0  0
   -3.0410    1.4990    0.5080 N   0  0  0  0  0  0  0  0  0  0  0  0
   -3.4790    2.8110    0.9420 C   0  0  0  0  0  0  0  0  0  0  0  0
   -3.1350    3.8480   -0.1060 C   0  0  0  0  0  0  0  0  0  0  0  0
  1  2  1  0
  2  3  1  0
  3  4  1  0
  4  5  2  0
  4 29  1  0
  5  6  1  0
  6  7  1  0
  6 28  2  0
  7  8  1  0
  8  9  2  0
  8 13  1  0
  9 10  1  0
 10 11  2  0
 11 12  1  0
 12 13  2  0
 13 14  1  0
 14 15  1  0
 15 16  2  0
 17 15  1  6
 17 18  1  0
 17 27  1  0
 18 19  1  0
 19 20  1  0
 20 21  2  0
 20 26  1  0
 21 22  1  0
 22 23  2  0
 23 24  1  0
 23 25  1  0
 25 26  2  0
 26 27  1  0
 28 29  1  0
 29 30  1  0
 30 31  1  0
M  CHG  1   3   1
M  END
