
     RDKit          3D

 28 30  0  0  0  0  0  0  0  0999 V2000
    8.4990   -2.3030    1.6200 C   0  0  0  0  0  0  0  0  0  0  0  0
    7.2420   -1.7270    1.3850 O   0  0  0  0  0  0  0  0  0  0  0  0
    7.3580   -0.8690    0.2970 C   0  0  0  0  0  0  0  0  0  0  0  0
    6.0350   -0.2620    0.0150 C   0  0  0  0  0  0  0  0  0  0  0  0
    4.8180   -0.8130    0.3190 C   0  0  0  0  0  0  0  0  0  0  0  0
    3.8680    0.1140   -0.1360 C   0  0  0  0  0  0  0  0  0  0  0  0
    2.4350   -0.0800   -0.0610 C   0  0  0  0  0  0  0  0  0  0  0  0
    1.9740   -0.8910    0.8460 O   0  0  0  0  0  0  0  0  0  0  0  0
    1.4520    0.5040   -0.8620 N   0  0  0  0  0  0  0  0  0  0  0  0
    0.0690    0.2600   -0.6870 N   0  0  0  0  0  0  0  0  0  0  0  0
   -0.7600    1.4010   -0.6020 C   0  0  0  0  0  0  0  0  0  0  0  0
   -0.2520    2.5350   -0.6940 O   0  0  0  0  0  0  0  0  0  0  0  0
   -2.1940    1.2760   -0.4120 C   0  0  0  0  0  0  0  0  0  0  0  0
   -2.9600    0.1490   -0.1520 C   0  0  0  0  0  0  0  0  0  0  0  0
   -4.2990    0.4960   -0.0510 C   0  0  0  0  0  0  0  0  0  0  0  0
   -5.4280   -0.3820    0.2190 C   0  0  0  0  0  0  0  0  0  0  0  0
   -5.2700   -1.7310    0.4360 C   0  0  0  0  0  0  0  0  0  0  0  0
   -6.3570   -2.5470    0.6940 C   0  0  0  0  0  0  0  0  0  0  0  0
   -7.6390   -2.0330    0.7420 C   0  0  0  0  0  0  0  0  0  0  0  0
   -8.6540   -2.8800    1.0030 F   0  0  0  0  0  0  0  0  0  0  0  0
   -7.8160   -0.6840    0.5260 C   0  0  0  0  0  0  0  0  0  0  0  0
   -6.7110    0.1100    0.2710 C   0  0  0  0  0  0  0  0  0  0  0  0
   -6.8890    1.5600    0.0430 C   0  0  0  0  0  0  0  0  0  0  0  0
   -4.3070    1.8320   -0.2560 N   0  0  0  0  0  0  0  0  0  0  0  0
   -3.0900    2.2940   -0.4660 N   0  0  0  0  0  0  0  0  0  0  0  0
    4.5470    1.1630   -0.6810 C   0  0  0  0  0  0  0  0  0  0  0  0
    4.0130    2.4280   -1.3100 C   0  0  0  0  0  0  0  0  0  0  0  0
    5.8410    0.8870   -0.5660 O   0  0  0  0  0  0  0  0  0  0  0  0
  1  2  1  0
  2  3  1  0
  3  4  1  0
  4  5  2  0
  4 28  1  0
  5  6  1  0
  6  7  1  0
  6 26  2  0
  7  8  2  0
  7  9  1  0
  9 10  1  0
 10 11  1  0
 11 12  2  0
 11 13  1  0
 13 14  2  0
 13 25  1  0
 14 15  1  0
 15 16  1  0
 15 24  2  0
 16 17  2  0
 16 22  1  0
 17 18  1  0
 18 19  2  0
 19 20  1  0
 19 21  1  0
 21 22  2  0
 22 23  1  0
 24 25  1  0
 26 27  1  0
 26 28  1  0
M  END
