
     RDKit          3D

 31 34  0  0  0  0  0  0  0  0999 V2000
   -4.7730   -1.4080   -1.5650 C   0  0  0  0  0  0  0  0  0  0  0  0
   -3.6560   -2.3350   -1.3540 C   0  0  0  0  0  0  0  0  0  0  0  0
   -2.5250   -2.1860   -0.7310 C   0  0  0  0  0  0  0  0  0  0  0  0
   -1.6300   -3.4510   -0.7590 C   0  0  0  0  0  0  0  0  0  0  0  0
   -1.3850   -3.8850    0.5970 N   0  0  0  0  0  0  0  0  0  0  0  0
   -1.9750   -1.0520   -0.0290 C   0  0  0  0  0  0  0  0  0  0  0  0
   -2.5790    0.1670    0.1250 C   0  0  0  0  0  0  0  0  0  0  0  0
   -1.9550    1.1930    0.8240 C   0  0  0  0  0  0  0  0  0  0  0  0
   -2.5700    2.5010    1.0070 C   0  0  0  0  0  0  0  0  0  0  0  0
   -3.7990    2.8200    0.5090 C   0  0  0  0  0  0  0  0  0  0  0  0
   -4.3860    4.0800    0.6870 C   0  0  0  0  0  0  0  0  0  0  0  0
   -3.7100    5.0420    1.3880 C   0  0  0  0  0  0  0  0  0  0  0  0
   -2.4670    4.7320    1.8970 C   0  0  0  0  0  0  0  0  0  0  0  0
   -1.9050    3.4900    1.7130 C   0  0  0  0  0  0  0  0  0  0  0  0
   -0.7340    0.9190    1.3360 N   0  0  0  0  0  0  0  0  0  0  0  0
   -0.1040   -0.2510    1.2130 C   0  0  0  0  0  0  0  0  0  0  0  0
    1.2210   -0.5220    1.7780 C   0  0  0  0  0  0  0  0  0  0  0  0
    2.3050   -0.2070    0.8910 N   0  0  0  0  0  0  0  0  0  0  0  0
    2.8820    1.0040    0.8700 C   0  0  0  0  0  0  0  0  0  0  0  0
    2.4310    1.8650    1.6680 O   0  0  0  0  0  0  0  0  0  0  0  0
    3.8870    1.3010    0.0500 N   0  0  0  0  0  0  0  0  0  0  0  0
    4.4140    0.3980   -0.8370 C   0  0  0  0  0  0  0  0  0  0  0  0
    3.8580   -0.8350   -0.8450 C   0  0  0  0  0  0  0  0  0  0  0  0
    2.8020   -1.1120    0.0320 C   0  0  0  0  0  0  0  0  0  0  0  0
    2.2650   -2.2530    0.0450 O   0  0  0  0  0  0  0  0  0  0  0  0
    4.2600   -1.9780   -1.7170 C   0  0  1  0  0  0  0  0  0  0  0  0
    2.8490   -2.9270   -2.2280 Cl  0  0  0  0  0  0  0  0  0  0  0  0
    5.1140   -1.2830   -3.1570 S   0  0  0  0  0  0  0  0  0  0  0  0
    6.2710   -0.0480   -2.4680 C   0  0  0  0  0  0  0  0  0  0  0  0
    5.5120    0.9210   -1.6490 C   0  0  0  0  0  0  0  0  0  0  0  0
   -0.7360   -1.2140    0.5330 N   0  0  0  0  0  0  0  0  0  0  0  0
  1  2  1  0
  2  3  2  3
  3  4  1  0
  3  6  1  0
  4  5  1  0
  6  7  2  0
  6 31  1  0
  7  8  1  0
  8  9  1  0
  8 15  2  0
  9 10  2  0
  9 14  1  0
 10 11  1  0
 11 12  2  0
 12 13  1  0
 13 14  2  0
 15 16  1  0
 16 17  1  0
 16 31  2  0
 17 18  1  0
 18 19  1  0
 18 24  1  0
 19 20  2  0
 19 21  1  0
 21 22  1  0
 22 23  2  0
 22 30  1  0
 23 24  1  0
 23 26  1  0
 24 25  2  0
 26 27  1  6
 26 28  1  0
 28 29  1  0
 29 30  1  0
M  CHG  1   5   1
M  END
