
     RDKit          3D

 25 27  0  0  0  0  0  0  0  0999 V2000
   -6.6690    0.5560    0.7480 C   0  0  0  0  0  0  0  0  0  0  0  0
   -5.1850    0.7870    0.3200 C   0  0  0  0  0  0  0  0  0  0  0  0
   -4.3850   -0.3640    0.7650 C   0  0  2  0  0  0  0  0  0  0  0  0
   -4.4840   -0.4960    2.2460 N   0  0  0  0  0  0  0  0  0  0  0  0
   -3.0050   -0.5030    0.3410 C   0  0  0  0  0  0  0  0  0  0  0  0
   -2.2800   -1.6930    0.3950 C   0  0  0  0  0  0  0  0  0  0  0  0
   -2.8210   -2.9990    0.8680 C   0  0  0  0  0  0  0  0  0  0  0  0
   -1.0540   -1.4790   -0.0320 N   0  0  0  0  0  0  0  0  0  0  0  0
   -0.8800   -0.1660   -0.3900 C   0  0  0  0  0  0  0  0  0  0  0  0
    0.3830    0.4280   -0.8560 C   0  0  0  0  0  0  0  0  0  0  0  0
    1.4530   -0.5450   -1.0200 N   0  0  0  0  0  0  0  0  0  0  0  0
    2.7490   -0.0070   -1.3700 C   0  0  0  0  0  0  0  0  0  0  0  0
    2.8750    1.2350   -1.5050 O   0  0  0  0  0  0  0  0  0  0  0  0
    3.8540   -0.9460   -1.5510 C   0  0  2  0  0  0  0  0  0  0  0  0
    3.9740   -1.9340   -0.4030 C   0  0  0  0  0  0  0  0  0  0  0  0
    4.1130   -1.1960    0.9160 C   0  0  0  0  0  0  0  0  0  0  0  0
    5.1000   -0.0870    0.7720 C   0  0  0  0  0  0  0  0  0  0  0  0
    5.6630    0.6490    1.7250 N   0  0  0  0  0  0  0  0  0  0  0  0
    6.4880    1.5370    1.1770 N   0  0  0  0  0  0  0  0  0  0  0  0
    6.4590    1.3760   -0.1470 C   0  0  0  0  0  0  0  0  0  0  0  0
    5.5780    0.3420   -0.4280 C   0  0  0  0  0  0  0  0  0  0  0  0
    5.1840   -0.2340   -1.7210 C   0  0  0  0  0  0  0  0  0  0  0  0
   -2.0890    0.4420   -0.1600 C   0  0  0  0  0  0  0  0  0  0  0  0
   -2.4560    1.8340   -0.3370 C   0  0  0  0  0  0  0  0  0  0  0  0
   -1.4660    2.6980   -0.9080 N   0  0  0  0  0  0  0  0  0  0  0  0
  1  2  1  0
  2  3  1  0
  3  4  1  1
  3  5  1  0
  5  6  2  0
  5 23  1  0
  6  7  1  0
  6  8  1  0
  8  9  1  0
  9 10  1  0
  9 23  2  0
 10 11  1  0
 11 12  1  0
 12 13  2  0
 14 12  1  1
 14 15  1  0
 14 22  1  0
 15 16  1  0
 16 17  1  0
 17 18  2  0
 17 21  1  0
 18 19  1  0
 19 20  1  0
 20 21  2  0
 21 22  1  0
 23 24  1  0
 24 25  1  0
M  CHG  1  25   1
M  END
