
     RDKit          3D

 12 13  0  0  0  0  0  0  0  0999 V2000
   -2.9280   -0.7340    0.0150 C   0  0  0  0  0  0  0  0  0  0  0  0
   -1.7950    0.2270   -0.0690 C   0  0  0  0  0  0  0  0  0  0  0  0
   -1.8330    1.5970   -0.2260 C   0  0  0  0  0  0  0  0  0  0  0  0
   -0.5790    2.0800   -0.2530 N   0  0  0  0  0  0  0  0  0  0  0  0
    0.3240    1.0770   -0.1170 C   0  0  0  0  0  0  0  0  0  0  0  0
    1.6740    1.0490   -0.0820 N   0  0  0  0  0  0  0  0  0  0  0  0
    2.3290   -0.1170    0.0660 C   0  0  0  0  0  0  0  0  0  0  0  0
    3.7610   -0.1710    0.1060 N   0  0  0  0  0  0  0  0  0  0  0  0
    1.5950   -1.2480    0.1790 N   0  0  0  0  0  0  0  0  0  0  0  0
    0.2510   -1.2550    0.1480 C   0  0  0  0  0  0  0  0  0  0  0  0
   -0.4390   -2.3000    0.2520 O   0  0  0  0  0  0  0  0  0  0  0  0
   -0.4400   -0.0660   -0.0040 C   0  0  0  0  0  0  0  0  0  0  0  0
  1  2  1  0
  2  3  2  0
  2 12  1  0
  3  4  1  0
  4  5  1  0
  5  6  1  0
  5 12  2  0
  6  7  2  0
  7  8  1  0
  7  9  1  0
  9 10  1  0
 10 11  2  0
 10 12  1  0
M  END
