
     RDKit          3D

 25 27  0  0  0  0  0  0  0  0999 V2000
    4.7780   -1.6610    2.3260 C   0  0  0  0  0  0  0  0  0  0  0  0
    4.0280   -0.4280    2.0580 N   0  0  0  0  0  0  0  0  0  0  0  0
    3.2670   -0.2600    0.8890 C   0  0  0  0  0  0  0  0  0  0  0  0
    3.2910   -1.2680    0.0920 O   0  0  0  0  0  0  0  0  0  0  0  0
    2.4920    0.9100    0.5320 C   0  0  0  0  0  0  0  0  0  0  0  0
    1.8020    1.0430   -0.6540 N   0  0  0  0  0  0  0  0  0  0  0  0
    1.1780    2.2110   -0.7050 C   0  0  0  0  0  0  0  0  0  0  0  0
    0.3560    2.7470   -1.7440 N   0  0  0  0  0  0  0  0  0  0  0  0
    0.1050    1.9960   -2.9550 C   0  0  0  0  0  0  0  0  0  0  0  0
   -0.5550    0.7020   -2.6780 C   0  0  0  0  0  0  0  0  0  0  0  0
   -0.6160   -0.2320   -3.6860 C   0  0  0  0  0  0  0  0  0  0  0  0
   -1.2170   -1.4550   -3.4910 C   0  0  0  0  0  0  0  0  0  0  0  0
   -1.2850   -2.4310   -4.5260 N   0  0  0  0  0  0  0  0  0  0  0  0
   -1.7630   -1.7340   -2.2600 C   0  0  0  0  0  0  0  0  0  0  0  0
   -1.7240   -0.8270   -1.2230 C   0  0  0  0  0  0  0  0  0  0  0  0
   -2.3410   -1.2280    0.0460 C   0  0  2  0  0  0  0  0  0  0  0  0
   -3.5700   -0.3290    0.2360 C   0  0  0  0  0  0  0  0  0  0  0  0
   -3.1850    0.7440    1.0980 N   0  0  0  0  0  0  0  0  0  0  0  0
   -1.9860    0.3620    1.7850 C   0  0  0  0  0  0  0  0  0  0  0  0
   -1.5720   -0.9790    1.2790 C   0  0  1  0  0  0  0  0  0  0  0  0
   -2.0250   -2.0100    2.3240 C   0  0  0  0  0  0  0  0  0  0  0  0
   -1.1190    0.3700   -1.4620 C   0  0  0  0  0  0  0  0  0  0  0  0
    1.4550    2.8360    0.4340 N   0  0  0  0  0  0  0  0  0  0  0  0
    2.2600    2.0580    1.2080 C   0  0  0  0  0  0  0  0  0  0  0  0
    2.7500    2.4590    2.5490 C   0  0  0  0  0  0  0  0  0  0  0  0
  1  2  1  0
  2  3  1  0
  3  4  2  0
  3  5  1  0
  5  6  1  0
  5 24  2  0
  6  7  1  0
  7  8  1  0
  7 23  2  0
  8  9  1  0
  9 10  1  0
 10 11  2  0
 10 22  1  0
 11 12  1  0
 12 13  1  0
 12 14  2  0
 14 15  1  0
 16 15  1  6
 15 22  2  0
 16 17  1  0
 16 20  1  0
 17 18  1  0
 18 19  1  0
 19 20  1  0
 20 21  1  1
 23 24  1  0
 24 25  1  0
M  CHG  1  18   1
M  END
