
     RDKit          3D

 25 27  0  0  0  0  0  0  0  0999 V2000
    3.6930    2.7450    1.1700 C   0  0  0  0  0  0  0  0  0  0  0  0
    4.4800    1.7060    1.0170 C   0  0  0  0  0  0  0  0  0  0  0  0
    3.9830    0.3930    0.5880 C   0  0  0  0  0  0  0  0  0  0  0  0
    4.7240   -0.6830    0.4180 C   0  0  0  0  0  0  0  0  0  0  0  0
    3.9410   -1.7910   -0.0030 N   0  0  0  0  0  0  0  0  0  0  0  0
    2.7640   -1.1750   -0.6320 C   0  0  0  0  0  0  0  0  0  0  0  0
    2.5840    0.0180    0.2760 C   0  0  1  0  0  0  0  0  0  0  0  0
    1.8930   -0.4560    1.5420 C   0  0  0  0  0  0  0  0  0  0  0  0
    0.5360   -0.8240    1.2590 N   0  0  0  0  0  0  0  0  0  0  0  0
   -0.4620    0.0530    0.7650 C   0  0  0  0  0  0  0  0  0  0  0  0
   -0.1350    1.3480    0.5420 N   0  0  0  0  0  0  0  0  0  0  0  0
   -1.0010    2.2450    0.0850 C   0  0  0  0  0  0  0  0  0  0  0  0
   -0.6460    3.5940   -0.1430 N   0  0  0  0  0  0  0  0  0  0  0  0
   -1.6080    4.5290   -0.6370 C   0  0  0  0  0  0  0  0  0  0  0  0
   -1.1740    5.8650   -0.8400 N   0  0  0  0  0  0  0  0  0  0  0  0
   -2.7940    4.1820   -0.8810 O   0  0  0  0  0  0  0  0  0  0  0  0
   -2.2610    1.8480   -0.1690 N   0  0  0  0  0  0  0  0  0  0  0  0
   -2.6520    0.5800    0.0300 C   0  0  0  0  0  0  0  0  0  0  0  0
   -1.7480   -0.3470    0.5050 C   0  0  0  0  0  0  0  0  0  0  0  0
   -2.4110   -1.6640    0.6410 C   0  0  2  0  0  0  0  0  0  0  0  0
   -2.1540   -2.5640   -0.4860 C   0  0  0  0  0  0  0  0  0  0  0  0
   -2.9260   -3.5400   -0.8910 C   0  0  0  0  0  0  0  0  0  0  0  0
   -2.6030   -4.4060   -2.0350 C   0  0  0  0  0  0  0  0  0  0  0  0
   -3.8560   -1.2530    0.7650 C   0  0  0  0  0  0  0  0  0  0  0  0
   -3.9500   -0.0930   -0.1680 C   0  0  0  0  0  0  0  0  0  0  0  0
  1  2  2  0
  2  3  1  0
  3  4  2  0
  3  7  1  0
  4  5  1  0
  5  6  1  0
  6  7  1  0
  7  8  1  1
  8  9  1  0
  9 10  1  0
 10 11  2  0
 10 19  1  0
 11 12  1  0
 12 13  1  0
 12 17  2  0
 13 14  1  0
 14 15  1  0
 14 16  2  0
 17 18  1  0
 18 19  2  0
 18 25  1  0
 19 20  1  0
 20 21  1  6
 20 24  1  0
 21 22  2  3
 22 23  1  0
 24 25  1  0
M  CHG  1   5   1
M  END
