
     RDKit          3D

 25 27  0  0  0  0  0  0  0  0999 V2000
    4.9740    0.1050   -0.8260 C   0  0  0  0  0  0  0  0  0  0  0  0
    4.1200    0.6910    0.2640 C   0  0  0  0  0  0  0  0  0  0  0  0
    2.7860    1.1950   -0.2760 C   0  0  2  0  0  0  0  0  0  0  0  0
    3.1020    2.2810   -1.3270 C   0  0  0  0  0  0  0  0  0  0  0  0
    2.1280    1.9230    0.8620 C   0  0  0  0  0  0  0  0  0  0  0  0
    2.0630    0.2270   -0.9190 O   0  0  0  0  0  0  0  0  0  0  0  0
    1.5460   -0.9580   -0.5520 C   0  0  0  0  0  0  0  0  0  0  0  0
    2.3730   -2.0440   -0.6470 N   0  0  0  0  0  0  0  0  0  0  0  0
    1.9920   -3.2720   -0.3220 C   0  0  0  0  0  0  0  0  0  0  0  0
    2.8300   -4.4170   -0.4110 N   0  0  0  0  0  0  0  0  0  0  0  0
    0.7400   -3.4320    0.1160 N   0  0  0  0  0  0  0  0  0  0  0  0
   -0.1420   -2.4270    0.2420 C   0  0  0  0  0  0  0  0  0  0  0  0
    0.2770   -1.1590   -0.1020 C   0  0  0  0  0  0  0  0  0  0  0  0
   -0.7290   -0.0620    0.0170 C   0  0  2  0  0  0  0  0  0  0  0  0
   -0.8310    0.3220    1.3760 N   0  0  0  0  0  0  0  0  0  0  0  0
   -2.0140   -0.5500   -0.6040 C   0  0  2  0  0  0  0  0  0  0  0  0
   -3.0660    0.4530   -0.7530 C   0  0  0  0  0  0  0  0  0  0  0  0
   -3.3840    0.9990   -1.9990 C   0  0  0  0  0  0  0  0  0  0  0  0
   -4.3680    1.9390   -2.1810 C   0  0  0  0  0  0  0  0  0  0  0  0
   -5.0460    2.3410   -1.0960 N   0  0  0  0  0  0  0  0  0  0  0  0
   -4.8070    1.8710    0.1380 C   0  0  0  0  0  0  0  0  0  0  0  0
   -5.5720    2.3420    1.2710 N   0  0  0  0  0  0  0  0  0  0  0  0
   -3.8170    0.9300    0.2970 C   0  0  0  0  0  0  0  0  0  0  0  0
   -2.5380   -1.7960    0.0260 C   0  0  0  0  0  0  0  0  0  0  0  0
   -1.5160   -2.6240    0.7190 C   0  0  0  0  0  0  0  0  0  0  0  0
  1  2  1  0
  2  3  1  0
  3  4  1  6
  3  5  1  0
  3  6  1  0
  6  7  1  0
  7  8  2  0
  7 13  1  0
  8  9  1  0
  9 10  1  0
  9 11  2  0
 11 12  1  0
 12 13  2  0
 12 25  1  0
 13 14  1  0
 14 15  1  1
 14 16  1  0
 16 17  1  1
 16 24  1  0
 17 18  2  0
 17 23  1  0
 18 19  1  0
 19 20  2  0
 20 21  1  0
 21 22  1  0
 21 23  2  0
 24 25  1  0
M  CHG  1  15   1
M  END
