
     RDKit          3D

 18 20  0  0  0  0  0  0  0  0999 V2000
   -2.9640   -2.2950    0.2070 C   0  0  0  0  0  0  0  0  0  0  0  0
   -1.7260   -1.4610    0.1210 C   0  0  0  0  0  0  0  0  0  0  0  0
   -0.5190   -2.0290    0.0330 N   0  0  0  0  0  0  0  0  0  0  0  0
    0.5870   -1.2950   -0.0440 C   0  0  0  0  0  0  0  0  0  0  0  0
    1.7990   -1.8770   -0.1330 N   0  0  0  0  0  0  0  0  0  0  0  0
    2.9460   -1.2000   -0.2120 C   0  0  0  0  0  0  0  0  0  0  0  0
    4.2110   -1.9110   -0.3060 N   0  0  0  0  0  0  0  0  0  0  0  0
    2.9050    0.1480   -0.2030 C   0  0  0  0  0  0  0  0  0  0  0  0
    1.6730    0.8400   -0.1120 C   0  0  0  0  0  0  0  0  0  0  0  0
    1.7580    2.2320   -0.1120 N   0  0  0  0  0  0  0  0  0  0  0  0
    0.5210    0.1180   -0.0330 C   0  0  0  0  0  0  0  0  0  0  0  0
   -0.7060    0.7380    0.0580 C   0  0  0  0  0  0  0  0  0  0  0  0
   -0.8440    2.1020    0.0740 C   0  0  0  0  0  0  0  0  0  0  0  0
   -2.1300    2.6180    0.1680 C   0  0  0  0  0  0  0  0  0  0  0  0
   -2.3310    3.9550    0.1890 F   0  0  0  0  0  0  0  0  0  0  0  0
   -3.2020    1.8110    0.2420 N   0  0  0  0  0  0  0  0  0  0  0  0
   -3.0780    0.4720    0.2270 C   0  0  0  0  0  0  0  0  0  0  0  0
   -1.8350   -0.0820    0.1350 C   0  0  0  0  0  0  0  0  0  0  0  0
  1  2  1  0
  2  3  2  0
  2 18  1  0
  3  4  1  0
  4  5  2  0
  4 11  1  0
  5  6  1  0
  6  7  1  0
  6  8  2  0
  8  9  1  0
  9 10  1  0
  9 11  2  0
 11 12  1  0
 12 13  2  0
 12 18  1  0
 13 14  1  0
 14 15  1  0
 14 16  2  0
 16 17  1  0
 17 18  2  0
M  END
