
     RDKit          3D

 18 20  0  0  0  0  0  0  0  0999 V2000
    1.3610   -0.8500   -2.0510 N   0  0  0  0  0  0  0  0  0  0  0  0
    2.3370   -0.4000   -1.1150 C   0  0  0  0  0  0  0  0  0  0  0  0
    3.6770   -0.5370   -1.4540 C   0  0  0  0  0  0  0  0  0  0  0  0
    4.6490   -0.1200   -0.5880 C   0  0  0  0  0  0  0  0  0  0  0  0
    5.9680   -0.2490   -0.9090 F   0  0  0  0  0  0  0  0  0  0  0  0
    4.2980    0.4430    0.6320 C   0  0  0  0  0  0  0  0  0  0  0  0
    2.9770    0.5780    0.9660 C   0  0  0  0  0  0  0  0  0  0  0  0
    1.9650    0.1520    0.0840 C   0  0  0  0  0  0  0  0  0  0  0  0
    0.5770    0.3230    0.4970 C   0  0  0  0  0  0  0  0  0  0  0  0
   -0.5690   -0.0000   -0.1610 C   0  0  0  0  0  0  0  0  0  0  0  0
   -1.6720    0.3530    0.6360 C   0  0  0  0  0  0  0  0  0  0  0  0
   -3.0790    0.1740    0.2960 C   0  0  0  0  0  0  0  0  0  0  0  0
   -3.5760   -0.3750   -0.8660 C   0  0  0  0  0  0  0  0  0  0  0  0
   -4.9740   -0.3680   -0.8060 C   0  0  0  0  0  0  0  0  0  0  0  0
   -5.2650    0.1810    0.3840 N   0  0  0  0  0  0  0  0  0  0  0  0
   -4.1480    0.5020    1.0370 N   0  0  0  0  0  0  0  0  0  0  0  0
   -1.1410    0.8800    1.7500 N   0  0  0  0  0  0  0  0  0  0  0  0
    0.1750    0.8650    1.6750 N   0  0  0  0  0  0  0  0  0  0  0  0
  1  2  1  0
  2  3  2  0
  2  8  1  0
  3  4  1  0
  4  5  1  0
  4  6  2  0
  6  7  1  0
  7  8  2  0
  8  9  1  0
  9 10  1  0
  9 18  2  0
 10 11  2  0
 11 12  1  0
 11 17  1  0
 12 13  1  0
 12 16  2  0
 13 14  2  0
 14 15  1  0
 15 16  1  0
 17 18  1  0
M  END
