
     RDKit          3D

 18 19  0  0  0  0  0  0  0  0999 V2000
   -1.3270   -2.5800    0.6060 C   0  0  0  0  0  0  0  0  0  0  0  0
   -0.6750   -1.4700    0.3490 C   0  0  0  0  0  0  0  0  0  0  0  0
    0.6760   -1.5400    0.4680 N   0  0  0  0  0  0  0  0  0  0  0  0
    1.5350   -0.5270    0.2630 C   0  0  0  0  0  0  0  0  0  0  0  0
    2.9060   -0.8020    0.4080 N   0  0  0  0  0  0  0  0  0  0  0  0
    3.2450   -2.1970    0.8340 C   0  0  0  0  0  0  0  0  0  0  0  0
    0.9830    0.6870   -0.0980 C   0  0  0  0  0  0  0  0  0  0  0  0
    1.8380    1.7290   -0.3010 C   0  0  0  0  0  0  0  0  0  0  0  0
    3.2410    1.6860   -0.1660 N   0  0  0  0  0  0  0  0  0  0  0  0
    1.3110    2.9430   -0.6530 N   0  0  0  0  0  0  0  0  0  0  0  0
    0.0350    3.1040   -0.7920 C   0  0  0  0  0  0  0  0  0  0  0  0
   -0.9030    2.0580   -0.5930 C   0  0  0  0  0  0  0  0  0  0  0  0
   -2.2390    2.4210   -0.7810 N   0  0  0  0  0  0  0  0  0  0  0  0
   -0.4280    0.8370   -0.2430 C   0  0  0  0  0  0  0  0  0  0  0  0
   -1.2620   -0.2830   -0.0100 C   0  0  0  0  0  0  0  0  0  0  0  0
   -2.5480   -0.1760   -0.1550 C   0  0  0  0  0  0  0  0  0  0  0  0
   -3.6340   -1.1670   -0.0030 C   0  0  0  0  0  0  0  0  0  0  0  0
   -4.8450   -0.4970   -0.4120 F   0  0  0  0  0  0  0  0  0  0  0  0
  1  2  2  0
  2  3  1  0
  2 15  1  0
  3  4  2  0
  4  5  1  0
  4  7  1  0
  5  6  1  0
  7  8  2  0
  7 14  1  0
  8  9  1  0
  8 10  1  0
 10 11  2  0
 11 12  1  0
 12 13  1  0
 12 14  2  0
 14 15  1  0
 15 16  2  3
 16 17  1  0
 17 18  1  0
M  END
