
     RDKit          3D

 18 20  0  0  0  0  0  0  0  0999 V2000
    4.7350   -1.6170   -0.9580 N   0  0  0  0  0  0  0  0  0  0  0  0
    3.8790   -0.8500   -0.3730 C   0  0  0  0  0  0  0  0  0  0  0  0
    4.1070    0.2190    0.5500 N   0  0  0  0  0  0  0  0  0  0  0  0
    2.9900    0.7480    0.9070 C   0  0  0  0  0  0  0  0  0  0  0  0
    1.8780    0.0850    0.2550 C   0  0  0  0  0  0  0  0  0  0  0  0
    2.4090   -0.8940   -0.5310 C   0  0  0  0  0  0  0  0  0  0  0  0
    1.5470   -1.6780   -1.2670 C   0  0  0  0  0  0  0  0  0  0  0  0
    0.2200   -1.5030   -1.2260 N   0  0  0  0  0  0  0  0  0  0  0  0
   -0.3500   -0.5260   -0.4430 C   0  0  0  0  0  0  0  0  0  0  0  0
   -1.7920   -0.3700   -0.4330 C   0  0  0  0  0  0  0  0  0  0  0  0
   -2.5850   -0.6440    0.6630 C   0  0  0  0  0  0  0  0  0  0  0  0
   -3.8560   -0.4550    0.2760 N   0  0  0  0  0  0  0  0  0  0  0  0
   -3.9040   -0.0750   -1.0090 C   0  0  0  0  0  0  0  0  0  0  0  0
   -2.6140   -0.0150   -1.4790 C   0  0  0  0  0  0  0  0  0  0  0  0
   -2.2350    0.3320   -2.7420 F   0  0  0  0  0  0  0  0  0  0  0  0
    0.4700    0.2590    0.2870 C   0  0  0  0  0  0  0  0  0  0  0  0
    0.0280    1.3650    1.1290 C   0  0  0  0  0  0  0  0  0  0  0  0
   -1.3610    1.6080    1.1740 N   0  0  0  0  0  0  0  0  0  0  0  0
  1  2  2  0
  2  3  1  0
  2  6  1  0
  3  4  2  0
  4  5  1  0
  5  6  2  0
  5 16  1  0
  6  7  1  0
  7  8  2  0
  8  9  1  0
  9 10  1  0
  9 16  2  0
 10 11  2  0
 10 14  1  0
 11 12  1  0
 12 13  1  0
 13 14  2  0
 14 15  1  0
 16 17  1  0
 17 18  1  0
M  END
