
     RDKit          3D

 22 22  0  0  0  0  0  0  0  0999 V2000
    2.8860   -2.0170    0.8190 O   0  0  0  0  0  0  0  0  0  0  0  0
    3.4450   -0.7680    1.0390 C   0  0  0  0  0  0  0  0  0  0  0  0
    3.2630    0.0850   -0.1970 C   0  0  1  0  0  0  0  0  0  0  0  0
    3.8470    1.3200    0.0830 O   0  0  0  0  0  0  0  0  0  0  0  0
    3.8840   -0.5750   -1.2550 O   0  0  0  0  0  0  0  0  0  0  0  0
    1.7910    0.2920   -0.4830 C   0  0  2  0  0  0  0  0  0  0  0  0
    1.0640   -0.9930   -0.7880 C   0  0  0  0  0  0  0  0  0  0  0  0
    0.3620   -1.4920    0.3080 O   0  0  0  0  0  0  0  0  0  0  0  0
   -0.7210   -2.2860   -0.1080 C   0  0  0  0  0  0  0  0  0  0  0  0
   -1.9710   -1.9520    0.6840 C   0  0  1  0  0  0  0  0  0  0  0  0
   -2.5120   -3.0820    1.2650 O   0  0  0  0  0  0  0  0  0  0  0  0
   -1.5710   -1.0050    1.8040 C   0  0  0  0  0  0  0  0  0  0  0  0
   -0.6280   -1.6030    2.6440 O   0  0  0  0  0  0  0  0  0  0  0  0
   -2.9750   -1.2200   -0.1890 C   0  0  0  0  0  0  0  0  0  0  0  0
   -3.1180    0.1040    0.1860 O   0  0  0  0  0  0  0  0  0  0  0  0
   -2.9730    0.9690   -0.9110 C   0  0  0  0  0  0  0  0  0  0  0  0
   -2.1760    2.1980   -0.5340 C   0  0  2  0  0  0  0  0  0  0  0  0
   -2.9370    3.3390   -0.6350 O   0  0  0  0  0  0  0  0  0  0  0  0
   -1.0190    2.2290   -1.3080 O   0  0  0  0  0  0  0  0  0  0  0  0
    0.0470    2.6770   -0.5270 C   0  0  0  0  0  0  0  0  0  0  0  0
    1.3740    2.4510   -1.1930 C   0  0  0  0  0  0  0  0  0  0  0  0
    1.5900    1.1390   -1.5670 O   0  0  0  0  0  0  0  0  0  0  0  0
  1  2  1  0
  2  3  1  0
  3  4  1  1
  3  5  1  0
  3  6  1  0
  6  7  1  6
  6 22  1  0
  7  8  1  0
  8  9  1  0
  9 10  1  0
 10 11  1  1
 10 12  1  0
 10 14  1  0
 12 13  1  0
 14 15  1  0
 15 16  1  0
 16 17  1  0
 17 18  1  6
 17 19  1  0
 19 20  1  0
 20 21  1  0
 21 22  1  0
M  END
