
     RDKit          3D

 22 22  0  0  0  0  0  0  0  0999 V2000
   -0.5410    3.2580    2.5550 C   0  0  0  0  0  0  0  0  0  0  0  0
   -0.6220    2.3060    1.5080 O   0  0  0  0  0  0  0  0  0  0  0  0
   -0.2100    0.9890    1.6520 C   0  0  0  0  0  0  0  0  0  0  0  0
    0.2480    0.7220    2.8190 O   0  0  0  0  0  0  0  0  0  0  0  0
   -0.2770   -0.0400    0.5830 C   0  0  2  0  0  0  0  0  0  0  0  0
   -1.7030   -0.3930    0.2620 C   0  0  1  0  0  0  0  0  0  0  0  0
   -2.1880   -0.8890    1.5150 O   0  0  0  0  0  0  0  0  0  0  0  0
   -2.6020    0.7580   -0.0390 C   0  0  0  0  0  0  0  0  0  0  0  0
   -3.9690    0.3910   -0.1020 O   0  0  0  0  0  0  0  0  0  0  0  0
   -1.8270   -1.3840   -0.6380 O   0  0  0  0  0  0  0  0  0  0  0  0
   -2.9980   -1.9450   -0.9590 C   0  0  0  0  0  0  0  0  0  0  0  0
    0.4100   -1.3080    1.0410 C   0  0  2  0  0  0  0  0  0  0  0  0
    0.7430   -1.3160    2.3730 O   0  0  0  0  0  0  0  0  0  0  0  0
    1.5820   -0.9860    0.1000 C   0  0  2  0  0  0  0  0  0  0  0  0
    1.9310   -2.0990   -0.6240 O   0  0  0  0  0  0  0  0  0  0  0  0
    2.6650   -0.5840    0.8750 O   0  0  0  0  0  0  0  0  0  0  0  0
    3.7840   -0.2640    0.1540 C   0  0  0  0  0  0  0  0  0  0  0  0
    0.7390    0.0770   -0.4770 C   0  0  2  0  0  0  0  0  0  0  0  0
    1.4210    1.3160   -0.2970 O   0  0  0  0  0  0  0  0  0  0  0  0
    0.3310    0.0050   -1.9010 C   0  0  0  0  0  0  0  0  0  0  0  0
    1.4630    0.1670   -2.8870 C   0  0  0  0  0  0  0  0  0  0  0  0
    2.4340   -0.8030   -2.7510 O   0  0  0  0  0  0  0  0  0  0  0  0
  1  2  1  0
  2  3  1  0
  3  4  2  0
  5  3  1  1
  5  6  1  0
  5 12  1  0
  5 18  1  0
  6  7  1  1
  6  8  1  0
  6 10  1  0
  8  9  1  0
 10 11  1  0
 12 13  1  1
 12 14  1  0
 14 15  1  6
 14 16  1  0
 14 18  1  0
 16 17  1  0
 18 19  1  6
 18 20  1  0
 20 21  1  0
 21 22  1  0
M  END
