
     RDKit          3D

 22 23  0  0  0  0  0  0  0  0999 V2000
    3.4860   -1.3330    2.2160 O   0  0  0  0  0  0  0  0  0  0  0  0
    3.5250   -0.4540    1.3270 C   0  0  0  0  0  0  0  0  0  0  0  0
    4.7140   -0.2320    0.6620 O   0  0  0  0  0  0  0  0  0  0  0  0
    4.8170    0.7240   -0.3760 C   0  0  0  0  0  0  0  0  0  0  0  0
    3.6240    1.6100   -0.4970 C   0  0  0  0  0  0  0  0  0  0  0  0
    2.7920    1.6130    0.5970 O   0  0  0  0  0  0  0  0  0  0  0  0
    2.3460    0.3580    0.9600 C   0  0  1  0  0  0  0  0  0  0  0  0
    1.6000   -0.3350   -0.1630 C   0  0  1  0  0  0  0  0  0  0  0  0
    1.2020   -1.5800    0.3100 O   0  0  0  0  0  0  0  0  0  0  0  0
    0.1000   -1.8620   -0.4630 C   0  0  1  0  0  0  0  0  0  0  0  0
   -0.7700   -2.8450    0.2620 C   0  0  0  0  0  0  0  0  0  0  0  0
   -0.0010   -3.9990    0.4730 O   0  0  0  0  0  0  0  0  0  0  0  0
   -0.5600   -0.5250   -0.6720 C   0  0  1  0  0  0  0  0  0  0  0  0
   -1.0330   -0.4700   -1.9560 O   0  0  0  0  0  0  0  0  0  0  0  0
   -1.5910   -0.3110    0.3900 C   0  0  0  0  0  0  0  0  0  0  0  0
   -2.3200    0.9860    0.2920 C   0  0  1  0  0  0  0  0  0  0  0  0
   -1.4450    2.0780    0.3870 O   0  0  0  0  0  0  0  0  0  0  0  0
   -3.1740    1.1330   -0.9230 C   0  0  0  0  0  0  0  0  0  0  0  0
   -3.8960    2.3400   -0.7730 O   0  0  0  0  0  0  0  0  0  0  0  0
   -3.2590    1.0600    1.5050 C   0  0  0  0  0  0  0  0  0  0  0  0
   -4.1640    0.0000    1.4810 O   0  0  0  0  0  0  0  0  0  0  0  0
    0.4750    0.3650   -0.5230 O   0  0  0  0  0  0  0  0  0  0  0  0
  1  2  2  0
  2  3  1  0
  2  7  1  0
  3  4  1  0
  4  5  1  0
  5  6  1  0
  7  6  1  6
  7  8  1  0
  8  9  1  1
  8 22  1  0
  9 10  1  0
 10 11  1  1
 10 13  1  0
 11 12  1  0
 13 14  1  6
 13 15  1  0
 13 22  1  0
 15 16  1  0
 16 17  1  1
 16 18  1  0
 16 20  1  0
 18 19  1  0
 20 21  1  0
M  END
