
     RDKit          3D

 23 26  0  0  0  0  0  0  0  0999 V2000
    5.7360   -0.6440    0.8960 N   0  0  0  0  0  0  0  0  0  0  0  0
    4.3570   -0.3640    0.7120 C   0  0  0  0  0  0  0  0  0  0  0  0
    3.4900   -1.3960    0.6420 N   0  0  0  0  0  0  0  0  0  0  0  0
    2.1740   -1.1160    0.4660 C   0  0  0  0  0  0  0  0  0  0  0  0
    1.1010   -1.8990    0.3570 N   0  0  0  0  0  0  0  0  0  0  0  0
   -0.0340   -1.1510    0.1850 C   0  0  0  0  0  0  0  0  0  0  0  0
   -1.3700   -1.6980    0.0330 C   0  0  0  0  0  0  0  0  0  0  0  0
   -1.7320   -2.3140   -1.1500 C   0  0  0  0  0  0  0  0  0  0  0  0
   -2.9850   -2.8620   -1.3390 C   0  0  0  0  0  0  0  0  0  0  0  0
   -3.9200   -2.8070   -0.3360 C   0  0  0  0  0  0  0  0  0  0  0  0
   -3.5860   -2.1990    0.8520 C   0  0  0  0  0  0  0  0  0  0  0  0
   -2.3090   -1.6490    1.0250 C   0  0  0  0  0  0  0  0  0  0  0  0
    0.3480    0.1680    0.1850 C   0  0  0  0  0  0  0  0  0  0  0  0
   -0.4450    1.3810    0.0370 C   0  0  0  0  0  0  0  0  0  0  0  0
   -0.2500    2.2160   -1.0510 C   0  0  0  0  0  0  0  0  0  0  0  0
   -0.9580    3.3780   -1.2310 C   0  0  0  0  0  0  0  0  0  0  0  0
   -1.9040    3.7100   -0.2700 C   0  0  0  0  0  0  0  0  0  0  0  0
   -2.1050    2.8860    0.8150 C   0  0  0  0  0  0  0  0  0  0  0  0
   -1.3820    1.7280    0.9710 C   0  0  0  0  0  0  0  0  0  0  0  0
    1.7350    0.1800    0.3620 C   0  0  0  0  0  0  0  0  0  0  0  0
    2.6240    1.2310    0.4330 C   0  0  0  0  0  0  0  0  0  0  0  0
    2.2140    2.3980    0.3360 O   0  0  0  0  0  0  0  0  0  0  0  0
    3.9240    0.9120    0.6100 N   0  0  0  0  0  0  0  0  0  0  0  0
  1  2  1  0
  2  3  2  0
  2 23  1  0
  3  4  1  0
  4  5  1  0
  4 20  2  0
  5  6  1  0
  6  7  1  0
  6 13  2  0
  7  8  2  0
  7 12  1  0
  8  9  1  0
  9 10  2  0
 10 11  1  0
 11 12  2  0
 13 14  1  0
 13 20  1  0
 14 15  2  0
 14 19  1  0
 15 16  1  0
 16 17  2  0
 17 18  1  0
 18 19  2  0
 20 21  1  0
 21 22  2  0
 21 23  1  0
M  END
