
     RDKit          3D

 30 31  0  0  0  0  0  0  0  0999 V2000
    7.1350    1.0430    0.6880 O   0  0  0  0  0  0  0  0  0  0  0  0
    5.9510    0.9270    1.1050 C   0  0  0  0  0  0  0  0  0  0  0  0
    5.3940    1.9980    1.7810 O   0  0  0  0  0  0  0  0  0  0  0  0
    5.2320   -0.3000    0.8640 N   0  0  0  0  0  0  0  0  0  0  0  0
    5.8470   -1.3670    0.1670 C   0  0  0  0  0  0  0  0  0  0  0  0
    7.0400   -1.1770   -0.2060 O   0  0  0  0  0  0  0  0  0  0  0  0
    5.1670   -2.6380   -0.1220 C   0  0  0  0  0  0  0  0  0  0  0  0
    3.8140   -2.6040    0.2650 O   0  0  0  0  0  0  0  0  0  0  0  0
    2.8630   -1.7630   -0.2690 C   0  0  0  0  0  0  0  0  0  0  0  0
    3.2330   -0.9650   -1.1820 O   0  0  0  0  0  0  0  0  0  0  0  0
    1.5130   -1.7750    0.1740 N   0  0  0  0  0  0  0  0  0  0  0  0
    0.5750   -0.8650   -0.4360 C   0  0  2  0  0  0  0  0  0  0  0  0
    1.1270    0.8600   -0.1590 P   0  0  0  0  0  0  0  0  0  0  0  0
    1.9490    1.0980    1.3380 O   0  0  0  0  0  0  0  0  0  0  0  0
    2.1460    1.4100   -1.4420 O   0  0  0  0  0  0  0  0  0  0  0  0
   -0.7840   -1.1290    0.2380 C   0  0  0  0  0  0  0  0  0  0  0  0
   -1.7590   -0.4230   -0.5690 N   0  0  0  0  0  0  0  0  0  0  0  0
   -3.1600   -0.4090   -0.1930 C   0  0  0  0  0  0  0  0  0  0  0  0
   -3.6460    1.0170   -0.2600 C   0  0  1  0  0  0  0  0  0  0  0  0
   -3.4370    1.5640    1.0260 O   0  0  0  0  0  0  0  0  0  0  0  0
   -4.9150    2.0800    1.7370 P   0  0  0  0  0  0  0  0  0  0  0  0
   -5.3350    1.1460    3.1390 O   0  0  0  0  0  0  0  0  0  0  0  0
   -6.5250    2.0920    0.2640 P   0  0  0  0  0  0  0  0  0  0  0  0
   -7.8930    2.9660    0.9020 O   0  0  0  0  0  0  0  0  0  0  0  0
   -6.9920    0.4900   -0.2030 O   0  0  0  0  0  0  0  0  0  0  0  0
   -3.0000    1.7980   -1.2300 O   0  0  0  0  0  0  0  0  0  0  0  0
   -2.0090    1.3770   -2.0750 N   0  0  0  0  0  0  0  0  0  0  0  0
   -1.3950    0.2780   -1.7470 C   0  0  0  0  0  0  0  0  0  0  0  0
   -0.2960   -0.2750   -2.5940 C   0  0  0  0  0  0  0  0  0  0  0  0
    0.5090   -1.1810   -1.8420 N   0  0  0  0  0  0  0  0  0  0  0  0
  1  2  2  0
  2  3  1  0
  2  4  1  0
  4  5  1  0
  5  6  2  0
  5  7  1  0
  7  8  1  0
  8  9  1  0
  9 10  2  0
  9 11  1  0
 12 11  1  1
 12 13  1  0
 12 16  1  0
 12 30  1  0
 13 14  1  0
 13 15  1  0
 16 17  1  0
 17 18  1  0
 17 28  1  0
 18 19  1  0
 19 20  1  1
 19 26  1  0
 20 21  1  0
 21 22  1  0
 21 23  1  0
 23 24  1  0
 23 25  1  0
 26 27  1  0
 27 28  2  0
 28 29  1  0
 29 30  1  0
M  END
