
     RDKit          3D

 31 32  0  0  0  0  0  0  0  0999 V2000
   -3.1880    0.7340   -1.2250 N   0  0  0  0  0  0  0  0  0  0  0  0
   -2.5040    0.0970   -0.3280 C   0  0  0  0  0  0  0  0  0  0  0  0
   -1.0970    0.2640   -0.1980 N   0  0  0  0  0  0  0  0  0  0  0  0
   -0.2330   -0.6690   -0.8120 C   0  0  0  0  0  0  0  0  0  0  0  0
    1.2150   -0.3900   -0.7000 C   0  0  0  0  0  0  0  0  0  0  0  0
    1.9910   -1.0470    0.0830 N   0  0  0  0  0  0  0  0  0  0  0  0
    3.2930   -0.6150    0.0210 N   0  0  0  0  0  0  0  0  0  0  0  0
    4.4450   -1.1240    0.7660 C   0  0  1  0  0  0  0  0  0  0  0  0
    4.1860   -1.2190    2.2580 C   0  0  0  0  0  0  0  0  0  0  0  0
    4.9760   -2.3910    2.2130 O   0  0  0  0  0  0  0  0  0  0  0  0
    4.5250   -2.5750    0.9190 C   0  0  0  0  0  0  0  0  0  0  0  0
    4.2950   -3.5800    0.2130 O   0  0  0  0  0  0  0  0  0  0  0  0
    3.3650    0.4490   -0.9170 C   0  0  0  0  0  0  0  0  0  0  0  0
    4.4140    1.0720   -1.2300 O   0  0  0  0  0  0  0  0  0  0  0  0
    1.9800    0.6430   -1.4150 C   0  0  1  0  0  0  0  0  0  0  0  0
    1.9590    0.3100   -2.7760 O   0  0  0  0  0  0  0  0  0  0  0  0
    1.5360    1.3730   -3.4250 O   0  0  0  0  0  0  0  0  0  0  0  0
    2.4560    1.6350   -4.8730 P   0  0  0  0  0  0  0  0  0  0  0  0
    3.2220    0.4050   -5.4480 O   0  0  0  0  0  0  0  0  0  0  0  0
   -0.6610    1.3930    0.5890 C   0  0  0  0  0  0  0  0  0  0  0  0
   -1.3180    2.9620   -0.1800 P   0  0  0  0  0  0  0  0  0  0  0  0
   -0.5680    3.2130   -1.7180 O   0  0  0  0  0  0  0  0  0  0  0  0
   -1.0270    4.3140    0.8560 O   0  0  0  0  0  0  0  0  0  0  0  0
   -3.1880   -0.7850    0.5500 N   0  0  0  0  0  0  0  0  0  0  0  0
   -4.2140   -0.2930    1.4100 C   0  0  0  0  0  0  0  0  0  0  0  0
   -4.8090   -1.0990    2.1830 O   0  0  0  0  0  0  0  0  0  0  0  0
   -4.5750    1.0400    1.4220 O   0  0  0  0  0  0  0  0  0  0  0  0
   -5.5490    1.4340    2.2570 O   0  0  0  0  0  0  0  0  0  0  0  0
   -2.7550   -2.5200    0.5600 P   0  0  0  0  0  0  0  0  0  0  0  0
   -3.8310   -3.3160   -0.5640 O   0  0  0  0  0  0  0  0  0  0  0  0
   -2.8990   -3.1870    2.1490 O   0  0  0  0  0  0  0  0  0  0  0  0
  1  2  2  0
  2  3  1  0
  2 24  1  0
  3  4  1  0
  3 20  1  0
  4  5  1  0
  5  6  2  0
  5 15  1  0
  6  7  1  0
  8  7  1  6
  7 13  1  0
  8  9  1  0
  8 11  1  0
  9 10  1  0
 10 11  1  0
 11 12  2  0
 13 14  2  0
 13 15  1  0
 15 16  1  6
 16 17  1  0
 17 18  1  0
 18 19  2  0
 20 21  1  0
 21 22  1  0
 21 23  1  0
 24 25  1  0
 24 29  1  0
 25 26  2  0
 25 27  1  0
 27 28  1  0
 29 30  1  0
 29 31  1  0
M  END
