
     RDKit          3D

 30 32  0  0  0  0  0  0  0  0999 V2000
   -1.2870   -0.5470    1.9140 C   0  0  0  0  0  0  0  0  0  0  0  0
   -1.4640   -0.7630    0.4320 C   0  0  1  0  0  0  0  0  0  0  0  0
   -0.4720   -0.1340   -0.3410 O   0  0  0  0  0  0  0  0  0  0  0  0
    0.8760   -0.4200   -0.2190 C   0  0  0  0  0  0  0  0  0  0  0  0
    1.2030   -1.2870    0.6310 O   0  0  0  0  0  0  0  0  0  0  0  0
    1.8540    0.2870   -1.0720 C   0  0  0  0  0  0  0  0  0  0  0  0
    3.2010   -0.0900   -0.8570 N   0  0  0  0  0  0  0  0  0  0  0  0
    3.9220   -1.1130   -1.4970 C   0  0  0  0  0  0  0  0  0  0  0  0
    3.5540   -1.9230   -2.3960 O   0  0  0  0  0  0  0  0  0  0  0  0
    5.2390   -1.1360   -0.9690 N   0  0  0  0  0  0  0  0  0  0  0  0
    5.3280   -0.1360   -0.0110 N   0  0  0  0  0  0  0  0  0  0  0  0
    4.0870    0.5390    0.0920 C   0  0  0  0  0  0  0  0  0  0  0  0
    3.9160    1.5100    0.9140 N   0  0  0  0  0  0  0  0  0  0  0  0
    4.8360    2.0670    1.8100 C   0  0  0  0  0  0  0  0  0  0  0  0
    4.4900    3.0510    2.5710 O   0  0  0  0  0  0  0  0  0  0  0  0
    6.1540    1.6810    2.0040 O   0  0  0  0  0  0  0  0  0  0  0  0
    6.7230    0.3490    1.0160 P   0  0  0  0  0  0  0  0  0  0  0  0
    7.2400   -0.9190    2.0510 O   0  0  0  0  0  0  0  0  0  0  0  0
   -1.6400   -2.2040    0.1020 C   0  0  0  0  0  0  0  0  0  0  0  0
   -0.6720   -2.9800   -0.1050 O   0  0  0  0  0  0  0  0  0  0  0  0
   -3.0260   -2.5190    0.0680 N   0  0  0  0  0  0  0  0  0  0  0  0
   -3.7260   -1.3360    0.4980 C   0  0  0  0  0  0  0  0  0  0  0  0
   -2.8320   -0.2230   -0.0090 C   0  0  1  0  0  0  0  0  0  0  0  0
   -3.1090    0.9950    0.6200 O   0  0  0  0  0  0  0  0  0  0  0  0
   -2.8390   -0.1290   -1.3820 O   0  0  0  0  0  0  0  0  0  0  0  0
   -4.2300    0.4370   -2.1000 P   0  0  0  0  0  0  0  0  0  0  0  0
   -5.2120   -0.6210   -2.9480 O   0  0  0  0  0  0  0  0  0  0  0  0
   -4.8990    2.4000   -1.7190 P   0  0  0  0  0  0  0  0  0  0  0  0
   -3.7790    3.6720   -2.0350 O   0  0  0  0  0  0  0  0  0  0  0  0
   -5.8060    2.6450   -0.2840 O   0  0  0  0  0  0  0  0  0  0  0  0
  2  1  1  1
  2  3  1  0
  2 19  1  0
  2 23  1  0
  3  4  1  0
  4  5  2  0
  4  6  1  0
  6  7  1  0
  7  8  1  0
  7 12  1  0
  8  9  2  0
  8 10  1  0
 10 11  1  0
 11 12  1  0
 11 17  1  0
 12 13  2  0
 13 14  1  0
 14 15  2  0
 14 16  1  0
 16 17  1  0
 17 18  1  0
 19 20  2  0
 19 21  1  0
 21 22  1  0
 22 23  1  0
 23 24  1  1
 23 25  1  0
 25 26  1  0
 26 27  1  0
 26 28  1  0
 28 29  1  0
 28 30  1  0
M  END
