
     RDKit          3D

 30 31  0  0  0  0  0  0  0  0999 V2000
    3.1740   -0.9220   -2.2130 N   0  0  0  0  0  0  0  0  0  0  0  0
    2.8440   -0.9980   -0.9450 C   0  0  0  0  0  0  0  0  0  0  0  0
    3.0170   -2.2950   -0.3490 N   0  0  0  0  0  0  0  0  0  0  0  0
    4.4620   -3.2850   -0.7250 P   0  0  0  0  0  0  0  0  0  0  0  0
    3.9850   -4.6060   -1.7130 O   0  0  0  0  0  0  0  0  0  0  0  0
    5.1880   -3.7890    0.7680 O   0  0  0  0  0  0  0  0  0  0  0  0
    2.3570    0.0970   -0.1990 N   0  0  0  0  0  0  0  0  0  0  0  0
    1.0330    0.0540    0.3530 C   0  0  0  0  0  0  0  0  0  0  0  0
   -0.0170    0.1060   -0.7070 C   0  0  0  0  0  0  0  0  0  0  0  0
    0.3730    0.1760   -1.9200 O   0  0  0  0  0  0  0  0  0  0  0  0
   -1.3890    0.0810   -0.3920 N   0  0  0  0  0  0  0  0  0  0  0  0
   -1.9070   -0.0100    0.9760 C   0  0  0  0  0  0  0  0  0  0  0  0
   -3.3560   -0.3840    0.7540 C   0  0  1  0  0  0  0  0  0  0  0  0
   -3.4830   -1.7560    0.6100 O   0  0  0  0  0  0  0  0  0  0  0  0
   -4.2530    0.1130    1.8660 C   0  0  0  0  0  0  0  0  0  0  0  0
   -4.1360    1.5440    2.0530 N   0  0  0  0  0  0  0  0  0  0  0  0
   -3.7240    0.3310   -0.5440 C   0  0  2  0  0  0  0  0  0  0  0  0
   -4.8660   -0.1420   -1.0760 O   0  0  0  0  0  0  0  0  0  0  0  0
   -4.8870   -0.4760   -2.3920 C   0  0  0  0  0  0  0  0  0  0  0  0
   -3.7800   -1.1870   -2.8630 O   0  0  0  0  0  0  0  0  0  0  0  0
   -2.5390   -1.0440   -2.2130 C   0  0  0  0  0  0  0  0  0  0  0  0
   -1.6050   -1.8580   -2.3800 O   0  0  0  0  0  0  0  0  0  0  0  0
   -2.4720    0.1490   -1.3340 C   0  0  2  0  0  0  0  0  0  0  0  0
    3.3930    1.5270    0.0480 P   0  0  0  0  0  0  0  0  0  0  0  0
    4.9400    1.3270   -0.7150 O   0  0  0  0  0  0  0  0  0  0  0  0
    5.7830    0.9050    0.2120 O   0  0  0  0  0  0  0  0  0  0  0  0
    3.6040    1.8850    1.7310 O   0  0  0  0  0  0  0  0  0  0  0  0
    3.9580    3.5750    1.8950 P   0  0  0  0  0  0  0  0  0  0  0  0
    3.6590    4.4280    0.4140 O   0  0  0  0  0  0  0  0  0  0  0  0
    3.1450    4.3120    3.2110 O   0  0  0  0  0  0  0  0  0  0  0  0
  1  2  2  0
  2  3  1  0
  2  7  1  0
  3  4  1  0
  4  5  1  0
  4  6  1  0
  7  8  1  0
  7 24  1  0
  8  9  1  0
  9 10  2  0
  9 11  1  0
 11 12  1  0
 23 11  1  1
 12 13  1  0
 13 14  1  6
 13 15  1  0
 13 17  1  0
 15 16  1  0
 17 18  1  6
 17 23  1  0
 18 19  1  0
 19 20  1  0
 20 21  1  0
 21 22  2  0
 21 23  1  0
 24 25  1  0
 24 27  1  0
 25 26  1  0
 27 28  1  0
 28 29  1  0
 28 30  1  0
M  END
