
     RDKit          3D

 30 31  0  0  0  0  0  0  0  0999 V2000
    4.4420   -5.4140   -2.1220 O   0  0  0  0  0  0  0  0  0  0  0  0
    4.5410   -3.9570   -2.6510 P   0  0  0  0  0  0  0  0  0  0  0  0
    4.9320   -2.6770   -1.4530 N   0  0  0  0  0  0  0  0  0  0  0  0
    3.8690   -1.8560   -1.0020 C   0  0  0  0  0  0  0  0  0  0  0  0
    2.7010   -2.0290   -1.4310 O   0  0  0  0  0  0  0  0  0  0  0  0
    4.1790   -0.7930   -0.0110 C   0  0  1  0  0  0  0  0  0  0  0  0
    3.0020   -0.0890    0.3140 O   0  0  0  0  0  0  0  0  0  0  0  0
    2.9550    1.2530    0.1660 N   0  0  0  0  0  0  0  0  0  0  0  0
    1.8660    1.9420    0.1020 C   0  0  0  0  0  0  0  0  0  0  0  0
    1.8900    3.2780   -0.0460 N   0  0  0  0  0  0  0  0  0  0  0  0
    0.7650    4.0410   -0.1180 C   0  0  0  0  0  0  0  0  0  0  0  0
    0.8160    5.2930   -0.2570 O   0  0  0  0  0  0  0  0  0  0  0  0
   -0.4610    3.4590   -0.0400 N   0  0  0  0  0  0  0  0  0  0  0  0
   -0.5310    2.1270    0.1070 C   0  0  0  0  0  0  0  0  0  0  0  0
    0.6150    1.3650    0.1790 C   0  0  0  0  0  0  0  0  0  0  0  0
    0.1730    0.0700    0.3270 O   0  0  0  0  0  0  0  0  0  0  0  0
   -1.1510   -0.0060    0.1680 O   0  0  0  0  0  0  0  0  0  0  0  0
   -1.6550    1.2320    0.2180 N   0  0  0  0  0  0  0  0  0  0  0  0
   -3.0170    1.5650    0.3560 C   0  0  0  0  0  0  0  0  0  0  0  0
   -3.3780    2.7590    0.4020 O   0  0  0  0  0  0  0  0  0  0  0  0
   -4.0290    0.5010    0.4460 C   0  0  1  0  0  0  0  0  0  0  0  0
   -4.0210   -0.2950   -0.8210 C   0  0  0  0  0  0  0  0  0  0  0  0
   -5.2640   -1.6670   -0.8140 P   0  0  0  0  0  0  0  0  0  0  0  0
   -5.6870   -2.1780    0.7670 O   0  0  0  0  0  0  0  0  0  0  0  0
   -6.6150   -1.3480   -1.8240 O   0  0  0  0  0  0  0  0  0  0  0  0
   -3.5420   -0.6090    1.8560 P   0  0  0  0  0  0  0  0  0  0  0  0
   -2.9930   -2.0350    1.6560 O   0  0  0  0  0  0  0  0  0  0  0  0
    4.7100   -1.4520    1.2250 C   0  0  0  0  0  0  0  0  0  0  0  0
    5.7510   -2.1340    1.1770 O   0  0  0  0  0  0  0  0  0  0  0  0
    4.0680   -1.3240    2.4380 O   0  0  0  0  0  0  0  0  0  0  0  0
  1  2  2  0
  2  3  1  0
  3  4  1  0
  4  5  2  0
  4  6  1  0
  6  7  1  1
  6 28  1  0
  7  8  1  0
  8  9  2  3
  9 10  1  0
  9 15  1  0
 10 11  1  0
 11 12  2  0
 11 13  1  0
 13 14  1  0
 14 15  2  0
 14 18  1  0
 15 16  1  0
 16 17  1  0
 17 18  1  0
 18 19  1  0
 19 20  2  0
 19 21  1  0
 21 22  1  6
 21 26  1  0
 22 23  1  0
 23 24  1  0
 23 25  1  0
 26 27  2  0
 28 29  2  0
 28 30  1  0
M  END
