
     RDKit          3D

 30 31  0  0  0  0  0  0  0  0999 V2000
   -2.7460    3.2920    2.1860 O   0  0  0  0  0  0  0  0  0  0  0  0
   -3.7170    2.1220    1.7820 P   0  0  0  0  0  0  0  0  0  0  0  0
   -3.5570    1.3610    0.2070 O   0  0  0  0  0  0  0  0  0  0  0  0
   -2.8800    0.1580    0.4010 C   0  0  1  0  0  0  0  0  0  0  0  0
   -3.7060   -0.5560    1.3670 N   0  0  0  0  0  0  0  0  0  0  0  0
   -5.0220   -0.7830    0.9850 C   0  0  0  0  0  0  0  0  0  0  0  0
   -5.4370   -0.3520   -0.1630 O   0  0  0  0  0  0  0  0  0  0  0  0
   -6.0340   -1.4670    1.7040 N   0  0  0  0  0  0  0  0  0  0  0  0
   -7.6850   -1.7500    1.0700 P   0  0  0  0  0  0  0  0  0  0  0  0
   -8.0510   -0.5380   -0.1140 O   0  0  0  0  0  0  0  0  0  0  0  0
   -7.6760   -3.2980    0.2090 O   0  0  0  0  0  0  0  0  0  0  0  0
   -2.8580   -0.7470   -0.7860 C   0  0  0  0  0  0  0  0  0  0  0  0
   -2.5190   -0.0030   -1.9130 O   0  0  0  0  0  0  0  0  0  0  0  0
   -1.3030    0.6200   -1.6380 C   0  0  0  0  0  0  0  0  0  0  0  0
   -0.7180    0.2720   -0.2770 C   0  0  1  0  0  0  0  0  0  0  0  0
    0.5550    1.0930   -0.2100 C   0  0  0  0  0  0  0  0  0  0  0  0
    1.6730    0.5160   -0.1390 N   0  0  0  0  0  0  0  0  0  0  0  0
    2.9550    1.1020   -0.0500 C   0  0  1  0  0  0  0  0  0  0  0  0
    3.7930    0.5790   -1.0970 O   0  0  0  0  0  0  0  0  0  0  0  0
    4.9650    0.1370   -0.4850 C   0  0  0  0  0  0  0  0  0  0  0  0
    4.8070   -1.1190    0.3670 C   0  0  0  0  0  0  0  0  0  0  0  0
    6.1200   -1.3030    0.8870 O   0  0  0  0  0  0  0  0  0  0  0  0
    7.0930   -2.0190   -0.4280 P   0  0  0  0  0  0  0  0  0  0  0  0
    8.1460   -3.2450    0.1640 O   0  0  0  0  0  0  0  0  0  0  0  0
    8.0740   -0.6590   -1.0360 O   0  0  0  0  0  0  0  0  0  0  0  0
    2.9090    2.5760   -0.3510 C   0  0  0  0  0  0  0  0  0  0  0  0
    4.0360    3.1190   -0.5500 O   0  0  0  0  0  0  0  0  0  0  0  0
    1.6900    3.2370   -0.3940 N   0  0  0  0  0  0  0  0  0  0  0  0
    0.4970    2.5120   -0.3320 N   0  0  0  0  0  0  0  0  0  0  0  0
   -1.5900    0.4380    0.7580 O   0  0  0  0  0  0  0  0  0  0  0  0
  1  2  2  0
  2  3  1  0
  3  4  1  0
  4  5  1  1
  4 12  1  0
  4 30  1  0
  5  6  1  0
  6  7  2  0
  6  8  1  0
  8  9  1  0
  9 10  1  0
  9 11  1  0
 12 13  1  0
 13 14  1  0
 14 15  1  0
 15 16  1  1
 15 30  1  0
 16 17  2  0
 16 29  1  0
 17 18  1  0
 18 19  1  6
 18 26  1  0
 19 20  1  0
 20 21  1  0
 21 22  1  0
 22 23  1  0
 23 24  1  0
 23 25  1  0
 26 27  2  0
 26 28  1  0
 28 29  1  0
M  END
