
     RDKit          3D

 30 31  0  0  0  0  0  0  0  0999 V2000
    5.8100    0.0090    1.3570 N   0  0  0  0  0  0  0  0  0  0  0  0
    5.7250   -0.4620    0.1830 C   0  0  0  0  0  0  0  0  0  0  0  0
    4.6690   -1.2620   -0.2510 N   0  0  0  0  0  0  0  0  0  0  0  0
    3.3610   -1.2840   -0.0240 O   0  0  0  0  0  0  0  0  0  0  0  0
    2.4960   -0.2010   -0.2130 C   0  0  0  0  0  0  0  0  0  0  0  0
    2.9700    0.8930   -0.5860 O   0  0  0  0  0  0  0  0  0  0  0  0
    1.0610   -0.3210   -0.0300 C   0  0  1  0  0  0  0  0  0  0  0  0
    0.5310   -0.9340   -1.3670 C   0  0  0  0  0  0  0  0  0  0  0  0
   -0.0180   -2.1700   -1.2250 O   0  0  0  0  0  0  0  0  0  0  0  0
    0.7240   -3.0700   -0.4590 C   0  0  0  0  0  0  0  0  0  0  0  0
    1.0910   -2.5490    0.7750 O   0  0  0  0  0  0  0  0  0  0  0  0
    0.5960   -1.3030    1.0180 C   0  0  2  0  0  0  0  0  0  0  0  0
   -0.9180   -1.2570    1.0440 C   0  0  0  0  0  0  0  0  0  0  0  0
   -1.8090   -2.1180    1.5720 N   0  0  0  0  0  0  0  0  0  0  0  0
   -3.0420   -1.6260    1.3940 O   0  0  0  0  0  0  0  0  0  0  0  0
   -2.9930   -0.5100    0.7750 C   0  0  0  0  0  0  0  0  0  0  0  0
   -3.9450    0.5200    0.2690 C   0  0  1  0  0  0  0  0  0  0  0  0
   -4.2530    0.3450   -1.2170 C   0  0  0  0  0  0  0  0  0  0  0  0
   -5.0330    1.4970   -1.5210 O   0  0  0  0  0  0  0  0  0  0  0  0
   -4.1960    2.0490   -2.5360 O   0  0  0  0  0  0  0  0  0  0  0  0
   -5.4170    0.7690    1.2790 P   0  0  0  0  0  0  0  0  0  0  0  0
   -6.2390   -0.6790    1.7460 O   0  0  0  0  0  0  0  0  0  0  0  0
   -6.7670    2.1980    0.3420 P   0  0  0  0  0  0  0  0  0  0  0  0
   -8.1780    2.4820    1.3360 O   0  0  0  0  0  0  0  0  0  0  0  0
   -5.9640    3.6600   -0.0140 O   0  0  0  0  0  0  0  0  0  0  0  0
   -1.6540   -0.2790    0.5530 N   0  0  0  0  0  0  0  0  0  0  0  0
    6.7880   -0.1690   -0.7580 N   0  0  0  0  0  0  0  0  0  0  0  0
    7.9540    1.1300   -0.5160 P   0  0  0  0  0  0  0  0  0  0  0  0
    7.3440    2.6290   -1.1450 O   0  0  0  0  0  0  0  0  0  0  0  0
    8.4460    1.2270    1.1200 O   0  0  0  0  0  0  0  0  0  0  0  0
  1  2  2  0
  2  3  1  0
  2 27  1  0
  3  4  1  0
  4  5  1  0
  5  6  2  0
  7  5  1  6
  7  8  1  0
  7 12  1  0
  8  9  1  0
  9 10  1  0
 10 11  1  0
 11 12  1  0
 12 13  1  6
 13 14  2  0
 13 26  1  0
 14 15  1  0
 15 16  1  0
 16 17  1  0
 16 26  2  0
 17 18  1  6
 17 21  1  0
 18 19  1  0
 19 20  1  0
 21 22  1  0
 21 23  1  0
 23 24  1  0
 23 25  1  0
 27 28  1  0
 28 29  1  0
 28 30  1  0
M  END
