
     RDKit          3D

 25 26  0  0  0  0  0  0  0  0999 V2000
    7.6920    0.6390    1.5620 C   0  0  0  0  0  0  0  0  0  0  0  0
    7.5610    1.0920    0.2540 O   0  0  0  0  0  0  0  0  0  0  0  0
    6.0650    1.8970    0.0050 P   0  0  0  0  0  0  0  0  0  0  0  0
    6.2260    3.4720   -0.6450 O   0  0  0  0  0  0  0  0  0  0  0  0
    4.6240    0.6690   -1.1010 P   0  0  0  0  0  0  0  0  0  0  0  0
    4.8500   -1.0080   -0.8360 O   0  0  0  0  0  0  0  0  0  0  0  0
    5.0920   -1.3530    0.4700 C   0  0  0  0  0  0  0  0  0  0  0  0
    2.9880    1.0890   -0.7030 O   0  0  0  0  0  0  0  0  0  0  0  0
    2.2160   -0.0650   -0.8200 C   0  0  0  0  0  0  0  0  0  0  0  0
    0.7950    0.3100   -0.4720 C   0  0  0  0  0  0  0  0  0  0  0  0
   -0.0850   -0.8230   -0.5640 N   0  0  0  0  0  0  0  0  0  0  0  0
   -1.4640   -0.6750   -0.2750 C   0  0  0  0  0  0  0  0  0  0  0  0
   -1.9990    0.5400    0.0980 C   0  0  0  0  0  0  0  0  0  0  0  0
   -3.3590    0.6630    0.3790 C   0  0  0  0  0  0  0  0  0  0  0  0
   -4.2150   -0.4140    0.2950 C   0  0  0  0  0  0  0  0  0  0  0  0
   -3.6960   -1.6250   -0.0750 C   0  0  0  0  0  0  0  0  0  0  0  0
   -4.5950   -2.7500   -0.1620 C   0  0  0  0  0  0  0  0  0  0  0  0
   -5.2350   -3.0420   -1.3830 N   0  0  0  0  0  0  0  0  0  0  0  0
   -4.8630   -3.6690    1.1440 S   0  0  0  0  0  0  0  0  0  0  0  0
   -2.3280   -1.7460   -0.3560 C   0  0  0  0  0  0  0  0  0  0  0  0
   -5.6430   -0.2990    0.5860 C   0  0  0  0  0  0  0  0  0  0  0  0
   -6.4370   -1.2780    0.5120 O   0  0  0  0  0  0  0  0  0  0  0  0
   -6.1100    1.0050    0.9670 N   0  0  0  0  0  0  0  0  0  0  0  0
   -5.3470    2.1290    0.4960 C   0  0  0  0  0  0  0  0  0  0  0  0
   -3.8670    1.9820    0.7710 C   0  0  0  0  0  0  0  0  0  0  0  0
  1  2  1  0
  2  3  1  0
  3  4  1  0
  3  5  1  0
  5  6  1  0
  5  8  1  0
  6  7  1  0
  8  9  1  0
  9 10  1  0
 10 11  1  0
 11 12  1  0
 12 13  2  0
 12 20  1  0
 13 14  1  0
 14 15  2  0
 14 25  1  0
 15 16  1  0
 15 21  1  0
 16 17  1  0
 16 20  2  0
 17 18  1  0
 17 19  2  0
 21 22  2  0
 21 23  1  0
 23 24  1  0
 24 25  1  0
M  END
