
     RDKit          3D

 25 26  0  0  0  0  0  0  0  0999 V2000
    0.8140    1.2510   -1.4170 C   0  0  0  0  0  0  0  0  0  0  0  0
    1.1630    0.2260   -0.4610 N   0  0  0  0  0  0  0  0  0  0  0  0
    2.4330   -0.4690   -0.6960 C   0  0  0  0  0  0  0  0  0  0  0  0
    3.8330    0.3930    0.1530 P   0  0  0  0  0  0  0  0  0  0  0  0
    4.9530    1.0570   -0.9950 O   0  0  0  0  0  0  0  0  0  0  0  0
    4.6260   -0.6350    1.2980 O   0  0  0  0  0  0  0  0  0  0  0  0
    6.2910   -0.8670    0.9530 P   0  0  0  0  0  0  0  0  0  0  0  0
    6.8150   -0.0140   -0.4590 O   0  0  0  0  0  0  0  0  0  0  0  0
    7.2130   -0.2530    2.3020 O   0  0  0  0  0  0  0  0  0  0  0  0
    0.3340   -0.0880    0.6360 C   0  0  0  0  0  0  0  0  0  0  0  0
    0.6840   -0.9710    1.4600 O   0  0  0  0  0  0  0  0  0  0  0  0
   -0.9220    0.5880    0.8480 C   0  0  0  0  0  0  0  0  0  0  0  0
   -0.9220    1.8110    1.5260 C   0  0  0  0  0  0  0  0  0  0  0  0
   -2.1150    2.4420    1.7150 C   0  0  0  0  0  0  0  0  0  0  0  0
   -3.2970    1.8960    1.2530 C   0  0  0  0  0  0  0  0  0  0  0  0
   -4.8630    2.7220    1.5010 S   0  0  0  0  0  0  0  0  0  0  0  0
   -3.2800    0.6970    0.5920 C   0  0  0  0  0  0  0  0  0  0  0  0
   -2.0840    0.0450    0.3910 C   0  0  0  0  0  0  0  0  0  0  0  0
   -2.3630   -1.1360   -0.2780 C   0  0  0  0  0  0  0  0  0  0  0  0
   -1.4950   -2.1910   -0.7770 C   0  0  0  0  0  0  0  0  0  0  0  0
   -0.9440   -1.7810   -2.1100 C   0  0  0  0  0  0  0  0  0  0  0  0
   -1.2930   -0.7290   -2.6430 O   0  0  0  0  0  0  0  0  0  0  0  0
   -3.7060   -1.1340   -0.4440 N   0  0  0  0  0  0  0  0  0  0  0  0
   -4.2410   -0.0650    0.0630 N   0  0  0  0  0  0  0  0  0  0  0  0
   -5.6570    0.3070    0.0850 C   0  0  0  0  0  0  0  0  0  0  0  0
  1  2  1  0
  2  3  1  0
  2 10  1  0
  3  4  1  0
  4  5  1  0
  4  6  1  0
  6  7  1  0
  7  8  1  0
  7  9  1  0
 10 11  2  0
 10 12  1  0
 12 13  2  0
 12 18  1  0
 13 14  1  0
 14 15  2  0
 15 16  1  0
 15 17  1  0
 17 18  2  0
 17 24  1  0
 18 19  1  0
 19 20  1  0
 19 23  2  0
 20 21  1  0
 21 22  2  0
 23 24  1  0
 24 25  1  0
M  END
