
     RDKit          3D

 27 28  0  0  0  0  0  0  0  0999 V2000
    2.1310    2.2420   -0.5930 C   0  0  0  0  0  0  0  0  0  0  0  0
    1.3330    1.4080    0.3810 C   0  0  2  0  0  0  0  0  0  0  0  0
    2.1990    0.8640    1.4730 C   0  0  0  0  0  0  0  0  0  0  0  0
    3.2590    0.0210    0.9660 N   0  0  0  0  0  0  0  0  0  0  0  0
    3.2180   -1.3230    0.7640 C   0  0  0  0  0  0  0  0  0  0  0  0
    4.4040   -1.7500    0.2830 N   0  0  0  0  0  0  0  0  0  0  0  0
    5.2240   -0.7150    0.1650 C   0  0  0  0  0  0  0  0  0  0  0  0
    6.5350   -0.5990   -0.2720 C   0  0  0  0  0  0  0  0  0  0  0  0
    7.2870   -1.7080   -0.7130 N   0  0  0  0  0  0  0  0  0  0  0  0
    7.0750    0.6320   -0.2610 N   0  0  0  0  0  0  0  0  0  0  0  0
    6.3650    1.7060    0.1590 C   0  0  0  0  0  0  0  0  0  0  0  0
    5.0960    1.6030    0.5840 N   0  0  0  0  0  0  0  0  0  0  0  0
    4.4980    0.3990    0.5970 C   0  0  0  0  0  0  0  0  0  0  0  0
    0.6580    0.4020   -0.2640 O   0  0  0  0  0  0  0  0  0  0  0  0
   -0.7360    0.5190   -0.1260 C   0  0  0  0  0  0  0  0  0  0  0  0
   -1.5520   -0.8190   -0.9890 P   0  0  2  0  0  0  0  0  0  0  0  0
   -0.5400   -1.9230   -1.3080 O   0  0  0  0  0  0  0  0  0  0  0  0
   -2.2950   -0.0750   -2.8440 S   0  0  0  0  0  0  0  0  0  0  0  0
   -2.8180   -1.5220   -0.1680 O   0  0  0  0  0  0  0  0  0  0  0  0
   -3.8450   -0.4230    0.4900 P   0  0  0  0  0  0  0  0  0  0  0  0
   -3.8270    1.1580   -0.0710 O   0  0  0  0  0  0  0  0  0  0  0  0
   -4.7580   -0.8270    1.7790 O   0  0  0  0  0  0  0  0  0  0  0  0
   -4.9050   -0.7580   -0.5530 O   0  0  0  0  0  0  0  0  0  0  0  0
   -6.4100   -0.8600   -0.3210 P   0  0  0  0  0  0  0  0  0  0  0  0
   -6.8730   -0.7520   -1.8560 O   0  0  0  0  0  0  0  0  0  0  0  0
   -6.1020   -2.3590    0.4040 O   0  0  0  0  0  0  0  0  0  0  0  0
   -6.3830    0.4550    0.6680 O   0  0  0  0  0  0  0  0  0  0  0  0
  2  1  1  6
  2  3  1  0
  2 14  1  0
  3  4  1  0
  4  5  1  0
  4 13  1  0
  5  6  2  0
  6  7  1  0
  7  8  2  0
  7 13  1  0
  8  9  1  0
  8 10  1  0
 10 11  2  0
 11 12  1  0
 12 13  2  0
 14 15  1  0
 15 16  1  0
 16 17  2  0
 16 18  1  6
 16 19  1  0
 19 20  1  0
 20 21  1  0
 20 22  1  0
 20 23  1  0
 23 24  1  0
 24 25  1  0
 24 26  1  0
 24 27  1  0
M  END
