
     RDKit          3D

 26 27  0  0  0  0  0  0  0  0999 V2000
   -2.2810    3.6680   -4.0130 C   0  0  0  0  0  0  0  0  0  0  0  0
   -2.1490    2.8160   -2.8950 O   0  0  0  0  0  0  0  0  0  0  0  0
   -2.2930    3.2250   -1.5940 C   0  0  0  0  0  0  0  0  0  0  0  0
   -2.5570    4.4170   -1.3740 O   0  0  0  0  0  0  0  0  0  0  0  0
   -2.1480    2.3010   -0.4390 C   0  0  0  0  0  0  0  0  0  0  0  0
   -2.3040    2.7630    0.8810 C   0  0  0  0  0  0  0  0  0  0  0  0
   -2.0590    1.3940    1.9170 S   0  0  0  0  0  0  0  0  0  0  0  0
   -1.7460    0.2090    0.5300 C   0  0  0  0  0  0  0  0  0  0  0  0
   -1.4890   -1.1570    0.7590 N   0  0  0  0  0  0  0  0  0  0  0  0
   -0.3330   -1.7390    1.0120 C   0  0  0  0  0  0  0  0  0  0  0  0
    0.9920   -1.1870    1.1330 C   0  0  0  0  0  0  0  0  0  0  0  0
    1.9730   -1.9610    1.3870 O   0  0  0  0  0  0  0  0  0  0  0  0
    1.3280    0.1680    0.9950 N   0  0  0  0  0  0  0  0  0  0  0  0
    2.6840    0.6660    1.1280 C   0  0  0  0  0  0  0  0  0  0  0  0
    3.6360    0.0750    0.1440 C   0  0  0  0  0  0  0  0  0  0  0  0
    5.0040    0.7010    0.4200 C   0  0  0  0  0  0  0  0  0  0  0  0
    6.0430    0.1580   -0.5370 C   0  0  0  0  0  0  0  0  0  0  0  0
    7.2540    0.7500   -0.2500 O   0  0  0  0  0  0  0  0  0  0  0  0
   -0.5930   -3.1090    1.1640 C   0  0  0  0  0  0  0  0  0  0  0  0
   -1.9000   -3.2900    0.9940 N   0  0  0  0  0  0  0  0  0  0  0  0
   -2.4790   -2.1140    0.7440 C   0  0  0  0  0  0  0  0  0  0  0  0
   -4.0850   -1.8200    0.4630 P   0  0  0  0  0  0  0  0  0  0  0  0
   -5.5000   -3.5070    0.4860 P   0  0  0  0  0  0  0  0  0  0  0  0
   -6.0720   -3.7690    2.1070 O   0  0  0  0  0  0  0  0  0  0  0  0
   -4.7020   -4.9850   -0.0100 O   0  0  0  0  0  0  0  0  0  0  0  0
   -1.8640    0.9850   -0.5230 C   0  0  0  0  0  0  0  0  0  0  0  0
  1  2  1  0
  2  3  1  0
  3  4  2  0
  3  5  1  0
  5  6  2  0
  5 26  1  0
  6  7  1  0
  7  8  1  0
  8  9  1  0
  8 26  2  0
  9 10  1  0
  9 21  1  0
 10 11  1  0
 10 19  2  0
 11 12  2  0
 11 13  1  0
 13 14  1  0
 14 15  1  0
 15 16  1  0
 16 17  1  0
 17 18  1  0
 19 20  1  0
 20 21  1  0
 21 22  2  3
 22 23  1  0
 23 24  1  0
 23 25  1  0
M  END
