
     RDKit          3D

 20 20  0  0  0  0  0  0  0  0999 V2000
    2.4800    2.1280    0.8920 C   0  0  0  0  0  0  0  0  0  0  0  0
    3.1420    0.9750    0.1780 C   0  0  0  0  0  0  0  0  0  0  0  0
    2.3300   -0.2800    0.2300 C   0  0  2  0  0  0  0  0  0  0  0  0
    3.1530   -1.3550   -0.5320 C   0  0  0  0  0  0  0  0  0  0  0  0
    3.3770   -0.9180   -1.9520 C   0  0  0  0  0  0  0  0  0  0  0  0
    1.1250   -0.2390   -0.4510 O   0  0  0  0  0  0  0  0  0  0  0  0
    0.0490   -0.7070    0.2480 C   0  0  2  0  0  0  0  0  0  0  0  0
   -0.5200   -1.9510   -0.4100 C   0  0  0  0  0  0  0  0  0  0  0  0
   -1.6800   -2.4170    0.0610 C   0  0  0  0  0  0  0  0  0  0  0  0
   -2.3160   -3.5940   -0.4890 C   0  0  0  0  0  0  0  0  0  0  0  0
   -1.7750   -4.2020   -1.4310 O   0  0  0  0  0  0  0  0  0  0  0  0
   -3.5080   -4.0400    0.0230 O   0  0  0  0  0  0  0  0  0  0  0  0
   -2.3160   -1.7010    1.1740 C   0  0  0  0  0  0  0  0  0  0  0  0
   -2.2830   -0.2290    1.0000 C   0  0  2  0  0  0  0  0  0  0  0  0
   -3.4770    0.2840    0.3620 N   0  0  0  0  0  0  0  0  0  0  0  0
   -1.0880    0.2710    0.1990 C   0  0  1  0  0  0  0  0  0  0  0  0
   -0.7820    1.6260    0.4870 N   0  0  0  0  0  0  0  0  0  0  0  0
   -0.9930    2.6590   -0.4850 C   0  0  0  0  0  0  0  0  0  0  0  0
   -0.6810    4.0980   -0.2050 C   0  0  0  0  0  0  0  0  0  0  0  0
   -1.4590    2.2960   -1.5960 O   0  0  0  0  0  0  0  0  0  0  0  0
  1  2  1  0
  3  2  1  6
  3  4  1  0
  3  6  1  0
  4  5  1  0
  7  6  1  6
  7  8  1  0
  7 16  1  0
  8  9  2  0
  9 10  1  0
  9 13  1  0
 10 11  2  0
 10 12  1  0
 13 14  1  0
 14 15  1  6
 14 16  1  0
 16 17  1  1
 17 18  1  0
 18 19  1  0
 18 20  2  0
M  CHG  1  15   1
M  END
