
     RDKit          3D

 20 20  0  0  0  0  0  0  0  0999 V2000
    4.6360    1.4910   -0.0420 C   0  0  0  0  0  0  0  0  0  0  0  0
    3.8090    0.2850    0.2640 C   0  0  2  0  0  0  0  0  0  0  0  0
    4.0590   -0.8630   -0.6990 C   0  0  0  0  0  0  0  0  0  0  0  0
    3.0460   -1.9440   -0.3750 C   0  0  0  0  0  0  0  0  0  0  0  0
    2.4300   -1.7220    0.8530 O   0  0  0  0  0  0  0  0  0  0  0  0
    1.6300   -0.6110    0.8730 C   0  0  2  0  0  0  0  0  0  0  0  0
    1.4400   -0.1970    2.3200 C   0  0  0  0  0  0  0  0  0  0  0  0
    0.3470   -0.8620    0.2820 O   0  0  0  0  0  0  0  0  0  0  0  0
   -0.5880    0.1570    0.2190 C   0  0  0  0  0  0  0  0  0  0  0  0
   -0.2490    1.2690    0.6950 O   0  0  0  0  0  0  0  0  0  0  0  0
   -1.9260    0.0080   -0.3630 C   0  0  2  0  0  0  0  0  0  0  0  0
   -2.6550    1.3040   -0.2720 C   0  0  0  0  0  0  0  0  0  0  0  0
   -3.0610    1.9730   -1.3230 C   0  0  0  0  0  0  0  0  0  0  0  0
   -3.7660    3.2310   -1.1290 C   0  0  0  0  0  0  0  0  0  0  0  0
   -4.2260    3.9930   -2.2390 N   0  0  0  0  0  0  0  0  0  0  0  0
   -3.9880    3.6790    0.0270 O   0  0  0  0  0  0  0  0  0  0  0  0
   -2.7900   -1.0040    0.3700 C   0  0  0  0  0  0  0  0  0  0  0  0
   -2.2100   -2.3800    0.3850 C   0  0  0  0  0  0  0  0  0  0  0  0
   -3.1650   -3.2200    1.1250 N   0  0  0  0  0  0  0  0  0  0  0  0
    2.3050    0.5780    0.1750 C   0  0  0  0  0  0  0  0  0  0  0  0
  2  1  1  6
  2  3  1  0
  2 20  1  0
  3  4  1  0
  4  5  1  0
  5  6  1  0
  6  7  1  1
  6  8  1  0
  6 20  1  0
  8  9  1  0
  9 10  2  0
  9 11  1  0
 11 12  1  0
 11 17  1  1
 12 13  2  3
 13 14  1  0
 14 15  1  0
 14 16  2  0
 17 18  1  0
 18 19  1  0
M  CHG  1  19   1
M  END
