
     RDKit          3D

 20 20  0  0  0  0  0  0  0  0999 V2000
   -5.0420    1.5890   -1.2070 C   0  0  0  0  0  0  0  0  0  0  0  0
   -4.8850    1.1640    0.2350 C   0  0  0  0  0  0  0  0  0  0  0  0
   -4.5200   -0.2970    0.3530 C   0  0  0  0  0  0  0  0  0  0  0  0
   -3.2140   -0.5960   -0.3490 C   0  0  2  0  0  0  0  0  0  0  0  0
   -2.8690   -2.0410   -0.2230 C   0  0  0  0  0  0  0  0  0  0  0  0
   -2.0390   -2.3370    0.9240 N   0  0  0  0  0  0  0  0  0  0  0  0
   -0.7810   -1.6640    0.9160 C   0  0  0  0  0  0  0  0  0  0  0  0
   -0.7450   -0.4440    0.0400 C   0  0  2  0  0  0  0  0  0  0  0  0
   -0.4840   -0.7920   -1.4010 C   0  0  0  0  0  0  0  0  0  0  0  0
    0.2270    0.4970    0.4420 O   0  0  0  0  0  0  0  0  0  0  0  0
    1.5950    0.1700    0.4910 C   0  0  0  0  0  0  0  0  0  0  0  0
    1.8730   -0.9760    0.1640 O   0  0  0  0  0  0  0  0  0  0  0  0
    2.5690    1.0900    0.8860 N   0  0  0  0  0  0  0  0  0  0  0  0
    3.9520    0.8990    0.9640 C   0  0  0  0  0  0  0  0  0  0  0  0
    4.7880    0.6350   -0.2130 C   0  0  2  0  0  0  0  0  0  0  0  0
    4.5760   -0.7140   -0.8250 C   0  0  0  0  0  0  0  0  0  0  0  0
    6.1470    0.5710    0.2710 O   0  0  0  0  0  0  0  0  0  0  0  0
    4.7740    1.7290   -1.2540 C   0  0  0  0  0  0  0  0  0  0  0  0
    5.1480    2.9420   -0.7330 O   0  0  0  0  0  0  0  0  0  0  0  0
   -2.1020    0.2520    0.2110 C   0  0  0  0  0  0  0  0  0  0  0  0
  1  2  1  0
  2  3  1  0
  4  3  1  1
  4  5  1  0
  4 20  1  0
  5  6  1  0
  6  7  1  0
  7  8  1  0
  8  9  1  6
  8 10  1  0
  8 20  1  0
 10 11  1  0
 11 12  2  0
 11 13  1  0
 13 14  1  0
 14 15  1  0
 15 16  1  6
 15 17  1  0
 15 18  1  0
 18 19  1  0
M  CHG  1   6   1
M  END
