
     RDKit          3D

 20 20  0  0  0  0  0  0  0  0999 V2000
    3.5940    2.6470   -0.8760 C   0  0  0  0  0  0  0  0  0  0  0  0
    2.1220    2.4210   -0.9800 C   0  0  0  0  0  0  0  0  0  0  0  0
    1.7320    1.1300   -0.5710 O   0  0  0  0  0  0  0  0  0  0  0  0
    2.1870   -0.0370   -1.1690 C   0  0  0  0  0  0  0  0  0  0  0  0
    2.9800    0.0480   -2.1160 O   0  0  0  0  0  0  0  0  0  0  0  0
    1.6690   -1.3140   -0.6070 C   0  0  2  0  0  0  0  0  0  0  0  0
    0.1990   -1.3220   -0.7440 C   0  0  0  0  0  0  0  0  0  0  0  0
   -0.3720   -2.2250   -1.4330 O   0  0  0  0  0  0  0  0  0  0  0  0
   -0.6660   -0.3720   -0.1510 N   0  0  0  0  0  0  0  0  0  0  0  0
   -2.0980   -0.3940   -0.2960 C   0  0  0  0  0  0  0  0  0  0  0  0
   -2.7680    0.7420    0.4460 C   0  0  1  0  0  0  0  0  0  0  0  0
   -2.4430    0.6330    1.9020 C   0  0  0  0  0  0  0  0  0  0  0  0
   -2.2020    1.9740   -0.0590 N   0  0  0  0  0  0  0  0  0  0  0  0
   -4.2430    0.6320    0.1550 C   0  0  0  0  0  0  0  0  0  0  0  0
   -5.0750    1.6730    0.8040 C   0  0  0  0  0  0  0  0  0  0  0  0
    2.1070   -1.3530    0.8420 C   0  0  0  0  0  0  0  0  0  0  0  0
    3.2810   -2.3110    0.8060 C   0  0  0  0  0  0  0  0  0  0  0  0
    2.7250   -3.3840   -0.1410 C   0  0  1  0  0  0  0  0  0  0  0  0
    1.6530   -3.9660    0.5380 O   0  0  0  0  0  0  0  0  0  0  0  0
    2.2330   -2.5160   -1.2790 C   0  0  0  0  0  0  0  0  0  0  0  0
  1  2  1  0
  2  3  1  0
  3  4  1  0
  4  5  2  0
  6  4  1  6
  6  7  1  0
  6 16  1  0
  6 20  1  0
  7  8  2  0
  7  9  1  0
  9 10  1  0
 10 11  1  0
 11 12  1  1
 11 13  1  0
 11 14  1  0
 14 15  1  0
 16 17  1  0
 17 18  1  0
 18 19  1  1
 18 20  1  0
M  CHG  1  13   1
M  END
