
     RDKit          3D

 20 21  0  0  0  0  0  0  0  0999 V2000
    3.3040    2.8170   -1.3400 C   0  0  0  0  0  0  0  0  0  0  0  0
    2.4590    1.7470   -1.0320 O   0  0  0  0  0  0  0  0  0  0  0  0
    3.2520    0.7140   -0.5550 C   0  0  0  0  0  0  0  0  0  0  0  0
    2.4650   -0.5320   -0.1910 C   0  0  1  0  0  0  0  0  0  0  0  0
    3.5130   -1.5450    0.2110 C   0  0  0  0  0  0  0  0  0  0  0  0
    4.3920   -1.7050   -0.9530 N   0  0  0  0  0  0  0  0  0  0  0  0
    1.4620   -0.2620    0.8730 C   0  0  0  0  0  0  0  0  0  0  0  0
    0.0860   -0.1140    0.2650 C   0  0  2  0  0  0  0  0  0  0  0  0
    0.0210    0.8470   -0.7250 O   0  0  0  0  0  0  0  0  0  0  0  0
   -0.9650    0.2870    1.2970 C   0  0  0  0  0  0  0  0  0  0  0  0
   -2.2070    0.2880    0.5940 N   0  0  0  0  0  0  0  0  0  0  0  0
   -2.3920    1.3070   -0.3780 C   0  0  0  0  0  0  0  0  0  0  0  0
   -3.8460    1.7370   -0.2710 C   0  0  0  0  0  0  0  0  0  0  0  0
   -4.2230    1.2930    1.1080 C   0  0  0  0  0  0  0  0  0  0  0  0
   -3.3890    0.0500    1.3220 C   0  0  1  0  0  0  0  0  0  0  0  0
   -4.1540   -1.1050    0.6730 C   0  0  0  0  0  0  0  0  0  0  0  0
   -5.3140   -1.3570    1.3610 O   0  0  0  0  0  0  0  0  0  0  0  0
   -0.3440   -1.4310   -0.3830 C   0  0  0  0  0  0  0  0  0  0  0  0
    0.9020   -2.0390   -0.9810 C   0  0  0  0  0  0  0  0  0  0  0  0
    1.7870   -1.0390   -1.2930 O   0  0  0  0  0  0  0  0  0  0  0  0
  1  2  1  0
  2  3  1  0
  4  3  1  6
  4  5  1  0
  4  7  1  0
  4 20  1  0
  5  6  1  0
  7  8  1  0
  8  9  1  6
  8 10  1  0
  8 18  1  0
 10 11  1  0
 11 12  1  0
 11 15  1  0
 12 13  1  0
 13 14  1  0
 14 15  1  0
 15 16  1  6
 16 17  1  0
 18 19  1  0
 19 20  1  0
M  CHG  1   6   1
M  END
