
     RDKit          3D

 20 20  0  0  0  0  0  0  0  0999 V2000
    6.2110    1.1230   -0.8350 C   0  0  0  0  0  0  0  0  0  0  0  0
    5.0690    0.7080   -0.1090 O   0  0  0  0  0  0  0  0  0  0  0  0
    3.7770    0.8650   -0.5880 C   0  0  0  0  0  0  0  0  0  0  0  0
    3.6590    1.4030   -1.7220 O   0  0  0  0  0  0  0  0  0  0  0  0
    2.5610    0.4180    0.1950 C   0  0  2  0  0  0  0  0  0  0  0  0
    3.1060   -0.1470    1.4350 N   0  0  0  0  0  0  0  0  0  0  0  0
    1.8680   -0.5680   -0.6480 C   0  0  0  0  0  0  0  0  0  0  0  0
    0.6190   -1.2030   -0.1600 C   0  0  1  0  0  0  0  0  0  0  0  0
    0.2590   -2.1580   -1.3480 C   0  0  0  0  0  0  0  0  0  0  0  0
    0.9940   -2.2490    0.9240 C   0  0  0  0  0  0  0  0  0  0  0  0
   -0.3780   -0.5460    0.3200 O   0  0  0  0  0  0  0  0  0  0  0  0
   -1.2380    0.3330   -0.0450 C   0  0  1  0  0  0  0  0  0  0  0  0
   -0.6330    1.6470   -0.4860 C   0  0  0  0  0  0  0  0  0  0  0  0
   -2.2820   -0.0080   -1.0720 C   0  0  0  0  0  0  0  0  0  0  0  0
   -3.4890    0.8050   -0.6520 C   0  0  0  0  0  0  0  0  0  0  0  0
   -3.5110    0.5710    0.8240 C   0  0  1  0  0  0  0  0  0  0  0  0
   -4.3610    1.5510    1.4710 N   0  0  0  0  0  0  0  0  0  0  0  0
   -4.0960   -0.7920    1.1340 C   0  0  0  0  0  0  0  0  0  0  0  0
   -5.3980   -0.9080    0.6560 O   0  0  0  0  0  0  0  0  0  0  0  0
   -2.0800    0.6880    1.2020 C   0  0  0  0  0  0  0  0  0  0  0  0
  1  2  1  0
  2  3  1  0
  3  4  2  0
  3  5  1  0
  5  6  1  1
  5  7  1  0
  7  8  1  0
  8  9  1  6
  8 10  1  0
  8 11  1  0
 11 12  1  0
 12 13  1  6
 12 14  1  0
 12 20  1  0
 14 15  1  0
 15 16  1  0
 16 17  1  1
 16 18  1  0
 16 20  1  0
 18 19  1  0
M  CHG  1   6   1
M  END
