
     RDKit          3D

 23 23  0  0  0  0  0  0  0  0999 V2000
    5.9620   -0.8130    1.7490 N   0  0  0  0  0  0  0  0  0  0  0  0
    4.9020   -0.5180    0.8540 C   0  0  0  0  0  0  0  0  0  0  0  0
    3.7770   -1.0110    1.1030 O   0  0  0  0  0  0  0  0  0  0  0  0
    5.1490    0.3310   -0.3030 C   0  0  0  0  0  0  0  0  0  0  0  0
    4.0980    0.5760   -1.1320 O   0  0  0  0  0  0  0  0  0  0  0  0
    3.0050    1.1870   -0.5960 C   0  0  1  0  0  0  0  0  0  0  0  0
    2.6540    2.4960   -1.2830 C   0  0  0  0  0  0  0  0  0  0  0  0
    2.3760    2.3020   -2.6350 O   0  0  0  0  0  0  0  0  0  0  0  0
    1.8290    0.3020   -0.7800 C   0  0  0  0  0  0  0  0  0  0  0  0
    1.9410   -0.8030   -1.3670 O   0  0  0  0  0  0  0  0  0  0  0  0
    0.5290    0.6330   -0.3180 N   0  0  0  0  0  0  0  0  0  0  0  0
   -0.5790   -0.1990   -0.4910 N   0  0  0  0  0  0  0  0  0  0  0  0
   -0.9920   -1.1840    0.4440 C   0  0  0  0  0  0  0  0  0  0  0  0
   -0.3050   -1.2970    1.4820 O   0  0  0  0  0  0  0  0  0  0  0  0
   -2.1820   -2.0200    0.1720 C   0  0  2  0  0  0  0  0  0  0  0  0
   -2.7420   -1.6490   -1.0820 O   0  0  0  0  0  0  0  0  0  0  0  0
   -3.6560   -0.6110   -0.8900 C   0  0  0  0  0  0  0  0  0  0  0  0
   -3.9780    0.2820   -1.7110 O   0  0  0  0  0  0  0  0  0  0  0  0
   -4.1720   -0.7570    0.4530 C   0  0  0  0  0  0  0  0  0  0  0  0
   -5.1960   -0.1390    1.0060 C   0  0  0  0  0  0  0  0  0  0  0  0
   -5.9780    0.8150    0.3080 N   0  0  0  0  0  0  0  0  0  0  0  0
   -3.3140   -1.7730    1.1460 C   0  0  1  0  0  0  0  0  0  0  0  0
   -4.1180   -2.9150    1.2910 O   0  0  0  0  0  0  0  0  0  0  0  0
  1  2  1  0
  2  3  2  0
  2  4  1  0
  4  5  1  0
  5  6  1  0
  6  7  1  6
  6  9  1  0
  7  8  1  0
  9 10  2  0
  9 11  1  0
 11 12  1  0
 12 13  1  0
 13 14  2  0
 15 13  1  1
 15 16  1  0
 15 22  1  0
 16 17  1  0
 17 18  2  0
 17 19  1  0
 19 20  2  3
 19 22  1  0
 20 21  1  0
 22 23  1  6
M  CHG  1  21   1
M  END
