
     RDKit          3D

 23 23  0  0  0  0  0  0  0  0999 V2000
    0.8590    0.7700   -2.9860 N   0  0  0  0  0  0  0  0  0  0  0  0
    0.8990    0.8540   -1.5080 C   0  0  1  0  0  0  0  0  0  0  0  0
    1.8500    1.9870   -1.1820 C   0  0  0  0  0  0  0  0  0  0  0  0
    3.2090    1.4610   -0.6610 C   0  0  1  0  0  0  0  0  0  0  0  0
    3.9780    2.6010   -0.4010 O   0  0  0  0  0  0  0  0  0  0  0  0
    2.9660    0.7730    0.6180 C   0  0  2  0  0  0  0  0  0  0  0  0
    3.7070    1.3240    1.7010 O   0  0  0  0  0  0  0  0  0  0  0  0
    3.1410   -0.7160    0.6140 C   0  0  0  0  0  0  0  0  0  0  0  0
    2.3020   -1.2540    1.5660 O   0  0  0  0  0  0  0  0  0  0  0  0
    1.6800   -2.4700    1.7800 C   0  0  0  0  0  0  0  0  0  0  0  0
    2.3100   -3.2880    2.6030 O   0  0  0  0  0  0  0  0  0  0  0  0
    0.4840   -2.9780    1.2330 N   0  0  0  0  0  0  0  0  0  0  0  0
   -0.1950   -2.6370    0.0630 C   0  0  0  0  0  0  0  0  0  0  0  0
   -0.6790   -3.6550   -0.6440 O   0  0  0  0  0  0  0  0  0  0  0  0
   -0.4370   -1.3900   -0.5210 N   0  0  0  0  0  0  0  0  0  0  0  0
   -1.0830   -0.1800   -0.2530 C   0  0  2  0  0  0  0  0  0  0  0  0
   -1.0010    0.1790    1.2620 C   0  0  0  0  0  0  0  0  0  0  0  0
   -1.6120   -0.8360    1.9890 O   0  0  0  0  0  0  0  0  0  0  0  0
   -2.5520   -0.1160   -0.5230 C   0  0  0  0  0  0  0  0  0  0  0  0
   -3.4690   -0.8540    0.4060 C   0  0  0  0  0  0  0  0  0  0  0  0
   -4.7310   -0.5760   -0.2070 O   0  0  0  0  0  0  0  0  0  0  0  0
   -5.4040    0.2260    0.6800 N   0  0  0  0  0  0  0  0  0  0  0  0
   -0.4830    1.0030   -0.9710 C   0  0  0  0  0  0  0  0  0  0  0  0
  2  1  1  6
  2  3  1  0
  2 23  1  0
  3  4  1  0
  4  5  1  1
  4  6  1  0
  6  7  1  1
  6  8  1  0
  8  9  1  0
  9 10  1  0
 10 11  2  0
 10 12  1  0
 12 13  1  0
 13 14  2  0
 13 15  1  0
 15 16  1  0
 16 17  1  1
 16 19  1  0
 16 23  1  0
 17 18  1  0
 19 20  1  0
 20 21  1  0
 21 22  1  0
M  CHG  1  22   1
M  END
