
     RDKit          3D

 23 23  0  0  0  0  0  0  0  0999 V2000
   -3.8990   -0.1940    1.6930 N   0  0  0  0  0  0  0  0  0  0  0  0
   -2.6740    0.3110    1.0780 C   0  0  0  0  0  0  0  0  0  0  0  0
   -2.7770    0.5860   -0.3770 C   0  0  1  0  0  0  0  0  0  0  0  0
   -3.9450    1.4410   -0.4780 O   0  0  0  0  0  0  0  0  0  0  0  0
   -1.6960    1.5770   -0.8210 C   0  0  0  0  0  0  0  0  0  0  0  0
   -0.3710    1.1750   -0.9160 N   0  0  0  0  0  0  0  0  0  0  0  0
    0.5730    0.7740    0.0350 C   0  0  0  0  0  0  0  0  0  0  0  0
    0.2840    0.7510    1.2370 O   0  0  0  0  0  0  0  0  0  0  0  0
    1.9740    0.3540   -0.3320 C   0  0  2  0  0  0  0  0  0  0  0  0
    2.6970    0.0060    0.8040 O   0  0  0  0  0  0  0  0  0  0  0  0
    3.7250   -0.8780    0.5430 C   0  0  2  0  0  0  0  0  0  0  0  0
    3.9730   -1.8110    1.7190 C   0  0  0  0  0  0  0  0  0  0  0  0
    5.0120   -2.6550    1.3680 O   0  0  0  0  0  0  0  0  0  0  0  0
    4.9770   -0.1510    0.1910 C   0  0  0  0  0  0  0  0  0  0  0  0
    6.0760   -0.6810    0.4550 O   0  0  0  0  0  0  0  0  0  0  0  0
    5.0720    1.1230   -0.4340 N   0  0  0  0  0  0  0  0  0  0  0  0
    4.0150    1.9270   -0.9210 N   0  0  0  0  0  0  0  0  0  0  0  0
    2.6320    1.5920   -0.8760 C   0  0  0  0  0  0  0  0  0  0  0  0
    1.8910    2.4810   -1.3700 O   0  0  0  0  0  0  0  0  0  0  0  0
   -2.9050   -0.5180   -1.3200 C   0  0  1  0  0  0  0  0  0  0  0  0
   -1.8040   -1.4070   -1.2940 O   0  0  0  0  0  0  0  0  0  0  0  0
   -4.1460   -1.3430   -1.3230 C   0  0  0  0  0  0  0  0  0  0  0  0
   -4.1530   -2.2200   -0.2600 O   0  0  0  0  0  0  0  0  0  0  0  0
  1  2  1  0
  2  3  1  0
  3  4  1  1
  3  5  1  0
  3 20  1  0
  5  6  1  0
  6  7  1  0
  7  8  2  0
  9  7  1  1
  9 10  1  0
  9 18  1  0
 10 11  1  0
 11 12  1  1
 11 14  1  0
 12 13  1  0
 14 15  2  0
 14 16  1  0
 16 17  1  0
 17 18  1  0
 18 19  2  0
 20 21  1  1
 20 22  1  0
 22 23  1  0
M  CHG  1   1   1
M  END
