
     RDKit          3D

 12 13  0  0  0  0  0  0  0  0999 V2000
    3.5930   -0.5500   -0.9990 O   0  0  0  0  0  0  0  0  0  0  0  0
    2.3130   -0.1560   -0.5860 C   0  0  0  0  0  0  0  0  0  0  0  0
    2.0610    1.0930   -0.0570 C   0  0  0  0  0  0  0  0  0  0  0  0
    0.7950    1.4700    0.3460 C   0  0  0  0  0  0  0  0  0  0  0  0
   -0.2670    0.5960    0.2300 C   0  0  0  0  0  0  0  0  0  0  0  0
   -1.5510    0.9210    0.6170 C   0  0  0  0  0  0  0  0  0  0  0  0
   -2.5970    0.0250    0.4890 C   0  0  0  0  0  0  0  0  0  0  0  0
   -4.2330    0.4430    0.9840 Cl  0  0  0  0  0  0  0  0  0  0  0  0
   -2.3320   -1.2180   -0.0400 C   0  0  0  0  0  0  0  0  0  0  0  0
   -1.0440   -1.5310   -0.4230 C   0  0  0  0  0  0  0  0  0  0  0  0
    0.0150   -0.6490   -0.3030 C   0  0  0  0  0  0  0  0  0  0  0  0
    1.2690   -0.9920   -0.6910 N   0  0  0  0  0  0  0  0  0  0  0  0
  1  2  1  0
  2  3  2  0
  2 12  1  0
  3  4  1  0
  4  5  2  0
  5  6  1  0
  5 11  1  0
  6  7  2  0
  7  8  1  0
  7  9  1  0
  9 10  2  0
 10 11  1  0
 11 12  2  0
M  END
