
     RDKit          3D

 12 13  0  0  0  0  0  0  0  0999 V2000
    0.8290   -2.8020    0.3010 O   0  0  0  0  0  0  0  0  0  0  0  0
    1.0310   -1.5540    0.2050 C   0  0  0  0  0  0  0  0  0  0  0  0
    2.2680   -1.0260    0.2420 N   0  0  0  0  0  0  0  0  0  0  0  0
    2.4120    0.3070    0.1350 C   0  0  0  0  0  0  0  0  0  0  0  0
    1.3750    1.1740   -0.0110 C   0  0  0  0  0  0  0  0  0  0  0  0
    1.5610    2.9050   -0.1500 Cl  0  0  0  0  0  0  0  0  0  0  0  0
    0.0820    0.6560   -0.0520 C   0  0  0  0  0  0  0  0  0  0  0  0
   -1.0200    1.4770   -0.1980 C   0  0  0  0  0  0  0  0  0  0  0  0
   -2.3070    0.9790   -0.2400 C   0  0  0  0  0  0  0  0  0  0  0  0
   -2.4480   -0.3880   -0.1300 C   0  0  0  0  0  0  0  0  0  0  0  0
   -1.3500   -1.2100    0.0150 C   0  0  0  0  0  0  0  0  0  0  0  0
   -0.0580   -0.7130    0.0590 C   0  0  0  0  0  0  0  0  0  0  0  0
  1  2  2  0
  2  3  1  0
  2 12  1  0
  3  4  1  0
  4  5  2  0
  5  6  1  0
  5  7  1  0
  7  8  2  0
  7 12  1  0
  8  9  1  0
  9 10  2  0
 10 11  1  0
 11 12  2  0
M  END
