
     RDKit          3D

 12 13  0  0  0  0  0  0  0  0999 V2000
   -1.6210   -1.8590    0.1310 C   0  0  0  0  0  0  0  0  0  0  0  0
   -1.6830   -0.3760    0.0470 C   0  0  0  0  0  0  0  0  0  0  0  0
   -2.7970    0.3190    0.0270 O   0  0  0  0  0  0  0  0  0  0  0  0
   -2.5670    1.5910   -0.0510 C   0  0  0  0  0  0  0  0  0  0  0  0
   -3.7150    2.9230   -0.1070 Cl  0  0  0  0  0  0  0  0  0  0  0  0
   -1.1970    1.7800   -0.0850 C   0  0  0  0  0  0  0  0  0  0  0  0
   -0.6510    0.5060   -0.0210 C   0  0  0  0  0  0  0  0  0  0  0  0
    0.7790    0.2060   -0.0290 C   0  0  0  0  0  0  0  0  0  0  0  0
    1.4110   -0.7720   -0.7670 C   0  0  0  0  0  0  0  0  0  0  0  0
    2.7600   -0.7200   -0.4840 C   0  0  0  0  0  0  0  0  0  0  0  0
    2.9710    0.2760    0.4190 N   0  0  0  0  0  0  0  0  0  0  0  0
    1.7740    0.8330    0.6920 C   0  0  0  0  0  0  0  0  0  0  0  0
  1  2  1  0
  2  3  1  0
  2  7  2  0
  3  4  1  0
  4  5  1  0
  4  6  2  0
  6  7  1  0
  7  8  1  0
  8  9  1  0
  8 12  2  0
  9 10  2  0
 10 11  1  0
 11 12  1  0
M  END
