
     RDKit          3D

 11 12  0  0  0  0  0  0  0  0999 V2000
   -2.9970    0.8600   -0.5970 N   0  0  0  0  0  0  0  0  0  0  0  0
   -1.7160    0.3350   -0.2390 C   0  0  0  0  0  0  0  0  0  0  0  0
   -1.6170   -0.8260    0.5000 C   0  0  0  0  0  0  0  0  0  0  0  0
   -0.4110   -1.3530    0.8580 N   0  0  0  0  0  0  0  0  0  0  0  0
    0.7270   -0.7370    0.4880 C   0  0  0  0  0  0  0  0  0  0  0  0
    2.0390   -1.0010    0.6810 N   0  0  0  0  0  0  0  0  0  0  0  0
    2.7860   -0.0530    0.0940 C   0  0  0  0  0  0  0  0  0  0  0  0
    4.0570    0.0210    0.0710 O   0  0  0  0  0  0  0  0  0  0  0  0
    1.9210    0.8080   -0.4690 N   0  0  0  0  0  0  0  0  0  0  0  0
    0.6490    0.4260   -0.2510 C   0  0  0  0  0  0  0  0  0  0  0  0
   -0.5630    0.9310   -0.5950 N   0  0  0  0  0  0  0  0  0  0  0  0
  1  2  1  0
  2  3  2  0
  2 11  1  0
  3  4  1  0
  4  5  2  0
  5  6  1  0
  5 10  1  0
  6  7  1  0
  7  8  2  0
  7  9  1  0
  9 10  1  0
 10 11  2  0
M  END
