
     RDKit          3D

 38 41  0  0  0  0  0  0  0  0999 V2000
    7.6740   -1.7540   -0.0130 C   0  0  0  0  0  0  0  0  0  0  0  0
    7.4560   -0.2660   -0.0960 C   0  0  0  0  0  0  0  0  0  0  0  0
    6.4530    0.4290   -0.2500 C   0  0  0  0  0  0  0  0  0  0  0  0
    5.3970    1.2680   -0.4150 C   0  0  0  0  0  0  0  0  0  0  0  0
    5.7880    2.6840   -0.9760 C   0  0  0  0  0  0  0  0  0  0  0  0
    4.0870    1.0570   -0.4370 C   0  0  0  0  0  0  0  0  0  0  0  0
    3.5090   -0.2500   -0.2420 C   0  0  0  0  0  0  0  0  0  0  0  0
    4.0990   -1.2960    0.0580 O   0  0  0  0  0  0  0  0  0  0  0  0
    2.0380   -0.4120   -0.3950 N   0  0  0  0  0  0  0  0  0  0  0  0
    1.4770   -1.6540   -0.0660 C   0  0  0  0  0  0  0  0  0  0  0  0
    0.1760   -2.1030   -0.4840 C   0  0  0  0  0  0  0  0  0  0  0  0
    0.0520   -3.2730   -1.1370 O   0  0  0  0  0  0  0  0  0  0  0  0
   -1.1500   -3.5480   -1.4140 N   0  0  0  0  0  0  0  0  0  0  0  0
   -1.9280   -2.5850   -0.9730 C   0  0  0  0  0  0  0  0  0  0  0  0
   -1.0880   -1.6380   -0.3720 C   0  0  0  0  0  0  0  0  0  0  0  0
   -1.5090   -0.3310    0.1200 C   0  0  0  0  0  0  0  0  0  0  0  0
   -0.7120    0.6070    0.2780 O   0  0  0  0  0  0  0  0  0  0  0  0
   -2.8740   -0.1160    0.4100 N   0  0  0  0  0  0  0  0  0  0  0  0
   -3.5120    1.0470    0.7720 N   0  0  0  0  0  0  0  0  0  0  0  0
   -3.0600    2.2860    0.7460 C   0  0  0  0  0  0  0  0  0  0  0  0
   -1.8920    2.5890    0.3650 O   0  0  0  0  0  0  0  0  0  0  0  0
   -3.7940    3.3660    1.1210 N   0  0  0  0  0  0  0  0  0  0  0  0
   -5.0400    3.2260    1.5450 C   0  0  0  0  0  0  0  0  0  0  0  0
   -5.7950    4.3390    1.9150 C   0  0  0  0  0  0  0  0  0  0  0  0
   -7.1070    4.1370    2.3430 C   0  0  0  0  0  0  0  0  0  0  0  0
   -7.6320    2.8680    2.3970 C   0  0  0  0  0  0  0  0  0  0  0  0
   -6.8830    1.7700    2.0280 C   0  0  0  0  0  0  0  0  0  0  0  0
   -5.5840    1.9540    1.6010 C   0  0  0  0  0  0  0  0  0  0  0  0
   -4.8010    0.8990    1.2090 C   0  0  0  0  0  0  0  0  0  0  0  0
   -5.3570   -0.2460    1.2840 O   0  0  0  0  0  0  0  0  0  0  0  0
   -3.3430   -2.8810   -1.2840 C   0  0  0  0  0  0  0  0  0  0  0  0
   -3.2570   -4.0030   -2.2890 C   0  0  1  0  0  0  0  0  0  0  0  0
   -3.2560   -3.4290   -3.6200 N   0  0  0  0  0  0  0  0  0  0  0  0
   -1.9280   -4.6260   -2.0380 C   0  0  0  0  0  0  0  0  0  0  0  0
    7.0240    1.3400    1.2070 C   0  0  0  0  0  0  0  0  0  0  0  0
    8.2050    0.9290    1.5600 F   0  0  0  0  0  0  0  0  0  0  0  0
    6.2880    2.1900    1.6690 C   0  0  0  0  0  0  0  0  0  0  0  0
    5.0740    2.6970    1.4130 F   0  0  0  0  0  0  0  0  0  0  0  0
  1  2  1  0
  2  3  2  3
  3  4  1  0
  3 35  1  0
  4  5  1  0
  4  6  2  3
  6  7  1  0
  7  8  2  0
  7  9  1  0
  9 10  1  0
 10 11  1  0
 11 12  1  0
 11 15  2  0
 12 13  1  0
 13 14  2  0
 13 34  1  0
 14 15  1  0
 14 31  1  0
 15 16  1  0
 16 17  2  0
 16 18  1  0
 18 19  1  0
 19 20  1  0
 19 29  1  0
 20 21  2  0
 20 22  1  0
 22 23  1  0
 23 24  2  0
 23 28  1  0
 24 25  1  0
 25 26  2  0
 26 27  1  0
 27 28  2  0
 28 29  1  0
 29 30  2  0
 31 32  1  0
 32 33  1  6
 32 34  1  0
 35 36  1  0
 35 37  2  3
 37 38  1  0
M  CHG  1  13   1
M  END
