
     RDKit          3D

 38 40  0  0  0  0  0  0  0  0999 V2000
    8.8510   -1.2940    2.5090 C   0  0  0  0  0  0  0  0  0  0  0  0
    7.7360   -0.9860    1.9330 C   0  0  0  0  0  0  0  0  0  0  0  0
    6.7700   -1.9080    1.8800 F   0  0  0  0  0  0  0  0  0  0  0  0
    7.5070    0.3340    1.2910 C   0  0  0  0  0  0  0  0  0  0  0  0
    8.4660    1.1170    1.3080 N   0  0  0  0  0  0  0  0  0  0  0  0
    8.6300    2.4310    0.8190 C   0  0  0  0  0  0  0  0  0  0  0  0
    6.2090    0.5310    0.6010 C   0  0  0  0  0  0  0  0  0  0  0  0
    5.1050   -0.1890    0.9230 N   0  0  0  0  0  0  0  0  0  0  0  0
    4.0200    0.2910    0.2080 C   0  0  0  0  0  0  0  0  0  0  0  0
    2.9230   -0.2300    0.3530 N   0  0  0  0  0  0  0  0  0  0  0  0
    1.6200   -0.3760    0.1170 C   0  0  0  0  0  0  0  0  0  0  0  0
    0.9640   -1.1290    0.9390 O   0  0  0  0  0  0  0  0  0  0  0  0
    0.8420    0.2240   -0.9820 C   0  0  0  0  0  0  0  0  0  0  0  0
   -0.4490    0.0570   -1.1940 O   0  0  0  0  0  0  0  0  0  0  0  0
   -1.4470   -0.8240   -1.4180 C   0  0  0  0  0  0  0  0  0  0  0  0
   -1.5440   -1.3410   -2.7330 C   0  0  0  0  0  0  0  0  0  0  0  0
   -0.6010   -0.8930   -3.6230 F   0  0  0  0  0  0  0  0  0  0  0  0
   -2.5040   -2.2190   -3.0860 C   0  0  0  0  0  0  0  0  0  0  0  0
   -3.4110   -2.6290   -2.1590 C   0  0  0  0  0  0  0  0  0  0  0  0
   -3.3610   -2.1500   -0.8460 C   0  0  0  0  0  0  0  0  0  0  0  0
   -4.3270   -2.6520   -0.0120 O   0  0  0  0  0  0  0  0  0  0  0  0
   -5.3200   -3.5720   -0.4020 C   0  0  0  0  0  0  0  0  0  0  0  0
   -2.3950   -1.2540   -0.4670 C   0  0  0  0  0  0  0  0  0  0  0  0
   -2.2950   -0.7820    0.9110 C   0  0  0  0  0  0  0  0  0  0  0  0
   -3.4690   -1.1160    1.6540 O   0  0  0  0  0  0  0  0  0  0  0  0
   -4.6900   -0.4800    1.3420 C   0  0  0  0  0  0  0  0  0  0  0  0
   -4.7360    0.4610    0.3250 C   0  0  0  0  0  0  0  0  0  0  0  0
   -5.9130    1.1030   -0.0030 C   0  0  0  0  0  0  0  0  0  0  0  0
   -7.0670    0.8150    0.6790 C   0  0  0  0  0  0  0  0  0  0  0  0
   -8.2740    1.4330    0.3870 O   0  0  0  0  0  0  0  0  0  0  0  0
   -8.2760    2.3970   -0.6670 C   0  0  0  0  0  0  0  0  0  0  0  0
   -7.0600   -0.1290    1.7110 C   0  0  0  0  0  0  0  0  0  0  0  0
   -8.2350   -0.4450    2.4360 N   0  0  0  0  0  0  0  0  0  0  0  0
   -5.8510   -0.7560    2.0120 C   0  0  0  0  0  0  0  0  0  0  0  0
    4.4290    1.3020   -0.5570 N   0  0  0  0  0  0  0  0  0  0  0  0
    3.6680    2.1270   -1.4710 C   0  0  0  0  0  0  0  0  0  0  0  0
    5.7720    1.4340   -0.3050 C   0  0  0  0  0  0  0  0  0  0  0  0
    6.5320    2.3920   -1.0230 N   0  0  0  0  0  0  0  0  0  0  0  0
  1  2  2  0
  2  3  1  0
  2  4  1  0
  4  5  2  3
  4  7  1  0
  5  6  1  0
  7  8  1  0
  7 37  2  0
  8  9  1  0
  9 10  2  3
  9 35  1  0
 10 11  1  0
 11 12  2  0
 11 13  1  0
 13 14  1  0
 14 15  1  0
 15 16  2  0
 15 23  1  0
 16 17  1  0
 16 18  1  0
 18 19  2  0
 19 20  1  0
 20 21  1  0
 20 23  2  0
 21 22  1  0
 23 24  1  0
 24 25  1  0
 25 26  1  0
 26 27  2  0
 26 34  1  0
 27 28  1  0
 28 29  2  0
 29 30  1  0
 29 32  1  0
 30 31  1  0
 32 33  1  0
 32 34  2  0
 35 36  1  0
 35 37  1  0
 37 38  1  0
M  CHG  1   5   1
M  END
