
     RDKit          3D

 38 41  0  0  0  0  0  0  0  0999 V2000
   -4.1710   -2.6310    2.5440 N   0  0  0  0  0  0  0  0  0  0  0  0
   -3.9820   -3.6000    1.5070 C   0  0  0  0  0  0  0  0  0  0  0  0
   -4.0990   -3.0530    0.1350 C   0  0  0  0  0  0  0  0  0  0  0  0
   -4.1520   -3.9630   -0.9020 C   0  0  0  0  0  0  0  0  0  0  0  0
   -4.2510   -3.4980   -2.1960 C   0  0  0  0  0  0  0  0  0  0  0  0
   -4.2940   -2.1200   -2.4170 C   0  0  0  0  0  0  0  0  0  0  0  0
   -4.2440   -1.1910   -1.4270 C   0  0  0  0  0  0  0  0  0  0  0  0
   -4.2590    0.2170   -1.5560 N   0  0  0  0  0  0  0  0  0  0  0  0
   -4.2340    0.9350   -2.7700 C   0  0  0  0  0  0  0  0  0  0  0  0
   -4.2100    0.3070   -3.8640 O   0  0  0  0  0  0  0  0  0  0  0  0
   -4.2340    2.4500   -2.8080 C   0  0  0  0  0  0  0  0  0  0  0  0
   -4.0310    2.9250   -1.5270 O   0  0  0  0  0  0  0  0  0  0  0  0
   -2.8630    2.6820   -0.8330 C   0  0  0  0  0  0  0  0  0  0  0  0
   -2.7180    3.1650    0.4740 C   0  0  0  0  0  0  0  0  0  0  0  0
   -1.5340    2.8920    1.1180 C   0  0  0  0  0  0  0  0  0  0  0  0
   -0.5090    2.1710    0.5180 C   0  0  0  0  0  0  0  0  0  0  0  0
   -0.6490    1.6990   -0.7590 C   0  0  0  0  0  0  0  0  0  0  0  0
    0.3440    0.9500   -1.4350 N   0  0  0  0  0  0  0  0  0  0  0  0
    1.4960    0.6170   -0.7430 N   0  0  0  0  0  0  0  0  0  0  0  0
    2.4460    1.4570   -0.6040 C   0  0  0  0  0  0  0  0  0  0  0  0
    2.3610    2.7970   -1.1680 C   0  0  0  0  0  0  0  0  0  0  0  0
    1.3820    3.2030   -1.8450 O   0  0  0  0  0  0  0  0  0  0  0  0
    3.4720    3.6740   -0.9200 N   0  0  0  0  0  0  0  0  0  0  0  0
    4.5920    3.2450   -0.1610 C   0  0  0  0  0  0  0  0  0  0  0  0
    5.5720    4.0170    0.0600 O   0  0  0  0  0  0  0  0  0  0  0  0
    4.6870    1.9050    0.4070 C   0  0  0  0  0  0  0  0  0  0  0  0
    5.7880    1.5070    1.1360 C   0  0  0  0  0  0  0  0  0  0  0  0
    5.8300    0.2090    1.6490 C   0  0  0  0  0  0  0  0  0  0  0  0
    6.9420   -0.1670    2.3790 O   0  0  0  0  0  0  0  0  0  0  0  0
    7.2110   -1.3880    2.9660 C   0  0  0  0  0  0  0  0  0  0  0  0
    7.3010   -2.5660    2.0340 C   0  0  2  0  0  0  0  0  0  0  0  0
    6.1580   -2.7940    1.3380 F   0  0  0  0  0  0  0  0  0  0  0  0
    7.6340   -3.6990    2.7800 F   0  0  0  0  0  0  0  0  0  0  0  0
    4.7790   -0.5990    1.4040 N   0  0  0  0  0  0  0  0  0  0  0  0
    3.7090   -0.2300    0.7040 C   0  0  0  0  0  0  0  0  0  0  0  0
    3.6360    1.0490    0.1820 C   0  0  0  0  0  0  0  0  0  0  0  0
   -1.8340    1.9720   -1.4040 C   0  0  0  0  0  0  0  0  0  0  0  0
   -4.1440   -1.7000   -0.1260 C   0  0  0  0  0  0  0  0  0  0  0  0
  1  2  1  0
  2  3  1  0
  3  4  2  0
  3 38  1  0
  4  5  1  0
  5  6  2  0
  6  7  1  0
  7  8  1  0
  7 38  2  0
  8  9  1  0
  9 10  2  0
  9 11  1  0
 11 12  1  0
 12 13  1  0
 13 14  2  0
 13 37  1  0
 14 15  1  0
 15 16  2  0
 16 17  1  0
 17 18  1  0
 17 37  2  0
 18 19  1  0
 19 20  2  3
 20 21  1  0
 20 36  1  0
 21 22  2  0
 21 23  1  0
 23 24  1  0
 24 25  2  0
 24 26  1  0
 26 27  2  0
 26 36  1  0
 27 28  1  0
 28 29  1  0
 28 34  2  0
 29 30  1  0
 30 31  1  0
 31 32  1  1
 31 33  1  0
 34 35  1  0
 35 36  2  0
M  CHG  1   1   1
M  END
