
     RDKit          3D

 38 41  0  0  0  0  0  0  0  0999 V2000
   -5.9610    0.1230   -1.7570 C   0  0  0  0  0  0  0  0  0  0  0  0
   -5.1810    0.1690   -0.5130 C   0  0  0  0  0  0  0  0  0  0  0  0
   -3.9890    1.0620   -0.3950 C   0  0  2  0  0  0  0  0  0  0  0  0
   -4.3100    2.4190   -0.5630 N   0  0  0  0  0  0  0  0  0  0  0  0
   -4.7080    3.0720   -1.7490 C   0  0  0  0  0  0  0  0  0  0  0  0
   -4.7880    2.4280   -2.7970 O   0  0  0  0  0  0  0  0  0  0  0  0
   -2.9350    0.6180   -1.4030 C   0  0  0  0  0  0  0  0  0  0  0  0
   -2.3560   -0.7310   -1.0150 C   0  0  0  0  0  0  0  0  0  0  0  0
   -1.7410   -0.7150    0.2520 N   0  0  0  0  0  0  0  0  0  0  0  0
   -0.7450   -1.6290    0.6570 C   0  0  0  0  0  0  0  0  0  0  0  0
    0.5330   -1.1630    0.8860 N   0  0  0  0  0  0  0  0  0  0  0  0
    1.5290   -1.9260    1.2990 C   0  0  0  0  0  0  0  0  0  0  0  0
    2.8930   -1.5060    1.5760 C   0  0  0  0  0  0  0  0  0  0  0  0
    3.8300   -2.4070    2.0790 C   0  0  0  0  0  0  0  0  0  0  0  0
    5.1150   -2.0090    2.3720 C   0  0  0  0  0  0  0  0  0  0  0  0
    6.0340   -2.8840    2.8600 F   0  0  0  0  0  0  0  0  0  0  0  0
    5.5030   -0.7020    2.1750 C   0  0  0  0  0  0  0  0  0  0  0  0
    4.5740    0.2170    1.6700 C   0  0  0  0  0  0  0  0  0  0  0  0
    3.2740   -0.2010    1.3740 C   0  0  0  0  0  0  0  0  0  0  0  0
    2.2760    0.7560    0.8470 C   0  0  0  0  0  0  0  0  0  0  0  0
    2.8680    2.0080    0.6390 O   0  0  0  0  0  0  0  0  0  0  0  0
    3.8580    2.3220   -0.2630 C   0  0  0  0  0  0  0  0  0  0  0  0
    4.4380    1.4510   -1.1630 C   0  0  0  0  0  0  0  0  0  0  0  0
    5.4240    1.8220   -2.0390 C   0  0  0  0  0  0  0  0  0  0  0  0
    6.0040    0.9250   -2.9500 O   0  0  0  0  0  0  0  0  0  0  0  0
    5.8590    3.1320   -2.0220 C   0  0  0  0  0  0  0  0  0  0  0  0
    5.2950    4.0350   -1.1270 C   0  0  0  0  0  0  0  0  0  0  0  0
    5.7110    5.3060   -1.1020 F   0  0  0  0  0  0  0  0  0  0  0  0
    4.3050    3.6320   -0.2580 C   0  0  0  0  0  0  0  0  0  0  0  0
    3.7640    4.5760    0.6250 O   0  0  0  0  0  0  0  0  0  0  0  0
    1.2160   -3.2520    1.4930 N   0  0  0  0  0  0  0  0  0  0  0  0
   -0.0130   -3.7300    1.2770 C   0  0  0  0  0  0  0  0  0  0  0  0
   -0.3010   -4.9560    1.4570 O   0  0  0  0  0  0  0  0  0  0  0  0
   -1.0260   -2.9190    0.8510 N   0  0  0  0  0  0  0  0  0  0  0  0
   -2.3320   -3.4990    0.6440 C   0  0  0  0  0  0  0  0  0  0  0  0
   -2.4840   -4.0700   -0.6890 N   0  0  0  0  0  0  0  0  0  0  0  0
   -2.1220    0.3270    1.1770 C   0  0  0  0  0  0  0  0  0  0  0  0
   -3.4780    0.8780    1.0330 C   0  0  0  0  0  0  0  0  0  0  0  0
  1  2  1  0
  3  2  1  1
  3  4  1  0
  3  7  1  0
  3 38  1  0
  4  5  1  0
  5  6  2  0
  7  8  1  0
  8  9  1  0
  9 10  1  0
  9 37  1  0
 10 11  2  0
 10 34  1  0
 11 12  1  0
 12 13  1  0
 12 31  2  0
 13 14  2  0
 13 19  1  0
 14 15  1  0
 15 16  1  0
 15 17  2  0
 17 18  1  0
 18 19  2  0
 19 20  1  0
 20 21  1  0
 21 22  1  0
 22 23  2  0
 22 29  1  0
 23 24  1  0
 24 25  1  0
 24 26  2  0
 26 27  1  0
 27 28  1  0
 27 29  2  0
 29 30  1  0
 31 32  1  0
 32 33  2  0
 32 34  1  0
 34 35  1  0
 35 36  1  0
 37 38  1  0
M  CHG  1  36   1
M  END
