
     RDKit          3D

 37 40  0  0  0  0  0  0  0  0999 V2000
    8.3090   -3.4640    2.4030 O   0  0  0  0  0  0  0  0  0  0  0  0
    9.1710   -3.6260    1.6420 C   0  0  0  0  0  0  0  0  0  0  0  0
    9.0610   -2.5950    0.2280 N   0  0  0  0  0  0  0  0  0  0  0  0
    7.9060   -1.9300    0.6070 C   0  0  0  0  0  0  0  0  0  0  0  0
    7.1160   -1.9620    1.5110 O   0  0  0  0  0  0  0  0  0  0  0  0
    7.6570   -0.9140   -0.4580 N   0  0  0  0  0  0  0  0  0  0  0  0
    6.6260   -0.0190   -0.4990 C   0  0  0  0  0  0  0  0  0  0  0  0
    6.7640    1.0950   -1.3700 C   0  0  0  0  0  0  0  0  0  0  0  0
    5.8070    2.0360   -1.4600 C   0  0  0  0  0  0  0  0  0  0  0  0
    4.6590    1.8920   -0.6640 C   0  0  0  0  0  0  0  0  0  0  0  0
    4.4770    0.8370    0.1900 C   0  0  0  0  0  0  0  0  0  0  0  0
    5.4830   -0.1070    0.2500 C   0  0  0  0  0  0  0  0  0  0  0  0
    3.3310    0.7430    0.9510 O   0  0  0  0  0  0  0  0  0  0  0  0
    2.2930    1.6530    0.9430 C   0  0  0  0  0  0  0  0  0  0  0  0
    1.0880    1.5380    1.7510 C   0  0  0  0  0  0  0  0  0  0  0  0
    0.2490    0.4280    1.6620 N   0  0  0  0  0  0  0  0  0  0  0  0
    0.3080   -0.5040    0.5960 C   0  0  0  0  0  0  0  0  0  0  0  0
    0.2460    0.1130   -0.7740 C   0  0  0  0  0  0  0  0  0  0  0  0
   -0.9250    0.9110   -0.9600 N   0  0  0  0  0  0  0  0  0  0  0  0
   -2.2580    0.3880   -0.9180 C   0  0  0  0  0  0  0  0  0  0  0  0
   -2.4090   -0.8490   -0.7170 O   0  0  0  0  0  0  0  0  0  0  0  0
   -3.3730    1.1900   -1.0910 N   0  0  0  0  0  0  0  0  0  0  0  0
   -4.7420    0.5510   -1.0670 N   0  0  0  0  0  0  0  0  0  0  0  0
   -5.0430   -0.0080    0.1420 C   0  0  0  0  0  0  0  0  0  0  0  0
   -4.0310    0.1780    1.0180 O   0  0  0  0  0  0  0  0  0  0  0  0
   -6.1260   -0.7440    0.7540 C   0  0  0  0  0  0  0  0  0  0  0  0
   -5.9560   -1.1800    2.0980 C   0  0  0  0  0  0  0  0  0  0  0  0
   -6.9350   -1.8760    2.7250 C   0  0  0  0  0  0  0  0  0  0  0  0
   -8.1330   -2.2020    2.1190 C   0  0  0  0  0  0  0  0  0  0  0  0
   -8.3120   -1.7890    0.8210 C   0  0  0  0  0  0  0  0  0  0  0  0
   -9.4850   -2.0770    0.1650 F   0  0  0  0  0  0  0  0  0  0  0  0
   -7.3170   -1.0850    0.1970 C   0  0  0  0  0  0  0  0  0  0  0  0
   -5.2970    0.7460   -2.3550 C   0  0  1  0  0  0  0  0  0  0  0  0
   -5.9290   -0.4280   -3.0550 C   0  0  0  0  0  0  0  0  0  0  0  0
   -6.6790    0.8250   -2.8000 C   0  0  0  0  0  0  0  0  0  0  0  0
    2.4540    2.7010    0.1130 C   0  0  0  0  0  0  0  0  0  0  0  0
    3.6060    2.9350   -0.7430 C   0  0  0  0  0  0  0  0  0  0  0  0
  1  2  2  0
  2  3  1  0
  3  4  1  0
  4  5  2  0
  4  6  1  0
  6  7  1  0
  7  8  2  0
  7 12  1  0
  8  9  1  0
  9 10  2  0
 10 11  1  0
 10 37  1  0
 11 12  2  0
 11 13  1  0
 13 14  1  0
 14 15  1  0
 14 36  2  0
 15 16  1  0
 16 17  1  0
 17 18  1  0
 18 19  1  0
 19 20  1  0
 20 21  2  0
 20 22  1  0
 22 23  1  0
 23 24  1  0
 33 23  1  1
 24 25  2  0
 24 26  1  0
 26 27  2  0
 26 32  1  0
 27 28  1  0
 28 29  2  0
 29 30  1  0
 30 31  1  0
 30 32  2  0
 33 34  1  0
 33 35  1  0
 34 35  1  0
 36 37  1  0
M  CHG  1  16   1
M  END
