
     RDKit          3D

 40 43  0  0  0  0  0  0  0  0999 V2000
   -4.1850    4.4280    2.1910 C   0  0  0  0  0  0  0  0  0  0  0  0
   -3.0010    3.5150    2.2490 C   0  0  0  0  0  0  0  0  0  0  0  0
   -2.3370    3.3140    0.9020 C   0  0  0  0  0  0  0  0  0  0  0  0
   -3.2290    2.7300   -0.1100 C   0  0  2  0  0  0  0  0  0  0  0  0
   -3.8520    1.1000    0.3490 S   0  0  0  0  0  0  0  0  0  0  0  0
   -3.1170   -0.2620   -0.6060 C   0  0  1  0  0  0  0  0  0  0  0  0
   -4.0750   -1.3530   -0.8370 C   0  0  0  0  0  0  0  0  0  0  0  0
   -4.3950   -1.7380   -1.9740 O   0  0  0  0  0  0  0  0  0  0  0  0
   -4.6950   -2.0370    0.2170 O   0  0  0  0  0  0  0  0  0  0  0  0
   -5.6180   -3.0910   -0.0120 C   0  0  1  0  0  0  0  0  0  0  0  0
   -5.2050   -4.3940    0.5840 C   0  0  0  0  0  0  0  0  0  0  0  0
   -6.9550   -2.6370    0.5490 C   0  0  0  0  0  0  0  0  0  0  0  0
   -8.0170   -3.6920    0.3570 C   0  0  0  0  0  0  0  0  0  0  0  0
   -2.3600    0.1420   -1.7840 C   0  0  1  0  0  0  0  0  0  0  0  0
   -0.9210   -0.3340   -1.6200 C   0  0  0  0  0  0  0  0  0  0  0  0
   -0.5720   -1.4060   -2.1650 O   0  0  0  0  0  0  0  0  0  0  0  0
    0.0200    0.3900   -0.8800 N   0  0  0  0  0  0  0  0  0  0  0  0
    1.3780    0.0660   -0.6360 C   0  0  0  0  0  0  0  0  0  0  0  0
    2.2210    1.0910   -0.1600 C   0  0  0  0  0  0  0  0  0  0  0  0
    3.5390    0.7930    0.0990 C   0  0  0  0  0  0  0  0  0  0  0  0
    4.0800   -0.4500   -0.0800 C   0  0  0  0  0  0  0  0  0  0  0  0
    5.3640   -0.7630    0.1700 O   0  0  0  0  0  0  0  0  0  0  0  0
    6.4320   -0.0360    0.6790 C   0  0  1  0  0  0  0  0  0  0  0  0
    6.7210    1.2070   -0.1200 C   0  0  0  0  0  0  0  0  0  0  0  0
    6.2160    0.3090    2.1200 C   0  0  0  0  0  0  0  0  0  0  0  0
    7.3260    1.1040    2.7230 C   0  0  0  0  0  0  0  0  0  0  0  0
    6.9530    1.3700    4.0700 O   0  0  0  0  0  0  0  0  0  0  0  0
    7.6460   -0.9430    0.5820 C   0  0  0  0  0  0  0  0  0  0  0  0
    8.7620   -0.5190    0.9080 O   0  0  0  0  0  0  0  0  0  0  0  0
    7.5050   -2.2360    0.1320 O   0  0  0  0  0  0  0  0  0  0  0  0
    8.5680   -3.1580    0.0050 C   0  0  0  0  0  0  0  0  0  0  0  0
    3.2430   -1.4510   -0.5480 C   0  0  0  0  0  0  0  0  0  0  0  0
    1.8940   -1.1790   -0.8230 C   0  0  0  0  0  0  0  0  0  0  0  0
   -2.7420   -0.4580   -3.1430 C   0  0  0  0  0  0  0  0  0  0  0  0
   -1.7650    0.3840   -4.0350 C   0  0  0  0  0  0  0  0  0  0  0  0
   -2.0520    1.7400   -3.4140 C   0  0  0  0  0  0  0  0  0  0  0  0
   -2.1370    3.0720   -3.5820 N   0  0  0  0  0  0  0  0  0  0  0  0
   -2.5480    3.6260   -2.4250 N   0  0  0  0  0  0  0  0  0  0  0  0
   -2.7320    2.6640   -1.4980 C   0  0  0  0  0  0  0  0  0  0  0  0
   -2.4210    1.5370   -2.1280 C   0  0  0  0  0  0  0  0  0  0  0  0
  1  2  1  0
  2  3  1  0
  4  3  1  1
  4  5  1  0
  4 39  1  0
  5  6  1  0
  6  7  1  6
  6 14  1  0
  7  8  2  0
  7  9  1  0
  9 10  1  0
 10 11  1  1
 10 12  1  0
 12 13  1  0
 14 15  1  1
 14 34  1  0
 14 40  1  0
 15 16  2  0
 15 17  1  0
 17 18  1  0
 18 19  2  0
 18 33  1  0
 19 20  1  0
 20 21  2  0
 21 22  1  0
 21 32  1  0
 22 23  1  0
 23 24  1  6
 23 25  1  0
 23 28  1  0
 25 26  1  0
 26 27  1  0
 28 29  2  0
 28 30  1  0
 30 31  1  0
 32 33  2  0
 34 35  1  0
 35 36  1  0
 36 37  1  0
 36 40  2  0
 37 38  1  0
 38 39  2  0
 39 40  1  0
M  END
