
     RDKit          3D

 40 42  0  0  0  0  0  0  0  0999 V2000
   -2.1560   -1.3780   -2.6510 C   0  0  0  0  0  0  0  0  0  0  0  0
   -3.2440   -1.2770   -1.2230 S   0  0  0  0  0  0  0  0  0  0  0  0
   -4.8130   -0.5900   -1.6020 C   0  0  0  0  0  0  0  0  0  0  0  0
   -5.7350   -0.4190   -0.5830 C   0  0  0  0  0  0  0  0  0  0  0  0
   -5.3200   -0.8210    0.6800 N   0  0  0  0  0  0  0  0  0  0  0  0
   -5.9540   -0.8020    1.9300 C   0  0  0  0  0  0  0  0  0  0  0  0
   -7.1150   -0.3440    1.9840 O   0  0  0  0  0  0  0  0  0  0  0  0
   -5.3910   -1.2740    3.2160 C   0  0  1  0  0  0  0  0  0  0  0  0
   -5.0010   -2.7260    2.9890 C   0  0  0  0  0  0  0  0  0  0  0  0
   -4.3110   -0.4630    3.8110 C   0  0  0  0  0  0  0  0  0  0  0  0
   -3.0540   -0.3300    3.0310 C   0  0  0  0  0  0  0  0  0  0  0  0
   -2.0170    0.4880    3.7260 C   0  0  0  0  0  0  0  0  0  0  0  0
   -2.3870    1.2010    4.6780 O   0  0  0  0  0  0  0  0  0  0  0  0
   -0.6630    0.4750    3.3450 N   0  0  0  0  0  0  0  0  0  0  0  0
    0.3980    1.2070    3.9150 C   0  0  0  0  0  0  0  0  0  0  0  0
    0.2290    2.2340    4.7800 C   0  0  0  0  0  0  0  0  0  0  0  0
    1.2990    2.9710    5.3240 C   0  0  0  0  0  0  0  0  0  0  0  0
    2.5810    2.6280    4.9570 C   0  0  0  0  0  0  0  0  0  0  0  0
    2.7780    1.5910    4.0820 C   0  0  0  0  0  0  0  0  0  0  0  0
    1.7330    0.8750    3.5520 C   0  0  0  0  0  0  0  0  0  0  0  0
    1.8700   -0.1330    2.7040 O   0  0  0  0  0  0  0  0  0  0  0  0
    2.6970   -0.9050    2.0040 C   0  0  0  0  0  0  0  0  0  0  0  0
    3.5880   -0.2890    0.9450 C   0  0  1  0  0  0  0  0  0  0  0  0
    4.4740    0.6430    1.3990 O   0  0  0  0  0  0  0  0  0  0  0  0
    4.3080   -1.4490    0.2860 C   0  0  0  0  0  0  0  0  0  0  0  0
    5.1080   -1.1020   -0.8370 N   0  0  0  0  0  0  0  0  0  0  0  0
    4.6520   -0.5060   -2.0500 C   0  0  0  0  0  0  0  0  0  0  0  0
    3.4170   -0.2650   -2.1330 O   0  0  0  0  0  0  0  0  0  0  0  0
    5.5980   -0.1890   -3.1550 C   0  0  1  0  0  0  0  0  0  0  0  0
    4.8580    0.2920   -4.3560 C   0  0  0  0  0  0  0  0  0  0  0  0
    5.7620    1.1500   -5.2400 C   0  0  0  0  0  0  0  0  0  0  0  0
    7.0920    0.7520   -5.1200 O   0  0  0  0  0  0  0  0  0  0  0  0
    7.6210    0.9750   -3.8640 C   0  0  1  0  0  0  0  0  0  0  0  0
    8.3460    2.3060   -3.8270 C   0  0  0  0  0  0  0  0  0  0  0  0
    6.5880    0.8760   -2.7620 C   0  0  0  0  0  0  0  0  0  0  0  0
   -6.9550    0.1480   -1.1290 C   0  0  2  0  0  0  0  0  0  0  0  0
   -8.1010    0.5560   -0.3160 C   0  0  0  0  0  0  0  0  0  0  0  0
   -7.3930   -0.8190   -2.0940 O   0  0  0  0  0  0  0  0  0  0  0  0
   -6.6560   -0.6490   -3.2650 C   0  0  0  0  0  0  0  0  0  0  0  0
   -5.2550   -0.1630   -2.9740 C   0  0  0  0  0  0  0  0  0  0  0  0
  1  2  1  0
  2  3  1  0
  3  4  2  0
  3 40  1  0
  4  5  1  0
  4 36  1  0
  5  6  1  0
  6  7  2  0
  6  8  1  0
  8  9  1  6
  8 10  1  0
 10 11  1  0
 11 12  1  0
 12 13  2  0
 12 14  1  0
 14 15  1  0
 15 16  2  0
 15 20  1  0
 16 17  1  0
 17 18  2  0
 18 19  1  0
 19 20  2  0
 20 21  1  0
 21 22  1  0
 22 23  1  0
 23 24  1  1
 23 25  1  0
 25 26  1  0
 26 27  1  0
 27 28  2  0
 29 27  1  1
 29 30  1  0
 29 35  1  0
 30 31  1  0
 31 32  1  0
 32 33  1  0
 33 34  1  6
 33 35  1  0
 36 37  1  1
 36 38  1  0
 38 39  1  0
 39 40  1  0
M  END
