
     RDKit          3D

 39 42  0  0  0  0  0  0  0  0999 V2000
   -0.8120   -0.7130   -1.0340 C   0  0  0  0  0  0  0  0  0  0  0  0
   -0.6090   -0.4660    0.4210 C   0  0  0  0  0  0  0  0  0  0  0  0
   -1.5890    0.4840    1.0550 C   0  0  2  0  0  0  0  0  0  0  0  0
   -1.5540    1.8600    0.4150 C   0  0  0  0  0  0  0  0  0  0  0  0
   -1.1370    0.6720    2.4900 C   0  0  0  0  0  0  0  0  0  0  0  0
    0.1800    1.2120    2.6170 N   0  0  0  0  0  0  0  0  0  0  0  0
    0.6610    1.4170    3.9460 C   0  0  0  0  0  0  0  0  0  0  0  0
   -0.0550    1.1310    4.9370 O   0  0  0  0  0  0  0  0  0  0  0  0
    2.0320    1.9770    4.1610 C   0  0  0  0  0  0  0  0  0  0  0  0
    3.2450    0.6500    4.3250 S   0  0  0  0  0  0  0  0  0  0  0  0
    3.3750   -0.2280    2.7780 C   0  0  0  0  0  0  0  0  0  0  0  0
    2.5590   -1.3040    2.5150 C   0  0  0  0  0  0  0  0  0  0  0  0
    2.6500   -1.9970    1.3270 C   0  0  0  0  0  0  0  0  0  0  0  0
    3.5530   -1.6400    0.3700 C   0  0  0  0  0  0  0  0  0  0  0  0
    4.3980   -0.5450    0.6100 C   0  0  0  0  0  0  0  0  0  0  0  0
    5.3150   -0.2390   -0.4050 N   0  0  0  0  0  0  0  0  0  0  0  0
    6.0730    0.9400   -0.4760 C   0  0  0  0  0  0  0  0  0  0  0  0
    5.9930    1.8520    0.3760 O   0  0  0  0  0  0  0  0  0  0  0  0
    7.0220    1.1170   -1.6260 C   0  0  1  0  0  0  0  0  0  0  0  0
    8.3810    1.5500   -1.1750 C   0  0  0  0  0  0  0  0  0  0  0  0
    9.4280    1.1360   -2.2170 C   0  0  0  0  0  0  0  0  0  0  0  0
    9.3810   -0.3770   -2.2810 C   0  0  0  0  0  0  0  0  0  0  0  0
    7.9780   -0.9150   -2.2320 C   0  0  0  0  0  0  0  0  0  0  0  0
    6.9960    0.0200   -2.4480 O   0  0  0  0  0  0  0  0  0  0  0  0
    4.2930    0.1290    1.7950 C   0  0  0  0  0  0  0  0  0  0  0  0
   -2.9670   -0.0780    1.1160 C   0  0  0  0  0  0  0  0  0  0  0  0
   -3.5370   -0.3020    2.2430 O   0  0  0  0  0  0  0  0  0  0  0  0
   -3.7480   -0.4070   -0.0200 N   0  0  0  0  0  0  0  0  0  0  0  0
   -5.0690   -0.9500    0.1340 C   0  0  2  0  0  0  0  0  0  0  0  0
   -5.2670   -2.2970   -0.5800 C   0  0  0  0  0  0  0  0  0  0  0  0
   -6.7000   -1.8460   -0.7980 C   0  0  2  0  0  0  0  0  0  0  0  0
   -7.5410   -2.2590    0.3750 C   0  0  0  0  0  0  0  0  0  0  0  0
   -7.2240   -2.0340   -2.0370 O   0  0  0  0  0  0  0  0  0  0  0  0
   -6.7940   -1.0670   -2.8960 C   0  0  0  0  0  0  0  0  0  0  0  0
   -5.8320   -0.1630   -2.1690 C   0  0  0  0  0  0  0  0  0  0  0  0
   -6.1600   -0.4190   -0.7280 C   0  0  2  0  0  0  0  0  0  0  0  0
   -7.1050    0.5700   -0.1180 C   0  0  0  0  0  0  0  0  0  0  0  0
   -6.3190    1.7770    0.3330 C   0  0  0  0  0  0  0  0  0  0  0  0
   -5.6590    2.4030   -0.7230 O   0  0  0  0  0  0  0  0  0  0  0  0
  1  2  1  0
  2  3  1  0
  3  4  1  6
  3  5  1  0
  3 26  1  0
  5  6  1  0
  6  7  1  0
  7  8  2  0
  7  9  1  0
  9 10  1  0
 10 11  1  0
 11 12  2  0
 11 25  1  0
 12 13  1  0
 13 14  2  0
 14 15  1  0
 15 16  1  0
 15 25  2  0
 16 17  1  0
 17 18  2  0
 19 17  1  1
 19 20  1  0
 19 24  1  0
 20 21  1  0
 21 22  1  0
 22 23  1  0
 23 24  1  0
 26 27  2  0
 26 28  1  0
 29 28  1  6
 29 30  1  0
 29 36  1  0
 30 31  1  0
 31 32  1  1
 31 33  1  0
 31 36  1  0
 33 34  1  0
 34 35  1  0
 35 36  1  0
 36 37  1  1
 37 38  1  0
 38 39  1  0
M  END
