
     RDKit          3D

 39 43  0  0  0  0  0  0  0  0999 V2000
   -1.6340   -0.4600   -2.9820 O   0  0  0  0  0  0  0  0  0  0  0  0
   -1.9740   -0.1770   -1.7740 C   0  0  0  0  0  0  0  0  0  0  0  0
   -3.2870   -0.5940   -1.3150 C   0  0  0  0  0  0  0  0  0  0  0  0
   -3.6850   -0.3410   -0.1160 C   0  0  0  0  0  0  0  0  0  0  0  0
   -4.9450   -0.6920    0.4730 C   0  0  0  0  0  0  0  0  0  0  0  0
   -5.2030   -0.0700    1.7170 C   0  0  0  0  0  0  0  0  0  0  0  0
   -6.3410   -0.3190    2.4200 C   0  0  0  0  0  0  0  0  0  0  0  0
   -6.6090    0.4890    3.9710 Cl  0  0  0  0  0  0  0  0  0  0  0  0
   -7.2530   -1.1940    1.9020 C   0  0  0  0  0  0  0  0  0  0  0  0
   -7.0320   -1.8100    0.7060 C   0  0  0  0  0  0  0  0  0  0  0  0
   -5.8510   -1.5680   -0.0480 C   0  0  0  0  0  0  0  0  0  0  0  0
   -5.7070   -2.2930   -1.2450 N   0  0  0  0  0  0  0  0  0  0  0  0
   -4.9940   -3.4500   -1.3740 C   0  0  0  0  0  0  0  0  0  0  0  0
   -5.1410   -3.8720   -2.6440 N   0  0  0  0  0  0  0  0  0  0  0  0
   -5.9080   -3.0210   -3.2780 N   0  0  0  0  0  0  0  0  0  0  0  0
   -6.2510   -2.0590   -2.4220 N   0  0  0  0  0  0  0  0  0  0  0  0
   -0.9950    0.5220   -1.0320 N   0  0  0  0  0  0  0  0  0  0  0  0
    0.2940    0.8820   -1.6160 C   0  0  1  0  0  0  0  0  0  0  0  0
    0.4940    2.3600   -1.6760 C   0  0  0  0  0  0  0  0  0  0  0  0
    0.4600    3.0430   -0.3850 C   0  0  0  0  0  0  0  0  0  0  0  0
   -0.7580    3.5020    0.0730 C   0  0  0  0  0  0  0  0  0  0  0  0
   -0.9320    4.1620    1.2710 C   0  0  0  0  0  0  0  0  0  0  0  0
    0.1870    4.3700    2.0490 C   0  0  0  0  0  0  0  0  0  0  0  0
    1.4310    3.9230    1.6230 C   0  0  0  0  0  0  0  0  0  0  0  0
    1.5560    3.2670    0.4160 C   0  0  0  0  0  0  0  0  0  0  0  0
    1.4030    0.1760   -0.9170 C   0  0  0  0  0  0  0  0  0  0  0  0
    1.1140   -0.5840    0.0150 O   0  0  0  0  0  0  0  0  0  0  0  0
    2.7360    0.3650   -1.3050 N   0  0  0  0  0  0  0  0  0  0  0  0
    3.8840   -0.2360   -0.7450 C   0  0  0  0  0  0  0  0  0  0  0  0
    3.8030   -1.2950    0.1080 C   0  0  0  0  0  0  0  0  0  0  0  0
    4.9710   -1.8550    0.6580 C   0  0  0  0  0  0  0  0  0  0  0  0
    6.2280   -1.3810    0.3750 C   0  0  0  0  0  0  0  0  0  0  0  0
    7.4370   -1.9630    0.9460 C   0  0  0  0  0  0  0  0  0  0  0  0
    8.6850   -1.5310    0.6970 N   0  0  0  0  0  0  0  0  0  0  0  0
    9.5690   -2.2570    1.3590 N   0  0  0  0  0  0  0  0  0  0  0  0
    8.8550   -3.1610    2.0360 N   0  0  0  0  0  0  0  0  0  0  0  0
    7.5660   -2.9910    1.7920 N   0  0  0  0  0  0  0  0  0  0  0  0
    6.2910   -0.3100   -0.4900 C   0  0  0  0  0  0  0  0  0  0  0  0
    5.1600    0.2430   -1.0310 C   0  0  0  0  0  0  0  0  0  0  0  0
  1  2  2  0
  2  3  1  0
  2 17  1  0
  3  4  2  3
  4  5  1  0
  5  6  2  0
  5 11  1  0
  6  7  1  0
  7  8  1  0
  7  9  2  0
  9 10  1  0
 10 11  2  0
 11 12  1  0
 12 13  1  0
 12 16  1  0
 13 14  2  0
 14 15  1  0
 15 16  2  0
 17 18  1  0
 18 19  1  1
 18 26  1  0
 19 20  1  0
 20 21  2  0
 20 25  1  0
 21 22  1  0
 22 23  2  0
 23 24  1  0
 24 25  2  0
 26 27  2  0
 26 28  1  0
 28 29  1  0
 29 30  2  0
 29 39  1  0
 30 31  1  0
 31 32  2  0
 32 33  1  0
 32 38  1  0
 33 34  1  0
 33 37  2  0
 34 35  2  0
 35 36  1  0
 36 37  1  0
 38 39  2  0
M  END
