
     RDKit          3D

 39 43  0  0  0  0  0  0  0  0999 V2000
    8.2230   -3.5260    0.6330 C   0  0  0  0  0  0  0  0  0  0  0  0
    7.7230   -2.6550   -0.3640 O   0  0  0  0  0  0  0  0  0  0  0  0
    6.9580   -1.6550    0.1960 C   0  0  1  0  0  0  0  0  0  0  0  0
    7.6200   -0.3280   -0.1930 C   0  0  0  0  0  0  0  0  0  0  0  0
    5.5860   -1.6070   -0.4280 C   0  0  0  0  0  0  0  0  0  0  0  0
    5.3040   -2.4210   -1.3280 O   0  0  0  0  0  0  0  0  0  0  0  0
    4.6390   -0.6600   -0.0010 N   0  0  0  0  0  0  0  0  0  0  0  0
    3.3260   -0.4920   -0.4870 C   0  0  0  0  0  0  0  0  0  0  0  0
    2.7480   -1.1400   -1.5450 C   0  0  0  0  0  0  0  0  0  0  0  0
    1.4210   -0.8990   -1.9360 C   0  0  0  0  0  0  0  0  0  0  0  0
    0.6370    0.0090   -1.2640 C   0  0  0  0  0  0  0  0  0  0  0  0
    1.2030    0.6690   -0.1980 C   0  0  0  0  0  0  0  0  0  0  0  0
    0.4060    1.6280    0.5320 N   0  0  0  0  0  0  0  0  0  0  0  0
   -0.8540    1.8590    0.1670 N   0  0  0  0  0  0  0  0  0  0  0  0
   -2.0130    1.4330    0.2970 C   0  0  0  0  0  0  0  0  0  0  0  0
   -2.3480    0.3150    1.0630 C   0  0  0  0  0  0  0  0  0  0  0  0
   -1.3510   -0.3210    1.8730 C   0  0  0  0  0  0  0  0  0  0  0  0
   -1.3350   -1.4840    2.4000 C   0  0  0  0  0  0  0  0  0  0  0  0
   -2.3190   -2.4800    2.3140 N   0  0  0  0  0  0  0  0  0  0  0  0
   -3.0730   -2.9780    3.4270 C   0  0  0  0  0  0  0  0  0  0  0  0
   -3.8860   -3.8910    3.0480 N   0  0  0  0  0  0  0  0  0  0  0  0
   -3.8070   -4.1470    1.6350 C   0  0  0  0  0  0  0  0  0  0  0  0
   -2.7700   -3.2080    1.1710 C   0  0  0  0  0  0  0  0  0  0  0  0
   -2.3070   -3.0110    0.0230 O   0  0  0  0  0  0  0  0  0  0  0  0
   -3.6800   -0.0630    1.0700 C   0  0  0  0  0  0  0  0  0  0  0  0
   -4.6300    0.5990    0.3780 N   0  0  0  0  0  0  0  0  0  0  0  0
   -4.3540    1.6760   -0.3690 C   0  0  0  0  0  0  0  0  0  0  0  0
   -5.3160    2.3470   -1.0690 C   0  0  0  0  0  0  0  0  0  0  0  0
   -6.7260    1.9430   -1.0610 C   0  0  2  0  0  0  0  0  0  0  0  0
   -7.1550    1.7720   -2.3780 F   0  0  0  0  0  0  0  0  0  0  0  0
   -7.5310    2.9660   -0.5400 F   0  0  0  0  0  0  0  0  0  0  0  0
   -4.9860    3.4510   -1.8240 C   0  0  0  0  0  0  0  0  0  0  0  0
   -3.6960    3.8840   -1.8790 C   0  0  0  0  0  0  0  0  0  0  0  0
   -3.1190    4.9410   -2.5470 C   0  0  0  0  0  0  0  0  0  0  0  0
   -1.7820    4.9180   -2.2520 C   0  0  0  0  0  0  0  0  0  0  0  0
   -1.5890    3.8540   -1.4190 N   0  0  0  0  0  0  0  0  0  0  0  0
   -2.7120    3.2060   -1.1690 C   0  0  0  0  0  0  0  0  0  0  0  0
   -3.0360    2.0900   -0.4040 C   0  0  0  0  0  0  0  0  0  0  0  0
    2.5070    0.4200    0.1700 C   0  0  0  0  0  0  0  0  0  0  0  0
  1  2  1  0
  2  3  1  0
  3  4  1  6
  3  5  1  0
  5  6  2  0
  5  7  1  0
  7  8  1  0
  8  9  2  0
  8 39  1  0
  9 10  1  0
 10 11  2  0
 11 12  1  0
 12 13  1  0
 12 39  2  0
 13 14  1  0
 14 15  2  3
 15 16  1  0
 15 38  1  0
 16 17  1  0
 16 25  2  0
 17 18  2  3
 18 19  1  0
 19 20  1  0
 19 23  1  0
 20 21  2  0
 21 22  1  0
 22 23  1  0
 23 24  2  0
 25 26  1  0
 26 27  1  0
 27 28  2  0
 27 38  1  0
 28 29  1  0
 28 32  1  0
 29 30  1  6
 29 31  1  0
 32 33  2  0
 33 34  1  0
 33 37  1  0
 34 35  2  0
 35 36  1  0
 36 37  1  0
 37 38  2  0
M  END
