
     RDKit          3D

 39 43  0  0  0  0  0  0  0  0999 V2000
   -2.9810    4.6440   -2.5410 C   0  0  0  0  0  0  0  0  0  0  0  0
   -3.3480    3.7460   -1.6820 C   0  0  0  0  0  0  0  0  0  0  0  0
   -3.7780    3.9840   -0.3080 C   0  0  0  0  0  0  0  0  0  0  0  0
   -3.3470    2.7660    0.3260 N   0  0  0  0  0  0  0  0  0  0  0  0
   -3.4410    1.7150   -0.4190 C   0  0  0  0  0  0  0  0  0  0  0  0
   -3.1220    0.3300   -0.1430 C   0  0  0  0  0  0  0  0  0  0  0  0
   -2.3510   -0.1030    0.9350 C   0  0  0  0  0  0  0  0  0  0  0  0
   -1.5380    0.8690    1.6930 C   0  0  0  0  0  0  0  0  0  0  0  0
   -0.3480    1.4490    0.9850 C   0  0  0  0  0  0  0  0  0  0  0  0
    0.6510    0.5230    0.5910 N   0  0  0  0  0  0  0  0  0  0  0  0
    0.9940    0.2620   -0.7580 C   0  0  0  0  0  0  0  0  0  0  0  0
    0.1260    0.6460   -1.7400 C   0  0  0  0  0  0  0  0  0  0  0  0
    0.4500    0.4180   -3.0860 C   0  0  0  0  0  0  0  0  0  0  0  0
    1.6380   -0.1880   -3.4050 C   0  0  0  0  0  0  0  0  0  0  0  0
    2.5350   -0.5870   -2.4410 C   0  0  0  0  0  0  0  0  0  0  0  0
    2.1980   -0.3550   -1.1090 C   0  0  0  0  0  0  0  0  0  0  0  0
    3.0950   -0.7310   -0.0810 N   0  0  0  0  0  0  0  0  0  0  0  0
    4.1160   -1.6660   -0.2250 C   0  0  0  0  0  0  0  0  0  0  0  0
    4.2280   -2.3580   -1.2640 O   0  0  0  0  0  0  0  0  0  0  0  0
    5.1170   -1.8840    0.8260 C   0  0  0  0  0  0  0  0  0  0  0  0
    6.2160   -1.0380    0.8820 C   0  0  0  0  0  0  0  0  0  0  0  0
    7.1440   -1.2220    1.8800 C   0  0  0  0  0  0  0  0  0  0  0  0
    7.0320   -2.2120    2.8300 C   0  0  0  0  0  0  0  0  0  0  0  0
    5.9320   -3.0530    2.7650 C   0  0  0  0  0  0  0  0  0  0  0  0
    4.9960   -2.8630    1.7550 C   0  0  0  0  0  0  0  0  0  0  0  0
    3.9660   -3.7440    1.7510 F   0  0  0  0  0  0  0  0  0  0  0  0
    2.8820   -0.0630    1.2120 C   0  0  0  0  0  0  0  0  0  0  0  0
    1.4130   -0.1870    1.6210 C   0  0  2  0  0  0  0  0  0  0  0  0
    0.9740   -1.6120    1.6300 C   0  0  0  0  0  0  0  0  0  0  0  0
   -2.2850   -1.3970    1.3650 N   0  0  0  0  0  0  0  0  0  0  0  0
   -2.9750   -2.3180    0.7540 N   0  0  0  0  0  0  0  0  0  0  0  0
   -3.7580   -2.0040   -0.2930 C   0  0  0  0  0  0  0  0  0  0  0  0
   -4.4310   -2.9350   -0.8750 N   0  0  0  0  0  0  0  0  0  0  0  0
   -3.8550   -0.7100   -0.7490 C   0  0  0  0  0  0  0  0  0  0  0  0
   -5.0540   -0.3870   -1.5810 C   0  0  0  0  0  0  0  0  0  0  0  0
   -3.4200    2.2610   -1.8350 C   0  0  0  0  0  0  0  0  0  0  0  0
   -3.2720    1.7150   -2.9750 C   0  0  0  0  0  0  0  0  0  0  0  0
   -3.2780    0.4490   -3.3570 F   0  0  0  0  0  0  0  0  0  0  0  0
   -3.0680    2.5460   -4.1130 F   0  0  0  0  0  0  0  0  0  0  0  0
  1  2  2  0
  2  3  1  0
  2 36  1  0
  3  4  1  0
  4  5  2  0
  5  6  1  0
  5 36  1  0
  6  7  1  0
  6 34  2  0
  7  8  1  0
  7 30  2  0
  8  9  1  0
  9 10  1  0
 10 11  1  0
 10 28  1  0
 11 12  2  0
 11 16  1  0
 12 13  1  0
 13 14  2  0
 14 15  1  0
 15 16  2  0
 16 17  1  0
 17 18  1  0
 17 27  1  0
 18 19  2  0
 18 20  1  0
 20 21  2  0
 20 25  1  0
 21 22  1  0
 22 23  2  0
 23 24  1  0
 24 25  2  0
 25 26  1  0
 27 28  1  0
 28 29  1  6
 30 31  1  0
 31 32  1  0
 32 33  2  0
 32 34  1  0
 34 35  1  0
 36 37  2  3
 37 38  1  0
 37 39  1  0
M  CHG  2   4   1  33   1
M  END
