
     RDKit          3D

 39 43  0  0  0  0  0  0  0  0999 V2000
   -8.2670   -2.1100    0.5180 C   0  0  0  0  0  0  0  0  0  0  0  0
   -8.5650   -1.8120   -0.8730 N   0  0  0  0  0  0  0  0  0  0  0  0
   -7.3700   -1.8730   -1.6050 C   0  0  0  0  0  0  0  0  0  0  0  0
   -6.4520   -0.9290   -1.5790 C   0  0  0  0  0  0  0  0  0  0  0  0
   -5.2130   -0.9280   -2.3000 C   0  0  0  0  0  0  0  0  0  0  0  0
   -4.4900    0.1840   -2.0590 C   0  0  0  0  0  0  0  0  0  0  0  0
   -3.2550    0.5160   -2.5830 N   0  0  0  0  0  0  0  0  0  0  0  0
   -2.1050    0.3230   -2.1860 C   0  0  0  0  0  0  0  0  0  0  0  0
   -1.5420   -0.3200   -1.0230 C   0  0  0  0  0  0  0  0  0  0  0  0
   -2.3610   -0.8790   -0.0770 C   0  0  0  0  0  0  0  0  0  0  0  0
   -1.7910   -1.4990    1.0450 C   0  0  0  0  0  0  0  0  0  0  0  0
   -0.4170   -1.5110    1.1360 C   0  0  0  0  0  0  0  0  0  0  0  0
    0.4100   -0.9470    0.1810 C   0  0  0  0  0  0  0  0  0  0  0  0
    1.8220   -0.9640    0.2790 N   0  0  0  0  0  0  0  0  0  0  0  0
    2.5710   -1.5820    1.3140 C   0  0  0  0  0  0  0  0  0  0  0  0
    3.3560   -0.4570    1.9930 C   0  0  0  0  0  0  0  0  0  0  0  0
    4.2490    0.1250    1.0370 N   0  0  0  0  0  0  0  0  0  0  0  0
    5.5990   -0.2100    1.4220 C   0  0  0  0  0  0  0  0  0  0  0  0
    6.6250    0.3610    0.4710 C   0  0  0  0  0  0  0  0  0  0  0  0
    7.8990   -0.0310    0.9490 O   0  0  0  0  0  0  0  0  0  0  0  0
    9.0240    0.3710    0.2440 C   0  0  0  0  0  0  0  0  0  0  0  0
   10.2810   -0.0120    0.7080 C   0  0  0  0  0  0  0  0  0  0  0  0
   11.4200    0.3810    0.0160 C   0  0  0  0  0  0  0  0  0  0  0  0
   11.3600    1.1450   -1.1290 C   0  0  0  0  0  0  0  0  0  0  0  0
   10.1130    1.5210   -1.5840 C   0  0  0  0  0  0  0  0  0  0  0  0
    8.9890    1.1280   -0.8940 C   0  0  0  0  0  0  0  0  0  0  0  0
    4.0450   -0.2380   -0.3240 C   0  0  0  0  0  0  0  0  0  0  0  0
    2.5960   -0.2980   -0.7530 C   0  0  0  0  0  0  0  0  0  0  0  0
   -0.1950   -0.3670   -0.8720 N   0  0  0  0  0  0  0  0  0  0  0  0
   -5.2700    1.0180   -1.1110 C   0  0  0  0  0  0  0  0  0  0  0  0
   -5.2390    2.1360   -0.4660 N   0  0  0  0  0  0  0  0  0  0  0  0
   -6.4320    2.2690    0.3060 C   0  0  0  0  0  0  0  0  0  0  0  0
   -6.7900    3.2490    1.0950 C   0  0  0  0  0  0  0  0  0  0  0  0
   -8.0870    3.1970    1.8180 C   0  0  1  0  0  0  0  0  0  0  0  0
   -8.1830    4.3010    2.6650 F   0  0  0  0  0  0  0  0  0  0  0  0
   -9.1390    3.3320    0.9110 F   0  0  0  0  0  0  0  0  0  0  0  0
   -8.1780    2.0180    2.5100 F   0  0  0  0  0  0  0  0  0  0  0  0
   -7.1950    1.0600    0.0330 C   0  0  0  0  0  0  0  0  0  0  0  0
   -6.4990    0.2960   -0.8260 C   0  0  0  0  0  0  0  0  0  0  0  0
  1  2  1  0
  2  3  1  0
  3  4  2  3
  4  5  1  0
  4 39  1  0
  5  6  2  0
  6  7  1  0
  6 30  1  0
  7  8  2  3
  8  9  1  0
  9 10  2  0
  9 29  1  0
 10 11  1  0
 11 12  2  0
 12 13  1  0
 13 14  1  0
 13 29  2  0
 14 15  1  0
 14 28  1  0
 15 16  1  0
 16 17  1  0
 17 18  1  0
 17 27  1  0
 18 19  1  0
 19 20  1  0
 20 21  1  0
 21 22  2  0
 21 26  1  0
 22 23  1  0
 23 24  2  0
 24 25  1  0
 25 26  2  0
 27 28  1  0
 30 31  2  0
 30 39  1  0
 31 32  1  0
 32 33  2  3
 32 38  1  0
 33 34  1  0
 34 35  1  1
 34 36  1  0
 34 37  1  0
 38 39  2  0
M  CHG  2   2   1  31   1
M  END
