
     RDKit          3D

 38 43  0  0  0  0  0  0  0  0999 V2000
   -0.2480    3.7870   -0.7450 O   0  0  0  0  0  0  0  0  0  0  0  0
    0.1020    2.6500   -0.3400 C   0  0  0  0  0  0  0  0  0  0  0  0
    1.3470    2.4290    0.1250 N   0  0  0  0  0  0  0  0  0  0  0  0
    1.7930    1.2430    0.5730 C   0  0  0  0  0  0  0  0  0  0  0  0
    3.1890    1.1050    1.0690 C   0  0  0  0  0  0  0  0  0  0  0  0
    4.1510    0.7730   -0.0630 C   0  0  2  0  0  0  0  0  0  0  0  0
    3.8100   -0.4960   -0.7540 C   0  0  0  0  0  0  0  0  0  0  0  0
    4.6350   -1.5370   -0.0590 C   0  0  0  0  0  0  0  0  0  0  0  0
    5.8450   -0.7990    0.2740 N   0  0  0  0  0  0  0  0  0  0  0  0
    7.1410   -1.4070    0.3150 C   0  0  0  0  0  0  0  0  0  0  0  0
    7.3240   -2.7380    0.0400 C   0  0  0  0  0  0  0  0  0  0  0  0
    8.5740   -3.3250    0.0740 C   0  0  0  0  0  0  0  0  0  0  0  0
    9.6920   -2.5900    0.3880 C   0  0  0  0  0  0  0  0  0  0  0  0
    9.4810   -1.2450    0.6630 C   0  0  0  0  0  0  0  0  0  0  0  0
    8.2550   -0.6420    0.6360 C   0  0  0  0  0  0  0  0  0  0  0  0
    5.5070    0.5780    0.5300 C   0  0  0  0  0  0  0  0  0  0  0  0
    0.9370    0.2120    0.5550 N   0  0  0  0  0  0  0  0  0  0  0  0
   -0.3240    0.3270    0.1130 C   0  0  0  0  0  0  0  0  0  0  0  0
   -1.1940   -0.7030    0.0920 N   0  0  0  0  0  0  0  0  0  0  0  0
   -2.4520   -0.5550   -0.3580 C   0  0  0  0  0  0  0  0  0  0  0  0
   -2.9530    0.6300   -0.8260 C   0  0  0  0  0  0  0  0  0  0  0  0
   -4.3190    0.7600   -1.4100 C   0  0  0  0  0  0  0  0  0  0  0  0
   -4.2450    1.3050   -2.6860 C   0  0  0  0  0  0  0  0  0  0  0  0
   -5.3340    1.3010   -3.4810 C   0  0  0  0  0  0  0  0  0  0  0  0
   -6.4870    0.7640   -3.0150 C   0  0  0  0  0  0  0  0  0  0  0  0
   -6.5980    0.2040   -1.7090 C   0  0  0  0  0  0  0  0  0  0  0  0
   -7.7920   -0.1730   -1.4420 C   0  0  0  0  0  0  0  0  0  0  0  0
   -8.7430    0.0440   -2.4920 F   0  0  0  0  0  0  0  0  0  0  0  0
   -8.3950   -0.6960   -0.4050 F   0  0  0  0  0  0  0  0  0  0  0  0
   -5.4620    0.2120   -0.8920 C   0  0  0  0  0  0  0  0  0  0  0  0
   -5.5300   -0.0320    0.3950 C   0  0  0  0  0  0  0  0  0  0  0  0
   -6.6220   -0.6650    1.1170 C   0  0  0  0  0  0  0  0  0  0  0  0
   -7.1170   -0.1540    2.1590 N   0  0  0  0  0  0  0  0  0  0  0  0
   -6.6400    1.0670    2.6960 C   0  0  0  0  0  0  0  0  0  0  0  0
   -5.3300    1.4300    2.3740 N   0  0  0  0  0  0  0  0  0  0  0  0
   -4.5880    0.6110    1.4060 C   0  0  0  0  0  0  0  0  0  0  0  0
   -2.0970    1.7370   -0.8290 C   0  0  0  0  0  0  0  0  0  0  0  0
   -0.8040    1.6120   -0.3720 C   0  0  0  0  0  0  0  0  0  0  0  0
  1  2  2  0
  2  3  1  0
  2 38  1  0
  3  4  2  0
  4  5  1  0
  4 17  1  0
  6  5  1  1
  6  7  1  0
  6 16  1  0
  7  8  1  0
  8  9  1  0
  9 10  1  0
  9 16  1  0
 10 11  2  0
 10 15  1  0
 11 12  1  0
 12 13  2  0
 13 14  1  0
 14 15  2  0
 17 18  2  0
 18 19  1  0
 18 38  1  0
 19 20  1  0
 20 21  2  0
 21 22  1  0
 21 37  1  0
 22 23  2  0
 22 30  1  0
 23 24  1  0
 24 25  2  0
 25 26  1  0
 26 27  2  3
 26 30  1  0
 27 28  1  0
 27 29  1  0
 30 31  2  3
 31 32  1  0
 31 36  1  0
 32 33  2  0
 33 34  1  0
 34 35  1  0
 35 36  1  0
 37 38  2  0
M  CHG  1  35   1
M  END
