
     RDKit          3D

 39 43  0  0  0  0  0  0  0  0999 V2000
    6.3870    0.0400   -1.8870 C   0  0  0  0  0  0  0  0  0  0  0  0
    5.5070   -0.2740   -0.8270 O   0  0  0  0  0  0  0  0  0  0  0  0
    5.5320   -1.4990   -0.1850 C   0  0  0  0  0  0  0  0  0  0  0  0
    6.4600   -2.4330   -0.6160 C   0  0  0  0  0  0  0  0  0  0  0  0
    6.5150   -3.6660   -0.0000 C   0  0  0  0  0  0  0  0  0  0  0  0
    5.6410   -3.9450    1.0350 C   0  0  0  0  0  0  0  0  0  0  0  0
    4.7210   -2.9860    1.4440 C   0  0  0  0  0  0  0  0  0  0  0  0
    3.8980   -3.3290    2.4640 F   0  0  0  0  0  0  0  0  0  0  0  0
    4.6490   -1.7500    0.8440 C   0  0  0  0  0  0  0  0  0  0  0  0
    3.7220   -0.8410    1.2870 O   0  0  0  0  0  0  0  0  0  0  0  0
    2.3920   -0.8360    0.7760 C   0  0  0  0  0  0  0  0  0  0  0  0
    2.1240   -1.6870   -0.0760 O   0  0  0  0  0  0  0  0  0  0  0  0
    1.5370    0.1830    1.3380 C   0  0  0  0  0  0  0  0  0  0  0  0
    0.1940    0.3170    0.8800 N   0  0  0  0  0  0  0  0  0  0  0  0
   -0.8010   -0.6570    1.1130 C   0  0  0  0  0  0  0  0  0  0  0  0
   -1.1050   -1.5840    0.0080 C   0  0  0  0  0  0  0  0  0  0  0  0
   -0.6570   -1.6800   -1.2460 N   0  0  0  0  0  0  0  0  0  0  0  0
   -1.2350   -2.6600   -1.9080 N   0  0  0  0  0  0  0  0  0  0  0  0
   -2.1150   -3.2720   -1.1000 C   0  0  0  0  0  0  0  0  0  0  0  0
   -2.0490   -2.6120    0.1070 C   0  0  0  0  0  0  0  0  0  0  0  0
   -2.8780   -2.9890    1.2770 C   0  0  0  0  0  0  0  0  0  0  0  0
   -3.6730   -4.2320    1.0460 C   0  0  0  0  0  0  0  0  0  0  0  0
   -4.1660   -4.3590   -0.3880 C   0  0  0  0  0  0  0  0  0  0  0  0
   -3.0200   -4.4230   -1.3480 C   0  0  0  0  0  0  0  0  0  0  0  0
   -0.1560    1.4920    0.1720 C   0  0  0  0  0  0  0  0  0  0  0  0
   -1.1590    2.3580    0.6290 C   0  0  0  0  0  0  0  0  0  0  0  0
   -1.5250    3.5000   -0.0300 C   0  0  0  0  0  0  0  0  0  0  0  0
   -0.8470    3.7910   -1.2100 C   0  0  0  0  0  0  0  0  0  0  0  0
    0.1160    2.9700   -1.6580 N   0  0  0  0  0  0  0  0  0  0  0  0
    0.4740    1.8300   -0.9940 C   0  0  0  0  0  0  0  0  0  0  0  0
    1.5010    1.0040   -1.5200 N   0  0  0  0  0  0  0  0  0  0  0  0
   -1.3350    4.9990   -1.7490 N   0  0  0  0  0  0  0  0  0  0  0  0
   -2.3420    5.5010   -0.9110 C   0  0  0  0  0  0  0  0  0  0  0  0
   -3.0330    6.5990   -1.0740 N   0  0  0  0  0  0  0  0  0  0  0  0
   -2.4810    4.5380    0.2150 C   0  0  0  0  0  0  0  0  0  0  0  0
   -3.3580    4.6820    1.1660 C   0  0  0  0  0  0  0  0  0  0  0  0
   -4.2340    5.9280    1.1370 C   0  0  0  0  0  0  0  0  0  0  0  0
   -3.6600    3.7690    2.2540 C   0  0  0  0  0  0  0  0  0  0  0  0
   -3.3700    4.4140    3.4770 F   0  0  0  0  0  0  0  0  0  0  0  0
  1  2  1  0
  2  3  1  0
  3  4  2  0
  3  9  1  0
  4  5  1  0
  5  6  2  0
  6  7  1  0
  7  8  1  0
  7  9  2  0
  9 10  1  0
 10 11  1  0
 11 12  2  0
 11 13  1  0
 13 14  1  0
 14 15  1  0
 14 25  1  0
 15 16  1  0
 16 17  2  0
 16 20  1  0
 17 18  1  0
 18 19  1  0
 19 20  2  0
 19 24  1  0
 20 21  1  0
 21 22  1  0
 22 23  1  0
 23 24  1  0
 25 26  2  0
 25 30  1  0
 26 27  1  0
 27 28  2  0
 27 35  1  0
 28 29  1  0
 28 32  1  0
 29 30  2  0
 30 31  1  0
 32 33  1  0
 33 34  2  0
 33 35  1  0
 35 36  2  3
 36 37  1  0
 36 38  1  0
 38 39  1  0
M  END
