
     RDKit          3D

 39 43  0  0  0  0  0  0  0  0999 V2000
    1.6230   -0.5720    2.3810 O   0  0  0  0  0  0  0  0  0  0  0  0
    1.9860   -0.0490    1.2800 C   0  0  0  0  0  0  0  0  0  0  0  0
    1.0610    0.8500    0.6950 N   0  0  0  0  0  0  0  0  0  0  0  0
   -0.2120    1.1500    1.3100 C   0  0  1  0  0  0  0  0  0  0  0  0
   -0.3500    2.5960    1.6910 C   0  0  0  0  0  0  0  0  0  0  0  0
   -0.2450    3.5330    0.5860 C   0  0  0  0  0  0  0  0  0  0  0  0
   -1.3560    3.9210   -0.1210 C   0  0  0  0  0  0  0  0  0  0  0  0
   -1.2770    4.8150   -1.1820 C   0  0  0  0  0  0  0  0  0  0  0  0
   -0.0630    5.3410   -1.5550 C   0  0  0  0  0  0  0  0  0  0  0  0
    1.0590    4.9640   -0.8590 C   0  0  0  0  0  0  0  0  0  0  0  0
    0.9620    4.0650    0.2040 C   0  0  0  0  0  0  0  0  0  0  0  0
   -1.3490    0.6780    0.4570 C   0  0  0  0  0  0  0  0  0  0  0  0
   -1.1560    0.1030   -0.6450 O   0  0  0  0  0  0  0  0  0  0  0  0
   -2.6950    0.8690    0.8770 N   0  0  0  0  0  0  0  0  0  0  0  0
   -3.8040    0.4120    0.0700 C   0  0  0  0  0  0  0  0  0  0  0  0
   -3.8620   -1.0460   -0.0850 C   0  0  0  0  0  0  0  0  0  0  0  0
   -2.9990   -1.9450    0.5020 C   0  0  0  0  0  0  0  0  0  0  0  0
   -3.1120   -3.3110    0.3340 C   0  0  0  0  0  0  0  0  0  0  0  0
   -2.2920   -4.1110    0.8940 O   0  0  0  0  0  0  0  0  0  0  0  0
   -4.1120   -3.7660   -0.4380 N   0  0  0  0  0  0  0  0  0  0  0  0
   -4.9830   -2.9340   -1.0340 C   0  0  0  0  0  0  0  0  0  0  0  0
   -6.0040   -3.4380   -1.8240 C   0  0  0  0  0  0  0  0  0  0  0  0
   -6.9020   -2.5960   -2.4380 C   0  0  0  0  0  0  0  0  0  0  0  0
   -6.8170   -1.2270   -2.2910 C   0  0  0  0  0  0  0  0  0  0  0  0
   -7.9570   -0.1460   -3.0710 Cl  0  0  0  0  0  0  0  0  0  0  0  0
   -5.7980   -0.7340   -1.5030 C   0  0  0  0  0  0  0  0  0  0  0  0
   -4.8870   -1.5700   -0.8790 C   0  0  0  0  0  0  0  0  0  0  0  0
    3.2870   -0.3820    0.6900 C   0  0  0  0  0  0  0  0  0  0  0  0
    3.7000    0.1520   -0.5070 C   0  0  0  0  0  0  0  0  0  0  0  0
    4.9470   -0.1860   -1.0440 C   0  0  0  0  0  0  0  0  0  0  0  0
    5.8020   -1.0570   -0.4040 C   0  0  0  0  0  0  0  0  0  0  0  0
    6.9990   -1.3590   -0.9540 N   0  0  0  0  0  0  0  0  0  0  0  0
    7.8460   -2.2050   -0.3460 C   0  0  0  0  0  0  0  0  0  0  0  0
    8.9630   -2.5010   -0.8380 O   0  0  0  0  0  0  0  0  0  0  0  0
    7.4590   -2.7600    0.8620 C   0  0  0  0  0  0  0  0  0  0  0  0
    6.2390   -2.4550    1.4280 C   0  0  0  0  0  0  0  0  0  0  0  0
    5.9150   -3.0390    2.6280 O   0  0  0  0  0  0  0  0  0  0  0  0
    5.3760   -1.5890    0.8020 C   0  0  0  0  0  0  0  0  0  0  0  0
    4.1470   -1.2550    1.3300 C   0  0  0  0  0  0  0  0  0  0  0  0
  1  2  2  0
  2  3  1  0
  2 28  1  0
  3  4  1  0
  4  5  1  6
  4 12  1  0
  5  6  1  0
  6  7  2  0
  6 11  1  0
  7  8  1  0
  8  9  2  0
  9 10  1  0
 10 11  2  0
 12 13  2  0
 12 14  1  0
 14 15  1  0
 15 16  1  0
 16 17  2  0
 16 27  1  0
 17 18  1  0
 18 19  2  0
 18 20  1  0
 20 21  1  0
 21 22  2  0
 21 27  1  0
 22 23  1  0
 23 24  2  0
 24 25  1  0
 24 26  1  0
 26 27  2  0
 28 29  2  0
 28 39  1  0
 29 30  1  0
 30 31  2  0
 31 32  1  0
 31 38  1  0
 32 33  1  0
 33 34  2  0
 33 35  1  0
 35 36  2  0
 36 37  1  0
 36 38  1  0
 38 39  2  0
M  END
