
     RDKit          3D

 39 43  0  0  0  0  0  0  0  0999 V2000
   -6.5150   -1.7870   -2.0050 C   0  0  0  0  0  0  0  0  0  0  0  0
   -5.3670   -1.1430   -1.2950 C   0  0  0  0  0  0  0  0  0  0  0  0
   -4.3270   -2.1990   -1.0350 C   0  0  0  0  0  0  0  0  0  0  0  0
   -3.2330   -1.8100   -0.4110 C   0  0  0  0  0  0  0  0  0  0  0  0
   -3.0700   -0.4800   -0.0220 C   0  0  0  0  0  0  0  0  0  0  0  0
   -1.9210   -0.1320    0.6170 C   0  0  0  0  0  0  0  0  0  0  0  0
   -0.9010   -1.0240    0.9120 C   0  0  0  0  0  0  0  0  0  0  0  0
   -1.0730   -2.3330    0.5220 C   0  0  0  0  0  0  0  0  0  0  0  0
   -0.0460   -3.2220    0.8170 C   0  0  0  0  0  0  0  0  0  0  0  0
   -0.1910   -4.5400    0.4380 C   0  0  0  0  0  0  0  0  0  0  0  0
   -1.3300   -4.9730   -0.2200 C   0  0  0  0  0  0  0  0  0  0  0  0
   -2.3390   -4.0580   -0.4990 C   0  0  0  0  0  0  0  0  0  0  0  0
   -2.2400   -2.7250   -0.1400 C   0  0  0  0  0  0  0  0  0  0  0  0
    0.2000   -0.8410    1.5750 N   0  0  0  0  0  0  0  0  0  0  0  0
    0.7140    0.2830    2.2030 N   0  0  0  0  0  0  0  0  0  0  0  0
    2.1120    0.2550    2.5250 C   0  0  0  0  0  0  0  0  0  0  0  0
    2.9930    0.7730    1.4810 C   0  0  0  0  0  0  0  0  0  0  0  0
    3.5950   -0.0650    0.5730 C   0  0  0  0  0  0  0  0  0  0  0  0
    4.4220    0.4550   -0.4040 C   0  0  0  0  0  0  0  0  0  0  0  0
    5.0140   -0.2890   -1.2770 N   0  0  0  0  0  0  0  0  0  0  0  0
    4.8480   -1.7200   -1.2870 C   0  0  0  0  0  0  0  0  0  0  0  0
    5.8660   -2.3970   -2.1770 C   0  0  0  0  0  0  0  0  0  0  0  0
    7.2810   -2.1140   -1.7150 C   0  0  0  0  0  0  0  0  0  0  0  0
    4.6160    1.7920   -0.4370 N   0  0  0  0  0  0  0  0  0  0  0  0
    4.0250    2.6040    0.4530 C   0  0  0  0  0  0  0  0  0  0  0  0
    3.2220    2.0920    1.4000 N   0  0  0  0  0  0  0  0  0  0  0  0
   -0.0060    1.4630    2.5690 C   0  0  0  0  0  0  0  0  0  0  0  0
    0.4930    2.0960    3.5300 O   0  0  0  0  0  0  0  0  0  0  0  0
   -1.1910    1.9640    1.9650 N   0  0  0  0  0  0  0  0  0  0  0  0
   -1.6080    3.2230    2.4990 C   0  0  0  0  0  0  0  0  0  0  0  0
   -2.6340    3.9130    1.6290 C   0  0  0  0  0  0  0  0  0  0  0  0
   -2.6150    3.4330    0.2370 C   0  0  0  0  0  0  0  0  0  0  0  0
   -2.6300    4.2300   -0.8010 C   0  0  0  0  0  0  0  0  0  0  0  0
   -2.6690    5.7080   -0.6120 C   0  0  2  0  0  0  0  0  0  0  0  0
   -2.8660    6.3450   -1.8380 F   0  0  0  0  0  0  0  0  0  0  0  0
   -1.5020    6.2200   -0.1060 F   0  0  0  0  0  0  0  0  0  0  0  0
   -3.7600    6.0750    0.1660 F   0  0  0  0  0  0  0  0  0  0  0  0
   -2.5860    1.9860    0.0070 C   0  0  0  0  0  0  0  0  0  0  0  0
   -1.9050    1.2900    0.8950 C   0  0  0  0  0  0  0  0  0  0  0  0
  1  2  1  0
  2  3  1  0
  3  4  2  3
  4  5  1  0
  4 13  1  0
  5  6  2  0
  6  7  1  0
  6 39  1  0
  7  8  1  0
  7 14  2  0
  8  9  2  0
  8 13  1  0
  9 10  1  0
 10 11  2  0
 11 12  1  0
 12 13  2  0
 14 15  1  0
 15 16  1  0
 15 27  1  0
 16 17  1  0
 17 18  2  0
 17 26  1  0
 18 19  1  0
 19 20  2  3
 19 24  1  0
 20 21  1  0
 21 22  1  0
 22 23  1  0
 24 25  1  0
 25 26  2  0
 27 28  2  0
 27 29  1  0
 29 30  1  0
 29 39  1  0
 30 31  1  0
 31 32  1  0
 32 33  2  3
 32 38  1  0
 33 34  1  0
 34 35  1  6
 34 36  1  0
 34 37  1  0
 38 39  2  0
M  CHG  1  20   1
M  END
