
     RDKit          3D

 34 35  0  0  0  0  0  0  0  0999 V2000
   -0.4020    1.1460   -4.3900 C   0  0  0  0  0  0  0  0  0  0  0  0
    0.1940    0.8760   -3.2830 O   0  0  0  0  0  0  0  0  0  0  0  0
    0.8650    0.6280   -2.1990 C   0  0  0  0  0  0  0  0  0  0  0  0
    2.2430    0.8460   -2.0850 C   0  0  0  0  0  0  0  0  0  0  0  0
    2.9820    0.5970   -0.9620 C   0  0  0  0  0  0  0  0  0  0  0  0
    2.2840    0.0940    0.1260 C   0  0  0  0  0  0  0  0  0  0  0  0
    0.9120   -0.1420    0.0690 C   0  0  0  0  0  0  0  0  0  0  0  0
    0.2180    0.1220   -1.0770 C   0  0  0  0  0  0  0  0  0  0  0  0
   -1.1520   -0.1070   -1.1540 O   0  0  0  0  0  0  0  0  0  0  0  0
   -1.8060   -0.6200   -0.0170 C   0  0  0  0  0  0  0  0  0  0  0  0
   -3.2360   -0.7840   -0.3160 C   0  0  0  0  0  0  0  0  0  0  0  0
   -3.6470   -0.4560   -1.4710 O   0  0  0  0  0  0  0  0  0  0  0  0
   -4.1670   -1.2930    0.6380 N   0  0  0  0  0  0  0  0  0  0  0  0
   -3.7700   -1.7210    1.9580 C   0  0  0  0  0  0  0  0  0  0  0  0
   -3.4330   -3.1790    1.9090 C   0  0  0  0  0  0  0  0  0  0  0  0
   -3.0470   -3.5980    3.1870 O   0  0  0  0  0  0  0  0  0  0  0  0
   -5.5550   -1.3610    0.2750 C   0  0  0  0  0  0  0  0  0  0  0  0
   -6.3390   -0.1380    0.6890 C   0  0  2  0  0  0  0  0  0  0  0  0
   -7.6610   -0.3540    0.2240 O   0  0  0  0  0  0  0  0  0  0  0  0
   -8.7550   -0.5800    1.0100 C   0  0  0  0  0  0  0  0  0  0  0  0
   -8.5910   -0.6030    2.2590 O   0  0  0  0  0  0  0  0  0  0  0  0
   -5.7280    1.1030    0.2610 C   0  0  0  0  0  0  0  0  0  0  0  0
   -6.4000    1.9670   -0.6380 N   0  0  0  0  0  0  0  0  0  0  0  0
   -4.5980    1.4410    0.6730 O   0  0  0  0  0  0  0  0  0  0  0  0
    2.9680   -0.1980    1.3450 N   0  0  0  0  0  0  0  0  0  0  0  0
    4.3550    0.0180    1.4690 C   0  0  0  0  0  0  0  0  0  0  0  0
    4.9030   -0.2610    2.5770 O   0  0  0  0  0  0  0  0  0  0  0  0
    5.1220    0.5500    0.3370 C   0  0  0  0  0  0  0  0  0  0  0  0
    6.4060    0.7320    0.4960 C   0  0  0  0  0  0  0  0  0  0  0  0
    7.4070    1.2390   -0.4360 C   0  0  1  0  0  0  0  0  0  0  0  0
    8.0780    2.4330    0.2700 C   0  0  0  0  0  0  0  0  0  0  0  0
    8.4500    0.1350   -0.6320 C   0  0  0  0  0  0  0  0  0  0  0  0
    4.4450    0.8490   -0.8990 C   0  0  0  0  0  0  0  0  0  0  0  0
    5.0190    1.3060   -1.9250 N   0  0  0  0  0  0  0  0  0  0  0  0
  1  2  1  0
  2  3  1  0
  3  4  2  0
  3  8  1  0
  4  5  1  0
  5  6  2  0
  5 33  1  0
  6  7  1  0
  6 25  1  0
  7  8  2  0
  8  9  1  0
  9 10  1  0
 10 11  1  0
 11 12  2  0
 11 13  1  0
 13 14  1  0
 13 17  1  0
 14 15  1  0
 15 16  1  0
 18 17  1  6
 18 19  1  0
 18 22  1  0
 19 20  1  0
 20 21  2  0
 22 23  1  0
 22 24  2  0
 25 26  1  0
 26 27  2  0
 26 28  1  0
 28 29  2  3
 28 33  1  0
 29 30  1  0
 30 31  1  1
 30 32  1  0
 33 34  2  0
M  END
