
     RDKit          3D

 34 35  0  0  0  0  0  0  0  0999 V2000
    7.6340   -4.7320   -0.8020 C   0  0  0  0  0  0  0  0  0  0  0  0
    7.9770   -3.2820   -0.5570 C   0  0  0  0  0  0  0  0  0  0  0  0
    6.7480   -2.5260   -0.4770 N   0  0  0  0  0  0  0  0  0  0  0  0
    6.7450   -1.1290   -0.2530 C   0  0  0  0  0  0  0  0  0  0  0  0
    7.8470   -0.5490   -0.1230 O   0  0  0  0  0  0  0  0  0  0  0  0
    5.4720   -0.3820   -0.1770 C   0  0  0  0  0  0  0  0  0  0  0  0
    4.1970   -0.8950   -0.2970 C   0  0  0  0  0  0  0  0  0  0  0  0
    3.2840    0.1230   -0.1670 C   0  0  0  0  0  0  0  0  0  0  0  0
    1.8710    0.0860   -0.2170 N   0  0  0  0  0  0  0  0  0  0  0  0
    1.1300   -1.1070   -0.4250 C   0  0  0  0  0  0  0  0  0  0  0  0
    1.7210   -2.2070   -0.5760 O   0  0  0  0  0  0  0  0  0  0  0  0
   -0.3270   -1.0300   -0.4590 C   0  0  0  0  0  0  0  0  0  0  0  0
   -1.1360    0.0630   -0.3180 C   0  0  0  0  0  0  0  0  0  0  0  0
   -2.4880   -0.3160   -0.4170 C   0  0  0  0  0  0  0  0  0  0  0  0
   -3.5490    0.6460   -0.2920 C   0  0  0  0  0  0  0  0  0  0  0  0
   -3.2820    1.8980   -0.2240 O   0  0  0  0  0  0  0  0  0  0  0  0
   -4.9090    0.3320   -0.2340 N   0  0  0  0  0  0  0  0  0  0  0  0
   -5.9640    1.3490   -0.1080 C   0  0  1  0  0  0  0  0  0  0  0  0
   -6.8610    1.1820   -1.2910 C   0  0  0  0  0  0  0  0  0  0  0  0
   -8.0190    2.1340   -1.3570 C   0  0  0  0  0  0  0  0  0  0  0  0
   -8.8990    2.0720   -0.3120 O   0  0  0  0  0  0  0  0  0  0  0  0
   -6.6390    1.1550    1.2120 C   0  0  0  0  0  0  0  0  0  0  0  0
   -7.2740   -0.1570    1.3740 C   0  0  0  0  0  0  0  0  0  0  0  0
   -7.3200   -1.0860    0.5500 O   0  0  0  0  0  0  0  0  0  0  0  0
   -7.9130   -0.4130    2.6050 O   0  0  0  0  0  0  0  0  0  0  0  0
   -2.4360   -1.6610   -0.6190 C   0  0  0  0  0  0  0  0  0  0  0  0
   -3.5890   -2.5540   -0.7990 C   0  0  0  0  0  0  0  0  0  0  0  0
   -1.1470   -2.0720   -0.6420 N   0  0  0  0  0  0  0  0  0  0  0  0
    4.0740    1.2750    0.0380 C   0  0  0  0  0  0  0  0  0  0  0  0
    3.4120    2.5860    0.2160 C   0  0  0  0  0  0  0  0  0  0  0  0
    4.0990    3.6810    0.4500 O   0  0  0  0  0  0  0  0  0  0  0  0
    4.7040    3.9150    1.6000 C   0  0  0  0  0  0  0  0  0  0  0  0
    5.7920    2.9680    1.9970 C   0  0  0  0  0  0  0  0  0  0  0  0
    5.3030    0.8920    0.0170 O   0  0  0  0  0  0  0  0  0  0  0  0
  1  2  1  0
  2  3  1  0
  3  4  1  0
  4  5  2  0
  4  6  1  0
  6  7  2  0
  6 34  1  0
  7  8  1  0
  8  9  1  0
  8 29  2  0
  9 10  1  0
 10 11  2  0
 10 12  1  0
 12 13  2  0
 12 28  1  0
 13 14  1  0
 14 15  1  0
 14 26  2  0
 15 16  2  0
 15 17  1  0
 17 18  1  0
 18 19  1  6
 18 22  1  0
 19 20  1  0
 20 21  1  0
 22 23  1  0
 23 24  2  0
 23 25  1  0
 26 27  1  0
 26 28  1  0
 29 30  1  0
 29 34  1  0
 30 31  1  0
 31 32  1  0
 32 33  1  0
M  END
