
     RDKit          3D

 34 35  0  0  0  0  0  0  0  0999 V2000
   -8.8960    2.7770    0.5760 C   0  0  0  0  0  0  0  0  0  0  0  0
   -8.0230    1.8550   -0.0030 O   0  0  0  0  0  0  0  0  0  0  0  0
   -8.3680    0.5440   -0.3050 C   0  0  0  0  0  0  0  0  0  0  0  0
   -9.6250    0.0610   -0.0450 C   0  0  0  0  0  0  0  0  0  0  0  0
   -9.9220   -1.2450   -0.3610 C   0  0  0  0  0  0  0  0  0  0  0  0
   -8.9590   -2.0320   -0.9270 C   0  0  0  0  0  0  0  0  0  0  0  0
   -7.7030   -1.5540   -1.1880 C   0  0  0  0  0  0  0  0  0  0  0  0
   -7.3700   -0.2540   -0.8850 C   0  0  0  0  0  0  0  0  0  0  0  0
   -6.0970    0.3270   -1.1180 N   0  0  0  0  0  0  0  0  0  0  0  0
   -4.9710   -0.3010   -1.6890 C   0  0  0  0  0  0  0  0  0  0  0  0
   -5.0270   -1.4780   -2.0470 O   0  0  0  0  0  0  0  0  0  0  0  0
   -3.7290    0.3840   -1.8780 N   0  0  0  0  0  0  0  0  0  0  0  0
   -2.5870   -0.2930   -2.4690 C   0  0  0  0  0  0  0  0  0  0  0  0
   -2.1520   -1.4810   -1.6820 C   0  0  0  0  0  0  0  0  0  0  0  0
   -1.7930   -1.1590   -0.4110 O   0  0  0  0  0  0  0  0  0  0  0  0
   -0.7410   -0.2650   -0.3800 C   0  0  0  0  0  0  0  0  0  0  0  0
   -0.4330   -0.0350    1.1000 C   0  0  0  0  0  0  0  0  0  0  0  0
    0.6090    0.8510    1.2530 O   0  0  0  0  0  0  0  0  0  0  0  0
    1.7770    0.4370    0.6670 C   0  0  0  0  0  0  0  0  0  0  0  0
    2.2210   -0.8590    1.2510 C   0  0  0  0  0  0  0  0  0  0  0  0
    3.4160   -1.3750    0.7200 O   0  0  0  0  0  0  0  0  0  0  0  0
    4.6540   -0.7450    0.7650 C   0  0  0  0  0  0  0  0  0  0  0  0
    4.6860    0.3660    1.3270 O   0  0  0  0  0  0  0  0  0  0  0  0
    5.8180   -1.3340    0.2010 N   0  0  0  0  0  0  0  0  0  0  0  0
    7.1040   -0.7700    0.2030 C   0  0  0  0  0  0  0  0  0  0  0  0
    8.1050   -1.4380   -0.4700 C   0  0  0  0  0  0  0  0  0  0  0  0
    9.4100   -0.9640   -0.5220 C   0  0  0  0  0  0  0  0  0  0  0  0
    9.7460    0.2180    0.1150 C   0  0  0  0  0  0  0  0  0  0  0  0
   11.0820    0.6750    0.0430 N   0  0  0  0  0  0  0  0  0  0  0  0
    8.7570    0.8970    0.7930 C   0  0  0  0  0  0  0  0  0  0  0  0
    9.0960    2.1310    1.4620 C   0  0  0  0  0  0  0  0  0  0  0  0
   10.2620    2.5670    1.4220 O   0  0  0  0  0  0  0  0  0  0  0  0
    8.1230    2.8290    2.1460 O   0  0  0  0  0  0  0  0  0  0  0  0
    7.4480    0.3920    0.8270 C   0  0  0  0  0  0  0  0  0  0  0  0
  1  2  1  0
  2  3  1  0
  3  4  2  0
  3  8  1  0
  4  5  1  0
  5  6  2  0
  6  7  1  0
  7  8  2  0
  8  9  1  0
  9 10  1  0
 10 11  2  0
 10 12  1  0
 12 13  1  0
 13 14  1  0
 14 15  1  0
 15 16  1  0
 16 17  1  0
 17 18  1  0
 18 19  1  0
 19 20  1  0
 20 21  1  0
 21 22  1  0
 22 23  2  0
 22 24  1  0
 24 25  1  0
 25 26  2  0
 25 34  1  0
 26 27  1  0
 27 28  2  0
 28 29  1  0
 28 30  1  0
 30 31  1  0
 30 34  2  0
 31 32  2  0
 31 33  1  0
M  END
