
     RDKit          3D

 34 35  0  0  0  0  0  0  0  0999 V2000
    9.6410    0.6180   -1.6390 C   0  0  0  0  0  0  0  0  0  0  0  0
    8.5000    0.7260   -2.5960 C   0  0  0  0  0  0  0  0  0  0  0  0
    7.2830    0.1900   -1.9760 N   0  0  0  0  0  0  0  0  0  0  0  0
    6.7550    0.7400   -0.7830 C   0  0  0  0  0  0  0  0  0  0  0  0
    7.3480    1.7130   -0.2440 O   0  0  0  0  0  0  0  0  0  0  0  0
    5.5370    0.2170   -0.1470 C   0  0  0  0  0  0  0  0  0  0  0  0
    5.2130    0.9830    1.1150 C   0  0  0  0  0  0  0  0  0  0  0  0
    3.9720    0.4030    1.7060 C   0  0  0  0  0  0  0  0  0  0  0  0
    2.8570    0.4740    0.8610 O   0  0  0  0  0  0  0  0  0  0  0  0
    2.2830    1.6040    0.3510 C   0  0  0  0  0  0  0  0  0  0  0  0
    2.8080    2.7010    0.6720 O   0  0  0  0  0  0  0  0  0  0  0  0
    1.1200    1.5130   -0.5200 C   0  0  0  0  0  0  0  0  0  0  0  0
    0.5260    0.4040   -0.8910 C   0  0  0  0  0  0  0  0  0  0  0  0
    1.0080   -0.8820   -0.4390 C   0  0  0  0  0  0  0  0  0  0  0  0
    0.3080   -1.9860   -0.8420 O   0  0  0  0  0  0  0  0  0  0  0  0
   -0.9980   -1.7730   -1.2090 C   0  0  1  0  0  0  0  0  0  0  0  0
   -1.8350   -1.3410   -0.0280 C   0  0  0  0  0  0  0  0  0  0  0  0
   -1.3020   -1.1890    1.0810 O   0  0  0  0  0  0  0  0  0  0  0  0
   -3.2160   -1.1120   -0.1920 N   0  0  0  0  0  0  0  0  0  0  0  0
   -4.1250   -0.7050    0.8030 C   0  0  0  0  0  0  0  0  0  0  0  0
   -3.8440   -0.4410    2.1170 C   0  0  0  0  0  0  0  0  0  0  0  0
   -4.8180   -0.0390    3.0300 C   0  0  0  0  0  0  0  0  0  0  0  0
   -6.1120    0.0990    2.5950 C   0  0  0  0  0  0  0  0  0  0  0  0
   -7.1760    0.5260    3.5200 C   0  0  0  0  0  0  0  0  0  0  0  0
   -6.8000    0.9030    4.8250 N   0  0  0  0  0  0  0  0  0  0  0  0
   -8.3560    0.5340    3.1070 O   0  0  0  0  0  0  0  0  0  0  0  0
   -6.4400   -0.1570    1.2780 C   0  0  0  0  0  0  0  0  0  0  0  0
   -5.4580   -0.5500    0.4140 C   0  0  0  0  0  0  0  0  0  0  0  0
   -5.8060   -0.7950   -0.8840 O   0  0  0  0  0  0  0  0  0  0  0  0
   -7.0460   -0.7200   -1.4910 C   0  0  0  0  0  0  0  0  0  0  0  0
   -8.0810   -1.6280   -0.9830 C   0  0  0  0  0  0  0  0  0  0  0  0
   -7.9580   -2.4610   -0.1200 O   0  0  0  0  0  0  0  0  0  0  0  0
   -1.1730   -0.7530   -2.2820 C   0  0  0  0  0  0  0  0  0  0  0  0
   -0.5990    0.4930   -1.7480 N   0  0  0  0  0  0  0  0  0  0  0  0
  1  2  1  0
  2  3  1  0
  3  4  1  0
  4  5  2  0
  4  6  1  0
  6  7  1  0
  7  8  1  0
  8  9  1  0
  9 10  1  0
 10 11  2  0
 10 12  1  0
 12 13  2  3
 13 14  1  0
 13 34  1  0
 14 15  1  0
 15 16  1  0
 16 17  1  1
 16 33  1  0
 17 18  2  0
 17 19  1  0
 19 20  1  0
 20 21  2  0
 20 28  1  0
 21 22  1  0
 22 23  2  0
 23 24  1  0
 23 27  1  0
 24 25  1  0
 24 26  2  0
 27 28  2  0
 28 29  1  0
 29 30  1  0
 30 31  1  0
 31 32  2  0
 33 34  1  0
M  END
