
     RDKit          3D

 35 41  0  0  0  0  0  0  0  0999 V2000
   -7.1010   -0.5750    0.5250 C   0  0  0  0  0  0  0  0  0  0  0  0
   -5.7130   -0.6440    0.8810 N   0  0  1  0  0  0  0  0  0  0  0  0
   -5.0570   -1.6900    0.1730 C   0  0  0  0  0  0  0  0  0  0  0  0
   -5.0490    0.6400    0.8520 C   0  0  1  0  0  0  0  0  0  0  0  0
   -3.6630    0.5150    1.3660 C   0  0  0  0  0  0  0  0  0  0  0  0
   -2.5510    0.6820    0.3970 C   0  0  1  0  0  0  0  0  0  0  0  0
   -1.7180    1.9360    0.7140 C   0  0  0  0  0  0  0  0  0  0  0  0
   -0.3200    1.5640    0.2400 C   0  0  0  0  0  0  0  0  0  0  0  0
   -0.4590    0.1170   -0.0700 C   0  0  1  0  0  0  0  0  0  0  0  0
   -1.6020   -0.3130    0.6440 O   0  0  0  0  0  0  0  0  0  0  0  0
   -0.7240   -0.1690   -1.5020 C   0  0  0  0  0  0  0  0  0  0  0  0
    0.1600   -0.7290   -2.2930 C   0  0  0  0  0  0  0  0  0  0  0  0
    1.5230   -1.1530   -1.8900 C   0  0  0  0  0  0  0  0  0  0  0  0
    1.8960   -0.6390   -0.5250 C   0  0  2  0  0  0  0  0  0  0  0  0
    2.4610    0.7270   -0.6720 C   0  0  0  0  0  0  0  0  0  0  0  0
    2.8350   -1.5680    0.2110 C   0  0  1  0  0  0  0  0  0  0  0  0
    4.2530   -1.1350    0.1330 C   0  0  0  0  0  0  0  0  0  0  0  0
    5.1420   -1.7520   -0.7540 C   0  0  0  0  0  0  0  0  0  0  0  0
    6.4590   -1.3770   -0.8370 C   0  0  0  0  0  0  0  0  0  0  0  0
    6.9520   -0.3620   -0.0320 C   0  0  0  0  0  0  0  0  0  0  0  0
    8.2600    0.0600   -0.0680 C   0  0  0  0  0  0  0  0  0  0  0  0
    8.6810    1.0790    0.7650 C   0  0  0  0  0  0  0  0  0  0  0  0
    7.8240    1.6600    1.6070 N   0  0  0  0  0  0  0  0  0  0  0  0
    6.5360    1.2890    1.6840 C   0  0  0  0  0  0  0  0  0  0  0  0
    6.1070    0.2760    0.8610 C   0  0  0  0  0  0  0  0  0  0  0  0
    4.7990   -0.1350    0.9060 C   0  0  0  0  0  0  0  0  0  0  0  0
    2.3260   -1.6760    1.6310 C   0  0  0  0  0  0  0  0  0  0  0  0
    1.2040   -0.6250    1.7040 C   0  0  0  0  0  0  0  0  0  0  0  0
    0.6650   -0.7450    0.3320 C   0  0  1  0  0  0  0  0  0  0  0  0
   -2.0560    0.2090   -1.9590 C   0  0  0  0  0  0  0  0  0  0  0  0
   -2.8930    0.6730   -1.0180 C   0  0  0  0  0  0  0  0  0  0  0  0
   -4.1900    1.1920   -1.4560 C   0  0  1  0  0  0  0  0  0  0  0  0
   -4.6790    0.3390   -2.4770 O   0  0  0  0  0  0  0  0  0  0  0  0
   -5.2080    1.4000   -0.4070 C   0  0  2  0  0  0  0  0  0  0  0  0
   -5.2380    2.7840   -0.1080 O   0  0  0  0  0  0  0  0  0  0  0  0
  2  1  1  6
  2  3  1  0
  2  4  1  0
  4  5  1  6
  4 34  1  0
  6  5  1  1
  6  7  1  0
  6 10  1  0
  6 31  1  0
  7  8  1  0
  9  8  1  6
  9 10  1  0
  9 11  1  0
  9 29  1  0
 11 12  2  0
 11 30  1  0
 12 13  1  0
 13 14  1  0
 14 15  1  6
 14 16  1  0
 14 29  1  0
 16 17  1  1
 16 27  1  0
 17 18  2  0
 17 26  1  0
 18 19  1  0
 19 20  2  0
 20 21  1  0
 20 25  1  0
 21 22  2  0
 22 23  1  0
 23 24  2  0
 24 25  1  0
 25 26  2  0
 27 28  1  0
 29 28  1  1
 30 31  2  0
 31 32  1  0
 32 33  1  6
 32 34  1  0
 34 35  1  1
M  CHG  1   2   1
M  END
