
     RDKit          3D

 34 35  0  0  0  0  0  0  0  0999 V2000
   -7.5720    1.2550    3.0180 C   0  0  0  0  0  0  0  0  0  0  0  0
   -7.2790   -0.0120    2.5400 O   0  0  0  0  0  0  0  0  0  0  0  0
   -7.0460   -0.0450    1.2090 C   0  0  0  0  0  0  0  0  0  0  0  0
   -5.9310    0.7730    0.6490 C   0  0  0  0  0  0  0  0  0  0  0  0
   -4.7120    0.5100    1.1170 O   0  0  0  0  0  0  0  0  0  0  0  0
   -4.0580   -0.6010    1.1680 C   0  0  0  0  0  0  0  0  0  0  0  0
   -3.5670   -1.4720    0.1090 C   0  0  0  0  0  0  0  0  0  0  0  0
   -2.5930   -0.9120   -0.8500 C   0  0  0  0  0  0  0  0  0  0  0  0
   -1.2440   -0.8580   -0.4020 C   0  0  0  0  0  0  0  0  0  0  0  0
   -0.3010   -0.3050   -1.2020 C   0  0  0  0  0  0  0  0  0  0  0  0
    1.0960   -0.2630   -0.7400 C   0  0  0  0  0  0  0  0  0  0  0  0
    1.3370    0.3520    0.3220 O   0  0  0  0  0  0  0  0  0  0  0  0
    2.1370   -0.8970   -1.4570 N   0  0  0  0  0  0  0  0  0  0  0  0
    3.4840   -0.8590   -1.0200 C   0  0  0  0  0  0  0  0  0  0  0  0
    4.3580   -1.8610   -1.4730 C   0  0  0  0  0  0  0  0  0  0  0  0
    5.6750   -1.8850   -1.0840 C   0  0  0  0  0  0  0  0  0  0  0  0
    6.2180   -0.9160   -0.2190 C   0  0  0  0  0  0  0  0  0  0  0  0
    7.5790   -1.0750    0.1580 N   0  0  0  0  0  0  0  0  0  0  0  0
    5.3820    0.0620    0.2230 C   0  0  0  0  0  0  0  0  0  0  0  0
    5.7530    1.1580    1.1040 C   0  0  0  0  0  0  0  0  0  0  0  0
    7.1140    1.2850    1.6310 C   0  0  2  0  0  0  0  0  0  0  0  0
    7.5830    0.2620    2.4190 O   0  0  0  0  0  0  0  0  0  0  0  0
    7.1540    2.5630    2.4430 C   0  0  0  0  0  0  0  0  0  0  0  0
    7.6070    2.5310    3.7660 N   0  0  0  0  0  0  0  0  0  0  0  0
    6.7810    3.6290    1.9150 O   0  0  0  0  0  0  0  0  0  0  0  0
    4.0270    0.0600   -0.1940 C   0  0  0  0  0  0  0  0  0  0  0  0
   -0.6770    0.1820   -2.4130 C   0  0  0  0  0  0  0  0  0  0  0  0
    0.2300    0.6920   -3.1430 O   0  0  0  0  0  0  0  0  0  0  0  0
   -1.9550    0.1380   -2.8480 N   0  0  0  0  0  0  0  0  0  0  0  0
   -2.9390   -0.4190   -2.0580 C   0  0  0  0  0  0  0  0  0  0  0  0
   -4.2870   -0.4830   -2.5980 C   0  0  0  0  0  0  0  0  0  0  0  0
   -5.2970   -0.9450   -2.0640 O   0  0  0  0  0  0  0  0  0  0  0  0
   -4.5030    0.0400   -3.8990 O   0  0  0  0  0  0  0  0  0  0  0  0
   -5.7500    0.0420   -4.5350 C   0  0  0  0  0  0  0  0  0  0  0  0
  1  2  1  0
  2  3  1  0
  3  4  1  0
  4  5  1  0
  5  6  1  0
  6  7  1  0
  7  8  1  0
  8  9  1  0
  8 30  2  0
  9 10  2  0
 10 11  1  0
 10 27  1  0
 11 12  2  0
 11 13  1  0
 13 14  1  0
 14 15  2  0
 14 26  1  0
 15 16  1  0
 16 17  2  0
 17 18  1  0
 17 19  1  0
 19 20  1  0
 19 26  2  0
 20 21  1  0
 21 22  1  1
 21 23  1  0
 23 24  1  0
 23 25  2  0
 27 28  2  0
 27 29  1  0
 29 30  1  0
 30 31  1  0
 31 32  2  0
 31 33  1  0
 33 34  1  0
M  END
