
     RDKit          3D

 12 12  0  0  0  0  0  0  0  0999 V2000
   -3.3510   -0.8490    0.1500 C   0  0  0  0  0  0  0  0  0  0  0  0
   -2.0700   -1.0550   -0.4080 O   0  0  0  0  0  0  0  0  0  0  0  0
   -1.3670    0.1280   -0.4960 C   0  0  2  0  0  0  0  0  0  0  0  0
   -1.1190    0.4180   -1.8240 O   0  0  0  0  0  0  0  0  0  0  0  0
   -0.0660    0.0630    0.3170 C   0  0  2  0  0  0  0  0  0  0  0  0
    0.6220    1.3690    0.1650 C   0  0  0  0  0  0  0  0  0  0  0  0
    2.0860    1.2850   -0.1100 C   0  0  1  0  0  0  0  0  0  0  0  0
    2.7010    2.4580    0.3270 O   0  0  0  0  0  0  0  0  0  0  0  0
    2.6100    0.2390    0.6290 O   0  0  0  0  0  0  0  0  0  0  0  0
    2.2200   -0.9490    0.0300 C   0  0  0  0  0  0  0  0  0  0  0  0
    0.7290   -1.1440    0.0210 C   0  0  2  0  0  0  0  0  0  0  0  0
    0.4100   -1.7140   -1.2320 O   0  0  0  0  0  0  0  0  0  0  0  0
  1  2  1  0
  2  3  1  0
  3  4  1  6
  3  5  1  0
  5  6  1  6
  5 11  1  0
  6  7  1  0
  7  8  1  1
  7  9  1  0
  9 10  1  0
 10 11  1  0
 11 12  1  6
M  END
