
     RDKit          3D

 12 12  0  0  0  0  0  0  0  0999 V2000
   -1.4660   -1.9670    0.3670 C   0  0  0  0  0  0  0  0  0  0  0  0
   -0.6930   -0.7700   -0.2040 C   0  0  2  0  0  0  0  0  0  0  0  0
    0.6380   -1.1120   -0.1780 O   0  0  0  0  0  0  0  0  0  0  0  0
    1.4730   -0.0620    0.2090 C   0  0  1  0  0  0  0  0  0  0  0  0
    1.4640   -0.0610    1.6180 O   0  0  0  0  0  0  0  0  0  0  0  0
    2.8550   -0.3900   -0.2700 C   0  0  0  0  0  0  0  0  0  0  0  0
    3.8100    0.5320    0.0210 O   0  0  0  0  0  0  0  0  0  0  0  0
    0.9080    1.2020   -0.3420 C   0  0  0  0  0  0  0  0  0  0  0  0
   -0.2280    1.5200    0.4040 O   0  0  0  0  0  0  0  0  0  0  0  0
   -1.0400    0.4140    0.6340 C   0  0  1  0  0  0  0  0  0  0  0  0
   -2.4620    0.8460    0.3160 C   0  0  0  0  0  0  0  0  0  0  0  0
   -2.5990    1.2570   -0.9940 O   0  0  0  0  0  0  0  0  0  0  0  0
  2  1  1  1
  2  3  1  0
  2 10  1  0
  3  4  1  0
  4  5  1  1
  4  6  1  0
  4  8  1  0
  6  7  1  0
  8  9  1  0
  9 10  1  0
 10 11  1  6
 11 12  1  0
M  END
