
     RDKit          3D

 12 12  0  0  0  0  0  0  0  0999 V2000
    3.2380   -0.2670    0.1600 C   0  0  0  0  0  0  0  0  0  0  0  0
    2.1730   -0.3380   -0.7170 O   0  0  0  0  0  0  0  0  0  0  0  0
    0.9410   -0.1740   -0.0770 C   0  0  2  0  0  0  0  0  0  0  0  0
    0.2240   -1.3290   -0.2730 O   0  0  0  0  0  0  0  0  0  0  0  0
   -1.0750   -1.3190    0.1080 C   0  0  1  0  0  0  0  0  0  0  0  0
   -1.3290   -2.0590    1.4100 C   0  0  0  0  0  0  0  0  0  0  0  0
   -1.7120    0.0480    0.1670 C   0  0  1  0  0  0  0  0  0  0  0  0
   -1.3370    0.7620    1.3050 O   0  0  0  0  0  0  0  0  0  0  0  0
   -1.1630    0.8080   -1.0240 C   0  0  1  0  0  0  0  0  0  0  0  0
   -1.8340    1.9880   -1.2190 O   0  0  0  0  0  0  0  0  0  0  0  0
    0.3100    1.0540   -0.6750 C   0  0  2  0  0  0  0  0  0  0  0  0
    0.9460    1.5100   -1.8090 O   0  0  0  0  0  0  0  0  0  0  0  0
  1  2  1  0
  3  2  1  6
  3  4  1  0
  3 11  1  0
  4  5  1  0
  5  6  1  1
  5  7  1  0
  7  8  1  1
  7  9  1  0
  9 10  1  1
  9 11  1  0
 11 12  1  6
M  END
