
     RDKit          3D

 12 12  0  0  0  0  0  0  0  0999 V2000
    3.4330   -0.6500   -0.1580 C   0  0  0  0  0  0  0  0  0  0  0  0
    2.1780   -0.4070    0.6710 C   0  0  0  0  0  0  0  0  0  0  0  0
    1.2160    0.0970   -0.1930 O   0  0  0  0  0  0  0  0  0  0  0  0
    0.0110    0.3680    0.4280 C   0  0  1  0  0  0  0  0  0  0  0  0
   -0.3060    1.8260    0.1930 C   0  0  1  0  0  0  0  0  0  0  0  0
    0.8020    2.6400    0.2120 O   0  0  0  0  0  0  0  0  0  0  0  0
   -0.8380    1.7770   -1.1110 O   0  0  0  0  0  0  0  0  0  0  0  0
   -1.8450    0.8270   -0.9470 C   0  0  0  0  0  0  0  0  0  0  0  0
   -1.1250   -0.3160   -0.3020 C   0  0  1  0  0  0  0  0  0  0  0  0
   -0.5980   -1.2240   -1.2020 O   0  0  0  0  0  0  0  0  0  0  0  0
   -2.0620   -1.0210    0.6520 C   0  0  0  0  0  0  0  0  0  0  0  0
   -3.0830   -1.5970   -0.0840 O   0  0  0  0  0  0  0  0  0  0  0  0
  1  2  1  0
  2  3  1  0
  4  3  1  6
  4  5  1  0
  4  9  1  0
  5  6  1  6
  5  7  1  0
  7  8  1  0
  8  9  1  0
  9 10  1  6
  9 11  1  0
 11 12  1  0
M  END
