
     RDKit          3D

 41 45  0  0  0  0  0  0  0  0999 V2000
   -2.6840   -1.4090    5.8420 C   0  0  0  0  0  0  0  0  0  0  0  0
   -1.8010   -1.8990    4.8310 O   0  0  0  0  0  0  0  0  0  0  0  0
   -2.2580   -1.8490    3.5200 C   0  0  0  0  0  0  0  0  0  0  0  0
   -1.4220   -2.3180    2.5290 C   0  0  0  0  0  0  0  0  0  0  0  0
   -1.8860   -2.2620    1.2380 C   0  0  0  0  0  0  0  0  0  0  0  0
   -0.8220   -2.8590   -0.0710 S   0  0  0  0  0  0  0  0  0  0  0  0
    0.1690   -1.4560   -0.6220 C   0  0  0  0  0  0  0  0  0  0  0  0
    1.1340   -1.0020    0.4580 C   0  0  0  0  0  0  0  0  0  0  0  0
    1.9340    0.1600   -0.0070 C   0  0  0  0  0  0  0  0  0  0  0  0
    2.8440    0.8730    0.4550 N   0  0  0  0  0  0  0  0  0  0  0  0
    3.4080    1.8700   -0.1370 C   0  0  0  0  0  0  0  0  0  0  0  0
    4.5290    2.7100    0.4730 C   0  0  0  0  0  0  0  0  0  0  0  0
    5.7610    2.3510   -0.0840 O   0  0  0  0  0  0  0  0  0  0  0  0
    6.2500    1.0640    0.0200 C   0  0  0  0  0  0  0  0  0  0  0  0
    5.5570    0.2140    0.6310 O   0  0  0  0  0  0  0  0  0  0  0  0
    7.5550    0.7180   -0.5800 C   0  0  0  0  0  0  0  0  0  0  0  0
    8.1810    1.6070   -1.1590 O   0  0  0  0  0  0  0  0  0  0  0  0
    8.0750   -0.5830   -0.4990 N   0  0  0  0  0  0  0  0  0  0  0  0
    9.2960   -1.0950   -0.9960 C   0  0  0  0  0  0  0  0  0  0  0  0
   10.5760   -0.5720   -0.4660 C   0  0  2  0  0  0  0  0  0  0  0  0
   10.8970    0.8630   -0.7120 C   0  0  0  0  0  0  0  0  0  0  0  0
   12.4520    0.8010   -0.6150 C   0  0  0  0  0  0  0  0  0  0  0  0
   12.7290   -0.5350   -1.2000 C   0  0  0  0  0  0  0  0  0  0  0  0
   11.6080   -1.2800   -1.0960 O   0  0  0  0  0  0  0  0  0  0  0  0
    2.9840    2.2040   -1.4050 C   0  0  0  0  0  0  0  0  0  0  0  0
    1.6860    0.9120   -1.6300 S   0  0  0  0  0  0  0  0  0  0  0  0
   -3.1430   -1.7600    0.9010 C   0  0  0  0  0  0  0  0  0  0  0  0
   -3.9740   -1.2940    1.8950 C   0  0  0  0  0  0  0  0  0  0  0  0
   -5.2970   -0.7590    1.6150 C   0  0  0  0  0  0  0  0  0  0  0  0
   -5.9700   -0.2840    2.5610 O   0  0  0  0  0  0  0  0  0  0  0  0
   -5.8910   -0.7330    0.3340 N   0  0  0  0  0  0  0  0  0  0  0  0
   -7.2050   -0.1970    0.0660 C   0  0  2  0  0  0  0  0  0  0  0  0
   -8.1640   -1.2570   -0.4350 C   0  0  0  0  0  0  0  0  0  0  0  0
   -9.3260   -0.3720   -0.9100 C   0  0  0  0  0  0  0  0  0  0  0  0
   -8.6490    0.8480   -1.4990 C   0  0  2  0  0  0  0  0  0  0  0  0
   -9.3400    2.1360   -1.1370 C   0  0  0  0  0  0  0  0  0  0  0  0
   -9.9150    2.6050   -2.4330 C   0  0  0  0  0  0  0  0  0  0  0  0
   -9.8410    1.5860   -3.3510 O   0  0  0  0  0  0  0  0  0  0  0  0
   -8.7590    0.7830   -3.0050 C   0  0  0  0  0  0  0  0  0  0  0  0
   -7.2180    0.8130   -1.0300 C   0  0  0  0  0  0  0  0  0  0  0  0
   -3.5130   -1.3480    3.1910 C   0  0  0  0  0  0  0  0  0  0  0  0
  1  2  1  0
  2  3  1  0
  3  4  2  0
  3 41  1  0
  4  5  1  0
  5  6  1  0
  5 27  2  0
  6  7  1  0
  7  8  1  0
  8  9  1  0
  9 10  2  0
  9 26  1  0
 10 11  1  0
 11 12  1  0
 11 25  2  0
 12 13  1  0
 13 14  1  0
 14 15  2  0
 14 16  1  0
 16 17  2  0
 16 18  1  0
 18 19  1  0
 20 19  1  6
 20 21  1  0
 20 24  1  0
 21 22  1  0
 22 23  1  0
 23 24  1  0
 25 26  1  0
 27 28  1  0
 28 29  1  0
 28 41  2  0
 29 30  2  0
 29 31  1  0
 32 31  1  6
 32 33  1  0
 32 40  1  0
 33 34  1  0
 35 34  1  1
 35 36  1  0
 35 39  1  0
 35 40  1  0
 36 37  1  0
 37 38  1  0
 38 39  1  0
M  END
