
     RDKit          3D

 42 45  0  0  0  0  0  0  0  0999 V2000
    8.1760   -3.2970   -1.2790 C   0  0  0  0  0  0  0  0  0  0  0  0
    7.9300   -1.8250   -1.6100 C   0  0  0  0  0  0  0  0  0  0  0  0
    8.9090   -1.0820   -2.1430 C   0  0  0  0  0  0  0  0  0  0  0  0
    8.6800    0.2440   -2.4070 C   0  0  0  0  0  0  0  0  0  0  0  0
    6.9870    0.4370   -1.8680 S   0  0  0  0  0  0  0  0  0  0  0  0
    6.7410   -1.2320   -1.3510 C   0  0  0  0  0  0  0  0  0  0  0  0
    5.4660   -1.6950   -0.7650 C   0  0  0  0  0  0  0  0  0  0  0  0
    5.1320   -2.9760   -0.4950 C   0  0  0  0  0  0  0  0  0  0  0  0
    3.9060   -3.3210    0.0980 C   0  0  0  0  0  0  0  0  0  0  0  0
    2.9830   -2.3250    0.4280 C   0  0  0  0  0  0  0  0  0  0  0  0
    3.2950   -1.0280    0.1640 C   0  0  0  0  0  0  0  0  0  0  0  0
    2.4510    0.0710    0.4290 N   0  0  0  0  0  0  0  0  0  0  0  0
    1.0720   -0.0110    0.7220 C   0  0  0  0  0  0  0  0  0  0  0  0
    0.5010   -1.1180    0.7560 O   0  0  0  0  0  0  0  0  0  0  0  0
    0.3100    1.2630    0.9910 C   0  0  2  0  0  0  0  0  0  0  0  0
   -1.1340    0.8630    1.2700 C   0  0  0  0  0  0  0  0  0  0  0  0
   -1.6990    0.1950    0.1730 O   0  0  0  0  0  0  0  0  0  0  0  0
   -3.0090   -0.2590    0.1980 C   0  0  0  0  0  0  0  0  0  0  0  0
   -3.6630   -0.0990    1.3530 C   0  0  0  0  0  0  0  0  0  0  0  0
   -5.0460   -0.5150    1.5660 C   0  0  0  0  0  0  0  0  0  0  0  0
   -5.3160   -0.7920    2.7770 O   0  0  0  0  0  0  0  0  0  0  0  0
   -6.0970   -0.6350    0.5580 C   0  0  0  0  0  0  0  0  0  0  0  0
   -5.8820   -1.6040   -0.5360 C   0  0  1  0  0  0  0  0  0  0  0  0
   -6.8590   -1.2880   -1.6430 C   0  0  0  0  0  0  0  0  0  0  0  0
   -8.2920   -1.3610   -1.2790 C   0  0  0  0  0  0  0  0  0  0  0  0
   -8.8030   -2.6790   -0.8130 C   0  0  1  0  0  0  0  0  0  0  0  0
   -8.5920   -3.5900   -1.8510 F   0  0  0  0  0  0  0  0  0  0  0  0
   -8.2230   -3.1600    0.3190 F   0  0  0  0  0  0  0  0  0  0  0  0
  -10.1680   -2.5430   -0.5750 F   0  0  0  0  0  0  0  0  0  0  0  0
   -4.6150   -1.6480   -1.1240 O   0  0  0  0  0  0  0  0  0  0  0  0
   -3.4780   -0.8560   -1.0750 C   0  0  0  0  0  0  0  0  0  0  0  0
   -2.8190   -0.6240   -2.0990 O   0  0  0  0  0  0  0  0  0  0  0  0
    0.3080    2.1350   -0.2420 C   0  0  0  0  0  0  0  0  0  0  0  0
   -0.2550    3.4840    0.0830 C   0  0  0  0  0  0  0  0  0  0  0  0
    0.7250    4.2460    0.9110 C   0  0  1  0  0  0  0  0  0  0  0  0
    0.0450    5.3380    1.7390 C   0  0  1  0  0  0  0  0  0  0  0  0
    1.0550    5.9780    2.4650 F   0  0  0  0  0  0  0  0  0  0  0  0
   -0.6490    6.2080    0.9490 F   0  0  0  0  0  0  0  0  0  0  0  0
   -0.7410    4.6930    2.6760 F   0  0  0  0  0  0  0  0  0  0  0  0
    1.5140    3.3350    1.7860 C   0  0  0  0  0  0  0  0  0  0  0  0
    0.8630    2.0410    2.1340 C   0  0  0  0  0  0  0  0  0  0  0  0
    4.5180   -0.7230   -0.4230 C   0  0  0  0  0  0  0  0  0  0  0  0
  1  2  1  0
  2  3  1  0
  2  6  2  0
  3  4  2  0
  4  5  1  0
  5  6  1  0
  6  7  1  0
  7  8  2  0
  7 42  1  0
  8  9  1  0
  9 10  2  0
 10 11  1  0
 11 12  1  0
 11 42  2  0
 12 13  1  0
 13 14  2  0
 13 15  1  0
 15 16  1  1
 15 33  1  0
 15 41  1  0
 16 17  1  0
 17 18  1  0
 18 19  2  0
 18 31  1  0
 19 20  1  0
 20 21  2  0
 20 22  1  0
 22 23  1  0
 23 24  1  6
 23 30  1  0
 24 25  1  0
 25 26  1  0
 26 27  1  6
 26 28  1  0
 26 29  1  0
 30 31  1  0
 31 32  2  0
 33 34  1  0
 35 34  1  1
 35 36  1  0
 35 40  1  0
 36 37  1  1
 36 38  1  0
 36 39  1  0
 40 41  1  0
M  END
