
     RDKit          3D

 42 45  0  0  0  0  0  0  0  0999 V2000
    2.5480    3.4690   -1.8630 C   0  0  0  0  0  0  0  0  0  0  0  0
    1.8600    2.1860   -1.5750 C   0  0  0  0  0  0  0  0  0  0  0  0
    1.6050    1.9650   -0.1800 O   0  0  0  0  0  0  0  0  0  0  0  0
    0.9340    0.7090    0.1110 C   0  0  0  0  0  0  0  0  0  0  0  0
    1.7240   -0.3080    0.7490 C   0  0  0  0  0  0  0  0  0  0  0  0
    2.9840   -0.2060    1.1120 C   0  0  0  0  0  0  0  0  0  0  0  0
    3.9050    0.9130    0.9870 C   0  0  0  0  0  0  0  0  0  0  0  0
    5.3020    0.4460   -0.0760 S   0  0  0  0  0  0  0  0  0  0  0  0
    6.4000    1.8590   -0.1950 C   0  0  0  0  0  0  0  0  0  0  0  0
    6.0450   -0.7470    0.5220 O   0  0  0  0  0  0  0  0  0  0  0  0
    1.1850   -1.5850    1.0620 O   0  0  0  0  0  0  0  0  0  0  0  0
    1.9300   -2.7140    1.3710 C   0  0  0  0  0  0  0  0  0  0  0  0
    2.8590   -3.1160    0.2620 C   0  0  0  0  0  0  0  0  0  0  0  0
    2.8670   -2.5490   -1.0010 C   0  0  0  0  0  0  0  0  0  0  0  0
    3.8440   -3.1730   -1.7250 C   0  0  0  0  0  0  0  0  0  0  0  0
    4.4010   -4.1090   -0.8600 C   0  0  0  0  0  0  0  0  0  0  0  0
    5.5030   -5.0320   -1.1930 C   0  0  0  0  0  0  0  0  0  0  0  0
    3.7840   -4.0410    0.3130 O   0  0  0  0  0  0  0  0  0  0  0  0
   -0.3210    0.7100   -0.2700 C   0  0  0  0  0  0  0  0  0  0  0  0
   -1.2270   -0.4580   -0.1240 C   0  0  0  0  0  0  0  0  0  0  0  0
   -0.8500   -1.5410    0.3710 O   0  0  0  0  0  0  0  0  0  0  0  0
   -2.5850   -0.4480   -0.5300 N   0  0  0  0  0  0  0  0  0  0  0  0
   -3.3090   -1.6910   -0.3130 C   0  0  0  0  0  0  0  0  0  0  0  0
   -3.0400   -2.8240    0.1600 N   0  0  0  0  0  0  0  0  0  0  0  0
   -3.8710   -3.8020    0.2520 C   0  0  0  0  0  0  0  0  0  0  0  0
   -5.1880   -3.5600   -0.2220 C   0  0  0  0  0  0  0  0  0  0  0  0
   -5.0390   -1.8900   -0.7560 S   0  0  0  0  0  0  0  0  0  0  0  0
   -6.2260   -4.5930   -0.1710 C   0  0  0  0  0  0  0  0  0  0  0  0
   -6.2060   -5.2170    1.1970 C   0  0  0  0  0  0  0  0  0  0  0  0
   -4.8470   -5.5350    1.7180 C   0  0  0  0  0  0  0  0  0  0  0  0
   -3.7170   -5.2040    0.7820 C   0  0  0  0  0  0  0  0  0  0  0  0
   -0.9760    1.9660   -0.5690 C   0  0  0  0  0  0  0  0  0  0  0  0
   -2.0700    1.9130   -1.2780 O   0  0  0  0  0  0  0  0  0  0  0  0
   -0.6160    3.2660   -0.1960 N   0  0  0  0  0  0  0  0  0  0  0  0
   -1.1560    4.3250   -1.1160 C   0  0  0  0  0  0  0  0  0  0  0  0
   -2.3330    4.9580   -0.3910 C   0  0  2  0  0  0  0  0  0  0  0  0
   -2.9550    5.9020   -1.1550 O   0  0  0  0  0  0  0  0  0  0  0  0
   -4.2980    5.6230   -1.4000 C   0  0  0  0  0  0  0  0  0  0  0  0
   -1.7820    5.5000    0.9110 C   0  0  0  0  0  0  0  0  0  0  0  0
   -0.7800    4.9730    1.5030 C   0  0  0  0  0  0  0  0  0  0  0  0
   -0.0230    3.7620    1.0040 C   0  0  1  0  0  0  0  0  0  0  0  0
   -0.0760    2.7410    2.1610 C   0  0  0  0  0  0  0  0  0  0  0  0
  1  2  1  0
  2  3  1  0
  3  4  1  0
  4  5  1  0
  4 19  2  3
  5  6  2  3
  5 11  1  0
  6  7  1  0
  7  8  1  0
  8  9  1  1
  8 10  2  0
 11 12  1  0
 12 13  1  0
 13 14  2  0
 13 18  1  0
 14 15  1  0
 15 16  2  0
 16 17  1  0
 16 18  1  0
 19 20  1  0
 19 32  1  0
 20 21  2  0
 20 22  1  0
 22 23  1  0
 23 24  2  0
 23 27  1  0
 24 25  1  0
 25 26  2  0
 25 31  1  0
 26 27  1  0
 26 28  1  0
 28 29  1  0
 29 30  1  0
 30 31  1  0
 32 33  2  0
 32 34  1  0
 34 35  1  0
 34 41  1  0
 35 36  1  0
 36 37  1  6
 36 39  1  0
 37 38  1  0
 39 40  2  0
 40 41  1  0
 41 42  1  1
M  END
