
     RDKit          3D

 29 31  0  0  0  0  0  0  0  0999 V2000
    8.1900    0.8670   -1.0250 C   0  0  0  0  0  0  0  0  0  0  0  0
    8.3680   -0.4970   -0.6310 N   0  0  0  0  0  0  0  0  0  0  0  0
    7.6200   -0.8850    0.8680 S   0  0  2  0  0  0  0  0  0  0  0  0
    8.1850   -0.0820    1.9990 O   0  0  0  0  0  0  0  0  0  0  0  0
    7.8630   -2.3310    1.1520 O   0  0  0  0  0  0  0  0  0  0  0  0
    5.9000   -0.6210    0.6880 C   0  0  0  0  0  0  0  0  0  0  0  0
    5.2910    0.5850    0.9580 C   0  0  0  0  0  0  0  0  0  0  0  0
    3.9420    0.8000    0.8190 C   0  0  0  0  0  0  0  0  0  0  0  0
    3.1150   -0.2130    0.3890 C   0  0  0  0  0  0  0  0  0  0  0  0
    1.6730   -0.0150    0.2310 C   0  0  0  0  0  0  0  0  0  0  0  0
    1.1050    1.1840   -0.1320 C   0  0  0  0  0  0  0  0  0  0  0  0
   -0.2580    1.3170   -0.2670 C   0  0  0  0  0  0  0  0  0  0  0  0
   -1.1320    0.2280   -0.0380 C   0  0  0  0  0  0  0  0  0  0  0  0
   -2.4800    0.4040   -0.1830 O   0  0  0  0  0  0  0  0  0  0  0  0
   -3.4500   -0.5580    0.0050 C   0  0  1  0  0  0  0  0  0  0  0  0
   -4.3590   -0.2700    1.0070 O   0  0  0  0  0  0  0  0  0  0  0  0
   -5.2780    0.6880    0.7180 C   0  0  2  0  0  0  0  0  0  0  0  0
   -6.2990    0.6870    1.8640 C   0  0  0  0  0  0  0  0  0  0  0  0
   -7.2860    1.6450    1.6500 O   0  0  0  0  0  0  0  0  0  0  0  0
   -6.0750    0.3640   -0.5490 C   0  0  1  0  0  0  0  0  0  0  0  0
   -7.0480    1.3060   -0.7760 O   0  0  0  0  0  0  0  0  0  0  0  0
   -5.0150    0.3450   -1.6580 C   0  0  2  0  0  0  0  0  0  0  0  0
   -5.5650    0.2850   -2.9090 O   0  0  0  0  0  0  0  0  0  0  0  0
   -4.1160   -0.8240   -1.3270 C   0  0  2  0  0  0  0  0  0  0  0  0
   -4.8030   -2.0130   -1.2670 O   0  0  0  0  0  0  0  0  0  0  0  0
   -0.5200   -0.9470    0.3220 C   0  0  0  0  0  0  0  0  0  0  0  0
    0.8490   -1.0870    0.4600 C   0  0  0  0  0  0  0  0  0  0  0  0
    3.7020   -1.4380    0.1100 C   0  0  0  0  0  0  0  0  0  0  0  0
    5.0570   -1.6300    0.2570 C   0  0  0  0  0  0  0  0  0  0  0  0
  1  2  1  0
  3  2  1  6
  3  4  2  0
  3  5  2  0
  3  6  1  0
  6  7  2  0
  6 29  1  0
  7  8  1  0
  8  9  2  0
  9 10  1  0
  9 28  1  0
 10 11  2  0
 10 27  1  0
 11 12  1  0
 12 13  2  0
 13 14  1  0
 13 26  1  0
 15 14  1  6
 15 16  1  0
 15 24  1  0
 16 17  1  0
 17 18  1  1
 17 20  1  0
 18 19  1  0
 20 21  1  6
 20 22  1  0
 22 23  1  6
 22 24  1  0
 24 25  1  1
 26 27  2  0
 28 29  2  0
M  END
