
     RDKit          3D

  9  8  0  0  0  0  0  0  0  0999 V2000
    3.2940    0.0600   -0.2220 C   0  0  0  0  0  0  0  0  0  0  0  0
    2.0740    0.5250   -0.3270 C   0  0  0  0  0  0  0  0  0  0  0  0
    0.9800   -0.2530    0.2690 C   0  0  0  0  0  0  0  0  0  0  0  0
   -0.2910    0.1220    0.2250 C   0  0  0  0  0  0  0  0  0  0  0  0
   -0.6730    1.3500   -0.4300 C   0  0  0  0  0  0  0  0  0  0  0  0
   -1.0010    2.4040   -0.9910 O   0  0  0  0  0  0  0  0  0  0  0  0
   -1.2770   -0.7860    0.8470 C   0  0  0  0  0  0  0  0  0  0  0  0
   -2.5630   -0.4880    0.8410 C   0  0  0  0  0  0  0  0  0  0  0  0
   -0.7930   -2.0380    1.4750 C   0  0  0  0  0  0  0  0  0  0  0  0
  1  2  2  0
  2  3  1  0
  3  4  2  3
  4  5  1  0
  4  7  1  0
  5  6  1  0
  7  8  2  0
  7  9  1  0
M  END
