
     RDKit          3D

  9  8  0  0  0  0  0  0  0  0999 V2000
   -2.6130    1.0620   -1.4290 C   0  0  0  0  0  0  0  0  0  0  0  0
   -1.8420    0.2140   -0.7910 C   0  0  0  0  0  0  0  0  0  0  0  0
   -2.3750   -1.1190   -0.4470 C   0  0  0  0  0  0  0  0  0  0  0  0
   -0.5010    0.5940   -0.4390 C   0  0  0  0  0  0  0  0  0  0  0  0
    0.2630   -0.2680    0.2030 C   0  0  0  0  0  0  0  0  0  0  0  0
    1.6320    0.0830    0.5770 C   0  0  0  0  0  0  0  0  0  0  0  0
    2.1510    1.4410    0.2180 C   0  0  0  0  0  0  0  0  0  0  0  0
    2.4040   -0.7600    1.2140 C   0  0  0  0  0  0  0  0  0  0  0  0
    1.9690   -2.0140    1.5620 O   0  0  0  0  0  0  0  0  0  0  0  0
  1  2  2  0
  2  3  1  0
  2  4  1  0
  4  5  2  3
  5  6  1  0
  6  7  1  0
  6  8  2  3
  8  9  1  0
M  END
