
     RDKit          3D

 17 17  0  0  0  0  0  0  0  0999 V2000
    1.5350   -3.1410    0.3540 O   0  0  0  0  0  0  0  0  0  0  0  0
    0.9370   -2.0200    0.2080 C   0  0  0  0  0  0  0  0  0  0  0  0
   -0.2720   -2.0820   -0.6490 C   0  0  0  0  0  0  0  0  0  0  0  0
   -1.4640   -1.6210    0.0160 N   0  0  0  0  0  0  0  0  0  0  0  0
   -2.1680   -0.6270   -0.7430 C   0  0  0  0  0  0  0  0  0  0  0  0
   -2.6920    0.4220    0.1770 C   0  0  2  0  0  0  0  0  0  0  0  0
   -3.6410    1.2530   -0.3760 O   0  0  0  0  0  0  0  0  0  0  0  0
   -1.6010    1.2620    0.8340 C   0  0  0  0  0  0  0  0  0  0  0  0
   -1.1830    2.3300    0.0760 O   0  0  0  0  0  0  0  0  0  0  0  0
   -0.1050    2.5180   -0.7530 C   0  0  0  0  0  0  0  0  0  0  0  0
    0.3040    3.7300   -0.9780 O   0  0  0  0  0  0  0  0  0  0  0  0
    0.6060    1.5070   -1.3930 N   0  0  0  0  0  0  0  0  0  0  0  0
    1.3930    0.6080   -1.0710 C   0  0  0  0  0  0  0  0  0  0  0  0
    1.8200    0.3840    0.3240 C   0  0  2  0  0  0  0  0  0  0  0  0
    3.3510    0.5690    0.3130 C   0  0  0  0  0  0  0  0  0  0  0  0
    3.8520   -0.4440   -0.4980 O   0  0  0  0  0  0  0  0  0  0  0  0
    1.4750   -0.9100    0.8500 N   0  0  0  0  0  0  0  0  0  0  0  0
  1  2  2  0
  2  3  1  0
  2 17  1  0
  3  4  1  0
  4  5  1  0
  5  6  1  0
  6  7  1  6
  6  8  1  0
  8  9  1  0
  9 10  1  0
 10 11  2  0
 10 12  1  0
 12 13  2  0
 13 14  1  0
 14 15  1  6
 14 17  1  0
 15 16  1  0
M  CHG  1   4   1
M  END
