
     RDKit          3D

 16 16  0  0  0  0  0  0  0  0999 V2000
   -2.1630   -2.6120   -0.4900 C   0  0  0  0  0  0  0  0  0  0  0  0
   -1.3610   -1.5050   -0.7630 O   0  0  0  0  0  0  0  0  0  0  0  0
   -1.6420   -0.4280    0.0680 C   0  0  2  0  0  0  0  0  0  0  0  0
   -2.2380    0.6730   -0.6800 N   0  0  0  0  0  0  0  0  0  0  0  0
   -2.3750    1.8080    0.2270 C   0  0  2  0  0  0  0  0  0  0  0  0
   -3.1060    2.9510   -0.4100 C   0  0  0  0  0  0  0  0  0  0  0  0
   -0.9770    2.2590    0.4950 C   0  0  0  0  0  0  0  0  0  0  0  0
   -0.6230    3.4370    0.6470 O   0  0  0  0  0  0  0  0  0  0  0  0
   -0.0310    1.2470    0.5710 O   0  0  0  0  0  0  0  0  0  0  0  0
   -0.5060   -0.0370    0.9350 C   0  0  2  0  0  0  0  0  0  0  0  0
    0.6520   -0.9840    0.8560 C   0  0  0  0  0  0  0  0  0  0  0  0
    0.5250   -2.2100    1.1290 O   0  0  0  0  0  0  0  0  0  0  0  0
    1.9060   -0.5640    0.4830 O   0  0  0  0  0  0  0  0  0  0  0  0
    3.0390   -1.4090    0.3900 C   0  0  0  0  0  0  0  0  0  0  0  0
    4.1880   -0.5220   -0.0520 C   0  0  0  0  0  0  0  0  0  0  0  0
    3.8640    0.0630   -1.3230 N   0  0  0  0  0  0  0  0  0  0  0  0
  1  2  1  0
  3  2  1  6
  3  4  1  0
  3 10  1  0
  4  5  1  0
  5  6  1  6
  5  7  1  0
  7  8  2  0
  7  9  1  0
  9 10  1  0
 10 11  1  6
 11 12  2  0
 11 13  1  0
 13 14  1  0
 14 15  1  0
 15 16  1  0
M  CHG  1  16   1
M  END
