
     RDKit          3D

 17 17  0  0  0  0  0  0  0  0999 V2000
   -3.3770   -0.0660   -2.2720 N   0  0  0  0  0  0  0  0  0  0  0  0
   -4.1440    0.0130   -1.0840 C   0  0  0  0  0  0  0  0  0  0  0  0
   -5.3700   -0.2330   -1.1570 O   0  0  0  0  0  0  0  0  0  0  0  0
   -3.5400    0.3650    0.1760 C   0  0  0  0  0  0  0  0  0  0  0  0
   -4.3100    0.4380    1.3330 O   0  0  0  0  0  0  0  0  0  0  0  0
   -2.2420    0.6290    0.2680 C   0  0  0  0  0  0  0  0  0  0  0  0
   -1.6110    0.9850    1.5180 C   0  0  0  0  0  0  0  0  0  0  0  0
   -0.3290    1.2370    1.5670 C   0  0  0  0  0  0  0  0  0  0  0  0
    0.4340    1.1620    0.4050 O   0  0  0  0  0  0  0  0  0  0  0  0
    1.1760   -0.0060    0.1490 C   0  0  2  0  0  0  0  0  0  0  0  0
    2.1770   -0.2890    1.2150 C   0  0  0  0  0  0  0  0  0  0  0  0
    1.8960   -0.0360    2.4130 O   0  0  0  0  0  0  0  0  0  0  0  0
    3.4460   -0.8410    0.8980 N   0  0  0  0  0  0  0  0  0  0  0  0
    4.0200   -0.5990   -0.4090 C   0  0  0  0  0  0  0  0  0  0  0  0
    2.9530   -0.8230   -1.3850 N   0  0  0  0  0  0  0  0  0  0  0  0
    1.9370    0.1430   -1.1240 C   0  0  0  0  0  0  0  0  0  0  0  0
    1.6710    1.0560   -1.8690 O   0  0  0  0  0  0  0  0  0  0  0  0
  1  2  1  0
  2  3  2  0
  2  4  1  0
  4  5  1  0
  4  6  2  3
  6  7  1  0
  7  8  2  3
  8  9  1  0
 10  9  1  1
 10 11  1  0
 10 16  1  0
 11 12  2  0
 11 13  1  0
 13 14  1  0
 14 15  1  0
 15 16  1  0
 16 17  2  0
M  CHG  1  15   1
M  END
