
     RDKit          3D

 10 10  0  0  0  0  0  0  0  0999 V2000
    2.8500    0.5110    0.6640 O   0  0  0  0  0  0  0  0  0  0  0  0
    2.3410    0.0260   -0.5180 C   0  0  0  0  0  0  0  0  0  0  0  0
    0.8590   -0.1970   -0.4920 C   0  0  1  0  0  0  0  0  0  0  0  0
    0.4150   -1.1790    0.5470 C   0  0  0  0  0  0  0  0  0  0  0  0
   -0.9600   -1.5610    0.1880 N   0  0  0  0  0  0  0  0  0  0  0  0
   -1.7970   -0.3980    0.4240 C   0  0  0  0  0  0  0  0  0  0  0  0
   -1.3770    0.7100   -0.5440 C   0  0  1  0  0  0  0  0  0  0  0  0
   -2.2110    1.7900   -0.4950 O   0  0  0  0  0  0  0  0  0  0  0  0
    0.0820    1.0780   -0.2380 C   0  0  1  0  0  0  0  0  0  0  0  0
    0.1600    1.4130    1.1280 O   0  0  0  0  0  0  0  0  0  0  0  0
  1  2  1  0
  3  2  1  1
  3  4  1  0
  3  9  1  0
  4  5  1  0
  5  6  1  0
  6  7  1  0
  7  8  1  1
  7  9  1  0
  9 10  1  1
M  CHG  1   5   1
M  END
