
     RDKit          3D

 10 10  0  0  0  0  0  0  0  0999 V2000
    2.8850    0.5290    0.5840 O   0  0  0  0  0  0  0  0  0  0  0  0
    2.2830   -0.6740    0.1490 C   0  0  2  0  0  0  0  0  0  0  0  0
    2.2950   -0.6950   -1.2370 O   0  0  0  0  0  0  0  0  0  0  0  0
    0.9260   -0.8220    0.7520 C   0  0  0  0  0  0  0  0  0  0  0  0
   -0.0290    0.2760    0.4090 C   0  0  1  0  0  0  0  0  0  0  0  0
   -0.2260    0.3400   -1.0180 N   0  0  0  0  0  0  0  0  0  0  0  0
   -1.6380    0.6040   -1.2190 C   0  0  0  0  0  0  0  0  0  0  0  0
   -2.2530   -0.2890   -0.1370 C   0  0  0  0  0  0  0  0  0  0  0  0
   -1.3700    0.0350    1.0430 C   0  0  2  0  0  0  0  0  0  0  0  0
   -1.8770    1.1720    1.6690 O   0  0  0  0  0  0  0  0  0  0  0  0
  2  1  1  6
  2  3  1  0
  2  4  1  0
  5  4  1  6
  5  6  1  0
  5  9  1  0
  6  7  1  0
  7  8  1  0
  8  9  1  0
  9 10  1  6
M  CHG  1   6   1
M  END
