
     RDKit          3D

 10 10  0  0  0  0  0  0  0  0999 V2000
   -1.4150   -1.1490   -0.7910 N   0  0  0  0  0  0  0  0  0  0  0  0
   -0.8120   -0.1120   -0.0060 C   0  0  1  0  0  0  0  0  0  0  0  0
   -1.8870    0.8870    0.3570 C   0  0  0  0  0  0  0  0  0  0  0  0
   -1.3150    1.8990    1.1200 O   0  0  0  0  0  0  0  0  0  0  0  0
   -0.1870   -0.7250    1.2430 C   0  0  0  0  0  0  0  0  0  0  0  0
    0.9680   -0.0590    1.6160 O   0  0  0  0  0  0  0  0  0  0  0  0
    2.0190   -0.2680    0.7330 C   0  0  0  0  0  0  0  0  0  0  0  0
    1.5140   -0.2960   -0.6970 C   0  0  2  0  0  0  0  0  0  0  0  0
    2.4700    0.0830   -1.6060 O   0  0  0  0  0  0  0  0  0  0  0  0
    0.2890    0.6160   -0.7210 C   0  0  0  0  0  0  0  0  0  0  0  0
  2  1  1  6
  2  3  1  0
  2  5  1  0
  2 10  1  0
  3  4  1  0
  5  6  1  0
  6  7  1  0
  7  8  1  0
  8  9  1  6
  8 10  1  0
M  CHG  1   1   1
M  END
