
     RDKit          3D

 10 10  0  0  0  0  0  0  0  0999 V2000
    2.8410    0.0320   -0.3440 N   0  0  0  0  0  0  0  0  0  0  0  0
    2.1360   -0.3380    0.8600 C   0  0  0  0  0  0  0  0  0  0  0  0
    0.6500   -0.1710    0.7480 C   0  0  2  0  0  0  0  0  0  0  0  0
    0.0450   -1.0180   -0.3340 C   0  0  0  0  0  0  0  0  0  0  0  0
   -1.3810   -0.6260   -0.5680 C   0  0  2  0  0  0  0  0  0  0  0  0
   -1.6040   -0.2130   -1.8950 O   0  0  0  0  0  0  0  0  0  0  0  0
   -1.9010    0.4150    0.3550 C   0  0  1  0  0  0  0  0  0  0  0  0
   -2.4270   -0.1750    1.5140 O   0  0  0  0  0  0  0  0  0  0  0  0
   -0.9360    1.5080    0.6810 C   0  0  0  0  0  0  0  0  0  0  0  0
    0.3900    1.1660    0.4800 O   0  0  0  0  0  0  0  0  0  0  0  0
  1  2  1  0
  3  2  1  6
  3  4  1  0
  3 10  1  0
  4  5  1  0
  5  6  1  6
  5  7  1  0
  7  8  1  1
  7  9  1  0
  9 10  1  0
M  CHG  1   1   1
M  END
