
     RDKit          3D

 10 10  0  0  0  0  0  0  0  0999 V2000
    0.2910    2.1240    0.0970 N   0  0  0  0  0  0  0  0  0  0  0  0
   -0.2820    0.8880    0.4950 C   0  0  1  0  0  0  0  0  0  0  0  0
   -1.7010    0.7860   -0.0770 C   0  0  0  0  0  0  0  0  0  0  0  0
   -2.3080   -0.2910    0.5610 O   0  0  0  0  0  0  0  0  0  0  0  0
   -1.7410   -1.4570    0.0380 C   0  0  0  0  0  0  0  0  0  0  0  0
   -0.3120   -1.5310    0.5530 C   0  0  0  0  0  0  0  0  0  0  0  0
    0.4560   -0.3280    0.0200 C   0  0  1  0  0  0  0  0  0  0  0  0
    0.4960   -0.3980   -1.3560 O   0  0  0  0  0  0  0  0  0  0  0  0
    1.8550   -0.4230    0.5740 C   0  0  0  0  0  0  0  0  0  0  0  0
    2.6860    0.5810    0.1380 O   0  0  0  0  0  0  0  0  0  0  0  0
  2  1  1  6
  2  3  1  0
  2  7  1  0
  3  4  1  0
  4  5  1  0
  5  6  1  0
  6  7  1  0
  7  8  1  6
  7  9  1  0
  9 10  1  0
M  CHG  1   1   1
M  END
