
     RDKit          3D

 10 10  0  0  0  0  0  0  0  0999 V2000
   -0.4150   -2.3200    0.0490 N   0  0  0  0  0  0  0  0  0  0  0  0
   -0.7100   -0.9520    0.3810 C   0  0  2  0  0  0  0  0  0  0  0  0
   -1.4020   -0.2210   -0.7480 C   0  0  0  0  0  0  0  0  0  0  0  0
   -1.6450    1.0860   -0.3380 O   0  0  0  0  0  0  0  0  0  0  0  0
   -2.2450    1.7940   -1.2590 O   0  0  0  0  0  0  0  0  0  0  0  0
    0.5280   -0.1880    0.7700 C   0  0  1  0  0  0  0  0  0  0  0  0
    1.5470   -0.1400   -0.2770 C   0  0  0  0  0  0  0  0  0  0  0  0
    2.1380    1.0420   -0.2330 C   0  0  0  0  0  0  0  0  0  0  0  0
    1.4950    1.8010    0.8730 C   0  0  0  0  0  0  0  0  0  0  0  0
    0.2930    1.1190    1.0930 O   0  0  0  0  0  0  0  0  0  0  0  0
  2  1  1  6
  2  3  1  0
  2  6  1  0
  3  4  1  0
  4  5  1  0
  6  7  1  0
  6 10  1  6
  7  8  2  0
  8  9  1  0
  9 10  1  0
M  CHG  1   1   1
M  END
