
     RDKit          3D

 11 11  0  0  0  0  0  0  0  0999 V2000
   -2.9120    0.0700   -0.7910 N   0  0  0  0  0  0  0  0  0  0  0  0
   -2.2800    0.4620    0.4250 C   0  0  0  0  0  0  0  0  0  0  0  0
   -0.7970    0.5110    0.3790 C   0  0  2  0  0  0  0  0  0  0  0  0
   -0.2690    1.3780   -0.5410 O   0  0  0  0  0  0  0  0  0  0  0  0
    1.0470    1.0480   -0.7320 C   0  0  0  0  0  0  0  0  0  0  0  0
    1.2430   -0.3710   -0.2540 C   0  0  1  0  0  0  0  0  0  0  0  0
    1.8530   -1.1770   -1.1890 O   0  0  0  0  0  0  0  0  0  0  0  0
    2.0020   -0.3270    1.0560 C   0  0  0  0  0  0  0  0  0  0  0  0
    3.2830    0.1780    0.7680 O   0  0  0  0  0  0  0  0  0  0  0  0
   -0.1910   -0.8090   -0.0430 C   0  0  2  0  0  0  0  0  0  0  0  0
   -0.7020   -1.1650   -1.2710 O   0  0  0  0  0  0  0  0  0  0  0  0
  1  2  1  0
  3  2  1  6
  3  4  1  0
  3 10  1  0
  4  5  1  0
  5  6  1  0
  6  7  1  6
  6  8  1  0
  6 10  1  0
  8  9  1  0
 10 11  1  6
M  CHG  1   1   1
M  END
