
     RDKit          3D

 11 11  0  0  0  0  0  0  0  0999 V2000
   -3.0910    0.7430    0.6520 O   0  0  0  0  0  0  0  0  0  0  0  0
   -2.3960   -0.2420   -0.0590 C   0  0  0  0  0  0  0  0  0  0  0  0
   -0.9340   -0.2830    0.3400 C   0  0  1  0  0  0  0  0  0  0  0  0
   -0.2910   -1.3130   -0.4290 N   0  0  0  0  0  0  0  0  0  0  0  0
    1.1390   -1.3500   -0.2750 C   0  0  0  0  0  0  0  0  0  0  0  0
    1.8140   -0.0390   -0.2070 C   0  0  2  0  0  0  0  0  0  0  0  0
    3.0610   -0.2290    0.4350 O   0  0  0  0  0  0  0  0  0  0  0  0
    1.0920    1.0240    0.5430 C   0  0  1  0  0  0  0  0  0  0  0  0
    1.7230    2.2460    0.3560 O   0  0  0  0  0  0  0  0  0  0  0  0
   -0.3310    1.0730    0.0240 C   0  0  1  0  0  0  0  0  0  0  0  0
   -0.3200    1.3040   -1.3450 O   0  0  0  0  0  0  0  0  0  0  0  0
  1  2  1  0
  3  2  1  6
  3  4  1  0
  3 10  1  0
  4  5  1  0
  5  6  1  0
  6  7  1  1
  6  8  1  0
  8  9  1  6
  8 10  1  0
 10 11  1  6
M  CHG  1   4   1
M  END
