
     RDKit          3D

 11 11  0  0  0  0  0  0  0  0999 V2000
    0.5520    1.6280    0.8340 N   0  0  0  0  0  0  0  0  0  0  0  0
    0.6550    0.3690    0.1710 C   0  0  2  0  0  0  0  0  0  0  0  0
    1.9270   -0.2800    0.6700 C   0  0  0  0  0  0  0  0  0  0  0  0
    2.1930   -1.5130    0.1250 O   0  0  0  0  0  0  0  0  0  0  0  0
    0.7300    0.4450   -1.3170 C   0  0  0  0  0  0  0  0  0  0  0  0
    0.5470   -0.8800   -1.7150 O   0  0  0  0  0  0  0  0  0  0  0  0
   -0.2430   -1.5010   -0.7880 C   0  0  0  0  0  0  0  0  0  0  0  0
   -0.5070   -0.5380    0.3420 C   0  0  2  0  0  0  0  0  0  0  0  0
   -1.8300    0.1130    0.0060 C   0  0  1  0  0  0  0  0  0  0  0  0
   -2.8140   -0.8800    0.2220 O   0  0  0  0  0  0  0  0  0  0  0  0
   -2.1480    1.1770    0.7960 O   0  0  0  0  0  0  0  0  0  0  0  0
  2  1  1  1
  2  3  1  0
  2  5  1  0
  2  8  1  0
  3  4  1  0
  5  6  1  0
  6  7  1  0
  8  7  1  6
  8  9  1  0
  9 10  1  1
  9 11  1  0
M  CHG  1   1   1
M  END
