
     RDKit          3D

 11 11  0  0  0  0  0  0  0  0999 V2000
   -1.2160    1.8310   -0.4530 N   0  0  0  0  0  0  0  0  0  0  0  0
   -0.3400    0.8270    0.0510 C   0  0  2  0  0  0  0  0  0  0  0  0
    0.9290    0.8050   -0.8150 C   0  0  0  0  0  0  0  0  0  0  0  0
    1.2990   -0.6380   -0.7970 C   0  0  1  0  0  0  0  0  0  0  0  0
    2.6950   -0.8540   -0.2480 C   0  0  0  0  0  0  0  0  0  0  0  0
    2.7290   -0.3350    1.0460 O   0  0  0  0  0  0  0  0  0  0  0  0
    0.3750   -1.3010    0.0200 O   0  0  0  0  0  0  0  0  0  0  0  0
   -0.8230   -0.5760   -0.1580 C   0  0  1  0  0  0  0  0  0  0  0  0
   -1.8180   -1.0310    0.8740 C   0  0  2  0  0  0  0  0  0  0  0  0
   -2.9940   -0.3100    0.6890 O   0  0  0  0  0  0  0  0  0  0  0  0
   -1.3010   -0.9270    2.1440 O   0  0  0  0  0  0  0  0  0  0  0  0
  2  1  1  6
  2  3  1  0
  2  8  1  0
  3  4  1  0
  4  5  1  1
  4  7  1  0
  5  6  1  0
  8  7  1  1
  8  9  1  0
  9 10  1  1
  9 11  1  0
M  CHG  1   1   1
M  END
