
     RDKit          3D

 11 11  0  0  0  0  0  0  0  0999 V2000
   -1.6200   -1.0700   -0.5410 N   0  0  0  0  0  0  0  0  0  0  0  0
   -0.5970   -0.1300   -0.0690 C   0  0  2  0  0  0  0  0  0  0  0  0
   -0.9220    0.1920    1.3540 C   0  0  0  0  0  0  0  0  0  0  0  0
   -2.1740    0.7600    1.4160 O   0  0  0  0  0  0  0  0  0  0  0  0
   -0.4920    1.0720   -0.9560 C   0  0  0  0  0  0  0  0  0  0  0  0
    0.7350    1.8500   -0.5400 C   0  0  0  0  0  0  0  0  0  0  0  0
    1.8860    1.1020   -0.6530 O   0  0  0  0  0  0  0  0  0  0  0  0
    1.8400    0.0330    0.2390 C   0  0  2  0  0  0  0  0  0  0  0  0
    3.0550   -0.6670    0.1770 O   0  0  0  0  0  0  0  0  0  0  0  0
    0.7280   -0.8790   -0.1920 C   0  0  1  0  0  0  0  0  0  0  0  0
    0.7090   -2.0920    0.4420 O   0  0  0  0  0  0  0  0  0  0  0  0
  2  1  1  6
  2  3  1  0
  2  5  1  0
  2 10  1  0
  3  4  1  0
  5  6  1  0
  6  7  1  0
  7  8  1  0
  8  9  1  6
  8 10  1  0
 10 11  1  1
M  CHG  1   1   1
M  END
