
     RDKit          3D

 11 11  0  0  0  0  0  0  0  0999 V2000
    1.3010   -1.2010    1.2090 N   0  0  0  0  0  0  0  0  0  0  0  0
    0.9700   -0.7290   -0.0930 C   0  0  2  0  0  0  0  0  0  0  0  0
    2.0390    0.1030   -0.7450 C   0  0  0  0  0  0  0  0  0  0  0  0
    1.4490    1.2140   -1.2920 O   0  0  0  0  0  0  0  0  0  0  0  0
    0.0950    1.0120   -1.3740 C   0  0  0  0  0  0  0  0  0  0  0  0
   -0.2040    0.2150   -0.1060 C   0  0  2  0  0  0  0  0  0  0  0  0
   -0.1970    1.1660    1.0580 C   0  0  0  0  0  0  0  0  0  0  0  0
   -1.2860    2.0340    1.0360 O   0  0  0  0  0  0  0  0  0  0  0  0
   -1.4590   -0.5770   -0.2320 C   0  0  1  0  0  0  0  0  0  0  0  0
   -2.5730    0.2630   -0.2480 O   0  0  0  0  0  0  0  0  0  0  0  0
   -1.3660   -1.2910   -1.4490 O   0  0  0  0  0  0  0  0  0  0  0  0
  2  1  1  1
  2  3  1  0
  2  6  1  0
  3  4  1  0
  4  5  1  0
  5  6  1  0
  6  7  1  1
  6  9  1  0
  7  8  1  0
  9 10  1  6
  9 11  1  0
M  CHG  1   1   1
M  END
