
     RDKit          3D

 11 11  0  0  0  0  0  0  0  0999 V2000
   -1.6120   -1.2800    0.8660 N   0  0  0  0  0  0  0  0  0  0  0  0
   -1.2330   -0.4130   -0.2120 C   0  0  1  0  0  0  0  0  0  0  0  0
   -2.1880    0.7590   -0.2820 C   0  0  0  0  0  0  0  0  0  0  0  0
   -1.6850    1.7460    0.5560 O   0  0  0  0  0  0  0  0  0  0  0  0
   -0.6040    2.3350   -0.0650 C   0  0  0  0  0  0  0  0  0  0  0  0
    0.2740    1.4120   -0.6240 O   0  0  0  0  0  0  0  0  0  0  0  0
    0.1550    0.1610   -0.0060 C   0  0  2  0  0  0  0  0  0  0  0  0
    1.1970   -0.7580   -0.6110 C   0  0  2  0  0  0  0  0  0  0  0  0
    1.1200   -2.0240   -0.0260 O   0  0  0  0  0  0  0  0  0  0  0  0
    2.5630   -0.1390   -0.4230 C   0  0  0  0  0  0  0  0  0  0  0  0
    2.8540   -0.0010    0.9260 O   0  0  0  0  0  0  0  0  0  0  0  0
  2  1  1  1
  2  3  1  0
  2  7  1  0
  3  4  1  0
  4  5  1  0
  5  6  1  0
  7  6  1  6
  7  8  1  0
  8  9  1  1
  8 10  1  0
 10 11  1  0
M  CHG  1   1   1
M  END
