
     RDKit          3D

 11 11  0  0  0  0  0  0  0  0999 V2000
   -0.8490   -0.3260    1.6200 C   0  0  0  0  0  0  0  0  0  0  0  0
   -0.3310    0.0540    0.2230 C   0  0  1  0  0  0  0  0  0  0  0  0
    1.0940   -0.4070    0.1840 C   0  0  1  0  0  0  0  0  0  0  0  0
    1.0880   -1.8340    0.5580 N   0  0  0  0  0  0  0  0  0  0  0  0
    1.7570   -0.3430   -1.1490 C   0  0  0  0  0  0  0  0  0  0  0  0
    1.8680    0.9310   -1.6860 O   0  0  0  0  0  0  0  0  0  0  0  0
   -1.1450   -0.6420   -0.6630 O   0  0  0  0  0  0  0  0  0  0  0  0
   -2.1260    0.2210   -1.0820 C   0  0  0  0  0  0  0  0  0  0  0  0
   -1.4920    1.4610   -1.1750 O   0  0  0  0  0  0  0  0  0  0  0  0
   -0.5780    1.4760   -0.0950 C   0  0  1  0  0  0  0  0  0  0  0  0
   -1.2260    2.1700    0.9350 O   0  0  0  0  0  0  0  0  0  0  0  0
  2  1  1  1
  2  3  1  0
  2  7  1  0
  2 10  1  0
  3  4  1  6
  3  5  1  0
  5  6  1  0
  7  8  1  0
  8  9  1  0
  9 10  1  0
 10 11  1  1
M  CHG  1   4   1
M  END
