
     RDKit          3D

 11 11  0  0  0  0  0  0  0  0999 V2000
   -2.9110   -0.4020    0.0120 N   0  0  0  0  0  0  0  0  0  0  0  0
   -1.9760    0.3290   -0.7910 C   0  0  1  0  0  0  0  0  0  0  0  0
   -2.0130    1.6870   -0.5560 O   0  0  0  0  0  0  0  0  0  0  0  0
   -0.5730   -0.2300   -0.6180 C   0  0  2  0  0  0  0  0  0  0  0  0
   -0.1710   -0.3880    0.8010 C   0  0  0  0  0  0  0  0  0  0  0  0
    0.6400    0.5530    1.3240 O   0  0  0  0  0  0  0  0  0  0  0  0
    1.6930    0.9940    0.6180 C   0  0  0  0  0  0  0  0  0  0  0  0
    2.3480    0.0330   -0.3070 C   0  0  1  0  0  0  0  0  0  0  0  0
    2.8410   -1.0830    0.3580 O   0  0  0  0  0  0  0  0  0  0  0  0
    1.4800   -0.3280   -1.4760 C   0  0  0  0  0  0  0  0  0  0  0  0
    0.3290    0.4810   -1.3980 O   0  0  0  0  0  0  0  0  0  0  0  0
  2  1  1  1
  2  3  1  0
  2  4  1  0
  4  5  1  1
  4 11  1  0
  5  6  1  0
  6  7  1  0
  7  8  1  0
  8  9  1  1
  8 10  1  0
 10 11  1  0
M  CHG  1   1   1
M  END
