
     RDKit          3D

 24 24  0  0  0  0  0  0  0  0999 V2000
   -3.9530    2.7730   -1.9420 C   0  0  0  0  0  0  0  0  0  0  0  0
   -3.2490    1.7630   -1.2870 O   0  0  0  0  0  0  0  0  0  0  0  0
   -4.0450    0.6400   -1.0740 C   0  0  2  0  0  0  0  0  0  0  0  0
   -4.5180    0.1110   -2.3840 C   0  0  0  0  0  0  0  0  0  0  0  0
   -5.2260    0.9680   -0.1750 C   0  0  0  0  0  0  0  0  0  0  0  0
   -3.1740   -0.3580   -0.3240 C   0  0  0  0  0  0  0  0  0  0  0  0
   -1.9610   -0.7360   -1.0990 C   0  0  2  0  0  0  0  0  0  0  0  0
   -2.3850   -1.3060   -2.3410 O   0  0  0  0  0  0  0  0  0  0  0  0
   -1.1080   -1.8140   -0.4850 C   0  0  0  0  0  0  0  0  0  0  0  0
   -0.5580   -1.5040    0.8510 C   0  0  2  0  0  0  0  0  0  0  0  0
   -1.5900   -1.3040    1.7670 O   0  0  0  0  0  0  0  0  0  0  0  0
    0.4010   -0.3560    0.8450 C   0  0  1  0  0  0  0  0  0  0  0  0
    0.9180   -0.2750    2.1590 O   0  0  0  0  0  0  0  0  0  0  0  0
    1.5170   -0.5250   -0.1520 C   0  0  0  0  0  0  0  0  0  0  0  0
    2.4570    0.6880   -0.0860 C   0  0  2  0  0  0  0  0  0  0  0  0
    3.5770    0.4960   -1.1000 C   0  0  0  0  0  0  0  0  0  0  0  0
    4.3750   -0.7290   -0.8050 C   0  0  0  0  0  0  0  0  0  0  0  0
    4.2980   -1.1980    0.4760 O   0  0  0  0  0  0  0  0  0  0  0  0
    4.2010   -0.2720    1.4730 C   0  0  1  0  0  0  0  0  0  0  0  0
    5.4170    0.3160    1.7630 O   0  0  0  0  0  0  0  0  0  0  0  0
    5.8380    0.0460    3.0400 C   0  0  0  0  0  0  0  0  0  0  0  0
    4.8500    0.5550    3.9130 O   0  0  0  0  0  0  0  0  0  0  0  0
    3.1250    0.7370    1.2440 C   0  0  0  0  0  0  0  0  0  0  0  0
    2.8180    1.5370    2.0800 O   0  0  0  0  0  0  0  0  0  0  0  0
  1  2  1  0
  2  3  1  0
  3  4  1  6
  3  5  1  0
  3  6  1  0
  6  7  1  0
  7  8  1  6
  7  9  1  0
  9 10  1  0
 10 11  1  1
 10 12  1  0
 12 13  1  1
 12 14  1  0
 15 14  1  1
 15 16  1  0
 15 23  1  0
 16 17  1  0
 17 18  1  0
 18 19  1  0
 19 20  1  6
 19 23  1  0
 20 21  1  0
 21 22  1  0
 23 24  2  0
M  END
