
     RDKit          3D

 24 24  0  0  0  0  0  0  0  0999 V2000
    5.1120    1.8060    1.9290 C   0  0  0  0  0  0  0  0  0  0  0  0
    4.5700    2.6400    0.9620 O   0  0  0  0  0  0  0  0  0  0  0  0
    3.3880    2.1450    0.4290 C   0  0  0  0  0  0  0  0  0  0  0  0
    3.5570    0.9280   -0.1670 O   0  0  0  0  0  0  0  0  0  0  0  0
    2.4400    0.3650   -0.7230 C   0  0  1  0  0  0  0  0  0  0  0  0
    1.8130    1.2210   -1.8020 C   0  0  0  0  0  0  0  0  0  0  0  0
    2.8940   -0.9080   -1.4230 C   0  0  0  0  0  0  0  0  0  0  0  0
    1.7890   -1.7450   -1.9500 C   0  0  0  0  0  0  0  0  0  0  0  0
    0.6160   -1.8950   -1.0290 C   0  0  0  0  0  0  0  0  0  0  0  0
    0.2370   -0.6400   -0.3250 C   0  0  1  0  0  0  0  0  0  0  0  0
   -0.7690   -0.8240    0.7490 C   0  0  0  0  0  0  0  0  0  0  0  0
   -2.0940   -1.3900    0.3150 C   0  0  1  0  0  0  0  0  0  0  0  0
   -2.0420   -2.6310   -0.2570 O   0  0  0  0  0  0  0  0  0  0  0  0
   -2.9920   -1.4450    1.5250 C   0  0  0  0  0  0  0  0  0  0  0  0
   -2.4880   -2.2860    2.6470 C   0  0  0  0  0  0  0  0  0  0  0  0
   -2.3210   -3.6090    2.2440 O   0  0  0  0  0  0  0  0  0  0  0  0
   -2.7630   -0.4500   -0.6420 C   0  0  0  0  0  0  0  0  0  0  0  0
   -3.1440   -0.9120   -1.7410 O   0  0  0  0  0  0  0  0  0  0  0  0
   -2.9770    0.8800   -0.3780 O   0  0  0  0  0  0  0  0  0  0  0  0
   -3.6090    1.7680   -1.2850 C   0  0  0  0  0  0  0  0  0  0  0  0
   -3.6440    3.1270   -0.6090 C   0  0  0  0  0  0  0  0  0  0  0  0
   -4.2400    4.0870   -1.3950 O   0  0  0  0  0  0  0  0  0  0  0  0
    1.4760   -0.0250    0.3410 C   0  0  1  0  0  0  0  0  0  0  0  0
    2.0970   -0.9720    1.1650 O   0  0  0  0  0  0  0  0  0  0  0  0
  1  2  1  0
  2  3  1  0
  3  4  1  0
  4  5  1  0
  5  6  1  6
  5  7  1  0
  5 23  1  0
  7  8  1  0
  8  9  1  0
  9 10  1  0
 10 11  1  1
 10 23  1  0
 11 12  1  0
 12 13  1  6
 12 14  1  0
 12 17  1  0
 14 15  1  0
 15 16  1  0
 17 18  2  0
 17 19  1  0
 19 20  1  0
 20 21  1  0
 21 22  1  0
 23 24  1  1
M  END
