
     RDKit          3D

 24 24  0  0  0  0  0  0  0  0999 V2000
   -1.5480   -2.3170    1.0620 C   0  0  0  0  0  0  0  0  0  0  0  0
   -1.5070   -1.4000   -0.1680 C   0  0  2  0  0  0  0  0  0  0  0  0
   -2.7100   -1.5750   -1.0230 C   0  0  0  0  0  0  0  0  0  0  0  0
   -4.0310   -1.3120   -0.4220 C   0  0  2  0  0  0  0  0  0  0  0  0
   -4.9960   -1.5580   -1.4360 O   0  0  0  0  0  0  0  0  0  0  0  0
   -4.2250    0.1370   -0.0540 C   0  0  0  0  0  0  0  0  0  0  0  0
   -5.6330    0.2250    0.5360 C   0  0  0  0  0  0  0  0  0  0  0  0
   -5.8850    1.6800    0.9290 C   0  0  0  0  0  0  0  0  0  0  0  0
   -7.1880    1.7270    1.4670 O   0  0  0  0  0  0  0  0  0  0  0  0
   -0.2340   -1.7230   -0.9780 C   0  0  0  0  0  0  0  0  0  0  0  0
    0.6880   -0.5910   -0.5080 C   0  0  1  0  0  0  0  0  0  0  0  0
    1.5820   -0.2090   -1.4020 O   0  0  0  0  0  0  0  0  0  0  0  0
    2.8850   -0.0390   -1.2640 C   0  0  0  0  0  0  0  0  0  0  0  0
    3.4460    0.9730   -0.3300 C   0  0  1  0  0  0  0  0  0  0  0  0
    3.0560    0.8840    1.0990 C   0  0  0  0  0  0  0  0  0  0  0  0
    3.4180   -0.3580    1.8180 C   0  0  0  0  0  0  0  0  0  0  0  0
    2.9880   -0.3050    3.1430 O   0  0  0  0  0  0  0  0  0  0  0  0
    4.8870    1.0210   -0.4420 O   0  0  0  0  0  0  0  0  0  0  0  0
    5.5810    2.1040   -0.9030 C   0  0  0  0  0  0  0  0  0  0  0  0
    4.9070    3.1040   -1.2430 O   0  0  0  0  0  0  0  0  0  0  0  0
    7.0640    2.1490   -1.0160 C   0  0  0  0  0  0  0  0  0  0  0  0
    7.6620    0.9810   -0.6060 O   0  0  0  0  0  0  0  0  0  0  0  0
   -0.3840    0.5210   -0.4440 C   0  0  0  0  0  0  0  0  0  0  0  0
   -1.3650   -0.1170    0.2620 O   0  0  0  0  0  0  0  0  0  0  0  0
  2  1  1  1
  2  3  1  0
  2 10  1  0
  2 24  1  0
  3  4  1  0
  4  5  1  6
  4  6  1  0
  6  7  1  0
  7  8  1  0
  8  9  1  0
 10 11  1  0
 11 12  1  6
 11 23  1  0
 12 13  1  0
 14 13  1  6
 14 15  1  0
 14 18  1  0
 15 16  1  0
 16 17  1  0
 18 19  1  0
 19 20  2  0
 19 21  1  0
 21 22  1  0
 23 24  1  0
M  END
