
     RDKit          3D

 24 24  0  0  0  0  0  0  0  0999 V2000
   -3.0270    4.3920   -1.9180 C   0  0  0  0  0  0  0  0  0  0  0  0
   -3.3110    3.6050   -0.7880 O   0  0  0  0  0  0  0  0  0  0  0  0
   -2.2440    3.0570   -0.0360 C   0  0  0  0  0  0  0  0  0  0  0  0
   -1.0980    3.3040   -0.4180 O   0  0  0  0  0  0  0  0  0  0  0  0
   -2.6670    2.2520    1.1250 C   0  0  0  0  0  0  0  0  0  0  0  0
   -1.6050    1.5940    1.9070 C   0  0  0  0  0  0  0  0  0  0  0  0
   -0.7810    0.5530    1.0040 C   0  0  2  0  0  0  0  0  0  0  0  0
   -1.7550   -0.4310    0.5290 C   0  0  0  0  0  0  0  0  0  0  0  0
   -1.3090   -1.5790   -0.3040 C   0  0  1  0  0  0  0  0  0  0  0  0
   -0.4500   -2.3800    0.4240 O   0  0  0  0  0  0  0  0  0  0  0  0
   -2.4490   -2.4050   -0.8570 C   0  0  1  0  0  0  0  0  0  0  0  0
   -1.8390   -3.3700   -1.6850 O   0  0  0  0  0  0  0  0  0  0  0  0
   -3.1710   -3.1010    0.2700 C   0  0  0  0  0  0  0  0  0  0  0  0
   -4.1440   -3.9650   -0.2540 O   0  0  0  0  0  0  0  0  0  0  0  0
    0.2250    0.1150    1.8150 O   0  0  0  0  0  0  0  0  0  0  0  0
    1.3500    0.8880    1.7860 C   0  0  0  0  0  0  0  0  0  0  0  0
    2.1540    1.0060    0.5810 C   0  0  0  0  0  0  0  0  0  0  0  0
    2.9770   -0.0790    0.0680 C   0  0  1  0  0  0  0  0  0  0  0  0
    3.6440    0.3610   -1.2460 C   0  0  0  0  0  0  0  0  0  0  0  0
    2.5690    0.6580   -2.1070 O   0  0  0  0  0  0  0  0  0  0  0  0
    4.2140   -0.3350    0.9910 C   0  0  0  0  0  0  0  0  0  0  0  0
    4.7470   -1.5920    0.3670 C   0  0  0  0  0  0  0  0  0  0  0  0
    3.6830   -2.2420   -0.1930 O   0  0  0  0  0  0  0  0  0  0  0  0
    2.5080   -1.4650   -0.0170 C   0  0  0  0  0  0  0  0  0  0  0  0
  1  2  1  0
  2  3  1  0
  3  4  2  0
  3  5  1  0
  5  6  1  0
  7  6  1  1
  7  8  1  0
  7 15  1  0
  8  9  1  0
  9 10  1  1
  9 11  1  0
 11 12  1  6
 11 13  1  0
 13 14  1  0
 15 16  1  0
 16 17  1  0
 18 17  1  1
 18 19  1  0
 18 21  1  0
 18 24  1  0
 19 20  1  0
 21 22  1  0
 22 23  1  0
 23 24  1  0
M  END
