
     RDKit          3D

 17 19  0  0  0  0  0  0  0  0999 V2000
    4.4610    0.5730    0.7680 C   0  0  0  0  0  0  0  0  0  0  0  0
    2.9950    0.1910    0.8470 C   0  0  0  0  0  0  0  0  0  0  0  0
    2.3250    0.3400   -0.5010 C   0  0  0  0  0  0  0  0  0  0  0  0
    0.8890   -0.0610   -0.3070 C   0  0  0  0  0  0  0  0  0  0  0  0
    0.5010   -1.3400   -0.4740 N   0  0  0  0  0  0  0  0  0  0  0  0
   -0.7550   -1.7740   -0.3200 C   0  0  0  0  0  0  0  0  0  0  0  0
   -1.1230   -3.0940   -0.4970 C   0  0  0  0  0  0  0  0  0  0  0  0
   -2.4300   -3.4990   -0.3290 C   0  0  0  0  0  0  0  0  0  0  0  0
   -3.3760   -2.5420    0.0270 C   0  0  0  0  0  0  0  0  0  0  0  0
   -3.0010   -1.2070    0.2060 C   0  0  0  0  0  0  0  0  0  0  0  0
   -1.7020   -0.8350    0.0330 C   0  0  0  0  0  0  0  0  0  0  0  0
   -1.3230    0.4770    0.2070 C   0  0  0  0  0  0  0  0  0  0  0  0
   -2.0200    1.5730    0.5420 N   0  0  0  0  0  0  0  0  0  0  0  0
   -1.1630    2.6100    0.5760 C   0  0  0  0  0  0  0  0  0  0  0  0
   -1.5610    3.9530    0.9010 N   0  0  0  0  0  0  0  0  0  0  0  0
    0.0600    2.1580    0.2620 N   0  0  0  0  0  0  0  0  0  0  0  0
   -0.0270    0.8520    0.0350 N   0  0  0  0  0  0  0  0  0  0  0  0
  1  2  1  0
  2  3  1  0
  3  4  1  0
  4  5  2  0
  4 17  1  0
  5  6  1  0
  6  7  2  0
  6 11  1  0
  7  8  1  0
  8  9  2  0
  9 10  1  0
 10 11  2  0
 11 12  1  0
 12 13  1  0
 12 17  2  0
 13 14  1  0
 14 15  1  0
 14 16  2  0
 16 17  1  0
M  CHG  1  17   1
M  END
