
     RDKit          3D

 24 24  0  0  0  0  0  0  0  0999 V2000
    6.6550    0.7860    1.8020 C   0  0  0  0  0  0  0  0  0  0  0  0
    5.2820    0.8260    1.5700 O   0  0  0  0  0  0  0  0  0  0  0  0
    4.7660   -0.4070    1.2230 C   0  0  0  0  0  0  0  0  0  0  0  0
    3.2570   -0.1860    1.0060 C   0  0  0  0  0  0  0  0  0  0  0  0
    3.1720    0.8320   -0.1090 C   0  0  0  0  0  0  0  0  0  0  0  0
    1.9560    1.2230   -0.4970 O   0  0  0  0  0  0  0  0  0  0  0  0
    1.0530    0.2910   -0.9830 C   0  0  2  0  0  0  0  0  0  0  0  0
    0.7000    0.5640   -2.4320 C   0  0  0  0  0  0  0  0  0  0  0  0
   -0.4950   -0.0300   -2.7580 O   0  0  0  0  0  0  0  0  0  0  0  0
   -0.8480   -1.0510   -1.8890 C   0  0  0  0  0  0  0  0  0  0  0  0
   -1.3500   -0.4530   -0.5510 C   0  0  2  0  0  0  0  0  0  0  0  0
   -1.4510   -1.5620    0.3870 C   0  0  2  0  0  0  0  0  0  0  0  0
   -1.9290   -1.3040    1.7850 C   0  0  0  0  0  0  0  0  0  0  0  0
   -0.1200   -2.2910    0.6460 C   0  0  0  0  0  0  0  0  0  0  0  0
   -2.2700   -2.6070   -0.0710 O   0  0  0  0  0  0  0  0  0  0  0  0
   -2.5050    0.3640   -0.9300 C   0  0  1  0  0  0  0  0  0  0  0  0
   -2.0120    1.3460   -1.8460 O   0  0  0  0  0  0  0  0  0  0  0  0
   -3.5730   -0.3070   -1.7690 C   0  0  0  0  0  0  0  0  0  0  0  0
   -4.2530   -1.3130   -1.1790 O   0  0  0  0  0  0  0  0  0  0  0  0
   -3.2000    1.2150    0.0700 C   0  0  2  0  0  0  0  0  0  0  0  0
   -4.1980    1.9210   -0.6800 O   0  0  0  0  0  0  0  0  0  0  0  0
   -2.4540    2.2340    0.6290 O   0  0  0  0  0  0  0  0  0  0  0  0
   -2.7700    2.3100    1.9820 C   0  0  0  0  0  0  0  0  0  0  0  0
   -0.2000    0.4590   -0.1600 C   0  0  0  0  0  0  0  0  0  0  0  0
  1  2  1  0
  2  3  1  0
  3  4  1  0
  4  5  1  0
  5  6  1  0
  7  6  1  1
  7  8  1  0
  7 24  1  0
  8  9  1  0
  9 10  1  0
 11 10  1  6
 11 12  1  0
 11 16  1  0
 11 24  1  0
 12 13  1  1
 12 14  1  0
 12 15  1  0
 16 17  1  6
 16 18  1  0
 16 20  1  0
 18 19  1  0
 20 21  1  6
 20 22  1  0
 22 23  1  0
M  END
