
     RDKit          3D

 24 24  0  0  0  0  0  0  0  0999 V2000
    4.1020    0.9790   -3.2230 C   0  0  0  0  0  0  0  0  0  0  0  0
    3.1070    0.8290   -2.0690 C   0  0  0  0  0  0  0  0  0  0  0  0
    3.3340   -0.3150   -1.3510 O   0  0  0  0  0  0  0  0  0  0  0  0
    2.4590   -0.4500   -0.2820 C   0  0  1  0  0  0  0  0  0  0  0  0
    1.0060   -0.3750   -0.6540 C   0  0  0  0  0  0  0  0  0  0  0  0
    0.2310   -0.5720    0.4780 O   0  0  0  0  0  0  0  0  0  0  0  0
   -1.1370   -0.4050    0.2190 C   0  0  1  0  0  0  0  0  0  0  0  0
   -1.8620   -1.6280    0.6780 C   0  0  0  0  0  0  0  0  0  0  0  0
   -1.4060   -2.8670   -0.0360 C   0  0  2  0  0  0  0  0  0  0  0  0
   -2.2020   -4.0870    0.4540 C   0  0  0  0  0  0  0  0  0  0  0  0
   -0.0730   -3.1320    0.2280 O   0  0  0  0  0  0  0  0  0  0  0  0
   -1.6370    0.8560    0.8840 C   0  0  2  0  0  0  0  0  0  0  0  0
   -1.5390    0.8070    2.2700 O   0  0  0  0  0  0  0  0  0  0  0  0
   -2.9130    1.4230    0.4610 C   0  0  2  0  0  0  0  0  0  0  0  0
   -4.1610    0.6370    0.5920 C   0  0  0  0  0  0  0  0  0  0  0  0
   -2.8720    1.9340   -0.9980 C   0  0  0  0  0  0  0  0  0  0  0  0
   -1.9190    2.9160   -1.1520 O   0  0  0  0  0  0  0  0  0  0  0  0
   -3.1490    2.7270    1.2630 C   0  0  0  0  0  0  0  0  0  0  0  0
   -2.1370    3.6320    1.0220 O   0  0  0  0  0  0  0  0  0  0  0  0
    2.7200   -1.6790    0.5300 C   0  0  0  0  0  0  0  0  0  0  0  0
    3.9860   -1.6820    1.1120 O   0  0  0  0  0  0  0  0  0  0  0  0
    4.2340   -0.4980    1.8080 C   0  0  0  0  0  0  0  0  0  0  0  0
    4.0910    0.6270    0.8050 C   0  0  0  0  0  0  0  0  0  0  0  0
    2.7150    0.7160    0.5080 O   0  0  0  0  0  0  0  0  0  0  0  0
  1  2  1  0
  2  3  1  0
  3  4  1  0
  4  5  1  6
  4 20  1  0
  4 24  1  0
  5  6  1  0
  6  7  1  0
  7  8  1  1
  7 12  1  0
  8  9  1  0
  9 10  1  1
  9 11  1  0
 12 13  1  1
 12 14  1  0
 14 15  1  6
 14 16  1  0
 14 18  1  0
 16 17  1  0
 18 19  1  0
 20 21  1  0
 21 22  1  0
 22 23  1  0
 23 24  1  0
M  END
