
     RDKit          3D

 25 28  0  0  0  0  0  0  0  0999 V2000
    5.1160    0.5910   -2.3160 C   0  0  0  0  0  0  0  0  0  0  0  0
    3.8950    0.0740   -1.6510 C   0  0  0  0  0  0  0  0  0  0  0  0
    2.8770   -0.4700   -2.3410 N   0  0  0  0  0  0  0  0  0  0  0  0
    1.7610   -0.9450   -1.7600 C   0  0  0  0  0  0  0  0  0  0  0  0
    0.6680   -1.5430   -2.5710 C   0  0  0  0  0  0  0  0  0  0  0  0
   -0.4870   -1.7900   -1.8470 O   0  0  0  0  0  0  0  0  0  0  0  0
   -1.2700   -0.8630   -1.1810 C   0  0  0  0  0  0  0  0  0  0  0  0
   -0.9920    0.4880   -1.1550 C   0  0  0  0  0  0  0  0  0  0  0  0
   -1.8100    1.3650   -0.4730 C   0  0  0  0  0  0  0  0  0  0  0  0
   -2.9390    0.9260    0.2120 C   0  0  0  0  0  0  0  0  0  0  0  0
   -3.2240   -0.4040    0.1940 C   0  0  0  0  0  0  0  0  0  0  0  0
   -2.3760   -1.3040   -0.5120 C   0  0  0  0  0  0  0  0  0  0  0  0
   -4.3930   -0.9550    0.8840 C   0  0  1  0  0  0  0  0  0  0  0  0
   -4.0000   -2.1260    1.7880 C   0  0  0  0  0  0  0  0  0  0  0  0
   -5.1820   -0.0010    1.5710 N   0  0  0  0  0  0  0  0  0  0  0  0
   -4.9000    1.3780    1.5980 C   0  0  0  0  0  0  0  0  0  0  0  0
   -5.6710    2.1390    2.2350 O   0  0  0  0  0  0  0  0  0  0  0  0
   -3.7630    1.8780    0.9140 N   0  0  0  0  0  0  0  0  0  0  0  0
    1.6740   -0.8660   -0.4210 N   0  0  0  0  0  0  0  0  0  0  0  0
    2.6460   -0.3380    0.3440 C   0  0  0  0  0  0  0  0  0  0  0  0
    2.5060   -0.2810    1.7170 C   0  0  0  0  0  0  0  0  0  0  0  0
    3.5540    0.2780    2.4240 C   0  0  0  0  0  0  0  0  0  0  0  0
    4.6510    0.7410    1.7990 N   0  0  0  0  0  0  0  0  0  0  0  0
    4.8090    0.6950    0.4570 C   0  0  0  0  0  0  0  0  0  0  0  0
    3.7790    0.1420   -0.2740 C   0  0  0  0  0  0  0  0  0  0  0  0
  1  2  1  0
  2  3  2  0
  2 25  1  0
  3  4  1  0
  4  5  1  0
  4 19  2  0
  5  6  1  0
  6  7  1  0
  7  8  2  0
  7 12  1  0
  8  9  1  0
  9 10  2  0
 10 11  1  0
 10 18  1  0
 11 12  2  0
 11 13  1  0
 13 14  1  1
 13 15  1  0
 15 16  1  0
 16 17  2  0
 16 18  1  0
 19 20  1  0
 20 21  2  0
 20 25  1  0
 21 22  1  0
 22 23  2  0
 23 24  1  0
 24 25  2  0
M  CHG  1  23   1
M  END
