
     RDKit          3D

 25 28  0  0  0  0  0  0  0  0999 V2000
   -1.9940   -2.5630    1.1540 C   0  0  0  0  0  0  0  0  0  0  0  0
   -1.8730   -1.1630    1.7340 C   0  0  0  0  0  0  0  0  0  0  0  0
   -2.6870   -0.2980    0.8970 N   0  0  0  0  0  0  0  0  0  0  0  0
   -4.0050   -0.0620    1.1440 N   0  0  0  0  0  0  0  0  0  0  0  0
   -4.5100    0.7480    0.2440 C   0  0  0  0  0  0  0  0  0  0  0  0
   -5.9090    1.2610    0.1440 C   0  0  0  0  0  0  0  0  0  0  0  0
   -3.5170    1.0710   -0.6340 C   0  0  0  0  0  0  0  0  0  0  0  0
   -3.4950    1.8640   -1.7420 C   0  0  0  0  0  0  0  0  0  0  0  0
   -2.3370    2.0120   -2.4520 C   0  0  0  0  0  0  0  0  0  0  0  0
   -1.2030    1.3380   -2.0130 C   0  0  0  0  0  0  0  0  0  0  0  0
   -1.1970    0.5270   -0.8930 C   0  0  0  0  0  0  0  0  0  0  0  0
    0.0100   -0.1380   -0.4860 C   0  0  0  0  0  0  0  0  0  0  0  0
    1.1160    0.1860   -1.4270 N   0  0  0  0  0  0  0  0  0  0  0  0
    2.2810   -0.5910   -1.1210 C   0  0  0  0  0  0  0  0  0  0  0  0
    3.2510    0.0050   -0.2190 C   0  0  0  0  0  0  0  0  0  0  0  0
    3.0700    1.2480    0.3170 C   0  0  0  0  0  0  0  0  0  0  0  0
    4.0050    1.8230    1.1860 C   0  0  0  0  0  0  0  0  0  0  0  0
    5.1220    1.1640    1.5240 N   0  0  0  0  0  0  0  0  0  0  0  0
    5.3200   -0.0580    1.0100 C   0  0  0  0  0  0  0  0  0  0  0  0
    6.3080   -0.9050    1.1720 O   0  0  0  0  0  0  0  0  0  0  0  0
    6.1250   -1.9830    0.5000 N   0  0  0  0  0  0  0  0  0  0  0  0
    4.9500   -1.8710   -0.1580 C   0  0  0  0  0  0  0  0  0  0  0  0
    4.4120   -2.7060   -0.9210 O   0  0  0  0  0  0  0  0  0  0  0  0
    4.4240   -0.6540    0.1530 C   0  0  0  0  0  0  0  0  0  0  0  0
   -2.3740    0.3940   -0.1950 C   0  0  0  0  0  0  0  0  0  0  0  0
  1  2  1  0
  2  3  1  0
  3  4  1  0
  3 25  1  0
  4  5  2  0
  5  6  1  0
  5  7  1  0
  7  8  2  0
  7 25  1  0
  8  9  1  0
  9 10  2  0
 10 11  1  0
 11 12  1  0
 11 25  2  0
 12 13  1  0
 13 14  1  0
 14 15  1  0
 15 16  2  0
 15 24  1  0
 16 17  1  0
 17 18  2  0
 18 19  1  0
 19 20  1  0
 19 24  2  0
 20 21  1  0
 21 22  1  0
 22 23  2  0
 22 24  1  0
M  CHG  1  13   1
M  END
