
     RDKit          3D

 23 26  0  0  0  0  0  0  0  0999 V2000
    1.0630   -1.3560    2.4150 N   0  0  0  0  0  0  0  0  0  0  0  0
    1.5710   -1.7200    1.1210 C   0  0  0  0  0  0  0  0  0  0  0  0
    2.1180   -2.8580    1.0100 O   0  0  0  0  0  0  0  0  0  0  0  0
    1.4560   -0.8070   -0.0160 C   0  0  2  0  0  0  0  0  0  0  0  0
    2.5060    0.2640    0.0140 C   0  0  0  0  0  0  0  0  0  0  0  0
    3.2930    0.5920    1.0100 C   0  0  0  0  0  0  0  0  0  0  0  0
    4.1230    1.6450    0.6100 N   0  0  0  0  0  0  0  0  0  0  0  0
    3.7880    1.9330   -0.6860 N   0  0  0  0  0  0  0  0  0  0  0  0
    2.8610    1.1620   -1.0740 C   0  0  0  0  0  0  0  0  0  0  0  0
    2.2220    1.1100   -2.3210 O   0  0  0  0  0  0  0  0  0  0  0  0
    0.1230   -0.2360   -0.1920 C   0  0  0  0  0  0  0  0  0  0  0  0
   -0.0550    1.1610   -0.2030 C   0  0  0  0  0  0  0  0  0  0  0  0
   -1.2990    1.7500   -0.3000 C   0  0  0  0  0  0  0  0  0  0  0  0
   -1.6770    3.0620   -0.3270 N   0  0  0  0  0  0  0  0  0  0  0  0
   -2.9980    3.0960   -0.4310 C   0  0  0  0  0  0  0  0  0  0  0  0
   -3.4550    1.8130   -0.4700 C   0  0  0  0  0  0  0  0  0  0  0  0
   -2.3910    0.9930   -0.3880 N   0  0  0  0  0  0  0  0  0  0  0  0
   -2.2890   -0.3410   -0.3830 C   0  0  0  0  0  0  0  0  0  0  0  0
   -3.4420   -1.0710   -0.4900 C   0  0  0  0  0  0  0  0  0  0  0  0
   -3.4020   -2.4590   -0.5060 C   0  0  0  0  0  0  0  0  0  0  0  0
   -2.1770   -3.0570   -0.4130 C   0  0  0  0  0  0  0  0  0  0  0  0
   -1.0270   -2.3020   -0.3060 C   0  0  0  0  0  0  0  0  0  0  0  0
   -1.0530   -0.9410   -0.2870 C   0  0  0  0  0  0  0  0  0  0  0  0
  1  2  1  0
  2  3  2  0
  4  2  1  1
  4  5  1  0
  4 11  1  0
  5  6  2  0
  5  9  1  0
  6  7  1  0
  7  8  1  0
  8  9  2  0
  9 10  1  0
 11 12  2  0
 11 23  1  0
 12 13  1  0
 13 14  2  0
 13 17  1  0
 14 15  1  0
 15 16  2  0
 16 17  1  0
 17 18  1  0
 18 19  2  0
 18 23  1  0
 19 20  1  0
 20 21  2  0
 21 22  1  0
 22 23  2  0
M  CHG  1   7   1
M  END
