
     RDKit          3D

 23 26  0  0  0  0  0  0  0  0999 V2000
   -2.2040    3.2080    2.2750 N   0  0  0  0  0  0  0  0  0  0  0  0
   -1.9380    2.1950    1.3080 C   0  0  0  0  0  0  0  0  0  0  0  0
   -0.8200    2.0680    0.5720 N   0  0  0  0  0  0  0  0  0  0  0  0
   -0.9090    1.0060   -0.2330 N   0  0  0  0  0  0  0  0  0  0  0  0
   -0.0810    0.4680   -1.1350 C   0  0  0  0  0  0  0  0  0  0  0  0
    1.2350    1.1090   -1.3630 C   0  0  0  0  0  0  0  0  0  0  0  0
    2.2950    0.5920   -0.4980 C   0  0  0  0  0  0  0  0  0  0  0  0
    3.0600   -0.4820   -0.9030 C   0  0  0  0  0  0  0  0  0  0  0  0
    4.0700   -1.0130   -0.1330 C   0  0  0  0  0  0  0  0  0  0  0  0
    4.7990   -2.0980   -0.6090 O   0  0  0  0  0  0  0  0  0  0  0  0
    4.3070   -0.4300    1.0880 C   0  0  0  0  0  0  0  0  0  0  0  0
    3.5690    0.6490    1.5430 C   0  0  0  0  0  0  0  0  0  0  0  0
    3.8610    1.1960    2.7950 O   0  0  0  0  0  0  0  0  0  0  0  0
    2.5700    1.1410    0.7330 C   0  0  0  0  0  0  0  0  0  0  0  0
   -0.4430   -0.6230   -1.8100 N   0  0  0  0  0  0  0  0  0  0  0  0
   -1.6470   -1.2280   -1.6160 C   0  0  0  0  0  0  0  0  0  0  0  0
   -2.0230   -2.3540   -2.3120 C   0  0  0  0  0  0  0  0  0  0  0  0
   -3.2660   -2.8780   -2.0300 C   0  0  0  0  0  0  0  0  0  0  0  0
   -4.1110   -2.3120   -1.0960 C   0  0  0  0  0  0  0  0  0  0  0  0
   -3.7290   -1.1950   -0.4120 C   0  0  0  0  0  0  0  0  0  0  0  0
   -2.4740   -0.6460   -0.6790 C   0  0  0  0  0  0  0  0  0  0  0  0
   -2.1300    0.4810    0.0340 C   0  0  0  0  0  0  0  0  0  0  0  0
   -2.7720    1.1960    0.9740 N   0  0  0  0  0  0  0  0  0  0  0  0
  1  2  1  0
  2  3  2  0
  2 23  1  0
  3  4  1  0
  4  5  2  0
  4 22  1  0
  5  6  1  0
  5 15  1  0
  6  7  1  0
  7  8  2  0
  7 14  1  0
  8  9  1  0
  9 10  1  0
  9 11  2  0
 11 12  1  0
 12 13  1  0
 12 14  2  0
 15 16  2  0
 16 17  1  0
 16 21  1  0
 17 18  2  0
 18 19  1  0
 19 20  2  0
 20 21  1  0
 21 22  2  0
 22 23  1  0
M  CHG  1   4   1
M  END
