
     RDKit          3D

 23 25  0  0  0  0  0  0  0  0999 V2000
    6.1750   -1.0290    0.2040 C   0  0  0  0  0  0  0  0  0  0  0  0
    5.0050   -0.6730    0.9770 N   0  0  0  0  0  0  0  0  0  0  0  0
    3.8940   -0.3610    0.3770 C   0  0  0  0  0  0  0  0  0  0  0  0
    3.8370   -0.3690   -0.9500 N   0  0  0  0  0  0  0  0  0  0  0  0
    2.7620   -0.0690   -1.6420 N   0  0  0  0  0  0  0  0  0  0  0  0
    1.5830    0.2840   -1.0360 C   0  0  0  0  0  0  0  0  0  0  0  0
    0.5010    0.5860   -1.7770 O   0  0  0  0  0  0  0  0  0  0  0  0
   -0.7650    0.9210   -1.5100 C   0  0  0  0  0  0  0  0  0  0  0  0
   -1.2390    2.1640   -1.8660 C   0  0  0  0  0  0  0  0  0  0  0  0
   -2.5330    2.5360   -1.6090 C   0  0  0  0  0  0  0  0  0  0  0  0
   -3.0210    3.8870   -2.0050 C   0  0  0  0  0  0  0  0  0  0  0  0
   -3.3850    1.6630   -0.9850 C   0  0  0  0  0  0  0  0  0  0  0  0
   -2.9420    0.3880   -0.6060 C   0  0  0  0  0  0  0  0  0  0  0  0
   -1.6340    0.0560   -0.8840 C   0  0  0  0  0  0  0  0  0  0  0  0
   -1.4050   -1.2370   -0.4320 O   0  0  0  0  0  0  0  0  0  0  0  0
   -2.4760   -1.7160    0.3250 C   0  0  1  0  0  0  0  0  0  0  0  0
   -2.8510   -3.1400   -0.0450 C   0  0  0  0  0  0  0  0  0  0  0  0
   -2.1950   -1.6830    1.8140 C   0  0  0  0  0  0  0  0  0  0  0  0
   -3.5910   -0.7540    0.0530 C   0  0  0  0  0  0  0  0  0  0  0  0
    1.6240    0.2990    0.3330 C   0  0  0  0  0  0  0  0  0  0  0  0
    0.4890    0.6730    1.0870 N   0  0  0  0  0  0  0  0  0  0  0  0
    2.7610   -0.0180    1.0690 C   0  0  0  0  0  0  0  0  0  0  0  0
    2.8060   -0.0050    2.4830 N   0  0  0  0  0  0  0  0  0  0  0  0
  1  2  1  0
  2  3  2  3
  3  4  1  0
  3 22  1  0
  4  5  1  0
  5  6  2  0
  6  7  1  0
  6 20  1  0
  7  8  1  0
  8  9  2  0
  8 14  1  0
  9 10  1  0
 10 11  1  0
 10 12  2  0
 12 13  1  0
 13 14  2  0
 13 19  1  0
 14 15  1  0
 15 16  1  0
 16 17  1  6
 16 18  1  0
 16 19  1  0
 20 21  1  0
 20 22  2  0
 22 23  1  0
M  CHG  1   2   1
M  END
