
     RDKit          3D

 23 25  0  0  0  0  0  0  0  0999 V2000
    4.9850    1.5550    1.6700 C   0  0  0  0  0  0  0  0  0  0  0  0
    4.8570    0.7150    0.4270 C   0  0  0  0  0  0  0  0  0  0  0  0
    3.7290    0.2670   -0.0940 C   0  0  0  0  0  0  0  0  0  0  0  0
    2.4460    0.5220    0.4590 N   0  0  0  0  0  0  0  0  0  0  0  0
    1.2440    0.0480   -0.0930 C   0  0  0  0  0  0  0  0  0  0  0  0
    1.3040   -0.6420   -1.1360 O   0  0  0  0  0  0  0  0  0  0  0  0
   -0.0810    0.3310    0.5080 C   0  0  0  0  0  0  0  0  0  0  0  0
   -0.1350    1.0100    1.5340 O   0  0  0  0  0  0  0  0  0  0  0  0
   -1.2640   -0.1700   -0.0860 N   0  0  0  0  0  0  0  0  0  0  0  0
   -2.5740    0.0130    0.3620 C   0  0  0  0  0  0  0  0  0  0  0  0
   -2.8530    0.7380    1.4870 C   0  0  0  0  0  0  0  0  0  0  0  0
   -4.1380    0.9220    1.9330 N   0  0  0  0  0  0  0  0  0  0  0  0
   -5.1740    0.4100    1.3050 C   0  0  0  0  0  0  0  0  0  0  0  0
   -4.9610   -0.3320    0.1640 C   0  0  0  0  0  0  0  0  0  0  0  0
   -6.0790   -0.8550   -0.4710 C   0  0  0  0  0  0  0  0  0  0  0  0
   -5.8640   -1.5950   -1.6100 C   0  0  0  0  0  0  0  0  0  0  0  0
   -4.6030   -1.7950   -2.0770 C   0  0  0  0  0  0  0  0  0  0  0  0
   -3.5020   -1.2670   -1.4330 C   0  0  0  0  0  0  0  0  0  0  0  0
   -3.6730   -0.5310   -0.3060 C   0  0  0  0  0  0  0  0  0  0  0  0
    4.0170   -0.5190   -1.3110 C   0  0  0  0  0  0  0  0  0  0  0  0
    5.4480   -0.4880   -1.4560 N   0  0  0  0  0  0  0  0  0  0  0  0
    5.9750    0.2640   -0.3990 C   0  0  0  0  0  0  0  0  0  0  0  0
    7.2060    0.5490   -0.1350 N   0  0  0  0  0  0  0  0  0  0  0  0
  1  2  1  0
  2  3  2  0
  2 22  1  0
  3  4  1  0
  3 20  1  0
  4  5  1  0
  5  6  2  0
  5  7  1  0
  7  8  2  0
  7  9  1  0
  9 10  1  0
 10 11  2  0
 10 19  1  0
 11 12  1  0
 12 13  2  0
 13 14  1  0
 14 15  2  0
 14 19  1  0
 15 16  1  0
 16 17  2  0
 17 18  1  0
 18 19  2  0
 20 21  1  0
 21 22  1  0
 22 23  2  0
M  CHG  1  12   1
M  END
