
     RDKit          3D

 23 25  0  0  0  0  0  0  0  0999 V2000
    6.5460    0.2460    1.0580 C   0  0  0  0  0  0  0  0  0  0  0  0
    5.3680    0.5490    0.5900 C   0  0  0  0  0  0  0  0  0  0  0  0
    4.8350    1.9620    0.6410 C   0  0  0  0  0  0  0  0  0  0  0  0
    3.5240    1.8130    1.2880 N   0  0  0  0  0  0  0  0  0  0  0  0
    2.4980    0.9230    0.7020 C   0  0  0  0  0  0  0  0  0  0  0  0
    1.2800    1.2630    0.8630 C   0  0  0  0  0  0  0  0  0  0  0  0
   -0.0650    1.1220    0.7240 N   0  0  0  0  0  0  0  0  0  0  0  0
   -0.9220    0.2160    0.1300 C   0  0  0  0  0  0  0  0  0  0  0  0
   -0.4860   -0.7530   -0.4530 O   0  0  0  0  0  0  0  0  0  0  0  0
   -2.3670    0.3590    0.1640 N   0  0  0  0  0  0  0  0  0  0  0  0
   -3.2890   -0.5160   -0.4120 C   0  0  0  0  0  0  0  0  0  0  0  0
   -2.9810   -1.6420   -1.0980 C   0  0  0  0  0  0  0  0  0  0  0  0
   -4.0320   -2.4110   -1.6140 C   0  0  0  0  0  0  0  0  0  0  0  0
   -5.3530   -2.0790   -1.4590 C   0  0  0  0  0  0  0  0  0  0  0  0
   -5.6660   -0.9320   -0.7600 C   0  0  0  0  0  0  0  0  0  0  0  0
   -4.6480   -0.1650   -0.2470 C   0  0  0  0  0  0  0  0  0  0  0  0
   -4.9910    0.9830    0.4510 O   0  0  0  0  0  0  0  0  0  0  0  0
   -6.3360    1.3240    0.6110 C   0  0  0  0  0  0  0  0  0  0  0  0
    3.1020   -0.2120    0.0390 C   0  0  0  0  0  0  0  0  0  0  0  0
    4.4370   -0.3990   -0.0190 C   0  0  0  0  0  0  0  0  0  0  0  0
    4.7500   -1.5950   -0.7120 N   0  0  0  0  0  0  0  0  0  0  0  0
    3.5140   -2.0980   -1.0610 N   0  0  0  0  0  0  0  0  0  0  0  0
    2.5540   -1.3540   -0.6590 C   0  0  0  0  0  0  0  0  0  0  0  0
  1  2  2  0
  2  3  1  0
  2 20  1  0
  3  4  1  0
  4  5  1  0
  5  6  2  3
  5 19  1  0
  6  7  1  0
  7  8  1  0
  8  9  2  0
  8 10  1  0
 10 11  1  0
 11 12  2  0
 11 16  1  0
 12 13  1  0
 13 14  2  0
 14 15  1  0
 15 16  2  0
 16 17  1  0
 17 18  1  0
 19 20  2  0
 19 23  1  0
 20 21  1  0
 21 22  1  0
 22 23  2  0
M  CHG  1  21   1
M  END
