
     RDKit          3D

 23 25  0  0  0  0  0  0  0  0999 V2000
    4.4620   -1.0970    1.1990 C   0  0  0  0  0  0  0  0  0  0  0  0
    3.2630   -0.5550    1.0710 C   0  0  0  0  0  0  0  0  0  0  0  0
    2.0800   -0.6120    1.9490 C   0  0  0  0  0  0  0  0  0  0  0  0
    1.2280    0.5430    1.4730 C   0  0  0  0  0  0  0  0  0  0  0  0
    1.4410    0.4260    0.0100 N   0  0  0  0  0  0  0  0  0  0  0  0
    0.4680    0.4510   -1.0120 C   0  0  0  0  0  0  0  0  0  0  0  0
    0.7020    0.3270   -2.2210 O   0  0  0  0  0  0  0  0  0  0  0  0
   -0.9450    0.6420   -0.5980 C   0  0  0  0  0  0  0  0  0  0  0  0
   -1.4400    1.9400   -0.5150 C   0  0  0  0  0  0  0  0  0  0  0  0
   -2.7610    2.1310   -0.1280 C   0  0  0  0  0  0  0  0  0  0  0  0
   -3.2770    3.4630   -0.0400 N   0  0  0  0  0  0  0  0  0  0  0  0
   -3.5370    1.0600    0.1600 N   0  0  0  0  0  0  0  0  0  0  0  0
   -3.0640   -0.1890    0.0810 C   0  0  0  0  0  0  0  0  0  0  0  0
   -1.7600   -0.4260   -0.2990 C   0  0  0  0  0  0  0  0  0  0  0  0
   -1.0590   -1.6880   -0.4460 C   0  0  0  0  0  0  0  0  0  0  0  0
   -1.5420   -2.8860   -0.2380 C   0  0  0  0  0  0  0  0  0  0  0  0
   -0.6390   -3.9090   -0.4580 O   0  0  0  0  0  0  0  0  0  0  0  0
   -2.8410   -3.3130    0.1750 N   0  0  0  0  0  0  0  0  0  0  0  0
   -3.8840   -2.6090    0.4530 C   0  0  0  0  0  0  0  0  0  0  0  0
   -4.0330   -1.1720    0.4220 N   0  0  0  0  0  0  0  0  0  0  0  0
    2.8530    0.2860   -0.0790 C   0  0  0  0  0  0  0  0  0  0  0  0
    3.6810    0.7700   -0.9730 C   0  0  0  0  0  0  0  0  0  0  0  0
    3.3220    1.6140   -2.1300 C   0  0  0  0  0  0  0  0  0  0  0  0
  1  2  2  0
  2  3  1  0
  2 21  1  0
  3  4  1  0
  4  5  1  0
  5  6  1  0
  5 21  1  0
  6  7  2  0
  6  8  1  0
  8  9  2  0
  8 14  1  0
  9 10  1  0
 10 11  1  0
 10 12  2  0
 12 13  1  0
 13 14  2  0
 13 20  1  0
 14 15  1  0
 15 16  2  0
 16 17  1  0
 16 18  1  0
 18 19  2  0
 19 20  1  0
 21 22  2  3
 22 23  1  0
M  CHG  1  12   1
M  END
