
     RDKit          3D

 23 25  0  0  0  0  0  0  0  0999 V2000
   -0.5660    1.0710    2.7670 O   0  0  0  0  0  0  0  0  0  0  0  0
   -0.5200    0.5870    1.6220 C   0  0  0  0  0  0  0  0  0  0  0  0
    0.5930    0.6820    0.8210 C   0  0  0  0  0  0  0  0  0  0  0  0
    0.6110    0.1300   -0.4510 C   0  0  0  0  0  0  0  0  0  0  0  0
    1.7820    0.2580   -1.2420 N   0  0  0  0  0  0  0  0  0  0  0  0
    2.7920   -0.7100   -1.1350 N   0  0  0  0  0  0  0  0  0  0  0  0
    4.0940   -0.2790   -0.6910 C   0  0  0  0  0  0  0  0  0  0  0  0
    4.3350    1.0370   -0.3780 C   0  0  0  0  0  0  0  0  0  0  0  0
    5.5780    1.4570    0.0460 C   0  0  0  0  0  0  0  0  0  0  0  0
    6.6330    0.5770    0.1740 C   0  0  0  0  0  0  0  0  0  0  0  0
    7.8840    1.0250    0.6060 O   0  0  0  0  0  0  0  0  0  0  0  0
    6.4020   -0.7470   -0.1380 C   0  0  0  0  0  0  0  0  0  0  0  0
    5.1400   -1.1650   -0.5670 C   0  0  0  0  0  0  0  0  0  0  0  0
   -0.5010   -0.4870   -0.8410 N   0  0  0  0  0  0  0  0  0  0  0  0
   -1.6430   -0.6020   -0.0650 C   0  0  0  0  0  0  0  0  0  0  0  0
   -2.6870   -1.4040   -0.6380 C   0  0  0  0  0  0  0  0  0  0  0  0
   -3.9470   -1.3740   -0.5440 C   0  0  0  0  0  0  0  0  0  0  0  0
   -4.9340   -0.5810    0.1110 C   0  0  0  0  0  0  0  0  0  0  0  0
   -6.2680   -0.8400    0.0690 C   0  0  0  0  0  0  0  0  0  0  0  0
   -7.0210    0.1540    0.8280 C   0  0  0  0  0  0  0  0  0  0  0  0
   -6.0070    1.0580    1.2870 N   0  0  0  0  0  0  0  0  0  0  0  0
   -4.8520    0.6450    0.8930 C   0  0  0  0  0  0  0  0  0  0  0  0
   -1.6060   -0.0550    1.1560 N   0  0  0  0  0  0  0  0  0  0  0  0
  1  2  2  0
  2  3  1  0
  2 23  1  0
  3  4  2  0
  4  5  1  0
  4 14  1  0
  5  6  1  0
  6  7  1  0
  7  8  2  0
  7 13  1  0
  8  9  1  0
  9 10  2  0
 10 11  1  0
 10 12  1  0
 12 13  2  0
 14 15  2  0
 15 16  1  0
 15 23  1  0
 16 17  2  3
 17 18  1  0
 18 19  2  0
 18 22  1  0
 19 20  1  0
 20 21  1  0
 21 22  2  0
M  CHG  1  21   1
M  END
