
     RDKit          3D

 24 28  0  0  0  0  0  0  0  0999 V2000
   -1.7870   -3.9690   -1.8910 N   0  0  0  0  0  0  0  0  0  0  0  0
   -1.7770   -2.6270   -1.4500 C   0  0  0  0  0  0  0  0  0  0  0  0
   -0.7830   -1.7410   -1.6430 N   0  0  0  0  0  0  0  0  0  0  0  0
   -1.1110   -0.5800   -1.0970 N   0  0  0  0  0  0  0  0  0  0  0  0
   -0.4130    0.5670   -1.0580 C   0  0  0  0  0  0  0  0  0  0  0  0
    0.9280    0.6450   -1.6900 C   0  0  0  0  0  0  0  0  0  0  0  0
    2.0190    0.2890   -0.7700 C   0  0  0  0  0  0  0  0  0  0  0  0
    2.4710   -1.0080   -0.6420 C   0  0  0  0  0  0  0  0  0  0  0  0
    3.5080   -1.3310    0.2360 C   0  0  0  0  0  0  0  0  0  0  0  0
    4.1050   -0.3550    0.9980 C   0  0  0  0  0  0  0  0  0  0  0  0
    3.6610    0.9490    0.8770 C   0  0  0  0  0  0  0  0  0  0  0  0
    2.6300    1.2550    0.0010 C   0  0  0  0  0  0  0  0  0  0  0  0
    4.4490    1.6810    1.7590 O   0  0  0  0  0  0  0  0  0  0  0  0
    5.5610    0.9080    2.1790 C   0  0  0  0  0  0  0  0  0  0  0  0
    5.1410   -0.4200    1.9310 O   0  0  0  0  0  0  0  0  0  0  0  0
   -0.9900    1.6070   -0.4300 N   0  0  0  0  0  0  0  0  0  0  0  0
   -2.2060    1.5360    0.1420 C   0  0  0  0  0  0  0  0  0  0  0  0
   -2.7750    2.6320    0.7850 C   0  0  0  0  0  0  0  0  0  0  0  0
   -4.0230    2.5390    1.3660 C   0  0  0  0  0  0  0  0  0  0  0  0
   -4.6890    1.3340    1.2920 C   0  0  0  0  0  0  0  0  0  0  0  0
   -4.1690    0.2240    0.6690 C   0  0  0  0  0  0  0  0  0  0  0  0
   -2.9180    0.3550    0.0990 C   0  0  0  0  0  0  0  0  0  0  0  0
   -2.3310   -0.7140   -0.5440 C   0  0  0  0  0  0  0  0  0  0  0  0
   -2.7370   -1.9770   -0.7640 N   0  0  0  0  0  0  0  0  0  0  0  0
  1  2  1  0
  2  3  2  0
  2 24  1  0
  3  4  1  0
  4  5  2  0
  4 23  1  0
  5  6  1  0
  5 16  1  0
  6  7  1  0
  7  8  2  0
  7 12  1  0
  8  9  1  0
  9 10  2  0
 10 11  1  0
 10 15  1  0
 11 12  2  0
 11 13  1  0
 13 14  1  0
 14 15  1  0
 16 17  2  0
 17 18  1  0
 17 22  1  0
 18 19  2  0
 19 20  1  0
 20 21  2  0
 21 22  1  0
 22 23  2  0
 23 24  1  0
M  CHG  1   4   1
M  END
