
     RDKit          3D

 22 23  0  0  0  0  0  0  0  0999 V2000
    1.6860   -3.8710   -1.5260 O   0  0  0  0  0  0  0  0  0  0  0  0
    1.7350   -3.0420   -0.5730 C   0  0  0  0  0  0  0  0  0  0  0  0
    0.8610   -3.2430    0.5820 C   0  0  0  0  0  0  0  0  0  0  0  0
   -0.3670   -2.6370    0.4980 O   0  0  0  0  0  0  0  0  0  0  0  0
   -0.6620   -2.0680   -0.7120 C   0  0  0  0  0  0  0  0  0  0  0  0
   -1.1520   -0.7770   -0.6210 O   0  0  0  0  0  0  0  0  0  0  0  0
   -2.3140   -0.6670    0.0790 C   0  0  2  0  0  0  0  0  0  0  0  0
   -3.4340   -0.6330   -0.9480 C   0  0  0  0  0  0  0  0  0  0  0  0
   -3.8870    0.6640   -1.0420 O   0  0  0  0  0  0  0  0  0  0  0  0
   -2.9560    1.4950   -0.4350 C   0  0  0  0  0  0  0  0  0  0  0  0
   -2.5640    0.6260    0.7680 C   0  0  2  0  0  0  0  0  0  0  0  0
   -1.5330    1.1710    1.5670 N   0  0  0  0  0  0  0  0  0  0  0  0
   -0.1820    1.3800    1.3210 C   0  0  0  0  0  0  0  0  0  0  0  0
    0.6380    0.9350    2.2090 O   0  0  0  0  0  0  0  0  0  0  0  0
    0.4570    2.0480    0.1760 C   0  0  1  0  0  0  0  0  0  0  0  0
   -0.1380    3.7470   -0.0800 S   0  0  0  0  0  0  0  0  0  0  0  0
    0.7040    4.3690   -1.4440 O   0  0  0  0  0  0  0  0  0  0  0  0
    1.9650    2.1700    0.3400 C   0  0  0  0  0  0  0  0  0  0  0  0
    2.4210    0.9500    0.8320 O   0  0  0  0  0  0  0  0  0  0  0  0
    3.1540    0.2330   -0.1080 C   0  0  0  0  0  0  0  0  0  0  0  0
    3.1450   -1.2290    0.3320 C   0  0  0  0  0  0  0  0  0  0  0  0
    2.6300   -1.9950   -0.7120 O   0  0  0  0  0  0  0  0  0  0  0  0
  1  2  2  0
  2  3  1  0
  2 22  1  0
  3  4  1  0
  4  5  1  0
  5  6  1  0
  6  7  1  0
  7  8  1  6
  7 11  1  0
  8  9  1  0
  9 10  1  0
 11 10  1  6
 11 12  1  0
 12 13  1  0
 13 14  2  0
 13 15  1  0
 15 16  1  1
 15 18  1  0
 16 17  1  0
 18 19  1  0
 19 20  1  0
 20 21  1  0
 21 22  1  0
M  END
