
     RDKit          3D

 22 24  0  0  0  0  0  0  0  0999 V2000
    1.2590   -4.4080   -0.1690 O   0  0  0  0  0  0  0  0  0  0  0  0
    0.8790   -3.2170   -0.3320 C   0  0  0  0  0  0  0  0  0  0  0  0
    1.0040   -2.1470    0.6000 N   0  0  0  0  0  0  0  0  0  0  0  0
    0.3660   -1.0240    0.0070 C   0  0  2  0  0  0  0  0  0  0  0  0
    0.8920    0.3200    0.3590 C   0  0  0  0  0  0  0  0  0  0  0  0
    2.3110    0.5980    0.0240 C   0  0  2  0  0  0  0  0  0  0  0  0
    3.3220   -0.2900    0.6640 C   0  0  0  0  0  0  0  0  0  0  0  0
    4.5320    0.6640    0.6880 C   0  0  0  0  0  0  0  0  0  0  0  0
    3.8310    1.9550    0.9890 C   0  0  0  0  0  0  0  0  0  0  0  0
    2.6120    1.9040    0.3790 O   0  0  0  0  0  0  0  0  0  0  0  0
   -1.1120   -1.0040    0.2600 C   0  0  0  0  0  0  0  0  0  0  0  0
   -1.6370   -1.9250    0.9350 O   0  0  0  0  0  0  0  0  0  0  0  0
   -1.8830    0.0060   -0.2380 O   0  0  0  0  0  0  0  0  0  0  0  0
   -3.2910    0.1000   -0.0440 C   0  0  1  0  0  0  0  0  0  0  0  0
   -3.7040    1.3090    0.6940 C   0  0  0  0  0  0  0  0  0  0  0  0
   -4.1530    2.2880   -0.1170 O   0  0  0  0  0  0  0  0  0  0  0  0
   -4.4970    1.6760   -1.6310 S   0  0  2  0  0  0  0  0  0  0  0  0
   -3.6870    2.3310   -2.7090 O   0  0  0  0  0  0  0  0  0  0  0  0
   -5.9750    1.7740   -1.9140 O   0  0  0  0  0  0  0  0  0  0  0  0
   -3.9950   -0.0030   -1.3400 C   0  0  0  0  0  0  0  0  0  0  0  0
    0.5240   -1.3260   -1.4890 C   0  0  0  0  0  0  0  0  0  0  0  0
    0.2500   -2.7220   -1.4910 O   0  0  0  0  0  0  0  0  0  0  0  0
  1  2  2  0
  2  3  1  0
  2 22  1  0
  3  4  1  0
  4  5  1  6
  4 11  1  0
  4 21  1  0
  6  5  1  1
  6  7  1  0
  6 10  1  0
  7  8  1  0
  8  9  1  0
  9 10  1  0
 11 12  2  0
 11 13  1  0
 14 13  1  6
 14 15  1  0
 14 20  1  0
 15 16  1  0
 16 17  1  0
 17 18  2  0
 17 19  2  0
 17 20  1  1
 21 22  1  0
M  END
