
     RDKit          3D

 13 14  0  0  0  0  0  0  0  0999 V2000
    2.5050    2.0840   -0.3390 C   0  0  0  0  0  0  0  0  0  0  0  0
    1.4370    1.3270   -0.1890 C   0  0  0  0  0  0  0  0  0  0  0  0
    0.1540    1.8970   -0.0160 N   0  0  0  0  0  0  0  0  0  0  0  0
   -0.8680    1.1590    0.1280 C   0  0  0  0  0  0  0  0  0  0  0  0
   -2.2070    1.7680    0.3090 C   0  0  0  0  0  0  0  0  0  0  0  0
   -3.2800    1.1780   -1.0160 S   0  0  0  0  0  0  0  0  0  0  0  0
   -3.5280   -0.6030   -0.7710 C   0  0  0  0  0  0  0  0  0  0  0  0
   -0.7640   -0.2450    0.1200 N   0  0  0  0  0  0  0  0  0  0  0  0
    0.3660   -0.8520   -0.0320 C   0  0  0  0  0  0  0  0  0  0  0  0
    0.7060   -2.2660   -0.0720 C   0  0  0  0  0  0  0  0  0  0  0  0
    2.0070   -2.3590   -0.2510 C   0  0  0  0  0  0  0  0  0  0  0  0
    2.6400   -1.0310   -0.3430 C   0  0  0  0  0  0  0  0  0  0  0  0
    1.5540   -0.0910   -0.1990 N   0  0  0  0  0  0  0  0  0  0  0  0
  1  2  2  0
  2  3  1  0
  2 13  1  0
  3  4  2  0
  4  5  1  0
  4  8  1  0
  5  6  1  0
  6  7  1  0
  8  9  2  0
  9 10  1  0
  9 13  1  0
 10 11  2  0
 11 12  1  0
 12 13  1  0
M  END
