
     RDKit          3D

 22 23  0  0  0  0  0  0  0  0999 V2000
    5.7500   -2.1020    0.0950 C   0  0  0  0  0  0  0  0  0  0  0  0
    5.5040   -0.8850    0.7310 O   0  0  0  0  0  0  0  0  0  0  0  0
    4.3850   -0.2450    0.2280 C   0  0  2  0  0  0  0  0  0  0  0  0
    4.6530    0.9790   -0.3310 O   0  0  0  0  0  0  0  0  0  0  0  0
    3.3280   -0.1500    1.3270 C   0  0  0  0  0  0  0  0  0  0  0  0
    2.1530    0.4960    0.8900 O   0  0  0  0  0  0  0  0  0  0  0  0
    1.3410    0.0630   -0.1480 C   0  0  0  0  0  0  0  0  0  0  0  0
    1.6650   -0.9740   -0.7440 O   0  0  0  0  0  0  0  0  0  0  0  0
    0.1100    0.8070   -0.5500 C   0  0  2  0  0  0  0  0  0  0  0  0
   -0.8710    0.8340    0.5610 C   0  0  0  0  0  0  0  0  0  0  0  0
   -2.1200    0.5020    0.3750 C   0  0  0  0  0  0  0  0  0  0  0  0
   -2.9230    0.5920    1.5740 N   0  0  0  0  0  0  0  0  0  0  0  0
   -4.3680    0.6540    1.6990 C   0  0  0  0  0  0  0  0  0  0  0  0
   -4.9230    1.3100    0.4410 C   0  0  0  0  0  0  0  0  0  0  0  0
   -5.4140    0.3930   -0.4530 O   0  0  0  0  0  0  0  0  0  0  0  0
   -4.2780   -0.4090   -1.3470 S   0  0  1  0  0  0  0  0  0  0  0  0
   -4.3830   -1.8870   -1.0000 O   0  0  0  0  0  0  0  0  0  0  0  0
   -4.4680   -0.2880   -2.8170 O   0  0  0  0  0  0  0  0  0  0  0  0
   -2.6340    0.0720   -0.9210 C   0  0  0  0  0  0  0  0  0  0  0  0
   -1.8160    0.0100   -1.9580 C   0  0  0  0  0  0  0  0  0  0  0  0
   -0.3810    0.3590   -1.8680 C   0  0  2  0  0  0  0  0  0  0  0  0
    0.3370   -0.7920   -2.2870 O   0  0  0  0  0  0  0  0  0  0  0  0
  1  2  1  0
  2  3  1  0
  3  4  1  1
  3  5  1  0
  5  6  1  0
  6  7  1  0
  7  8  2  0
  9  7  1  1
  9 10  1  0
  9 21  1  0
 10 11  2  0
 11 12  1  0
 11 19  1  0
 12 13  1  0
 13 14  1  0
 14 15  1  0
 16 15  1  1
 16 17  2  0
 16 18  2  0
 16 19  1  0
 19 20  2  0
 20 21  1  0
 21 22  1  1
M  END
