
     RDKit          3D

 22 24  0  0  0  0  0  0  0  0999 V2000
   -2.2870   -3.5520   -1.8280 O   0  0  0  0  0  0  0  0  0  0  0  0
   -1.9090   -2.5350   -1.1730 C   0  0  0  0  0  0  0  0  0  0  0  0
   -0.5820   -2.1930   -0.9870 O   0  0  0  0  0  0  0  0  0  0  0  0
   -0.3200   -0.8010   -0.8530 C   0  0  2  0  0  0  0  0  0  0  0  0
    1.1340   -0.5470   -0.6770 C   0  0  0  0  0  0  0  0  0  0  0  0
    1.9090   -1.5260   -0.6660 O   0  0  0  0  0  0  0  0  0  0  0  0
    1.6580    0.7100   -0.5250 O   0  0  0  0  0  0  0  0  0  0  0  0
    3.0350    0.9920   -0.3550 C   0  0  0  0  0  0  0  0  0  0  0  0
    3.6200    0.3540    0.8530 C   0  0  0  0  0  0  0  0  0  0  0  0
    4.9620    0.6700    0.9530 O   0  0  0  0  0  0  0  0  0  0  0  0
    5.7030    0.1840   -0.1040 C   0  0  2  0  0  0  0  0  0  0  0  0
    6.6900   -0.6920    0.3510 O   0  0  0  0  0  0  0  0  0  0  0  0
    6.3130    1.2250   -0.8310 O   0  0  0  0  0  0  0  0  0  0  0  0
   -1.0850   -0.2490    0.3000 C   0  0  0  0  0  0  0  0  0  0  0  0
   -2.5460   -0.5860    0.1190 C   0  0  0  0  0  0  0  0  0  0  0  0
   -2.9150   -1.6500   -0.5680 C   0  0  0  0  0  0  0  0  0  0  0  0
   -4.3160   -1.7730   -0.6100 O   0  0  0  0  0  0  0  0  0  0  0  0
   -4.8060   -0.8610    0.3520 C   0  0  2  0  0  0  0  0  0  0  0  0
   -6.0260    0.3030   -0.3760 S   0  0  0  0  0  0  0  0  0  0  0  0
   -5.1840    1.8620    0.1220 C   0  0  0  0  0  0  0  0  0  0  0  0
   -4.2150    1.2710    1.1590 C   0  0  0  0  0  0  0  0  0  0  0  0
   -3.7150    0.0640    0.5740 N   0  0  0  0  0  0  0  0  0  0  0  0
  1  2  2  0
  2  3  1  0
  2 16  1  0
  3  4  1  0
  4  5  1  1
  4 14  1  0
  5  6  2  0
  5  7  1  0
  7  8  1  0
  8  9  1  0
  9 10  1  0
 10 11  1  0
 11 12  1  1
 11 13  1  0
 14 15  1  0
 15 16  2  0
 15 22  1  0
 16 17  1  0
 18 17  1  6
 18 19  1  0
 18 22  1  0
 19 20  1  0
 20 21  1  0
 21 22  1  0
M  END
