
     RDKit          3D

 12 12  0  0  0  0  0  0  0  0999 V2000
    3.5240   -0.0300    0.9000 C   0  0  0  0  0  0  0  0  0  0  0  0
    3.0400   -1.3790    0.4720 C   0  0  0  0  0  0  0  0  0  0  0  0
    1.7800   -1.5470    0.0420 C   0  0  0  0  0  0  0  0  0  0  0  0
    0.8680   -0.4210   -0.0140 C   0  0  0  0  0  0  0  0  0  0  0  0
   -0.3750   -0.5310   -0.4260 C   0  0  0  0  0  0  0  0  0  0  0  0
   -0.9260   -1.7800   -0.8550 N   0  0  0  0  0  0  0  0  0  0  0  0
   -2.2850   -1.8440   -1.2940 C   0  0  0  0  0  0  0  0  0  0  0  0
   -3.0170   -0.7450   -1.2980 C   0  0  0  0  0  0  0  0  0  0  0  0
   -2.4540    0.5450   -0.8570 C   0  0  0  0  0  0  0  0  0  0  0  0
   -1.2300    0.6780   -0.4470 C   0  0  0  0  0  0  0  0  0  0  0  0
   -0.6110    1.9350    0.0050 C   0  0  0  0  0  0  0  0  0  0  0  0
   -1.4800    3.0660   -0.0340 N   0  0  0  0  0  0  0  0  0  0  0  0
  1  2  1  0
  2  3  2  3
  3  4  1  0
  4  5  2  3
  5  6  1  0
  5 10  1  0
  6  7  1  0
  7  8  2  0
  8  9  1  0
  9 10  2  0
 10 11  1  0
 11 12  1  0
M  END
