
     RDKit          3D

 11 12  0  0  0  0  0  0  0  0999 V2000
   -1.2990    2.3860    0.2010 N   0  0  0  0  0  0  0  0  0  0  0  0
   -1.1380    1.0010    0.1320 C   0  0  0  0  0  0  0  0  0  0  0  0
    0.0750    0.4810    0.0310 C   0  0  0  0  0  0  0  0  0  0  0  0
    1.2240    1.3670   -0.0060 C   0  0  0  0  0  0  0  0  0  0  0  0
    2.4550    0.9230   -0.1040 C   0  0  0  0  0  0  0  0  0  0  0  0
    2.7210   -0.5170   -0.1820 C   0  0  0  0  0  0  0  0  0  0  0  0
    1.5170   -1.3750   -0.1400 C   0  0  0  0  0  0  0  0  0  0  0  0
    0.2810   -0.9600   -0.0430 C   0  0  0  0  0  0  0  0  0  0  0  0
   -0.8960   -1.8620   -0.0050 C   0  0  0  0  0  0  0  0  0  0  0  0
   -2.0080   -1.1320   -0.5930 N   0  0  0  0  0  0  0  0  0  0  0  0
   -2.2990    0.0780    0.1680 C   0  0  0  0  0  0  0  0  0  0  0  0
  1  2  1  0
  2  3  2  0
  2 11  1  0
  3  4  1  0
  3  8  1  0
  4  5  2  0
  5  6  1  0
  6  7  1  0
  7  8  2  0
  8  9  1  0
  9 10  1  0
 10 11  1  0
M  END
