
     RDKit          3D

 16 17  0  0  0  0  0  0  0  0999 V2000
   -4.8610    2.0500   -0.0550 C   0  0  0  0  0  0  0  0  0  0  0  0
   -4.0310    0.8230   -0.2600 C   0  0  0  0  0  0  0  0  0  0  0  0
   -4.5200   -0.4110   -0.6300 C   0  0  0  0  0  0  0  0  0  0  0  0
   -3.4460   -1.2670   -0.7100 C   0  0  0  0  0  0  0  0  0  0  0  0
   -2.3270   -0.5220   -0.3840 C   0  0  0  0  0  0  0  0  0  0  0  0
   -0.9400   -0.9780   -0.3260 C   0  0  0  0  0  0  0  0  0  0  0  0
    0.0080   -0.1280    0.0050 C   0  0  0  0  0  0  0  0  0  0  0  0
    1.4040   -0.6280    0.0530 C   0  0  0  0  0  0  0  0  0  0  0  0
    1.6050   -1.8120   -0.2180 O   0  0  0  0  0  0  0  0  0  0  0  0
    2.4590    0.2320    0.3990 N   0  0  0  0  0  0  0  0  0  0  0  0
    3.8390   -0.2070    0.4630 C   0  0  0  0  0  0  0  0  0  0  0  0
    4.8420    0.6680    0.6720 C   0  0  0  0  0  0  0  0  0  0  0  0
    6.1180    0.2290    0.7330 C   0  0  0  0  0  0  0  0  0  0  0  0
    6.0210   -1.5310    0.4920 S   0  0  0  0  0  0  0  0  0  0  0  0
    4.1590   -1.5170    0.3200 C   0  0  0  0  0  0  0  0  0  0  0  0
   -2.7390    0.6860   -0.1330 O   0  0  0  0  0  0  0  0  0  0  0  0
  1  2  1  0
  2  3  2  0
  2 16  1  0
  3  4  1  0
  4  5  2  0
  5  6  1  0
  5 16  1  0
  6  7  2  3
  7  8  1  0
  8  9  2  0
  8 10  1  0
 10 11  1  0
 11 12  1  0
 11 15  2  0
 12 13  2  0
 13 14  1  0
 14 15  1  0
M  END
