
     RDKit          3D

 28 32  0  0  0  0  0  0  0  0999 V2000
    0.7970    4.8420    0.4810 N   0  0  0  0  0  0  0  0  0  0  0  0
    0.2810    3.5270    0.2000 C   0  0  0  0  0  0  0  0  0  0  0  0
    0.7930    2.5930   -0.6130 N   0  0  0  0  0  0  0  0  0  0  0  0
    0.0400    1.5030   -0.6180 N   0  0  0  0  0  0  0  0  0  0  0  0
    0.1310    0.3190   -1.2590 C   0  0  0  0  0  0  0  0  0  0  0  0
    1.2870    0.0630   -2.1910 C   0  0  0  0  0  0  0  0  0  0  0  0
    2.3700   -0.5370   -1.3690 C   0  0  0  0  0  0  0  0  0  0  0  0
    2.4560   -1.9100   -1.2110 C   0  0  0  0  0  0  0  0  0  0  0  0
    3.4430   -2.4830   -0.4600 C   0  0  0  0  0  0  0  0  0  0  0  0
    4.3720   -1.6710    0.1520 C   0  0  0  0  0  0  0  0  0  0  0  0
    4.3340   -0.2850    0.0280 C   0  0  0  0  0  0  0  0  0  0  0  0
    3.3250    0.2390   -0.7360 C   0  0  0  0  0  0  0  0  0  0  0  0
    5.4080    0.2290    0.7660 O   0  0  0  0  0  0  0  0  0  0  0  0
    6.3510   -0.8530    0.8170 C   0  0  0  0  0  0  0  0  0  0  0  0
    5.4750   -1.9560    0.9670 O   0  0  0  0  0  0  0  0  0  0  0  0
   -0.8120   -0.6170   -1.0570 N   0  0  0  0  0  0  0  0  0  0  0  0
   -1.8500   -0.3960   -0.2240 C   0  0  0  0  0  0  0  0  0  0  0  0
   -2.8310   -1.3210    0.0100 C   0  0  0  0  0  0  0  0  0  0  0  0
   -3.8930   -1.1040    0.8580 C   0  0  0  0  0  0  0  0  0  0  0  0
   -5.0850   -2.3490    1.0830 S   0  0  2  0  0  0  0  0  0  0  0  0
   -6.3530   -2.1680   -0.0780 N   0  0  0  0  0  0  0  0  0  0  0  0
   -5.7330   -2.2160    2.4500 O   0  0  0  0  0  0  0  0  0  0  0  0
   -4.4690   -3.7240    1.0110 O   0  0  0  0  0  0  0  0  0  0  0  0
   -3.9810    0.1230    1.5170 C   0  0  0  0  0  0  0  0  0  0  0  0
   -3.0150    1.0840    1.3110 C   0  0  0  0  0  0  0  0  0  0  0  0
   -1.9710    0.8160    0.4510 C   0  0  0  0  0  0  0  0  0  0  0  0
   -0.9860    1.7550    0.2210 C   0  0  0  0  0  0  0  0  0  0  0  0
   -0.8390    2.9950    0.7220 N   0  0  0  0  0  0  0  0  0  0  0  0
  1  2  1  0
  2  3  2  0
  2 28  1  0
  3  4  1  0
  4  5  2  0
  4 27  1  0
  5  6  1  0
  5 16  1  0
  6  7  1  0
  7  8  2  0
  7 12  1  0
  8  9  1  0
  9 10  2  0
 10 11  1  0
 10 15  1  0
 11 12  2  0
 11 13  1  0
 13 14  1  0
 14 15  1  0
 16 17  2  0
 17 18  1  0
 17 26  1  0
 18 19  2  0
 19 20  1  0
 19 24  1  0
 20 21  1  6
 20 22  2  0
 20 23  2  0
 24 25  2  0
 25 26  1  0
 26 27  2  0
 27 28  1  0
M  CHG  1   4   1
M  END
