
     RDKit          3D

 19 19  0  0  0  0  0  0  0  0999 V2000
   -3.4900    2.2000   -0.5060 C   0  0  0  0  0  0  0  0  0  0  0  0
   -2.8120    1.2170    0.2540 O   0  0  0  0  0  0  0  0  0  0  0  0
   -2.3160    0.0680   -0.3200 C   0  0  0  0  0  0  0  0  0  0  0  0
   -2.4820   -0.0930   -1.5590 O   0  0  0  0  0  0  0  0  0  0  0  0
   -1.6030   -0.9890    0.4190 C   0  0  2  0  0  0  0  0  0  0  0  0
   -2.2850   -2.3200    0.3140 C   0  0  0  0  0  0  0  0  0  0  0  0
   -1.5250   -0.6080    1.8000 N   0  0  0  0  0  0  0  0  0  0  0  0
   -0.7920   -1.5920    2.5080 C   0  0  0  0  0  0  0  0  0  0  0  0
   -1.0180   -2.0600    3.8010 S   0  0  0  0  0  0  0  0  0  0  0  0
    0.4900   -2.0980    1.3690 S   0  0  0  0  0  0  0  0  0  0  0  0
   -0.1600   -1.1400   -0.0690 C   0  0  2  0  0  0  0  0  0  0  0  0
    0.6790    0.4390   -0.0760 S   0  0  0  0  0  0  0  0  0  0  0  0
    2.3600    0.2950   -0.6300 C   0  0  0  0  0  0  0  0  0  0  0  0
    3.1010    1.3690   -0.7030 C   0  0  0  0  0  0  0  0  0  0  0  0
    2.5050    2.6740   -0.3180 C   0  0  0  0  0  0  0  0  0  0  0  0
    3.1870    3.2690    0.7390 O   0  0  0  0  0  0  0  0  0  0  0  0
    2.9400   -0.9810   -1.0070 C   0  0  0  0  0  0  0  0  0  0  0  0
    4.1570   -1.0900   -1.4120 N   0  0  0  0  0  0  0  0  0  0  0  0
    2.1810   -2.1360   -0.9390 O   0  0  0  0  0  0  0  0  0  0  0  0
  1  2  1  0
  2  3  1  0
  3  4  2  0
  3  5  1  0
  5  6  1  1
  5  7  1  0
  5 11  1  0
  7  8  1  0
  8  9  2  0
  8 10  1  0
 10 11  1  0
 11 12  1  1
 12 13  1  0
 13 14  2  3
 13 17  1  0
 14 15  1  0
 15 16  1  0
 17 18  2  0
 17 19  1  0
M  CHG  1   7   1
M  END
