
     RDKit          3D

 19 19  0  0  0  0  0  0  0  0999 V2000
    0.6350    3.0580   -1.8520 O   0  0  0  0  0  0  0  0  0  0  0  0
    0.1690    1.8130   -1.1110 S   0  0  0  0  0  0  0  0  0  0  0  0
   -1.4280    2.1630   -0.3470 C   0  0  0  0  0  0  0  0  0  0  0  0
   -2.5370    1.3900   -1.0530 C   0  0  0  0  0  0  0  0  0  0  0  0
   -3.4620    0.6880   -0.1220 C   0  0  0  0  0  0  0  0  0  0  0  0
   -2.9800   -0.5280    0.4450 N   0  0  0  0  0  0  0  0  0  0  0  0
   -2.6660   -1.5310   -0.5060 C   0  0  0  0  0  0  0  0  0  0  0  0
   -3.4340   -1.4360   -1.9440 S   0  0  0  0  0  0  0  0  0  0  0  0
   -1.7540   -2.5980   -0.3040 N   0  0  0  0  0  0  0  0  0  0  0  0
   -0.5100   -2.5000    0.4380 C   0  0  0  0  0  0  0  0  0  0  0  0
    0.1020   -1.1510    0.3350 C   0  0  0  0  0  0  0  0  0  0  0  0
    1.5000   -1.1440   -0.1690 C   0  0  0  0  0  0  0  0  0  0  0  0
    2.2080   -2.2560   -0.5340 O   0  0  0  0  0  0  0  0  0  0  0  0
    2.0820    0.0570   -0.2610 C   0  0  0  0  0  0  0  0  0  0  0  0
    3.4850    0.1590   -0.7580 C   0  0  0  0  0  0  0  0  0  0  0  0
    4.5240    0.8930    0.4750 S   0  0  1  0  0  0  0  0  0  0  0  0
    5.8090    0.1050    0.6170 O   0  0  0  0  0  0  0  0  0  0  0  0
    4.8380    2.3050    0.0220 O   0  0  0  0  0  0  0  0  0  0  0  0
    1.3920    1.3130    0.1130 C   0  0  0  0  0  0  0  0  0  0  0  0
  1  2  2  0
  2  3  1  1
  2 19  1  0
  3  4  1  0
  4  5  1  0
  5  6  1  0
  6  7  1  0
  7  8  2  0
  7  9  1  0
  9 10  1  0
 10 11  1  0
 11 12  1  0
 12 13  1  0
 12 14  2  0
 14 15  1  0
 14 19  1  0
 16 15  1  6
 16 17  2  0
 16 18  2  0
M  CHG  1   6   1
M  END
