
     RDKit          3D

 19 19  0  0  0  0  0  0  0  0999 V2000
    4.0040   -1.7150   -1.3130 C   0  0  0  0  0  0  0  0  0  0  0  0
    3.3520   -0.4790   -1.0910 O   0  0  0  0  0  0  0  0  0  0  0  0
    2.0350   -0.4330   -0.5550 C   0  0  0  0  0  0  0  0  0  0  0  0
    1.3140   -1.4440   -0.7510 N   0  0  0  0  0  0  0  0  0  0  0  0
   -0.0120   -1.7730   -0.3860 C   0  0  0  0  0  0  0  0  0  0  0  0
   -0.3080   -1.5980    1.1030 C   0  0  2  0  0  0  0  0  0  0  0  0
    0.4610   -2.9910    1.9800 S   0  0  0  0  0  0  0  0  0  0  0  0
   -2.1040   -1.7070    1.3170 S   0  0  0  0  0  0  0  0  0  0  0  0
   -2.8900   -1.2840   -0.2310 C   0  0  0  0  0  0  0  0  0  0  0  0
   -3.0040   -2.2060   -1.0520 O   0  0  0  0  0  0  0  0  0  0  0  0
   -3.3810    0.0830   -0.5310 C   0  0  0  0  0  0  0  0  0  0  0  0
   -2.6150    1.1210    0.0900 N   0  0  0  0  0  0  0  0  0  0  0  0
   -2.0090    1.9560   -0.8860 C   0  0  0  0  0  0  0  0  0  0  0  0
   -2.5320    2.9580   -1.3240 O   0  0  0  0  0  0  0  0  0  0  0  0
   -0.3930    1.5090   -1.5030 S   0  0  0  0  0  0  0  0  0  0  0  0
    0.7490    1.6480   -0.1360 C   0  0  0  0  0  0  0  0  0  0  0  0
    0.5400    2.8700    0.7250 C   0  0  0  0  0  0  0  0  0  0  0  0
    1.4530    2.9100    1.7670 O   0  0  0  0  0  0  0  0  0  0  0  0
    1.7010    0.7970    0.1570 C   0  0  0  0  0  0  0  0  0  0  0  0
  1  2  1  0
  2  3  1  0
  3  4  2  0
  3 19  1  0
  4  5  1  0
  5  6  1  0
  6  7  1  1
  6  8  1  0
  8  9  1  0
  9 10  2  0
  9 11  1  0
 11 12  1  0
 12 13  1  0
 13 14  2  0
 13 15  1  0
 15 16  1  0
 16 17  1  0
 16 19  2  0
 17 18  1  0
M  CHG  1  12   1
M  END
