
     RDKit          3D

 19 20  0  0  0  0  0  0  0  0999 V2000
    3.7930    1.5600    1.2550 C   0  0  0  0  0  0  0  0  0  0  0  0
    3.8950    0.5750    0.4260 C   0  0  0  0  0  0  0  0  0  0  0  0
    5.4740   -0.2460    0.0360 S   0  0  0  0  0  0  0  0  0  0  0  0
    4.9350   -1.0250   -1.5050 C   0  0  0  0  0  0  0  0  0  0  0  0
    3.5320   -0.5620   -1.6010 C   0  0  0  0  0  0  0  0  0  0  0  0
    2.9460   -0.5760   -2.7480 O   0  0  0  0  0  0  0  0  0  0  0  0
    2.9680   -0.1390   -0.3730 N   0  0  0  0  0  0  0  0  0  0  0  0
    1.6360   -0.3990    0.0210 C   0  0  0  0  0  0  0  0  0  0  0  0
    0.9010   -1.0600   -0.8030 O   0  0  0  0  0  0  0  0  0  0  0  0
    0.9980    0.0070    1.2870 C   0  0  0  0  0  0  0  0  0  0  0  0
   -0.6650   -0.7550    1.4450 S   0  0  0  0  0  0  0  0  0  0  0  0
   -1.7510   -0.0740    0.1730 C   0  0  2  0  0  0  0  0  0  0  0  0
   -1.9720    1.4000    0.4510 C   0  0  0  0  0  0  0  0  0  0  0  0
   -3.3650    1.7180   -0.6280 S   0  0  2  0  0  0  0  0  0  0  0  0
   -2.9230    2.4190   -1.8650 O   0  0  0  0  0  0  0  0  0  0  0  0
   -4.4760    2.4250    0.0830 O   0  0  0  0  0  0  0  0  0  0  0  0
   -3.8210    0.0080   -0.9730 C   0  0  0  0  0  0  0  0  0  0  0  0
   -3.1340   -0.6430    0.2350 C   0  0  1  0  0  0  0  0  0  0  0  0
   -3.2030   -2.0690    0.1600 N   0  0  0  0  0  0  0  0  0  0  0  0
  1  2  2  0
  2  3  1  0
  2  7  1  0
  3  4  1  0
  4  5  1  0
  5  6  2  0
  5  7  1  0
  7  8  1  0
  8  9  2  0
  8 10  1  0
 10 11  1  0
 12 11  1  1
 12 13  1  0
 12 18  1  0
 14 13  1  1
 14 15  2  0
 14 16  2  0
 14 17  1  0
 17 18  1  0
 18 19  1  6
M  CHG  1  19   1
M  END
