
     RDKit          3D

 25 29  0  0  0  0  0  0  0  0999 V2000
   -2.8250   -3.5560    1.6070 N   0  0  0  0  0  0  0  0  0  0  0  0
   -2.4400   -2.3560    0.9320 C   0  0  0  0  0  0  0  0  0  0  0  0
   -1.3750   -2.1740    0.1310 N   0  0  0  0  0  0  0  0  0  0  0  0
   -1.3780   -0.9200   -0.2920 N   0  0  0  0  0  0  0  0  0  0  0  0
   -0.5230   -0.2570   -1.1110 C   0  0  0  0  0  0  0  0  0  0  0  0
    0.6410   -0.9670   -1.6770 C   0  0  0  0  0  0  0  0  0  0  0  0
    1.8350   -0.8650   -0.8030 C   0  0  0  0  0  0  0  0  0  0  0  0
    2.1000   -1.7910    0.1840 C   0  0  0  0  0  0  0  0  0  0  0  0
    3.2380   -1.6280    0.9630 C   0  0  0  0  0  0  0  0  0  0  0  0
    4.1050   -0.5700    0.7740 C   0  0  0  0  0  0  0  0  0  0  0  0
    3.8370    0.3630   -0.2220 C   0  0  0  0  0  0  0  0  0  0  0  0
    2.6900    0.1940   -1.0020 C   0  0  0  0  0  0  0  0  0  0  0  0
    4.8400    1.3240   -0.2210 O   0  0  0  0  0  0  0  0  0  0  0  0
    5.9560    0.7340    0.4290 C   0  0  0  0  0  0  0  0  0  0  0  0
    5.2870   -0.1300    1.3560 O   0  0  0  0  0  0  0  0  0  0  0  0
   -0.7620    1.0190   -1.3790 N   0  0  0  0  0  0  0  0  0  0  0  0
   -1.8160    1.7100   -0.8820 C   0  0  0  0  0  0  0  0  0  0  0  0
   -2.0270    3.0360   -1.1860 C   0  0  0  0  0  0  0  0  0  0  0  0
   -3.1100    3.7010   -0.6600 C   0  0  0  0  0  0  0  0  0  0  0  0
   -3.9670    3.0370    0.1600 C   0  0  0  0  0  0  0  0  0  0  0  0
   -3.7630    1.7080    0.4700 C   0  0  0  0  0  0  0  0  0  0  0  0
   -4.6240    1.0950    1.2750 F   0  0  0  0  0  0  0  0  0  0  0  0
   -2.6860    1.0390   -0.0500 C   0  0  0  0  0  0  0  0  0  0  0  0
   -2.4650   -0.2870    0.2460 C   0  0  0  0  0  0  0  0  0  0  0  0
   -3.1070   -1.1820    0.9960 N   0  0  0  0  0  0  0  0  0  0  0  0
  1  2  1  0
  2  3  2  0
  2 25  1  0
  3  4  1  0
  4  5  2  0
  4 24  1  0
  5  6  1  0
  5 16  1  0
  6  7  1  0
  7  8  2  0
  7 12  1  0
  8  9  1  0
  9 10  2  0
 10 11  1  0
 10 15  1  0
 11 12  2  0
 11 13  1  0
 13 14  1  0
 14 15  1  0
 16 17  2  0
 17 18  1  0
 17 23  1  0
 18 19  2  0
 19 20  1  0
 20 21  2  0
 21 22  1  0
 21 23  1  0
 23 24  2  0
 24 25  1  0
M  CHG  1   4   1
M  END
