
     RDKit          3D

 19 20  0  0  0  0  0  0  0  0999 V2000
   -5.1240    1.0420   -0.3540 N   0  0  0  0  0  0  0  0  0  0  0  0
   -4.2530   -0.0270    0.0380 C   0  0  1  0  0  0  0  0  0  0  0  0
   -3.0660   -0.0190   -0.9050 C   0  0  0  0  0  0  0  0  0  0  0  0
   -2.4540   -1.3970   -0.8700 C   0  0  0  0  0  0  0  0  0  0  0  0
   -1.4860   -1.4560    0.2560 C   0  0  1  0  0  0  0  0  0  0  0  0
   -0.3110   -0.5470    0.1600 C   0  0  0  0  0  0  0  0  0  0  0  0
    0.6910   -0.8430   -1.2700 S   0  0  1  0  0  0  0  0  0  0  0  0
    1.1100   -2.2590   -1.3670 O   0  0  0  0  0  0  0  0  0  0  0  0
   -0.1620   -0.5280   -2.4830 O   0  0  0  0  0  0  0  0  0  0  0  0
    2.0360    0.2240   -1.3390 N   0  0  0  0  0  0  0  0  0  0  0  0
    2.9280    0.0730   -0.2070 C   0  0  1  0  0  0  0  0  0  0  0  0
    4.3170   -0.1990   -0.6570 C   0  0  0  0  0  0  0  0  0  0  0  0
    5.2600    0.0370    0.4710 C   0  0  0  0  0  0  0  0  0  0  0  0
    4.5520    1.4880    1.2490 S   0  0  2  0  0  0  0  0  0  0  0  0
    5.2880    2.7210    0.8590 O   0  0  0  0  0  0  0  0  0  0  0  0
    4.4890    1.2540    2.7110 O   0  0  0  0  0  0  0  0  0  0  0  0
    2.9240    1.4230    0.4930 C   0  0  0  0  0  0  0  0  0  0  0  0
   -2.4010   -1.0460    1.7740 S   0  0  0  0  0  0  0  0  0  0  0  0
   -3.7290    0.1370    1.4400 C   0  0  0  0  0  0  0  0  0  0  0  0
  2  1  1  6
  2  3  1  0
  2 19  1  0
  3  4  1  0
  4  5  1  0
  5  6  1  6
  5 18  1  0
  7  6  1  1
  7  8  2  0
  7  9  2  0
  7 10  1  0
 11 10  1  6
 11 12  1  0
 11 17  1  0
 12 13  1  0
 14 13  1  6
 14 15  2  0
 14 16  2  0
 14 17  1  0
 18 19  1  0
M  CHG  1   1   1
M  END
