
     RDKit          3D

 28 31  0  0  0  0  0  0  0  0999 V2000
    2.3780   -1.8210    1.1360 N   0  0  0  0  0  0  0  0  0  0  0  0
    1.8750   -0.5290    0.8640 C   0  0  0  0  0  0  0  0  0  0  0  0
    0.5700   -0.2570    0.6630 N   0  0  0  0  0  0  0  0  0  0  0  0
    0.4390    1.0640    0.4590 C   0  0  0  0  0  0  0  0  0  0  0  0
   -0.8200    1.7950    0.1980 C   0  0  0  0  0  0  0  0  0  0  0  0
   -0.8050    3.0400    0.0140 O   0  0  0  0  0  0  0  0  0  0  0  0
   -2.0190    1.0430    0.1640 N   0  0  0  0  0  0  0  0  0  0  0  0
   -3.2420    1.6890   -0.0970 C   0  0  0  0  0  0  0  0  0  0  0  0
   -3.2600    3.0160   -0.3330 N   0  0  0  0  0  0  0  0  0  0  0  0
   -4.4120    3.6480   -0.5950 C   0  0  0  0  0  0  0  0  0  0  0  0
   -5.6050    2.9760   -0.6330 C   0  0  0  0  0  0  0  0  0  0  0  0
   -5.6310    1.6100   -0.3950 C   0  0  0  0  0  0  0  0  0  0  0  0
   -4.4420    0.9800   -0.1290 C   0  0  0  0  0  0  0  0  0  0  0  0
   -4.4210   -0.3670    0.1130 O   0  0  0  0  0  0  0  0  0  0  0  0
   -5.5160   -1.2040    0.1190 C   0  0  0  0  0  0  0  0  0  0  0  0
   -5.6610   -2.3290   -0.5960 C   0  0  0  0  0  0  0  0  0  0  0  0
   -6.9710   -2.8910   -0.2780 C   0  0  0  0  0  0  0  0  0  0  0  0
   -7.4800   -2.0770    0.6220 C   0  0  0  0  0  0  0  0  0  0  0  0
   -6.7290   -1.0360    0.9010 C   0  0  0  0  0  0  0  0  0  0  0  0
    1.6400    1.5830    0.5360 O   0  0  0  0  0  0  0  0  0  0  0  0
    2.5580    0.6780    0.7780 C   0  0  0  0  0  0  0  0  0  0  0  0
    4.0080    0.9000    0.9220 C   0  0  0  0  0  0  0  0  0  0  0  0
    4.9340    0.2880    0.2610 C   0  0  0  0  0  0  0  0  0  0  0  0
    6.3620    0.5940    0.5000 C   0  0  0  0  0  0  0  0  0  0  0  0
    6.9330   -0.6930    0.9300 N   0  0  0  0  0  0  0  0  0  0  0  0
    6.6310   -1.7730    0.0540 C   0  0  0  0  0  0  0  0  0  0  0  0
    5.2380   -1.9520   -0.2800 N   0  0  0  0  0  0  0  0  0  0  0  0
    4.6510   -0.7030   -0.7780 C   0  0  0  0  0  0  0  0  0  0  0  0
  1  2  1  0
  2  3  1  0
  2 21  2  0
  3  4  2  0
  4  5  1  0
  4 20  1  0
  5  6  2  0
  5  7  1  0
  7  8  1  0
  8  9  2  0
  8 13  1  0
  9 10  1  0
 10 11  2  0
 11 12  1  0
 12 13  2  0
 13 14  1  0
 14 15  1  0
 15 16  2  0
 15 19  1  0
 16 17  1  0
 17 18  2  0
 18 19  2  0
 20 21  1  0
 21 22  1  0
 22 23  2  3
 23 24  1  0
 23 28  1  0
 24 25  1  0
 25 26  1  0
 26 27  1  0
 27 28  1  0
M  END
