
     RDKit          3D

 27 30  0  0  0  0  0  0  0  0999 V2000
   -2.4860    3.2150    0.6570 C   0  0  0  0  0  0  0  0  0  0  0  0
   -3.7180    2.5850    0.3780 O   0  0  0  0  0  0  0  0  0  0  0  0
   -3.7270    1.1990    0.2420 C   0  0  0  0  0  0  0  0  0  0  0  0
   -2.5940    0.4350    0.3700 C   0  0  0  0  0  0  0  0  0  0  0  0
   -2.6260   -0.9420    0.2310 C   0  0  0  0  0  0  0  0  0  0  0  0
   -1.4040   -1.7330    0.3530 C   0  0  0  0  0  0  0  0  0  0  0  0
   -1.2590   -3.0600    0.3380 N   0  0  0  0  0  0  0  0  0  0  0  0
    0.0330   -3.4040    0.4710 N   0  0  0  0  0  0  0  0  0  0  0  0
    0.7840   -2.2800    0.5800 C   0  0  0  0  0  0  0  0  0  0  0  0
   -0.1010   -1.2360    0.5060 C   0  0  0  0  0  0  0  0  0  0  0  0
    0.6590    0.0320    0.5970 C   0  0  0  0  0  0  0  0  0  0  0  0
    2.0420   -0.3690    0.4190 N   0  0  1  0  0  0  0  0  0  0  0  0
    2.8840    0.4810    1.2410 C   0  0  0  0  0  0  0  0  0  0  0  0
    4.1320    0.8450    0.4930 C   0  0  0  0  0  0  0  0  0  0  0  0
    5.2170    0.0080    0.6290 C   0  0  0  0  0  0  0  0  0  0  0  0
    6.3730    0.3260   -0.0500 C   0  0  0  0  0  0  0  0  0  0  0  0
    6.4190    1.4240   -0.8170 N   0  0  0  0  0  0  0  0  0  0  0  0
    5.3740    2.2570   -0.9670 C   0  0  0  0  0  0  0  0  0  0  0  0
    5.4560    3.4140   -1.7880 N   0  0  0  0  0  0  0  0  0  0  0  0
    4.2040    1.9650   -0.2990 C   0  0  0  0  0  0  0  0  0  0  0  0
    2.1620   -1.7570    0.7570 C   0  0  0  0  0  0  0  0  0  0  0  0
   -3.8570   -1.4900   -0.0400 C   0  0  0  0  0  0  0  0  0  0  0  0
   -3.9640   -2.8630   -0.1930 O   0  0  0  0  0  0  0  0  0  0  0  0
   -5.1870   -3.5080   -0.4720 C   0  0  0  0  0  0  0  0  0  0  0  0
   -5.0260   -0.7490   -0.1760 C   0  0  0  0  0  0  0  0  0  0  0  0
   -4.9470    0.6160   -0.0300 C   0  0  0  0  0  0  0  0  0  0  0  0
   -6.0930    1.3820   -0.1590 O   0  0  0  0  0  0  0  0  0  0  0  0
  1  2  1  0
  2  3  1  0
  3  4  2  0
  3 26  1  0
  4  5  1  0
  5  6  1  0
  5 22  2  0
  6  7  1  0
  6 10  2  0
  7  8  1  0
  8  9  2  0
  9 10  1  0
  9 21  1  0
 10 11  1  0
 11 12  1  0
 12 13  1  1
 12 21  1  0
 13 14  1  0
 14 15  2  0
 14 20  1  0
 15 16  1  0
 16 17  2  0
 17 18  1  0
 18 19  1  0
 18 20  2  0
 22 23  1  0
 22 25  1  0
 23 24  1  0
 25 26  2  0
 26 27  1  0
M  CHG  1  12   1
M  END
