
     RDKit          3D

 28 31  0  0  0  0  0  0  0  0999 V2000
    0.2800    0.5750    1.5820 O   0  0  0  0  0  0  0  0  0  0  0  0
   -0.1690   -0.1170    0.6560 C   0  0  0  0  0  0  0  0  0  0  0  0
   -1.5900   -0.3430    0.6380 N   0  0  0  0  0  0  0  0  0  0  0  0
   -2.3900    0.2410    1.6830 C   0  0  0  0  0  0  0  0  0  0  0  0
   -3.8340   -0.1400    1.4410 C   0  0  1  0  0  0  0  0  0  0  0  0
   -4.7330    0.4550    2.5250 C   0  0  0  0  0  0  0  0  0  0  0  0
   -6.0570    0.0730    2.2050 O   0  0  0  0  0  0  0  0  0  0  0  0
   -6.4970   -0.1350    0.9140 C   0  0  0  0  0  0  0  0  0  0  0  0
   -7.8090   -0.5290    0.6680 C   0  0  0  0  0  0  0  0  0  0  0  0
   -8.1700   -0.7160   -0.6480 C   0  0  0  0  0  0  0  0  0  0  0  0
   -7.3140   -0.5350   -1.7140 C   0  0  0  0  0  0  0  0  0  0  0  0
   -6.0470   -0.1500   -1.4140 N   0  0  0  0  0  0  0  0  0  0  0  0
   -5.6460    0.0450   -0.1510 C   0  0  0  0  0  0  0  0  0  0  0  0
   -4.2560    0.4650    0.1360 C   0  0  0  0  0  0  0  0  0  0  0  0
    0.6710   -0.6560   -0.3330 N   0  0  0  0  0  0  0  0  0  0  0  0
    2.0580   -0.5030   -0.4160 C   0  0  0  0  0  0  0  0  0  0  0  0
    2.8100    0.2010    0.4600 C   0  0  0  0  0  0  0  0  0  0  0  0
    4.1580    0.3020    0.3080 N   0  0  0  0  0  0  0  0  0  0  0  0
    4.7760   -0.3010   -0.7250 C   0  0  0  0  0  0  0  0  0  0  0  0
    6.2210   -0.1230   -0.7840 C   0  0  0  0  0  0  0  0  0  0  0  0
    6.9220    0.6120    0.1500 C   0  0  0  0  0  0  0  0  0  0  0  0
    8.2810    0.7610    0.0670 C   0  0  0  0  0  0  0  0  0  0  0  0
    8.9740    0.2040   -0.9150 N   0  0  0  0  0  0  0  0  0  0  0  0
    8.3550   -0.5170   -1.8470 C   0  0  0  0  0  0  0  0  0  0  0  0
    6.9590   -0.6900   -1.7900 C   0  0  0  0  0  0  0  0  0  0  0  0
    4.0730   -0.9980   -1.6020 N   0  0  0  0  0  0  0  0  0  0  0  0
    2.7250   -1.1160   -1.4760 C   0  0  0  0  0  0  0  0  0  0  0  0
    2.1040   -1.7910   -2.3380 O   0  0  0  0  0  0  0  0  0  0  0  0
  1  2  2  0
  2  3  1  0
  2 15  1  0
  3  4  1  0
  5  4  1  1
  5  6  1  0
  5 14  1  0
  6  7  1  0
  7  8  1  0
  8  9  2  0
  8 13  1  0
  9 10  1  0
 10 11  2  0
 11 12  1  0
 12 13  2  0
 13 14  1  0
 15 16  1  0
 16 17  2  0
 16 27  1  0
 17 18  1  0
 18 19  2  0
 19 20  1  0
 19 26  1  0
 20 21  2  0
 20 25  1  0
 21 22  1  0
 22 23  2  0
 23 24  1  0
 24 25  2  0
 26 27  1  0
 27 28  2  0
M  CHG  1  23   1
M  END
