
     RDKit          3D

 42 43  0  0  0  0  0  0  0  0999 V2000
   -5.3840    5.6040    0.4290 C   0  0  0  0  0  0  0  0  0  0  0  0
   -4.6430    4.7060    1.0620 C   0  0  0  0  0  0  0  0  0  0  0  0
   -3.9390    5.1640    2.1790 O   0  0  0  0  0  0  0  0  0  0  0  0
   -4.5810    3.3100    0.5980 C   0  0  1  0  0  0  0  0  0  0  0  0
   -5.3790    3.1720   -0.5170 O   0  0  0  0  0  0  0  0  0  0  0  0
   -3.1330    2.9180    0.2840 C   0  0  0  0  0  0  0  0  0  0  0  0
   -3.1500    1.4560   -0.1930 C   0  0  1  0  0  0  0  0  0  0  0  0
   -3.9660    1.4690   -1.3280 O   0  0  0  0  0  0  0  0  0  0  0  0
   -1.7660    1.1210   -0.6260 C   0  0  0  0  0  0  0  0  0  0  0  0
   -0.7470    1.9060    0.0420 N   0  0  0  0  0  0  0  0  0  0  0  0
    0.2400    2.6840   -0.5990 C   0  0  0  0  0  0  0  0  0  0  0  0
    0.5080    3.8280   -0.0860 O   0  0  0  0  0  0  0  0  0  0  0  0
    0.9590    2.2890   -1.7710 N   0  0  0  0  0  0  0  0  0  0  0  0
    1.6140    1.0340   -1.9200 C   0  0  0  0  0  0  0  0  0  0  0  0
    1.4240    0.4020   -2.9910 O   0  0  0  0  0  0  0  0  0  0  0  0
    2.5080    0.4050   -0.9160 C   0  0  2  0  0  0  0  0  0  0  0  0
    4.2060    0.7130   -1.5400 S   0  0  0  0  0  0  0  0  0  0  0  0
    5.4230   -0.2960   -0.6610 C   0  0  1  0  0  0  0  0  0  0  0  0
    6.1270    0.4510    0.4040 C   0  0  0  0  0  0  0  0  0  0  0  0
    6.0850    0.1270    1.6060 O   0  0  0  0  0  0  0  0  0  0  0  0
    6.8580    1.5610    0.0090 O   0  0  0  0  0  0  0  0  0  0  0  0
    7.5840    2.3820    0.8740 C   0  0  0  0  0  0  0  0  0  0  0  0
    8.6760    1.6600    1.6260 C   0  0  0  0  0  0  0  0  0  0  0  0
    9.3660    2.5170    2.4670 O   0  0  0  0  0  0  0  0  0  0  0  0
    4.6930   -1.5140   -0.1360 C   0  0  0  0  0  0  0  0  0  0  0  0
    3.5740   -1.8040   -1.1130 C   0  0  1  0  0  0  0  0  0  0  0  0
    3.4060   -3.1600   -1.2100 O   0  0  0  0  0  0  0  0  0  0  0  0
    2.3100   -1.0620   -0.7570 C   0  0  1  0  0  0  0  0  0  0  0  0
    1.8180   -1.4010    0.6320 C   0  0  0  0  0  0  0  0  0  0  0  0
    1.7140   -2.8620    0.8670 C   0  0  0  0  0  0  0  0  0  0  0  0
    2.7430   -3.4790    1.3120 O   0  0  0  0  0  0  0  0  0  0  0  0
    0.5020   -3.5920    0.6100 N   0  0  0  0  0  0  0  0  0  0  0  0
   -0.7170   -3.1340    0.9390 O   0  0  0  0  0  0  0  0  0  0  0  0
   -1.6390   -3.1920   -0.1100 C   0  0  0  0  0  0  0  0  0  0  0  0
   -2.8900   -3.0010    0.4700 O   0  0  0  0  0  0  0  0  0  0  0  0
   -3.9000   -2.7620   -0.4280 C   0  0  1  0  0  0  0  0  0  0  0  0
   -5.0810   -3.6310   -0.0440 C   0  0  0  0  0  0  0  0  0  0  0  0
   -4.7090   -5.0970   -0.0800 C   0  0  0  0  0  0  0  0  0  0  0  0
   -3.6590   -5.2820    0.8390 O   0  0  0  0  0  0  0  0  0  0  0  0
   -4.3030   -1.3070   -0.2980 C   0  0  0  0  0  0  0  0  0  0  0  0
   -3.5250   -0.6220    0.8110 C   0  0  0  0  0  0  0  0  0  0  0  0
   -3.6590    0.7320    0.8370 O   0  0  0  0  0  0  0  0  0  0  0  0
  1  2  2  0
  2  3  1  0
  2  4  1  0
  4  5  1  6
  4  6  1  0
  6  7  1  0
  7  8  1  6
  7  9  1  0
  7 42  1  0
  9 10  1  0
 10 11  1  0
 11 12  2  0
 11 13  1  0
 13 14  1  0
 14 15  2  0
 14 16  1  0
 16 17  1  6
 16 28  1  0
 17 18  1  0
 18 19  1  1
 18 25  1  0
 19 20  2  0
 19 21  1  0
 21 22  1  0
 22 23  1  0
 23 24  1  0
 25 26  1  0
 26 27  1  1
 26 28  1  0
 28 29  1  1
 29 30  1  0
 30 31  2  0
 30 32  1  0
 32 33  1  0
 33 34  1  0
 34 35  1  0
 35 36  1  0
 36 37  1  1
 36 40  1  0
 37 38  1  0
 38 39  1  0
 40 41  1  0
 41 42  1  0
M  END
