
     RDKit          3D

 42 45  0  0  0  0  0  0  0  0999 V2000
    6.3660    0.8360    0.4250 C   0  0  0  0  0  0  0  0  0  0  0  0
    6.1900   -0.5800    0.7660 C   0  0  0  0  0  0  0  0  0  0  0  0
    5.2110   -1.2450    1.2700 C   0  0  0  0  0  0  0  0  0  0  0  0
    3.8870   -0.8880    1.7030 C   0  0  0  0  0  0  0  0  0  0  0  0
    3.1420   -1.8770    2.2200 C   0  0  0  0  0  0  0  0  0  0  0  0
    1.7810   -1.7920    2.7380 C   0  0  2  0  0  0  0  0  0  0  0  0
    1.8580   -1.5370    4.1100 F   0  0  0  0  0  0  0  0  0  0  0  0
    1.1310   -3.0220    2.5490 F   0  0  0  0  0  0  0  0  0  0  0  0
    3.2930    0.4420    1.5600 C   0  0  0  0  0  0  0  0  0  0  0  0
    3.2940    1.1640   -0.0300 S   0  0  0  0  0  0  0  0  0  0  0  0
    2.4570    0.4880   -1.3770 C   0  0  0  0  0  0  0  0  0  0  0  0
    0.9740    0.4400   -1.4340 C   0  0  1  0  0  0  0  0  0  0  0  0
    0.4100   -0.4890   -0.4110 C   0  0  0  0  0  0  0  0  0  0  0  0
    0.9080   -1.6500   -0.2680 O   0  0  0  0  0  0  0  0  0  0  0  0
   -0.6510    0.0780    0.2830 N   0  0  0  0  0  0  0  0  0  0  0  0
   -1.5440   -0.5570    1.2360 C   0  0  0  0  0  0  0  0  0  0  0  0
   -2.7330   -1.1250    0.5380 C   0  0  0  0  0  0  0  0  0  0  0  0
   -2.8820   -1.0180   -0.8180 C   0  0  0  0  0  0  0  0  0  0  0  0
   -3.9990   -1.5570   -1.4650 C   0  0  0  0  0  0  0  0  0  0  0  0
   -4.1890   -1.4590   -2.9330 C   0  0  0  0  0  0  0  0  0  0  0  0
   -4.9550   -2.1990   -0.7300 C   0  0  0  0  0  0  0  0  0  0  0  0
   -6.0500   -2.7340   -1.3230 F   0  0  0  0  0  0  0  0  0  0  0  0
   -4.7960   -2.3020    0.6330 C   0  0  0  0  0  0  0  0  0  0  0  0
   -3.6890   -1.7690    1.2870 C   0  0  0  0  0  0  0  0  0  0  0  0
   -3.5170   -1.8650    2.6590 O   0  0  0  0  0  0  0  0  0  0  0  0
   -4.4730   -2.5210    3.4130 C   0  0  0  0  0  0  0  0  0  0  0  0
   -4.3790   -3.8930    3.6590 C   0  0  0  0  0  0  0  0  0  0  0  0
   -5.3260   -4.5530    4.4080 C   0  0  0  0  0  0  0  0  0  0  0  0
   -6.3590   -3.8610    4.9110 N   0  0  0  0  0  0  0  0  0  0  0  0
   -6.5130   -2.5360    4.7130 C   0  0  0  0  0  0  0  0  0  0  0  0
   -5.5600   -1.8770    3.9600 C   0  0  0  0  0  0  0  0  0  0  0  0
   -0.7600    1.4310   -0.1040 C   0  0  0  0  0  0  0  0  0  0  0  0
   -1.6110    2.2420    0.3250 O   0  0  0  0  0  0  0  0  0  0  0  0
    0.3050    1.7310   -1.1100 C   0  0  0  0  0  0  0  0  0  0  0  0
    0.4840    2.9420   -1.5290 C   0  0  0  0  0  0  0  0  0  0  0  0
    1.4440    3.4420   -2.4920 C   0  0  0  0  0  0  0  0  0  0  0  0
    1.1220    4.3000   -3.5700 C   0  0  0  0  0  0  0  0  0  0  0  0
    2.2740    4.5540   -4.2400 C   0  0  0  0  0  0  0  0  0  0  0  0
    2.4520    5.4100   -5.4510 C   0  0  0  0  0  0  0  0  0  0  0  0
    2.7350    6.7220   -5.0200 O   0  0  0  0  0  0  0  0  0  0  0  0
    3.2750    3.8630   -3.5800 C   0  0  0  0  0  0  0  0  0  0  0  0
    2.7050    3.2490   -2.5840 O   0  0  0  0  0  0  0  0  0  0  0  0
  1  2  1  0
  2  3  2  3
  3  4  1  0
  4  5  2  3
  4  9  1  0
  5  6  1  0
  6  7  1  1
  6  8  1  0
  9 10  1  0
 10 11  1  0
 12 11  1  1
 12 13  1  0
 12 34  1  0
 13 14  2  0
 13 15  1  0
 15 16  1  0
 15 32  1  0
 16 17  1  0
 17 18  2  0
 17 24  1  0
 18 19  1  0
 19 20  1  0
 19 21  2  0
 21 22  1  0
 21 23  1  0
 23 24  2  0
 24 25  1  0
 25 26  1  0
 26 27  2  0
 26 31  1  0
 27 28  1  0
 28 29  2  0
 29 30  1  0
 30 31  2  0
 32 33  2  0
 32 34  1  0
 34 35  2  3
 35 36  1  0
 36 37  2  0
 36 42  1  0
 37 38  1  0
 38 39  1  0
 38 41  2  0
 39 40  1  0
 41 42  1  0
M  END
