
     RDKit          3D

 41 44  0  0  0  0  0  0  0  0999 V2000
  -10.8150   -0.2730   -0.3330 C   0  0  0  0  0  0  0  0  0  0  0  0
   -9.9040   -1.4300   -0.6470 C   0  0  0  0  0  0  0  0  0  0  0  0
  -10.3870   -2.6070   -1.1550 C   0  0  0  0  0  0  0  0  0  0  0  0
   -9.5110   -3.6430   -1.4100 C   0  0  0  0  0  0  0  0  0  0  0  0
   -9.9830   -4.8200   -1.9200 F   0  0  0  0  0  0  0  0  0  0  0  0
   -8.1680   -3.4900   -1.1520 C   0  0  0  0  0  0  0  0  0  0  0  0
   -7.6800   -2.3000   -0.6400 C   0  0  0  0  0  0  0  0  0  0  0  0
   -6.3030   -2.1830   -0.3460 N   0  0  0  0  0  0  0  0  0  0  0  0
   -5.5870   -0.9690   -0.4590 C   0  0  0  0  0  0  0  0  0  0  0  0
   -6.1770    0.0580   -0.8520 O   0  0  0  0  0  0  0  0  0  0  0  0
   -4.1690   -0.9260   -0.1180 C   0  0  0  0  0  0  0  0  0  0  0  0
   -3.4440    0.3240   -0.5150 C   0  0  2  0  0  0  0  0  0  0  0  0
   -3.4620    0.5340   -2.0190 C   0  0  0  0  0  0  0  0  0  0  0  0
   -2.1390    0.3400    0.0200 O   0  0  0  0  0  0  0  0  0  0  0  0
   -1.6930    1.3800    0.8670 C   0  0  0  0  0  0  0  0  0  0  0  0
   -2.5090    2.2840    1.1040 O   0  0  0  0  0  0  0  0  0  0  0  0
   -0.3020    1.3370    1.4170 C   0  0  2  0  0  0  0  0  0  0  0  0
   -0.3050    0.0650    2.3100 C   0  0  0  0  0  0  0  0  0  0  0  0
    0.0160    2.4530    2.1680 O   0  0  0  0  0  0  0  0  0  0  0  0
    1.3110    2.9410    2.2340 C   0  0  0  0  0  0  0  0  0  0  0  0
    1.5550    4.1210    2.9530 C   0  0  0  0  0  0  0  0  0  0  0  0
    2.8200    4.6410    3.0510 C   0  0  0  0  0  0  0  0  0  0  0  0
    3.0440    5.7710    3.7300 F   0  0  0  0  0  0  0  0  0  0  0  0
    3.9230    4.0310    2.4450 C   0  0  0  0  0  0  0  0  0  0  0  0
    5.2750    4.6310    2.5790 C   0  0  0  0  0  0  0  0  0  0  0  0
    3.7000    2.8820    1.7440 C   0  0  0  0  0  0  0  0  0  0  0  0
    4.7700    2.2380    1.1280 O   0  0  0  0  0  0  0  0  0  0  0  0
    4.6120    1.0680    0.3980 C   0  0  0  0  0  0  0  0  0  0  0  0
    5.9650    0.6190   -0.1190 C   0  0  0  0  0  0  0  0  0  0  0  0
    7.0430    1.3130    0.1450 C   0  0  0  0  0  0  0  0  0  0  0  0
    8.4110    0.4670   -0.6320 S   0  0  0  0  0  0  0  0  0  0  0  0
    7.4250   -0.9060   -1.2300 C   0  0  0  0  0  0  0  0  0  0  0  0
    7.7490   -2.0180   -1.8760 C   0  0  0  0  0  0  0  0  0  0  0  0
    9.1880   -2.2230   -2.1980 C   0  0  0  0  0  0  0  0  0  0  0  0
    9.9630   -1.1750   -1.7500 F   0  0  0  0  0  0  0  0  0  0  0  0
    6.7510   -3.0230   -2.2480 C   0  0  0  0  0  0  0  0  0  0  0  0
    5.5890   -2.9060   -1.2800 C   0  0  0  0  0  0  0  0  0  0  0  0
    5.0640   -1.5110   -1.2810 C   0  0  0  0  0  0  0  0  0  0  0  0
    6.1170   -0.5600   -0.8450 N   0  0  0  0  0  0  0  0  0  0  0  0
    2.4090    2.3670    1.6550 C   0  0  0  0  0  0  0  0  0  0  0  0
   -8.5750   -1.2820   -0.3950 C   0  0  0  0  0  0  0  0  0  0  0  0
  1  2  1  0
  2  3  2  0
  2 41  1  0
  3  4  1  0
  4  5  1  0
  4  6  2  0
  6  7  1  0
  7  8  1  0
  7 41  2  0
  8  9  1  0
  9 10  2  0
  9 11  1  0
 11 12  1  0
 12 13  1  6
 12 14  1  0
 14 15  1  0
 15 16  2  0
 15 17  1  0
 17 18  1  1
 17 19  1  0
 19 20  1  0
 20 21  2  0
 20 40  1  0
 21 22  1  0
 22 23  1  0
 22 24  2  0
 24 25  1  0
 24 26  1  0
 26 27  1  0
 26 40  2  0
 27 28  1  0
 28 29  1  0
 29 30  2  0
 29 39  1  0
 30 31  1  0
 31 32  1  0
 32 33  2  0
 32 39  1  0
 33 34  1  0
 33 36  1  0
 34 35  1  0
 36 37  1  0
 37 38  1  0
 38 39  1  0
M  END
