
     RDKit          3D

 11 11  0  0  0  0  0  0  0  0999 V2000
    0.5770    0.7300    1.4370 N   0  0  0  0  0  0  0  0  0  0  0  0
    0.5540    0.3160    0.0610 C   0  0  2  0  0  0  0  0  0  0  0  0
    1.9790    0.0860   -0.4130 C   0  0  0  0  0  0  0  0  0  0  0  0
    2.5350   -0.9070    0.3850 O   0  0  0  0  0  0  0  0  0  0  0  0
   -0.1530    1.3210   -0.8360 C   0  0  0  0  0  0  0  0  0  0  0  0
   -1.5660    1.4360   -0.3850 C   0  0  0  0  0  0  0  0  0  0  0  0
   -2.2490    0.3080   -0.1700 O   0  0  0  0  0  0  0  0  0  0  0  0
   -1.6590   -0.8590    0.0520 C   0  0  2  0  0  0  0  0  0  0  0  0
   -1.9730   -1.2980    1.3610 O   0  0  0  0  0  0  0  0  0  0  0  0
   -0.1910   -0.9740   -0.1130 C   0  0  1  0  0  0  0  0  0  0  0  0
    0.1390   -1.4630   -1.3950 O   0  0  0  0  0  0  0  0  0  0  0  0
  2  1  1  1
  2  3  1  0
  2  5  1  0
  2 10  1  0
  3  4  1  0
  5  6  1  0
  6  7  1  0
  7  8  1  0
  8  9  1  1
  8 10  1  0
 10 11  1  6
M  CHG  1   1   1
M  END
