
     RDKit          3D

 11 11  0  0  0  0  0  0  0  0999 V2000
    1.9300    0.8830   -0.2840 N   0  0  0  0  0  0  0  0  0  0  0  0
    0.9940    0.2490    0.6230 C   0  0  2  0  0  0  0  0  0  0  0  0
    1.4810   -1.1840    0.8100 C   0  0  0  0  0  0  0  0  0  0  0  0
    1.0380   -1.9050   -0.2630 O   0  0  0  0  0  0  0  0  0  0  0  0
    0.1060   -1.1820   -0.9620 C   0  0  0  0  0  0  0  0  0  0  0  0
   -0.2910    0.0050   -0.1130 C   0  0  2  0  0  0  0  0  0  0  0  0
   -0.7160    1.1920   -0.9230 C   0  0  0  0  0  0  0  0  0  0  0  0
   -0.8850    2.2600   -0.0230 O   0  0  0  0  0  0  0  0  0  0  0  0
   -1.4240   -0.3990    0.7950 C   0  0  1  0  0  0  0  0  0  0  0  0
   -2.5480   -0.5890   -0.0270 O   0  0  0  0  0  0  0  0  0  0  0  0
   -1.2020   -1.5720    1.4690 O   0  0  0  0  0  0  0  0  0  0  0  0
  2  1  1  6
  2  3  1  0
  2  6  1  0
  3  4  1  0
  4  5  1  0
  5  6  1  0
  6  7  1  6
  6  9  1  0
  7  8  1  0
  9 10  1  6
  9 11  1  0
M  CHG  1   1   1
M  END
