
     RDKit          3D

 11 11  0  0  0  0  0  0  0  0999 V2000
   -0.1340    2.0770    0.1390 N   0  0  0  0  0  0  0  0  0  0  0  0
   -0.1000    0.7080   -0.3990 C   0  0  2  0  0  0  0  0  0  0  0  0
   -1.5010    0.2350   -0.5000 C   0  0  2  0  0  0  0  0  0  0  0  0
   -2.3190    0.9420    0.4010 O   0  0  0  0  0  0  0  0  0  0  0  0
   -1.7020   -1.2230   -0.2920 C   0  0  0  0  0  0  0  0  0  0  0  0
   -0.3280   -1.8960   -0.4330 C   0  0  0  0  0  0  0  0  0  0  0  0
    0.4230   -1.4120    0.6330 O   0  0  0  0  0  0  0  0  0  0  0  0
    0.8100   -0.0970    0.4390 C   0  0  2  0  0  0  0  0  0  0  0  0
    0.9410    0.4810    1.7070 O   0  0  0  0  0  0  0  0  0  0  0  0
    2.1870   -0.1610   -0.2370 C   0  0  0  0  0  0  0  0  0  0  0  0
    3.0330   -0.8410    0.6350 O   0  0  0  0  0  0  0  0  0  0  0  0
  2  1  1  1
  2  3  1  0
  2  8  1  0
  3  4  1  1
  3  5  1  0
  5  6  1  0
  6  7  1  0
  7  8  1  0
  8  9  1  1
  8 10  1  0
 10 11  1  0
M  CHG  1   1   1
M  END
