
     RDKit          3D

 33 34  0  0  0  0  0  0  0  0999 V2000
   -5.1210   -1.9570   -3.2580 C   0  0  0  0  0  0  0  0  0  0  0  0
   -3.9690   -1.9930   -2.2750 C   0  0  2  0  0  0  0  0  0  0  0  0
   -4.3350   -2.6710   -1.0030 C   0  0  0  0  0  0  0  0  0  0  0  0
   -3.4360   -0.5610   -2.0440 C   0  0  2  0  0  0  0  0  0  0  0  0
   -2.3040   -0.6810   -1.0800 C   0  0  0  0  0  0  0  0  0  0  0  0
   -2.4040    0.3750   -0.0270 N   0  0  0  0  0  0  0  0  0  0  0  0
   -2.5970   -0.1280    1.2430 C   0  0  0  0  0  0  0  0  0  0  0  0
   -2.4250   -1.4700    1.2450 O   0  0  0  0  0  0  0  0  0  0  0  0
   -2.9180    0.3260    2.5090 N   0  0  0  0  0  0  0  0  0  0  0  0
   -3.2770    1.5990    3.0490 C   0  0  0  0  0  0  0  0  0  0  0  0
   -2.8830   -0.7300    3.5950 C   0  0  0  0  0  0  0  0  0  0  0  0
   -2.2750    1.7560   -0.4210 C   0  0  2  0  0  0  0  0  0  0  0  0
   -2.0500    1.9530   -1.9200 C   0  0  0  0  0  0  0  0  0  0  0  0
   -1.3450    2.5750    0.3730 C   0  0  0  0  0  0  0  0  0  0  0  0
    0.0440    2.0560    0.4270 C   0  0  0  0  0  0  0  0  0  0  0  0
    0.7380    2.0140   -0.8040 N   0  0  0  0  0  0  0  0  0  0  0  0
    2.0280    1.3780   -0.9340 C   0  0  0  0  0  0  0  0  0  0  0  0
    2.6930    1.3420   -2.1350 C   0  0  0  0  0  0  0  0  0  0  0  0
    3.9200    0.7450   -2.2840 C   0  0  0  0  0  0  0  0  0  0  0  0
    4.5230    0.1430   -1.1640 C   0  0  0  0  0  0  0  0  0  0  0  0
    5.7890   -0.4720   -1.3250 N   0  0  0  0  0  0  0  0  0  0  0  0
    6.4790   -1.0860   -0.3310 N   0  0  0  0  0  0  0  0  0  0  0  0
    5.7740   -1.1880    0.8970 C   0  0  0  0  0  0  0  0  0  0  0  0
    6.6860   -1.9170    1.8950 C   0  0  0  0  0  0  0  0  0  0  0  0
    8.2290   -0.8990    2.0810 P   0  0  0  0  0  0  0  0  0  0  0  0
    9.6060   -1.8900    2.4540 O   0  0  0  0  0  0  0  0  0  0  0  0
    8.0530    0.2570    3.3660 O   0  0  0  0  0  0  0  0  0  0  0  0
    3.8310    0.2100   -0.0300 N   0  0  0  0  0  0  0  0  0  0  0  0
    2.6520    0.7880    0.1010 N   0  0  0  0  0  0  0  0  0  0  0  0
   -3.6790    2.2070   -0.2880 O   0  0  0  0  0  0  0  0  0  0  0  0
   -4.6690    1.4630   -0.9520 C   0  0  0  0  0  0  0  0  0  0  0  0
   -5.8220    1.9750   -0.8990 O   0  0  0  0  0  0  0  0  0  0  0  0
   -4.5430    0.2420   -1.6560 N   0  0  0  0  0  0  0  0  0  0  0  0
  2  1  1  6
  2  3  1  0
  2  4  1  0
  4  5  1  1
  4 33  1  0
  5  6  1  0
  6  7  1  0
  6 12  1  0
  7  8  2  0
  7  9  1  0
  9 10  1  0
  9 11  1  0
 12 13  1  6
 12 14  1  0
 12 30  1  0
 14 15  1  0
 15 16  1  0
 16 17  1  0
 17 18  2  0
 17 29  1  0
 18 19  1  0
 19 20  2  0
 20 21  1  0
 20 28  1  0
 21 22  1  0
 22 23  1  0
 23 24  1  0
 24 25  1  0
 25 26  1  0
 25 27  1  0
 28 29  2  0
 30 31  1  0
 31 32  2  0
 31 33  1  0
M  END
