
     RDKit          3D

 33 34  0  0  0  0  0  0  0  0999 V2000
   -0.2250   -0.8990    1.0920 N   0  0  0  0  0  0  0  0  0  0  0  0
    0.1170   -1.1720   -0.1100 C   0  0  0  0  0  0  0  0  0  0  0  0
   -0.4080   -0.3560   -1.1470 N   0  0  0  0  0  0  0  0  0  0  0  0
   -1.7770   -0.0640   -1.4170 C   0  0  2  0  0  0  0  0  0  0  0  0
   -2.0540    1.4130   -1.1450 C   0  0  0  0  0  0  0  0  0  0  0  0
   -3.4790    1.7670   -1.5480 C   0  0  0  0  0  0  0  0  0  0  0  0
   -3.8550    3.5190   -1.1860 P   0  0  0  0  0  0  0  0  0  0  0  0
   -2.3440    4.3890   -0.9870 O   0  0  0  0  0  0  0  0  0  0  0  0
   -4.6590    4.2100   -2.5660 O   0  0  0  0  0  0  0  0  0  0  0  0
   -2.6850   -0.9450   -0.7280 N   0  0  0  0  0  0  0  0  0  0  0  0
   -3.4370   -0.6830    0.4280 C   0  0  0  0  0  0  0  0  0  0  0  0
   -3.3270    0.4550    1.0190 O   0  0  0  0  0  0  0  0  0  0  0  0
   -4.3500   -1.6740    0.9740 C   0  0  0  0  0  0  0  0  0  0  0  0
   -5.4150   -2.1540    0.2410 C   0  0  0  0  0  0  0  0  0  0  0  0
   -6.2900   -3.0670    0.6830 N   0  0  0  0  0  0  0  0  0  0  0  0
   -6.1490   -3.5930    1.9560 C   0  0  0  0  0  0  0  0  0  0  0  0
   -6.9560   -4.4360    2.3610 O   0  0  0  0  0  0  0  0  0  0  0  0
   -5.1200   -3.1280    2.6600 N   0  0  0  0  0  0  0  0  0  0  0  0
   -4.2260   -2.2110    2.2450 C   0  0  0  0  0  0  0  0  0  0  0  0
    0.9940   -2.2610   -0.3270 N   0  0  0  0  0  0  0  0  0  0  0  0
    0.4860   -3.5610   -0.6150 C   0  0  0  0  0  0  0  0  0  0  0  0
    1.3260   -4.5520   -0.7660 N   0  0  0  0  0  0  0  0  0  0  0  0
    2.6910   -4.3830   -0.6590 N   0  0  0  0  0  0  0  0  0  0  0  0
    3.2950   -3.2530   -0.4010 C   0  0  0  0  0  0  0  0  0  0  0  0
    2.3960   -2.0920   -0.2200 C   0  0  0  0  0  0  0  0  0  0  0  0
    2.8890   -0.9160   -0.0270 C   0  0  0  0  0  0  0  0  0  0  0  0
    4.3090   -0.6920    0.0940 C   0  0  0  0  0  0  0  0  0  0  0  0
    4.7980    0.5380    0.3090 C   0  0  0  0  0  0  0  0  0  0  0  0
    6.2450    0.7350    0.4270 C   0  0  0  0  0  0  0  0  0  0  0  0
    6.7700    1.9140    0.6490 C   0  0  0  0  0  0  0  0  0  0  0  0
    6.0650    3.1580    0.8050 C   0  0  0  0  0  0  0  0  0  0  0  0
    6.6760    4.3220    1.0210 C   0  0  0  0  0  0  0  0  0  0  0  0
    5.8400    5.4300    1.1490 O   0  0  0  0  0  0  0  0  0  0  0  0
  1  2  2  0
  2  3  1  0
  2 20  1  0
  3  4  1  0
  4  5  1  1
  4 10  1  0
  5  6  1  0
  6  7  1  0
  7  8  1  0
  7  9  1  0
 10 11  1  0
 11 12  2  0
 11 13  1  0
 13 14  1  0
 13 19  2  0
 14 15  2  0
 15 16  1  0
 16 17  2  0
 16 18  1  0
 18 19  1  0
 20 21  1  0
 20 25  1  0
 21 22  2  0
 22 23  1  0
 23 24  2  0
 24 25  1  0
 25 26  2  3
 26 27  1  0
 27 28  2  3
 28 29  1  0
 29 30  2  3
 30 31  1  0
 31 32  2  3
 32 33  1  0
M  END
