
     RDKit          3D

 33 33  0  0  0  0  0  0  0  0999 V2000
    4.1900    0.6750    1.3170 C   0  0  0  0  0  0  0  0  0  0  0  0
    4.2010    1.5950    0.4530 C   0  0  0  0  0  0  0  0  0  0  0  0
    4.1450    2.5360   -0.5740 C   0  0  0  0  0  0  0  0  0  0  0  0
    4.7670    3.8140   -0.5970 C   0  0  0  0  0  0  0  0  0  0  0  0
    5.7890    4.3300    0.7850 P   0  0  0  0  0  0  0  0  0  0  0  0
    7.0270    3.1920    1.1350 O   0  0  0  0  0  0  0  0  0  0  0  0
    4.9650    5.0060    2.0940 O   0  0  0  0  0  0  0  0  0  0  0  0
    2.5990    0.8840   -0.1700 C   0  0  0  0  0  0  0  0  0  0  0  0
    2.3300    1.6960   -1.0640 O   0  0  0  0  0  0  0  0  0  0  0  0
    2.1610   -0.1840    0.3580 N   0  0  0  0  0  0  0  0  0  0  0  0
    0.9470   -0.8620   -0.2070 C   0  0  1  0  0  0  0  0  0  0  0  0
   -0.0190    0.1380   -0.7620 C   0  0  0  0  0  0  0  0  0  0  0  0
   -0.7820    0.8950    0.2800 C   0  0  0  0  0  0  0  0  0  0  0  0
   -2.0140    0.2520    0.7400 N   0  0  0  0  0  0  0  0  0  0  0  0
   -3.2470    0.7520    0.2520 C   0  0  0  0  0  0  0  0  0  0  0  0
   -4.1970    0.8290    1.2620 C   0  0  0  0  0  0  0  0  0  0  0  0
   -3.8790    0.3590    2.5210 N   0  0  0  0  0  0  0  0  0  0  0  0
   -4.7370    0.7050    3.4840 N   0  0  0  0  0  0  0  0  0  0  0  0
   -5.8100    1.4850    3.1850 N   0  0  0  0  0  0  0  0  0  0  0  0
   -6.2000    1.9650    2.0970 C   0  0  0  0  0  0  0  0  0  0  0  0
   -7.3530    2.7430    1.7420 C   0  0  0  0  0  0  0  0  0  0  0  0
   -5.3000    1.6320    0.9370 N   0  0  0  0  0  0  0  0  0  0  0  0
   -3.6490    0.8530   -1.0950 N   0  0  0  0  0  0  0  0  0  0  0  0
   -4.6850   -0.1610   -1.4270 C   0  0  0  0  0  0  0  0  0  0  0  0
   -3.0510    1.6600   -2.0420 C   0  0  0  0  0  0  0  0  0  0  0  0
   -3.3210    1.5590   -3.2920 O   0  0  0  0  0  0  0  0  0  0  0  0
    1.2390   -2.0370   -0.9340 N   0  0  0  0  0  0  0  0  0  0  0  0
    0.2010   -2.8620   -1.2940 C   0  0  0  0  0  0  0  0  0  0  0  0
   -0.5130   -3.6050   -0.1590 C   0  0  0  0  0  0  0  0  0  0  0  0
    2.5640   -2.2570   -1.2410 C   0  0  0  0  0  0  0  0  0  0  0  0
    2.9870   -3.6350   -1.7520 C   0  0  0  0  0  0  0  0  0  0  0  0
    2.8200   -4.6830   -0.6510 C   0  0  0  0  0  0  0  0  0  0  0  0
    3.6100   -4.4190    0.4430 O   0  0  0  0  0  0  0  0  0  0  0  0
  1  2  2  0
  2  3  1  0
  2  8  1  0
  3  4  2  3
  4  5  1  0
  5  6  1  0
  5  7  1  0
  8  9  2  0
  8 10  1  0
 10 11  1  0
 11 12  1  6
 11 27  1  0
 12 13  1  0
 13 14  1  0
 14 15  1  0
 15 16  2  3
 15 23  1  0
 16 17  1  0
 16 22  1  0
 17 18  2  0
 18 19  1  0
 19 20  2  0
 20 21  1  0
 20 22  1  0
 23 24  1  0
 23 25  1  0
 25 26  2  0
 27 28  1  0
 27 30  1  0
 28 29  1  0
 30 31  1  0
 31 32  1  0
 32 33  1  0
M  END
