
     RDKit          3D

 33 34  0  0  0  0  0  0  0  0999 V2000
    7.8640    0.5120    0.8120 C   0  0  0  0  0  0  0  0  0  0  0  0
    7.0430   -0.7130    1.1550 C   0  0  2  0  0  0  0  0  0  0  0  0
    7.9670   -1.7930    1.4680 N   0  0  0  0  0  0  0  0  0  0  0  0
    6.1140   -1.1090    0.0450 C   0  0  0  0  0  0  0  0  0  0  0  0
    5.1780    0.0060   -0.2370 C   0  0  0  0  0  0  0  0  0  0  0  0
    5.2560    1.0880    0.4280 O   0  0  0  0  0  0  0  0  0  0  0  0
    4.1740   -0.0810   -1.2370 N   0  0  0  0  0  0  0  0  0  0  0  0
    3.2980    1.0480   -1.4540 C   0  0  0  0  0  0  0  0  0  0  0  0
    2.2840    1.1450   -0.4000 C   0  0  0  0  0  0  0  0  0  0  0  0
    2.5280    1.8420    0.7120 N   0  0  0  0  0  0  0  0  0  0  0  0
    1.7090    2.0060    1.7280 N   0  0  0  0  0  0  0  0  0  0  0  0
    0.4970    1.3920    1.6030 C   0  0  0  0  0  0  0  0  0  0  0  0
    0.1900    0.6820    0.5150 C   0  0  0  0  0  0  0  0  0  0  0  0
   -1.1350    0.0390    0.2870 C   0  0  0  0  0  0  0  0  0  0  0  0
   -1.0690   -1.1730    0.0020 N   0  0  0  0  0  0  0  0  0  0  0  0
   -2.0600   -2.1230   -0.2630 C   0  0  0  0  0  0  0  0  0  0  0  0
   -2.4430   -3.0100    0.7540 C   0  0  0  0  0  0  0  0  0  0  0  0
   -3.4220   -3.9520    0.5560 C   0  0  0  0  0  0  0  0  0  0  0  0
   -4.0750   -4.0700   -0.6520 C   0  0  0  0  0  0  0  0  0  0  0  0
   -5.3620   -5.3450   -0.8360 P   0  0  0  0  0  0  0  0  0  0  0  0
   -4.8520   -6.8750   -0.2300 O   0  0  0  0  0  0  0  0  0  0  0  0
   -5.9930   -5.4150   -2.4260 O   0  0  0  0  0  0  0  0  0  0  0  0
   -3.7020   -3.2060   -1.6440 C   0  0  0  0  0  0  0  0  0  0  0  0
   -2.7080   -2.2350   -1.4730 C   0  0  0  0  0  0  0  0  0  0  0  0
   -2.3390    0.6070   -0.1070 N   0  0  0  0  0  0  0  0  0  0  0  0
   -3.1220    1.6080    0.4490 C   0  0  0  0  0  0  0  0  0  0  0  0
   -2.6760    1.9390    1.5720 O   0  0  0  0  0  0  0  0  0  0  0  0
   -4.2470    2.1230   -0.2040 N   0  0  0  0  0  0  0  0  0  0  0  0
   -5.0050    3.1250    0.4790 C   0  0  0  0  0  0  0  0  0  0  0  0
   -4.1710    4.3490    0.7280 C   0  0  0  0  0  0  0  0  0  0  0  0
   -3.7190    4.8650   -0.6360 C   0  0  0  0  0  0  0  0  0  0  0  0
   -2.9400    6.0080   -0.4150 O   0  0  0  0  0  0  0  0  0  0  0  0
    1.0730    0.5490   -0.4930 N   0  0  0  0  0  0  0  0  0  0  0  0
  2  1  1  6
  2  3  1  0
  2  4  1  0
  4  5  1  0
  5  6  2  0
  5  7  1  0
  7  8  1  0
  8  9  1  0
  9 10  2  0
  9 33  1  0
 10 11  1  0
 11 12  2  0
 12 13  1  0
 13 14  1  0
 13 33  2  0
 14 15  2  3
 14 25  1  0
 15 16  1  0
 16 17  2  0
 16 24  1  0
 17 18  1  0
 18 19  2  0
 19 20  1  0
 19 23  1  0
 20 21  1  0
 20 22  1  0
 23 24  2  0
 25 26  1  0
 26 27  2  0
 26 28  1  0
 28 29  1  0
 29 30  1  0
 30 31  1  0
 31 32  1  0
M  END
