
     RDKit          3D

 12 13  0  0  0  0  0  0  0  0999 V2000
   -2.7300    2.0420    0.6530 O   0  0  0  0  0  0  0  0  0  0  0  0
   -2.5270    0.8290    0.4550 N   0  0  0  0  0  0  0  0  0  0  0  0
   -2.9500   -0.0460    1.4260 O   0  0  0  0  0  0  0  0  0  0  0  0
   -1.8810    0.2850   -0.7200 C   0  0  0  0  0  0  0  0  0  0  0  0
   -0.6720   -0.4480   -0.2880 C   0  0  0  0  0  0  0  0  0  0  0  0
   -0.6510   -1.7840    0.0440 C   0  0  0  0  0  0  0  0  0  0  0  0
    0.6190   -2.0660    0.3780 N   0  0  0  0  0  0  0  0  0  0  0  0
    1.3640   -0.9520    0.2610 C   0  0  0  0  0  0  0  0  0  0  0  0
    2.6190   -0.5080    0.4140 N   0  0  0  0  0  0  0  0  0  0  0  0
    2.6150    0.7980    0.0930 C   0  0  0  0  0  0  0  0  0  0  0  0
    1.3480    1.1520   -0.2580 C   0  0  0  0  0  0  0  0  0  0  0  0
    0.5790    0.0390   -0.1460 N   0  0  0  0  0  0  0  0  0  0  0  0
  1  2  2  0
  2  3  1  0
  2  4  1  0
  4  5  1  0
  5  6  2  0
  5 12  1  0
  6  7  1  0
  7  8  2  0
  8  9  1  0
  8 12  1  0
  9 10  1  0
 10 11  2  0
 11 12  1  0
M  CHG  2   2   1   3  -1
M  END
