
     RDKit          3D

 12 13  0  0  0  0  0  0  0  0999 V2000
   -2.9650    0.3400    0.0160 C   0  0  0  0  0  0  0  0  0  0  0  0
   -1.7540   -0.5010    0.3270 C   0  0  0  0  0  0  0  0  0  0  0  0
   -0.4990    0.1630   -0.0440 C   0  0  0  0  0  0  0  0  0  0  0  0
   -0.2690    1.3960   -0.6130 C   0  0  0  0  0  0  0  0  0  0  0  0
    1.0540    1.5610   -0.7620 N   0  0  0  0  0  0  0  0  0  0  0  0
    1.6680    2.6510   -1.2880 O   0  0  0  0  0  0  0  0  0  0  0  0
    1.6810    0.4670   -0.3040 C   0  0  0  0  0  0  0  0  0  0  0  0
    2.8780   -0.1150   -0.1100 N   0  0  0  0  0  0  0  0  0  0  0  0
    2.7230   -1.3070    0.4360 N   0  0  0  0  0  0  0  0  0  0  0  0
    1.3960   -1.4660    0.5840 C   0  0  0  0  0  0  0  0  0  0  0  0
    0.8300   -2.4850    1.0750 O   0  0  0  0  0  0  0  0  0  0  0  0
    0.7160   -0.3910    0.1380 N   0  0  0  0  0  0  0  0  0  0  0  0
  1  2  1  0
  2  3  1  0
  3  4  2  0
  3 12  1  0
  4  5  1  0
  5  6  1  0
  5  7  2  0
  7  8  1  0
  7 12  1  0
  8  9  1  0
  9 10  1  0
 10 11  2  0
 10 12  1  0
M  CHG  2   5   1   6  -1
M  END
