
     RDKit          3D

 21 22  0  0  0  0  0  0  0  0999 V2000
   -4.1530   -2.8140    0.7910 O   0  0  0  0  0  0  0  0  0  0  0  0
   -3.1760   -2.3260   -0.0410 C   0  0  0  0  0  0  0  0  0  0  0  0
   -2.3700   -1.1930    0.6140 C   0  0  1  0  0  0  0  0  0  0  0  0
   -1.4490   -0.7790   -0.2570 O   0  0  0  0  0  0  0  0  0  0  0  0
   -1.1300    0.5400   -0.3400 C   0  0  2  0  0  0  0  0  0  0  0  0
   -0.1240    0.9030    0.5430 O   0  0  0  0  0  0  0  0  0  0  0  0
    1.0240    1.3830   -0.0120 C   0  0  0  0  0  0  0  0  0  0  0  0
    1.7790    0.4300   -0.9030 C   0  0  1  0  0  0  0  0  0  0  0  0
    3.0220    1.0540   -1.4740 C   0  0  0  0  0  0  0  0  0  0  0  0
    4.1910    0.9600   -0.6950 N   0  0  0  0  0  0  0  0  0  0  0  0
    4.4050   -0.2790   -0.0070 C   0  0  0  0  0  0  0  0  0  0  0  0
    3.2190   -0.7740    0.7430 C   0  0  1  0  0  0  0  0  0  0  0  0
    2.9700   -0.0020    1.8720 O   0  0  0  0  0  0  0  0  0  0  0  0
    2.0580   -0.8720   -0.1910 C   0  0  2  0  0  0  0  0  0  0  0  0
    2.3650   -1.8350   -1.1540 O   0  0  0  0  0  0  0  0  0  0  0  0
   -2.3110    1.4770   -0.1910 C   0  0  1  0  0  0  0  0  0  0  0  0
   -3.2570    1.0950   -1.1470 O   0  0  0  0  0  0  0  0  0  0  0  0
   -2.9010    1.2030    1.1860 C   0  0  1  0  0  0  0  0  0  0  0  0
   -3.9970    2.0230    1.4500 O   0  0  0  0  0  0  0  0  0  0  0  0
   -3.3340   -0.2250    1.1660 C   0  0  2  0  0  0  0  0  0  0  0  0
   -3.7070   -0.5640    2.4830 O   0  0  0  0  0  0  0  0  0  0  0  0
  1  2  1  0
  3  2  1  6
  3  4  1  0
  3 20  1  0
  4  5  1  0
  5  6  1  1
  5 16  1  0
  6  7  1  0
  8  7  1  1
  8  9  1  0
  8 14  1  0
  9 10  1  0
 10 11  1  0
 11 12  1  0
 12 13  1  1
 12 14  1  0
 14 15  1  6
 16 17  1  6
 16 18  1  0
 18 19  1  6
 18 20  1  0
 20 21  1  1
M  CHG  1  10   1
M  END
