
     RDKit          3D

 12 13  0  0  0  0  0  0  0  0999 V2000
   -2.3590   -0.5370   -0.4300 C   0  0  0  0  0  0  0  0  0  0  0  0
   -1.6800    0.3440    0.6130 C   0  0  0  0  0  0  0  0  0  0  0  0
   -0.3130    0.6740    0.1720 C   0  0  0  0  0  0  0  0  0  0  0  0
    0.1580    1.8300   -0.3490 N   0  0  0  0  0  0  0  0  0  0  0  0
    1.4400    1.7380   -0.6220 N   0  0  0  0  0  0  0  0  0  0  0  0
    1.8990    0.5040   -0.2960 C   0  0  0  0  0  0  0  0  0  0  0  0
    0.7970   -0.1620    0.2030 C   0  0  0  0  0  0  0  0  0  0  0  0
    1.3000   -1.5000    0.5540 C   0  0  0  0  0  0  0  0  0  0  0  0
    0.5990   -2.3950    1.0390 O   0  0  0  0  0  0  0  0  0  0  0  0
    2.6820   -1.4790    0.2160 N   0  0  0  0  0  0  0  0  0  0  0  0
    3.0330   -0.3740   -0.2570 N   0  0  0  0  0  0  0  0  0  0  0  0
    4.3120   -0.0410   -0.6760 O   0  0  0  0  0  0  0  0  0  0  0  0
  1  2  1  0
  2  3  1  0
  3  4  1  0
  3  7  2  0
  4  5  1  0
  5  6  2  0
  6  7  1  0
  6 11  1  0
  7  8  1  0
  8  9  2  0
  8 10  1  0
 10 11  2  0
 11 12  1  0
M  CHG  2  11   1  12  -1
M  END
