
     RDKit          3D

 12 13  0  0  0  0  0  0  0  0999 V2000
    2.7610    0.0220   -0.2680 C   0  0  0  0  0  0  0  0  0  0  0  0
    1.3860   -0.2720    0.0850 N   0  0  0  0  0  0  0  0  0  0  0  0
    0.9970   -1.2770    0.8910 C   0  0  0  0  0  0  0  0  0  0  0  0
   -0.3770   -1.1840    0.9460 C   0  0  0  0  0  0  0  0  0  0  0  0
   -0.8120   -0.1520    0.1950 N   0  0  0  0  0  0  0  0  0  0  0  0
   -1.9270    0.5180   -0.2150 C   0  0  0  0  0  0  0  0  0  0  0  0
   -3.2630    0.2020    0.1500 N   0  0  0  0  0  0  0  0  0  0  0  0
   -3.5770   -0.7360    0.8980 O   0  0  0  0  0  0  0  0  0  0  0  0
   -4.2790    0.9740   -0.3480 O   0  0  0  0  0  0  0  0  0  0  0  0
   -1.4690    1.4960   -1.0080 N   0  0  0  0  0  0  0  0  0  0  0  0
   -0.1450    1.4710   -1.1100 C   0  0  0  0  0  0  0  0  0  0  0  0
    0.2880    0.4060   -0.3340 C   0  0  0  0  0  0  0  0  0  0  0  0
  1  2  1  0
  2  3  1  0
  2 12  1  0
  3  4  2  0
  4  5  1  0
  5  6  1  0
  5 12  1  0
  6  7  1  0
  6 10  2  0
  7  8  2  0
  7  9  1  0
 10 11  1  0
 11 12  2  0
M  CHG  2   7   1   9  -1
M  END
