
     RDKit          3D

 11 11  0  0  0  0  0  0  0  0999 V2000
    3.5150    0.5640    0.6630 C   0  0  0  0  0  0  0  0  0  0  0  0
    2.4130   -0.1790   -0.0480 C   0  0  0  0  0  0  0  0  0  0  0  0
    1.1980    0.0950    0.6560 O   0  0  0  0  0  0  0  0  0  0  0  0
   -0.0040   -0.4560    0.2330 C   0  0  0  0  0  0  0  0  0  0  0  0
   -0.2710   -1.7440   -0.0070 C   0  0  0  0  0  0  0  0  0  0  0  0
   -1.6460   -1.8970   -0.4310 C   0  0  0  0  0  0  0  0  0  0  0  0
   -2.2460   -0.7200   -0.4610 C   0  0  0  0  0  0  0  0  0  0  0  0
   -3.5800   -0.3810   -0.8120 N   0  0  0  0  0  0  0  0  0  0  0  0
   -1.2350    0.2650   -0.0400 C   0  0  0  0  0  0  0  0  0  0  0  0
   -1.3920    1.5710    0.0770 C   0  0  0  0  0  0  0  0  0  0  0  0
   -0.3480    2.3720    0.4850 O   0  0  0  0  0  0  0  0  0  0  0  0
  1  2  1  0
  2  3  1  0
  3  4  1  0
  4  5  2  0
  4  9  1  0
  5  6  1  0
  6  7  2  0
  7  8  1  0
  7  9  1  0
  9 10  2  3
 10 11  1  0
M  END
