
     RDKit          3D

 12 12  0  0  0  0  0  0  0  0999 V2000
    3.4720    0.5710   -0.0840 C   0  0  0  0  0  0  0  0  0  0  0  0
    2.8000   -0.7620   -0.3230 C   0  0  0  0  0  0  0  0  0  0  0  0
    1.4010   -0.5540   -0.3050 O   0  0  0  0  0  0  0  0  0  0  0  0
    0.7320   -0.0540    0.7820 C   0  0  0  0  0  0  0  0  0  0  0  0
    1.3290    0.2460    1.8220 O   0  0  0  0  0  0  0  0  0  0  0  0
   -0.7340    0.1190    0.6810 C   0  0  0  0  0  0  0  0  0  0  0  0
   -1.4100    0.5990    1.7110 C   0  0  0  0  0  0  0  0  0  0  0  0
   -2.7790    0.7540    1.5990 O   0  0  0  0  0  0  0  0  0  0  0  0
   -3.5330    0.4450    0.4740 C   0  0  0  0  0  0  0  0  0  0  0  0
   -2.7520   -0.0900   -0.6650 C   0  0  0  0  0  0  0  0  0  0  0  0
   -1.4500   -0.2280   -0.5310 C   0  0  0  0  0  0  0  0  0  0  0  0
   -0.7210   -0.7430   -1.6360 N   0  0  0  0  0  0  0  0  0  0  0  0
  1  2  1  0
  2  3  1  0
  3  4  1  0
  4  5  2  0
  4  6  1  0
  6  7  2  0
  6 11  1  0
  7  8  1  0
  8  9  1  0
  9 10  1  0
 10 11  2  0
 11 12  1  0
M  END
