
     RDKit          3D

 21 21  0  0  0  0  0  0  0  0999 V2000
   -0.6590    0.8430   -0.8240 N   0  0  0  0  0  0  0  0  0  0  0  0
   -1.4270    0.0370    0.1110 C   0  0  1  0  0  0  0  0  0  0  0  0
   -2.7840    0.0900   -0.1770 O   0  0  0  0  0  0  0  0  0  0  0  0
   -3.3010   -0.9630    0.5330 C   0  0  1  0  0  0  0  0  0  0  0  0
   -4.7280   -1.2080    0.2200 C   0  0  0  0  0  0  0  0  0  0  0  0
   -5.5270   -0.1280    0.5340 O   0  0  0  0  0  0  0  0  0  0  0  0
   -5.5260    1.1080   -0.0290 C   0  0  0  0  0  0  0  0  0  0  0  0
   -4.7350    1.3710   -0.9650 O   0  0  0  0  0  0  0  0  0  0  0  0
   -6.3970    2.1320    0.4030 O   0  0  0  0  0  0  0  0  0  0  0  0
   -2.4030   -2.1080    0.0230 C   0  0  0  0  0  0  0  0  0  0  0  0
   -1.0900   -1.4210   -0.0210 C   0  0  2  0  0  0  0  0  0  0  0  0
   -0.1560   -1.7620    0.8680 O   0  0  0  0  0  0  0  0  0  0  0  0
    1.0430   -2.2340    0.6140 C   0  0  0  0  0  0  0  0  0  0  0  0
    1.8770   -1.2590   -0.1800 C   0  0  0  0  0  0  0  0  0  0  0  0
    2.0200   -0.0820    0.5460 O   0  0  0  0  0  0  0  0  0  0  0  0
    2.7940    0.8560   -0.0930 C   0  0  1  0  0  0  0  0  0  0  0  0
    2.1730    2.0550   -0.3310 O   0  0  0  0  0  0  0  0  0  0  0  0
    4.0700    1.0680    0.7160 C   0  0  1  0  0  0  0  0  0  0  0  0
    4.7880   -0.1110    0.8310 O   0  0  0  0  0  0  0  0  0  0  0  0
    4.8930    2.0920   -0.0420 C   0  0  0  0  0  0  0  0  0  0  0  0
    6.0750    2.3570    0.6150 O   0  0  0  0  0  0  0  0  0  0  0  0
  2  1  1  6
  2  3  1  0
  2 11  1  0
  3  4  1  0
  4  5  1  6
  4 10  1  0
  5  6  1  0
  6  7  1  0
  7  8  2  0
  7  9  1  0
 10 11  1  0
 11 12  1  1
 12 13  1  0
 13 14  1  0
 14 15  1  0
 15 16  1  0
 16 17  1  1
 16 18  1  0
 18 19  1  6
 18 20  1  0
 20 21  1  0
M  END
