
     RDKit          3D

 12 12  0  0  0  0  0  0  0  0999 V2000
    1.7800   -1.4730    1.5320 N   0  0  0  0  0  0  0  0  0  0  0  0
    1.7610   -0.4930    0.5120 C   0  0  0  0  0  0  0  0  0  0  0  0
    2.7310    0.4010    0.4560 C   0  0  0  0  0  0  0  0  0  0  0  0
    2.7120    1.3510   -0.5340 O   0  0  0  0  0  0  0  0  0  0  0  0
    1.7610    1.5060   -1.5350 C   0  0  0  0  0  0  0  0  0  0  0  0
    0.6860    0.4980   -1.4560 C   0  0  0  0  0  0  0  0  0  0  0  0
    0.7140   -0.4100   -0.5010 C   0  0  0  0  0  0  0  0  0  0  0  0
   -0.4010   -1.4020   -0.4690 C   0  0  0  0  0  0  0  0  0  0  0  0
   -1.0750   -1.3080    0.7350 O   0  0  0  0  0  0  0  0  0  0  0  0
   -1.6430   -0.0780    0.9760 C   0  0  0  0  0  0  0  0  0  0  0  0
   -2.6740    0.2930   -0.0650 C   0  0  0  0  0  0  0  0  0  0  0  0
   -3.1840    1.5430    0.2680 O   0  0  0  0  0  0  0  0  0  0  0  0
  1  2  1  0
  2  3  2  0
  2  7  1  0
  3  4  1  0
  4  5  1  0
  5  6  1  0
  6  7  2  0
  7  8  1  0
  8  9  1  0
  9 10  1  0
 10 11  1  0
 11 12  1  0
M  END
