
     RDKit          3D

 21 21  0  0  0  0  0  0  0  0999 V2000
    3.4590   -2.6890   -0.7040 C   0  0  0  0  0  0  0  0  0  0  0  0
    2.6360   -1.4740   -0.8870 C   0  0  0  0  0  0  0  0  0  0  0  0
    2.5560   -0.9220   -2.0070 O   0  0  0  0  0  0  0  0  0  0  0  0
    1.9150   -0.8910    0.1830 N   0  0  0  0  0  0  0  0  0  0  0  0
    1.0980    0.3010    0.0350 C   0  0  2  0  0  0  0  0  0  0  0  0
    1.5930    1.4540    0.8540 C   0  0  1  0  0  0  0  0  0  0  0  0
    2.5200    2.2240    0.1210 O   0  0  0  0  0  0  0  0  0  0  0  0
    0.4920    2.4060    1.2550 C   0  0  0  0  0  0  0  0  0  0  0  0
   -0.7530    2.2050    0.4180 C   0  0  2  0  0  0  0  0  0  0  0  0
   -0.5610    2.5530   -0.8980 O   0  0  0  0  0  0  0  0  0  0  0  0
   -1.7980    3.1000    0.9830 C   0  0  0  0  0  0  0  0  0  0  0  0
   -2.1770    2.9970    2.1990 O   0  0  0  0  0  0  0  0  0  0  0  0
   -2.4010    4.0740    0.2280 O   0  0  0  0  0  0  0  0  0  0  0  0
   -1.1790    0.9120    0.6000 O   0  0  0  0  0  0  0  0  0  0  0  0
   -0.3230   -0.0760    0.2950 C   0  0  1  0  0  0  0  0  0  0  0  0
   -0.8150   -0.8890   -0.8830 C   0  0  2  0  0  0  0  0  0  0  0  0
   -0.9550   -0.0790   -2.0040 O   0  0  0  0  0  0  0  0  0  0  0  0
   -2.1100   -1.5970   -0.5900 C   0  0  2  0  0  0  0  0  0  0  0  0
   -3.1250   -0.6990   -0.3490 O   0  0  0  0  0  0  0  0  0  0  0  0
   -2.0250   -2.5540    0.5480 C   0  0  0  0  0  0  0  0  0  0  0  0
   -1.0120   -3.5070    0.3810 O   0  0  0  0  0  0  0  0  0  0  0  0
  1  2  1  0
  2  3  2  0
  2  4  1  0
  5  4  1  1
  5  6  1  0
  5 15  1  0
  6  7  1  6
  6  8  1  0
  8  9  1  0
  9 10  1  6
  9 11  1  0
  9 14  1  0
 11 12  2  0
 11 13  1  0
 15 14  1  6
 15 16  1  0
 16 17  1  6
 16 18  1  0
 18 19  1  1
 18 20  1  0
 20 21  1  0
M  END
