
     RDKit          3D

 12 12  0  0  0  0  0  0  0  0999 V2000
   -4.3630    0.4390    0.7030 C   0  0  0  0  0  0  0  0  0  0  0  0
   -2.9760    0.5800    0.6440 O   0  0  0  0  0  0  0  0  0  0  0  0
   -2.5710    0.4960   -0.6990 C   0  0  0  0  0  0  0  0  0  0  0  0
   -1.0450    0.6540   -0.7280 C   0  0  0  0  0  0  0  0  0  0  0  0
   -0.5330   -0.4090    0.0530 O   0  0  0  0  0  0  0  0  0  0  0  0
    0.8200   -0.5450    0.2220 C   0  0  0  0  0  0  0  0  0  0  0  0
    1.6270    0.4470   -0.1050 C   0  0  0  0  0  0  0  0  0  0  0  0
    3.0820    0.3620    0.0530 C   0  0  2  0  0  0  0  0  0  0  0  0
    3.7370    0.6310   -1.2170 N   0  0  0  0  0  0  0  0  0  0  0  0
    3.4980   -0.8560    0.5740 O   0  0  0  0  0  0  0  0  0  0  0  0
    2.6540   -1.8770    0.9100 C   0  0  0  0  0  0  0  0  0  0  0  0
    1.3460   -1.7770    0.7580 C   0  0  0  0  0  0  0  0  0  0  0  0
  1  2  1  0
  2  3  1  0
  3  4  1  0
  4  5  1  0
  5  6  1  0
  6  7  2  0
  6 12  1  0
  7  8  1  0
  8  9  1  6
  8 10  1  0
 10 11  1  0
 11 12  2  0
M  END
