
     RDKit          3D

 12 12  0  0  0  0  0  0  0  0999 V2000
    4.0410   -0.4960   -0.0380 C   0  0  0  0  0  0  0  0  0  0  0  0
    3.5960    0.7900    0.1410 O   0  0  0  0  0  0  0  0  0  0  0  0
    2.3590    1.0450   -0.3920 C   0  0  0  0  0  0  0  0  0  0  0  0
    1.2650    0.1610    0.2060 C   0  0  0  0  0  0  0  0  0  0  0  0
    0.0570    0.5040   -0.4040 O   0  0  0  0  0  0  0  0  0  0  0  0
   -1.1660   -0.0780   -0.1270 C   0  0  0  0  0  0  0  0  0  0  0  0
   -1.3490   -1.3750   -0.0400 C   0  0  0  0  0  0  0  0  0  0  0  0
   -2.6570   -1.9800    0.2560 C   0  0  0  0  0  0  0  0  0  0  0  0
   -3.6560   -1.0500    0.4300 O   0  0  0  0  0  0  0  0  0  0  0  0
   -3.5070    0.2970    0.3470 C   0  0  0  0  0  0  0  0  0  0  0  0
   -2.2990    0.8170    0.0760 C   0  0  0  0  0  0  0  0  0  0  0  0
   -2.1290    2.2140   -0.0130 N   0  0  0  0  0  0  0  0  0  0  0  0
  1  2  1  0
  2  3  1  0
  3  4  1  0
  4  5  1  0
  5  6  1  0
  6  7  2  0
  6 11  1  0
  7  8  1  0
  8  9  1  0
  9 10  1  0
 10 11  2  0
 11 12  1  0
M  END
