
     RDKit          3D

 12 12  0  0  0  0  0  0  0  0999 V2000
    2.6770   -0.2270    0.0220 C   0  0  0  0  0  0  0  0  0  0  0  0
    2.0140    0.5570   -1.0650 C   0  0  0  0  0  0  0  0  0  0  0  0
    0.7020    0.1770   -1.3380 O   0  0  0  0  0  0  0  0  0  0  0  0
   -0.3410    0.2080   -0.4280 C   0  0  0  0  0  0  0  0  0  0  0  0
   -0.7100    1.3770    0.0520 C   0  0  0  0  0  0  0  0  0  0  0  0
   -0.0260    2.5870   -0.3780 N   0  0  0  0  0  0  0  0  0  0  0  0
   -1.8140    1.4790    1.0260 C   0  0  0  0  0  0  0  0  0  0  0  0
   -2.3780    0.2530    1.3490 O   0  0  0  0  0  0  0  0  0  0  0  0
   -1.9690   -0.9360    0.8320 C   0  0  0  0  0  0  0  0  0  0  0  0
   -2.6390   -2.1000    1.2560 O   0  0  0  0  0  0  0  0  0  0  0  0
   -0.9750   -1.0410   -0.0460 C   0  0  0  0  0  0  0  0  0  0  0  0
   -0.6060   -2.3790   -0.5490 C   0  0  0  0  0  0  0  0  0  0  0  0
  1  2  1  0
  2  3  1  0
  3  4  1  0
  4  5  2  0
  4 11  1  0
  5  6  1  0
  5  7  1  0
  7  8  1  0
  8  9  1  0
  9 10  1  0
  9 11  2  0
 11 12  1  0
M  END
