
     RDKit          3D

 27 28  0  0  0  0  0  0  0  0999 V2000
    7.2480    0.2950   -1.7920 C   0  0  0  0  0  0  0  0  0  0  0  0
    6.4770    0.5800   -0.6480 O   0  0  0  0  0  0  0  0  0  0  0  0
    7.0870    0.5970    0.5800 C   0  0  0  0  0  0  0  0  0  0  0  0
    8.3170    0.3570    0.6490 O   0  0  0  0  0  0  0  0  0  0  0  0
    6.3670    0.8840    1.8280 C   0  0  0  0  0  0  0  0  0  0  0  0
    4.9920    1.1360    1.6020 O   0  0  0  0  0  0  0  0  0  0  0  0
    4.1520    0.1880    1.0170 C   0  0  0  0  0  0  0  0  0  0  0  0
    4.6460   -0.8970    0.6950 O   0  0  0  0  0  0  0  0  0  0  0  0
    2.7720    0.4360    0.7880 N   0  0  0  0  0  0  0  0  0  0  0  0
    1.8790   -0.4780    0.2040 C   0  0  0  0  0  0  0  0  0  0  0  0
    2.0950   -1.7050   -0.2410 N   0  0  0  0  0  0  0  0  0  0  0  0
    0.9380   -2.2380   -0.7330 C   0  0  0  0  0  0  0  0  0  0  0  0
   -0.0140   -1.2860   -0.5750 N   0  0  0  0  0  0  0  0  0  0  0  0
    0.5370   -0.2000   -0.0030 C   0  0  0  0  0  0  0  0  0  0  0  0
   -0.1480    1.0770    0.3500 C   0  0  0  0  0  0  0  0  0  0  0  0
   -1.5180    1.0420    0.0100 O   0  0  0  0  0  0  0  0  0  0  0  0
   -2.4140    0.1400    0.5110 C   0  0  0  0  0  0  0  0  0  0  0  0
   -1.9870   -0.7210    1.3340 O   0  0  0  0  0  0  0  0  0  0  0  0
   -3.8260    0.1070    0.1580 C   0  0  0  0  0  0  0  0  0  0  0  0
   -4.5330   -0.8380    0.7440 C   0  0  0  0  0  0  0  0  0  0  0  0
   -5.9330   -1.2610    0.7150 C   0  0  0  0  0  0  0  0  0  0  0  0
   -6.9200   -1.1130   -0.1550 C   0  0  0  0  0  0  0  0  0  0  0  0
   -7.1310   -0.4930   -1.4620 C   0  0  0  0  0  0  0  0  0  0  0  0
   -6.6300    0.8910   -1.5810 C   0  0  0  0  0  0  0  0  0  0  0  0
   -7.4980    1.7830   -1.8040 O   0  0  0  0  0  0  0  0  0  0  0  0
   -5.2950    1.4700   -1.4930 C   0  0  0  0  0  0  0  0  0  0  0  0
   -4.1920    1.1460   -0.7960 C   0  0  0  0  0  0  0  0  0  0  0  0
  1  2  1  0
  2  3  1  0
  3  4  2  0
  3  5  1  0
  5  6  1  0
  6  7  1  0
  7  8  2  0
  7  9  1  0
  9 10  1  0
 10 11  1  0
 10 14  2  0
 11 12  1  0
 12 13  2  0
 13 14  1  0
 14 15  1  0
 15 16  1  0
 16 17  1  0
 17 18  2  0
 17 19  1  0
 19 20  2  0
 19 27  1  0
 20 21  1  0
 21 22  2  0
 22 23  1  0
 23 24  1  0
 24 25  2  0
 24 26  1  0
 26 27  2  0
M  END
