
     RDKit          3D

 27 27  0  0  0  0  0  0  0  0999 V2000
   -4.8950    0.9450    1.4510 C   0  0  0  0  0  0  0  0  0  0  0  0
   -4.0390    1.5270    0.6160 C   0  0  0  0  0  0  0  0  0  0  0  0
   -4.3700    2.8520    0.1750 C   0  0  0  0  0  0  0  0  0  0  0  0
   -3.6290    3.5390   -0.6380 C   0  0  0  0  0  0  0  0  0  0  0  0
   -3.9760    4.8410   -1.0590 O   0  0  0  0  0  0  0  0  0  0  0  0
   -2.8560    0.7620    0.2360 C   0  0  0  0  0  0  0  0  0  0  0  0
   -2.7000   -0.4160    0.7170 O   0  0  0  0  0  0  0  0  0  0  0  0
   -1.8540    1.1740   -0.6070 O   0  0  0  0  0  0  0  0  0  0  0  0
   -0.7400    0.3140   -0.8970 C   0  0  0  0  0  0  0  0  0  0  0  0
   -0.9050   -0.5520   -2.0330 C   0  0  0  0  0  0  0  0  0  0  0  0
   -0.0510   -1.3900   -2.4660 N   0  0  0  0  0  0  0  0  0  0  0  0
   -0.2200   -2.2440   -3.5910 C   0  0  0  0  0  0  0  0  0  0  0  0
   -1.3140   -3.2510   -3.3660 C   0  0  0  0  0  0  0  0  0  0  0  0
   -1.6010   -4.0820   -4.2440 O   0  0  0  0  0  0  0  0  0  0  0  0
   -1.9820   -3.2190   -2.1600 O   0  0  0  0  0  0  0  0  0  0  0  0
    0.3130    0.3820   -0.1240 C   0  0  0  0  0  0  0  0  0  0  0  0
    1.5430   -0.3690   -0.2080 C   0  0  0  0  0  0  0  0  0  0  0  0
    2.5810   -0.2670    0.5960 C   0  0  0  0  0  0  0  0  0  0  0  0
    3.6890   -1.1590    0.2640 N   0  0  0  0  0  0  0  0  0  0  0  0
    4.0610   -2.1180    1.2300 C   0  0  0  0  0  0  0  0  0  0  0  0
    5.1470   -2.9820    0.8970 N   0  0  0  0  0  0  0  0  0  0  0  0
    3.4670   -2.2130    2.3370 O   0  0  0  0  0  0  0  0  0  0  0  0
    2.6770    0.6210    1.7140 C   0  0  0  0  0  0  0  0  0  0  0  0
    3.8190    0.7250    2.5400 C   0  0  0  0  0  0  0  0  0  0  0  0
    3.5400    1.6600    3.4850 C   0  0  0  0  0  0  0  0  0  0  0  0
    2.2600    2.1110    3.2390 C   0  0  0  0  0  0  0  0  0  0  0  0
    1.8420    1.4610    2.2050 O   0  0  0  0  0  0  0  0  0  0  0  0
  1  2  2  0
  2  3  1  0
  2  6  1  0
  3  4  2  3
  4  5  1  0
  6  7  2  0
  6  8  1  0
  8  9  1  0
  9 10  1  0
  9 16  2  3
 10 11  2  3
 11 12  1  0
 12 13  1  0
 13 14  2  0
 13 15  1  0
 16 17  1  0
 17 18  2  3
 18 19  1  0
 18 23  1  0
 19 20  1  0
 20 21  1  0
 20 22  2  0
 23 24  2  0
 23 27  1  0
 24 25  1  0
 25 26  2  0
 26 27  1  0
M  END
