
     RDKit          3D

 27 28  0  0  0  0  0  0  0  0999 V2000
   -3.1020   -2.8690    3.7700 O   0  0  0  0  0  0  0  0  0  0  0  0
   -3.6460   -1.7500    3.9300 C   0  0  0  0  0  0  0  0  0  0  0  0
   -3.7600   -0.8130    2.8960 N   0  0  0  0  0  0  0  0  0  0  0  0
   -3.2330   -1.1160    1.5530 C   0  0  1  0  0  0  0  0  0  0  0  0
   -4.2990   -1.3150    0.5820 C   0  0  0  0  0  0  0  0  0  0  0  0
   -3.8480   -1.7210   -0.6720 O   0  0  0  0  0  0  0  0  0  0  0  0
   -2.0530   -0.3250    1.3710 C   0  0  0  0  0  0  0  0  0  0  0  0
   -1.2450   -0.5070    2.4510 O   0  0  0  0  0  0  0  0  0  0  0  0
   -1.4360    0.5570    0.4930 N   0  0  0  0  0  0  0  0  0  0  0  0
   -0.0360    0.9370    0.7600 C   0  0  0  0  0  0  0  0  0  0  0  0
    0.9370    0.0460    0.1250 C   0  0  0  0  0  0  0  0  0  0  0  0
    0.6100   -0.9430   -0.5760 O   0  0  0  0  0  0  0  0  0  0  0  0
    2.3070    0.3370    0.3270 N   0  0  0  0  0  0  0  0  0  0  0  0
    3.3950   -0.3850   -0.1840 C   0  0  0  0  0  0  0  0  0  0  0  0
    3.3190   -1.6130   -0.7580 C   0  0  0  0  0  0  0  0  0  0  0  0
    4.4820   -2.2210   -1.2470 C   0  0  0  0  0  0  0  0  0  0  0  0
    5.7010   -1.6080   -1.1610 C   0  0  0  0  0  0  0  0  0  0  0  0
    5.7960   -0.3620   -0.5810 C   0  0  0  0  0  0  0  0  0  0  0  0
    7.0480    0.2370   -0.5080 O   0  0  0  0  0  0  0  0  0  0  0  0
    4.6600    0.2180   -0.1100 C   0  0  0  0  0  0  0  0  0  0  0  0
   -2.0590    1.1730   -0.6050 C   0  0  0  0  0  0  0  0  0  0  0  0
   -3.3330    0.9520   -0.7630 O   0  0  0  0  0  0  0  0  0  0  0  0
   -1.5240    2.0350   -1.6230 C   0  0  0  0  0  0  0  0  0  0  0  0
   -2.3240    2.6660   -2.6020 C   0  0  0  0  0  0  0  0  0  0  0  0
   -1.5150    3.3950   -3.4450 C   0  0  0  0  0  0  0  0  0  0  0  0
   -0.2930    3.2430   -3.0380 O   0  0  0  0  0  0  0  0  0  0  0  0
   -0.2720    2.4360   -1.9530 C   0  0  0  0  0  0  0  0  0  0  0  0
  1  2  2  0
  2  3  1  0
  3  4  1  0
  4  5  1  6
  4  7  1  0
  5  6  1  0
  7  8  2  0
  7  9  1  0
  9 10  1  0
  9 21  1  0
 10 11  1  0
 11 12  2  0
 11 13  1  0
 13 14  1  0
 14 15  2  0
 14 20  1  0
 15 16  1  0
 16 17  2  0
 17 18  1  0
 18 19  1  0
 18 20  2  0
 21 22  2  0
 21 23  1  0
 23 24  1  0
 23 27  2  0
 24 25  2  0
 25 26  1  0
 26 27  1  0
M  END
