
     RDKit          3D

 27 28  0  0  0  0  0  0  0  0999 V2000
   -0.2740    3.6650    0.4560 C   0  0  0  0  0  0  0  0  0  0  0  0
   -0.5020    2.3850   -0.1220 O   0  0  0  0  0  0  0  0  0  0  0  0
   -1.6310    1.6670    0.2220 C   0  0  0  0  0  0  0  0  0  0  0  0
   -2.4080    2.1960    1.0420 O   0  0  0  0  0  0  0  0  0  0  0  0
   -1.8500    0.3640   -0.3720 C   0  0  0  0  0  0  0  0  0  0  0  0
   -1.0120   -0.1410   -1.2520 C   0  0  0  0  0  0  0  0  0  0  0  0
    0.1490    0.6060   -1.6470 N   0  0  0  0  0  0  0  0  0  0  0  0
    1.4400    0.0930   -1.3890 C   0  0  0  0  0  0  0  0  0  0  0  0
    1.6670   -0.7070   -0.4180 N   0  0  0  0  0  0  0  0  0  0  0  0
    2.9360   -1.2530   -0.1090 C   0  0  0  0  0  0  0  0  0  0  0  0
    3.1470   -2.4920   -0.2320 O   0  0  0  0  0  0  0  0  0  0  0  0
    3.9810   -0.3480    0.3480 C   0  0  0  0  0  0  0  0  0  0  0  0
    3.7440    1.0100    0.5100 C   0  0  0  0  0  0  0  0  0  0  0  0
    4.7470    1.8680    0.9400 C   0  0  0  0  0  0  0  0  0  0  0  0
    5.9340    1.3620    1.1920 O   0  0  0  0  0  0  0  0  0  0  0  0
    6.2210    0.1000    1.0610 C   0  0  0  0  0  0  0  0  0  0  0  0
    7.3760   -0.3360    1.3170 O   0  0  0  0  0  0  0  0  0  0  0  0
    5.2570   -0.7840    0.6380 C   0  0  0  0  0  0  0  0  0  0  0  0
   -1.1990   -1.3670   -1.8220 O   0  0  0  0  0  0  0  0  0  0  0  0
   -1.0490   -2.6280   -1.2630 C   0  0  0  0  0  0  0  0  0  0  0  0
   -3.0560   -0.3520    0.0170 C   0  0  0  0  0  0  0  0  0  0  0  0
   -3.8320   -0.9220   -1.0030 C   0  0  0  0  0  0  0  0  0  0  0  0
   -4.9840   -1.6110   -0.6890 C   0  0  0  0  0  0  0  0  0  0  0  0
   -5.3400   -1.7180    0.6200 C   0  0  0  0  0  0  0  0  0  0  0  0
   -4.5780   -1.1630    1.5700 N   0  0  0  0  0  0  0  0  0  0  0  0
   -3.4390   -0.4780    1.3230 C   0  0  0  0  0  0  0  0  0  0  0  0
   -2.7680    0.0160    2.2600 O   0  0  0  0  0  0  0  0  0  0  0  0
  1  2  1  0
  2  3  1  0
  3  4  2  0
  3  5  1  0
  5  6  2  3
  5 21  1  0
  6  7  1  0
  6 19  1  0
  7  8  1  0
  8  9  2  3
  9 10  1  0
 10 11  2  0
 10 12  1  0
 12 13  1  0
 12 18  2  0
 13 14  2  0
 14 15  1  0
 15 16  1  0
 16 17  2  0
 16 18  1  0
 19 20  1  0
 21 22  2  0
 21 26  1  0
 22 23  1  0
 23 24  2  0
 24 25  1  0
 25 26  1  0
 26 27  2  0
M  END
