
     RDKit          3D

 27 28  0  0  0  0  0  0  0  0999 V2000
   -4.1010    3.2120    0.9830 C   0  0  0  0  0  0  0  0  0  0  0  0
   -2.9870    2.3390    0.6070 N   0  0  0  0  0  0  0  0  0  0  0  0
   -3.1790    1.1940   -0.2040 C   0  0  0  0  0  0  0  0  0  0  0  0
   -4.3090    0.9210   -0.6140 O   0  0  0  0  0  0  0  0  0  0  0  0
   -2.0140    0.3130   -0.5620 C   0  0  0  0  0  0  0  0  0  0  0  0
   -2.4340   -0.8610   -1.3640 C   0  0  0  0  0  0  0  0  0  0  0  0
   -1.2340   -1.7330   -1.6710 C   0  0  0  0  0  0  0  0  0  0  0  0
   -0.6580   -2.1040   -0.3960 N   0  0  0  0  0  0  0  0  0  0  0  0
    0.3810   -1.4160    0.2640 C   0  0  0  0  0  0  0  0  0  0  0  0
    0.6850   -1.7100    1.4420 O   0  0  0  0  0  0  0  0  0  0  0  0
    1.1180   -0.3770   -0.3840 N   0  0  0  0  0  0  0  0  0  0  0  0
    2.1810    0.2840    0.3170 C   0  0  0  0  0  0  0  0  0  0  0  0
    2.3470   -0.0690    1.5070 O   0  0  0  0  0  0  0  0  0  0  0  0
    2.9690    1.2670   -0.3480 C   0  0  0  0  0  0  0  0  0  0  0  0
    2.7310    1.5720   -1.6220 C   0  0  0  0  0  0  0  0  0  0  0  0
    3.4960    2.5590   -2.3560 C   0  0  0  0  0  0  0  0  0  0  0  0
    4.4860    3.2320   -1.8210 C   0  0  0  0  0  0  0  0  0  0  0  0
    4.7820    2.9670   -0.5080 O   0  0  0  0  0  0  0  0  0  0  0  0
    4.0720    2.0100    0.2740 C   0  0  0  0  0  0  0  0  0  0  0  0
    4.4590    1.8640    1.5030 C   0  0  0  0  0  0  0  0  0  0  0  0
    3.9710    1.0350    2.4770 O   0  0  0  0  0  0  0  0  0  0  0  0
    3.9070    1.4730    3.7480 O   0  0  0  0  0  0  0  0  0  0  0  0
   -1.2650   -3.2260    0.2570 C   0  0  0  0  0  0  0  0  0  0  0  0
   -1.0700   -4.5460   -0.0730 C   0  0  0  0  0  0  0  0  0  0  0  0
   -1.8530   -5.3050    0.8100 C   0  0  0  0  0  0  0  0  0  0  0  0
   -2.4690   -4.3880    1.6190 C   0  0  0  0  0  0  0  0  0  0  0  0
   -2.1070   -3.1880    1.2710 O   0  0  0  0  0  0  0  0  0  0  0  0
  1  2  1  0
  2  3  1  0
  3  4  2  0
  3  5  1  0
  5  6  1  0
  6  7  1  0
  7  8  1  0
  8  9  1  0
  8 23  1  0
  9 10  2  0
  9 11  1  0
 11 12  1  0
 12 13  2  0
 12 14  1  0
 14 15  2  0
 14 19  1  0
 15 16  1  0
 16 17  2  0
 17 18  1  0
 18 19  1  0
 19 20  2  3
 20 21  1  0
 21 22  1  0
 23 24  2  0
 23 27  1  0
 24 25  1  0
 25 26  2  0
 26 27  1  0
M  END
