
     RDKit          3D

 19 20  0  0  0  0  0  0  0  0999 V2000
    1.1520    2.1700   -0.6590 C   0  0  0  0  0  0  0  0  0  0  0  0
    0.5100    1.1090   -0.2270 C   0  0  0  0  0  0  0  0  0  0  0  0
   -0.9080    1.0210   -0.4770 N   0  0  0  0  0  0  0  0  0  0  0  0
   -1.9340    0.3020    0.2490 C   0  0  1  0  0  0  0  0  0  0  0  0
   -3.2380    1.0090    0.0300 C   0  0  0  0  0  0  0  0  0  0  0  0
   -3.8530    0.2000   -1.0910 C   0  0  0  0  0  0  0  0  0  0  0  0
   -2.9030   -0.7090   -1.5120 O   0  0  0  0  0  0  0  0  0  0  0  0
   -2.2210   -1.0560   -0.3720 C   0  0  0  0  0  0  0  0  0  0  0  0
   -1.6280    0.0860    1.6630 C   0  0  0  0  0  0  0  0  0  0  0  0
   -2.5430    0.4450    2.4840 O   0  0  0  0  0  0  0  0  0  0  0  0
   -0.4530   -0.4680    2.2230 N   0  0  0  0  0  0  0  0  0  0  0  0
    0.8220   -0.5930    1.5500 C   0  0  0  0  0  0  0  0  0  0  0  0
    1.2780    0.0640    0.4940 C   0  0  0  0  0  0  0  0  0  0  0  0
    2.5960   -0.2050   -0.0410 C   0  0  0  0  0  0  0  0  0  0  0  0
    3.0290    0.3980   -1.0610 O   0  0  0  0  0  0  0  0  0  0  0  0
    3.4680   -1.1430    0.5370 N   0  0  0  0  0  0  0  0  0  0  0  0
    4.7400   -1.3300   -0.0660 N   0  0  0  0  0  0  0  0  0  0  0  0
    4.9060   -1.2180   -1.4310 N   0  0  0  0  0  0  0  0  0  0  0  0
    5.7730   -1.8030   -2.0870 O   0  0  0  0  0  0  0  0  0  0  0  0
  1  2  2  0
  2  3  1  0
  2 13  1  0
  3  4  1  0
  4  5  1  1
  4  8  1  0
  4  9  1  0
  5  6  1  0
  6  7  1  0
  7  8  1  0
  9 10  2  0
  9 11  1  0
 11 12  1  0
 12 13  2  0
 13 14  1  0
 14 15  2  0
 14 16  1  0
 16 17  1  0
 17 18  1  0
 18 19  2  0
M  END
