
     RDKit          3D

 16 16  0  0  0  0  0  0  0  0999 V2000
    1.4660   -2.4590    1.5030 C   0  0  0  0  0  0  0  0  0  0  0  0
    0.4040   -1.4720    1.1130 C   0  0  0  0  0  0  0  0  0  0  0  0
   -0.8830   -1.8360    1.4520 O   0  0  0  0  0  0  0  0  0  0  0  0
    0.7220   -0.3280    0.4880 C   0  0  0  0  0  0  0  0  0  0  0  0
    2.1230   -0.1040    0.2250 C   0  0  0  0  0  0  0  0  0  0  0  0
    2.7870    0.8390   -0.3370 C   0  0  0  0  0  0  0  0  0  0  0  0
    4.2150    0.6820   -0.4040 N   0  0  0  0  0  0  0  0  0  0  0  0
    2.1880    2.2900   -1.0480 S   0  0  1  0  0  0  0  0  0  0  0  0
    1.5470    2.0800   -2.3990 O   0  0  0  0  0  0  0  0  0  0  0  0
    1.2640    3.0750   -0.1700 O   0  0  0  0  0  0  0  0  0  0  0  0
   -0.3950    0.5470    0.0960 C   0  0  0  0  0  0  0  0  0  0  0  0
   -1.6610   -0.1430    0.3250 N   0  0  0  0  0  0  0  0  0  0  0  0
   -2.7740    0.7810    0.2910 C   0  0  0  0  0  0  0  0  0  0  0  0
   -3.3430    0.8260   -1.0900 C   0  0  0  0  0  0  0  0  0  0  0  0
   -2.4250   -0.0700   -1.8730 C   0  0  0  0  0  0  0  0  0  0  0  0
   -1.9210   -1.0180   -0.8200 C   0  0  0  0  0  0  0  0  0  0  0  0
  1  2  1  0
  2  3  1  0
  2  4  2  3
  4  5  1  0
  4 11  1  0
  5  6  2  3
  6  7  1  0
  8  6  1  1
  8  9  2  0
  8 10  2  0
 11 12  1  0
 12 13  1  0
 12 16  1  0
 13 14  1  0
 14 15  1  0
 15 16  1  0
M  END
