
     RDKit          3D

 19 20  0  0  0  0  0  0  0  0999 V2000
   -2.8580   -2.0360   -0.6270 C   0  0  0  0  0  0  0  0  0  0  0  0
   -2.1740   -1.0270    0.3000 C   0  0  2  0  0  0  0  0  0  0  0  0
   -2.9620    0.2460    0.3510 C   0  0  0  0  0  0  0  0  0  0  0  0
   -3.1190    0.9190   -0.9560 C   0  0  0  0  0  0  0  0  0  0  0  0
   -2.6540    0.5370   -2.0440 O   0  0  0  0  0  0  0  0  0  0  0  0
   -3.8760    2.1070   -0.9270 O   0  0  0  0  0  0  0  0  0  0  0  0
   -0.7610   -0.8610   -0.0830 C   0  0  0  0  0  0  0  0  0  0  0  0
   -0.1830   -1.3670   -1.1680 N   0  0  0  0  0  0  0  0  0  0  0  0
    1.0880   -1.1890   -1.4640 N   0  0  0  0  0  0  0  0  0  0  0  0
    1.9240   -0.4680   -0.6810 C   0  0  0  0  0  0  0  0  0  0  0  0
    3.2160   -0.3120   -1.0160 N   0  0  0  0  0  0  0  0  0  0  0  0
    4.0740    0.3950   -0.2580 C   0  0  0  0  0  0  0  0  0  0  0  0
    5.4390    0.5580   -0.6040 N   0  0  0  0  0  0  0  0  0  0  0  0
    3.5510    0.9340    0.8540 N   0  0  0  0  0  0  0  0  0  0  0  0
    2.2710    0.8170    1.2440 C   0  0  0  0  0  0  0  0  0  0  0  0
    1.8590    1.3510    2.2980 O   0  0  0  0  0  0  0  0  0  0  0  0
    1.4020    0.0950    0.4700 C   0  0  0  0  0  0  0  0  0  0  0  0
    0.0540   -0.0980    0.7790 C   0  0  0  0  0  0  0  0  0  0  0  0
   -0.4860    0.4310    1.8870 O   0  0  0  0  0  0  0  0  0  0  0  0
  2  1  1  6
  2  3  1  0
  2  7  1  0
  3  4  1  0
  4  5  2  0
  4  6  1  0
  7  8  2  0
  7 18  1  0
  8  9  1  0
  9 10  2  0
 10 11  1  0
 10 17  1  0
 11 12  2  0
 12 13  1  0
 12 14  1  0
 14 15  1  0
 15 16  2  0
 15 17  1  0
 17 18  2  0
 18 19  1  0
M  END
