
     RDKit          3D

 19 20  0  0  0  0  0  0  0  0999 V2000
   -4.6560   -0.4740   -2.0610 O   0  0  0  0  0  0  0  0  0  0  0  0
   -5.3200   -0.5210   -0.9860 C   0  0  0  0  0  0  0  0  0  0  0  0
   -4.9040    0.2570    0.1070 N   0  0  0  0  0  0  0  0  0  0  0  0
   -3.7860    1.0970    0.0920 N   0  0  0  0  0  0  0  0  0  0  0  0
   -2.4490    0.5590    0.1810 C   0  0  0  0  0  0  0  0  0  0  0  0
   -2.3400   -0.6730    0.2690 O   0  0  0  0  0  0  0  0  0  0  0  0
   -1.3110    1.3690    0.1700 N   0  0  0  0  0  0  0  0  0  0  0  0
    0.0370    0.9770    0.2460 C   0  0  0  0  0  0  0  0  0  0  0  0
    1.0560    1.9300    0.3640 C   0  0  0  0  0  0  0  0  0  0  0  0
    2.3820    1.5980    0.4330 C   0  0  0  0  0  0  0  0  0  0  0  0
    2.7570    0.2680    0.3880 C   0  0  0  0  0  0  0  0  0  0  0  0
    4.0600   -0.0830    0.4550 N   0  0  0  0  0  0  0  0  0  0  0  0
    4.4180   -1.3710    0.4100 C   0  0  0  0  0  0  0  0  0  0  0  0
    5.6490   -1.6920    0.4740 O   0  0  0  0  0  0  0  0  0  0  0  0
    3.4740   -2.3500    0.2960 C   0  0  0  0  0  0  0  0  0  0  0  0
    3.7660   -3.5820    0.2490 O   0  0  0  0  0  0  0  0  0  0  0  0
    2.1570   -2.0320    0.2270 N   0  0  0  0  0  0  0  0  0  0  0  0
    1.8020   -0.7150    0.2730 C   0  0  0  0  0  0  0  0  0  0  0  0
    0.4620   -0.3280    0.2050 C   0  0  0  0  0  0  0  0  0  0  0  0
  1  2  2  0
  2  3  1  0
  3  4  1  0
  4  5  1  0
  5  6  2  0
  5  7  1  0
  7  8  1  0
  8  9  2  0
  8 19  1  0
  9 10  1  0
 10 11  2  0
 11 12  1  0
 11 18  1  0
 12 13  1  0
 13 14  2  0
 13 15  1  0
 15 16  2  0
 15 17  1  0
 17 18  1  0
 18 19  2  0
M  END
