
     RDKit          3D

 19 20  0  0  0  0  0  0  0  0999 V2000
    0.1650    1.7190    0.7940 C   0  0  0  0  0  0  0  0  0  0  0  0
   -0.1650    0.2960    0.5400 C   0  0  0  0  0  0  0  0  0  0  0  0
    0.7760   -0.7560    0.6230 N   0  0  0  0  0  0  0  0  0  0  0  0
    2.0070   -0.7760   -0.0490 C   0  0  0  0  0  0  0  0  0  0  0  0
    3.1140   -0.3920    0.5510 C   0  0  0  0  0  0  0  0  0  0  0  0
    4.4380   -0.3970   -0.1190 C   0  0  2  0  0  0  0  0  0  0  0  0
    4.9310    0.9170   -0.0510 O   0  0  0  0  0  0  0  0  0  0  0  0
    4.4210   -0.8400   -1.4390 O   0  0  0  0  0  0  0  0  0  0  0  0
    3.2470   -1.2290   -2.0210 N   0  0  0  0  0  0  0  0  0  0  0  0
    2.0960   -1.2220   -1.4270 C   0  0  0  0  0  0  0  0  0  0  0  0
   -1.4140    0.0020    0.2160 C   0  0  0  0  0  0  0  0  0  0  0  0
   -1.8300   -1.3730   -0.0520 C   0  0  0  0  0  0  0  0  0  0  0  0
   -0.9680   -2.2010   -0.4450 O   0  0  0  0  0  0  0  0  0  0  0  0
   -3.1880   -1.7300    0.1400 N   0  0  0  0  0  0  0  0  0  0  0  0
   -4.0850   -0.7510    0.5800 N   0  0  0  0  0  0  0  0  0  0  0  0
   -3.6690    0.5800    0.8360 C   0  0  0  0  0  0  0  0  0  0  0  0
   -4.2820    1.3260    1.6410 O   0  0  0  0  0  0  0  0  0  0  0  0
   -2.4700    1.0600    0.1070 C   0  0  2  0  0  0  0  0  0  0  0  0
   -2.8430    1.1890   -1.2900 N   0  0  0  0  0  0  0  0  0  0  0  0
  1  2  1  0
  2  3  1  0
  2 11  2  3
  3  4  1  0
  4  5  2  0
  4 10  1  0
  5  6  1  0
  6  7  1  6
  6  8  1  0
  8  9  1  0
  9 10  2  0
 11 12  1  0
 11 18  1  0
 12 13  2  0
 12 14  1  0
 14 15  1  0
 15 16  1  0
 16 17  2  0
 16 18  1  0
 18 19  1  6
M  END
