
     RDKit          3D

 19 20  0  0  0  0  0  0  0  0999 V2000
    6.8680    1.1670   -0.0420 N   0  0  0  0  0  0  0  0  0  0  0  0
    5.5260    0.7800   -0.2510 C   0  0  0  0  0  0  0  0  0  0  0  0
    4.6870    1.6740   -0.5320 O   0  0  0  0  0  0  0  0  0  0  0  0
    5.0460   -0.5610   -0.1620 N   0  0  0  0  0  0  0  0  0  0  0  0
    3.6950   -0.7930   -0.3870 N   0  0  0  0  0  0  0  0  0  0  0  0
    2.6820   -0.5480    0.5580 C   0  0  0  0  0  0  0  0  0  0  0  0
    3.0050   -0.1040    1.7020 O   0  0  0  0  0  0  0  0  0  0  0  0
    1.3420   -0.7690    0.2970 O   0  0  0  0  0  0  0  0  0  0  0  0
    0.3080   -0.5260    1.2590 C   0  0  0  0  0  0  0  0  0  0  0  0
   -1.0270   -0.8060    0.6270 C   0  0  0  0  0  0  0  0  0  0  0  0
   -1.4420   -1.9870    0.1290 C   0  0  0  0  0  0  0  0  0  0  0  0
   -2.7390   -1.7810   -0.3540 C   0  0  0  0  0  0  0  0  0  0  0  0
   -3.0530   -0.4670   -0.1220 C   0  0  0  0  0  0  0  0  0  0  0  0
   -4.2920    0.2630   -0.4330 C   0  0  0  0  0  0  0  0  0  0  0  0
   -4.5150    1.5740   -0.0900 C   0  0  0  0  0  0  0  0  0  0  0  0
   -5.7610    1.9780   -0.5460 C   0  0  0  0  0  0  0  0  0  0  0  0
   -6.2610    0.8680   -1.1630 N   0  0  0  0  0  0  0  0  0  0  0  0
   -5.3810   -0.1300   -1.0850 N   0  0  0  0  0  0  0  0  0  0  0  0
   -1.9900    0.0830    0.4730 O   0  0  0  0  0  0  0  0  0  0  0  0
  1  2  1  0
  2  3  2  0
  2  4  1  0
  4  5  1  0
  5  6  1  0
  6  7  2  0
  6  8  1  0
  8  9  1  0
  9 10  1  0
 10 11  2  0
 10 19  1  0
 11 12  1  0
 12 13  2  0
 13 14  1  0
 13 19  1  0
 14 15  1  0
 14 18  2  0
 15 16  2  0
 16 17  1  0
 17 18  1  0
M  END
