
     RDKit          3D

 22 24  0  0  0  0  0  0  0  0999 V2000
    1.3370   -0.2310   -2.1370 C   0  0  0  0  0  0  0  0  0  0  0  0
    0.5190   -0.8760   -0.8510 S   0  0  0  0  0  0  0  0  0  0  0  0
   -0.6670   -0.8030   -1.4490 O   0  0  0  0  0  0  0  0  0  0  0  0
   -0.0170   -0.0830    0.4390 N   0  0  0  0  0  0  0  0  0  0  0  0
   -1.2280    0.7740    0.4130 C   0  0  1  0  0  0  0  0  0  0  0  0
   -1.2050    1.7340   -0.6890 C   0  0  0  0  0  0  0  0  0  0  0  0
   -2.3680    2.6860   -0.8280 C   0  0  0  0  0  0  0  0  0  0  0  0
   -2.6550    3.6720    0.6060 Cl  0  0  0  0  0  0  0  0  0  0  0  0
   -2.3770   -0.0170    0.8050 C   0  0  1  0  0  0  0  0  0  0  0  0
   -3.7620    0.4640    0.9310 C   0  0  0  0  0  0  0  0  0  0  0  0
   -4.1180   -1.0600    1.0050 C   0  0  0  0  0  0  0  0  0  0  0  0
   -2.9090   -1.1790    0.0280 C   0  0  0  0  0  0  0  0  0  0  0  0
    0.2920   -2.6420   -0.8050 C   0  0  0  0  0  0  0  0  0  0  0  0
    1.2440   -3.2430   -0.2150 C   0  0  0  0  0  0  0  0  0  0  0  0
    2.3070   -2.4050    0.2880 C   0  0  0  0  0  0  0  0  0  0  0  0
    3.7330   -3.1100    1.1440 Cl  0  0  0  0  0  0  0  0  0  0  0  0
    2.0110   -1.2050   -0.0010 C   0  0  0  0  0  0  0  0  0  0  0  0
    2.9880   -0.0560    0.3900 C   0  0  0  0  0  0  0  0  0  0  0  0
    2.7920    1.1870    0.1070 C   0  0  0  0  0  0  0  0  0  0  0  0
    3.7720    2.1920    0.5220 C   0  0  0  0  0  0  0  0  0  0  0  0
    4.9240    1.2320    1.5130 S   0  0  0  0  0  0  0  0  0  0  0  0
    4.2010   -0.3840    1.1390 C   0  0  0  0  0  0  0  0  0  0  0  0
  1  2  1  0
  2  3  2  0
  2  4  1  0
  2 13  1  0
  2 17  1  0
  4  5  1  0
  5  6  1  6
  5  9  1  0
  6  7  1  0
  7  8  1  0
  9 10  1  6
  9 12  1  0
 10 11  1  0
 11 12  1  0
 13 14  2  0
 14 15  1  0
 15 16  1  0
 15 17  2  0
 17 18  1  0
 18 19  2  0
 18 22  1  0
 19 20  1  0
 20 21  1  0
 21 22  1  0
M  CHG  1   4   1
M  END
