
     RDKit          3D

 21 23  0  0  0  0  0  0  0  0999 V2000
    4.9760    0.6790   -0.4510 O   0  0  0  0  0  0  0  0  0  0  0  0
    4.2540   -0.5530   -0.3490 C   0  0  0  0  0  0  0  0  0  0  0  0
    2.9690   -0.6410   -0.4350 C   0  0  0  0  0  0  0  0  0  0  0  0
    2.0730    0.5680   -0.6580 C   0  0  0  0  0  0  0  0  0  0  0  0
    1.1460    0.7290    0.4190 N   0  0  0  0  0  0  0  0  0  0  0  0
   -0.2370    0.4140    0.0260 C   0  0  1  0  0  0  0  0  0  0  0  0
   -0.7790   -0.5410    1.0240 C   0  0  0  0  0  0  0  0  0  0  0  0
   -2.2540   -0.7700    0.9580 C   0  0  2  0  0  0  0  0  0  0  0  0
   -2.7460   -1.1460   -0.4010 C   0  0  2  0  0  0  0  0  0  0  0  0
   -4.1760   -1.4130   -0.6630 C   0  0  0  0  0  0  0  0  0  0  0  0
   -3.2730   -2.5880   -0.5660 C   0  0  0  0  0  0  0  0  0  0  0  0
   -3.0120    0.4450    1.5120 C   0  0  0  0  0  0  0  0  0  0  0  0
   -2.6960    1.7990    0.3520 S   0  0  0  0  0  0  0  0  0  0  0  0
   -0.9700    1.6760   -0.1100 C   0  0  0  0  0  0  0  0  0  0  0  0
   -0.4100    2.7880   -0.5770 C   0  0  0  0  0  0  0  0  0  0  0  0
   -1.1110    4.0730   -0.7280 C   0  0  1  0  0  0  0  0  0  0  0  0
   -0.0010    5.4600   -0.6260 Cl  0  0  0  0  0  0  0  0  0  0  0  0
   -2.0250    4.1190   -2.2480 Cl  0  0  0  0  0  0  0  0  0  0  0  0
    2.3470   -1.9690   -0.3130 C   0  0  0  0  0  0  0  0  0  0  0  0
    3.8090   -3.0350   -0.6540 S   0  0  0  0  0  0  0  0  0  0  0  0
    5.0280   -1.7890   -0.1320 C   0  0  0  0  0  0  0  0  0  0  0  0
  1  2  1  0
  2  3  2  0
  2 21  1  0
  3  4  1  0
  3 19  1  0
  4  5  1  0
  6  5  1  1
  6  7  1  0
  6 14  1  0
  8  7  1  6
  8  9  1  0
  8 12  1  0
  9 10  1  1
  9 11  1  0
 10 11  1  0
 12 13  1  0
 13 14  1  0
 14 15  2  3
 15 16  1  0
 16 17  1  6
 16 18  1  0
 19 20  1  0
 20 21  1  0
M  CHG  1   5   1
M  END
