
     RDKit          3D

 22 23  0  0  0  0  0  0  0  0999 V2000
    5.1220    1.3890    0.8470 C   0  0  0  0  0  0  0  0  0  0  0  0
    4.9320   -0.0440    0.4910 C   0  0  0  0  0  0  0  0  0  0  0  0
    3.7530   -0.5050    0.1420 C   0  0  0  0  0  0  0  0  0  0  0  0
    2.5730    0.3140    0.0750 C   0  0  0  0  0  0  0  0  0  0  0  0
    2.6930    1.5690    0.3530 O   0  0  0  0  0  0  0  0  0  0  0  0
    1.1940   -0.1230   -0.2900 C   0  0  0  0  0  0  0  0  0  0  0  0
    0.2500    0.7110    0.0480 C   0  0  0  0  0  0  0  0  0  0  0  0
   -1.2240    0.7360   -0.0840 C   0  0  0  0  0  0  0  0  0  0  0  0
   -1.7380    1.8510    0.4170 C   0  0  0  0  0  0  0  0  0  0  0  0
   -3.0030    2.4650    0.5960 C   0  0  0  0  0  0  0  0  0  0  0  0
   -3.1530    4.0450   -0.2490 Cl  0  0  0  0  0  0  0  0  0  0  0  0
   -1.8620   -0.3320   -0.6760 N   0  0  0  0  0  0  0  0  0  0  0  0
   -3.2150   -0.6790   -0.5140 C   0  0  2  0  0  0  0  0  0  0  0  0
   -4.1310   -0.0080   -1.4160 C   0  0  0  0  0  0  0  0  0  0  0  0
   -5.4060   -0.0180   -1.1100 C   0  0  0  0  0  0  0  0  0  0  0  0
   -5.5470   -0.9260    0.4290 S   0  0  0  0  0  0  0  0  0  0  0  0
   -3.7530   -0.8960    0.8420 C   0  0  0  0  0  0  0  0  0  0  0  0
    0.9830   -1.4020   -0.9800 C   0  0  0  0  0  0  0  0  0  0  0  0
    2.5280   -2.2180   -1.5670 S   0  0  0  0  0  0  0  0  0  0  0  0
    3.6840   -1.9450   -0.1730 C   0  0  0  0  0  0  0  0  0  0  0  0
    4.2790   -2.9010    0.4090 C   0  0  0  0  0  0  0  0  0  0  0  0
    5.3430   -2.6850    1.7650 Cl  0  0  0  0  0  0  0  0  0  0  0  0
  1  2  1  0
  2  3  2  3
  3  4  1  0
  3 20  1  0
  4  5  2  0
  4  6  1  0
  6  7  2  3
  6 18  1  0
  7  8  1  0
  8  9  2  3
  8 12  1  0
  9 10  1  0
 10 11  1  0
 13 12  1  1
 13 14  1  0
 13 17  1  0
 14 15  2  0
 15 16  1  0
 16 17  1  0
 18 19  1  0
 19 20  1  0
 20 21  2  3
 21 22  1  0
M  CHG  1  12   1
M  END
