
     RDKit          3D

 22 25  0  0  0  0  0  0  0  0999 V2000
    1.1030   -2.4390   -1.6130 O   0  0  0  0  0  0  0  0  0  0  0  0
    1.5580   -1.3910   -1.0380 C   0  0  0  0  0  0  0  0  0  0  0  0
    2.9190   -1.2560   -0.9420 C   0  0  0  0  0  0  0  0  0  0  0  0
    3.6270   -0.2380   -0.3850 C   0  0  0  0  0  0  0  0  0  0  0  0
    3.1030    0.8710    0.2010 C   0  0  0  0  0  0  0  0  0  0  0  0
    1.3710    0.8620    0.1670 S   0  0  0  0  0  0  0  0  0  0  0  0
    0.6470   -0.4870   -0.5670 C   0  0  0  0  0  0  0  0  0  0  0  0
   -0.6540   -0.7200   -0.5500 C   0  0  0  0  0  0  0  0  0  0  0  0
   -1.2680   -2.0030   -1.0220 C   0  0  0  0  0  0  0  0  0  0  0  0
   -2.6870   -2.0990   -0.4710 C   0  0  0  0  0  0  0  0  0  0  0  0
   -2.7310   -1.5480    0.8970 N   0  0  0  0  0  0  0  0  0  0  0  0
   -2.6240   -0.1240    0.7100 C   0  0  0  0  0  0  0  0  0  0  0  0
   -3.5190    0.7570    1.2270 C   0  0  0  0  0  0  0  0  0  0  0  0
   -4.8360    0.2520    2.2700 Cl  0  0  0  0  0  0  0  0  0  0  0  0
   -3.3940    2.1250    0.9200 C   0  0  0  0  0  0  0  0  0  0  0  0
   -2.3690    2.5460    0.1000 C   0  0  0  0  0  0  0  0  0  0  0  0
   -1.4510    1.6270   -0.4280 C   0  0  0  0  0  0  0  0  0  0  0  0
   -0.2100    2.1190   -1.5450 Cl  0  0  0  0  0  0  0  0  0  0  0  0
   -1.5890    0.3180   -0.1140 C   0  0  0  0  0  0  0  0  0  0  0  0
    3.8820    1.7590    0.6900 C   0  0  0  0  0  0  0  0  0  0  0  0
    5.3380    1.5460    0.6000 C   0  0  0  0  0  0  0  0  0  0  0  0
    5.4050   -0.0470   -0.2520 S   0  0  0  0  0  0  0  0  0  0  0  0
  1  2  2  0
  2  3  1  0
  2  7  1  0
  3  4  2  0
  4  5  1  0
  4 22  1  0
  5  6  1  0
  5 20  2  0
  6  7  1  0
  7  8  2  3
  8  9  1  0
  8 19  1  0
  9 10  1  0
 10 11  1  0
 11 12  1  0
 12 13  2  0
 12 19  1  0
 13 14  1  0
 13 15  1  0
 15 16  2  0
 16 17  1  0
 17 18  1  0
 17 19  2  0
 20 21  1  0
 21 22  1  0
M  CHG  1  11   1
M  END
