
     RDKit          3D

 22 24  0  0  0  0  0  0  0  0999 V2000
   -7.5650   -0.6090   -0.8820 S   0  0  0  0  0  0  0  0  0  0  0  0
   -6.0550   -0.7850   -1.8130 C   0  0  0  0  0  0  0  0  0  0  0  0
   -4.7350   -1.2750   -1.0960 S   0  0  0  0  0  0  0  0  0  0  0  0
   -4.9450   -1.5980    0.6130 C   0  0  0  0  0  0  0  0  0  0  0  0
   -6.2640   -2.6300    1.1940 Cl  0  0  0  0  0  0  0  0  0  0  0  0
   -4.1310   -1.0840    1.4970 C   0  0  0  0  0  0  0  0  0  0  0  0
   -3.0090   -0.2220    1.1610 C   0  0  0  0  0  0  0  0  0  0  0  0
   -2.6680    0.1480   -0.0460 C   0  0  0  0  0  0  0  0  0  0  0  0
   -1.4710    1.0520   -0.2520 C   0  0  0  0  0  0  0  0  0  0  0  0
   -0.8320    1.4010    0.9850 N   0  0  0  0  0  0  0  0  0  0  0  0
    0.1980    2.3790    0.8090 C   0  0  0  0  0  0  0  0  0  0  0  0
    1.4910    1.7490    0.4710 C   0  0  0  0  0  0  0  0  0  0  0  0
    1.7330    0.4770    0.3350 C   0  0  0  0  0  0  0  0  0  0  0  0
    3.0890   -0.0040   -0.0090 C   0  0  0  0  0  0  0  0  0  0  0  0
    3.3490   -1.2830   -0.1500 C   0  0  0  0  0  0  0  0  0  0  0  0
    4.6700   -1.7980   -0.4870 C   0  0  2  0  0  0  0  0  0  0  0  0
    5.7560   -1.9100    0.5150 C   0  0  0  0  0  0  0  0  0  0  0  0
    5.7740   -0.8510   -0.5780 C   0  0  2  0  0  0  0  0  0  0  0  0
    5.4930    0.5390   -0.0870 C   0  0  0  0  0  0  0  0  0  0  0  0
    4.1330    0.8920   -0.1930 O   0  0  0  0  0  0  0  0  0  0  0  0
   -3.3320   -0.2170   -1.3230 C   0  0  1  0  0  0  0  0  0  0  0  0
   -2.1380   -1.0980   -2.3270 Cl  0  0  0  0  0  0  0  0  0  0  0  0
  1  2  1  0
  2  3  2  3
  3  4  1  1
  3 21  1  0
  4  5  1  0
  4  6  2  0
  6  7  1  0
  7  8  2  0
  8  9  1  0
  8 21  1  0
  9 10  1  0
 10 11  1  0
 11 12  1  0
 12 13  2  3
 13 14  1  0
 14 15  2  0
 14 20  1  0
 15 16  1  0
 16 17  1  1
 16 18  1  0
 18 17  1  1
 18 19  1  0
 19 20  1  0
 21 22  1  6
M  CHG  1  10   1
M  END
