
     RDKit          3D

 22 24  0  0  0  0  0  0  0  0999 V2000
    1.5230   -2.4720    0.7460 O   0  0  0  0  0  0  0  0  0  0  0  0
    1.8360   -1.6530   -0.3410 C   0  0  2  0  0  0  0  0  0  0  0  0
    2.7560   -0.6370    0.0960 C   0  0  0  0  0  0  0  0  0  0  0  0
    3.8850   -0.8890    0.8780 C   0  0  0  0  0  0  0  0  0  0  0  0
    4.6480    0.1220    1.2250 C   0  0  0  0  0  0  0  0  0  0  0  0
    4.3320    1.4320    0.8160 C   0  0  0  0  0  0  0  0  0  0  0  0
    5.0970    2.9750    1.0820 S   0  0  0  0  0  0  0  0  0  0  0  0
    2.8300    1.0790   -0.1190 S   0  0  0  0  0  0  0  0  0  0  0  0
    0.6040   -1.2060   -0.9890 C   0  0  2  0  0  0  0  0  0  0  0  0
    0.7210   -0.3320   -2.1730 C   0  0  0  0  0  0  0  0  0  0  0  0
   -0.2780    0.7970   -2.1290 C   0  0  0  0  0  0  0  0  0  0  0  0
   -1.6300    0.3310   -1.9230 N   0  0  0  0  0  0  0  0  0  0  0  0
   -1.7540   -0.4300   -0.6930 C   0  0  2  0  0  0  0  0  0  0  0  0
   -2.7810    0.1050    0.2040 C   0  0  0  0  0  0  0  0  0  0  0  0
   -4.0400    0.2680   -0.1880 C   0  0  0  0  0  0  0  0  0  0  0  0
   -5.1040    0.7990    0.6730 C   0  0  2  0  0  0  0  0  0  0  0  0
   -4.8650    2.4640    1.1980 Cl  0  0  0  0  0  0  0  0  0  0  0  0
   -5.3640   -0.3330    2.0190 Cl  0  0  0  0  0  0  0  0  0  0  0  0
   -2.4260    0.4690    1.5590 C   0  0  0  0  0  0  0  0  0  0  0  0
   -1.2010    0.2850    1.9950 C   0  0  0  0  0  0  0  0  0  0  0  0
   -0.1620   -0.2770    1.1590 C   0  0  0  0  0  0  0  0  0  0  0  0
   -0.4290   -0.6170   -0.0780 C   0  0  0  0  0  0  0  0  0  0  0  0
  2  1  1  1
  2  3  1  0
  2  9  1  0
  3  4  2  0
  3  8  1  0
  4  5  1  0
  5  6  2  0
  6  7  1  0
  6  8  1  0
  9 10  1  6
  9 22  1  0
 10 11  1  0
 11 12  1  0
 13 12  1  6
 13 14  1  0
 13 22  1  0
 14 15  2  3
 14 19  1  0
 15 16  1  0
 16 17  1  1
 16 18  1  0
 19 20  2  0
 20 21  1  0
 21 22  2  0
M  CHG  1  12   1
M  END
