
     RDKit          3D

 17 19  0  0  0  0  0  0  0  0999 V2000
    5.1470    0.3470   -1.0290 N   0  0  0  0  0  0  0  0  0  0  0  0
    4.1700    0.6340   -0.0260 C   0  0  0  0  0  0  0  0  0  0  0  0
    2.7340    0.2420   -0.5460 C   0  0  0  0  0  0  0  0  0  0  0  0
    1.8020    0.5570    0.5120 C   0  0  0  0  0  0  0  0  0  0  0  0
    0.5270    0.4660    0.7040 C   0  0  0  0  0  0  0  0  0  0  0  0
    0.0130    0.9160    1.9520 C   0  0  0  0  0  0  0  0  0  0  0  0
   -1.3200    0.8520    2.2250 C   0  0  0  0  0  0  0  0  0  0  0  0
   -2.2450    0.3620    1.3420 C   0  0  0  0  0  0  0  0  0  0  0  0
   -3.6000    0.3260    1.6890 C   0  0  0  0  0  0  0  0  0  0  0  0
   -4.5090   -0.1620    0.8070 C   0  0  0  0  0  0  0  0  0  0  0  0
   -4.0520   -0.6040   -0.4070 C   0  0  0  0  0  0  0  0  0  0  0  0
   -2.7020   -0.5700   -0.7570 C   0  0  0  0  0  0  0  0  0  0  0  0
   -2.3340   -1.0430   -2.0150 C   0  0  0  0  0  0  0  0  0  0  0  0
   -0.9980   -0.9810   -2.2950 C   0  0  0  0  0  0  0  0  0  0  0  0
   -0.0470   -0.4840   -1.4030 C   0  0  0  0  0  0  0  0  0  0  0  0
   -0.4000   -0.0140   -0.1570 C   0  0  0  0  0  0  0  0  0  0  0  0
   -1.7710   -0.0800    0.1250 C   0  0  0  0  0  0  0  0  0  0  0  0
  1  2  1  0
  2  3  1  0
  3  4  1  0
  4  5  2  3
  5  6  1  0
  5 16  1  0
  6  7  2  0
  7  8  1  0
  8  9  1  0
  8 17  2  0
  9 10  2  0
 10 11  1  0
 11 12  2  0
 12 13  1  0
 12 17  1  0
 13 14  2  0
 14 15  1  0
 15 16  2  0
 16 17  1  0
M  END
