
     RDKit          3D

 23 24  0  0  0  0  0  0  0  0999 V2000
    6.6750   -3.1640   -1.2730 C   0  0  0  0  0  0  0  0  0  0  0  0
    5.5180   -2.9280   -0.6820 C   0  0  0  0  0  0  0  0  0  0  0  0
    5.2480   -3.7520    0.3940 O   0  0  0  0  0  0  0  0  0  0  0  0
    4.6250   -1.8980   -1.1300 C   0  0  0  0  0  0  0  0  0  0  0  0
    3.4290   -1.5760   -0.6010 C   0  0  0  0  0  0  0  0  0  0  0  0
    2.6580   -2.0570    0.4750 C   0  0  0  0  0  0  0  0  0  0  0  0
    3.1360   -3.3690    1.5290 Cl  0  0  0  0  0  0  0  0  0  0  0  0
    1.4810   -1.5260    0.7650 C   0  0  0  0  0  0  0  0  0  0  0  0
    0.4710   -2.2290    2.2530 Br  0  0  0  0  0  0  0  0  0  0  0  0
    0.9050   -0.4480    0.0320 C   0  0  0  0  0  0  0  0  0  0  0  0
   -0.3080    0.0150    0.4220 C   0  0  0  0  0  0  0  0  0  0  0  0
   -0.8830    1.1020   -0.3220 C   0  0  0  0  0  0  0  0  0  0  0  0
   -2.0280    1.6890   -0.1080 C   0  0  0  0  0  0  0  0  0  0  0  0
   -2.5990    2.8000   -0.8860 C   0  0  0  0  0  0  0  0  0  0  0  0
   -4.0370    2.7320   -0.5820 N   0  0  0  0  0  0  0  0  0  0  0  0
   -4.0360    2.4070    0.8450 C   0  0  1  0  0  0  0  0  0  0  0  0
   -5.2840    1.7590    1.3000 C   0  0  0  0  0  0  0  0  0  0  0  0
   -5.0040    0.2940    1.2630 C   0  0  0  0  0  0  0  0  0  0  0  0
   -3.6900    0.1270    0.7030 N   0  0  0  0  0  0  0  0  0  0  0  0
   -2.9780    1.3590    0.9510 C   0  0  1  0  0  0  0  0  0  0  0  0
   -2.3440    1.3490    2.3310 C   0  0  0  0  0  0  0  0  0  0  0  0
    4.9700   -1.1330   -2.1970 O   0  0  0  0  0  0  0  0  0  0  0  0
    5.8630   -0.8430   -3.0960 C   0  0  0  0  0  0  0  0  0  0  0  0
  1  2  2  0
  2  3  1  0
  2  4  1  0
  4  5  2  3
  4 22  1  0
  5  6  1  0
  6  7  1  0
  6  8  2  3
  8  9  1  0
  8 10  1  0
 10 11  2  3
 11 12  1  0
 12 13  2  3
 13 14  1  0
 13 20  1  0
 14 15  1  0
 15 16  1  0
 16 17  1  6
 16 20  1  0
 17 18  1  0
 18 19  1  0
 19 20  1  0
 20 21  1  1
 22 23  1  0
M  CHG  2  15   1  19   1
M  END
