
     RDKit          3D

 23 24  0  0  0  0  0  0  0  0999 V2000
    5.1240   -0.8180   -1.4710 C   0  0  0  0  0  0  0  0  0  0  0  0
    3.9730   -1.2880   -0.8150 O   0  0  0  0  0  0  0  0  0  0  0  0
    3.4800   -0.6950    0.3620 C   0  0  0  0  0  0  0  0  0  0  0  0
    3.8870   -1.2250    1.4850 C   0  0  0  0  0  0  0  0  0  0  0  0
    4.8320   -2.4090    1.4990 C   0  0  0  0  0  0  0  0  0  0  0  0
    4.0410   -3.7770    2.3480 Cl  0  0  0  0  0  0  0  0  0  0  0  0
    2.5890    0.4180    0.2440 C   0  0  0  0  0  0  0  0  0  0  0  0
    2.2580    0.8490   -0.9700 C   0  0  0  0  0  0  0  0  0  0  0  0
    1.3440    1.9920   -1.0560 C   0  0  0  0  0  0  0  0  0  0  0  0
    0.0450    1.7780   -0.2450 C   0  0  1  0  0  0  0  0  0  0  0  0
   -0.7710    0.9550   -1.1080 N   0  0  0  0  0  0  0  0  0  0  0  0
   -2.0450    0.4730   -0.7580 C   0  0  0  0  0  0  0  0  0  0  0  0
   -2.5540    1.1420    0.2110 N   0  0  0  0  0  0  0  0  0  0  0  0
   -3.8120    1.0560    0.9320 C   0  0  0  0  0  0  0  0  0  0  0  0
   -4.1520   -0.4130    1.0370 C   0  0  0  0  0  0  0  0  0  0  0  0
   -5.3020   -0.8410    0.2000 C   0  0  0  0  0  0  0  0  0  0  0  0
   -5.1080   -0.8160   -1.2680 C   0  0  0  0  0  0  0  0  0  0  0  0
   -3.7400   -1.1580   -1.7330 C   0  0  0  0  0  0  0  0  0  0  0  0
   -3.7130   -2.6720   -2.8820 Br  0  0  0  0  0  0  0  0  0  0  0  0
   -2.5270   -0.6640   -1.5440 C   0  0  0  0  0  0  0  0  0  0  0  0
    0.4430    1.1270    1.0120 C   0  0  0  0  0  0  0  0  0  0  0  0
    1.9460    1.1980    1.3260 C   0  0  1  0  0  0  0  0  0  0  0  0
    2.0810    0.6690    2.5930 O   0  0  0  0  0  0  0  0  0  0  0  0
  1  2  1  0
  2  3  1  0
  3  4  2  3
  3  7  1  0
  4  5  1  0
  5  6  1  0
  7  8  2  0
  7 22  1  0
  8  9  1  0
  9 10  1  0
 10 11  1  6
 10 21  1  0
 11 12  1  0
 12 13  2  0
 12 20  1  0
 13 14  1  0
 14 15  1  0
 15 16  1  0
 16 17  1  0
 17 18  1  0
 18 19  1  0
 18 20  2  0
 21 22  1  0
 22 23  1  1
M  CHG  1  13   1
M  END
