
     RDKit          3D

 14 15  0  0  0  0  0  0  0  0999 V2000
    3.6750    1.8460   -1.1120 O   0  0  0  0  0  0  0  0  0  0  0  0
    2.7480    1.0690   -0.7040 C   0  0  0  0  0  0  0  0  0  0  0  0
    1.3210    1.3400   -0.6780 C   0  0  0  0  0  0  0  0  0  0  0  0
    0.7120    0.2870   -0.1860 C   0  0  0  0  0  0  0  0  0  0  0  0
   -0.7400    0.1030    0.0290 C   0  0  0  0  0  0  0  0  0  0  0  0
   -1.6150    1.0650   -0.2840 N   0  0  0  0  0  0  0  0  0  0  0  0
   -2.9300    0.8840   -0.0840 N   0  0  0  0  0  0  0  0  0  0  0  0
   -3.4150   -0.2210    0.4180 N   0  0  0  0  0  0  0  0  0  0  0  0
   -2.5640   -1.2070    0.7430 C   0  0  0  0  0  0  0  0  0  0  0  0
   -3.0210   -2.2760    1.2270 O   0  0  0  0  0  0  0  0  0  0  0  0
   -1.2250   -1.0380    0.5450 N   0  0  0  0  0  0  0  0  0  0  0  0
    1.7150   -0.7130    0.1300 C   0  0  0  0  0  0  0  0  0  0  0  0
    2.9320   -0.2740   -0.1680 C   0  0  0  0  0  0  0  0  0  0  0  0
    4.4640   -1.1030    0.0270 Cl  0  0  0  0  0  0  0  0  0  0  0  0
  1  2  2  0
  2  3  1  0
  2 13  1  0
  3  4  2  0
  4  5  1  0
  4 12  1  0
  5  6  1  0
  5 11  2  0
  6  7  2  0
  7  8  1  0
  8  9  1  0
  9 10  2  0
  9 11  1  0
 12 13  2  0
 13 14  1  0
M  END
