
     RDKit          3D

 18 19  0  0  0  0  0  0  0  0999 V2000
   -5.4240    0.1700   -0.3380 N   0  0  0  0  0  0  0  0  0  0  0  0
   -4.0210    0.0390   -0.1550 C   0  0  0  0  0  0  0  0  0  0  0  0
   -3.1940   -0.1240   -1.1980 N   0  0  0  0  0  0  0  0  0  0  0  0
   -1.8530   -0.2500   -1.0770 C   0  0  0  0  0  0  0  0  0  0  0  0
   -1.0550   -0.4090   -2.1310 N   0  0  0  0  0  0  0  0  0  0  0  0
    0.2390   -0.5280   -1.9880 N   0  0  0  0  0  0  0  0  0  0  0  0
    0.8660   -0.5020   -0.8060 C   0  0  0  0  0  0  0  0  0  0  0  0
    2.3150   -0.6390   -0.7690 C   0  0  0  0  0  0  0  0  0  0  0  0
    3.0550    0.6540   -0.5430 C   0  0  0  0  0  0  0  0  0  0  0  0
    4.5090    0.3450   -0.5340 C   0  0  0  0  0  0  0  0  0  0  0  0
    4.9320   -0.8530   -0.6820 O   0  0  0  0  0  0  0  0  0  0  0  0
    5.5060    1.2920   -0.3710 O   0  0  0  0  0  0  0  0  0  0  0  0
    0.0710   -0.3360    0.3370 C   0  0  0  0  0  0  0  0  0  0  0  0
    0.7240   -0.3130    1.5120 O   0  0  0  0  0  0  0  0  0  0  0  0
   -1.2730   -0.2130    0.1940 C   0  0  0  0  0  0  0  0  0  0  0  0
   -2.1280   -0.0450    1.2690 C   0  0  0  0  0  0  0  0  0  0  0  0
   -1.6360   -0.0090    2.4100 O   0  0  0  0  0  0  0  0  0  0  0  0
   -3.4630    0.0740    1.0670 N   0  0  0  0  0  0  0  0  0  0  0  0
  1  2  1  0
  2  3  2  0
  2 18  1  0
  3  4  1  0
  4  5  2  0
  4 15  1  0
  5  6  1  0
  6  7  2  0
  7  8  1  0
  7 13  1  0
  8  9  1  0
  9 10  1  0
 10 11  2  0
 10 12  1  0
 13 14  1  0
 13 15  2  0
 15 16  1  0
 16 17  2  0
 16 18  1  0
M  END
