
     RDKit          3D

 14 15  0  0  0  0  0  0  0  0999 V2000
   -3.7200    0.3760   -0.0110 C   0  0  0  0  0  0  0  0  0  0  0  0
   -2.3140    0.2420    0.3100 N   0  0  0  0  0  0  0  0  0  0  0  0
   -1.8030    0.0890    1.5040 C   0  0  0  0  0  0  0  0  0  0  0  0
   -0.4940    0.0040    1.3940 N   0  0  0  0  0  0  0  0  0  0  0  0
   -0.1660    0.1060    0.0850 N   0  0  0  0  0  0  0  0  0  0  0  0
    1.2180    0.0410   -0.2890 C   0  0  0  0  0  0  0  0  0  0  0  0
    2.1160   -0.1170    0.6730 C   0  0  0  0  0  0  0  0  0  0  0  0
    3.5570   -0.2000    0.4320 C   0  0  0  0  0  0  0  0  0  0  0  0
    3.8890   -0.0960   -0.8930 O   0  0  0  0  0  0  0  0  0  0  0  0
    3.0140    0.0640   -1.8900 N   0  0  0  0  0  0  0  0  0  0  0  0
    1.7160    0.1350   -1.6360 C   0  0  0  0  0  0  0  0  0  0  0  0
    0.6410    0.3450   -2.9950 Cl  0  0  0  0  0  0  0  0  0  0  0  0
   -1.2870    0.2540   -0.5930 C   0  0  0  0  0  0  0  0  0  0  0  0
   -1.4700    0.3850   -1.8080 O   0  0  0  0  0  0  0  0  0  0  0  0
  1  2  1  0
  2  3  1  0
  2 13  1  0
  3  4  2  0
  4  5  1  0
  5  6  1  0
  5 13  1  0
  6  7  2  0
  6 11  1  0
  7  8  1  0
  8  9  1  0
  9 10  1  0
 10 11  2  0
 11 12  1  0
 13 14  2  0
M  END
