
     RDKit          3D

 14 15  0  0  0  0  0  0  0  0999 V2000
   -3.2920    1.1470    0.0110 O   0  0  0  0  0  0  0  0  0  0  0  0
   -2.4500    0.2370   -0.0800 C   0  0  0  0  0  0  0  0  0  0  0  0
   -2.8360   -1.1050   -0.1390 C   0  0  0  0  0  0  0  0  0  0  0  0
   -4.5200   -1.5390   -0.0870 Cl  0  0  0  0  0  0  0  0  0  0  0  0
   -1.9000   -2.0510   -0.2360 N   0  0  0  0  0  0  0  0  0  0  0  0
   -0.6150   -1.7160   -0.2760 N   0  0  0  0  0  0  0  0  0  0  0  0
   -0.2330   -0.4110   -0.2190 C   0  0  0  0  0  0  0  0  0  0  0  0
   -1.1460    0.5660   -0.1210 N   0  0  0  0  0  0  0  0  0  0  0  0
   -0.6780    1.9440   -0.0630 C   0  0  0  0  0  0  0  0  0  0  0  0
    0.5630    2.0170    0.6630 N   0  0  0  0  0  0  0  0  0  0  0  0
    1.4420    1.0990    0.5860 C   0  0  0  0  0  0  0  0  0  0  0  0
    1.2140   -0.0920   -0.2670 C   0  0  1  0  0  0  0  0  0  0  0  0
    2.0290   -1.2860    0.2430 C   0  0  0  0  0  0  0  0  0  0  0  0
    3.3850   -0.9900    0.2000 O   0  0  0  0  0  0  0  0  0  0  0  0
  1  2  2  0
  2  3  1  0
  2  8  1  0
  3  4  1  0
  3  5  2  0
  5  6  1  0
  6  7  2  0
  7  8  1  0
  7 12  1  0
  8  9  1  0
  9 10  1  0
 10 11  2  0
 11 12  1  0
 12 13  1  1
 13 14  1  0
M  END
