
     RDKit          3D

 13 14  0  0  0  0  0  0  0  0999 V2000
   -3.6820    0.3880    0.3700 C   0  0  0  0  0  0  0  0  0  0  0  0
   -2.2530    0.1650    0.2360 N   0  0  0  0  0  0  0  0  0  0  0  0
   -1.6550   -1.0050   -0.0890 C   0  0  0  0  0  0  0  0  0  0  0  0
   -0.2960   -0.8450   -0.1230 C   0  0  0  0  0  0  0  0  0  0  0  0
    0.7790   -1.6020   -0.3710 N   0  0  0  0  0  0  0  0  0  0  0  0
    2.0190   -1.0920   -0.3120 C   0  0  0  0  0  0  0  0  0  0  0  0
    3.0610   -1.7630   -0.5370 O   0  0  0  0  0  0  0  0  0  0  0  0
    2.2260    0.2210    0.0050 N   0  0  0  0  0  0  0  0  0  0  0  0
    3.5530    0.8000    0.0760 C   0  0  0  0  0  0  0  0  0  0  0  0
    1.1840    0.9980    0.2560 N   0  0  0  0  0  0  0  0  0  0  0  0
   -0.0720    0.5760    0.2190 C   0  0  0  0  0  0  0  0  0  0  0  0
   -1.3250    1.1160    0.4230 C   0  0  0  0  0  0  0  0  0  0  0  0
   -1.5830    2.3030    0.7330 O   0  0  0  0  0  0  0  0  0  0  0  0
  1  2  1  0
  2  3  1  0
  2 12  1  0
  3  4  2  0
  4  5  1  0
  4 11  1  0
  5  6  1  0
  6  7  2  0
  6  8  1  0
  8  9  1  0
  8 10  1  0
 10 11  2  0
 11 12  1  0
 12 13  2  0
M  END
