
     RDKit          3D

 13 14  0  0  0  0  0  0  0  0999 V2000
    3.7360    0.9290   -0.3500 C   0  0  0  0  0  0  0  0  0  0  0  0
    2.3370    0.5600   -0.2580 N   0  0  0  0  0  0  0  0  0  0  0  0
    1.8730   -0.6710   -0.5350 C   0  0  0  0  0  0  0  0  0  0  0  0
    0.4980   -0.6740   -0.3460 C   0  0  0  0  0  0  0  0  0  0  0  0
   -0.4960   -1.6310   -0.4730 C   0  0  0  0  0  0  0  0  0  0  0  0
   -0.1290   -2.7740   -0.8400 O   0  0  0  0  0  0  0  0  0  0  0  0
   -1.7590   -1.2940   -0.2050 N   0  0  0  0  0  0  0  0  0  0  0  0
   -2.0950   -0.0750    0.1790 N   0  0  0  0  0  0  0  0  0  0  0  0
   -3.4920    0.2500    0.4630 C   0  0  0  0  0  0  0  0  0  0  0  0
   -1.1480    0.8740    0.3110 C   0  0  0  0  0  0  0  0  0  0  0  0
   -1.4580    2.0380    0.6760 O   0  0  0  0  0  0  0  0  0  0  0  0
    0.1840    0.6090    0.0530 C   0  0  0  0  0  0  0  0  0  0  0  0
    1.3100    1.3410    0.1000 N   0  0  0  0  0  0  0  0  0  0  0  0
  1  2  1  0
  2  3  1  0
  2 13  1  0
  3  4  2  0
  4  5  1  0
  4 12  1  0
  5  6  2  0
  5  7  1  0
  7  8  1  0
  8  9  1  0
  8 10  1  0
 10 11  2  0
 10 12  1  0
 12 13  2  0
M  END
