
     RDKit          3D

 29 31  0  0  0  0  0  0  0  0999 V2000
   -0.3470   -0.8590    1.9050 O   0  0  0  0  0  0  0  0  0  0  0  0
   -0.1970    0.2940    1.4910 C   0  0  0  0  0  0  0  0  0  0  0  0
    1.1060    0.8630    1.6350 N   0  0  0  0  0  0  0  0  0  0  0  0
    2.3810   -0.0850    2.3700 S   0  0  0  0  0  0  0  0  0  0  0  0
    3.4040   -0.7350    1.0670 C   0  0  0  0  0  0  0  0  0  0  0  0
    3.1220   -0.4610   -0.1130 O   0  0  0  0  0  0  0  0  0  0  0  0
    4.5300   -1.5550    1.3270 N   0  0  0  0  0  0  0  0  0  0  0  0
    5.4240   -2.1250    0.3730 C   0  0  0  0  0  0  0  0  0  0  0  0
    6.2050   -1.1620   -0.4680 C   0  0  2  0  0  0  0  0  0  0  0  0
    7.1660   -0.3350    0.3680 C   0  0  0  0  0  0  0  0  0  0  0  0
    7.0730    1.1290    0.0790 C   0  0  0  0  0  0  0  0  0  0  0  0
    6.9260    1.4290   -1.3920 C   0  0  0  0  0  0  0  0  0  0  0  0
    5.9930    0.4830   -2.0910 C   0  0  0  0  0  0  0  0  0  0  0  0
    5.3830   -0.3740   -1.2110 O   0  0  0  0  0  0  0  0  0  0  0  0
   -1.2670    1.0150    0.9030 N   0  0  0  0  0  0  0  0  0  0  0  0
   -2.5800    0.5300    0.7240 C   0  0  0  0  0  0  0  0  0  0  0  0
   -3.0350   -0.7020    1.0900 C   0  0  0  0  0  0  0  0  0  0  0  0
   -4.3660   -1.0540    0.8530 C   0  0  0  0  0  0  0  0  0  0  0  0
   -5.2360   -0.1760    0.2520 C   0  0  0  0  0  0  0  0  0  0  0  0
   -4.7690    1.0600   -0.1130 N   0  0  0  0  0  0  0  0  0  0  0  0
   -3.4900    1.3860    0.1200 C   0  0  0  0  0  0  0  0  0  0  0  0
   -3.1530    2.5550   -0.2540 O   0  0  0  0  0  0  0  0  0  0  0  0
   -5.6780    2.0040   -0.7550 C   0  0  0  0  0  0  0  0  0  0  0  0
   -7.0890    1.7670   -0.3330 C   0  0  0  0  0  0  0  0  0  0  0  0
   -7.4480    0.4080   -0.6050 O   0  0  0  0  0  0  0  0  0  0  0  0
   -6.6110   -0.5470    0.0140 C   0  0  0  0  0  0  0  0  0  0  0  0
   -7.0950   -1.7190    0.3470 C   0  0  0  0  0  0  0  0  0  0  0  0
   -8.5430   -2.0550    0.0740 C   0  0  0  0  0  0  0  0  0  0  0  0
   -9.1850   -1.0070   -0.5250 F   0  0  0  0  0  0  0  0  0  0  0  0
  1  2  2  0
  2  3  1  0
  2 15  1  0
  3  4  1  0
  4  5  1  0
  5  6  2  0
  5  7  1  0
  7  8  1  0
  9  8  1  1
  9 10  1  0
  9 14  1  0
 10 11  1  0
 11 12  1  0
 12 13  1  0
 13 14  1  0
 15 16  1  0
 16 17  2  0
 16 21  1  0
 17 18  1  0
 18 19  2  0
 19 20  1  0
 19 26  1  0
 20 21  1  0
 20 23  1  0
 21 22  2  0
 23 24  1  0
 24 25  1  0
 25 26  1  0
 26 27  2  3
 27 28  1  0
 28 29  1  0
M  END
