
     RDKit          3D

 29 31  0  0  0  0  0  0  0  0999 V2000
   -9.6040   -0.3270    0.5480 C   0  0  0  0  0  0  0  0  0  0  0  0
   -8.4390   -1.0450    0.8870 O   0  0  0  0  0  0  0  0  0  0  0  0
   -7.1660   -0.5430    0.7880 C   0  0  0  0  0  0  0  0  0  0  0  0
   -6.9040    0.7290    0.3650 C   0  0  0  0  0  0  0  0  0  0  0  0
   -5.5900    1.1750    0.3060 C   0  0  0  0  0  0  0  0  0  0  0  0
   -4.5440    0.3650    0.6650 C   0  0  0  0  0  0  0  0  0  0  0  0
   -3.2430    0.8890    0.6140 N   0  0  0  0  0  0  0  0  0  0  0  0
   -2.1070    0.2410    0.0070 C   0  0  0  0  0  0  0  0  0  0  0  0
   -2.1620   -0.8270   -0.4950 O   0  0  0  0  0  0  0  0  0  0  0  0
   -0.8580    0.9420    0.0550 N   0  0  0  0  0  0  0  0  0  0  0  0
    0.3510    0.4920   -0.4290 C   0  0  0  0  0  0  0  0  0  0  0  0
    0.6750   -0.5910   -1.2200 C   0  0  0  0  0  0  0  0  0  0  0  0
    2.0060   -0.9440   -1.4740 C   0  0  0  0  0  0  0  0  0  0  0  0
    3.0300   -0.1850   -0.9140 C   0  0  0  0  0  0  0  0  0  0  0  0
    4.3590   -0.5910   -1.0120 C   0  0  0  0  0  0  0  0  0  0  0  0
    4.5740   -1.6030   -1.7020 O   0  0  0  0  0  0  0  0  0  0  0  0
    5.3810    0.0410   -0.3750 N   0  0  0  0  0  0  0  0  0  0  0  0
    6.6650   -0.4630   -0.3050 C   0  0  0  0  0  0  0  0  0  0  0  0
    7.7160   -0.2390   -1.3300 C   0  0  0  0  0  0  0  0  0  0  0  0
    8.8080   -0.9650   -0.6910 O   0  0  0  0  0  0  0  0  0  0  0  0
   10.0820    0.1790   -0.4000 S   0  0  0  0  0  0  0  0  0  0  0  0
    5.0120    1.1430    0.3880 C   0  0  0  0  0  0  0  0  0  0  0  0
    5.9040    1.8030    0.9660 O   0  0  0  0  0  0  0  0  0  0  0  0
    3.7580    1.5250    0.4950 N   0  0  0  0  0  0  0  0  0  0  0  0
    2.7420    0.9030   -0.1300 C   0  0  0  0  0  0  0  0  0  0  0  0
    1.4390    1.2160    0.0940 C   0  0  0  0  0  0  0  0  0  0  0  0
   -4.7640   -0.9610    1.1000 C   0  0  0  0  0  0  0  0  0  0  0  0
   -6.0660   -1.3450    1.1380 C   0  0  0  0  0  0  0  0  0  0  0  0
   -6.3470   -2.6120    1.5600 F   0  0  0  0  0  0  0  0  0  0  0  0
  1  2  1  0
  2  3  1  0
  3  4  2  0
  3 28  1  0
  4  5  1  0
  5  6  2  0
  6  7  1  0
  6 27  1  0
  7  8  1  0
  8  9  2  0
  8 10  1  0
 10 11  1  0
 11 12  2  0
 11 26  1  0
 12 13  1  0
 13 14  2  0
 14 15  1  0
 14 25  1  0
 15 16  2  0
 15 17  1  0
 17 18  1  0
 17 22  1  0
 18 19  1  0
 19 20  1  0
 20 21  1  0
 22 23  2  0
 22 24  1  0
 24 25  1  0
 25 26  2  0
 27 28  2  0
 28 29  1  0
M  END
