
     RDKit          3D

 29 32  0  0  0  0  0  0  0  0999 V2000
   -4.8610    2.8100   -0.3800 C   0  0  0  0  0  0  0  0  0  0  0  0
   -6.2680    2.6680    0.0070 C   0  0  0  0  0  0  0  0  0  0  0  0
   -6.7710    1.5220    0.3980 C   0  0  0  0  0  0  0  0  0  0  0  0
   -6.0810    0.2550    0.5170 C   0  0  0  0  0  0  0  0  0  0  0  0
   -6.7750   -0.9000    0.9320 C   0  0  0  0  0  0  0  0  0  0  0  0
   -5.8140   -1.8920    0.9300 C   0  0  0  0  0  0  0  0  0  0  0  0
   -4.6220   -1.3280    0.5320 C   0  0  0  0  0  0  0  0  0  0  0  0
   -3.3680   -2.0500    0.4050 C   0  0  0  0  0  0  0  0  0  0  0  0
   -3.3990   -3.3150    0.6280 O   0  0  0  0  0  0  0  0  0  0  0  0
   -2.1450   -1.4350    0.0570 N   0  0  0  0  0  0  0  0  0  0  0  0
   -0.8920   -2.0330   -0.0820 C   0  0  0  0  0  0  0  0  0  0  0  0
   -0.6830   -3.4030    0.0980 C   0  0  0  0  0  0  0  0  0  0  0  0
    0.5730   -3.9680   -0.0290 C   0  0  0  0  0  0  0  0  0  0  0  0
    1.6540   -3.1370   -0.3460 C   0  0  0  0  0  0  0  0  0  0  0  0
    1.4580   -1.8080   -0.5210 C   0  0  0  0  0  0  0  0  0  0  0  0
    2.5990   -1.1270   -0.8220 C   0  0  0  0  0  0  0  0  0  0  0  0
    2.5390    0.2590   -1.0260 C   0  0  0  0  0  0  0  0  0  0  0  0
    3.7980    0.9150   -1.3370 C   0  0  0  0  0  0  0  0  0  0  0  0
    3.8830    2.3850   -1.1140 C   0  0  0  0  0  0  0  0  0  0  0  0
    3.6690    2.7700    0.3220 C   0  0  0  0  0  0  0  0  0  0  0  0
    4.6390    2.1350    1.2470 C   0  0  0  0  0  0  0  0  0  0  0  0
    5.9890    2.7330    1.5420 C   0  0  0  0  0  0  0  0  0  0  0  0
    4.3850    1.0750    1.8280 O   0  0  0  0  0  0  0  0  0  0  0  0
    1.2980    0.8630   -0.9100 C   0  0  0  0  0  0  0  0  0  0  0  0
    0.1520    0.1270   -0.6000 C   0  0  0  0  0  0  0  0  0  0  0  0
    0.2070   -1.2500   -0.3950 C   0  0  0  0  0  0  0  0  0  0  0  0
    3.7140   -2.1020   -0.8700 C   0  0  0  0  0  0  0  0  0  0  0  0
    3.0870   -3.4390   -0.5410 C   0  0  0  0  0  0  0  0  0  0  0  0
   -4.8320   -0.0700    0.3010 O   0  0  0  0  0  0  0  0  0  0  0  0
  1  2  1  0
  2  3  2  3
  3  4  1  0
  4  5  2  0
  4 29  1  0
  5  6  1  0
  6  7  2  0
  7  8  1  0
  7 29  1  0
  8  9  2  0
  8 10  1  0
 10 11  1  0
 11 12  2  0
 11 26  1  0
 12 13  1  0
 13 14  2  0
 14 15  1  0
 14 28  1  0
 15 16  2  0
 15 26  1  0
 16 17  1  0
 16 27  1  0
 17 18  1  0
 17 24  2  0
 18 19  1  0
 19 20  1  0
 20 21  1  0
 21 22  1  0
 21 23  2  0
 24 25  1  0
 25 26  2  0
 27 28  1  0
M  END
