
     RDKit          3D

 29 31  0  0  0  0  0  0  0  0999 V2000
   -3.0650   -5.1620   -0.3390 C   0  0  0  0  0  0  0  0  0  0  0  0
   -2.2160   -4.0300   -0.5690 N   0  0  0  0  0  0  0  0  0  0  0  0
   -2.5720   -2.6970   -0.2490 C   0  0  0  0  0  0  0  0  0  0  0  0
   -3.6930   -2.4670    0.2660 O   0  0  0  0  0  0  0  0  0  0  0  0
   -1.6180   -1.6300   -0.5330 C   0  0  0  0  0  0  0  0  0  0  0  0
   -0.4890   -1.7970   -1.0440 N   0  0  0  0  0  0  0  0  0  0  0  0
    0.5310   -0.9240   -1.3800 C   0  0  0  0  0  0  0  0  0  0  0  0
    0.5870   -0.3600   -2.6500 C   0  0  0  0  0  0  0  0  0  0  0  0
    1.6190    0.4900   -2.9400 C   0  0  0  0  0  0  0  0  0  0  0  0
    1.6450    0.9930   -4.1120 O   0  0  0  0  0  0  0  0  0  0  0  0
    2.5690    0.7900   -2.0380 N   0  0  0  0  0  0  0  0  0  0  0  0
    2.5480    0.2590   -0.7890 C   0  0  0  0  0  0  0  0  0  0  0  0
    3.5400    0.5790    0.1350 C   0  0  0  0  0  0  0  0  0  0  0  0
    3.5460    0.0600    1.3980 C   0  0  0  0  0  0  0  0  0  0  0  0
    4.5420    0.3910    2.3020 O   0  0  0  0  0  0  0  0  0  0  0  0
    5.5810    1.2640    1.9680 C   0  0  0  0  0  0  0  0  0  0  0  0
    2.5140   -0.8080    1.7330 C   0  0  0  0  0  0  0  0  0  0  0  0
    2.5230   -1.3200    2.9840 F   0  0  0  0  0  0  0  0  0  0  0  0
    1.5240   -1.1350    0.8310 C   0  0  0  0  0  0  0  0  0  0  0  0
    1.5250   -0.6030   -0.4570 C   0  0  0  0  0  0  0  0  0  0  0  0
   -2.0390   -0.2150   -0.1780 C   0  0  0  0  0  0  0  0  0  0  0  0
   -2.9090    0.3790    0.2780 N   0  0  0  0  0  0  0  0  0  0  0  0
   -3.0430    1.6720    0.4870 C   0  0  0  0  0  0  0  0  0  0  0  0
   -4.2420    2.3680    1.1040 C   0  0  0  0  0  0  0  0  0  0  0  0
   -1.9590    2.4210    0.0900 C   0  0  0  0  0  0  0  0  0  0  0  0
   -1.6590    3.8370    0.1200 C   0  0  0  0  0  0  0  0  0  0  0  0
   -0.5940    4.3340   -0.2950 O   0  0  0  0  0  0  0  0  0  0  0  0
   -2.6160    4.6680    0.6410 O   0  0  0  0  0  0  0  0  0  0  0  0
   -0.8320    1.1820   -0.5560 S   0  0  0  0  0  0  0  0  0  0  0  0
  1  2  1  0
  2  3  1  0
  3  4  2  0
  3  5  1  0
  5  6  2  3
  5 21  1  0
  6  7  1  0
  7  8  2  0
  7 20  1  0
  8  9  1  0
  9 10  2  0
  9 11  1  0
 11 12  1  0
 12 13  2  0
 12 20  1  0
 13 14  1  0
 14 15  1  0
 14 17  2  0
 15 16  1  0
 17 18  1  0
 17 19  1  0
 19 20  2  0
 21 22  2  0
 21 29  1  0
 22 23  1  0
 23 24  1  0
 23 25  2  0
 25 26  1  0
 25 29  1  0
 26 27  2  0
 26 28  1  0
M  END
