
     RDKit          3D

 29 32  0  0  0  0  0  0  0  0999 V2000
   -7.5020    1.2250    0.3580 C   0  0  0  0  0  0  0  0  0  0  0  0
   -6.5040    1.3080   -0.7780 C   0  0  0  0  0  0  0  0  0  0  0  0
   -5.1620    0.8970   -0.3150 C   0  0  0  0  0  0  0  0  0  0  0  0
   -4.2270    1.8980   -0.0770 C   0  0  0  0  0  0  0  0  0  0  0  0
   -2.9530    1.6020    0.3580 C   0  0  0  0  0  0  0  0  0  0  0  0
   -2.6170    0.2920    0.5560 C   0  0  0  0  0  0  0  0  0  0  0  0
   -1.2310   -0.1120    1.0380 C   0  0  1  0  0  0  0  0  0  0  0  0
   -1.4590   -0.8310    2.2900 C   0  0  0  0  0  0  0  0  0  0  0  0
   -1.1370   -1.9680    2.4590 O   0  0  0  0  0  0  0  0  0  0  0  0
   -0.6710   -0.9540   -0.0600 C   0  0  0  0  0  0  0  0  0  0  0  0
    0.6830   -1.4800    0.1430 C   0  0  0  0  0  0  0  0  0  0  0  0
    0.9620   -2.7570    0.5720 C   0  0  0  0  0  0  0  0  0  0  0  0
    2.2940   -3.1370    0.7620 C   0  0  0  0  0  0  0  0  0  0  0  0
    3.2970   -2.2260    0.5150 C   0  0  0  0  0  0  0  0  0  0  0  0
    4.5590   -2.5570    0.6860 O   0  0  0  0  0  0  0  0  0  0  0  0
    5.5480   -1.7240    0.4640 C   0  0  0  0  0  0  0  0  0  0  0  0
    6.7690   -2.0600    0.6340 O   0  0  0  0  0  0  0  0  0  0  0  0
    5.3460   -0.4230    0.0300 C   0  0  0  0  0  0  0  0  0  0  0  0
    6.1740    0.6460   -0.2760 C   0  0  0  0  0  0  0  0  0  0  0  0
    7.6590    0.6470   -0.2020 C   0  0  0  0  0  0  0  0  0  0  0  0
    5.3520    1.6990   -0.6600 C   0  0  0  0  0  0  0  0  0  0  0  0
    5.8510    3.0430   -1.0720 C   0  0  0  0  0  0  0  0  0  0  0  0
    4.0870    1.2570   -0.5790 N   0  0  0  0  0  0  0  0  0  0  0  0
    4.0420   -0.0210   -0.1660 C   0  0  0  0  0  0  0  0  0  0  0  0
    3.0380   -0.9410    0.0840 C   0  0  0  0  0  0  0  0  0  0  0  0
    1.7340   -0.5790   -0.0990 C   0  0  0  0  0  0  0  0  0  0  0  0
   -3.5420   -0.6960    0.3210 C   0  0  0  0  0  0  0  0  0  0  0  0
   -4.8350   -0.4320   -0.1190 C   0  0  0  0  0  0  0  0  0  0  0  0
   -5.8230   -1.5160   -0.3700 C   0  0  0  0  0  0  0  0  0  0  0  0
  1  2  1  0
  2  3  1  0
  3  4  2  0
  3 28  1  0
  4  5  1  0
  5  6  2  0
  6  7  1  0
  6 27  1  0
  7  8  1  0
  7 10  1  6
  8  9  2  0
 10 11  1  0
 11 12  2  0
 11 26  1  0
 12 13  1  0
 13 14  2  0
 14 15  1  0
 14 25  1  0
 15 16  1  0
 16 17  2  0
 16 18  1  0
 18 19  1  0
 18 24  2  0
 19 20  1  0
 19 21  2  0
 21 22  1  0
 21 23  1  0
 23 24  1  0
 24 25  1  0
 25 26  2  0
 27 28  2  0
 28 29  1  0
M  END
