
     RDKit          3D

 11 10  0  0  0  0  0  0  0  0999 V2000
    2.7340   -1.5850    0.9870 O   0  0  0  0  0  0  0  0  0  0  0  0
    2.3750   -0.6720    0.2040 C   0  0  0  0  0  0  0  0  0  0  0  0
    3.3250    0.4320   -0.2720 C   0  0  0  0  0  0  0  0  0  0  0  0
    3.5370    1.2930    0.7900 O   0  0  0  0  0  0  0  0  0  0  0  0
    1.1530   -0.6340   -0.2170 O   0  0  0  0  0  0  0  0  0  0  0  0
    0.0960   -1.3960    0.0120 O   0  0  0  0  0  0  0  0  0  0  0  0
   -0.9590   -0.6260   -0.3100 C   0  0  0  0  0  0  0  0  0  0  0  0
   -2.3510   -1.1780    0.0790 C   0  0  0  0  0  0  0  0  0  0  0  0
   -3.2140   -0.1770   -0.3030 O   0  0  0  0  0  0  0  0  0  0  0  0
   -3.2480    0.7410    0.6890 O   0  0  0  0  0  0  0  0  0  0  0  0
   -3.0730    1.9190    0.0170 O   0  0  0  0  0  0  0  0  0  0  0  0
  1  2  2  0
  2  3  1  0
  2  5  1  0
  3  4  1  0
  5  6  1  0
  6  7  1  0
  7  8  1  0
  8  9  1  0
  9 10  1  0
 10 11  1  0
M  END
