
     RDKit          3D

 11 10  0  0  0  0  0  0  0  0999 V2000
   -2.6810   -0.5000   -0.6160 C   0  0  0  0  0  0  0  0  0  0  0  0
   -2.3250   -0.7450    0.6930 O   0  0  0  0  0  0  0  0  0  0  0  0
   -1.0020   -1.0490    0.8950 C   0  0  0  0  0  0  0  0  0  0  0  0
   -0.0360    0.0320    0.4660 C   0  0  1  0  0  0  0  0  0  0  0  0
   -0.2510    1.2210    1.1440 O   0  0  0  0  0  0  0  0  0  0  0  0
   -0.5010    2.1890    0.2720 O   0  0  0  0  0  0  0  0  0  0  0  0
    1.2450   -0.4720    0.6800 O   0  0  0  0  0  0  0  0  0  0  0  0
    1.9410   -0.6120   -0.4490 O   0  0  0  0  0  0  0  0  0  0  0  0
    3.0930    0.1300   -0.6570 C   0  0  0  0  0  0  0  0  0  0  0  0
    3.4320    0.9270    0.2700 O   0  0  0  0  0  0  0  0  0  0  0  0
    3.8750    0.0560   -1.7870 O   0  0  0  0  0  0  0  0  0  0  0  0
  1  2  1  0
  2  3  1  0
  4  3  1  1
  4  5  1  0
  4  7  1  0
  5  6  1  0
  7  8  1  0
  8  9  1  0
  9 10  2  0
  9 11  1  0
M  END
