
     RDKit          3D

 11 11  0  0  0  0  0  0  0  0999 V2000
    4.4710   -0.0590    0.3560 O   0  0  0  0  0  0  0  0  0  0  0  0
    3.2350   -0.4660    0.1760 O   0  0  0  0  0  0  0  0  0  0  0  0
    2.7190    0.2150   -0.8250 O   0  0  0  0  0  0  0  0  0  0  0  0
    1.6870    0.8890   -0.3710 O   0  0  0  0  0  0  0  0  0  0  0  0
    0.5900    0.0650   -0.1310 C   0  0  2  0  0  0  0  0  0  0  0  0
   -0.4960    0.4640   -1.0910 C   0  0  0  0  0  0  0  0  0  0  0  0
   -1.5420   -0.4590   -1.1180 O   0  0  0  0  0  0  0  0  0  0  0  0
   -2.5150    0.0330   -0.2240 C   0  0  0  0  0  0  0  0  0  0  0  0
   -1.9800   -0.3010    1.1730 C   0  0  0  0  0  0  0  0  0  0  0  0
   -0.9550    0.5790    1.4250 O   0  0  0  0  0  0  0  0  0  0  0  0
    0.2370    0.1010    1.1830 O   0  0  0  0  0  0  0  0  0  0  0  0
  1  2  1  0
  2  3  1  0
  3  4  1  0
  5  4  1  1
  5  6  1  0
  5 11  1  0
  6  7  1  0
  7  8  1  0
  8  9  1  0
  9 10  1  0
 10 11  1  0
M  END
