
     RDKit          3D

 11 11  0  0  0  0  0  0  0  0999 V2000
   -2.8320   -0.3850   -0.2650 C   0  0  0  0  0  0  0  0  0  0  0  0
   -1.4370   -0.2990    0.3740 C   0  0  0  0  0  0  0  0  0  0  0  0
   -1.3310   -0.5650    1.7220 C   0  0  0  0  0  0  0  0  0  0  0  0
    0.4190   -0.3590    2.0440 S   0  0  0  0  0  0  0  0  0  0  0  0
    0.8680    0.0610    0.3740 C   0  0  0  0  0  0  0  0  0  0  0  0
    2.2370    0.3560   -0.0100 C   0  0  0  0  0  0  0  0  0  0  0  0
    3.1110    0.2520    1.1330 N   0  0  0  0  0  0  0  0  0  0  0  0
    2.7250   -0.0500    2.2850 O   0  0  0  0  0  0  0  0  0  0  0  0
    4.4530    0.5010    0.9450 O   0  0  0  0  0  0  0  0  0  0  0  0
   -0.3070    0.0160   -0.2840 C   0  0  0  0  0  0  0  0  0  0  0  0
   -0.3080    0.3350   -1.7880 C   0  0  0  0  0  0  0  0  0  0  0  0
  1  2  1  0
  2  3  2  0
  2 10  1  0
  3  4  1  0
  4  5  1  0
  5  6  1  0
  5 10  2  0
  6  7  1  0
  7  8  2  0
  7  9  1  0
 10 11  1  0
M  CHG  2   7   1   9  -1
M  END
