
     RDKit          3D

 16 16  0  0  0  0  0  0  0  0999 V2000
   -1.8830    0.4520   -1.6880 C   0  0  0  0  0  0  0  0  0  0  0  0
   -1.7720    0.8490   -0.2210 C   0  0  2  0  0  0  0  0  0  0  0  0
   -1.0340    2.0860   -0.0940 N   0  0  0  0  0  0  0  0  0  0  0  0
    0.1020    2.4070    0.6360 C   0  0  0  0  0  0  0  0  0  0  0  0
   -0.0030    3.3810    1.4870 O   0  0  0  0  0  0  0  0  0  0  0  0
    1.3930    1.8300    0.6040 N   0  0  0  0  0  0  0  0  0  0  0  0
    2.1610    1.5900   -0.4820 O   0  0  0  0  0  0  0  0  0  0  0  0
    3.0110    0.4850   -0.2460 C   0  0  0  0  0  0  0  0  0  0  0  0
    2.8000   -0.6490   -1.1960 C   0  0  0  0  0  0  0  0  0  0  0  0
    2.5360   -1.8730   -0.6080 O   0  0  0  0  0  0  0  0  0  0  0  0
    1.1910   -2.2890   -0.7730 C   0  0  0  0  0  0  0  0  0  0  0  0
    0.3680   -1.1750   -0.2660 C   0  0  0  0  0  0  0  0  0  0  0  0
   -0.9630   -1.4360    0.0200 O   0  0  0  0  0  0  0  0  0  0  0  0
   -1.3900   -0.2540    0.6780 C   0  0  2  0  0  0  0  0  0  0  0  0
   -2.4780   -0.6960    1.6320 C   0  0  0  0  0  0  0  0  0  0  0  0
   -3.4850   -1.2740    0.8360 O   0  0  0  0  0  0  0  0  0  0  0  0
  2  1  1  6
  2  3  1  0
  2 14  1  0
  3  4  1  0
  4  5  2  0
  4  6  1  0
  6  7  1  0
  7  8  1  0
  8  9  1  0
  9 10  1  0
 10 11  1  0
 11 12  1  0
 12 13  1  0
 13 14  1  0
 14 15  1  6
 15 16  1  0
M  END
