
     RDKit          3D

 15 16  0  0  0  0  0  0  0  0999 V2000
    1.9800   -2.4500    1.7680 O   0  0  0  0  0  0  0  0  0  0  0  0
    2.3890   -1.2930    1.4470 C   0  0  0  0  0  0  0  0  0  0  0  0
    1.6500   -0.0560    1.7260 C   0  0  0  0  0  0  0  0  0  0  0  0
    1.4160    0.6470    0.4080 C   0  0  2  0  0  0  0  0  0  0  0  0
    0.5620   -0.0690   -0.4230 O   0  0  0  0  0  0  0  0  0  0  0  0
   -0.5520    0.7110   -0.6850 C   0  0  0  0  0  0  0  0  0  0  0  0
   -1.5540    0.0490   -1.5740 C   0  0  1  0  0  0  0  0  0  0  0  0
   -2.1860   -1.0960   -0.8320 C   0  0  0  0  0  0  0  0  0  0  0  0
   -3.1840   -0.3990    0.0630 C   0  0  0  0  0  0  0  0  0  0  0  0
   -3.3600    0.9350   -0.5950 C   0  0  0  0  0  0  0  0  0  0  0  0
   -2.6180    0.9180   -1.7640 O   0  0  0  0  0  0  0  0  0  0  0  0
    2.7530    0.8330   -0.2180 C   0  0  0  0  0  0  0  0  0  0  0  0
    2.9570    1.8730   -0.9250 O   0  0  0  0  0  0  0  0  0  0  0  0
    3.8270   -0.0780   -0.0800 N   0  0  0  0  0  0  0  0  0  0  0  0
    3.6380   -1.1700    0.7760 N   0  0  0  0  0  0  0  0  0  0  0  0
  1  2  2  0
  2  3  1  0
  2 15  1  0
  3  4  1  0
  4  5  1  6
  4 12  1  0
  5  6  1  0
  7  6  1  1
  7  8  1  0
  7 11  1  0
  8  9  1  0
  9 10  1  0
 10 11  1  0
 12 13  2  0
 12 14  1  0
 14 15  1  0
M  END
