
     RDKit          3D

 12 13  0  0  0  0  0  0  0  0999 V2000
   -0.6800   -2.6520   -1.0440 O   0  0  0  0  0  0  0  0  0  0  0  0
   -0.2410   -1.6030   -0.5010 C   0  0  0  0  0  0  0  0  0  0  0  0
    1.0370   -1.3260   -0.3940 O   0  0  0  0  0  0  0  0  0  0  0  0
    1.5010   -0.2370    0.1690 C   0  0  0  0  0  0  0  0  0  0  0  0
    2.9730    0.0220    0.2610 C   0  0  0  0  0  0  0  0  0  0  0  0
    3.4050    0.7250   -0.8790 O   0  0  0  0  0  0  0  0  0  0  0  0
    0.5870    0.6620    0.6740 C   0  0  0  0  0  0  0  0  0  0  0  0
   -0.7530    0.4580    0.6060 C   0  0  0  0  0  0  0  0  0  0  0  0
   -1.1930   -0.7140   -0.0020 C   0  0  0  0  0  0  0  0  0  0  0  0
   -2.6530   -0.7290    0.0350 C   0  0  0  0  0  0  0  0  0  0  0  0
   -3.0250    0.5780    0.3110 O   0  0  0  0  0  0  0  0  0  0  0  0
   -1.9820    1.1650    1.0180 C   0  0  0  0  0  0  0  0  0  0  0  0
  1  2  2  0
  2  3  1  0
  2  9  1  0
  3  4  1  0
  4  5  1  0
  4  7  2  0
  5  6  1  0
  7  8  1  0
  8  9  2  0
  8 12  1  0
  9 10  1  0
 10 11  1  0
 11 12  1  0
M  END
