
     RDKit          3D

 12 13  0  0  0  0  0  0  0  0999 V2000
   -3.7300    0.4510   -0.3600 O   0  0  0  0  0  0  0  0  0  0  0  0
   -2.7120    1.1250   -0.6460 C   0  0  0  0  0  0  0  0  0  0  0  0
   -1.4040    0.4940   -0.4700 C   0  0  0  0  0  0  0  0  0  0  0  0
   -0.2660    1.1970   -0.7720 C   0  0  0  0  0  0  0  0  0  0  0  0
    0.9760    0.6270   -0.6140 C   0  0  0  0  0  0  0  0  0  0  0  0
    1.0960   -0.6660   -0.1490 C   0  0  0  0  0  0  0  0  0  0  0  0
   -0.0540   -1.3630    0.1510 C   0  0  0  0  0  0  0  0  0  0  0  0
   -1.3070   -0.8020   -0.0030 C   0  0  0  0  0  0  0  0  0  0  0  0
   -2.4450   -1.5480    0.3150 O   0  0  0  0  0  0  0  0  0  0  0  0
    2.4620   -1.0070   -0.0800 O   0  0  0  0  0  0  0  0  0  0  0  0
    3.1630    0.2320   -0.1060 C   0  0  0  0  0  0  0  0  0  0  0  0
    2.2790    1.0660   -0.8270 O   0  0  0  0  0  0  0  0  0  0  0  0
  1  2  2  0
  2  3  1  0
  3  4  2  0
  3  8  1  0
  4  5  1  0
  5  6  2  0
  5 12  1  0
  6  7  1  0
  6 10  1  0
  7  8  2  0
  8  9  1  0
 10 11  1  0
 11 12  1  0
M  END
