
     RDKit          3D

 12 13  0  0  0  0  0  0  0  0999 V2000
    3.8330    0.9240    0.5030 O   0  0  0  0  0  0  0  0  0  0  0  0
    2.7120    0.4410    0.1260 C   0  0  0  0  0  0  0  0  0  0  0  0
    2.4770   -1.0260    0.1300 C   0  0  0  0  0  0  0  0  0  0  0  0
    1.2070   -1.2420    0.7470 O   0  0  0  0  0  0  0  0  0  0  0  0
    0.1470   -0.4390    0.3300 C   0  0  0  0  0  0  0  0  0  0  0  0
   -1.1730   -0.8750    0.4280 C   0  0  0  0  0  0  0  0  0  0  0  0
   -2.2280   -0.0940    0.0200 C   0  0  0  0  0  0  0  0  0  0  0  0
   -3.5190   -0.5740    0.1380 O   0  0  0  0  0  0  0  0  0  0  0  0
   -2.0150    1.1580   -0.5040 C   0  0  0  0  0  0  0  0  0  0  0  0
   -0.7100    1.5970   -0.6050 C   0  0  0  0  0  0  0  0  0  0  0  0
    0.3530    0.8200   -0.1980 C   0  0  0  0  0  0  0  0  0  0  0  0
    1.6790    1.2650   -0.2990 O   0  0  0  0  0  0  0  0  0  0  0  0
  1  2  2  0
  2  3  1  0
  2 12  1  0
  3  4  1  0
  4  5  1  0
  5  6  2  0
  5 11  1  0
  6  7  1  0
  7  8  1  0
  7  9  2  0
  9 10  1  0
 10 11  2  0
 11 12  1  0
M  END
