
     RDKit          3D

 12 12  0  0  0  0  0  0  0  0999 V2000
    4.0410    0.2900   -1.1750 C   0  0  0  0  0  0  0  0  0  0  0  0
    2.7640    0.5640   -0.4490 C   0  0  0  0  0  0  0  0  0  0  0  0
    1.6850   -0.1740   -0.9820 O   0  0  0  0  0  0  0  0  0  0  0  0
    0.4250   -0.0070   -0.3870 C   0  0  0  0  0  0  0  0  0  0  0  0
    0.3570    0.7900    0.5780 O   0  0  0  0  0  0  0  0  0  0  0  0
   -0.7370   -0.6990   -0.8400 C   0  0  0  0  0  0  0  0  0  0  0  0
   -1.9290   -0.5810   -0.3240 C   0  0  0  0  0  0  0  0  0  0  0  0
   -2.3320    0.2510    0.7870 C   0  0  0  0  0  0  0  0  0  0  0  0
   -3.6310    0.1160    1.0370 C   0  0  0  0  0  0  0  0  0  0  0  0
   -4.1180   -0.8350    0.0650 C   0  0  0  0  0  0  0  0  0  0  0  0
   -5.3470   -1.1850    0.0380 O   0  0  0  0  0  0  0  0  0  0  0  0
   -3.0930   -1.2520   -0.7520 O   0  0  0  0  0  0  0  0  0  0  0  0
  1  2  1  0
  2  3  1  0
  3  4  1  0
  4  5  2  0
  4  6  1  0
  6  7  2  3
  7  8  1  0
  7 12  1  0
  8  9  2  0
  9 10  1  0
 10 11  2  0
 10 12  1  0
M  END
