
     RDKit          3D

 11 12  0  0  0  0  0  0  0  0999 V2000
    2.7630    0.5470    0.3620 C   0  0  0  0  0  0  0  0  0  0  0  0
    2.6110   -0.0730   -1.0310 C   0  0  0  0  0  0  0  0  0  0  0  0
    1.2640   -0.0150   -1.3300 O   0  0  0  0  0  0  0  0  0  0  0  0
    0.4710   -0.7250   -0.4350 C   0  0  2  0  0  0  0  0  0  0  0  0
   -0.7280    0.1170   -0.1170 C   0  0  2  0  0  0  0  0  0  0  0  0
   -1.8060   -0.6760    0.6260 C   0  0  0  0  0  0  0  0  0  0  0  0
   -3.0230    0.2100    0.3300 C   0  0  0  0  0  0  0  0  0  0  0  0
   -2.6630    0.7760   -1.0100 C   0  0  0  0  0  0  0  0  0  0  0  0
   -1.4010    0.3470   -1.3400 O   0  0  0  0  0  0  0  0  0  0  0  0
    1.1340   -1.2080    0.6510 O   0  0  0  0  0  0  0  0  0  0  0  0
    1.9590   -0.3340    1.2970 C   0  0  0  0  0  0  0  0  0  0  0  0
  1  2  1  0
  1 11  1  0
  2  3  1  0
  4  3  1  1
  4  5  1  0
  4 10  1  0
  5  6  1  1
  5  9  1  0
  6  7  1  0
  7  8  1  0
  8  9  1  0
 10 11  1  0
M  END
