
     RDKit          3D

 25 27  0  0  0  0  0  0  0  0999 V2000
   -4.2230   -3.6270   -0.0760 C   0  0  0  0  0  0  0  0  0  0  0  0
   -3.8820   -2.2020    0.2720 C   0  0  0  0  0  0  0  0  0  0  0  0
   -4.7560   -1.4490    1.0300 C   0  0  0  0  0  0  0  0  0  0  0  0
   -4.5100   -0.1460    1.3840 C   0  0  0  0  0  0  0  0  0  0  0  0
   -5.4140    0.6970    2.1920 C   0  0  0  0  0  0  0  0  0  0  0  0
   -3.3220    0.4120    0.9460 C   0  0  0  0  0  0  0  0  0  0  0  0
   -3.0260    1.7090    1.2690 C   0  0  0  0  0  0  0  0  0  0  0  0
   -1.8410    2.3400    0.8600 C   0  0  0  0  0  0  0  0  0  0  0  0
   -1.6020    3.6250    1.2100 O   0  0  0  0  0  0  0  0  0  0  0  0
   -0.9310    1.6060    0.0900 C   0  0  0  0  0  0  0  0  0  0  0  0
    0.2550    2.2410   -0.3270 N   0  0  0  0  0  0  0  0  0  0  0  0
    1.2960    1.6600   -1.0820 C   0  0  0  0  0  0  0  0  0  0  0  0
    1.2400    0.4880   -1.4520 O   0  0  0  0  0  0  0  0  0  0  0  0
    2.5180    2.4710   -1.4600 C   0  0  0  0  0  0  0  0  0  0  0  0
    3.6770    1.4690   -2.4020 S   0  0  0  0  0  0  0  0  0  0  0  0
    4.3550    0.1700   -1.3640 C   0  0  0  0  0  0  0  0  0  0  0  0
    4.0050    0.0450   -0.1050 C   0  0  0  0  0  0  0  0  0  0  0  0
    4.5970   -1.0290    0.6680 C   0  0  0  0  0  0  0  0  0  0  0  0
    3.9860   -1.5590    1.6210 O   0  0  0  0  0  0  0  0  0  0  0  0
    5.9720   -1.4470    0.2440 C   0  0  0  0  0  0  0  0  0  0  0  0
    5.8730   -1.7530   -1.1530 N   0  0  0  0  0  0  0  0  0  0  0  0
    5.3130   -0.7410   -1.9750 C   0  0  0  0  0  0  0  0  0  0  0  0
   -1.2320    0.3040   -0.2330 C   0  0  0  0  0  0  0  0  0  0  0  0
   -2.4210   -0.3060    0.1870 C   0  0  0  0  0  0  0  0  0  0  0  0
   -2.7120   -1.6190   -0.1460 C   0  0  0  0  0  0  0  0  0  0  0  0
  1  2  1  0
  2  3  2  0
  2 25  1  0
  3  4  1  0
  4  5  1  0
  4  6  2  0
  6  7  1  0
  6 24  1  0
  7  8  2  0
  8  9  1  0
  8 10  1  0
 10 11  1  0
 10 23  2  0
 11 12  1  0
 12 13  2  0
 12 14  1  0
 14 15  1  0
 15 16  1  0
 16 17  2  0
 16 22  1  0
 17 18  1  0
 18 19  2  0
 18 20  1  0
 20 21  1  0
 21 22  1  0
 23 24  1  0
 24 25  2  0
M  END
