
     RDKit          3D

 12 13  0  0  0  0  0  0  0  0999 V2000
   -0.7480    2.7720   -0.1850 O   0  0  0  0  0  0  0  0  0  0  0  0
   -1.0370    1.5490   -0.1020 C   0  0  0  0  0  0  0  0  0  0  0  0
   -2.2780    1.1230   -0.0700 O   0  0  0  0  0  0  0  0  0  0  0  0
   -2.6030   -0.1450    0.0160 C   0  0  0  0  0  0  0  0  0  0  0  0
   -1.6350   -1.1350    0.0810 C   0  0  0  0  0  0  0  0  0  0  0  0
   -0.3160   -0.7150    0.0490 C   0  0  0  0  0  0  0  0  0  0  0  0
    0.6610   -1.6080    0.1070 N   0  0  0  0  0  0  0  0  0  0  0  0
    1.9500   -1.2010    0.0760 C   0  0  0  0  0  0  0  0  0  0  0  0
    3.1910   -2.2920    0.1460 S   0  0  0  0  0  0  0  0  0  0  0  0
    2.2610    0.1100   -0.0130 N   0  0  0  0  0  0  0  0  0  0  0  0
    1.3140    1.0620   -0.0750 C   0  0  0  0  0  0  0  0  0  0  0  0
   -0.0140    0.6260   -0.0420 C   0  0  0  0  0  0  0  0  0  0  0  0
  1  2  2  0
  2  3  1  0
  2 12  1  0
  3  4  1  0
  4  5  2  0
  5  6  1  0
  6  7  2  0
  6 12  1  0
  7  8  1  0
  8  9  2  0
  8 10  1  0
 10 11  1  0
 11 12  2  0
M  END
