
     RDKit          3D

 12 13  0  0  0  0  0  0  0  0999 V2000
   -0.7670   -1.5290    1.2870 C   0  0  0  0  0  0  0  0  0  0  0  0
   -1.1230   -0.4150    0.3770 C   0  0  0  0  0  0  0  0  0  0  0  0
   -2.3390    0.0160    0.1120 O   0  0  0  0  0  0  0  0  0  0  0  0
   -2.2820    1.0130   -0.7330 C   0  0  0  0  0  0  0  0  0  0  0  0
   -3.4050    1.7090   -1.2280 O   0  0  0  0  0  0  0  0  0  0  0  0
   -0.9780    1.2430   -1.0320 C   0  0  0  0  0  0  0  0  0  0  0  0
   -0.2260    0.3270   -0.3210 C   0  0  0  0  0  0  0  0  0  0  0  0
    1.2610    0.2500   -0.3760 C   0  0  0  0  0  0  0  0  0  0  0  0
    2.2250    0.7170   -0.8490 N   0  0  0  0  0  0  0  0  0  0  0  0
    3.4620    0.3380   -0.6290 N   0  0  0  0  0  0  0  0  0  0  0  0
    3.7670   -0.5130    0.0650 C   0  0  0  0  0  0  0  0  0  0  0  0
    2.0840   -1.0900    0.6880 S   0  0  0  0  0  0  0  0  0  0  0  0
  1  2  1  0
  2  3  1  0
  2  7  2  0
  3  4  1  0
  4  5  1  0
  4  6  2  0
  6  7  1  0
  7  8  1  0
  8  9  2  0
  8 12  1  0
  9 10  1  0
 10 11  2  0
 11 12  1  0
M  END
