
     RDKit          3D

 25 27  0  0  0  0  0  0  0  0999 V2000
   -3.8170    0.0890    3.1350 C   0  0  0  0  0  0  0  0  0  0  0  0
   -2.6350    0.4510    2.2800 C   0  0  0  0  0  0  0  0  0  0  0  0
   -2.5350   -0.0960    1.1070 C   0  0  0  0  0  0  0  0  0  0  0  0
   -3.6020   -1.0380    0.6930 C   0  0  0  0  0  0  0  0  0  0  0  0
   -3.8600   -1.4530   -0.5300 C   0  0  0  0  0  0  0  0  0  0  0  0
   -3.2140   -1.1240   -1.7320 O   0  0  0  0  0  0  0  0  0  0  0  0
   -2.2790   -0.1280   -1.9980 C   0  0  0  0  0  0  0  0  0  0  0  0
   -1.4470    0.4990   -1.1290 C   0  0  0  0  0  0  0  0  0  0  0  0
   -0.5840    1.5050   -1.7310 C   0  0  0  0  0  0  0  0  0  0  0  0
   -1.3460    0.2750    0.3010 C   0  0  0  0  0  0  0  0  0  0  0  0
   -0.2360    0.3610    0.8540 N   0  0  0  0  0  0  0  0  0  0  0  0
   -0.2030    0.0900    2.2390 O   0  0  0  0  0  0  0  0  0  0  0  0
    1.0490    0.6570    0.3610 C   0  0  0  0  0  0  0  0  0  0  0  0
    1.6330    1.9020    0.4090 C   0  0  0  0  0  0  0  0  0  0  0  0
    2.8920    2.1540   -0.0560 C   0  0  0  0  0  0  0  0  0  0  0  0
    3.6140    1.1160   -0.5980 C   0  0  0  0  0  0  0  0  0  0  0  0
    3.0590   -0.1190   -0.6550 C   0  0  0  0  0  0  0  0  0  0  0  0
    1.7890   -0.3960   -0.1910 C   0  0  0  0  0  0  0  0  0  0  0  0
    1.2810   -1.7540   -0.2860 C   0  0  0  0  0  0  0  0  0  0  0  0
    0.1400   -2.0220    0.1420 O   0  0  0  0  0  0  0  0  0  0  0  0
    2.0190   -2.7830   -0.8390 O   0  0  0  0  0  0  0  0  0  0  0  0
    1.4820   -4.0720   -0.9060 C   0  0  0  0  0  0  0  0  0  0  0  0
    4.8600    1.5860   -1.0060 O   0  0  0  0  0  0  0  0  0  0  0  0
    5.0250    2.9010   -0.4890 C   0  0  0  0  0  0  0  0  0  0  0  0
    3.7100    3.2980   -0.1290 O   0  0  0  0  0  0  0  0  0  0  0  0
  1  2  1  0
  2  3  2  3
  3  4  1  0
  3 10  1  0
  4  5  2  0
  5  6  1  0
  6  7  1  0
  7  8  2  0
  8  9  1  0
  8 10  1  0
 10 11  2  3
 11 12  1  0
 11 13  1  0
 13 14  2  0
 13 18  1  0
 14 15  1  0
 15 16  2  0
 15 25  1  0
 16 17  1  0
 16 23  1  0
 17 18  2  0
 18 19  1  0
 19 20  2  0
 19 21  1  0
 21 22  1  0
 23 24  1  0
 24 25  1  0
M  CHG  2  11   1  12  -1
M  END
