
     RDKit          3D

 25 28  0  0  0  0  0  0  0  0999 V2000
   -1.8440    4.6850    1.2310 O   0  0  0  0  0  0  0  0  0  0  0  0
   -2.0480    3.4270    1.2740 N   0  0  0  0  0  0  0  0  0  0  0  0
   -3.2180    2.8820    1.7650 O   0  0  0  0  0  0  0  0  0  0  0  0
   -1.0170    2.5620    0.8070 C   0  0  0  0  0  0  0  0  0  0  0  0
    0.2820    2.9890    1.0510 C   0  0  0  0  0  0  0  0  0  0  0  0
    1.3510    2.2250    0.6590 C   0  0  0  0  0  0  0  0  0  0  0  0
    1.2190    1.0470    0.0170 C   0  0  0  0  0  0  0  0  0  0  0  0
    2.3790    0.1970   -0.2770 C   0  0  0  0  0  0  0  0  0  0  0  0
    2.4030   -0.6580   -1.3800 C   0  0  0  0  0  0  0  0  0  0  0  0
    3.5210   -1.4820   -1.5190 C   0  0  0  0  0  0  0  0  0  0  0  0
    4.5760   -1.4890   -0.6480 C   0  0  0  0  0  0  0  0  0  0  0  0
    4.4960   -0.6070    0.4280 C   0  0  0  0  0  0  0  0  0  0  0  0
    3.4460    0.1950    0.6040 C   0  0  0  0  0  0  0  0  0  0  0  0
    5.6790   -0.7610    1.1920 O   0  0  0  0  0  0  0  0  0  0  0  0
    6.1400   -2.1440    0.8880 C   0  0  0  0  0  0  0  0  0  0  0  0
    5.7530   -2.1860   -0.5200 O   0  0  0  0  0  0  0  0  0  0  0  0
   -0.0760    0.5840   -0.2610 C   0  0  0  0  0  0  0  0  0  0  0  0
   -1.2120    1.3350    0.1320 C   0  0  0  0  0  0  0  0  0  0  0  0
   -2.4330    0.9580   -0.1150 O   0  0  0  0  0  0  0  0  0  0  0  0
   -3.6050    0.5890   -0.3580 C   0  0  0  0  0  0  0  0  0  0  0  0
   -4.2120   -0.7680   -0.3250 C   0  0  0  0  0  0  0  0  0  0  0  0
   -5.5240   -0.9960    0.1660 C   0  0  0  0  0  0  0  0  0  0  0  0
   -5.7730   -2.3320    0.1000 C   0  0  0  0  0  0  0  0  0  0  0  0
   -4.6380   -2.9090   -0.4250 C   0  0  0  0  0  0  0  0  0  0  0  0
   -3.7830   -1.9220   -0.6510 O   0  0  0  0  0  0  0  0  0  0  0  0
  1  2  2  0
  2  3  1  0
  2  4  1  0
  4  5  2  0
  4 18  1  0
  5  6  1  0
  6  7  2  0
  7  8  1  0
  7 17  1  0
  8  9  2  0
  8 13  1  0
  9 10  1  0
 10 11  2  0
 11 12  1  0
 11 16  1  0
 12 13  2  0
 12 14  1  0
 14 15  1  0
 15 16  1  0
 17 18  2  0
 18 19  1  0
 19 20  1  0
 20 21  1  0
 21 22  2  0
 21 25  1  0
 22 23  1  0
 23 24  2  0
 24 25  1  0
M  CHG  2   2   1   3  -1
M  END
