
     RDKit          3D

 25 28  0  0  0  0  0  0  0  0999 V2000
   -4.4250    2.4860   -2.4320 C   0  0  0  0  0  0  0  0  0  0  0  0
   -4.9100    1.7220   -1.3620 O   0  0  0  0  0  0  0  0  0  0  0  0
   -4.0010    0.8990   -0.6840 C   0  0  0  0  0  0  0  0  0  0  0  0
   -2.6760    0.8380   -1.0520 C   0  0  0  0  0  0  0  0  0  0  0  0
   -1.7940    0.0420   -0.3970 C   0  0  0  0  0  0  0  0  0  0  0  0
   -0.3800   -0.0680   -0.7360 C   0  0  0  0  0  0  0  0  0  0  0  0
    0.0390    0.6250   -1.6990 O   0  0  0  0  0  0  0  0  0  0  0  0
    0.5060   -0.8710   -0.0740 O   0  0  0  0  0  0  0  0  0  0  0  0
    1.8550   -0.9880   -0.3830 C   0  0  0  0  0  0  0  0  0  0  0  0
    2.3480   -1.9160   -1.2770 C   0  0  0  0  0  0  0  0  0  0  0  0
    3.6730   -2.0460   -1.5930 C   0  0  0  0  0  0  0  0  0  0  0  0
    4.5890   -1.2100   -0.9930 C   0  0  0  0  0  0  0  0  0  0  0  0
    4.1430   -0.2600   -0.0870 C   0  0  0  0  0  0  0  0  0  0  0  0
    5.0830    0.5490    0.4840 C   0  0  0  0  0  0  0  0  0  0  0  0
    4.6930    1.5070    1.3900 C   0  0  0  0  0  0  0  0  0  0  0  0
    3.3380    1.6170    1.6930 C   0  0  0  0  0  0  0  0  0  0  0  0
    2.3880    0.8000    1.1160 C   0  0  0  0  0  0  0  0  0  0  0  0
    2.7860   -0.1520    0.2140 C   0  0  0  0  0  0  0  0  0  0  0  0
   -2.2500   -0.7210    0.6630 C   0  0  0  0  0  0  0  0  0  0  0  0
   -3.5660   -0.6700    1.0400 C   0  0  0  0  0  0  0  0  0  0  0  0
   -4.3880    0.1390    0.3490 N   0  0  0  0  0  0  0  0  0  0  0  0
   -5.7300    0.2030    0.7180 O   0  0  0  0  0  0  0  0  0  0  0  0
   -3.7950   -1.5270    2.1350 O   0  0  0  0  0  0  0  0  0  0  0  0
   -2.6470   -2.3770    2.2010 C   0  0  0  0  0  0  0  0  0  0  0  0
   -1.6310   -1.6250    1.5330 O   0  0  0  0  0  0  0  0  0  0  0  0
  1  2  1  0
  2  3  1  0
  3  4  2  0
  3 21  1  0
  4  5  1  0
  5  6  1  0
  5 19  2  0
  6  7  2  0
  6  8  1  0
  8  9  1  0
  9 10  2  0
  9 18  1  0
 10 11  1  0
 11 12  2  0
 12 13  1  0
 13 14  2  0
 13 18  1  0
 14 15  1  0
 15 16  2  0
 16 17  1  0
 17 18  2  0
 19 20  1  0
 19 25  1  0
 20 21  2  0
 20 23  1  0
 21 22  1  0
 23 24  1  0
 24 25  1  0
M  CHG  2  21   1  22  -1
M  END
