
     RDKit          3D

 10 11  0  0  0  0  0  0  0  0999 V2000
    2.6640    0.8180   -0.6480 C   0  0  0  0  0  0  0  0  0  0  0  0
    1.3980    1.1280   -0.8010 C   0  0  0  0  0  0  0  0  0  0  0  0
    0.5790    0.0470   -0.2990 C   0  0  0  0  0  0  0  0  0  0  0  0
   -0.9010    0.0050   -0.2870 C   0  0  0  0  0  0  0  0  0  0  0  0
   -1.6880   -1.0210    0.1890 C   0  0  0  0  0  0  0  0  0  0  0  0
   -3.0050   -0.6990    0.0310 C   0  0  0  0  0  0  0  0  0  0  0  0
   -3.0050    0.5470   -0.5540 C   0  0  0  0  0  0  0  0  0  0  0  0
   -1.7390    0.9480   -0.7350 N   0  0  0  0  0  0  0  0  0  0  0  0
    1.3430   -0.9200    0.1600 C   0  0  0  0  0  0  0  0  0  0  0  0
    2.7460   -0.5130   -0.0230 C   0  0  0  0  0  0  0  0  0  0  0  0
  1  2  2  0
  1 10  1  0
  2  3  1  0
  3  4  1  0
  3  9  2  0
  4  5  2  0
  4  8  1  0
  5  6  1  0
  6  7  2  0
  7  8  1  0
  9 10  1  0
M  END
