
     RDKit          3D

 10 11  0  0  0  0  0  0  0  0999 V2000
    3.2920   -0.0330   -0.3750 C   0  0  0  0  0  0  0  0  0  0  0  0
    2.0600   -0.8930   -0.0810 C   0  0  0  0  0  0  0  0  0  0  0  0
    0.9150    0.0120    0.1800 C   0  0  0  0  0  0  0  0  0  0  0  0
    1.0300    1.2840    0.6210 N   0  0  0  0  0  0  0  0  0  0  0  0
   -0.1900    1.8350    0.7320 C   0  0  0  0  0  0  0  0  0  0  0  0
   -1.1030    0.8780    0.3500 C   0  0  0  0  0  0  0  0  0  0  0  0
   -0.4110   -0.2700    0.0020 C   0  0  0  0  0  0  0  0  0  0  0  0
   -1.3600   -1.3330   -0.4190 C   0  0  0  0  0  0  0  0  0  0  0  0
   -2.7240   -0.7510   -0.2200 C   0  0  0  0  0  0  0  0  0  0  0  0
   -2.5700    0.6800    0.1820 C   0  0  0  0  0  0  0  0  0  0  0  0
  1  2  1  0
  2  3  1  0
  3  4  1  0
  3  7  2  0
  4  5  1  0
  5  6  2  0
  6  7  1  0
  6 10  1  0
  7  8  1  0
  8  9  1  0
  9 10  1  0
M  END
