
     RDKit          3D

 10 11  0  0  0  0  0  0  0  0999 V2000
    2.6930    1.1820    0.8400 C   0  0  0  0  0  0  0  0  0  0  0  0
    2.5270    0.3070   -0.1270 C   0  0  0  0  0  0  0  0  0  0  0  0
    1.2240   -0.1580   -0.5890 C   0  0  0  0  0  0  0  0  0  0  0  0
    1.0750   -0.9130   -1.6880 N   0  0  0  0  0  0  0  0  0  0  0  0
   -0.2250   -1.1660   -1.8290 C   0  0  0  0  0  0  0  0  0  0  0  0
   -0.9510   -0.5790   -0.8210 C   0  0  0  0  0  0  0  0  0  0  0  0
   -0.0090    0.0730   -0.0180 C   0  0  0  0  0  0  0  0  0  0  0  0
   -0.7290    0.7310    1.1140 C   0  0  0  0  0  0  0  0  0  0  0  0
   -1.9840   -0.1520    1.2110 C   0  0  0  0  0  0  0  0  0  0  0  0
   -2.2960   -0.3540   -0.2520 C   0  0  0  0  0  0  0  0  0  0  0  0
  1  2  2  0
  2  3  1  0
  3  4  1  0
  3  7  2  0
  4  5  1  0
  5  6  2  0
  6  7  1  0
  6 10  1  0
  7  8  1  0
  8  9  1  0
  9 10  1  0
M  END
