
     RDKit          3D

 10 11  0  0  0  0  0  0  0  0999 V2000
    1.3090    1.1890   -0.0190 C   0  0  0  0  0  0  0  0  0  0  0  0
    0.1470    0.5880   -0.1070 C   0  0  0  0  0  0  0  0  0  0  0  0
   -1.0600    1.4130   -0.2420 C   0  0  0  0  0  0  0  0  0  0  0  0
   -2.3260    0.6060   -0.3840 C   0  0  0  0  0  0  0  0  0  0  0  0
   -2.1650   -0.6090    0.5380 C   0  0  0  0  0  0  0  0  0  0  0  0
   -1.1890   -1.5300   -0.1640 C   0  0  0  0  0  0  0  0  0  0  0  0
    0.1600   -0.8670   -0.0610 C   0  0  0  0  0  0  0  0  0  0  0  0
    1.2240   -1.5300    0.0580 N   0  0  0  0  0  0  0  0  0  0  0  0
    2.5330   -1.0000    0.1620 C   0  0  0  0  0  0  0  0  0  0  0  0
    2.5930    0.4780    0.1190 C   0  0  0  0  0  0  0  0  0  0  0  0
  1  2  2  0
  1 10  1  0
  2  3  1  0
  2  7  1  0
  3  4  1  0
  4  5  1  0
  5  6  1  0
  6  7  1  0
  7  8  2  0
  8  9  1  0
  9 10  1  0
M  END
