
     RDKit          3D

 16 17  0  0  0  0  0  0  0  0999 V2000
   -2.9610   -2.1130    0.6700 C   0  0  0  0  0  0  0  0  0  0  0  0
   -1.5910   -1.5880    0.3710 C   0  0  0  0  0  0  0  0  0  0  0  0
   -1.5410   -0.1090    0.3190 C   0  0  0  0  0  0  0  0  0  0  0  0
   -2.6450    0.6900    0.5270 C   0  0  0  0  0  0  0  0  0  0  0  0
   -2.5560    2.0630    0.4700 C   0  0  0  0  0  0  0  0  0  0  0  0
   -1.3600    2.6870    0.2040 C   0  0  0  0  0  0  0  0  0  0  0  0
   -1.2320    4.4310    0.1290 Cl  0  0  0  0  0  0  0  0  0  0  0  0
   -0.2350    1.8970   -0.0080 C   0  0  0  0  0  0  0  0  0  0  0  0
    0.9700    2.5150   -0.2760 C   0  0  0  0  0  0  0  0  0  0  0  0
    2.0700    1.7100   -0.4830 C   0  0  0  0  0  0  0  0  0  0  0  0
    3.6180    2.4970   -0.8270 Cl  0  0  0  0  0  0  0  0  0  0  0  0
    1.9910    0.3460   -0.4290 C   0  0  0  0  0  0  0  0  0  0  0  0
    3.1990   -0.4860   -0.6570 C   0  0  0  0  0  0  0  0  0  0  0  0
    2.9270   -1.8880   -0.5620 N   0  0  0  0  0  0  0  0  0  0  0  0
    0.7800   -0.2600   -0.1600 C   0  0  0  0  0  0  0  0  0  0  0  0
   -0.3460    0.5090    0.0530 C   0  0  0  0  0  0  0  0  0  0  0  0
  1  2  1  0
  2  3  1  0
  3  4  2  0
  3 16  1  0
  4  5  1  0
  5  6  2  0
  6  7  1  0
  6  8  1  0
  8  9  2  0
  8 16  1  0
  9 10  1  0
 10 11  1  0
 10 12  2  0
 12 13  1  0
 12 15  1  0
 13 14  1  0
 15 16  2  0
M  CHG  1  14   1
M  END
