
     RDKit          3D

 16 17  0  0  0  0  0  0  0  0999 V2000
    4.5170    0.7360   -0.9270 C   0  0  0  0  0  0  0  0  0  0  0  0
    3.9480   -0.1940    0.1290 C   0  0  0  0  0  0  0  0  0  0  0  0
    2.4480   -0.2240    0.0610 C   0  0  0  0  0  0  0  0  0  0  0  0
    1.6370    0.4390    0.9480 C   0  0  0  0  0  0  0  0  0  0  0  0
    0.2600    0.3610    0.8090 C   0  0  0  0  0  0  0  0  0  0  0  0
   -0.5680    1.0250    1.6940 C   0  0  0  0  0  0  0  0  0  0  0  0
   -1.9400    0.9810    1.6000 C   0  0  0  0  0  0  0  0  0  0  0  0
   -2.9740    1.8280    2.7290 Cl  0  0  0  0  0  0  0  0  0  0  0  0
   -2.5170    0.2430    0.5770 C   0  0  0  0  0  0  0  0  0  0  0  0
   -3.9920    0.1660    0.4270 C   0  0  0  0  0  0  0  0  0  0  0  0
   -4.3350   -0.6630   -0.7040 N   0  0  0  0  0  0  0  0  0  0  0  0
   -1.7120   -0.4300   -0.3200 C   0  0  0  0  0  0  0  0  0  0  0  0
   -0.3210   -0.3700   -0.2030 C   0  0  0  0  0  0  0  0  0  0  0  0
    0.4930   -1.0420   -1.1010 C   0  0  0  0  0  0  0  0  0  0  0  0
    1.8490   -0.9520   -0.9460 C   0  0  0  0  0  0  0  0  0  0  0  0
    2.8250   -1.8370   -2.1320 Cl  0  0  0  0  0  0  0  0  0  0  0  0
  1  2  1  0
  2  3  1  0
  3  4  2  0
  3 15  1  0
  4  5  1  0
  5  6  2  0
  5 13  1  0
  6  7  1  0
  7  8  1  0
  7  9  2  0
  9 10  1  0
  9 12  1  0
 10 11  1  0
 12 13  2  0
 13 14  1  0
 14 15  2  0
 15 16  1  0
M  CHG  1  11   1
M  END
