
     RDKit          3D

 16 17  0  0  0  0  0  0  0  0999 V2000
   -0.8680    3.4710    0.1070 C   0  0  0  0  0  0  0  0  0  0  0  0
   -0.4050    2.0690   -0.0110 C   0  0  0  0  0  0  0  0  0  0  0  0
    0.8740    1.6810   -0.1440 C   0  0  0  0  0  0  0  0  0  0  0  0
    2.2180    2.8170   -0.2000 Cl  0  0  0  0  0  0  0  0  0  0  0  0
    0.9630    0.2320   -0.2320 C   0  0  0  0  0  0  0  0  0  0  0  0
    2.0260   -0.5380   -0.3690 C   0  0  0  0  0  0  0  0  0  0  0  0
    1.8400   -2.3090   -0.4490 Cl  0  0  0  0  0  0  0  0  0  0  0  0
    3.4170   -0.0920   -0.4700 C   0  0  0  0  0  0  0  0  0  0  0  0
    4.1720   -0.6800    0.6530 N   0  0  0  0  0  0  0  0  0  0  0  0
   -0.4440   -0.2150   -0.1330 C   0  0  0  0  0  0  0  0  0  0  0  0
   -1.0690   -1.4310   -0.1450 C   0  0  0  0  0  0  0  0  0  0  0  0
   -2.4570   -1.5680   -0.0300 C   0  0  0  0  0  0  0  0  0  0  0  0
   -3.0340   -2.9440   -0.0550 C   0  0  0  0  0  0  0  0  0  0  0  0
   -3.2370   -0.4660    0.0990 C   0  0  0  0  0  0  0  0  0  0  0  0
   -2.6470    0.7580    0.1140 C   0  0  0  0  0  0  0  0  0  0  0  0
   -1.2590    0.9000   -0.0000 C   0  0  0  0  0  0  0  0  0  0  0  0
  1  2  1  0
  2  3  2  0
  2 16  1  0
  3  4  1  0
  3  5  1  0
  5  6  2  3
  5 10  1  0
  6  7  1  0
  6  8  1  0
  8  9  1  0
 10 11  2  0
 10 16  1  0
 11 12  1  0
 12 13  1  0
 12 14  2  0
 14 15  1  0
 15 16  2  0
M  CHG  1   9   1
M  END
