
     RDKit          3D

 24 28  0  0  0  0  0  0  0  0999 V2000
    0.6750   -0.3750   -2.4890 C   0  0  0  0  0  0  0  0  0  0  0  0
    1.1540    0.2720   -1.2890 N   0  0  0  0  0  0  0  0  0  0  0  0
    0.4400    1.4120   -0.7980 C   0  0  0  0  0  0  0  0  0  0  0  0
   -0.9750    1.0760   -0.4450 C   0  0  0  0  0  0  0  0  0  0  0  0
   -1.9760    1.9750   -0.8280 C   0  0  0  0  0  0  0  0  0  0  0  0
   -3.2910    1.6510   -0.4930 C   0  0  0  0  0  0  0  0  0  0  0  0
   -4.5650    2.1370   -0.6150 C   0  0  0  0  0  0  0  0  0  0  0  0
   -5.4390    1.2520   -0.0200 N   0  0  0  0  0  0  0  0  0  0  0  0
   -4.7320    0.1970    0.4850 C   0  0  0  0  0  0  0  0  0  0  0  0
   -3.4550    0.4810    0.1780 C   0  0  0  0  0  0  0  0  0  0  0  0
   -2.5170   -0.4150    0.5660 C   0  0  0  0  0  0  0  0  0  0  0  0
   -1.2340   -0.0840    0.2310 N   0  0  0  0  0  0  0  0  0  0  0  0
   -3.2430   -1.4250    1.2150 N   0  0  0  0  0  0  0  0  0  0  0  0
   -4.6950   -1.1150    1.2110 C   0  0  0  0  0  0  0  0  0  0  0  0
    2.2970   -0.2320   -0.6480 C   0  0  0  0  0  0  0  0  0  0  0  0
    2.9610   -1.3380   -1.1990 C   0  0  0  0  0  0  0  0  0  0  0  0
    4.0830   -1.8910   -0.6310 C   0  0  0  0  0  0  0  0  0  0  0  0
    4.6240   -1.3810    0.5250 C   0  0  0  0  0  0  0  0  0  0  0  0
    5.6490   -1.6700    1.2890 O   0  0  0  0  0  0  0  0  0  0  0  0
    5.7370   -0.8550    2.3110 C   0  0  0  0  0  0  0  0  0  0  0  0
    6.6270   -0.8850    3.2270 O   0  0  0  0  0  0  0  0  0  0  0  0
    4.7120    0.0040    2.1960 N   0  0  0  0  0  0  0  0  0  0  0  0
    3.9970   -0.2970    1.0900 C   0  0  0  0  0  0  0  0  0  0  0  0
    2.8560    0.2610    0.5080 C   0  0  0  0  0  0  0  0  0  0  0  0
  1  2  1  0
  2  3  1  0
  2 15  1  0
  3  4  1  0
  4  5  2  0
  4 12  1  0
  5  6  1  0
  6  7  2  0
  6 10  1  0
  7  8  1  0
  8  9  1  0
  9 10  2  0
  9 14  1  0
 10 11  1  0
 11 12  2  0
 11 13  1  0
 13 14  1  0
 15 16  2  0
 15 24  1  0
 16 17  1  0
 17 18  2  0
 18 19  1  0
 18 23  1  0
 19 20  1  0
 20 21  2  0
 20 22  1  0
 22 23  1  0
 23 24  2  0
M  CHG  1  12   1
M  END
