
     RDKit          3D

 13 14  0  0  0  0  0  0  0  0999 V2000
    3.9820   -0.4800   -0.5220 O   0  0  0  0  0  0  0  0  0  0  0  0
    3.0840    0.0090    0.1870 C   0  0  0  0  0  0  0  0  0  0  0  0
    3.4140    0.8400    1.2300 O   0  0  0  0  0  0  0  0  0  0  0  0
    1.6800   -0.3350   -0.1360 C   0  0  2  0  0  0  0  0  0  0  0  0
    1.2910    0.1510   -1.5360 C   0  0  0  0  0  0  0  0  0  0  0  0
    0.0120   -0.4000   -1.7950 O   0  0  0  0  0  0  0  0  0  0  0  0
   -0.9480   -0.2570   -0.7960 C   0  0  0  0  0  0  0  0  0  0  0  0
   -2.2940   -0.4540   -1.0330 C   0  0  0  0  0  0  0  0  0  0  0  0
   -3.2490   -0.3130   -0.0460 C   0  0  0  0  0  0  0  0  0  0  0  0
   -2.8870    0.0370    1.2380 C   0  0  0  0  0  0  0  0  0  0  0  0
   -1.5440    0.2370    1.4830 C   0  0  0  0  0  0  0  0  0  0  0  0
   -0.5870    0.0940    0.4890 C   0  0  0  0  0  0  0  0  0  0  0  0
    0.7730    0.3020    0.7650 O   0  0  0  0  0  0  0  0  0  0  0  0
  1  2  2  0
  2  3  1  0
  4  2  1  1
  4  5  1  0
  4 13  1  0
  5  6  1  0
  6  7  1  0
  7  8  2  0
  7 12  1  0
  8  9  1  0
  9 10  2  0
 10 11  1  0
 11 12  2  0
 12 13  1  0
M  END
