
     RDKit          3D

 23 25  0  0  0  0  0  0  0  0999 V2000
    5.7810   -1.3490    2.2290 C   0  0  0  0  0  0  0  0  0  0  0  0
    4.4780   -1.0540    1.6140 C   0  0  0  0  0  0  0  0  0  0  0  0
    3.5000   -1.7700    1.9510 O   0  0  0  0  0  0  0  0  0  0  0  0
    4.2720   -0.0140    0.6710 N   0  0  0  0  0  0  0  0  0  0  0  0
    5.2790    0.8970    0.1770 C   0  0  0  0  0  0  0  0  0  0  0  0
    4.8340    1.1460   -1.2340 C   0  0  0  0  0  0  0  0  0  0  0  0
    3.3320    1.2740   -1.0970 C   0  0  0  0  0  0  0  0  0  0  0  0
    3.0530    0.3330    0.0360 C   0  0  0  0  0  0  0  0  0  0  0  0
    1.9000   -0.0890    0.3750 N   0  0  0  0  0  0  0  0  0  0  0  0
    0.6990    0.2670   -0.2690 C   0  0  0  0  0  0  0  0  0  0  0  0
   -0.1390   -0.6780   -0.6640 C   0  0  0  0  0  0  0  0  0  0  0  0
   -1.3970   -0.3500   -1.3360 C   0  0  1  0  0  0  0  0  0  0  0  0
   -2.5860   -0.6430   -0.4730 C   0  0  0  0  0  0  0  0  0  0  0  0
   -2.3590   -1.1110    0.6640 O   0  0  0  0  0  0  0  0  0  0  0  0
   -3.9010   -0.4170   -0.8840 N   0  0  0  0  0  0  0  0  0  0  0  0
   -5.0740   -0.6830   -0.0900 C   0  0  0  0  0  0  0  0  0  0  0  0
   -5.1730   -1.1680    1.1280 C   0  0  0  0  0  0  0  0  0  0  0  0
   -6.6010   -1.2740    1.5540 C   0  0  0  0  0  0  0  0  0  0  0  0
   -7.3220   -0.7720    0.3880 C   0  0  0  0  0  0  0  0  0  0  0  0
   -6.4510   -0.4390   -0.5410 C   0  0  0  0  0  0  0  0  0  0  0  0
   -1.4480    1.1480   -1.6140 C   0  0  0  0  0  0  0  0  0  0  0  0
   -1.0050    1.8290   -0.4630 O   0  0  0  0  0  0  0  0  0  0  0  0
    0.4010    1.7190   -0.4900 C   0  0  0  0  0  0  0  0  0  0  0  0
  1  2  1  0
  2  3  2  0
  2  4  1  0
  4  5  1  0
  4  8  1  0
  5  6  1  0
  6  7  1  0
  7  8  1  0
  8  9  2  3
  9 10  1  0
 10 11  2  0
 10 23  1  0
 11 12  1  0
 12 13  1  1
 12 21  1  0
 13 14  2  0
 13 15  1  0
 15 16  1  0
 16 17  2  0
 16 20  1  0
 17 18  1  0
 18 19  1  0
 19 20  2  0
 21 22  1  0
 22 23  1  0
M  END
