
     RDKit          3D

 12 11  0  0  0  0  0  0  0  0999 V2000
   -3.0810   -0.1720   -0.1850 C   0  0  0  0  0  0  0  0  0  0  0  0
   -1.7880   -0.1070    0.6100 C   0  0  2  0  0  0  0  0  0  0  0  0
   -1.9650    0.9940    1.6150 C   0  0  0  0  0  0  0  0  0  0  0  0
   -0.6670    0.1960   -0.2820 N   0  0  0  0  0  0  0  0  0  0  0  0
   -0.5860   -0.8740   -1.2840 C   0  0  0  0  0  0  0  0  0  0  0  0
   -0.2780   -2.1000   -0.7590 O   0  0  0  0  0  0  0  0  0  0  0  0
    0.5690    0.1030    0.4650 C   0  0  0  0  0  0  0  0  0  0  0  0
    1.8000    0.5490   -0.2740 C   0  0  2  0  0  0  0  0  0  0  0  0
    2.1420   -0.1710   -1.3860 O   0  0  0  0  0  0  0  0  0  0  0  0
    3.2800    0.5800    0.8710 P   0  0  0  0  0  0  0  0  0  0  0  0
    4.1300    2.0770    0.5500 O   0  0  0  0  0  0  0  0  0  0  0  0
    4.3550   -0.7170    0.4700 O   0  0  0  0  0  0  0  0  0  0  0  0
  2  1  1  6
  2  3  1  0
  2  4  1  0
  4  5  1  0
  4  7  1  0
  5  6  1  0
  7  8  1  0
  8  9  1  6
  8 10  1  0
 10 11  1  0
 10 12  1  0
M  END
