
     RDKit          3D

 12 11  0  0  0  0  0  0  0  0999 V2000
    3.6690   -0.3320   -0.7440 C   0  0  0  0  0  0  0  0  0  0  0  0
    2.2260   -0.8100   -0.5540 C   0  0  0  0  0  0  0  0  0  0  0  0
    1.7230   -0.1010    0.6920 C   0  0  0  0  0  0  0  0  0  0  0  0
    0.3820   -0.4360    1.0140 N   0  0  0  0  0  0  0  0  0  0  0  0
   -0.6510   -0.0330    0.1540 C   0  0  2  0  0  0  0  0  0  0  0  0
   -0.8270    1.4340    0.0090 C   0  0  0  0  0  0  0  0  0  0  0  0
    0.3030    2.0120   -0.5240 O   0  0  0  0  0  0  0  0  0  0  0  0
   -1.9720   -0.6190    0.5670 C   0  0  0  0  0  0  0  0  0  0  0  0
   -1.9670   -1.3340    1.5450 O   0  0  0  0  0  0  0  0  0  0  0  0
   -3.4630   -0.2390   -0.3870 P   0  0  0  0  0  0  0  0  0  0  0  0
   -4.2060   -1.6900   -1.0040 O   0  0  0  0  0  0  0  0  0  0  0  0
   -4.6050    0.7010    0.5160 O   0  0  0  0  0  0  0  0  0  0  0  0
  1  2  1  0
  2  3  1  0
  3  4  1  0
  4  5  1  0
  5  6  1  1
  5  8  1  0
  6  7  1  0
  8  9  2  0
  8 10  1  0
 10 11  1  0
 10 12  1  0
M  END
