
     RDKit          3D

 10  9  0  0  0  0  0  0  0  0999 V2000
    2.3110    1.2370   -1.7180 O   0  0  0  0  0  0  0  0  0  0  0  0
    1.6570    0.5340   -0.9020 C   0  0  0  0  0  0  0  0  0  0  0  0
    0.1910    0.6980   -0.7100 C   0  0  0  0  0  0  0  0  0  0  0  0
   -0.2470   -0.1670    0.2080 O   0  0  0  0  0  0  0  0  0  0  0  0
   -1.7700   -0.2850    0.6790 P   0  0  0  0  0  0  0  0  0  0  0  0
   -2.9630   -0.7640   -0.4080 O   0  0  0  0  0  0  0  0  0  0  0  0
   -2.0930    1.1810    0.4070 O   0  0  0  0  0  0  0  0  0  0  0  0
   -1.5670   -1.7610    1.0790 O   0  0  0  0  0  0  0  0  0  0  0  0
    2.3430   -0.4490   -0.1410 N   0  0  0  0  0  0  0  0  0  0  0  0
    3.6790   -0.6500   -0.2680 O   0  0  0  0  0  0  0  0  0  0  0  0
  1  2  2  0
  2  3  1  0
  2  9  1  0
  3  4  1  0
  4  5  1  0
  5  6  1  0
  5  7  1  0
  5  8  1  0
  9 10  1  0
M  END
