
     RDKit          3D

 13 13  0  0  0  0  0  0  0  0999 V2000
    5.1010   -0.7850    0.1750 O   0  0  0  0  0  0  0  0  0  0  0  0
    3.7640    0.1370    0.7370 P   0  0  0  0  0  0  0  0  0  0  0  0
    3.6870    1.6650   -0.0620 O   0  0  0  0  0  0  0  0  0  0  0  0
    2.1710   -0.8030    0.6220 C   0  0  0  0  0  0  0  0  0  0  0  0
    1.4240   -0.4630   -0.6720 C   0  0  0  0  0  0  0  0  0  0  0  0
    0.1810   -1.2030   -0.7410 N   0  0  0  0  0  0  0  0  0  0  0  0
   -0.8280   -0.7660    0.1910 C   0  0  0  0  0  0  0  0  0  0  0  0
   -1.3320    0.5880   -0.2440 C   0  0  2  0  0  0  0  0  0  0  0  0
   -2.4100    1.1400    0.6080 C   0  0  0  0  0  0  0  0  0  0  0  0
   -3.7370    0.6900    0.0050 C   0  0  0  0  0  0  0  0  0  0  0  0
   -3.6020   -0.5510   -0.5850 O   0  0  0  0  0  0  0  0  0  0  0  0
   -2.7050   -0.5980   -1.5320 O   0  0  0  0  0  0  0  0  0  0  0  0
   -1.8840    0.4220   -1.5350 O   0  0  0  0  0  0  0  0  0  0  0  0
  1  2  1  0
  2  3  1  0
  2  4  1  0
  4  5  1  0
  5  6  1  0
  6  7  1  0
  8  7  1  1
  8  9  1  0
  8 13  1  0
  9 10  1  0
 10 11  1  0
 11 12  1  0
 12 13  1  0
M  END
