
     RDKit          3D

 13 12  0  0  0  0  0  0  0  0999 V2000
    1.6050    3.1820   -0.5860 C   0  0  0  0  0  0  0  0  0  0  0  0
    1.6950    2.1170    0.3050 O   0  0  0  0  0  0  0  0  0  0  0  0
    1.1810    0.6290   -0.4040 P   0  0  0  0  0  0  0  0  0  0  0  0
   -0.6510    0.4570   -0.3060 C   0  0  0  0  0  0  0  0  0  0  0  0
   -1.0970   -0.8490   -0.0610 N   0  0  0  0  0  0  0  0  0  0  0  0
   -0.6940   -1.5080    1.1220 C   0  0  0  0  0  0  0  0  0  0  0  0
   -2.3050   -1.2880   -0.6340 C   0  0  0  0  0  0  0  0  0  0  0  0
   -3.5290   -0.6710   -0.1380 C   0  0  0  0  0  0  0  0  0  0  0  0
   -4.6440   -1.0150   -0.6010 O   0  0  0  0  0  0  0  0  0  0  0  0
   -3.5810    0.3120    0.8480 O   0  0  0  0  0  0  0  0  0  0  0  0
    2.0350   -0.7230    0.1990 O   0  0  0  0  0  0  0  0  0  0  0  0
    3.3130   -0.7140   -0.3390 C   0  0  0  0  0  0  0  0  0  0  0  0
    4.0850   -1.7790    0.0940 O   0  0  0  0  0  0  0  0  0  0  0  0
  1  2  1  0
  2  3  1  0
  3  4  1  0
  3 11  1  0
  4  5  1  0
  5  6  1  0
  5  7  1  0
  7  8  1  0
  8  9  2  0
  8 10  1  0
 11 12  1  0
 12 13  1  0
M  END
