
     RDKit          3D

 20 21  0  0  0  0  0  0  0  0999 V2000
    2.6780   -1.8470    1.5220 C   0  0  0  0  0  0  0  0  0  0  0  0
    3.3170   -0.5490    1.3020 C   0  0  0  0  0  0  0  0  0  0  0  0
    2.8370    0.2810    0.3350 C   0  0  0  0  0  0  0  0  0  0  0  0
    1.6900   -0.1950   -0.4350 C   0  0  0  0  0  0  0  0  0  0  0  0
    0.3870    0.1930   -0.0600 N   0  0  0  0  0  0  0  0  0  0  0  0
   -0.0100    1.5230   -0.1150 C   0  0  0  0  0  0  0  0  0  0  0  0
   -1.2260    1.8930    0.6730 C   0  0  1  0  0  0  0  0  0  0  0  0
   -2.5530    2.1380    0.0170 C   0  0  1  0  0  0  0  0  0  0  0  0
   -2.8290    1.7440   -1.2680 O   0  0  0  0  0  0  0  0  0  0  0  0
   -2.2350    1.0170    1.0630 C   0  0  1  0  0  0  0  0  0  0  0  0
   -2.5490   -0.3040    0.5910 C   0  0  0  0  0  0  0  0  0  0  0  0
   -1.6780   -1.1330   -0.2330 C   0  0  1  0  0  0  0  0  0  0  0  0
   -1.0890   -2.3090    0.5740 C   0  0  0  0  0  0  0  0  0  0  0  0
   -2.5050   -1.8520   -1.3220 C   0  0  0  0  0  0  0  0  0  0  0  0
   -0.5440   -0.5240   -0.9450 C   0  0  0  0  0  0  0  0  0  0  0  0
    3.5970    1.4950    0.1690 C   0  0  0  0  0  0  0  0  0  0  0  0
    4.9100    1.6710    1.4190 Cl  0  0  0  0  0  0  0  0  0  0  0  0
    3.5510    2.4780   -0.6530 C   0  0  0  0  0  0  0  0  0  0  0  0
    2.4670    2.7100   -1.9880 Cl  0  0  0  0  0  0  0  0  0  0  0  0
    4.7380    3.8080   -0.4430 Cl  0  0  0  0  0  0  0  0  0  0  0  0
  1  2  1  0
  2  3  2  3
  3  4  1  0
  3 16  1  0
  4  5  1  0
  5  6  1  0
  5 15  1  0
  7  6  1  6
  7  8  1  0
  7 10  1  0
  8  9  1  6
  8 10  1  0
 10 11  1  6
 11 12  1  0
 12 13  1  1
 12 14  1  0
 12 15  1  0
 16 17  1  0
 16 18  2  3
 18 19  1  0
 18 20  1  0
M  END
