
     RDKit          3D

 20 20  0  0  0  0  0  0  0  0999 V2000
    7.2970    0.2720    1.0800 C   0  0  0  0  0  0  0  0  0  0  0  0
    6.5950    0.8720    0.0660 O   0  0  0  0  0  0  0  0  0  0  0  0
    5.2310    0.8020    0.1620 C   0  0  0  0  0  0  0  0  0  0  0  0
    4.6610   -0.5900    0.1850 C   0  0  0  0  0  0  0  0  0  0  0  0
    3.2410   -0.5350    0.2840 N   0  0  0  0  0  0  0  0  0  0  0  0
    2.5510   -1.7490    0.3220 C   0  0  0  0  0  0  0  0  0  0  0  0
    1.3270   -1.7110   -0.5220 C   0  0  0  0  0  0  0  0  0  0  0  0
    0.4680   -0.5880   -0.2450 N   0  0  1  0  0  0  0  0  0  0  0  0
   -0.2480   -0.8860    0.9800 C   0  0  0  0  0  0  0  0  0  0  0  0
   -1.7670   -0.7200    0.7900 C   0  0  0  0  0  0  0  0  0  0  0  0
   -2.0260    0.7050    0.3950 C   0  0  0  0  0  0  0  0  0  0  0  0
   -3.4060    0.8990    0.2190 O   0  0  0  0  0  0  0  0  0  0  0  0
   -4.1420    0.2220   -0.7160 C   0  0  0  0  0  0  0  0  0  0  0  0
   -3.6440   -0.6180   -1.4870 O   0  0  0  0  0  0  0  0  0  0  0  0
   -5.6010    0.4900   -0.8300 C   0  0  2  0  0  0  0  0  0  0  0  0
   -5.9250    0.8640   -2.2520 C   0  0  0  0  0  0  0  0  0  0  0  0
   -6.0060    1.4440    0.0850 O   0  0  0  0  0  0  0  0  0  0  0  0
   -6.8900    0.9530    1.0200 C   0  0  0  0  0  0  0  0  0  0  0  0
    1.1470    0.6710   -0.2050 C   0  0  0  0  0  0  0  0  0  0  0  0
    2.6230    0.6200   -0.2180 C   0  0  0  0  0  0  0  0  0  0  0  0
  1  2  1  0
  2  3  1  0
  3  4  1  0
  4  5  1  0
  5  6  1  0
  5 20  1  0
  6  7  1  0
  7  8  1  0
  8  9  1  1
  8 19  1  0
  9 10  1  0
 10 11  1  0
 11 12  1  0
 12 13  1  0
 13 14  2  0
 13 15  1  0
 15 16  1  6
 15 17  1  0
 17 18  1  0
 19 20  1  0
M  CHG  1   8   1
M  END
