
     RDKit          3D

 20 20  0  0  0  0  0  0  0  0999 V2000
    6.7920   -0.1470   -0.5180 C   0  0  0  0  0  0  0  0  0  0  0  0
    5.5670   -0.2650   -1.3990 C   0  0  0  0  0  0  0  0  0  0  0  0
    4.4430    0.0670   -0.6180 O   0  0  0  0  0  0  0  0  0  0  0  0
    4.1110   -0.6620    0.4970 C   0  0  0  0  0  0  0  0  0  0  0  0
    4.8180   -1.6420    0.8290 O   0  0  0  0  0  0  0  0  0  0  0  0
    2.9450   -0.3140    1.3130 C   0  0  0  0  0  0  0  0  0  0  0  0
    2.1870    0.7380    0.6610 N   0  0  0  0  0  0  0  0  0  0  0  0
    1.1620    1.2590    1.5620 C   0  0  0  0  0  0  0  0  0  0  0  0
   -0.0630    1.6310    0.7470 C   0  0  0  0  0  0  0  0  0  0  0  0
   -0.6930    0.3980    0.2360 N   0  0  1  0  0  0  0  0  0  0  0  0
   -1.8510    0.7110   -0.5270 C   0  0  0  0  0  0  0  0  0  0  0  0
   -3.1200    0.1070    0.0320 C   0  0  1  0  0  0  0  0  0  0  0  0
   -3.0530   -1.3930    0.0810 C   0  0  0  0  0  0  0  0  0  0  0  0
   -3.3660    0.5750    1.4600 C   0  0  0  0  0  0  0  0  0  0  0  0
   -4.2900    0.5160   -0.7730 C   0  0  0  0  0  0  0  0  0  0  0  0
   -4.1000    1.2500   -1.7720 O   0  0  0  0  0  0  0  0  0  0  0  0
   -5.5990    0.1490   -0.5090 O   0  0  0  0  0  0  0  0  0  0  0  0
   -6.6690    0.6060   -1.3540 C   0  0  0  0  0  0  0  0  0  0  0  0
    0.3090   -0.3850   -0.4080 C   0  0  0  0  0  0  0  0  0  0  0  0
    1.6290    0.3200   -0.5890 C   0  0  0  0  0  0  0  0  0  0  0  0
  1  2  1  0
  2  3  1  0
  3  4  1  0
  4  5  2  0
  4  6  1  0
  6  7  1  0
  7  8  1  0
  7 20  1  0
  8  9  1  0
  9 10  1  0
 10 11  1  6
 10 19  1  0
 11 12  1  0
 12 13  1  1
 12 14  1  0
 12 15  1  0
 15 16  2  0
 15 17  1  0
 17 18  1  0
 19 20  1  0
M  CHG  1  10   1
M  END
