
     RDKit          3D

 23 25  0  0  0  0  0  0  0  0999 V2000
   -3.7740    2.3070   -1.7600 C   0  0  0  0  0  0  0  0  0  0  0  0
   -3.0910    1.0470   -1.3430 C   0  0  0  0  0  0  0  0  0  0  0  0
   -2.2370    0.3180   -2.1500 C   0  0  0  0  0  0  0  0  0  0  0  0
   -1.8380   -0.7540   -1.3740 C   0  0  0  0  0  0  0  0  0  0  0  0
   -2.4590   -0.6310   -0.1490 C   0  0  0  0  0  0  0  0  0  0  0  0
   -2.2930   -1.5970    0.9900 C   0  0  2  0  0  0  0  0  0  0  0  0
   -2.8880   -1.0570    2.2530 C   0  0  0  0  0  0  0  0  0  0  0  0
   -0.9170   -1.9540    1.1850 N   0  0  0  0  0  0  0  0  0  0  0  0
   -0.5560   -3.3510    1.0680 C   0  0  0  0  0  0  0  0  0  0  0  0
    0.0860   -1.0150    1.4830 C   0  0  0  0  0  0  0  0  0  0  0  0
    1.2770   -1.4540    1.6430 O   0  0  0  0  0  0  0  0  0  0  0  0
   -0.1430    0.4460    1.6220 C   0  0  0  0  0  0  0  0  0  0  0  0
    1.1090    1.1240    1.9100 N   0  0  0  0  0  0  0  0  0  0  0  0
    2.1960    1.1370    1.0060 C   0  0  0  0  0  0  0  0  0  0  0  0
    3.3910    1.7210    1.3740 C   0  0  0  0  0  0  0  0  0  0  0  0
    4.4190    1.7160    0.4600 C   0  0  0  0  0  0  0  0  0  0  0  0
    4.2670    1.1470   -0.7870 C   0  0  0  0  0  0  0  0  0  0  0  0
    5.1270    1.0290   -1.8280 N   0  0  0  0  0  0  0  0  0  0  0  0
    4.4700    0.3900   -2.8030 C   0  0  0  0  0  0  0  0  0  0  0  0
    3.2050    0.1100   -2.3740 C   0  0  0  0  0  0  0  0  0  0  0  0
    3.0880    0.5870   -1.1140 N   0  0  0  0  0  0  0  0  0  0  0  0
    2.0430    0.5690   -0.2390 C   0  0  0  0  0  0  0  0  0  0  0  0
   -3.1830    0.4400   -0.1780 O   0  0  0  0  0  0  0  0  0  0  0  0
  1  2  1  0
  2  3  2  0
  2 23  1  0
  3  4  1  0
  4  5  2  0
  5  6  1  0
  5 23  1  0
  6  7  1  1
  6  8  1  0
  8  9  1  0
  8 10  1  0
 10 11  2  0
 10 12  1  0
 12 13  1  0
 13 14  1  0
 14 15  1  0
 14 22  2  0
 15 16  2  0
 16 17  1  0
 17 18  2  0
 17 21  1  0
 18 19  1  0
 19 20  2  0
 20 21  1  0
 21 22  1  0
M  END
