
     RDKit          3D

 23 25  0  0  0  0  0  0  0  0999 V2000
   -2.3580   -2.2510   -1.2000 C   0  0  0  0  0  0  0  0  0  0  0  0
   -2.6860   -1.8760    0.2510 C   0  0  0  0  0  0  0  0  0  0  0  0
   -2.5870   -0.4320    0.4670 C   0  0  0  0  0  0  0  0  0  0  0  0
   -1.4530    0.3370    0.5980 C   0  0  0  0  0  0  0  0  0  0  0  0
   -0.0470   -0.0740    0.5860 C   0  0  0  0  0  0  0  0  0  0  0  0
    0.3870   -1.0970    1.3900 C   0  0  0  0  0  0  0  0  0  0  0  0
    1.7250   -1.4530    1.3320 C   0  0  0  0  0  0  0  0  0  0  0  0
    2.6190   -0.8150    0.5000 C   0  0  0  0  0  0  0  0  0  0  0  0
    2.1850    0.2170   -0.3100 C   0  0  0  0  0  0  0  0  0  0  0  0
    3.0500    0.8900   -1.1640 O   0  0  0  0  0  0  0  0  0  0  0  0
    4.3930    0.5410   -1.2340 C   0  0  0  0  0  0  0  0  0  0  0  0
    4.7860   -0.3120   -2.1980 N   0  0  0  0  0  0  0  0  0  0  0  0
    6.0850   -0.6380   -2.2510 C   0  0  0  0  0  0  0  0  0  0  0  0
    7.0070   -0.1550   -1.3920 N   0  0  0  0  0  0  0  0  0  0  0  0
    6.6020    0.6950   -0.4340 C   0  0  0  0  0  0  0  0  0  0  0  0
    7.4000    1.1940    0.4120 O   0  0  0  0  0  0  0  0  0  0  0  0
    5.3010    1.0210   -0.3810 N   0  0  0  0  0  0  0  0  0  0  0  0
    0.8530    0.5740   -0.2560 C   0  0  0  0  0  0  0  0  0  0  0  0
   -1.8730    1.6420    0.7690 C   0  0  0  0  0  0  0  0  0  0  0  0
   -3.2250    1.6550    0.7420 C   0  0  0  0  0  0  0  0  0  0  0  0
   -4.0610    2.8980    0.8960 C   0  0  0  0  0  0  0  0  0  0  0  0
   -3.6470    0.4090    0.5600 N   0  0  0  0  0  0  0  0  0  0  0  0
   -5.0630    0.0520    0.4810 C   0  0  0  0  0  0  0  0  0  0  0  0
  1  2  1  0
  2  3  1  0
  3  4  2  0
  3 22  1  0
  4  5  1  0
  4 19  1  0
  5  6  2  0
  5 18  1  0
  6  7  1  0
  7  8  2  0
  8  9  1  0
  9 10  1  0
  9 18  2  0
 10 11  1  0
 11 12  2  0
 11 17  1  0
 12 13  1  0
 13 14  2  0
 14 15  1  0
 15 16  2  0
 15 17  1  0
 19 20  2  0
 20 21  1  0
 20 22  1  0
 22 23  1  0
M  END
