
     RDKit          3D

 22 24  0  0  0  0  0  0  0  0999 V2000
   -4.0530   -1.3230   -1.9800 C   0  0  0  0  0  0  0  0  0  0  0  0
   -2.6870   -1.2050   -1.4790 C   0  0  0  0  0  0  0  0  0  0  0  0
   -1.8450   -2.3040   -1.5190 C   0  0  0  0  0  0  0  0  0  0  0  0
   -0.5380   -2.2520   -1.0620 C   0  0  0  0  0  0  0  0  0  0  0  0
    0.2990   -3.3520   -1.1050 O   0  0  0  0  0  0  0  0  0  0  0  0
   -0.0850   -1.0510   -0.5550 C   0  0  0  0  0  0  0  0  0  0  0  0
    1.2050   -0.9260   -0.0820 O   0  0  0  0  0  0  0  0  0  0  0  0
    1.7300    0.2650    0.4470 C   0  0  0  0  0  0  0  0  0  0  0  0
    3.1450   -0.0130    0.8440 C   0  0  0  0  0  0  0  0  0  0  0  0
    3.7150   -1.2550    0.6950 C   0  0  0  0  0  0  0  0  0  0  0  0
    5.0240   -1.4160    1.0880 C   0  0  0  0  0  0  0  0  0  0  0  0
    5.6680   -0.3560    1.5930 N   0  0  0  0  0  0  0  0  0  0  0  0
    5.1100    0.8580    1.7380 C   0  0  0  0  0  0  0  0  0  0  0  0
    5.5660    2.0680    2.2210 C   0  0  0  0  0  0  0  0  0  0  0  0
    4.5520    2.9330    2.1190 N   0  0  0  0  0  0  0  0  0  0  0  0
    3.5210    2.2880    1.5980 N   0  0  0  0  0  0  0  0  0  0  0  0
    3.8390    1.0210    1.3580 N   0  0  0  0  0  0  0  0  0  0  0  0
   -0.9210    0.0400   -0.5140 C   0  0  0  0  0  0  0  0  0  0  0  0
   -2.2290   -0.0120   -0.9710 C   0  0  0  0  0  0  0  0  0  0  0  0
   -3.1570    1.1330   -0.9390 C   0  0  2  0  0  0  0  0  0  0  0  0
   -2.4760    2.4030   -0.4630 C   0  0  0  0  0  0  0  0  0  0  0  0
   -4.3990    0.8430   -0.1080 C   0  0  0  0  0  0  0  0  0  0  0  0
  1  2  1  0
  2  3  2  0
  2 19  1  0
  3  4  1  0
  4  5  1  0
  4  6  2  0
  6  7  1  0
  6 18  1  0
  7  8  1  0
  8  9  1  0
  9 10  2  0
  9 17  1  0
 10 11  1  0
 11 12  2  0
 12 13  1  0
 13 14  2  0
 13 17  1  0
 14 15  1  0
 15 16  2  0
 16 17  1  0
 18 19  2  0
 19 20  1  0
 20 21  1  1
 20 22  1  0
M  END
