
     RDKit          3D

 21 23  0  0  0  0  0  0  0  0999 V2000
    0.8340   -0.3580   -1.2410 O   0  0  0  0  0  0  0  0  0  0  0  0
    0.5160   -0.0220   -0.0750 C   0  0  0  0  0  0  0  0  0  0  0  0
    1.5020    0.2400    0.8280 O   0  0  0  0  0  0  0  0  0  0  0  0
    2.8740    0.1510    0.5190 C   0  0  0  0  0  0  0  0  0  0  0  0
    3.4460    1.3220    0.0410 C   0  0  0  0  0  0  0  0  0  0  0  0
    4.7910    1.3020   -0.2820 C   0  0  0  0  0  0  0  0  0  0  0  0
    5.4150    2.4500   -0.7660 O   0  0  0  0  0  0  0  0  0  0  0  0
    5.5320    0.1450   -0.1280 C   0  0  0  0  0  0  0  0  0  0  0  0
    4.9350   -1.0140    0.3530 C   0  0  0  0  0  0  0  0  0  0  0  0
    3.6000   -0.9910    0.6720 C   0  0  0  0  0  0  0  0  0  0  0  0
    2.9580   -2.1170    1.1540 O   0  0  0  0  0  0  0  0  0  0  0  0
   -0.9070    0.0720    0.2520 C   0  0  0  0  0  0  0  0  0  0  0  0
   -1.3600    0.4340    1.5040 C   0  0  0  0  0  0  0  0  0  0  0  0
   -2.6880    0.5280    1.8320 C   0  0  0  0  0  0  0  0  0  0  0  0
   -3.6100    0.2430    0.8450 C   0  0  0  0  0  0  0  0  0  0  0  0
   -3.2220   -0.1270   -0.4350 C   0  0  0  0  0  0  0  0  0  0  0  0
   -1.8690   -0.2020   -0.6950 C   0  0  0  0  0  0  0  0  0  0  0  0
   -4.4370   -0.3630   -1.2490 C   0  0  1  0  0  0  0  0  0  0  0  0
   -4.6500   -1.7160   -1.4910 O   0  0  0  0  0  0  0  0  0  0  0  0
   -5.5580    0.1180   -0.3520 C   0  0  0  0  0  0  0  0  0  0  0  0
   -4.9950    0.2660    0.9270 O   0  0  0  0  0  0  0  0  0  0  0  0
  1  2  2  0
  2  3  1  0
  2 12  1  0
  3  4  1  0
  4  5  2  0
  4 10  1  0
  5  6  1  0
  6  7  1  0
  6  8  2  0
  8  9  1  0
  9 10  2  0
 10 11  1  0
 12 13  2  0
 12 17  1  0
 13 14  1  0
 14 15  2  0
 15 16  1  0
 15 21  1  0
 16 17  2  0
 16 18  1  0
 18 19  1  1
 18 20  1  0
 20 21  1  0
M  END
