
     RDKit          3D

 21 22  0  0  0  0  0  0  0  0999 V2000
    5.4130   -1.2740   -1.1660 C   0  0  0  0  0  0  0  0  0  0  0  0
    5.1060   -0.0400   -0.5990 O   0  0  0  0  0  0  0  0  0  0  0  0
    3.8690    0.3360   -0.1360 C   0  0  0  0  0  0  0  0  0  0  0  0
    2.7260   -0.4350   -0.1510 C   0  0  0  0  0  0  0  0  0  0  0  0
    1.7480    0.2640    0.3740 O   0  0  0  0  0  0  0  0  0  0  0  0
    2.0900    1.4420    0.7540 C   0  0  0  0  0  0  0  0  0  0  0  0
    1.3690    2.5390    1.3710 C   0  0  0  0  0  0  0  0  0  0  0  0
    0.1240    2.5440    1.6890 C   0  0  0  0  0  0  0  0  0  0  0  0
   -0.8470    1.5020    1.5230 C   0  0  0  0  0  0  0  0  0  0  0  0
   -2.0710    1.6940    1.9090 O   0  0  0  0  0  0  0  0  0  0  0  0
   -0.6150    0.2720    0.9760 O   0  0  0  0  0  0  0  0  0  0  0  0
   -1.5070   -0.7720    0.7820 C   0  0  0  0  0  0  0  0  0  0  0  0
   -2.6230   -0.4510   -0.1430 C   0  0  0  0  0  0  0  0  0  0  0  0
   -2.8820    0.6690   -0.8020 C   0  0  0  0  0  0  0  0  0  0  0  0
   -4.1020    0.4390   -1.5650 C   0  0  0  0  0  0  0  0  0  0  0  0
   -4.5670   -0.7780   -1.3760 C   0  0  0  0  0  0  0  0  0  0  0  0
   -3.6670   -1.4540   -0.4530 C   0  0  0  0  0  0  0  0  0  0  0  0
   -3.7580   -2.6890    0.0080 C   0  0  0  0  0  0  0  0  0  0  0  0
   -4.7810   -3.5250   -0.3580 O   0  0  0  0  0  0  0  0  0  0  0  0
    3.4710    1.5170    0.4330 C   0  0  0  0  0  0  0  0  0  0  0  0
    4.3030    2.5890    0.6460 O   0  0  0  0  0  0  0  0  0  0  0  0
  1  2  1  0
  2  3  1  0
  3  4  2  0
  3 20  1  0
  4  5  1  0
  5  6  1  0
  6  7  1  0
  6 20  2  0
  7  8  2  3
  8  9  1  0
  9 10  2  0
  9 11  1  0
 11 12  1  0
 12 13  1  0
 13 14  2  0
 13 17  1  0
 14 15  1  0
 15 16  2  0
 16 17  1  0
 17 18  2  3
 18 19  1  0
 20 21  1  0
M  END
