
     RDKit          3D

 21 22  0  0  0  0  0  0  0  0999 V2000
    5.2120   -0.7510    0.6910 C   0  0  0  0  0  0  0  0  0  0  0  0
    3.8250   -1.0630    0.7290 O   0  0  0  0  0  0  0  0  0  0  0  0
    2.8540   -0.2480    0.1010 C   0  0  0  0  0  0  0  0  0  0  0  0
    3.3370    0.7380   -0.4680 O   0  0  0  0  0  0  0  0  0  0  0  0
    1.4730   -0.6560    0.2020 C   0  0  0  0  0  0  0  0  0  0  0  0
    1.0070   -1.7510    0.8150 C   0  0  0  0  0  0  0  0  0  0  0  0
    1.8230   -2.6790    1.4670 O   0  0  0  0  0  0  0  0  0  0  0  0
   -0.4400   -1.7900    0.6770 C   0  0  2  0  0  0  0  0  0  0  0  0
   -0.9020   -2.9000   -0.0260 O   0  0  0  0  0  0  0  0  0  0  0  0
   -0.8070   -0.5500   -0.1180 C   0  0  0  0  0  0  0  0  0  0  0  0
   -2.2060   -0.2860   -0.4240 C   0  0  0  0  0  0  0  0  0  0  0  0
   -3.2020   -1.1220   -0.0510 C   0  0  0  0  0  0  0  0  0  0  0  0
   -4.5150   -0.6020   -0.4940 C   0  0  0  0  0  0  0  0  0  0  0  0
   -4.1330    0.6430   -1.1580 C   0  0  0  0  0  0  0  0  0  0  0  0
   -2.8100    0.8190   -1.1150 C   0  0  0  0  0  0  0  0  0  0  0  0
    0.3180    0.0720   -0.3670 C   0  0  0  0  0  0  0  0  0  0  0  0
    0.4480    1.2980   -1.1380 C   0  0  0  0  0  0  0  0  0  0  0  0
    0.8160    2.5620   -0.5330 C   0  0  0  0  0  0  0  0  0  0  0  0
   -0.0700    3.0110    0.5620 C   0  0  0  0  0  0  0  0  0  0  0  0
    0.0720    4.1760    1.0590 O   0  0  0  0  0  0  0  0  0  0  0  0
   -1.0610    2.2270    1.0930 O   0  0  0  0  0  0  0  0  0  0  0  0
  1  2  1  0
  2  3  1  0
  3  4  2  0
  3  5  1  0
  5  6  2  0
  5 16  1  0
  6  7  1  0
  6  8  1  0
  8  9  1  6
  8 10  1  0
 10 11  1  0
 10 16  2  0
 11 12  2  0
 11 15  1  0
 12 13  1  0
 13 14  1  0
 14 15  2  0
 16 17  1  0
 17 18  1  0
 18 19  1  0
 19 20  2  0
 19 21  1  0
M  END
