
     RDKit          3D

 21 23  0  0  0  0  0  0  0  0999 V2000
    3.3510   -2.7770   -0.8410 C   0  0  0  0  0  0  0  0  0  0  0  0
    3.8330   -1.4620   -0.3080 C   0  0  0  0  0  0  0  0  0  0  0  0
    5.0720   -1.1450   -0.1000 O   0  0  0  0  0  0  0  0  0  0  0  0
    5.1770    0.0690    0.3670 C   0  0  0  0  0  0  0  0  0  0  0  0
    6.3580    0.7440    0.7070 O   0  0  0  0  0  0  0  0  0  0  0  0
    3.8870    0.6080    0.4800 C   0  0  0  0  0  0  0  0  0  0  0  0
    3.6120    1.8970    0.9490 O   0  0  0  0  0  0  0  0  0  0  0  0
    3.0420   -0.3770    0.0470 C   0  0  0  0  0  0  0  0  0  0  0  0
    1.5890   -0.3550   -0.0480 C   0  0  0  0  0  0  0  0  0  0  0  0
    0.9610    0.8360    0.3580 O   0  0  0  0  0  0  0  0  0  0  0  0
   -0.4350    0.8780    0.2760 C   0  0  0  0  0  0  0  0  0  0  0  0
   -1.1230   -0.2200   -0.1880 C   0  0  0  0  0  0  0  0  0  0  0  0
   -2.5240   -0.1520   -0.2610 C   0  0  0  0  0  0  0  0  0  0  0  0
   -3.1870    0.9860    0.1230 C   0  0  0  0  0  0  0  0  0  0  0  0
   -2.4740    2.0550    0.5770 C   0  0  0  0  0  0  0  0  0  0  0  0
   -1.0800    2.0180    0.6620 C   0  0  0  0  0  0  0  0  0  0  0  0
   -0.4060    3.1600    1.1410 O   0  0  0  0  0  0  0  0  0  0  0  0
   -4.6670    0.9710    0.0190 C   0  0  0  0  0  0  0  0  0  0  0  0
   -5.0600   -0.4350    0.5030 C   0  0  0  0  0  0  0  0  0  0  0  0
   -4.6300   -1.3150   -0.4680 O   0  0  0  0  0  0  0  0  0  0  0  0
   -3.3050   -1.3070   -0.7570 C   0  0  0  0  0  0  0  0  0  0  0  0
  1  2  1  0
  2  3  1  0
  2  8  2  0
  3  4  1  0
  4  5  1  0
  4  6  2  0
  6  7  1  0
  6  8  1  0
  8  9  1  0
  9 10  1  0
 10 11  1  0
 11 12  2  0
 11 16  1  0
 12 13  1  0
 13 14  2  0
 13 21  1  0
 14 15  1  0
 14 18  1  0
 15 16  2  0
 16 17  1  0
 18 19  1  0
 19 20  1  0
 20 21  1  0
M  END
