
     RDKit          3D

 21 23  0  0  0  0  0  0  0  0999 V2000
    2.4820   -2.5940    0.7240 O   0  0  0  0  0  0  0  0  0  0  0  0
    1.5290   -1.7880    0.0610 C   0  0  0  0  0  0  0  0  0  0  0  0
    1.8830   -0.3610    0.1620 C   0  0  0  0  0  0  0  0  0  0  0  0
    3.0420   -0.0600    0.8930 C   0  0  0  0  0  0  0  0  0  0  0  0
    3.4520    1.2370    1.0570 C   0  0  0  0  0  0  0  0  0  0  0  0
    2.7220    2.2410    0.5000 C   0  0  0  0  0  0  0  0  0  0  0  0
    1.5890    1.9330   -0.2130 C   0  0  0  0  0  0  0  0  0  0  0  0
    1.1340    0.6440   -0.4060 C   0  0  0  0  0  0  0  0  0  0  0  0
   -0.0700    0.3800   -1.1830 C   0  0  1  0  0  0  0  0  0  0  0  0
    0.3520   -0.4660   -2.2580 O   0  0  0  0  0  0  0  0  0  0  0  0
   -1.1550   -0.3370   -0.5130 C   0  0  0  0  0  0  0  0  0  0  0  0
   -1.6460   -1.5320   -0.9980 C   0  0  0  0  0  0  0  0  0  0  0  0
   -2.6690   -2.2430   -0.4320 C   0  0  0  0  0  0  0  0  0  0  0  0
   -3.2710   -1.7640    0.6960 C   0  0  0  0  0  0  0  0  0  0  0  0
   -2.8220   -0.5740    1.2250 C   0  0  0  0  0  0  0  0  0  0  0  0
   -3.4460   -0.1060    2.3700 O   0  0  0  0  0  0  0  0  0  0  0  0
   -1.7890    0.1320    0.6440 C   0  0  0  0  0  0  0  0  0  0  0  0
   -1.3330    1.3220    1.1660 O   0  0  0  0  0  0  0  0  0  0  0  0
   -0.6050    1.4540   -1.8290 O   0  0  0  0  0  0  0  0  0  0  0  0
   -0.3420    2.7050   -1.4120 C   0  0  0  0  0  0  0  0  0  0  0  0
    0.8660    2.9520   -0.7660 O   0  0  0  0  0  0  0  0  0  0  0  0
  1  2  1  0
  2  3  1  0
  3  4  2  0
  3  8  1  0
  4  5  1  0
  5  6  2  0
  6  7  1  0
  7  8  2  0
  7 21  1  0
  8  9  1  0
  9 10  1  6
  9 11  1  0
  9 19  1  0
 11 12  2  0
 11 17  1  0
 12 13  1  0
 13 14  2  0
 14 15  1  0
 15 16  1  0
 15 17  2  0
 17 18  1  0
 19 20  1  0
 20 21  1  0
M  END
