
     RDKit          3D

  8  7  0  0  0  0  0  0  0  0999 V2000
   -2.0190    0.5340   -0.7070 C   0  0  0  0  0  0  0  0  0  0  0  0
   -0.8280   -0.1010   -0.1090 C   0  0  0  0  0  0  0  0  0  0  0  0
   -0.9540   -1.3840    0.6130 C   0  0  0  0  0  0  0  0  0  0  0  0
    0.3350    0.4770   -0.2240 C   0  0  0  0  0  0  0  0  0  0  0  0
    0.3890    1.7290   -0.9430 N   0  0  0  0  0  0  0  0  0  0  0  0
    1.5880   -0.0240    0.3070 C   0  0  0  0  0  0  0  0  0  0  0  0
    2.7050    0.6320    0.1390 N   0  0  0  0  0  0  0  0  0  0  0  0
    1.7420   -1.2300    1.0410 N   0  0  0  0  0  0  0  0  0  0  0  0
  1  2  1  0
  2  3  1  0
  2  4  2  3
  4  5  1  0
  4  6  1  0
  6  7  2  0
  6  8  1  0
M  END
