
     RDKit          3D

 20 22  0  0  0  0  0  0  0  0999 V2000
   -1.6220   -2.0030   -2.4250 O   0  0  0  0  0  0  0  0  0  0  0  0
   -1.2020   -1.1280   -1.6260 C   0  0  0  0  0  0  0  0  0  0  0  0
    0.2330   -0.7440   -1.5440 C   0  0  0  0  0  0  0  0  0  0  0  0
    0.5400   -0.4440   -0.1090 C   0  0  1  0  0  0  0  0  0  0  0  0
    1.9380   -0.0840    0.1380 C   0  0  0  0  0  0  0  0  0  0  0  0
    2.9270   -0.2810   -0.8010 C   0  0  0  0  0  0  0  0  0  0  0  0
    4.2480    0.0730   -0.5350 C   0  0  0  0  0  0  0  0  0  0  0  0
    4.6270    0.6300    0.6680 C   0  0  0  0  0  0  0  0  0  0  0  0
    5.9520    0.9830    0.9320 O   0  0  0  0  0  0  0  0  0  0  0  0
    3.6330    0.8240    1.6050 C   0  0  0  0  0  0  0  0  0  0  0  0
    2.3100    0.4720    1.3430 C   0  0  0  0  0  0  0  0  0  0  0  0
   -0.3090    0.6130    0.3290 O   0  0  0  0  0  0  0  0  0  0  0  0
   -1.6790    0.3900    0.2100 C   0  0  0  0  0  0  0  0  0  0  0  0
   -2.6020    1.0060    1.0310 C   0  0  0  0  0  0  0  0  0  0  0  0
   -3.9630    0.8030    0.9350 C   0  0  0  0  0  0  0  0  0  0  0  0
   -4.8870    1.4240    1.7630 O   0  0  0  0  0  0  0  0  0  0  0  0
   -4.4160   -0.0700   -0.0450 C   0  0  0  0  0  0  0  0  0  0  0  0
   -3.5330   -0.7060   -0.8860 C   0  0  0  0  0  0  0  0  0  0  0  0
   -4.0280   -1.5660   -1.8460 O   0  0  0  0  0  0  0  0  0  0  0  0
   -2.1810   -0.4710   -0.7510 C   0  0  0  0  0  0  0  0  0  0  0  0
  1  2  2  0
  2  3  1  0
  2 20  1  0
  3  4  1  0
  4  5  1  6
  4 12  1  0
  5  6  2  0
  5 11  1  0
  6  7  1  0
  7  8  2  0
  8  9  1  0
  8 10  1  0
 10 11  2  0
 12 13  1  0
 13 14  2  0
 13 20  1  0
 14 15  1  0
 15 16  1  0
 15 17  2  0
 17 18  1  0
 18 19  1  0
 18 20  2  0
M  END
