
     RDKit          3D

  8  7  0  0  0  0  0  0  0  0999 V2000
   -2.4890    0.8930    0.8920 C   0  0  0  0  0  0  0  0  0  0  0  0
   -1.4470    0.0760    0.1790 C   0  0  0  0  0  0  0  0  0  0  0  0
   -1.8510   -1.2390   -0.3950 C   0  0  0  0  0  0  0  0  0  0  0  0
   -0.2100    0.5150    0.0650 C   0  0  0  0  0  0  0  0  0  0  0  0
    0.7420   -0.2830   -0.6130 N   0  0  0  0  0  0  0  0  0  0  0  0
    2.0000   -0.1200   -0.3880 C   0  0  0  0  0  0  0  0  0  0  0  0
    2.4410    0.8560    0.5380 N   0  0  0  0  0  0  0  0  0  0  0  0
    2.9800   -0.9020   -1.0500 N   0  0  0  0  0  0  0  0  0  0  0  0
  1  2  1  0
  2  3  1  0
  2  4  2  3
  4  5  1  0
  5  6  2  3
  6  7  1  0
  6  8  1  0
M  END
