
     RDKit          3D

  8  7  0  0  0  0  0  0  0  0999 V2000
    2.2700    0.3790    1.3220 C   0  0  0  0  0  0  0  0  0  0  0  0
    0.8570   -0.0130    1.0820 C   0  0  0  0  0  0  0  0  0  0  0  0
    0.4560   -0.5650   -0.0500 C   0  0  0  0  0  0  0  0  0  0  0  0
    1.4110   -0.8230   -1.1480 C   0  0  0  0  0  0  0  0  0  0  0  0
   -0.8910   -0.9180   -0.2290 N   0  0  0  0  0  0  0  0  0  0  0  0
   -1.8570   -0.0550   -0.3200 C   0  0  0  0  0  0  0  0  0  0  0  0
   -1.6440    1.3380   -0.2460 N   0  0  0  0  0  0  0  0  0  0  0  0
   -3.1850   -0.5320   -0.5020 N   0  0  0  0  0  0  0  0  0  0  0  0
  1  2  1  0
  2  3  2  3
  3  4  1  0
  3  5  1  0
  5  6  2  3
  6  7  1  0
  6  8  1  0
M  END
