
     RDKit          3D

 21 22  0  0  0  0  0  0  0  0999 V2000
   -4.3230   -2.1050    0.7120 C   0  0  0  0  0  0  0  0  0  0  0  0
   -3.3220   -1.0980    0.3520 C   0  0  0  0  0  0  0  0  0  0  0  0
   -2.0020   -1.3800    0.4270 C   0  0  0  0  0  0  0  0  0  0  0  0
   -1.0550   -0.4880   -0.0160 C   0  0  0  0  0  0  0  0  0  0  0  0
   -1.3810    0.7700   -0.5750 C   0  0  0  0  0  0  0  0  0  0  0  0
   -2.7500    1.0560   -0.6500 C   0  0  0  0  0  0  0  0  0  0  0  0
   -3.6440    0.1540   -0.2060 C   0  0  0  0  0  0  0  0  0  0  0  0
   -5.0780    0.5800   -0.0150 C   0  0  0  0  0  0  0  0  0  0  0  0
   -5.6890    0.7480   -1.2860 O   0  0  0  0  0  0  0  0  0  0  0  0
   -0.1630    1.4740   -0.8890 C   0  0  2  0  0  0  0  0  0  0  0  0
    0.0200    2.1250   -2.0660 O   0  0  0  0  0  0  0  0  0  0  0  0
    0.9090    0.5220   -0.5590 C   0  0  0  0  0  0  0  0  0  0  0  0
    2.3900    0.7690   -0.7000 C   0  0  0  0  0  0  0  0  0  0  0  0
    2.8450    1.7530   -1.3210 O   0  0  0  0  0  0  0  0  0  0  0  0
    3.2590   -0.1060   -0.1030 O   0  0  0  0  0  0  0  0  0  0  0  0
    4.6480    0.0080   -0.1500 C   0  0  1  0  0  0  0  0  0  0  0  0
    5.1090    0.8970    1.0220 C   0  0  0  0  0  0  0  0  0  0  0  0
    5.2830   -1.2700   -0.0460 C   0  0  0  0  0  0  0  0  0  0  0  0
    5.0090   -2.2450   -0.8160 O   0  0  0  0  0  0  0  0  0  0  0  0
    6.2510   -1.5370    0.9790 O   0  0  0  0  0  0  0  0  0  0  0  0
    0.3990   -0.5670   -0.0500 C   0  0  0  0  0  0  0  0  0  0  0  0
  1  2  1  0
  2  3  2  0
  2  7  1  0
  3  4  1  0
  4  5  2  0
  4 21  1  0
  5  6  1  0
  5 10  1  0
  6  7  2  0
  7  8  1  0
  8  9  1  0
 10 11  1  6
 10 12  1  0
 12 13  1  0
 12 21  2  0
 13 14  2  0
 13 15  1  0
 15 16  1  0
 16 17  1  1
 16 18  1  0
 18 19  2  0
 18 20  1  0
M  END
