
     RDKit          3D

 21 22  0  0  0  0  0  0  0  0999 V2000
   -2.6740   -0.9270   -1.9650 C   0  0  0  0  0  0  0  0  0  0  0  0
   -2.9050   -1.0920   -0.5760 O   0  0  0  0  0  0  0  0  0  0  0  0
   -2.6920    0.0310    0.2220 C   0  0  0  0  0  0  0  0  0  0  0  0
   -3.7720    0.8830    0.4330 C   0  0  0  0  0  0  0  0  0  0  0  0
   -4.9960    0.6100   -0.1340 O   0  0  0  0  0  0  0  0  0  0  0  0
   -3.5850    1.9980    1.2180 C   0  0  0  0  0  0  0  0  0  0  0  0
   -2.3570    2.2710    1.7860 C   0  0  0  0  0  0  0  0  0  0  0  0
   -2.2420    3.4200    2.5700 O   0  0  0  0  0  0  0  0  0  0  0  0
   -1.2930    1.4220    1.5710 C   0  0  0  0  0  0  0  0  0  0  0  0
   -1.4600    0.2970    0.7860 C   0  0  0  0  0  0  0  0  0  0  0  0
   -0.3550   -0.6190    0.5420 C   0  0  0  0  0  0  0  0  0  0  0  0
   -0.5290   -1.9900    0.6300 C   0  0  0  0  0  0  0  0  0  0  0  0
    0.5050   -2.8740    0.4020 C   0  0  0  0  0  0  0  0  0  0  0  0
    1.7410   -2.3970    0.0800 C   0  0  0  0  0  0  0  0  0  0  0  0
    2.7870   -3.2550   -0.1520 O   0  0  0  0  0  0  0  0  0  0  0  0
    1.9700   -1.0400   -0.0220 C   0  0  0  0  0  0  0  0  0  0  0  0
    3.2460   -0.5890   -0.3530 O   0  0  0  0  0  0  0  0  0  0  0  0
    3.4280    0.8120   -0.4440 C   0  0  0  0  0  0  0  0  0  0  0  0
    4.8540    1.1060   -0.8080 C   0  0  0  0  0  0  0  0  0  0  0  0
    5.1440    0.5130   -2.0400 O   0  0  0  0  0  0  0  0  0  0  0  0
    0.9110   -0.1870    0.2130 C   0  0  0  0  0  0  0  0  0  0  0  0
  1  2  1  0
  2  3  1  0
  3  4  2  0
  3 10  1  0
  4  5  1  0
  4  6  1  0
  6  7  2  0
  7  8  1  0
  7  9  1  0
  9 10  2  0
 10 11  1  0
 11 12  2  0
 11 21  1  0
 12 13  1  0
 13 14  2  0
 14 15  1  0
 14 16  1  0
 16 17  1  0
 16 21  2  0
 17 18  1  0
 18 19  1  0
 19 20  1  0
M  END
