
     RDKit          3D

 21 22  0  0  0  0  0  0  0  0999 V2000
    4.3630    0.1290    1.5060 C   0  0  0  0  0  0  0  0  0  0  0  0
    4.5390    0.5480    0.2830 C   0  0  0  0  0  0  0  0  0  0  0  0
    5.7620    1.1250   -0.0870 O   0  0  0  0  0  0  0  0  0  0  0  0
    3.4830    0.4210   -0.7030 C   0  0  0  0  0  0  0  0  0  0  0  0
    3.6730    0.8770   -1.9490 C   0  0  0  0  0  0  0  0  0  0  0  0
    2.1960   -0.1770   -0.4100 C   0  0  0  0  0  0  0  0  0  0  0  0
    1.0550    0.6240   -0.5510 C   0  0  0  0  0  0  0  0  0  0  0  0
   -0.1610    0.0580   -0.3040 C   0  0  0  0  0  0  0  0  0  0  0  0
   -1.2950    0.8550   -0.4440 C   0  0  0  0  0  0  0  0  0  0  0  0
   -1.2990    2.1680   -0.8120 O   0  0  0  0  0  0  0  0  0  0  0  0
   -2.5280    0.2840   -0.1950 C   0  0  0  0  0  0  0  0  0  0  0  0
   -3.7130    0.9810   -0.3030 O   0  0  0  0  0  0  0  0  0  0  0  0
   -4.3400    1.6990    0.7120 C   0  0  0  0  0  0  0  0  0  0  0  0
   -2.5930   -1.0330    0.1790 C   0  0  0  0  0  0  0  0  0  0  0  0
   -3.9170   -1.6920    0.4600 C   0  0  0  0  0  0  0  0  0  0  0  0
   -3.7660   -3.0070    0.8170 O   0  0  0  0  0  0  0  0  0  0  0  0
   -1.4650   -1.8090    0.3130 C   0  0  0  0  0  0  0  0  0  0  0  0
   -0.2120   -1.2600    0.0680 C   0  0  0  0  0  0  0  0  0  0  0  0
    0.8780   -1.9550    0.1830 O   0  0  0  0  0  0  0  0  0  0  0  0
    2.0890   -1.4970   -0.0340 C   0  0  0  0  0  0  0  0  0  0  0  0
    3.1060   -2.2520    0.0990 O   0  0  0  0  0  0  0  0  0  0  0  0
  1  2  2  0
  2  3  1  0
  2  4  1  0
  4  5  2  0
  4  6  1  0
  6  7  2  0
  6 20  1  0
  7  8  1  0
  8  9  2  0
  8 18  1  0
  9 10  1  0
  9 11  1  0
 11 12  1  0
 11 14  2  0
 12 13  1  0
 14 15  1  0
 14 17  1  0
 15 16  1  0
 17 18  2  0
 18 19  1  0
 19 20  1  0
 20 21  2  0
M  END
