
     RDKit          3D

 21 23  0  0  0  0  0  0  0  0999 V2000
    2.6260   -2.5960   -0.4960 O   0  0  0  0  0  0  0  0  0  0  0  0
    1.9400   -1.5570   -0.3380 C   0  0  0  0  0  0  0  0  0  0  0  0
    0.5550   -1.6560   -0.1920 C   0  0  0  0  0  0  0  0  0  0  0  0
   -0.2180   -0.5370   -0.0180 C   0  0  0  0  0  0  0  0  0  0  0  0
   -1.6830   -0.5960    0.1400 C   0  0  0  0  0  0  0  0  0  0  0  0
   -2.4090   -1.7570    0.1300 C   0  0  0  0  0  0  0  0  0  0  0  0
   -3.7820   -1.7610    0.2820 C   0  0  0  0  0  0  0  0  0  0  0  0
   -4.4600   -0.5670    0.4510 C   0  0  0  0  0  0  0  0  0  0  0  0
   -5.8550   -0.5230    0.6100 O   0  0  0  0  0  0  0  0  0  0  0  0
   -3.7170    0.5930    0.4600 C   0  0  0  0  0  0  0  0  0  0  0  0
   -4.4020    1.7880    0.6300 O   0  0  0  0  0  0  0  0  0  0  0  0
   -2.3480    0.5970    0.3080 C   0  0  0  0  0  0  0  0  0  0  0  0
    0.4170    0.6070    0.0010 O   0  0  0  0  0  0  0  0  0  0  0  0
    1.7120    0.7550   -0.1310 C   0  0  0  0  0  0  0  0  0  0  0  0
    2.2900    2.0250   -0.0950 C   0  0  0  0  0  0  0  0  0  0  0  0
    3.6480    2.1670   -0.2350 C   0  0  0  0  0  0  0  0  0  0  0  0
    4.1880    3.4660   -0.1930 O   0  0  0  0  0  0  0  0  0  0  0  0
    4.4790    1.0950   -0.4120 C   0  0  0  0  0  0  0  0  0  0  0  0
    3.9290   -0.2050   -0.4530 C   0  0  0  0  0  0  0  0  0  0  0  0
    4.8120   -1.2230   -0.6310 O   0  0  0  0  0  0  0  0  0  0  0  0
    2.5660   -0.3310   -0.3110 C   0  0  0  0  0  0  0  0  0  0  0  0
  1  2  2  0
  2  3  1  0
  2 21  1  0
  3  4  2  0
  4  5  1  0
  4 13  1  0
  5  6  2  0
  5 12  1  0
  6  7  1  0
  7  8  2  0
  8  9  1  0
  8 10  1  0
 10 11  1  0
 10 12  2  0
 13 14  1  0
 14 15  2  0
 14 21  1  0
 15 16  1  0
 16 17  1  0
 16 18  2  0
 18 19  1  0
 19 20  1  0
 19 21  2  0
M  END
