
     RDKit          3D

 21 22  0  0  0  0  0  0  0  0999 V2000
   -2.5920    1.0070    0.6290 O   0  0  0  0  0  0  0  0  0  0  0  0
   -2.3030    0.1750   -0.2830 C   0  0  0  0  0  0  0  0  0  0  0  0
   -3.2700   -0.1370   -1.1980 O   0  0  0  0  0  0  0  0  0  0  0  0
   -4.5670    0.3160   -1.3020 C   0  0  0  0  0  0  0  0  0  0  0  0
   -5.4910    0.0190   -0.1730 C   0  0  0  0  0  0  0  0  0  0  0  0
   -5.0840    0.5450    1.0260 O   0  0  0  0  0  0  0  0  0  0  0  0
   -0.9740   -0.4110   -0.3240 C   0  0  0  0  0  0  0  0  0  0  0  0
   -0.6890   -1.3130   -1.3280 O   0  0  0  0  0  0  0  0  0  0  0  0
   -0.0560   -0.1060    0.5500 C   0  0  0  0  0  0  0  0  0  0  0  0
    1.2790   -0.6830    0.5290 C   0  0  0  0  0  0  0  0  0  0  0  0
    1.4650   -2.0490    0.6600 C   0  0  0  0  0  0  0  0  0  0  0  0
    0.3450   -2.8330    0.8830 O   0  0  0  0  0  0  0  0  0  0  0  0
    2.7280   -2.5990    0.5780 C   0  0  0  0  0  0  0  0  0  0  0  0
    3.8180   -1.7990    0.3660 C   0  0  0  0  0  0  0  0  0  0  0  0
    3.6510   -0.4340    0.2340 C   0  0  0  0  0  0  0  0  0  0  0  0
    4.7460    0.3910    0.0150 C   0  0  0  0  0  0  0  0  0  0  0  0
    4.6180    1.7510   -0.1260 C   0  0  0  0  0  0  0  0  0  0  0  0
    3.3500    2.2910   -0.0430 C   0  0  0  0  0  0  0  0  0  0  0  0
    2.2330    1.5150    0.1730 C   0  0  0  0  0  0  0  0  0  0  0  0
    0.9810    2.0760    0.2490 O   0  0  0  0  0  0  0  0  0  0  0  0
    2.3800    0.1560    0.3120 C   0  0  0  0  0  0  0  0  0  0  0  0
  1  2  2  0
  2  3  1  0
  2  7  1  0
  3  4  1  0
  4  5  1  0
  5  6  1  0
  7  8  1  0
  7  9  2  3
  9 10  1  0
 10 11  2  0
 10 21  1  0
 11 12  1  0
 11 13  1  0
 13 14  2  0
 14 15  1  0
 15 16  2  0
 15 21  1  0
 16 17  1  0
 17 18  2  0
 18 19  1  0
 19 20  1  0
 19 21  2  0
M  END
