
     RDKit          3D

 26 28  0  0  0  0  0  0  0  0999 V2000
   -4.1800    1.8960    0.6050 C   0  0  0  0  0  0  0  0  0  0  0  0
   -5.1390    0.7960    0.2710 C   0  0  0  0  0  0  0  0  0  0  0  0
   -4.8760   -0.3150   -0.3670 C   0  0  0  0  0  0  0  0  0  0  0  0
   -3.7070   -0.8510   -0.9280 N   0  0  0  0  0  0  0  0  0  0  0  0
   -2.4030   -0.3870   -1.0060 C   0  0  0  0  0  0  0  0  0  0  0  0
   -2.0690    0.6900   -0.5260 O   0  0  0  0  0  0  0  0  0  0  0  0
   -1.3420   -1.1420   -1.6590 N   0  0  0  0  0  0  0  0  0  0  0  0
   -0.0060   -0.6040   -1.7030 C   0  0  0  0  0  0  0  0  0  0  0  0
    0.5250   -0.4080   -0.3060 C   0  0  0  0  0  0  0  0  0  0  0  0
    0.3040   -0.6510    0.7990 N   0  0  0  0  0  0  0  0  0  0  0  0
    0.9760   -0.3320    1.8770 C   0  0  0  0  0  0  0  0  0  0  0  0
    2.1090    0.3980    1.6760 C   0  0  0  0  0  0  0  0  0  0  0  0
    3.1050    0.9350    2.6020 C   0  0  0  0  0  0  0  0  0  0  0  0
    4.4640   -0.2200    2.9090 S   0  0  0  0  0  0  0  0  0  0  0  0
    5.3970   -0.4330    1.3800 C   0  0  0  0  0  0  0  0  0  0  0  0
    6.4720   -1.2180    1.2360 N   0  0  0  0  0  0  0  0  0  0  0  0
    6.8590   -1.0890   -0.0470 C   0  0  0  0  0  0  0  0  0  0  0  0
    6.0020   -0.2140   -0.6810 C   0  0  0  0  0  0  0  0  0  0  0  0
    6.0800    0.2010   -2.1060 C   0  0  0  0  0  0  0  0  0  0  0  0
    5.1410    0.1470    0.2360 O   0  0  0  0  0  0  0  0  0  0  0  0
    2.1310    0.5810   -0.1220 S   0  0  0  0  0  0  0  0  0  0  0  0
   -6.1570   -1.0840   -0.4530 C   0  0  0  0  0  0  0  0  0  0  0  0
   -6.3430   -2.1990   -0.9830 O   0  0  0  0  0  0  0  0  0  0  0  0
   -7.1760   -0.3030    0.1990 C   0  0  0  0  0  0  0  0  0  0  0  0
   -8.4010   -0.5590    0.3650 O   0  0  0  0  0  0  0  0  0  0  0  0
   -6.5390    0.8670    0.6490 N   0  0  0  0  0  0  0  0  0  0  0  0
  1  2  1  0
  2  3  2  0
  2 26  1  0
  3  4  1  0
  3 22  1  0
  4  5  1  0
  5  6  2  0
  5  7  1  0
  7  8  1  0
  8  9  1  0
  9 10  2  0
  9 21  1  0
 10 11  1  0
 11 12  2  0
 12 13  1  0
 12 21  1  0
 13 14  1  0
 14 15  1  0
 15 16  2  0
 15 20  1  0
 16 17  1  0
 17 18  2  0
 18 19  1  0
 18 20  1  0
 22 23  2  0
 22 24  1  0
 24 25  2  0
 24 26  1  0
M  END
