
     RDKit          3D

 43 49  0  0  0  0  0  0  0  0999 V2000
   -4.9590    5.2110    1.4590 C   0  0  0  0  0  0  0  0  0  0  0  0
   -5.7610    4.1490    0.7580 C   0  0  0  0  0  0  0  0  0  0  0  0
   -5.1630    2.9600    0.3980 C   0  0  0  0  0  0  0  0  0  0  0  0
   -5.9370    2.0170   -0.2430 C   0  0  0  0  0  0  0  0  0  0  0  0
   -7.2680    2.2240   -0.5280 C   0  0  0  0  0  0  0  0  0  0  0  0
   -7.9930    1.2470   -1.1700 C   0  0  0  0  0  0  0  0  0  0  0  0
   -7.3940    0.0760   -1.5220 C   0  0  0  0  0  0  0  0  0  0  0  0
   -6.0600   -0.1200   -1.2300 C   0  0  0  0  0  0  0  0  0  0  0  0
   -5.4740   -1.3140   -1.5960 C   0  0  0  0  0  0  0  0  0  0  0  0
   -4.1780   -1.4910   -1.3070 N   0  0  0  0  0  0  0  0  0  0  0  0
   -3.4630   -0.5420   -0.6810 C   0  0  0  0  0  0  0  0  0  0  0  0
   -2.0820   -0.8630   -0.4320 N   0  0  0  0  0  0  0  0  0  0  0  0
   -1.4900   -2.0770   -0.8050 C   0  0  0  0  0  0  0  0  0  0  0  0
   -2.1990   -2.9310   -1.3880 O   0  0  0  0  0  0  0  0  0  0  0  0
   -0.0440   -2.3950   -0.5350 C   0  0  1  0  0  0  0  0  0  0  0  0
    0.2310   -2.3720    0.9200 C   0  0  0  0  0  0  0  0  0  0  0  0
   -0.5210   -3.2930    1.7940 C   0  0  1  0  0  0  0  0  0  0  0  0
   -0.2860   -4.7420    1.4430 C   0  0  0  0  0  0  0  0  0  0  0  0
   -0.0910   -3.1680    3.2650 C   0  0  0  0  0  0  0  0  0  0  0  0
    0.3030   -3.6170   -1.2930 C   0  0  0  0  0  0  0  0  0  0  0  0
    0.9760   -3.2140   -2.6200 C   0  0  0  0  0  0  0  0  0  0  0  0
    2.3200   -2.6430   -2.2400 C   0  0  0  0  0  0  0  0  0  0  0  0
    2.0900   -1.4790   -1.4050 N   0  0  1  0  0  0  0  0  0  0  0  0
    2.7730   -0.3830   -2.0010 C   0  0  0  0  0  0  0  0  0  0  0  0
    3.8420    0.2190   -1.1550 C   0  0  0  0  0  0  0  0  0  0  0  0
    4.2040   -0.0330    0.1330 C   0  0  0  0  0  0  0  0  0  0  0  0
    5.2540    0.7930    0.4460 C   0  0  0  0  0  0  0  0  0  0  0  0
    6.0070    0.9780    1.5660 N   0  0  0  0  0  0  0  0  0  0  0  0
    6.9970    1.8910    1.5710 C   0  0  0  0  0  0  0  0  0  0  0  0
    7.7720    2.0810    2.7240 C   0  0  0  0  0  0  0  0  0  0  0  0
    8.7870    3.0100    2.7430 C   0  0  0  0  0  0  0  0  0  0  0  0
    9.0250    3.7490    1.6050 C   0  0  0  0  0  0  0  0  0  0  0  0
    8.2940    3.5980    0.4550 C   0  0  0  0  0  0  0  0  0  0  0  0
    7.2730    2.6540    0.4560 C   0  0  0  0  0  0  0  0  0  0  0  0
    6.5170    2.4690   -0.6710 C   0  0  0  0  0  0  0  0  0  0  0  0
    5.4990    1.5350   -0.6840 C   0  0  0  0  0  0  0  0  0  0  0  0
    4.6370    1.1560   -1.6000 O   0  0  0  0  0  0  0  0  0  0  0  0
    0.6960   -1.1990   -1.1650 C   0  0  0  0  0  0  0  0  0  0  0  0
   -4.0040    0.6140   -0.3190 N   0  0  0  0  0  0  0  0  0  0  0  0
   -5.3030    0.8380   -0.5880 C   0  0  0  0  0  0  0  0  0  0  0  0
   -7.8760    3.4270   -0.1650 C   0  0  0  0  0  0  0  0  0  0  0  0
   -7.0880    4.3540    0.4720 C   0  0  0  0  0  0  0  0  0  0  0  0
   -7.6590    5.5460    0.8420 F   0  0  0  0  0  0  0  0  0  0  0  0
  1  2  1  0
  2  3  2  0
  2 42  1  0
  3  4  1  0
  4  5  2  0
  4 40  1  0
  5  6  1  0
  5 41  1  0
  6  7  2  0
  7  8  1  0
  8  9  2  0
  8 40  1  0
  9 10  1  0
 10 11  2  0
 11 12  1  0
 11 39  1  0
 12 13  1  0
 13 14  2  0
 13 15  1  0
 15 16  1  1
 15 20  1  0
 15 38  1  0
 16 17  1  0
 17 18  1  6
 17 19  1  0
 20 21  1  0
 21 22  1  0
 22 23  1  0
 23 24  1  6
 23 38  1  0
 24 25  1  0
 25 26  2  0
 25 37  1  0
 26 27  1  0
 27 28  2  0
 27 36  1  0
 28 29  1  0
 29 30  2  0
 29 34  1  0
 30 31  1  0
 31 32  2  0
 32 33  1  0
 33 34  2  0
 34 35  1  0
 35 36  2  0
 36 37  1  0
 39 40  2  0
 41 42  2  0
 42 43  1  0
M  CHG  1  23   1
M  END
