
     RDKit          3D

 44 47  0  0  0  0  0  0  0  0999 V2000
  -11.2710    3.2920   -3.3020 C   0  0  0  0  0  0  0  0  0  0  0  0
  -10.4520    3.7400   -2.1410 C   0  0  0  0  0  0  0  0  0  0  0  0
   -9.3380    2.8470   -1.7890 C   0  0  0  0  0  0  0  0  0  0  0  0
   -8.0980    2.9740   -2.3610 C   0  0  0  0  0  0  0  0  0  0  0  0
   -7.0410    2.1470   -2.0190 C   0  0  0  0  0  0  0  0  0  0  0  0
   -7.2080    1.1410   -1.0620 C   0  0  0  0  0  0  0  0  0  0  0  0
   -8.4510    1.0180   -0.4930 C   0  0  0  0  0  0  0  0  0  0  0  0
   -9.4640    1.8300   -0.8400 C   0  0  0  0  0  0  0  0  0  0  0  0
   -8.6460   -0.2800    0.7000 S   0  0  0  0  0  0  0  0  0  0  0  0
   -7.6000   -1.6270    0.0060 C   0  0  2  0  0  0  0  0  0  0  0  0
   -7.5490   -2.8230    0.8980 C   0  0  0  0  0  0  0  0  0  0  0  0
   -6.2640   -1.0910   -0.3070 C   0  0  0  0  0  0  0  0  0  0  0  0
   -6.1330    0.2800   -0.6750 N   0  0  0  0  0  0  0  0  0  0  0  0
   -4.8250    0.8480   -0.6610 C   0  0  0  0  0  0  0  0  0  0  0  0
   -4.5420    2.0220   -0.9770 O   0  0  0  0  0  0  0  0  0  0  0  0
   -3.6930   -0.0450   -0.2230 C   0  0  0  0  0  0  0  0  0  0  0  0
   -2.3560    0.3780   -0.7220 C   0  0  0  0  0  0  0  0  0  0  0  0
   -1.3090   -0.5410   -0.2230 N   0  0  0  0  0  0  0  0  0  0  0  0
   -1.3410   -1.9130   -0.5160 C   0  0  0  0  0  0  0  0  0  0  0  0
   -2.2670   -2.4210   -1.2360 O   0  0  0  0  0  0  0  0  0  0  0  0
   -0.3180   -2.8610   -0.0120 C   0  0  1  0  0  0  0  0  0  0  0  0
    0.1120   -3.8430   -1.0560 C   0  0  0  0  0  0  0  0  0  0  0  0
    0.7290   -2.2890    0.6570 O   0  0  0  0  0  0  0  0  0  0  0  0
    0.7740   -2.5780    2.0250 C   0  0  0  0  0  0  0  0  0  0  0  0
    2.0100   -2.0190    2.6680 C   0  0  0  0  0  0  0  0  0  0  0  0
    2.0820   -0.5160    2.4790 C   0  0  1  0  0  0  0  0  0  0  0  0
    0.9120    0.1390    3.1200 C   0  0  0  0  0  0  0  0  0  0  0  0
    3.3120   -0.0040    3.0930 N   0  0  0  0  0  0  0  0  0  0  0  0
    4.4910    0.1500    2.2990 C   0  0  0  0  0  0  0  0  0  0  0  0
    4.3730   -0.1790    1.1010 O   0  0  0  0  0  0  0  0  0  0  0  0
    5.7270    0.6260    2.7700 N   0  0  0  0  0  0  0  0  0  0  0  0
    6.9280    0.7520    2.0170 C   0  0  0  0  0  0  0  0  0  0  0  0
    7.0740    0.3510    0.7210 C   0  0  0  0  0  0  0  0  0  0  0  0
    8.3190    0.4970    0.1090 C   0  0  0  0  0  0  0  0  0  0  0  0
    8.4670    0.0800   -1.2010 C   0  0  0  0  0  0  0  0  0  0  0  0
    9.6580    0.1840   -1.8580 C   0  0  0  0  0  0  0  0  0  0  0  0
    9.7740   -0.2780   -3.2590 C   0  0  0  0  0  0  0  0  0  0  0  0
   10.7370    0.7250   -1.1830 C   0  0  0  0  0  0  0  0  0  0  0  0
   12.0220    0.8310   -1.9240 C   0  0  0  0  0  0  0  0  0  0  0  0
   10.6330    1.1540    0.1270 C   0  0  0  0  0  0  0  0  0  0  0  0
    9.4060    1.0320    0.7630 C   0  0  0  0  0  0  0  0  0  0  0  0
    9.2530    1.4240    2.0310 N   0  0  0  0  0  0  0  0  0  0  0  0
    8.0620    1.2830    2.6170 C   0  0  0  0  0  0  0  0  0  0  0  0
    7.9380    1.6640    3.8290 O   0  0  0  0  0  0  0  0  0  0  0  0
  1  2  1  0
  2  3  1  0
  3  4  2  0
  3  8  1  0
  4  5  1  0
  5  6  2  0
  6  7  1  0
  6 13  1  0
  7  8  2  0
  7  9  1  0
  9 10  1  0
 10 11  1  1
 10 12  1  0
 12 13  1  0
 13 14  1  0
 14 15  2  0
 14 16  1  0
 16 17  1  0
 17 18  1  0
 18 19  1  0
 19 20  2  0
 19 21  1  0
 21 22  1  6
 21 23  1  0
 23 24  1  0
 24 25  1  0
 25 26  1  0
 26 27  1  1
 26 28  1  0
 28 29  1  0
 29 30  2  0
 29 31  1  0
 31 32  1  0
 32 33  2  0
 32 43  1  0
 33 34  1  0
 34 35  2  0
 34 41  1  0
 35 36  1  0
 36 37  1  0
 36 38  2  0
 38 39  1  0
 38 40  1  0
 40 41  2  0
 41 42  1  0
 42 43  1  0
 43 44  2  0
M  END
