
     RDKit          3D

 44 50  0  0  0  0  0  0  0  0999 V2000
   -3.1470    5.7350   -0.7320 C   0  0  0  0  0  0  0  0  0  0  0  0
   -2.5740    4.8890    0.0440 C   0  0  0  0  0  0  0  0  0  0  0  0
   -2.8500    4.9050    1.5350 C   0  0  0  0  0  0  0  0  0  0  0  0
   -1.5700    4.5460    2.1850 C   0  0  0  0  0  0  0  0  0  0  0  0
   -1.1920    3.0880    1.8850 C   0  0  2  0  0  0  0  0  0  0  0  0
    0.2900    3.0200    2.1790 C   0  0  0  0  0  0  0  0  0  0  0  0
    0.9340    2.8560    0.9070 N   0  0  0  0  0  0  0  0  0  0  0  0
    0.5370    1.7250    0.0870 C   0  0  0  0  0  0  0  0  0  0  0  0
   -0.7550    1.5080   -0.0840 C   0  0  0  0  0  0  0  0  0  0  0  0
   -1.4620    0.4820   -0.8150 C   0  0  0  0  0  0  0  0  0  0  0  0
   -2.0480    0.9770   -1.8920 O   0  0  0  0  0  0  0  0  0  0  0  0
   -1.7280   -0.9590   -0.7070 C   0  0  0  0  0  0  0  0  0  0  0  0
   -0.9610   -2.0360   -0.6850 C   0  0  0  0  0  0  0  0  0  0  0  0
   -1.7760   -3.1540   -0.5350 N   0  0  0  0  0  0  0  0  0  0  0  0
   -3.0270   -2.8070   -0.4670 N   0  0  0  0  0  0  0  0  0  0  0  0
   -3.0640   -1.5000   -0.5670 C   0  0  0  0  0  0  0  0  0  0  0  0
   -4.3170   -0.9130   -0.5270 C   0  0  0  0  0  0  0  0  0  0  0  0
   -5.4730   -1.6480   -0.3890 C   0  0  0  0  0  0  0  0  0  0  0  0
   -5.3940   -3.0260   -0.2850 C   0  0  0  0  0  0  0  0  0  0  0  0
   -6.5090   -3.8250   -0.1380 C   0  0  0  0  0  0  0  0  0  0  0  0
   -6.3520   -5.2130   -0.0320 C   0  0  0  0  0  0  0  0  0  0  0  0
   -5.0990   -5.7840   -0.0730 C   0  0  0  0  0  0  0  0  0  0  0  0
   -4.0070   -4.9470   -0.2220 C   0  0  0  0  0  0  0  0  0  0  0  0
   -4.1480   -3.5790   -0.3280 C   0  0  0  0  0  0  0  0  0  0  0  0
    0.5030   -2.2630   -0.8290 C   0  0  0  0  0  0  0  0  0  0  0  0
    0.9810   -2.6330    0.4940 N   0  0  0  0  0  0  0  0  0  0  0  0
    2.3680   -2.9540    0.4550 C   0  0  0  0  0  0  0  0  0  0  0  0
    2.6810   -4.2810    0.7830 C   0  0  0  0  0  0  0  0  0  0  0  0
    3.9590   -4.7880    0.7570 C   0  0  0  0  0  0  0  0  0  0  0  0
    4.9820   -3.9570    0.3920 C   0  0  0  0  0  0  0  0  0  0  0  0
    4.6840   -2.6490    0.0680 C   0  0  0  0  0  0  0  0  0  0  0  0
    3.3800   -2.1300    0.0960 C   0  0  0  0  0  0  0  0  0  0  0  0
    3.2890   -0.7420   -0.2490 N   0  0  0  0  0  0  0  0  0  0  0  0
    4.0900   -0.2300   -1.3510 C   0  0  0  0  0  0  0  0  0  0  0  0
    5.1300    0.6990   -0.7860 C   0  0  0  0  0  0  0  0  0  0  0  0
    5.9470    1.2210   -1.8210 O   0  0  0  0  0  0  0  0  0  0  0  0
    6.8620    2.0620   -1.1580 C   0  0  0  0  0  0  0  0  0  0  0  0
    2.4670    0.2310    0.4220 C   0  0  0  0  0  0  0  0  0  0  0  0
    1.7060    1.0430   -0.5400 C   0  0  0  0  0  0  0  0  0  0  0  0
   -1.5670    2.6750    0.5040 C   0  0  2  0  0  0  0  0  0  0  0  0
   -1.6230    3.8550   -0.4280 C   0  0  0  0  0  0  0  0  0  0  0  0
   -0.9240    4.0330   -1.5010 C   0  0  0  0  0  0  0  0  0  0  0  0
   -1.0520    5.2000   -2.2250 F   0  0  0  0  0  0  0  0  0  0  0  0
   -0.0290    3.1750   -2.0470 F   0  0  0  0  0  0  0  0  0  0  0  0
  1  2  2  0
  2  3  1  0
  2 41  1  0
  3  4  1  0
  5  4  1  6
  5  6  1  0
  5 40  1  0
  6  7  1  0
  7  8  1  0
  8  9  2  0
  8 39  1  0
  9 10  1  0
  9 40  1  0
 10 11  2  0
 10 12  1  0
 12 13  1  0
 12 16  2  0
 13 14  2  0
 13 25  1  0
 14 15  1  0
 15 16  1  0
 15 24  1  0
 16 17  1  0
 17 18  2  0
 18 19  1  0
 19 20  2  0
 19 24  1  0
 20 21  1  0
 21 22  2  0
 22 23  1  0
 23 24  2  0
 25 26  1  0
 26 27  1  0
 27 28  2  0
 27 32  1  0
 28 29  1  0
 29 30  2  0
 30 31  1  0
 31 32  2  0
 32 33  1  0
 33 34  1  0
 33 38  1  0
 34 35  1  0
 35 36  1  0
 36 37  1  0
 38 39  1  0
 40 41  1  6
 41 42  2  3
 42 43  1  0
 42 44  1  0
M  CHG  1  26   1
M  END
