
     RDKit          3D

 44 47  0  0  0  0  0  0  0  0999 V2000
   -7.9500   -2.6800    0.7960 C   0  0  0  0  0  0  0  0  0  0  0  0
   -6.5860   -2.1510    1.0910 C   0  0  0  0  0  0  0  0  0  0  0  0
   -5.5200   -2.8740    0.8010 C   0  0  0  0  0  0  0  0  0  0  0  0
   -4.1720   -2.3630    1.0890 C   0  0  1  0  0  0  0  0  0  0  0  0
   -3.4560   -3.2340    2.1160 C   0  0  0  0  0  0  0  0  0  0  0  0
   -2.0240   -3.1870    1.8800 C   0  0  0  0  0  0  0  0  0  0  0  0
   -1.2860   -4.1810    2.2280 O   0  0  0  0  0  0  0  0  0  0  0  0
   -1.3690   -2.1060    1.2870 N   0  0  0  0  0  0  0  0  0  0  0  0
   -2.0900   -1.3790    0.2100 C   0  0  1  0  0  0  0  0  0  0  0  0
   -1.1480   -1.3850   -0.9240 C   0  0  0  0  0  0  0  0  0  0  0  0
   -0.5580   -2.4700   -1.1600 O   0  0  0  0  0  0  0  0  0  0  0  0
   -0.9050   -0.2550   -1.7080 N   0  0  0  0  0  0  0  0  0  0  0  0
   -1.5110    1.0120   -1.4020 C   0  0  0  0  0  0  0  0  0  0  0  0
   -0.9970    2.1360   -1.9030 C   0  0  0  0  0  0  0  0  0  0  0  0
   -1.5940    3.4000   -1.5850 N   0  0  0  0  0  0  0  0  0  0  0  0
   -0.8520    4.4130   -0.9120 C   0  0  0  0  0  0  0  0  0  0  0  0
    0.3320    4.0970   -0.6340 O   0  0  0  0  0  0  0  0  0  0  0  0
   -1.4050    5.7330   -0.5560 C   0  0  0  0  0  0  0  0  0  0  0  0
   -0.3370    6.5050    0.1860 C   0  0  0  0  0  0  0  0  0  0  0  0
    0.0870    5.5530    1.6790 S   0  0  0  0  0  0  0  0  0  0  0  0
    0.0940    2.0150   -2.8490 C   0  0  0  0  0  0  0  0  0  0  0  0
    0.6080    0.8700   -3.2630 C   0  0  0  0  0  0  0  0  0  0  0  0
    1.7360    0.8200   -4.2250 C   0  0  0  0  0  0  0  0  0  0  0  0
   -0.0190   -0.3940   -2.8350 C   0  0  1  0  0  0  0  0  0  0  0  0
    0.8670   -1.4960   -2.6660 N   0  0  0  0  0  0  0  0  0  0  0  0
    1.9320   -1.6000   -1.7210 C   0  0  0  0  0  0  0  0  0  0  0  0
    2.2340   -0.5890   -0.8480 C   0  0  0  0  0  0  0  0  0  0  0  0
    3.2630   -0.7350    0.0390 C   0  0  0  0  0  0  0  0  0  0  0  0
    3.6330    0.3140    0.9750 C   0  0  0  0  0  0  0  0  0  0  0  0
    3.0260    1.4040    1.0290 O   0  0  0  0  0  0  0  0  0  0  0  0
    4.6960    0.1240    1.8490 O   0  0  0  0  0  0  0  0  0  0  0  0
    5.1530    1.0260    2.7690 C   0  0  0  0  0  0  0  0  0  0  0  0
    6.1600    1.8830    2.4100 C   0  0  0  0  0  0  0  0  0  0  0  0
    6.6330    2.7960    3.3240 C   0  0  0  0  0  0  0  0  0  0  0  0
    6.0430    2.7870    4.5790 C   0  0  0  0  0  0  0  0  0  0  0  0
    5.0600    1.9370    4.8980 N   0  0  0  0  0  0  0  0  0  0  0  0
    4.5870    1.0480    4.0340 C   0  0  0  0  0  0  0  0  0  0  0  0
    3.4880    0.1240    4.4230 C   0  0  0  0  0  0  0  0  0  0  0  0
    4.0140   -1.9170    0.0610 C   0  0  0  0  0  0  0  0  0  0  0  0
    3.7190   -2.9390   -0.8110 C   0  0  0  0  0  0  0  0  0  0  0  0
    2.6860   -2.7690   -1.6880 C   0  0  0  0  0  0  0  0  0  0  0  0
    2.3560   -3.8760   -2.6410 C   0  0  0  0  0  0  0  0  0  0  0  0
   -3.3190   -2.2370   -0.1360 C   0  0  2  0  0  0  0  0  0  0  0  0
   -4.0850   -1.5710   -1.2330 C   0  0  0  0  0  0  0  0  0  0  0  0
  1  2  1  0
  2  3  2  3
  4  3  1  6
  4  5  1  0
  4 43  1  0
  5  6  1  0
  6  7  2  0
  6  8  1  0
  8  9  1  0
  9 10  1  6
  9 43  1  0
 10 11  2  0
 10 12  1  0
 12 13  1  0
 12 24  1  0
 13 14  2  0
 14 15  1  0
 14 21  1  0
 15 16  1  0
 16 17  2  0
 16 18  1  0
 18 19  1  0
 19 20  1  0
 21 22  2  0
 22 23  1  0
 22 24  1  0
 24 25  1  1
 25 26  1  0
 26 27  2  0
 26 41  1  0
 27 28  1  0
 28 29  1  0
 28 39  2  0
 29 30  2  0
 29 31  1  0
 31 32  1  0
 32 33  2  0
 32 37  1  0
 33 34  1  0
 34 35  2  0
 35 36  1  0
 36 37  2  0
 37 38  1  0
 39 40  1  0
 40 41  2  0
 41 42  1  0
 43 44  1  6
M  END
