
     RDKit          3D

 44 50  0  0  0  0  0  0  0  0999 V2000
   -6.9570   -4.7380   -0.9310 C   0  0  0  0  0  0  0  0  0  0  0  0
   -7.0570   -3.9790    0.2830 O   0  0  0  0  0  0  0  0  0  0  0  0
   -6.9670   -2.5940    0.2780 C   0  0  0  0  0  0  0  0  0  0  0  0
   -8.0140   -1.7960    0.4370 C   0  0  0  0  0  0  0  0  0  0  0  0
   -7.9390   -0.3420    0.4140 C   0  0  0  0  0  0  0  0  0  0  0  0
   -6.7880    0.2950    0.1980 C   0  0  0  0  0  0  0  0  0  0  0  0
   -6.6500    1.7680    0.1840 C   0  0  2  0  0  0  0  0  0  0  0  0
   -6.9560    2.2960   -1.2100 C   0  0  0  0  0  0  0  0  0  0  0  0
   -5.2760    2.2070    0.5300 C   0  0  0  0  0  0  0  0  0  0  0  0
   -5.0970    3.6300    0.9870 C   0  0  1  0  0  0  0  0  0  0  0  0
   -3.7650    3.8610    1.2710 F   0  0  0  0  0  0  0  0  0  0  0  0
   -5.5140    4.5410    0.0670 F   0  0  0  0  0  0  0  0  0  0  0  0
   -4.2140    1.4280    0.4620 C   0  0  0  0  0  0  0  0  0  0  0  0
   -4.3750    0.0850    0.0350 N   0  0  0  0  0  0  0  0  0  0  0  0
   -3.1730   -0.7060   -0.1210 C   0  0  0  0  0  0  0  0  0  0  0  0
   -1.9660   -0.0610   -0.3550 C   0  0  0  0  0  0  0  0  0  0  0  0
   -0.8240   -0.8270   -0.3850 C   0  0  0  0  0  0  0  0  0  0  0  0
    0.4290   -0.2200   -0.6110 N   0  0  0  0  0  0  0  0  0  0  0  0
    0.6820    1.1900   -0.7530 C   0  0  1  0  0  0  0  0  0  0  0  0
    0.3480    1.9930    0.4460 C   0  0  0  0  0  0  0  0  0  0  0  0
    1.4700    2.7900    1.0350 C   0  0  0  0  0  0  0  0  0  0  0  0
    2.6810    1.9770    1.1280 C   0  0  0  0  0  0  0  0  0  0  0  0
    3.4830    1.8810    2.2410 C   0  0  0  0  0  0  0  0  0  0  0  0
    4.5970    1.0760    2.1540 C   0  0  0  0  0  0  0  0  0  0  0  0
    4.9300    0.3760    1.0160 C   0  0  0  0  0  0  0  0  0  0  0  0
    6.1260   -0.4720    0.9680 C   0  0  0  0  0  0  0  0  0  0  0  0
    6.8510   -0.5730    1.9650 O   0  0  0  0  0  0  0  0  0  0  0  0
    6.4650   -1.1830   -0.2110 N   0  0  0  0  0  0  0  0  0  0  0  0
    7.6250   -2.0420   -0.3480 C   0  0  0  0  0  0  0  0  0  0  0  0
    8.8400   -1.1920   -0.5050 C   0  0  0  0  0  0  0  0  0  0  0  0
    9.6790   -0.8980    0.5580 C   0  0  0  0  0  0  0  0  0  0  0  0
   10.8080   -0.1110    0.4350 C   0  0  0  0  0  0  0  0  0  0  0  0
   11.1060    0.4040   -0.8110 C   0  0  0  0  0  0  0  0  0  0  0  0
   10.2650    0.1110   -1.8780 C   0  0  0  0  0  0  0  0  0  0  0  0
    9.1480   -0.6710   -1.7490 C   0  0  0  0  0  0  0  0  0  0  0  0
    4.1210    0.4910   -0.0610 N   0  0  0  0  0  0  0  0  0  0  0  0
    3.0330    1.2600   -0.0180 C   0  0  0  0  0  0  0  0  0  0  0  0
    2.1170    1.3780   -1.2150 C   0  0  0  0  0  0  0  0  0  0  0  0
   -0.9260   -2.1830   -0.1850 C   0  0  0  0  0  0  0  0  0  0  0  0
   -2.1280   -2.8200    0.0460 C   0  0  0  0  0  0  0  0  0  0  0  0
   -3.2830   -2.0700    0.0780 C   0  0  0  0  0  0  0  0  0  0  0  0
   -4.5710   -2.6380    0.2020 N   0  0  0  0  0  0  0  0  0  0  0  0
   -5.6770   -1.9350    0.1170 C   0  0  0  0  0  0  0  0  0  0  0  0
   -5.6530   -0.5080   -0.2350 C   0  0  1  0  0  0  0  0  0  0  0  0
  1  2  1  0
  2  3  1  0
  3  4  2  0
  3 43  1  0
  4  5  1  0
  5  6  2  0
  6  7  1  0
  6 44  1  0
  7  8  1  6
  7  9  1  0
  9 10  1  0
  9 13  2  0
 10 11  1  6
 10 12  1  0
 13 14  1  0
 14 15  1  0
 44 14  1  1
 15 16  2  0
 15 41  1  0
 16 17  1  0
 17 18  1  0
 17 39  2  0
 19 18  1  1
 19 20  1  0
 19 38  1  0
 20 21  1  0
 21 22  1  0
 22 23  2  0
 22 37  1  0
 23 24  1  0
 24 25  2  0
 25 26  1  0
 25 36  1  0
 26 27  2  0
 26 28  1  0
 28 29  1  0
 29 30  1  0
 30 31  2  0
 30 35  1  0
 31 32  1  0
 32 33  2  0
 33 34  1  0
 34 35  2  0
 36 37  2  0
 37 38  1  0
 39 40  1  0
 40 41  2  0
 41 42  1  0
 42 43  2  0
 43 44  1  0
M  CHG  1  42   1
M  END
