
     RDKit          3D

 33 37  0  0  0  0  0  0  0  0999 V2000
   -7.6240   -0.8530    0.1490 C   0  0  0  0  0  0  0  0  0  0  0  0
   -7.2200    0.2420   -0.8460 C   0  0  0  0  0  0  0  0  0  0  0  0
   -6.8950    1.4420    0.0020 C   0  0  0  0  0  0  0  0  0  0  0  0
   -7.6350    2.4900    0.2160 O   0  0  0  0  0  0  0  0  0  0  0  0
   -7.0350    3.3470    1.0270 C   0  0  0  0  0  0  0  0  0  0  0  0
   -5.8160    2.8120    1.3600 C   0  0  0  0  0  0  0  0  0  0  0  0
   -5.7470    1.6150    0.7040 C   0  0  0  0  0  0  0  0  0  0  0  0
   -4.5800    0.7400    0.6890 C   0  0  0  0  0  0  0  0  0  0  0  0
   -4.2530    0.1290    1.7350 O   0  0  0  0  0  0  0  0  0  0  0  0
   -3.8530    0.6350   -0.5230 N   0  0  0  0  0  0  0  0  0  0  0  0
   -2.6410   -0.1920   -0.6290 C   0  0  0  0  0  0  0  0  0  0  0  0
   -1.6470    0.2460    0.3990 C   0  0  0  0  0  0  0  0  0  0  0  0
   -0.3060   -0.4720    0.3120 C   0  0  0  0  0  0  0  0  0  0  0  0
   -0.2450   -1.7640    0.7600 C   0  0  0  0  0  0  0  0  0  0  0  0
   -1.1620   -2.7260    1.3130 C   0  0  0  0  0  0  0  0  0  0  0  0
   -1.4920   -2.4710    2.7680 C   0  0  0  0  0  0  0  0  0  0  0  0
    1.5450   -2.1550    0.5690 S   0  0  0  0  0  0  0  0  0  0  0  0
    2.0140   -0.5490   -0.0840 C   0  0  0  0  0  0  0  0  0  0  0  0
    3.2020   -0.0340   -0.4570 N   0  0  0  0  0  0  0  0  0  0  0  0
    3.3010    1.2310   -0.9030 C   0  0  0  0  0  0  0  0  0  0  0  0
    4.5860    1.8560   -1.2220 C   0  0  0  0  0  0  0  0  0  0  0  0
    5.5830    1.0340   -1.7690 N   0  0  0  0  0  0  0  0  0  0  0  0
    5.9050    0.7540   -2.9960 N   0  0  0  0  0  0  0  0  0  0  0  0
    7.0050   -0.0570   -3.0290 C   0  0  0  0  0  0  0  0  0  0  0  0
    7.3980   -0.3020   -1.6920 C   0  0  0  0  0  0  0  0  0  0  0  0
    8.3700   -0.9870   -1.0550 C   0  0  0  0  0  0  0  0  0  0  0  0
    8.4130   -0.9650    0.3060 C   0  0  0  0  0  0  0  0  0  0  0  0
    9.2840   -1.5540    1.2990 C   0  0  0  0  0  0  0  0  0  0  0  0
    6.9680    0.1050    0.7010 S   0  0  0  0  0  0  0  0  0  0  0  0
    6.4990    0.3820   -0.9720 C   0  0  0  0  0  0  0  0  0  0  0  0
    2.1510    1.9410   -0.9530 N   0  0  0  0  0  0  0  0  0  0  0  0
    0.9700    1.4630   -0.5920 C   0  0  0  0  0  0  0  0  0  0  0  0
    0.8470    0.1210   -0.1110 C   0  0  0  0  0  0  0  0  0  0  0  0
  1  2  1  0
  2  3  1  0
  3  4  1  0
  3  7  2  0
  4  5  1  0
  5  6  2  0
  6  7  1  0
  7  8  1  0
  8  9  2  0
  8 10  1  0
 10 11  1  0
 11 12  1  0
 12 13  1  0
 13 14  2  0
 13 33  1  0
 14 15  1  0
 14 17  1  0
 15 16  1  0
 17 18  1  0
 18 19  2  0
 18 33  1  0
 19 20  1  0
 20 21  1  0
 20 31  2  0
 21 22  1  0
 22 23  1  0
 22 30  1  0
 23 24  2  0
 24 25  1  0
 25 26  1  0
 25 30  2  0
 26 27  2  0
 27 28  1  0
 27 29  1  0
 29 30  1  0
 31 32  1  0
 32 33  2  0
M  END
