
     RDKit          3D

 33 37  0  0  0  0  0  0  0  0999 V2000
    5.8460   -2.6560   -1.2040 C   0  0  0  0  0  0  0  0  0  0  0  0
    4.9270   -1.9240    0.1450 S   0  0  0  0  0  0  0  0  0  0  0  0
    4.9930   -0.1530    0.1940 C   0  0  0  0  0  0  0  0  0  0  0  0
    3.8840    0.5450    0.0350 C   0  0  0  0  0  0  0  0  0  0  0  0
    2.6440   -0.2260   -0.1830 C   0  0  0  0  0  0  0  0  0  0  0  0
    1.8970   -0.3400    1.1260 C   0  0  0  0  0  0  0  0  0  0  0  0
    0.6470   -1.1120    0.8230 C   0  0  0  0  0  0  0  0  0  0  0  0
   -0.0370   -0.8940   -0.2030 O   0  0  0  0  0  0  0  0  0  0  0  0
    0.2010   -2.1330    1.6870 N   0  0  0  0  0  0  0  0  0  0  0  0
   -0.9920   -2.8570    1.5140 C   0  0  0  0  0  0  0  0  0  0  0  0
   -1.9880   -2.8400    0.9310 N   0  0  0  0  0  0  0  0  0  0  0  0
   -2.9900   -3.6750    0.7870 C   0  0  0  0  0  0  0  0  0  0  0  0
   -4.2770   -3.7140    0.2130 C   0  0  0  0  0  0  0  0  0  0  0  0
   -5.4130   -3.7250   -0.3020 N   0  0  0  0  0  0  0  0  0  0  0  0
   -6.4460   -3.3190   -0.8840 C   0  0  0  0  0  0  0  0  0  0  0  0
   -6.3100   -1.9180   -1.2080 C   0  0  0  0  0  0  0  0  0  0  0  0
   -6.9680   -1.0010   -1.7600 O   0  0  0  0  0  0  0  0  0  0  0  0
   -6.2960    0.1230   -1.7640 C   0  0  0  0  0  0  0  0  0  0  0  0
   -6.5260    1.4310   -2.2300 C   0  0  0  0  0  0  0  0  0  0  0  0
   -5.5600    2.3830   -2.0490 C   0  0  0  0  0  0  0  0  0  0  0  0
   -4.3420    2.1790   -1.4360 C   0  0  0  0  0  0  0  0  0  0  0  0
   -4.1250    0.8630   -0.9760 C   0  0  0  0  0  0  0  0  0  0  0  0
   -5.0950   -0.0640   -1.1660 C   0  0  0  0  0  0  0  0  0  0  0  0
   -5.0870   -1.4640   -0.7770 C   0  0  0  0  0  0  0  0  0  0  0  0
   -4.1840   -2.0920   -0.1930 N   0  0  0  0  0  0  0  0  0  0  0  0
   -2.7360   -4.9000    1.5650 C   0  0  0  0  0  0  0  0  0  0  0  0
   -1.1340   -4.5520    2.3140 S   0  0  0  0  0  0  0  0  0  0  0  0
    3.8560    1.9890    0.0710 C   0  0  0  0  0  0  0  0  0  0  0  0
    2.7040    2.6120   -0.1230 C   0  0  0  0  0  0  0  0  0  0  0  0
    2.6720    4.0920   -0.0930 C   0  0  0  0  0  0  0  0  0  0  0  0
    3.6270    4.7360    0.8370 C   0  0  0  0  0  0  0  0  0  0  0  0
    4.7520    3.9520    1.2400 N   0  0  0  0  0  0  0  0  0  0  0  0
    5.0430    2.8230    0.3670 C   0  0  0  0  0  0  0  0  0  0  0  0
  1  2  1  0
  2  3  1  0
  3  4  2  3
  4  5  1  0
  4 28  1  0
  5  6  1  0
  6  7  1  0
  7  8  2  0
  7  9  1  0
  9 10  1  0
 10 11  2  0
 10 27  1  0
 11 12  1  0
 12 13  1  0
 12 26  2  0
 13 14  2  0
 13 25  1  0
 14 15  1  0
 15 16  2  0
 16 17  1  0
 16 24  1  0
 17 18  1  0
 18 19  2  0
 18 23  1  0
 19 20  1  0
 20 21  2  0
 21 22  1  0
 22 23  2  0
 23 24  1  0
 24 25  2  0
 26 27  1  0
 28 29  2  0
 28 33  1  0
 29 30  1  0
 30 31  1  0
 31 32  1  0
 32 33  1  0
M  END
