
     RDKit          3D

 33 35  0  0  0  0  0  0  0  0999 V2000
    7.0370    1.6840    1.3610 N   0  0  0  0  0  0  0  0  0  0  0  0
    5.7060    1.1100    1.4250 C   0  0  0  0  0  0  0  0  0  0  0  0
    5.6080   -0.1560    0.6040 C   0  0  1  0  0  0  0  0  0  0  0  0
    4.3790   -0.7390    0.6290 O   0  0  0  0  0  0  0  0  0  0  0  0
    3.3920    0.0250    0.0250 C   0  0  2  0  0  0  0  0  0  0  0  0
    2.1650   -0.6080    0.0250 O   0  0  0  0  0  0  0  0  0  0  0  0
    1.2040    0.0310    0.7920 C   0  0  2  0  0  0  0  0  0  0  0  0
    0.7390   -0.9630    1.8410 C   0  0  1  0  0  0  0  0  0  0  0  0
   -0.1700   -0.3950    2.7860 N   0  0  0  0  0  0  0  0  0  0  0  0
    0.2350   -2.1840    1.1410 C   0  0  0  0  0  0  0  0  0  0  0  0
   -0.5510   -1.8790   -0.1170 C   0  0  1  0  0  0  0  0  0  0  0  0
   -1.5140   -2.9290   -0.2840 N   0  0  0  0  0  0  0  0  0  0  0  0
   -1.1310   -0.5090    0.0190 C   0  0  2  0  0  0  0  0  0  0  0  0
   -2.0330   -0.2830   -1.0150 O   0  0  0  0  0  0  0  0  0  0  0  0
   -3.3320   -0.0500   -0.5210 C   0  0  1  0  0  0  0  0  0  0  0  0
   -3.6700    1.2180   -0.8860 O   0  0  0  0  0  0  0  0  0  0  0  0
   -4.9770    1.5870   -0.7800 C   0  0  2  0  0  0  0  0  0  0  0  0
   -5.0560    2.9020   -0.0240 C   0  0  0  0  0  0  0  0  0  0  0  0
   -4.3400    3.8320   -0.7440 O   0  0  0  0  0  0  0  0  0  0  0  0
   -5.8480    0.5590   -0.1070 C   0  0  1  0  0  0  0  0  0  0  0  0
   -7.1570    1.0200   -0.1600 O   0  0  0  0  0  0  0  0  0  0  0  0
   -5.7060   -0.7210   -0.9340 C   0  0  2  0  0  0  0  0  0  0  0  0
   -6.5580   -1.7560   -0.4400 N   0  0  0  0  0  0  0  0  0  0  0  0
   -4.2520   -1.1260   -1.0210 C   0  0  1  0  0  0  0  0  0  0  0  0
   -3.9010   -1.6000   -2.2820 O   0  0  0  0  0  0  0  0  0  0  0  0
    0.0180    0.4830   -0.0250 C   0  0  1  0  0  0  0  0  0  0  0  0
   -0.3990    1.7610    0.3530 O   0  0  0  0  0  0  0  0  0  0  0  0
    3.7940    0.5390   -1.3400 C   0  0  2  0  0  0  0  0  0  0  0  0
    2.7850    0.4120   -2.2790 O   0  0  0  0  0  0  0  0  0  0  0  0
    5.0600   -0.1670   -1.7660 C   0  0  1  0  0  0  0  0  0  0  0  0
    5.4200    0.1310   -3.0640 O   0  0  0  0  0  0  0  0  0  0  0  0
    6.1460    0.1430   -0.7620 C   0  0  2  0  0  0  0  0  0  0  0  0
    7.3240   -0.5440   -1.0490 O   0  0  0  0  0  0  0  0  0  0  0  0
  1  2  1  0
  3  2  1  1
  3  4  1  0
  3 32  1  0
  4  5  1  0
  5  6  1  6
  5 28  1  0
  7  6  1  6
  7  8  1  0
  7 26  1  0
  8  9  1  6
  8 10  1  0
 10 11  1  0
 11 12  1  1
 11 13  1  0
 13 14  1  6
 13 26  1  0
 15 14  1  6
 15 16  1  0
 15 24  1  0
 16 17  1  0
 17 18  1  1
 17 20  1  0
 18 19  1  0
 20 21  1  6
 20 22  1  0
 22 23  1  1
 22 24  1  0
 24 25  1  6
 26 27  1  1
 28 29  1  6
 28 30  1  0
 30 31  1  6
 30 32  1  0
 32 33  1  6
M  END
