
     RDKit          3D

 33 37  0  0  0  0  0  0  0  0999 V2000
   -5.6600   -1.7370    1.6160 C   0  0  0  0  0  0  0  0  0  0  0  0
   -5.3640   -0.3540    2.1970 C   0  0  0  0  0  0  0  0  0  0  0  0
   -5.2340    0.5830    1.0840 C   0  0  0  0  0  0  0  0  0  0  0  0
   -6.1100    1.5410    0.9700 C   0  0  0  0  0  0  0  0  0  0  0  0
   -6.0870    2.5390   -0.0880 C   0  0  0  0  0  0  0  0  0  0  0  0
   -5.1840    2.2890   -1.2190 C   0  0  0  0  0  0  0  0  0  0  0  0
   -4.1270    1.3010   -0.9850 C   0  0  0  0  0  0  0  0  0  0  0  0
   -3.0580    1.1580   -1.8600 C   0  0  0  0  0  0  0  0  0  0  0  0
   -2.0850    0.1800   -1.6640 C   0  0  0  0  0  0  0  0  0  0  0  0
   -1.0380    0.1050   -2.6700 C   0  0  0  0  0  0  0  0  0  0  0  0
    0.2410    0.1610   -2.3450 C   0  0  0  0  0  0  0  0  0  0  0  0
    1.3340    0.0850   -3.2990 N   0  0  0  0  0  0  0  0  0  0  0  0
    2.5650    0.2180   -2.6180 C   0  0  0  0  0  0  0  0  0  0  0  0
    4.0370    0.1820   -3.3770 S   0  0  0  0  0  0  0  0  0  0  0  0
    2.3320    0.3820   -1.2300 N   0  0  0  0  0  0  0  0  0  0  0  0
    3.2820    0.5460   -0.2080 C   0  0  0  0  0  0  0  0  0  0  0  0
    3.0090    1.3730    0.8600 C   0  0  0  0  0  0  0  0  0  0  0  0
    3.9620    1.5100    1.8430 C   0  0  0  0  0  0  0  0  0  0  0  0
    5.1790    0.8360    1.7740 C   0  0  0  0  0  0  0  0  0  0  0  0
    6.2360    0.8070    2.5810 N   0  0  0  0  0  0  0  0  0  0  0  0
    7.1480    0.0080    2.0700 N   0  0  0  0  0  0  0  0  0  0  0  0
    6.6600   -0.4850    0.9080 C   0  0  0  0  0  0  0  0  0  0  0  0
    7.5250   -1.6140   -0.1630 S   0  0  0  0  0  0  0  0  0  0  0  0
    7.1850   -3.3390    0.2840 C   0  0  0  0  0  0  0  0  0  0  0  0
    7.7530   -3.6460    1.6280 C   0  0  0  0  0  0  0  0  0  0  0  0
    7.0790   -3.4740    2.6080 O   0  0  0  0  0  0  0  0  0  0  0  0
    5.4180    0.0410    0.7260 N   0  0  0  0  0  0  0  0  0  0  0  0
    4.4960   -0.1070   -0.2480 C   0  0  0  0  0  0  0  0  0  0  0  0
    0.9010    0.3470   -1.0700 C   0  0  0  0  0  0  0  0  0  0  0  0
    0.2830    0.4640    0.0350 O   0  0  0  0  0  0  0  0  0  0  0  0
   -2.1740   -0.6710   -0.5850 C   0  0  0  0  0  0  0  0  0  0  0  0
   -3.2410   -0.5330    0.2980 C   0  0  0  0  0  0  0  0  0  0  0  0
   -4.1980    0.4470    0.0860 C   0  0  0  0  0  0  0  0  0  0  0  0
  1  2  1  0
  2  3  1  0
  3  4  2  0
  3 33  1  0
  4  5  1  0
  5  6  1  0
  6  7  1  0
  7  8  2  0
  7 33  1  0
  8  9  1  0
  9 10  1  0
  9 31  2  0
 10 11  2  3
 11 12  1  0
 11 29  1  0
 12 13  1  0
 13 14  2  0
 13 15  1  0
 15 16  1  0
 15 29  1  0
 16 17  1  0
 16 28  2  0
 17 18  2  0
 18 19  1  0
 19 20  2  0
 19 27  1  0
 20 21  1  0
 21 22  2  0
 22 23  1  0
 22 27  1  0
 23 24  1  0
 24 25  1  0
 25 26  2  0
 27 28  1  0
 29 30  2  0
 31 32  1  0
 32 33  2  0
M  END
