
     RDKit          3D

 10  9  0  0  0  0  0  0  0  0999 V2000
    3.4190    0.0640    1.5250 C   0  0  0  0  0  0  0  0  0  0  0  0
    2.3600    0.2970    0.5520 C   0  0  0  0  0  0  0  0  0  0  0  0
    2.6830    0.8590   -0.7070 N   0  0  0  0  0  0  0  0  0  0  0  0
    1.0920    0.0030    0.7980 C   0  0  0  0  0  0  0  0  0  0  0  0
    0.0420    0.2380   -0.1770 C   0  0  0  0  0  0  0  0  0  0  0  0
   -1.2150   -0.0130   -0.0330 C   0  0  0  0  0  0  0  0  0  0  0  0
   -2.1830    0.2930   -1.1520 C   0  0  0  0  0  0  0  0  0  0  0  0
   -1.4740    0.8620   -2.2860 N   0  0  0  0  0  0  0  0  0  0  0  0
   -1.7900   -0.5910    1.1830 C   0  0  0  0  0  0  0  0  0  0  0  0
   -2.4530   -1.8590    0.9540 N   0  0  0  0  0  0  0  0  0  0  0  0
  1  2  1  0
  2  3  1  0
  2  4  2  3
  4  5  1  0
  5  6  2  3
  6  7  1  0
  6  9  1  0
  7  8  1  0
  9 10  1  0
M  CHG  3   3   1   8   1  10   1
M  END
