
     RDKit          3D

 10  9  0  0  0  0  0  0  0  0999 V2000
   -1.9970   -0.6340    1.2030 C   0  0  0  0  0  0  0  0  0  0  0  0
   -0.6830    0.1080    1.0560 C   0  0  0  0  0  0  0  0  0  0  0  0
   -0.1180    0.5980    2.3310 C   0  0  0  0  0  0  0  0  0  0  0  0
    0.1390   -0.5920    3.1520 N   0  0  0  0  0  0  0  0  0  0  0  0
   -0.1650    0.2710   -0.1490 C   0  0  0  0  0  0  0  0  0  0  0  0
    1.0830    0.9700   -0.3170 C   0  0  0  0  0  0  0  0  0  0  0  0
    1.7980    1.2760   -1.3310 C   0  0  0  0  0  0  0  0  0  0  0  0
    1.6180    1.0320   -2.7000 N   0  0  0  0  0  0  0  0  0  0  0  0
   -0.8960   -0.2750   -1.3040 C   0  0  0  0  0  0  0  0  0  0  0  0
   -0.2050   -1.2620   -2.0640 N   0  0  0  0  0  0  0  0  0  0  0  0
  1  2  1  0
  2  3  1  0
  2  5  2  3
  3  4  1  0
  5  6  1  0
  5  9  1  0
  6  7  2  3
  7  8  1  0
  9 10  1  0
M  CHG  3   4   1   8   1  10   1
M  END
