
     RDKit          3D

 15 16  0  0  0  0  0  0  0  0999 V2000
   -4.6330    0.2150    0.2340 C   0  0  0  0  0  0  0  0  0  0  0  0
   -3.1440    0.0910    0.2270 C   0  0  0  0  0  0  0  0  0  0  0  0
   -2.5090   -0.6940    1.1810 C   0  0  0  0  0  0  0  0  0  0  0  0
   -1.1160   -0.8200    1.1870 C   0  0  0  0  0  0  0  0  0  0  0  0
   -0.3760   -0.1600    0.2410 C   0  0  0  0  0  0  0  0  0  0  0  0
    1.1370   -0.2830    0.2300 C   0  0  0  0  0  0  0  0  0  0  0  0
    2.0190    0.1810   -0.4760 N   0  0  0  0  0  0  0  0  0  0  0  0
    3.2960   -0.0380   -0.3350 C   0  0  0  0  0  0  0  0  0  0  0  0
    4.3370    0.5590   -1.2320 C   0  0  0  0  0  0  0  0  0  0  0  0
    4.0060    1.3050   -2.1700 O   0  0  0  0  0  0  0  0  0  0  0  0
    5.6680    0.2930   -1.0350 O   0  0  0  0  0  0  0  0  0  0  0  0
    3.6550   -0.8620    0.7010 C   0  0  0  0  0  0  0  0  0  0  0  0
    2.0100   -1.2560    1.4020 S   0  0  0  0  0  0  0  0  0  0  0  0
   -1.0020    0.6000   -0.6820 C   0  0  0  0  0  0  0  0  0  0  0  0
   -2.3720    0.7330   -0.7000 C   0  0  0  0  0  0  0  0  0  0  0  0
  1  2  1  0
  2  3  2  0
  2 15  1  0
  3  4  1  0
  4  5  2  0
  5  6  1  0
  5 14  1  0
  6  7  2  0
  6 13  1  0
  7  8  1  0
  8  9  1  0
  8 12  2  0
  9 10  2  0
  9 11  1  0
 12 13  1  0
 14 15  2  0
M  END
