
     RDKit          3D

 20 21  0  0  0  0  0  0  0  0999 V2000
   -3.0900   -0.9700   -0.8510 C   0  0  0  0  0  0  0  0  0  0  0  0
   -1.7830   -0.9230   -1.0100 C   0  0  0  0  0  0  0  0  0  0  0  0
   -1.1470   -1.8800   -1.7670 O   0  0  0  0  0  0  0  0  0  0  0  0
   -1.0290    0.1920   -0.3530 C   0  0  2  0  0  0  0  0  0  0  0  0
   -1.7110    0.6910    0.7260 O   0  0  0  0  0  0  0  0  0  0  0  0
   -1.9490   -0.1730    1.7590 C   0  0  0  0  0  0  0  0  0  0  0  0
   -2.7100    0.5350    2.8220 C   0  0  0  0  0  0  0  0  0  0  0  0
   -3.0390   -0.0340    3.8470 O   0  0  0  0  0  0  0  0  0  0  0  0
   -0.9790    1.2830   -1.4580 C   0  0  0  0  0  0  0  0  0  0  0  0
   -0.6000    0.5520   -2.6050 O   0  0  0  0  0  0  0  0  0  0  0  0
    0.7250    0.1930   -2.5650 C   0  0  0  0  0  0  0  0  0  0  0  0
    1.3400    0.0990   -1.2170 C   0  0  0  0  0  0  0  0  0  0  0  0
    0.3950   -0.1240   -0.0740 C   0  0  2  0  0  0  0  0  0  0  0  0
    0.6290   -1.8080    0.6360 S   0  0  0  0  0  0  0  0  0  0  0  0
    2.0270   -1.4440    1.6110 O   0  0  0  0  0  0  0  0  0  0  0  0
    1.7050   -0.4420    2.3690 O   0  0  0  0  0  0  0  0  0  0  0  0
    1.0860    0.8400    1.3810 P   0  0  0  0  0  0  0  0  0  0  0  0
    2.3930    1.8690    0.8890 O   0  0  0  0  0  0  0  0  0  0  0  0
    3.8640    1.0080    1.0790 P   0  0  0  0  0  0  0  0  0  0  0  0
    5.2020    2.0450    1.4330 O   0  0  0  0  0  0  0  0  0  0  0  0
  1  2  2  0
  2  3  1  0
  2  4  1  0
  4  5  1  1
  4  9  1  0
  4 13  1  0
  5  6  1  0
  6  7  1  0
  7  8  2  0
  9 10  1  0
 10 11  1  0
 11 12  1  0
 13 12  1  6
 13 14  1  0
 13 17  1  0
 14 15  1  0
 15 16  1  0
 16 17  1  0
 17 18  1  0
 18 19  1  0
 19 20  1  0
M  END
