
     RDKit          3D

  8  7  0  0  0  0  0  0  0  0999 V2000
   -1.7000    0.5520    1.7010 O   0  0  0  0  0  0  0  0  0  0  0  0
   -1.9610    0.2330    0.5140 C   0  0  0  0  0  0  0  0  0  0  0  0
   -3.2470   -0.2480    0.2700 O   0  0  0  0  0  0  0  0  0  0  0  0
   -0.9940    0.3720   -0.4420 O   0  0  0  0  0  0  0  0  0  0  0  0
    0.2100    0.8410   -0.1140 O   0  0  0  0  0  0  0  0  0  0  0  0
    1.1520    0.1620   -0.9020 C   0  0  0  0  0  0  0  0  0  0  0  0
    2.4460    0.6080   -0.6070 O   0  0  0  0  0  0  0  0  0  0  0  0
    2.6520    0.3640    0.6580 O   0  0  0  0  0  0  0  0  0  0  0  0
  1  2  2  0
  2  3  1  0
  2  4  1  0
  4  5  1  0
  5  6  1  0
  6  7  1  0
  7  8  1  0
M  END
