
     RDKit          3D

 20 19  0  0  0  0  0  0  0  0999 V2000
   -1.3090   -0.4400    2.3210 C   0  0  0  0  0  0  0  0  0  0  0  0
   -1.1960   -1.2740    0.6990 P   0  0  0  0  0  0  0  0  0  0  0  0
   -2.6960   -1.7050    0.0130 O   0  0  0  0  0  0  0  0  0  0  0  0
   -3.4360   -0.6260   -0.4420 C   0  0  2  0  0  0  0  0  0  0  0  0
   -2.8080    0.1120   -1.4150 O   0  0  0  0  0  0  0  0  0  0  0  0
   -3.7420    0.2250    0.7660 C   0  0  0  0  0  0  0  0  0  0  0  0
   -3.4400    1.3940    0.7900 O   0  0  0  0  0  0  0  0  0  0  0  0
   -4.7670   -1.1240   -0.9650 C   0  0  0  0  0  0  0  0  0  0  0  0
   -5.5620   -0.1010   -1.4370 O   0  0  0  0  0  0  0  0  0  0  0  0
    0.1480   -0.3170   -0.7050 P   0  0  0  0  0  0  0  0  0  0  0  0
    0.0160    1.5130   -0.7310 C   0  0  0  0  0  0  0  0  0  0  0  0
    1.8600   -0.9130   -0.5950 C   0  0  0  0  0  0  0  0  0  0  0  0
    2.0840   -2.1210   -0.8840 O   0  0  0  0  0  0  0  0  0  0  0  0
    2.9180   -0.1140   -0.2150 O   0  0  0  0  0  0  0  0  0  0  0  0
    4.2190   -0.5870   -0.1370 C   0  0  0  0  0  0  0  0  0  0  0  0
    4.4040   -1.7910   -0.4310 O   0  0  0  0  0  0  0  0  0  0  0  0
    5.3620    0.2470    0.2660 C   0  0  1  0  0  0  0  0  0  0  0  0
    6.5230   -0.5150    0.2440 O   0  0  0  0  0  0  0  0  0  0  0  0
    5.5330    1.4160   -0.6690 C   0  0  0  0  0  0  0  0  0  0  0  0
    5.0330    1.3050   -2.0080 S   0  0  0  0  0  0  0  0  0  0  0  0
  1  2  1  0
  2  3  1  0
  2 10  1  0
  3  4  1  0
  4  5  1  6
  4  6  1  0
  4  8  1  0
  6  7  2  0
  8  9  1  0
 10 11  1  0
 10 12  1  0
 12 13  2  0
 12 14  1  0
 14 15  1  0
 15 16  2  0
 15 17  1  0
 17 18  1  6
 17 19  1  0
 19 20  2  0
M  END
