
     RDKit          3D

 20 21  0  0  0  0  0  0  0  0999 V2000
   -3.9330   -0.8300    2.0020 C   0  0  0  0  0  0  0  0  0  0  0  0
   -3.3210    0.2250    1.2830 O   0  0  0  0  0  0  0  0  0  0  0  0
   -2.1840   -0.0120    0.4790 C   0  0  0  0  0  0  0  0  0  0  0  0
   -2.4060   -0.2870   -0.7940 C   0  0  0  0  0  0  0  0  0  0  0  0
   -3.8260   -0.3360   -1.3180 C   0  0  0  0  0  0  0  0  0  0  0  0
   -4.1040   -1.5960   -1.8320 O   0  0  0  0  0  0  0  0  0  0  0  0
   -1.3330   -0.5300   -1.6380 O   0  0  0  0  0  0  0  0  0  0  0  0
    0.1630    0.3300   -1.3350 P   0  0  0  0  0  0  0  0  0  0  0  0
    1.5640   -0.7210   -1.3780 O   0  0  0  0  0  0  0  0  0  0  0  0
    2.2210   -0.5110   -0.1800 C   0  0  0  0  0  0  0  0  0  0  0  0
    3.5580   -0.6120   -0.0460 C   0  0  0  0  0  0  0  0  0  0  0  0
    4.3180   -0.3230    1.5380 S   0  0  0  0  0  0  0  0  0  0  0  0
    4.4120   -0.9720   -1.2110 C   0  0  0  0  0  0  0  0  0  0  0  0
    5.1300   -2.1560   -0.9780 O   0  0  0  0  0  0  0  0  0  0  0  0
    1.3590   -0.1720    0.9310 C   0  0  0  0  0  0  0  0  0  0  0  0
    0.1980    0.6190    0.5050 C   0  0  1  0  0  0  0  0  0  0  0  0
    0.3350    2.4290    0.7890 P   0  0  0  0  0  0  0  0  0  0  0  0
   -0.8680    3.2120   -0.2160 O   0  0  0  0  0  0  0  0  0  0  0  0
    1.8990    2.9700    0.3230 O   0  0  0  0  0  0  0  0  0  0  0  0
   -0.9740    0.0710    1.1080 O   0  0  0  0  0  0  0  0  0  0  0  0
  1  2  1  0
  2  3  1  0
  3  4  2  0
  3 20  1  0
  4  5  1  0
  4  7  1  0
  5  6  1  0
  7  8  1  0
  8  9  1  0
  8 16  1  0
  9 10  1  0
 10 11  2  3
 10 15  1  0
 11 12  1  0
 11 13  1  0
 13 14  1  0
 15 16  1  0
 16 17  1  6
 16 20  1  0
 17 18  1  0
 17 19  1  0
M  END
