
     RDKit          3D

 40 43  0  0  0  0  0  0  0  0999 V2000
    3.3900   -4.9810    0.1080 C   0  0  0  0  0  0  0  0  0  0  0  0
    2.5350   -4.0490   -0.4580 O   0  0  0  0  0  0  0  0  0  0  0  0
    2.7220   -3.9230   -1.8300 C   0  0  0  0  0  0  0  0  0  0  0  0
    1.7330   -2.8780   -2.3240 C   0  0  2  0  0  0  0  0  0  0  0  0
    0.3750   -3.3410   -1.8090 C   0  0  0  0  0  0  0  0  0  0  0  0
    1.7550   -2.6960   -3.8090 C   0  0  0  0  0  0  0  0  0  0  0  0
    1.9830   -1.6410   -1.6690 O   0  0  0  0  0  0  0  0  0  0  0  0
    3.1760   -0.9600   -1.7250 C   0  0  0  0  0  0  0  0  0  0  0  0
    4.1180   -1.4490   -2.3860 O   0  0  0  0  0  0  0  0  0  0  0  0
    3.3210    0.3380   -1.0010 C   0  0  2  0  0  0  0  0  0  0  0  0
    4.4080    0.2320    0.0560 C   0  0  0  0  0  0  0  0  0  0  0  0
    2.1230    0.7590   -0.4000 O   0  0  0  0  0  0  0  0  0  0  0  0
    1.5250    1.9300   -0.7300 C   0  0  0  0  0  0  0  0  0  0  0  0
    2.1250    2.6290   -1.6250 O   0  0  0  0  0  0  0  0  0  0  0  0
    0.2710    2.4350   -0.1540 C   0  0  0  0  0  0  0  0  0  0  0  0
   -0.3650    1.7890    0.7630 C   0  0  0  0  0  0  0  0  0  0  0  0
   -0.0370    0.5320    1.4060 C   0  0  0  0  0  0  0  0  0  0  0  0
    1.1590    0.3380    2.0660 C   0  0  0  0  0  0  0  0  0  0  0  0
    1.4360   -0.8790    2.6400 C   0  0  0  0  0  0  0  0  0  0  0  0
    0.5580   -1.9650    2.5990 C   0  0  0  0  0  0  0  0  0  0  0  0
   -0.6380   -1.7700    1.9420 C   0  0  0  0  0  0  0  0  0  0  0  0
   -0.9080   -0.5470    1.3680 C   0  0  0  0  0  0  0  0  0  0  0  0
   -1.4440   -2.9990    2.0710 C   0  0  0  0  0  0  0  0  0  0  0  0
   -2.6070   -3.1360    1.5620 O   0  0  0  0  0  0  0  0  0  0  0  0
   -0.7050   -3.9300    2.8260 N   0  0  0  0  0  0  0  0  0  0  0  0
   -0.7430   -5.2300    3.4820 C   0  0  0  0  0  0  0  0  0  0  0  0
   -0.5070   -4.9620    4.9540 C   0  0  2  0  0  0  0  0  0  0  0  0
   -1.7660   -4.5870    5.6770 C   0  0  0  0  0  0  0  0  0  0  0  0
    0.6500   -3.5310    4.8750 S   0  0  0  0  0  0  0  0  0  0  0  0
    0.6040   -3.3410    3.0500 C   0  0  2  0  0  0  0  0  0  0  0  0
   -0.2080    3.7270   -0.6880 C   0  0  0  0  0  0  0  0  0  0  0  0
    0.4760    4.3210   -1.5940 O   0  0  0  0  0  0  0  0  0  0  0  0
   -1.4030    4.2860   -0.1970 N   0  0  0  0  0  0  0  0  0  0  0  0
   -1.8250    5.5630   -0.7480 C   0  0  0  0  0  0  0  0  0  0  0  0
   -2.0740    5.5580   -2.2180 C   0  0  1  0  0  0  0  0  0  0  0  0
   -3.1880    4.6490   -2.6550 C   0  0  0  0  0  0  0  0  0  0  0  0
   -4.3810    5.5390   -2.8560 C   0  0  0  0  0  0  0  0  0  0  0  0
   -3.8260    6.9120   -2.6250 C   0  0  1  0  0  0  0  0  0  0  0  0
   -4.4400    7.5390   -1.3990 C   0  0  0  0  0  0  0  0  0  0  0  0
   -2.4580    6.8510   -2.5820 O   0  0  0  0  0  0  0  0  0  0  0  0
  1  2  1  0
  2  3  1  0
  3  4  1  0
  4  5  1  1
  4  6  1  0
  4  7  1  0
  7  8  1  0
  8  9  2  0
  8 10  1  0
 10 11  1  1
 10 12  1  0
 12 13  1  0
 13 14  2  0
 13 15  1  0
 15 16  2  3
 15 31  1  0
 16 17  1  0
 17 18  2  0
 17 22  1  0
 18 19  1  0
 19 20  2  0
 20 21  1  0
 20 30  1  0
 21 22  2  0
 21 23  1  0
 23 24  2  0
 23 25  1  0
 25 26  1  0
 25 30  1  0
 26 27  1  0
 27 28  1  1
 27 29  1  0
 30 29  1  1
 31 32  2  0
 31 33  1  0
 33 34  1  0
 35 34  1  1
 35 36  1  0
 35 40  1  0
 36 37  1  0
 37 38  1  0
 38 39  1  1
 38 40  1  0
M  END
