
     RDKit          3D

 39 42  0  0  0  0  0  0  0  0999 V2000
   11.4080    1.8320    0.5630 C   0  0  0  0  0  0  0  0  0  0  0  0
   10.2780    2.3420   -0.7310 S   0  0  0  0  0  0  0  0  0  0  0  0
    9.9190    1.0520   -1.9110 C   0  0  0  0  0  0  0  0  0  0  0  0
    9.1700   -0.0580   -1.2970 C   0  0  0  0  0  0  0  0  0  0  0  0
    7.8320    0.1880   -0.7290 C   0  0  2  0  0  0  0  0  0  0  0  0
    7.6820    1.1580    0.3730 C   0  0  0  0  0  0  0  0  0  0  0  0
    6.2050    1.3200    0.6230 C   0  0  0  0  0  0  0  0  0  0  0  0
    5.6460    2.4380    0.7170 O   0  0  0  0  0  0  0  0  0  0  0  0
    5.4170    0.1040    0.7580 C   0  0  0  0  0  0  0  0  0  0  0  0
    5.9910   -1.0890    0.3570 C   0  0  0  0  0  0  0  0  0  0  0  0
    5.2930   -2.2310    0.4620 N   0  0  0  0  0  0  0  0  0  0  0  0
    4.0560   -2.2260    0.9480 C   0  0  0  0  0  0  0  0  0  0  0  0
    3.3710   -3.2980    1.0610 O   0  0  0  0  0  0  0  0  0  0  0  0
    3.4400   -1.0510    1.3630 C   0  0  0  0  0  0  0  0  0  0  0  0
    2.1620   -1.0320    1.8640 O   0  0  0  0  0  0  0  0  0  0  0  0
    1.0710   -0.8210    1.0210 C   0  0  0  0  0  0  0  0  0  0  0  0
    0.9130   -1.8270   -0.0820 C   0  0  0  0  0  0  0  0  0  0  0  0
   -0.1930   -1.5600   -0.8790 O   0  0  0  0  0  0  0  0  0  0  0  0
   -1.3360   -1.6400   -0.1380 C   0  0  2  0  0  0  0  0  0  0  0  0
   -2.3850   -2.5410   -0.8020 C   0  0  0  0  0  0  0  0  0  0  0  0
   -3.7080   -1.8870   -0.4740 C   0  0  0  0  0  0  0  0  0  0  0  0
   -3.3940   -0.7620    0.3670 N   0  0  2  0  0  0  0  0  0  0  0  0
   -4.3610    0.3150    0.2220 C   0  0  0  0  0  0  0  0  0  0  0  0
   -5.7600   -0.2360    0.4540 C   0  0  1  0  0  0  0  0  0  0  0  0
   -5.8950   -0.8220    1.8290 C   0  0  0  0  0  0  0  0  0  0  0  0
   -6.7120    0.8800    0.3120 C   0  0  0  0  0  0  0  0  0  0  0  0
   -7.4440    1.2080    1.2660 O   0  0  0  0  0  0  0  0  0  0  0  0
   -6.8000    1.5690   -0.8760 O   0  0  0  0  0  0  0  0  0  0  0  0
   -7.6570    2.6390   -1.1370 C   0  0  0  0  0  0  0  0  0  0  0  0
   -9.0560    2.1890   -0.9640 C   0  0  0  0  0  0  0  0  0  0  0  0
   -9.8420    2.3660    0.1420 C   0  0  0  0  0  0  0  0  0  0  0  0
  -11.0580    1.7860   -0.1450 C   0  0  0  0  0  0  0  0  0  0  0  0
  -10.9380    1.2880   -1.4170 C   0  0  0  0  0  0  0  0  0  0  0  0
  -12.0220    0.5650   -2.1570 C   0  0  0  0  0  0  0  0  0  0  0  0
   -9.7510    1.5480   -1.8530 O   0  0  0  0  0  0  0  0  0  0  0  0
   -2.1130   -0.3160   -0.1460 C   0  0  0  0  0  0  0  0  0  0  0  0
    4.1360    0.1320    1.2640 C   0  0  0  0  0  0  0  0  0  0  0  0
    3.5590    1.4380    1.6860 C   0  0  0  0  0  0  0  0  0  0  0  0
    7.3550   -1.1780   -0.1890 C   0  0  0  0  0  0  0  0  0  0  0  0
  1  2  1  0
  2  3  1  0
  3  4  1  0
  5  4  1  1
  5  6  1  0
  5 39  1  0
  6  7  1  0
  7  8  2  0
  7  9  1  0
  9 10  2  0
  9 37  1  0
 10 11  1  0
 10 39  1  0
 11 12  1  0
 12 13  2  0
 12 14  1  0
 14 15  1  0
 14 37  2  0
 15 16  1  0
 16 17  1  0
 17 18  1  0
 19 18  1  6
 19 20  1  0
 19 36  1  0
 20 21  1  0
 21 22  1  0
 22 23  1  6
 22 36  1  0
 23 24  1  0
 24 25  1  1
 24 26  1  0
 26 27  2  0
 26 28  1  0
 28 29  1  0
 29 30  1  0
 30 31  2  0
 30 35  1  0
 31 32  1  0
 32 33  2  0
 33 34  1  0
 33 35  1  0
 37 38  1  0
M  CHG  1  22   1
M  END
