
     RDKit          3D

 40 42  0  0  0  0  0  0  0  0999 V2000
   -8.1210   -1.8780   -1.0390 C   0  0  0  0  0  0  0  0  0  0  0  0
   -9.2220   -1.4690   -0.1250 C   0  0  0  0  0  0  0  0  0  0  0  0
   -9.1420   -0.0860    0.4280 C   0  0  2  0  0  0  0  0  0  0  0  0
  -10.3840    0.0990    1.3200 C   0  0  0  0  0  0  0  0  0  0  0  0
   -9.3000    0.8820   -0.7220 C   0  0  0  0  0  0  0  0  0  0  0  0
   -7.9760    0.2080    1.2980 C   0  0  2  0  0  0  0  0  0  0  0  0
   -8.0660    1.5570    1.7360 O   0  0  0  0  0  0  0  0  0  0  0  0
   -6.6490    0.0650    0.7180 C   0  0  0  0  0  0  0  0  0  0  0  0
   -5.6940   -0.9500    0.9580 C   0  0  0  0  0  0  0  0  0  0  0  0
   -4.5430   -0.8660    0.3160 C   0  0  0  0  0  0  0  0  0  0  0  0
   -4.3110    0.1600   -0.5340 C   0  0  0  0  0  0  0  0  0  0  0  0
   -3.1700    0.5330   -1.3640 C   0  0  2  0  0  0  0  0  0  0  0  0
   -2.6650   -0.6330   -2.1210 C   0  0  0  0  0  0  0  0  0  0  0  0
   -2.0360    1.1330   -0.5470 C   0  0  2  0  0  0  0  0  0  0  0  0
   -2.4920    2.3820    0.1730 C   0  0  0  0  0  0  0  0  0  0  0  0
   -0.9840    1.4330   -1.3640 O   0  0  0  0  0  0  0  0  0  0  0  0
    0.2110    0.8330   -1.1170 C   0  0  0  0  0  0  0  0  0  0  0  0
    0.8290    1.1190    0.1930 C   0  0  0  0  0  0  0  0  0  0  0  0
    0.2190    1.8710    0.9920 O   0  0  0  0  0  0  0  0  0  0  0  0
    2.0720    0.5860    0.5800 N   0  0  0  0  0  0  0  0  0  0  0  0
    2.7970   -0.2880   -0.3040 C   0  0  0  0  0  0  0  0  0  0  0  0
    3.8520   -1.0370    0.5280 C   0  0  0  0  0  0  0  0  0  0  0  0
    4.8000    0.0110    1.0540 C   0  0  1  0  0  0  0  0  0  0  0  0
    6.0330   -0.6330    1.6160 C   0  0  0  0  0  0  0  0  0  0  0  0
    6.8040   -1.4220    0.6680 C   0  0  0  0  0  0  0  0  0  0  0  0
    6.4460   -2.5660    0.3330 O   0  0  0  0  0  0  0  0  0  0  0  0
    8.0010   -0.9180    0.0850 N   0  0  0  0  0  0  0  0  0  0  0  0
    8.7800   -1.7080   -0.8790 C   0  0  0  0  0  0  0  0  0  0  0  0
   10.1530   -1.8850   -0.2480 C   0  0  0  0  0  0  0  0  0  0  0  0
   10.7000   -0.6950    0.1720 O   0  0  0  0  0  0  0  0  0  0  0  0
    9.9600    0.4080   -0.1780 C   0  0  0  0  0  0  0  0  0  0  0  0
    8.5420    0.3860    0.3980 C   0  0  0  0  0  0  0  0  0  0  0  0
    5.1430    0.8840   -0.1240 C   0  0  0  0  0  0  0  0  0  0  0  0
    4.9350    2.1170   -0.1280 O   0  0  0  0  0  0  0  0  0  0  0  0
    5.7050    0.2710   -1.2190 O   0  0  0  0  0  0  0  0  0  0  0  0
    6.0680    0.9950   -2.3840 C   0  0  0  0  0  0  0  0  0  0  0  0
    4.0870    0.8400    2.1070 C   0  0  0  0  0  0  0  0  0  0  0  0
    2.6230    0.9120    1.8360 C   0  0  0  0  0  0  0  0  0  0  0  0
    1.8710    1.2750    2.7610 O   0  0  0  0  0  0  0  0  0  0  0  0
   -5.8000    1.0650   -0.4250 S   0  0  0  0  0  0  0  0  0  0  0  0
  1  2  1  0
  2  3  1  0
  3  4  1  1
  3  5  1  0
  3  6  1  0
  6  7  1  6
  6  8  1  0
  8  9  2  0
  8 40  1  0
  9 10  1  0
 10 11  2  0
 11 12  1  0
 11 40  1  0
 12 13  1  1
 12 14  1  0
 14 15  1  6
 14 16  1  0
 16 17  1  0
 17 18  1  0
 18 19  2  0
 18 20  1  0
 20 21  1  0
 20 38  1  0
 21 22  1  0
 22 23  1  0
 23 24  1  1
 23 33  1  0
 23 37  1  0
 24 25  1  0
 25 26  2  0
 25 27  1  0
 27 28  1  0
 27 32  1  0
 28 29  1  0
 29 30  1  0
 30 31  1  0
 31 32  1  0
 33 34  2  0
 33 35  1  0
 35 36  1  0
 37 38  1  0
 38 39  2  0
M  END
