
     RDKit          3D

 40 42  0  0  0  0  0  0  0  0999 V2000
   -7.1700    4.2530   -0.9230 C   0  0  0  0  0  0  0  0  0  0  0  0
   -7.5020    2.7960   -0.8410 C   0  0  0  0  0  0  0  0  0  0  0  0
   -7.1620    2.1570    0.4740 C   0  0  1  0  0  0  0  0  0  0  0  0
   -7.8940    2.8100    1.6300 C   0  0  0  0  0  0  0  0  0  0  0  0
   -9.2690    2.6970    1.4410 O   0  0  0  0  0  0  0  0  0  0  0  0
   -7.6550    0.7250    0.4210 C   0  0  0  0  0  0  0  0  0  0  0  0
   -6.5010   -0.1020    0.9540 C   0  0  0  0  0  0  0  0  0  0  0  0
   -5.3040    0.6860    0.6220 N   0  0  0  0  0  0  0  0  0  0  0  0
   -4.0480    0.0630    0.3230 C   0  0  1  0  0  0  0  0  0  0  0  0
   -3.5970   -0.7880    1.4710 C   0  0  0  0  0  0  0  0  0  0  0  0
   -2.3050   -1.5210    1.1620 C   0  0  0  0  0  0  0  0  0  0  0  0
   -2.1020   -1.7050   -0.3030 C   0  0  1  0  0  0  0  0  0  0  0  0
   -1.0640   -2.7260   -0.6830 C   0  0  2  0  0  0  0  0  0  0  0  0
   -1.3560   -4.1130   -0.1820 C   0  0  0  0  0  0  0  0  0  0  0  0
    0.2290   -2.3540   -0.2620 O   0  0  0  0  0  0  0  0  0  0  0  0
    1.2310   -2.0500   -1.2060 C   0  0  0  0  0  0  0  0  0  0  0  0
    0.8480   -2.1460   -2.4020 O   0  0  0  0  0  0  0  0  0  0  0  0
    2.5720   -1.6620   -0.8310 C   0  0  0  0  0  0  0  0  0  0  0  0
    3.0810   -1.5590    0.4750 C   0  0  0  0  0  0  0  0  0  0  0  0
    2.2790   -1.8300    1.6790 C   0  0  0  0  0  0  0  0  0  0  0  0
    2.9000   -1.7690    2.8820 O   0  0  0  0  0  0  0  0  0  0  0  0
    3.8490   -2.7120    3.1730 C   0  0  0  0  0  0  0  0  0  0  0  0
    4.3410   -1.1460    0.3650 N   0  0  0  0  0  0  0  0  0  0  0  0
    4.7020   -0.9690   -0.9090 C   0  0  0  0  0  0  0  0  0  0  0  0
    5.9450   -0.4980   -1.4580 C   0  0  0  0  0  0  0  0  0  0  0  0
    6.1520   -0.4480   -2.7090 O   0  0  0  0  0  0  0  0  0  0  0  0
    7.0510   -0.0360   -0.5570 C   0  0  2  0  0  0  0  0  0  0  0  0
    6.5600    1.2040    0.1140 C   0  0  0  0  0  0  0  0  0  0  0  0
    8.5570    0.1710   -1.4830 S   0  0  0  0  0  0  0  0  0  0  0  0
    9.9290    0.6570   -0.4580 C   0  0  0  0  0  0  0  0  0  0  0  0
    9.8490    2.0460   -0.0350 C   0  0  0  0  0  0  0  0  0  0  0  0
   10.6500    2.5270    0.8440 O   0  0  0  0  0  0  0  0  0  0  0  0
    8.9320    2.9260   -0.5390 O   0  0  0  0  0  0  0  0  0  0  0  0
    8.8190    4.2790   -0.1640 C   0  0  0  0  0  0  0  0  0  0  0  0
    3.5780   -1.2970   -1.6780 C   0  0  0  0  0  0  0  0  0  0  0  0
    3.5810   -1.2240   -3.1710 C   0  0  0  0  0  0  0  0  0  0  0  0
   -3.4520   -2.0330   -0.9190 C   0  0  0  0  0  0  0  0  0  0  0  0
   -4.2520   -0.7490   -0.9450 C   0  0  0  0  0  0  0  0  0  0  0  0
   -5.7200    2.0330    0.6850 C   0  0  0  0  0  0  0  0  0  0  0  0
   -4.8850    2.9740    0.9030 O   0  0  0  0  0  0  0  0  0  0  0  0
  1  2  1  0
  3  2  1  6
  3  4  1  0
  3  6  1  0
  3 39  1  0
  4  5  1  0
  6  7  1  0
  7  8  1  0
  9  8  1  1
  8 39  1  0
  9 10  1  0
  9 38  1  0
 10 11  1  0
 12 11  1  1
 12 13  1  0
 12 37  1  0
 13 14  1  1
 13 15  1  0
 15 16  1  0
 16 17  2  0
 16 18  1  0
 18 19  2  0
 18 35  1  0
 19 20  1  0
 19 23  1  0
 20 21  1  0
 21 22  1  0
 23 24  1  0
 24 25  1  0
 24 35  2  0
 25 26  2  0
 25 27  1  0
 27 28  1  6
 27 29  1  0
 29 30  1  0
 30 31  1  0
 31 32  2  0
 31 33  1  0
 33 34  1  0
 35 36  1  0
 37 38  1  0
 39 40  2  0
M  END
