
     RDKit          3D

 39 42  0  0  0  0  0  0  0  0999 V2000
   -5.6950    5.7170   -1.3780 C   0  0  0  0  0  0  0  0  0  0  0  0
   -5.5720    4.3630   -0.9330 O   0  0  0  0  0  0  0  0  0  0  0  0
   -5.2270    3.4030   -1.8650 C   0  0  0  0  0  0  0  0  0  0  0  0
   -5.0330    3.7360   -3.0590 O   0  0  0  0  0  0  0  0  0  0  0  0
   -5.0970    2.0190   -1.4280 C   0  0  0  0  0  0  0  0  0  0  0  0
   -5.2720    1.4890   -0.1770 C   0  0  0  0  0  0  0  0  0  0  0  0
   -5.0310    0.1250   -0.2900 C   0  0  0  0  0  0  0  0  0  0  0  0
   -4.7240   -0.0940   -1.6010 C   0  0  0  0  0  0  0  0  0  0  0  0
   -4.3890   -1.3780   -2.2250 C   0  0  0  0  0  0  0  0  0  0  0  0
   -4.0780   -2.3540   -1.2960 O   0  0  0  0  0  0  0  0  0  0  0  0
   -3.0620   -2.3590   -0.3670 C   0  0  0  0  0  0  0  0  0  0  0  0
   -2.1900   -1.2570   -0.2950 C   0  0  0  0  0  0  0  0  0  0  0  0
   -1.1540   -1.1910    0.6070 C   0  0  0  0  0  0  0  0  0  0  0  0
   -0.2440   -0.0550    0.7080 C   0  0  0  0  0  0  0  0  0  0  0  0
   -0.5510    1.1040    0.3390 O   0  0  0  0  0  0  0  0  0  0  0  0
    1.0580   -0.2390    1.2450 N   0  0  0  0  0  0  0  0  0  0  0  0
    1.9980    0.8750    1.3670 C   0  0  1  0  0  0  0  0  0  0  0  0
    2.4270    0.8930    2.8080 C   0  0  0  0  0  0  0  0  0  0  0  0
    3.8310    0.3080    2.8210 C   0  0  0  0  0  0  0  0  0  0  0  0
    4.3940    0.7590    1.4840 C   0  0  2  0  0  0  0  0  0  0  0  0
    4.9470    2.1470    1.5500 C   0  0  1  0  0  0  0  0  0  0  0  0
    6.0590    2.2960    2.5340 C   0  0  0  0  0  0  0  0  0  0  0  0
    5.1270    2.8050    0.2310 C   0  0  0  0  0  0  0  0  0  0  0  0
    6.0080    2.1380   -0.7570 C   0  0  2  0  0  0  0  0  0  0  0  0
    7.4070    1.9990   -0.2210 C   0  0  0  0  0  0  0  0  0  0  0  0
    6.1550    3.1680   -2.2560 S   0  0  0  0  0  0  0  0  0  0  0  0
    7.2340    2.2860   -3.3880 C   0  0  0  0  0  0  0  0  0  0  0  0
    4.7500    3.2580   -2.8520 O   0  0  0  0  0  0  0  0  0  0  0  0
    3.2240    0.5580    0.5830 C   0  0  0  0  0  0  0  0  0  0  0  0
   -1.0110   -2.2690    1.4480 C   0  0  0  0  0  0  0  0  0  0  0  0
   -1.8540   -3.3470    1.3870 C   0  0  0  0  0  0  0  0  0  0  0  0
   -2.9230   -3.4350    0.4680 C   0  0  0  0  0  0  0  0  0  0  0  0
   -3.7390   -4.6310    0.4860 C   0  0  0  0  0  0  0  0  0  0  0  0
   -3.4970   -5.5670    1.3310 O   0  0  0  0  0  0  0  0  0  0  0  0
   -4.8150   -4.8720   -0.3720 N   0  0  0  0  0  0  0  0  0  0  0  0
   -5.5790   -6.1470   -0.2610 C   0  0  1  0  0  0  0  0  0  0  0  0
   -6.9080   -6.1260   -0.8780 C   0  0  0  0  0  0  0  0  0  0  0  0
   -5.7670   -6.8170   -1.5930 C   0  0  0  0  0  0  0  0  0  0  0  0
   -4.7770    1.0500   -2.2280 O   0  0  0  0  0  0  0  0  0  0  0  0
  1  2  1  0
  2  3  1  0
  3  4  2  0
  3  5  1  0
  5  6  2  0
  5 39  1  0
  6  7  1  0
  7  8  2  0
  8  9  1  0
  8 39  1  0
  9 10  1  0
 10 11  1  0
 11 12  2  0
 11 32  1  0
 12 13  1  0
 13 14  1  0
 13 30  2  0
 14 15  2  0
 14 16  1  0
 17 16  1  1
 17 18  1  0
 17 29  1  0
 18 19  1  0
 20 19  1  1
 20 21  1  0
 20 29  1  0
 21 22  1  6
 21 23  1  0
 23 24  1  0
 24 25  1  1
 24 26  1  0
 26 27  1  6
 26 28  2  0
 30 31  1  0
 31 32  2  0
 32 33  1  0
 33 34  2  0
 33 35  1  0
 36 35  1  6
 36 37  1  0
 36 38  1  0
 37 38  1  0
M  END
