
     RDKit          3D

 39 41  0  0  0  0  0  0  0  0999 V2000
    1.9570   -1.3160   -1.8120 C   0  0  0  0  0  0  0  0  0  0  0  0
    1.7820   -0.6890   -0.4300 C   0  0  2  0  0  0  0  0  0  0  0  0
    3.1150   -0.3470    0.1850 C   0  0  2  0  0  0  0  0  0  0  0  0
    4.0930   -0.0320   -0.9190 C   0  0  0  0  0  0  0  0  0  0  0  0
    5.4580    0.3230   -0.4050 C   0  0  2  0  0  0  0  0  0  0  0  0
    5.4580    1.4270    0.4190 O   0  0  0  0  0  0  0  0  0  0  0  0
    6.3520    0.5320   -1.6100 C   0  0  0  0  0  0  0  0  0  0  0  0
    7.7520    0.8950   -1.2220 C   0  0  1  0  0  0  0  0  0  0  0  0
    7.7420    2.0690   -0.4890 O   0  0  0  0  0  0  0  0  0  0  0  0
    8.5010   -0.2150   -0.5440 C   0  0  0  0  0  0  0  0  0  0  0  0
    9.8260    0.2390   -0.3750 O   0  0  0  0  0  0  0  0  0  0  0  0
    3.4330   -1.4870    0.9210 O   0  0  0  0  0  0  0  0  0  0  0  0
    2.2580   -1.9290    1.5110 C   0  0  0  0  0  0  0  0  0  0  0  0
    2.0680   -2.4030    2.6830 O   0  0  0  0  0  0  0  0  0  0  0  0
    1.2130   -1.7370    0.4700 C   0  0  1  0  0  0  0  0  0  0  0  0
    0.0020   -1.2670    1.0310 O   0  0  0  0  0  0  0  0  0  0  0  0
   -1.1470   -2.0250    0.8910 C   0  0  0  0  0  0  0  0  0  0  0  0
   -1.2130   -3.1230    0.2940 O   0  0  0  0  0  0  0  0  0  0  0  0
   -2.4020   -1.4620    1.5130 C   0  0  0  0  0  0  0  0  0  0  0  0
   -2.1430   -0.2050    2.1530 N   0  0  0  0  0  0  0  0  0  0  0  0
   -1.7280   -0.2310    3.5410 C   0  0  0  0  0  0  0  0  0  0  0  0
   -2.1750   -1.1720    4.2720 O   0  0  0  0  0  0  0  0  0  0  0  0
   -0.8520    0.7750    4.0290 N   0  0  0  0  0  0  0  0  0  0  0  0
   -0.4270    1.7580    3.1330 N   0  0  0  0  0  0  0  0  0  0  0  0
   -0.8790    1.7250    1.7770 C   0  0  0  0  0  0  0  0  0  0  0  0
   -0.1810    2.1900    0.8850 O   0  0  0  0  0  0  0  0  0  0  0  0
   -2.2080    1.1060    1.5630 C   0  0  1  0  0  0  0  0  0  0  0  0
   -2.7460    1.1850    0.1830 C   0  0  0  0  0  0  0  0  0  0  0  0
   -4.1560    0.7240    0.1740 C   0  0  0  0  0  0  0  0  0  0  0  0
   -4.8520    0.4530    1.1610 O   0  0  0  0  0  0  0  0  0  0  0  0
   -4.7440    0.5870   -1.0940 O   0  0  0  0  0  0  0  0  0  0  0  0
   -6.0530    0.1670   -1.2710 C   0  0  0  0  0  0  0  0  0  0  0  0
   -6.3590   -1.1760   -1.4080 C   0  0  0  0  0  0  0  0  0  0  0  0
   -7.6550   -1.6020   -1.5840 C   0  0  0  0  0  0  0  0  0  0  0  0
   -8.7140   -0.6990   -1.6320 C   0  0  0  0  0  0  0  0  0  0  0  0
  -10.0470   -1.1380   -1.8140 N   0  0  0  0  0  0  0  0  0  0  0  0
   -8.3970    0.6350   -1.4950 C   0  0  0  0  0  0  0  0  0  0  0  0
   -7.0880    1.0620   -1.3170 C   0  0  0  0  0  0  0  0  0  0  0  0
   -6.8050    2.4100   -1.1820 O   0  0  0  0  0  0  0  0  0  0  0  0
  2  1  1  6
  2  3  1  0
  2 15  1  0
  3  4  1  6
  3 12  1  0
  4  5  1  0
  5  6  1  6
  5  7  1  0
  7  8  1  0
  8  9  1  1
  8 10  1  0
 10 11  1  0
 12 13  1  0
 13 14  2  0
 13 15  1  0
 15 16  1  1
 16 17  1  0
 17 18  2  0
 17 19  1  0
 19 20  1  0
 20 21  1  0
 20 27  1  0
 21 22  2  0
 21 23  1  0
 23 24  1  0
 24 25  1  0
 25 26  2  0
 25 27  1  0
 27 28  1  6
 28 29  1  0
 29 30  2  0
 29 31  1  0
 31 32  1  0
 32 33  2  0
 32 38  1  0
 33 34  1  0
 34 35  2  0
 35 36  1  0
 35 37  1  0
 37 38  2  0
 38 39  1  0
M  END
