
     RDKit          3D

 39 41  0  0  0  0  0  0  0  0999 V2000
    5.9220    2.2330    1.8500 C   0  0  0  0  0  0  0  0  0  0  0  0
    5.2020    1.4100    0.8040 C   0  0  2  0  0  0  0  0  0  0  0  0
    4.0510    0.7230    1.3650 N   0  0  0  0  0  0  0  0  0  0  0  0
    2.7370    0.9670    0.9130 C   0  0  0  0  0  0  0  0  0  0  0  0
    2.6140    1.8290   -0.0230 O   0  0  0  0  0  0  0  0  0  0  0  0
    1.5320    0.2770    1.4690 C   0  0  1  0  0  0  0  0  0  0  0  0
    1.3860    0.4970    2.9410 C   0  0  0  0  0  0  0  0  0  0  0  0
    0.2270   -0.2470    3.3440 O   0  0  0  0  0  0  0  0  0  0  0  0
   -0.9330   -0.1770    2.5600 C   0  0  0  0  0  0  0  0  0  0  0  0
   -2.1540   -0.5940    3.0300 C   0  0  0  0  0  0  0  0  0  0  0  0
   -3.3120   -0.5180    2.2310 C   0  0  0  0  0  0  0  0  0  0  0  0
   -3.2550   -0.0270    0.9680 C   0  0  0  0  0  0  0  0  0  0  0  0
   -4.3640    0.0930    0.1300 N   0  0  0  0  0  0  0  0  0  0  0  0
   -5.7030    0.0220    0.5550 C   0  0  0  0  0  0  0  0  0  0  0  0
   -6.0020   -0.1500    1.7770 O   0  0  0  0  0  0  0  0  0  0  0  0
   -6.7800    0.1450   -0.4070 N   0  0  0  0  0  0  0  0  0  0  0  0
   -8.1270    0.0660    0.0720 C   0  0  1  0  0  0  0  0  0  0  0  0
   -8.3180   -1.2830    0.7320 C   0  0  0  0  0  0  0  0  0  0  0  0
   -8.3110    1.0810    1.0320 O   0  0  0  0  0  0  0  0  0  0  0  0
   -9.1450    0.2850   -1.0260 C   0  0  1  0  0  0  0  0  0  0  0  0
   -9.0250   -0.6920   -2.1380 C   0  0  0  0  0  0  0  0  0  0  0  0
  -10.3080   -1.4740   -2.0750 C   0  0  0  0  0  0  0  0  0  0  0  0
  -11.2140   -0.5050   -1.3400 C   0  0  0  0  0  0  0  0  0  0  0  0
  -10.3960    0.1900   -0.4600 O   0  0  0  0  0  0  0  0  0  0  0  0
   -1.9810    0.3890    0.5280 C   0  0  0  0  0  0  0  0  0  0  0  0
   -0.8560    0.3230    1.2800 C   0  0  0  0  0  0  0  0  0  0  0  0
    0.4000    0.7480    0.8070 O   0  0  0  0  0  0  0  0  0  0  0  0
    6.1270    0.4170    0.2020 C   0  0  0  0  0  0  0  0  0  0  0  0
    5.8540   -0.8320    0.2290 O   0  0  0  0  0  0  0  0  0  0  0  0
    7.2990    0.7860   -0.4030 O   0  0  0  0  0  0  0  0  0  0  0  0
    8.2290   -0.0990   -0.9970 C   0  0  1  0  0  0  0  0  0  0  0  0
    8.3520    0.3300   -2.3940 N   0  0  0  0  0  0  0  0  0  0  0  0
    8.1170   -0.5690   -3.4600 C   0  0  0  0  0  0  0  0  0  0  0  0
    7.8000   -1.7500   -3.1660 O   0  0  0  0  0  0  0  0  0  0  0  0
    8.2290   -0.1790   -4.7880 O   0  0  0  0  0  0  0  0  0  0  0  0
    9.5680    0.1350   -0.3050 C   0  0  1  0  0  0  0  0  0  0  0  0
    9.4210   -0.2820    1.0210 O   0  0  0  0  0  0  0  0  0  0  0  0
   10.6450   -0.7450   -0.9390 C   0  0  0  0  0  0  0  0  0  0  0  0
   10.2380   -2.0740   -0.8800 O   0  0  0  0  0  0  0  0  0  0  0  0
  2  1  1  1
  2  3  1  0
  2 28  1  0
  3  4  1  0
  4  5  2  0
  6  4  1  6
  6  7  1  0
  6 27  1  0
  7  8  1  0
  8  9  1  0
  9 10  2  0
  9 26  1  0
 10 11  1  0
 11 12  2  0
 12 13  1  0
 12 25  1  0
 13 14  1  0
 14 15  2  0
 14 16  1  0
 16 17  1  0
 17 18  1  1
 17 19  1  0
 17 20  1  0
 20 21  1  6
 20 24  1  0
 21 22  1  0
 22 23  1  0
 23 24  1  0
 25 26  2  0
 26 27  1  0
 28 29  2  0
 28 30  1  0
 30 31  1  0
 31 32  1  6
 31 36  1  0
 32 33  1  0
 33 34  2  0
 33 35  1  0
 36 37  1  1
 36 38  1  0
 38 39  1  0
M  END
