
     RDKit          3D

 39 41  0  0  0  0  0  0  0  0999 V2000
   -2.2670   -1.7140   -0.1930 C   0  0  0  0  0  0  0  0  0  0  0  0
   -2.5830   -1.1830   -1.5480 C   0  0  2  0  0  0  0  0  0  0  0  0
   -1.9120   -2.1840   -2.5350 C   0  0  0  0  0  0  0  0  0  0  0  0
   -2.4240   -3.4770   -2.3370 O   0  0  0  0  0  0  0  0  0  0  0  0
   -2.0060    0.1710   -1.8600 C   0  0  0  0  0  0  0  0  0  0  0  0
   -1.2100    0.8140   -0.7710 C   0  0  1  0  0  0  0  0  0  0  0  0
    0.1690    0.8350   -1.1960 N   0  0  0  0  0  0  0  0  0  0  0  0
    1.2740    0.5550   -0.1980 C   0  0  0  0  0  0  0  0  0  0  0  0
    0.9050    0.2410    0.8940 O   0  0  0  0  0  0  0  0  0  0  0  0
    2.4670    0.7650   -0.8940 N   0  0  0  0  0  0  0  0  0  0  0  0
    3.5900    0.4480    0.3670 C   0  0  0  0  0  0  0  0  0  0  0  0
    3.0330    0.2250    1.3990 O   0  0  0  0  0  0  0  0  0  0  0  0
    4.9310    0.4930   -0.0080 C   0  0  0  0  0  0  0  0  0  0  0  0
    5.8760    0.2940    0.9280 C   0  0  0  0  0  0  0  0  0  0  0  0
    5.4660    0.0550    2.3260 C   0  0  0  0  0  0  0  0  0  0  0  0
    4.5430    0.7860    2.7950 O   0  0  0  0  0  0  0  0  0  0  0  0
    6.1690   -0.9940    3.0160 N   0  0  0  0  0  0  0  0  0  0  0  0
    7.1430   -1.6320    2.2340 C   0  0  0  0  0  0  0  0  0  0  0  0
    7.5440   -2.8010    2.6870 O   0  0  0  0  0  0  0  0  0  0  0  0
    7.7980   -1.2150    0.9930 C   0  0  0  0  0  0  0  0  0  0  0  0
    7.3320    0.2280    0.6690 C   0  0  1  0  0  0  0  0  0  0  0  0
    7.6760    0.5430   -0.6710 O   0  0  0  0  0  0  0  0  0  0  0  0
    6.7280    0.7410   -1.6440 C   0  0  0  0  0  0  0  0  0  0  0  0
    5.4390    0.7250   -1.3730 C   0  0  0  0  0  0  0  0  0  0  0  0
   -1.6280    2.2830   -0.5580 C   0  0  2  0  0  0  0  0  0  0  0  0
   -0.4420    2.9520   -0.1240 O   0  0  0  0  0  0  0  0  0  0  0  0
   -2.7000    2.5560    0.3420 C   0  0  0  0  0  0  0  0  0  0  0  0
   -2.5360    3.8960    0.7750 O   0  0  0  0  0  0  0  0  0  0  0  0
   -3.7510    2.0570    0.9110 O   0  0  0  0  0  0  0  0  0  0  0  0
   -4.4250    1.1460    1.6230 C   0  0  1  0  0  0  0  0  0  0  0  0
   -5.0850    1.8090    2.7840 C   0  0  0  0  0  0  0  0  0  0  0  0
   -4.8370    3.0010    3.0100 O   0  0  0  0  0  0  0  0  0  0  0  0
   -5.9670    1.1250    3.6120 O   0  0  0  0  0  0  0  0  0  0  0  0
   -5.5260    0.5310    0.7160 C   0  0  0  0  0  0  0  0  0  0  0  0
   -5.5700   -0.9080    0.8960 C   0  0  0  0  0  0  0  0  0  0  0  0
   -5.3920   -1.8900    0.0850 C   0  0  0  0  0  0  0  0  0  0  0  0
   -5.0800   -1.9000   -1.2980 N   0  0  0  0  0  0  0  0  0  0  0  0
   -3.9980   -1.2260   -1.9050 C   0  0  0  0  0  0  0  0  0  0  0  0
   -4.3010   -0.5320   -2.9440 O   0  0  0  0  0  0  0  0  0  0  0  0
  2  1  1  1
  2  3  1  0
  2  5  1  0
  2 38  1  0
  3  4  1  0
  5  6  1  0
  6  7  1  6
  6 25  1  0
  7  8  1  0
  8  9  2  0
  8 10  1  0
 10 11  1  0
 11 12  2  0
 11 13  1  0
 13 14  2  0
 13 24  1  0
 14 15  1  0
 14 21  1  0
 15 16  2  0
 15 17  1  0
 17 18  1  0
 18 19  2  0
 18 20  1  0
 21 20  1  6
 21 22  1  0
 22 23  1  0
 23 24  2  0
 25 26  1  1
 25 27  1  0
 27 28  2  0
 27 29  1  0
 29 30  1  0
 30 31  1  1
 30 34  1  0
 31 32  2  0
 31 33  1  0
 34 35  1  0
 35 36  2  0
 36 37  1  0
 37 38  1  0
 38 39  2  0
M  END
