
     RDKit          3D

 39 43  0  0  0  0  0  0  0  0999 V2000
   -1.7090   -5.5180   -2.9320 C   0  0  0  0  0  0  0  0  0  0  0  0
   -2.3310   -4.3710   -2.2240 C   0  0  0  0  0  0  0  0  0  0  0  0
   -3.2670   -4.6390   -1.2920 F   0  0  0  0  0  0  0  0  0  0  0  0
   -1.9350   -3.1550   -2.5440 C   0  0  0  0  0  0  0  0  0  0  0  0
   -2.5710   -2.0690   -1.8260 N   0  0  0  0  0  0  0  0  0  0  0  0
   -3.7800   -1.4560   -2.3360 C   0  0  0  0  0  0  0  0  0  0  0  0
   -4.5460   -0.8740   -1.1870 C   0  0  0  0  0  0  0  0  0  0  0  0
   -3.6420    0.1550   -0.4690 C   0  0  1  0  0  0  0  0  0  0  0  0
   -4.4640    0.8210    0.5400 C   0  0  0  0  0  0  0  0  0  0  0  0
   -5.4530    0.2180    1.0700 O   0  0  0  0  0  0  0  0  0  0  0  0
   -4.1900    2.1430    0.9580 N   0  0  0  0  0  0  0  0  0  0  0  0
   -3.1110    2.9040    0.3820 C   0  0  0  0  0  0  0  0  0  0  0  0
   -4.9890    2.7930    1.9920 C   0  0  1  0  0  0  0  0  0  0  0  0
   -6.4310    2.8710    1.5540 C   0  0  0  0  0  0  0  0  0  0  0  0
   -4.8820    2.0550    3.3080 C   0  0  0  0  0  0  0  0  0  0  0  0
   -2.4670   -0.5710    0.0570 C   0  0  0  0  0  0  0  0  0  0  0  0
   -1.9850   -1.6200   -0.6110 C   0  0  0  0  0  0  0  0  0  0  0  0
   -0.8050   -2.2920   -0.0220 C   0  0  0  0  0  0  0  0  0  0  0  0
    0.2140   -1.3340    0.5470 C   0  0  0  0  0  0  0  0  0  0  0  0
   -0.4030   -0.1520    0.9750 N   0  0  0  0  0  0  0  0  0  0  0  0
    0.1130    1.0960    0.5920 C   0  0  0  0  0  0  0  0  0  0  0  0
    1.5140    1.2190    1.0810 C   0  0  0  0  0  0  0  0  0  0  0  0
    1.9330    1.6330    2.2850 N   0  0  0  0  0  0  0  0  0  0  0  0
    3.2680    1.5890    2.2980 N   0  0  0  0  0  0  0  0  0  0  0  0
    3.7140    1.1500    1.1130 C   0  0  0  0  0  0  0  0  0  0  0  0
    5.1180    0.9650    0.7360 C   0  0  0  0  0  0  0  0  0  0  0  0
    5.4570    0.5070   -0.5180 C   0  0  0  0  0  0  0  0  0  0  0  0
    6.7890    0.3290   -0.8850 C   0  0  0  0  0  0  0  0  0  0  0  0
    7.1170   -0.1280   -2.1390 C   0  0  0  0  0  0  0  0  0  0  0  0
    8.4340   -0.3100   -2.5160 C   0  0  0  0  0  0  0  0  0  0  0  0
    8.7180   -0.7670   -3.7730 F   0  0  0  0  0  0  0  0  0  0  0  0
    9.4550   -0.0240   -1.6090 C   0  0  0  0  0  0  0  0  0  0  0  0
    9.1510    0.4350   -0.3460 C   0  0  0  0  0  0  0  0  0  0  0  0
    7.8170    0.6030   -0.0080 C   0  0  0  0  0  0  0  0  0  0  0  0
    7.4750    1.0610    1.2440 C   0  0  0  0  0  0  0  0  0  0  0  0
    6.1410    1.2410    1.6180 C   0  0  0  0  0  0  0  0  0  0  0  0
    5.8420    1.6880    2.8410 F   0  0  0  0  0  0  0  0  0  0  0  0
    2.6150    0.9290    0.3800 N   0  0  0  0  0  0  0  0  0  0  0  0
   -1.8030   -0.2160    1.3070 C   0  0  0  0  0  0  0  0  0  0  0  0
  1  2  1  0
  2  3  1  0
  2  4  2  3
  4  5  1  0
  5  6  1  0
  5 17  1  0
  6  7  1  0
  7  8  1  0
  8  9  1  1
  8 16  1  0
  9 10  2  0
  9 11  1  0
 11 12  1  0
 11 13  1  0
 13 14  1  6
 13 15  1  0
 16 17  2  0
 16 39  1  0
 17 18  1  0
 18 19  1  0
 19 20  1  0
 20 21  1  0
 20 39  1  0
 21 22  1  0
 22 23  1  0
 22 38  2  0
 23 24  1  0
 24 25  2  0
 25 26  1  0
 25 38  1  0
 26 27  2  0
 26 36  1  0
 27 28  1  0
 28 29  2  0
 28 34  1  0
 29 30  1  0
 30 31  1  0
 30 32  2  0
 32 33  1  0
 33 34  2  0
 34 35  1  0
 35 36  2  0
 36 37  1  0
M  CHG  1  38   1
M  END
