
     RDKit          3D

 38 40  0  0  0  0  0  0  0  0999 V2000
    9.0400    0.6040    2.3590 C   0  0  0  0  0  0  0  0  0  0  0  0
    9.2640    1.3240    1.1970 O   0  0  0  0  0  0  0  0  0  0  0  0
    9.6450    0.5030    0.1700 N   0  0  0  0  0  0  0  0  0  0  0  0
    9.3130    1.2600   -1.0400 C   0  0  2  0  0  0  0  0  0  0  0  0
    7.9470    1.5200   -1.0300 O   0  0  0  0  0  0  0  0  0  0  0  0
    7.2630    0.7980   -2.0000 C   0  0  0  0  0  0  0  0  0  0  0  0
    5.8120    0.7200   -2.2040 C   0  0  0  0  0  0  0  0  0  0  0  0
    5.3520    0.0160   -3.1400 O   0  0  0  0  0  0  0  0  0  0  0  0
    4.9080    1.3780   -1.4230 O   0  0  0  0  0  0  0  0  0  0  0  0
    3.5460    1.3750   -1.5220 N   0  0  0  0  0  0  0  0  0  0  0  0
    2.7020    0.9600   -0.4480 C   0  0  0  0  0  0  0  0  0  0  0  0
    3.3140    0.5960    0.5890 O   0  0  0  0  0  0  0  0  0  0  0  0
    1.2320    0.9370   -0.4750 C   0  0  2  0  0  0  0  0  0  0  0  0
    0.6530    2.3170   -0.7640 C   0  0  0  0  0  0  0  0  0  0  0  0
    0.6550    0.4600    0.7380 N   0  0  0  0  0  0  0  0  0  0  0  0
   -0.3110   -0.6050    0.6810 C   0  0  0  0  0  0  0  0  0  0  0  0
   -0.6100   -1.0660   -0.4630 O   0  0  0  0  0  0  0  0  0  0  0  0
   -0.9260   -1.1400    1.8990 C   0  0  1  0  0  0  0  0  0  0  0  0
   -0.2520   -0.5060    2.9810 O   0  0  0  0  0  0  0  0  0  0  0  0
    0.3680   -1.4570    3.7610 C   0  0  0  0  0  0  0  0  0  0  0  0
   -2.2470   -0.8730    2.0730 O   0  0  0  0  0  0  0  0  0  0  0  0
   -3.3580   -1.1930    1.3650 C   0  0  0  0  0  0  0  0  0  0  0  0
   -4.5360   -0.6680    1.7850 C   0  0  0  0  0  0  0  0  0  0  0  0
   -5.8170   -0.9310    1.1220 C   0  0  1  0  0  0  0  0  0  0  0  0
   -6.8430   -0.7550    2.0880 O   0  0  0  0  0  0  0  0  0  0  0  0
   -6.0910   -0.1010   -0.0910 C   0  0  1  0  0  0  0  0  0  0  0  0
   -7.4300   -0.5090   -0.6510 C   0  0  0  0  0  0  0  0  0  0  0  0
   -8.2280    0.6690   -1.1400 C   0  0  0  0  0  0  0  0  0  0  0  0
   -7.2920    1.6870   -1.7410 C   0  0  0  0  0  0  0  0  0  0  0  0
   -6.4660    2.2760   -0.6960 N   0  0  0  0  0  0  0  0  0  0  0  0
   -6.2120    1.3570    0.3660 C   0  0  0  0  0  0  0  0  0  0  0  0
   -5.8410   -2.4180    0.7850 C   0  0  0  0  0  0  0  0  0  0  0  0
   -4.6760   -2.8060   -0.0670 C   0  0  0  0  0  0  0  0  0  0  0  0
   -3.4060   -2.0660    0.1770 C   0  0  0  0  0  0  0  0  0  0  0  0
    8.1440    0.1660   -2.7380 C   0  0  0  0  0  0  0  0  0  0  0  0
    7.9370   -0.6860   -3.8390 O   0  0  0  0  0  0  0  0  0  0  0  0
    9.5290    0.4480   -2.2740 C   0  0  2  0  0  0  0  0  0  0  0  0
   10.1710   -0.7350   -1.9940 O   0  0  0  0  0  0  0  0  0  0  0  0
  1  2  1  0
  2  3  1  0
  4  3  1  1
  4  5  1  0
  4 37  1  0
  5  6  1  0
  6  7  1  0
  6 35  2  0
  7  8  2  0
  7  9  1  0
  9 10  1  0
 10 11  1  0
 11 12  2  0
 11 13  1  0
 13 14  1  1
 13 15  1  0
 15 16  1  0
 16 17  2  0
 16 18  1  0
 18 19  1  1
 18 21  1  0
 19 20  1  0
 21 22  1  0
 22 23  2  0
 22 34  1  0
 23 24  1  0
 24 25  1  1
 24 26  1  0
 24 32  1  0
 26 27  1  1
 26 31  1  0
 27 28  1  0
 28 29  1  0
 29 30  1  0
 30 31  1  0
 32 33  1  0
 33 34  1  0
 35 36  1  0
 35 37  1  0
 37 38  1  1
M  CHG  1  30   1
M  END
