
     RDKit          3D

 48 51  0  0  0  0  0  0  0  0999 V2000
    6.1870   -0.0760   -4.2240 C   0  0  0  0  0  0  0  0  0  0  0  0
    5.1050    0.4040   -3.3200 C   0  0  0  0  0  0  0  0  0  0  0  0
    5.3020    0.0530   -1.8550 C   0  0  2  0  0  0  0  0  0  0  0  0
    6.6150    0.6940   -1.4140 C   0  0  0  0  0  0  0  0  0  0  0  0
    6.7870    0.5920   -0.0320 O   0  0  0  0  0  0  0  0  0  0  0  0
    5.1990   -1.3250   -1.5530 N   0  0  0  0  0  0  0  0  0  0  0  0
    6.2800   -2.2410   -2.0600 C   0  0  0  0  0  0  0  0  0  0  0  0
    4.1810   -1.9230   -0.8150 C   0  0  0  0  0  0  0  0  0  0  0  0
    4.3070   -3.1920   -0.5010 O   0  0  0  0  0  0  0  0  0  0  0  0
    2.9710   -1.3540   -0.3220 C   0  0  0  0  0  0  0  0  0  0  0  0
    2.3390   -0.2710   -0.8640 C   0  0  0  0  0  0  0  0  0  0  0  0
    1.2140    0.3160   -0.2970 C   0  0  0  0  0  0  0  0  0  0  0  0
    0.6790   -0.1870    0.8600 C   0  0  0  0  0  0  0  0  0  0  0  0
   -0.5580    0.4880    1.4660 C   0  0  1  0  0  0  0  0  0  0  0  0
   -0.9440    1.5050    0.4720 C   0  0  0  0  0  0  0  0  0  0  0  0
   -1.6890    1.3120   -0.5020 O   0  0  0  0  0  0  0  0  0  0  0  0
   -0.3760    2.8190    0.6960 N   0  0  0  0  0  0  0  0  0  0  0  0
   -0.5880    3.8950   -0.1830 C   0  0  0  0  0  0  0  0  0  0  0  0
   -0.9540    3.7060   -1.4890 C   0  0  0  0  0  0  0  0  0  0  0  0
   -1.1070    4.7800   -2.3690 C   0  0  0  0  0  0  0  0  0  0  0  0
   -0.8740    6.0490   -1.8740 C   0  0  0  0  0  0  0  0  0  0  0  0
   -0.5080    6.2650   -0.5800 C   0  0  0  0  0  0  0  0  0  0  0  0
   -0.3590    5.2120    0.2800 C   0  0  0  0  0  0  0  0  0  0  0  0
    0.0260    5.4330    1.6670 C   0  0  0  0  0  0  0  0  0  0  0  0
    1.4490    5.3070    2.0470 C   0  0  0  0  0  0  0  0  0  0  0  0
    1.4830    5.5700    3.5750 C   0  0  0  0  0  0  0  0  0  0  0  0
    0.9720    6.8770    3.8750 C   0  0  0  0  0  0  0  0  0  0  0  0
    0.5830    7.9160    4.1160 N   0  0  0  0  0  0  0  0  0  0  0  0
   -1.4470   -0.6100    1.7160 N   0  0  0  0  0  0  0  0  0  0  0  0
   -1.6020   -0.9340    3.1550 C   0  0  0  0  0  0  0  0  0  0  0  0
   -2.8390   -0.2300    3.6290 C   0  0  0  0  0  0  0  0  0  0  0  0
   -2.1090   -1.3820    0.7440 C   0  0  0  0  0  0  0  0  0  0  0  0
   -1.9530   -1.1470   -0.4960 O   0  0  0  0  0  0  0  0  0  0  0  0
   -3.0020   -2.4780    1.0890 C   0  0  0  0  0  0  0  0  0  0  0  0
   -3.1230   -2.8450    2.2640 O   0  0  0  0  0  0  0  0  0  0  0  0
   -3.7650   -3.1600    0.0790 N   0  0  0  0  0  0  0  0  0  0  0  0
   -4.6050   -4.2490    0.3670 C   0  0  0  0  0  0  0  0  0  0  0  0
   -4.4210   -5.0870    1.4380 C   0  0  0  0  0  0  0  0  0  0  0  0
   -5.2160   -6.2080    1.6510 C   0  0  0  0  0  0  0  0  0  0  0  0
   -6.2130   -6.5060    0.7880 C   0  0  0  0  0  0  0  0  0  0  0  0
   -6.4110   -5.6720   -0.2950 C   0  0  0  0  0  0  0  0  0  0  0  0
   -7.4540   -5.9880   -1.1720 C   0  0  0  0  0  0  0  0  0  0  0  0
   -7.7210   -5.2080   -2.2640 C   0  0  0  0  0  0  0  0  0  0  0  0
   -6.9490   -4.0980   -2.4960 C   0  0  0  0  0  0  0  0  0  0  0  0
   -5.9190   -3.8010   -1.6130 C   0  0  0  0  0  0  0  0  0  0  0  0
   -5.6340   -4.5700   -0.5110 C   0  0  0  0  0  0  0  0  0  0  0  0
    1.2760   -1.2650    1.4260 C   0  0  0  0  0  0  0  0  0  0  0  0
    2.3840   -1.8390    0.8650 C   0  0  0  0  0  0  0  0  0  0  0  0
  1  2  1  0
  3  2  1  6
  3  4  1  0
  3  6  1  0
  4  5  1  0
  6  7  1  0
  6  8  1  0
  8  9  2  0
  8 10  1  0
 10 11  2  0
 10 48  1  0
 11 12  1  0
 12 13  2  0
 13 14  1  0
 13 47  1  0
 14 15  1  0
 14 29  1  6
 15 16  2  0
 15 17  1  0
 17 18  1  0
 18 19  2  0
 18 23  1  0
 19 20  1  0
 20 21  2  0
 21 22  1  0
 22 23  2  0
 23 24  1  0
 24 25  1  0
 25 26  1  0
 26 27  1  0
 27 28  3  0
 29 30  1  0
 29 32  1  0
 30 31  1  0
 32 33  2  0
 32 34  1  0
 34 35  2  0
 34 36  1  0
 36 37  1  0
 37 38  2  0
 37 46  1  0
 38 39  1  0
 39 40  2  0
 40 41  1  0
 41 42  2  0
 41 46  1  0
 42 43  1  0
 43 44  2  0
 44 45  1  0
 45 46  2  0
 47 48  2  0
M  END
