
     RDKit          3D

 48 53  0  0  0  0  0  0  0  0999 V2000
   -7.2760   -2.4930    0.5970 C   0  0  0  0  0  0  0  0  0  0  0  0
   -7.5940   -1.8720    1.9250 C   0  0  0  0  0  0  0  0  0  0  0  0
   -8.6920   -0.8950    1.8420 N   0  0  0  0  0  0  0  0  0  0  0  0
   -8.5020    0.2840    1.0810 C   0  0  0  0  0  0  0  0  0  0  0  0
   -7.2530    0.5310    0.4950 C   0  0  0  0  0  0  0  0  0  0  0  0
   -7.0190    1.6640   -0.2400 C   0  0  0  0  0  0  0  0  0  0  0  0
   -5.7320    1.9720   -0.8810 C   0  0  0  0  0  0  0  0  0  0  0  0
   -5.5710    3.1250   -1.3560 O   0  0  0  0  0  0  0  0  0  0  0  0
   -4.6780    1.0370   -0.9850 N   0  0  0  0  0  0  0  0  0  0  0  0
   -3.4130    1.2370   -1.5780 C   0  0  0  0  0  0  0  0  0  0  0  0
   -2.9530    2.3750   -2.1760 C   0  0  0  0  0  0  0  0  0  0  0  0
   -1.6750    2.4830   -2.7420 C   0  0  0  0  0  0  0  0  0  0  0  0
   -0.8170    1.4150   -2.7130 C   0  0  0  0  0  0  0  0  0  0  0  0
   -1.2530    0.2550   -2.1180 C   0  0  0  0  0  0  0  0  0  0  0  0
   -2.5230    0.1420   -1.5520 C   0  0  0  0  0  0  0  0  0  0  0  0
   -2.9400   -1.0000   -0.9760 O   0  0  0  0  0  0  0  0  0  0  0  0
   -2.2430   -2.1700   -0.8140 C   0  0  0  0  0  0  0  0  0  0  0  0
   -1.0850   -2.0570    0.1050 C   0  0  0  0  0  0  0  0  0  0  0  0
   -0.3670   -3.0980    0.3120 O   0  0  0  0  0  0  0  0  0  0  0  0
   -0.6790   -0.9070    0.8020 N   0  0  0  0  0  0  0  0  0  0  0  0
    0.4270   -0.8510    1.7000 C   0  0  0  0  0  0  0  0  0  0  0  0
    1.7040   -1.2130    1.0690 C   0  0  0  0  0  0  0  0  0  0  0  0
    1.9180   -1.4700   -0.2580 C   0  0  0  0  0  0  0  0  0  0  0  0
    3.2800   -1.7660   -0.3690 C   0  0  0  0  0  0  0  0  0  0  0  0
    3.8260   -1.6740    0.8870 C   0  0  0  0  0  0  0  0  0  0  0  0
    5.2660   -1.9170    1.2000 C   0  0  0  0  0  0  0  0  0  0  0  0
    6.0700   -0.6420    1.0930 C   0  0  0  0  0  0  0  0  0  0  0  0
    6.0270   -0.0550   -0.2050 N   0  0  2  0  0  0  0  0  0  0  0  0
    6.6900   -0.7690   -1.2400 C   0  0  0  0  0  0  0  0  0  0  0  0
    8.0960   -1.1770   -0.9060 C   0  0  0  0  0  0  0  0  0  0  0  0
    8.7940   -0.0850   -0.2270 C   0  0  0  0  0  0  0  0  0  0  0  0
    8.1520    1.0590    0.1330 C   0  0  0  0  0  0  0  0  0  0  0  0
    8.8170    2.1180    0.7700 C   0  0  0  0  0  0  0  0  0  0  0  0
   10.1540    2.0250    1.0530 C   0  0  0  0  0  0  0  0  0  0  0  0
   10.8280    0.8870    0.7050 C   0  0  0  0  0  0  0  0  0  0  0  0
   10.1590   -0.1590    0.0720 C   0  0  0  0  0  0  0  0  0  0  0  0
   10.8770   -1.3590   -0.2670 C   0  0  0  0  0  0  0  0  0  0  0  0
   12.2830   -1.4600   -0.0190 N   0  0  0  0  0  0  0  0  0  0  0  0
   10.3320   -2.3490   -0.7810 O   0  0  0  0  0  0  0  0  0  0  0  0
    6.7030    1.2520   -0.1130 C   0  0  0  0  0  0  0  0  0  0  0  0
    2.8740   -1.3510    1.6890 O   0  0  0  0  0  0  0  0  0  0  0  0
   -8.0770    2.5380   -0.3660 C   0  0  0  0  0  0  0  0  0  0  0  0
   -9.3260    2.3330    0.1970 C   0  0  0  0  0  0  0  0  0  0  0  0
  -10.3490    3.2380    0.0400 C   0  0  0  0  0  0  0  0  0  0  0  0
  -11.5930    3.0540    0.5880 C   0  0  0  0  0  0  0  0  0  0  0  0
  -11.8290    1.9190    1.3230 C   0  0  0  0  0  0  0  0  0  0  0  0
  -10.7950    0.9890    1.4910 C   0  0  0  0  0  0  0  0  0  0  0  0
   -9.5420    1.1660    0.9440 C   0  0  0  0  0  0  0  0  0  0  0  0
  1  2  1  0
  2  3  1  0
  3  4  1  0
  4  5  2  0
  4 48  1  0
  5  6  1  0
  6  7  1  0
  6 42  2  0
  7  8  2  0
  7  9  1  0
  9 10  1  0
 10 11  2  0
 10 15  1  0
 11 12  1  0
 12 13  2  0
 13 14  1  0
 14 15  2  0
 15 16  1  0
 16 17  1  0
 17 18  1  0
 18 19  2  0
 18 20  1  0
 20 21  1  0
 21 22  1  0
 22 23  2  0
 22 41  1  0
 23 24  1  0
 24 25  2  0
 25 26  1  0
 25 41  1  0
 26 27  1  0
 28 27  1  1
 28 29  1  0
 28 40  1  0
 29 30  1  0
 30 31  1  0
 31 32  2  0
 31 36  1  0
 32 33  1  0
 32 40  1  0
 33 34  2  0
 34 35  1  0
 35 36  2  0
 36 37  1  0
 37 38  1  0
 37 39  2  0
 42 43  1  0
 43 44  2  0
 43 48  1  0
 44 45  1  0
 45 46  2  0
 46 47  1  0
 47 48  2  0
M  CHG  1  28   1
M  END
