
     RDKit          3D

 48 53  0  0  0  0  0  0  0  0999 V2000
    3.3250    0.6680   -6.0010 C   0  0  0  0  0  0  0  0  0  0  0  0
    2.2360    0.4260   -4.9850 C   0  0  0  0  0  0  0  0  0  0  0  0
    1.3390   -0.5970   -5.1680 C   0  0  0  0  0  0  0  0  0  0  0  0
    0.3350   -0.8170   -4.2500 C   0  0  0  0  0  0  0  0  0  0  0  0
    0.1880   -0.0040   -3.0900 C   0  0  0  0  0  0  0  0  0  0  0  0
   -0.9500   -0.3000   -2.2260 C   0  0  0  0  0  0  0  0  0  0  0  0
   -1.7920    0.4780   -1.4860 C   0  0  0  0  0  0  0  0  0  0  0  0
   -2.8560   -0.2820   -0.9690 C   0  0  0  0  0  0  0  0  0  0  0  0
   -3.9720    0.2310   -0.1840 C   0  0  0  0  0  0  0  0  0  0  0  0
   -4.0010    1.4570    0.1600 O   0  0  0  0  0  0  0  0  0  0  0  0
   -5.0440   -0.5990    0.2090 N   0  0  0  0  0  0  0  0  0  0  0  0
   -5.1430   -2.0080   -0.0620 C   0  0  0  0  0  0  0  0  0  0  0  0
   -6.5320   -2.4330    0.2700 C   0  0  0  0  0  0  0  0  0  0  0  0
   -7.2300   -1.2710    0.8870 C   0  0  0  0  0  0  0  0  0  0  0  0
   -6.2520   -0.1470    0.9160 C   0  0  2  0  0  0  0  0  0  0  0  0
   -6.8310    1.0170    0.2010 C   0  0  0  0  0  0  0  0  0  0  0  0
   -7.8890    1.7860    0.7090 N   0  0  0  0  0  0  0  0  0  0  0  0
   -6.3200    1.3200   -0.9450 O   0  0  0  0  0  0  0  0  0  0  0  0
   -5.9420    0.2200    2.3270 C   0  0  1  0  0  0  0  0  0  0  0  0
   -7.2040    0.6720    3.0240 C   0  0  0  0  0  0  0  0  0  0  0  0
   -5.3730   -0.9290    3.1410 C   0  0  0  0  0  0  0  0  0  0  0  0
   -2.6180   -1.5120   -1.4170 N   0  0  0  0  0  0  0  0  0  0  0  0
   -1.5260   -1.5450   -2.1440 N   0  0  0  0  0  0  0  0  0  0  0  0
    1.0700    0.9870   -2.9150 C   0  0  0  0  0  0  0  0  0  0  0  0
    1.2000    1.7450   -1.6340 C   0  0  0  0  0  0  0  0  0  0  0  0
    2.2540    1.0770   -0.7970 C   0  0  0  0  0  0  0  0  0  0  0  0
    3.4250    1.1520   -1.3430 O   0  0  0  0  0  0  0  0  0  0  0  0
    2.1570    0.4320    0.4070 N   0  0  0  0  0  0  0  0  0  0  0  0
    0.9720    0.1610    1.1720 C   0  0  0  0  0  0  0  0  0  0  0  0
    1.0450   -1.2690    1.6610 C   0  0  0  0  0  0  0  0  0  0  0  0
   -0.0620   -1.7790    2.3000 C   0  0  0  0  0  0  0  0  0  0  0  0
   -0.0680   -3.0890    2.7900 C   0  0  0  0  0  0  0  0  0  0  0  0
    1.0370   -3.8850    2.6390 C   0  0  0  0  0  0  0  0  0  0  0  0
    2.1410   -3.3390    1.9880 C   0  0  0  0  0  0  0  0  0  0  0  0
    2.1560   -2.0640    1.5060 C   0  0  0  0  0  0  0  0  0  0  0  0
    3.3930   -1.5580    0.8060 C   0  0  0  0  0  0  0  0  0  0  0  0
    3.3960   -0.0760    1.0280 C   0  0  1  0  0  0  0  0  0  0  0  0
    4.5760    0.6380    0.5530 C   0  0  0  0  0  0  0  0  0  0  0  0
    5.5100    0.0170    0.0240 O   0  0  0  0  0  0  0  0  0  0  0  0
    4.6520    2.0080    0.6920 O   0  0  0  0  0  0  0  0  0  0  0  0
    5.7060    2.8240    0.2690 C   0  0  0  0  0  0  0  0  0  0  0  0
    7.0260    2.4800    0.8230 C   0  0  0  0  0  0  0  0  0  0  0  0
    8.0410    2.1380   -0.0840 C   0  0  0  0  0  0  0  0  0  0  0  0
    9.3130    1.7980    0.3430 C   0  0  0  0  0  0  0  0  0  0  0  0
    9.6250    1.7840    1.6830 C   0  0  0  0  0  0  0  0  0  0  0  0
    8.6250    2.1210    2.5790 C   0  0  0  0  0  0  0  0  0  0  0  0
    7.3400    2.4650    2.1550 C   0  0  0  0  0  0  0  0  0  0  0  0
    2.1070    1.2060   -3.8790 C   0  0  0  0  0  0  0  0  0  0  0  0
  1  2  1  0
  2  3  2  0
  2 48  1  0
  3  4  1  0
  4  5  2  0
  5  6  1  0
  5 24  1  0
  6  7  2  0
  6 23  1  0
  7  8  1  0
  8  9  1  0
  8 22  2  0
  9 10  2  0
  9 11  1  0
 11 12  1  0
 11 15  1  0
 12 13  1  0
 13 14  1  0
 14 15  1  0
 15 16  1  6
 15 19  1  0
 16 17  1  0
 16 18  2  0
 19 20  1  1
 19 21  1  0
 22 23  1  0
 24 25  1  0
 24 48  2  0
 25 26  1  0
 26 27  2  0
 26 28  1  0
 28 29  1  0
 28 37  1  0
 29 30  1  0
 30 31  2  0
 30 35  1  0
 31 32  1  0
 32 33  2  0
 33 34  1  0
 34 35  2  0
 35 36  1  0
 36 37  1  0
 37 38  1  6
 38 39  2  0
 38 40  1  0
 40 41  1  0
 41 42  1  0
 42 43  2  0
 42 47  1  0
 43 44  1  0
 44 45  2  0
 45 46  1  0
 46 47  2  0
M  END
