
     RDKit          3D

 40 45  0  0  0  0  0  0  0  0999 V2000
    5.1730    0.1930   -2.9140 C   0  0  0  0  0  0  0  0  0  0  0  0
    4.4570   -0.2760   -1.6550 C   0  0  0  0  0  0  0  0  0  0  0  0
    3.1530   -0.4570   -1.7630 C   0  0  0  0  0  0  0  0  0  0  0  0
    2.4190   -0.9370   -0.5940 C   0  0  2  0  0  0  0  0  0  0  0  0
    1.0130   -0.9600   -0.6640 N   0  0  0  0  0  0  0  0  0  0  0  0
    0.2750    0.0510   -0.0120 C   0  0  1  0  0  0  0  0  0  0  0  0
   -1.1510   -0.3700    0.2960 C   0  0  2  0  0  0  0  0  0  0  0  0
   -1.7950   -1.2280   -0.6810 C   0  0  0  0  0  0  0  0  0  0  0  0
   -1.6760   -1.1100   -2.0500 C   0  0  0  0  0  0  0  0  0  0  0  0
   -2.3640   -1.9140   -2.9550 C   0  0  0  0  0  0  0  0  0  0  0  0
   -3.2210   -2.8890   -2.4930 C   0  0  0  0  0  0  0  0  0  0  0  0
   -3.8910   -3.6730   -3.3830 F   0  0  0  0  0  0  0  0  0  0  0  0
   -3.3690   -3.0390   -1.1440 C   0  0  0  0  0  0  0  0  0  0  0  0
   -2.6870   -2.2470   -0.2870 C   0  0  0  0  0  0  0  0  0  0  0  0
   -2.8340   -2.5130    1.1660 C   0  0  1  0  0  0  0  0  0  0  0  0
   -3.6500   -1.6060    1.8100 O   0  0  0  0  0  0  0  0  0  0  0  0
   -3.4860   -3.8800    1.3960 C   0  0  0  0  0  0  0  0  0  0  0  0
   -2.7060   -4.9210    0.7450 N   0  0  0  0  0  0  0  0  0  0  0  0
   -1.9300    0.9560    0.5270 C   0  0  2  0  0  0  0  0  0  0  0  0
   -1.7670    1.9210   -0.5620 C   0  0  0  0  0  0  0  0  0  0  0  0
   -2.5380    3.1970   -0.3560 C   0  0  0  0  0  0  0  0  0  0  0  0
   -3.3460    3.4440    0.6370 C   0  0  0  0  0  0  0  0  0  0  0  0
   -4.0970    4.7220    0.8150 C   0  0  0  0  0  0  0  0  0  0  0  0
   -3.7450    5.6940   -0.1280 O   0  0  0  0  0  0  0  0  0  0  0  0
   -2.9040    5.4350   -1.1730 C   0  0  0  0  0  0  0  0  0  0  0  0
   -2.3180    4.2980   -1.3270 C   0  0  0  0  0  0  0  0  0  0  0  0
   -1.2380    3.9830   -2.6620 Cl  0  0  0  0  0  0  0  0  0  0  0  0
   -1.2880    1.5330    1.7860 C   0  0  0  0  0  0  0  0  0  0  0  0
   -0.1400    0.7570    2.3250 C   0  0  0  0  0  0  0  0  0  0  0  0
    0.8070    0.2630    1.3670 N   0  0  0  0  0  0  0  0  0  0  0  0
    2.1510   -0.0320    1.7120 C   0  0  0  0  0  0  0  0  0  0  0  0
    2.4910    0.1070    2.8840 O   0  0  0  0  0  0  0  0  0  0  0  0
    2.9950   -0.4700    0.6230 N   0  0  0  0  0  0  0  0  0  0  0  0
    4.3950   -0.3560    0.7600 C   0  0  0  0  0  0  0  0  0  0  0  0
    4.9700   -0.3700    1.9980 C   0  0  0  0  0  0  0  0  0  0  0  0
    6.3500   -0.2570    2.0910 C   0  0  0  0  0  0  0  0  0  0  0  0
    7.1130   -0.1360    0.9430 C   0  0  0  0  0  0  0  0  0  0  0  0
    8.8500    0.0040    1.1150 Cl  0  0  0  0  0  0  0  0  0  0  0  0
    6.5430   -0.1240   -0.3110 C   0  0  0  0  0  0  0  0  0  0  0  0
    5.1840   -0.2350   -0.4010 C   0  0  0  0  0  0  0  0  0  0  0  0
  1  2  1  0
  2  3  2  0
  2 40  1  0
  3  4  1  0
  4  5  1  6
  4 33  1  0
  6  5  1  1
  6  7  1  0
  6 30  1  0
  7  8  1  6
  7 19  1  0
  8  9  2  0
  8 14  1  0
  9 10  1  0
 10 11  2  0
 11 12  1  0
 11 13  1  0
 13 14  2  0
 14 15  1  0
 15 16  1  6
 15 17  1  0
 17 18  1  0
 19 20  1  6
 19 28  1  0
 20 21  1  0
 21 22  2  0
 21 26  1  0
 22 23  1  0
 23 24  1  0
 24 25  1  0
 25 26  2  0
 26 27  1  0
 28 29  1  0
 29 30  1  0
 30 31  1  0
 31 32  2  0
 31 33  1  0
 33 34  1  0
 34 35  2  0
 34 40  1  0
 35 36  1  0
 36 37  2  0
 37 38  1  0
 37 39  1  0
 39 40  2  0
M  END
