
     RDKit          3D

 40 44  0  0  0  0  0  0  0  0999 V2000
   -3.9220    0.3720    1.4860 C   0  0  0  0  0  0  0  0  0  0  0  0
   -4.2580   -0.7930    1.0080 C   0  0  0  0  0  0  0  0  0  0  0  0
   -4.0560   -1.3700   -0.2690 C   0  0  0  0  0  0  0  0  0  0  0  0
   -4.5570   -2.6170   -0.5230 C   0  0  0  0  0  0  0  0  0  0  0  0
   -4.4240   -3.3400   -1.8370 C   0  0  0  0  0  0  0  0  0  0  0  0
   -4.5510   -2.6890   -3.0440 C   0  0  0  0  0  0  0  0  0  0  0  0
   -4.8280   -1.2220   -3.1010 C   0  0  0  0  0  0  0  0  0  0  0  0
   -4.2120   -0.2750   -2.2800 C   0  0  0  0  0  0  0  0  0  0  0  0
   -4.7300    1.0620   -2.5490 C   0  0  0  0  0  0  0  0  0  0  0  0
   -4.3040    2.0420   -1.7870 C   0  0  0  0  0  0  0  0  0  0  0  0
   -5.8610    1.3370   -3.8040 Cl  0  0  0  0  0  0  0  0  0  0  0  0
   -3.2110   -0.6950   -1.3510 C   0  0  1  0  0  0  0  0  0  0  0  0
   -2.0460   -0.0410   -0.8450 C   0  0  0  0  0  0  0  0  0  0  0  0
   -1.3270    0.9550   -1.2280 C   0  0  0  0  0  0  0  0  0  0  0  0
   -1.3910    1.8120   -2.3680 N   0  0  0  0  0  0  0  0  0  0  0  0
   -0.4030    1.3210   -0.0870 C   0  0  2  0  0  0  0  0  0  0  0  0
    0.6620    2.1860   -0.4000 N   0  0  0  0  0  0  0  0  0  0  0  0
    1.3420    2.8920    0.6720 C   0  0  0  0  0  0  0  0  0  0  0  0
    0.6810    3.2180    1.8370 C   0  0  0  0  0  0  0  0  0  0  0  0
    1.3850    3.8850    2.8560 C   0  0  0  0  0  0  0  0  0  0  0  0
    0.6840    4.1870    3.9750 F   0  0  0  0  0  0  0  0  0  0  0  0
    2.6970    4.2010    2.6830 C   0  0  0  0  0  0  0  0  0  0  0  0
    3.3480    3.8670    1.5070 C   0  0  0  0  0  0  0  0  0  0  0  0
    5.0250    4.3010    1.3080 Cl  0  0  0  0  0  0  0  0  0  0  0  0
    2.6670    3.2060    0.4870 C   0  0  0  0  0  0  0  0  0  0  0  0
   -0.1040    0.0480    0.4920 N   0  0  0  0  0  0  0  0  0  0  0  0
    1.0500   -0.3930    1.2090 C   0  0  0  0  0  0  0  0  0  0  0  0
    2.0300   -1.3060    0.5880 C   0  0  2  0  0  0  0  0  0  0  0  0
    2.9770   -1.6230    1.5770 O   0  0  0  0  0  0  0  0  0  0  0  0
    4.2280   -2.1220    1.4570 C   0  0  0  0  0  0  0  0  0  0  0  0
    4.9180   -2.7560    2.4640 C   0  0  0  0  0  0  0  0  0  0  0  0
    6.1900   -3.2250    2.2220 C   0  0  0  0  0  0  0  0  0  0  0  0
    6.8200   -3.0730    0.9640 C   0  0  0  0  0  0  0  0  0  0  0  0
    6.0990   -2.4450    0.0210 C   0  0  0  0  0  0  0  0  0  0  0  0
    4.8500   -1.9560    0.1710 C   0  0  0  0  0  0  0  0  0  0  0  0
    4.1060   -1.3160   -0.8040 N   0  0  0  0  0  0  0  0  0  0  0  0
    2.7890   -0.8310   -0.6000 C   0  0  0  0  0  0  0  0  0  0  0  0
    2.2800   -0.0210   -1.4170 O   0  0  0  0  0  0  0  0  0  0  0  0
   -1.3070   -0.6990    0.3060 C   0  0  0  0  0  0  0  0  0  0  0  0
   -1.6250   -1.6900    0.9880 O   0  0  0  0  0  0  0  0  0  0  0  0
  1  2  2  0
  2  3  1  0
  3  4  2  0
  3 12  1  0
  4  5  1  0
  5  6  2  0
  6  7  1  0
  7  8  2  0
  8  9  1  0
  8 12  1  0
  9 10  2  0
  9 11  1  0
 12 13  1  1
 13 14  2  0
 13 39  1  0
 14 15  1  0
 14 16  1  0
 16 17  1  6
 16 26  1  0
 17 18  1  0
 18 19  2  0
 18 25  1  0
 19 20  1  0
 20 21  1  0
 20 22  2  0
 22 23  1  0
 23 24  1  0
 23 25  2  0
 26 27  1  0
 26 39  1  0
 28 27  1  1
 28 29  1  0
 28 37  1  0
 29 30  1  0
 30 31  2  0
 30 35  1  0
 31 32  1  0
 32 33  2  0
 33 34  1  0
 34 35  2  0
 35 36  1  0
 36 37  1  0
 37 38  2  0
 39 40  2  0
M  END
