
     RDKit          3D

 40 43  0  0  0  0  0  0  0  0999 V2000
    8.4480   -1.4630    3.3470 C   0  0  0  0  0  0  0  0  0  0  0  0
    6.9930   -1.6100    3.1570 C   0  0  0  0  0  0  0  0  0  0  0  0
    6.3520   -0.7520    2.3280 C   0  0  0  0  0  0  0  0  0  0  0  0
    4.9520   -0.9130    2.1630 C   0  0  0  0  0  0  0  0  0  0  0  0
    4.1020   -0.2570    1.4480 C   0  0  0  0  0  0  0  0  0  0  0  0
    4.2840    0.8990    0.5550 C   0  0  0  0  0  0  0  0  0  0  0  0
    5.3900    1.6440    0.2020 C   0  0  0  0  0  0  0  0  0  0  0  0
    5.3350    2.7290   -0.6700 C   0  0  0  0  0  0  0  0  0  0  0  0
    6.5880    3.4980   -1.0000 C   0  0  0  0  0  0  0  0  0  0  0  0
    4.1150    3.0590   -1.1950 C   0  0  0  0  0  0  0  0  0  0  0  0
    2.9830    2.3470   -0.8770 C   0  0  0  0  0  0  0  0  0  0  0  0
    1.7520    2.7350   -1.4570 N   0  0  0  0  0  0  0  0  0  0  0  0
    3.0600    1.2740   -0.0090 C   0  0  0  0  0  0  0  0  0  0  0  0
    2.0590    0.3750    0.4950 N   0  0  0  0  0  0  0  0  0  0  0  0
    0.6630    0.2680    0.1780 C   0  0  0  0  0  0  0  0  0  0  0  0
    0.1590   -0.9670    0.0470 C   0  0  0  0  0  0  0  0  0  0  0  0
   -1.1780   -1.1920   -0.2810 N   0  0  0  0  0  0  0  0  0  0  0  0
   -2.1770   -0.2200   -0.5260 C   0  0  0  0  0  0  0  0  0  0  0  0
   -1.9090    0.9850   -0.4520 O   0  0  0  0  0  0  0  0  0  0  0  0
   -3.5570   -0.6220   -0.8750 C   0  0  0  0  0  0  0  0  0  0  0  0
   -3.7870   -1.8510   -0.9340 O   0  0  0  0  0  0  0  0  0  0  0  0
   -4.5710    0.3310   -1.1330 N   0  0  0  0  0  0  0  0  0  0  0  0
   -5.9310   -0.0260   -1.4850 C   0  0  2  0  0  0  0  0  0  0  0  0
   -6.1700    0.5260   -2.8640 C   0  0  0  0  0  0  0  0  0  0  0  0
   -5.3110   -0.0120   -3.7770 O   0  0  0  0  0  0  0  0  0  0  0  0
   -5.4300   -1.3690   -3.9920 C   0  0  0  0  0  0  0  0  0  0  0  0
   -6.8370    0.5870   -0.4860 C   0  0  0  0  0  0  0  0  0  0  0  0
   -7.7530    1.5210   -0.9230 C   0  0  0  0  0  0  0  0  0  0  0  0
   -8.6480    2.1410   -0.0780 C   0  0  0  0  0  0  0  0  0  0  0  0
   -9.8230    3.3190   -0.6300 Cl  0  0  0  0  0  0  0  0  0  0  0  0
   -8.6590    1.8400    1.2730 C   0  0  0  0  0  0  0  0  0  0  0  0
   -9.5390    2.4410    2.1210 F   0  0  0  0  0  0  0  0  0  0  0  0
   -7.7480    0.9100    1.7170 C   0  0  0  0  0  0  0  0  0  0  0  0
   -6.8700    0.3080    0.8570 C   0  0  0  0  0  0  0  0  0  0  0  0
   -5.7640   -0.8540    1.5130 Cl  0  0  0  0  0  0  0  0  0  0  0  0
    1.0220   -2.0730    0.4460 C   0  0  0  0  0  0  0  0  0  0  0  0
    0.6130   -3.5090    0.3370 C   0  0  0  0  0  0  0  0  0  0  0  0
    2.2590   -1.9140    0.9600 C   0  0  0  0  0  0  0  0  0  0  0  0
    3.0800   -3.0950    1.3050 C   0  0  0  0  0  0  0  0  0  0  0  0
    2.6430   -0.5580    1.3850 C   0  0  1  0  0  0  0  0  0  0  0  0
  1  2  1  0
  2  3  2  3
  3  4  1  0
  4  5  2  3
  5  6  1  0
 40  5  1  6
  6  7  2  0
  6 13  1  0
  7  8  1  0
  8  9  1  0
  8 10  2  0
 10 11  1  0
 11 12  1  0
 11 13  2  0
 13 14  1  0
 14 15  1  0
 14 40  1  0
 15 16  2  0
 16 17  1  0
 16 36  1  0
 17 18  1  0
 18 19  2  0
 18 20  1  0
 20 21  2  0
 20 22  1  0
 22 23  1  0
 23 24  1  6
 23 27  1  0
 24 25  1  0
 25 26  1  0
 27 28  2  0
 27 34  1  0
 28 29  1  0
 29 30  1  0
 29 31  2  0
 31 32  1  0
 31 33  1  0
 33 34  2  0
 34 35  1  0
 36 37  1  0
 36 38  2  0
 38 39  1  0
 38 40  1  0
M  END
