
     RDKit          3D

 23 25  0  0  0  0  0  0  0  0999 V2000
    2.7560    2.1720   -1.3740 C   0  0  0  0  0  0  0  0  0  0  0  0
    3.2090    1.1530   -1.9860 C   0  0  0  0  0  0  0  0  0  0  0  0
    2.7770   -0.2720   -1.9080 C   0  0  0  0  0  0  0  0  0  0  0  0
    3.4160   -1.1440   -2.6380 C   0  0  0  0  0  0  0  0  0  0  0  0
    3.2980   -2.5640   -2.8370 C   0  0  0  0  0  0  0  0  0  0  0  0
    1.7190   -0.6150   -0.9730 C   0  0  0  0  0  0  0  0  0  0  0  0
    1.4970   -1.8890   -0.5240 C   0  0  0  0  0  0  0  0  0  0  0  0
    0.4210   -2.1030    0.2820 N   0  0  0  0  0  0  0  0  0  0  0  0
   -0.4190   -1.1030    0.6450 C   0  0  0  0  0  0  0  0  0  0  0  0
   -1.5110   -1.4640    1.4670 N   0  0  0  0  0  0  0  0  0  0  0  0
   -2.8750   -1.4420    1.0000 C   0  0  0  0  0  0  0  0  0  0  0  0
   -3.5860   -2.7400    1.4100 C   0  0  0  0  0  0  0  0  0  0  0  0
   -2.6700   -3.6030    1.9970 O   0  0  0  0  0  0  0  0  0  0  0  0
   -2.2480   -3.0020    3.2080 C   0  0  0  0  0  0  0  0  0  0  0  0
   -1.2490   -1.8960    2.8490 C   0  0  0  0  0  0  0  0  0  0  0  0
   -0.2070    0.1850    0.2020 C   0  0  0  0  0  0  0  0  0  0  0  0
   -1.0620    1.2570    0.5890 N   0  0  0  0  0  0  0  0  0  0  0  0
   -0.8670    2.5890    0.1350 C   0  0  0  0  0  0  0  0  0  0  0  0
   -0.7890    3.6070    0.9750 C   0  0  0  0  0  0  0  0  0  0  0  0
   -0.5870    4.8520    0.2120 C   0  0  0  0  0  0  0  0  0  0  0  0
   -0.5570    4.4210   -1.2020 C   0  0  0  0  0  0  0  0  0  0  0  0
   -0.7200    3.1100   -1.2190 C   0  0  0  0  0  0  0  0  0  0  0  0
    0.8450    0.3760   -0.5840 N   0  0  0  0  0  0  0  0  0  0  0  0
  1  2  2  0
  2  3  1  0
  3  4  2  3
  3  6  1  0
  4  5  1  0
  6  7  2  0
  6 23  1  0
  7  8  1  0
  8  9  2  0
  9 10  1  0
  9 16  1  0
 10 11  1  0
 10 15  1  0
 11 12  1  0
 12 13  1  0
 13 14  1  0
 14 15  1  0
 16 17  1  0
 16 23  2  0
 17 18  1  0
 18 19  2  0
 18 22  1  0
 19 20  1  0
 20 21  1  0
 21 22  2  0
M  END
