
     RDKit          3D

 23 26  0  0  0  0  0  0  0  0999 V2000
   -6.0920    0.6240    0.7650 C   0  0  0  0  0  0  0  0  0  0  0  0
   -4.6170    0.5760    0.9330 C   0  0  0  0  0  0  0  0  0  0  0  0
   -3.8430    0.7080   -0.1020 C   0  0  0  0  0  0  0  0  0  0  0  0
   -4.1140    0.9020   -1.4650 O   0  0  0  0  0  0  0  0  0  0  0  0
   -3.1860    1.8660   -1.9830 C   0  0  0  0  0  0  0  0  0  0  0  0
   -2.0260    1.8070   -1.0390 C   0  0  0  0  0  0  0  0  0  0  0  0
   -2.3940    0.6820   -0.0500 C   0  0  0  0  0  0  0  0  0  0  0  0
   -1.4910   -0.0230    0.5370 C   0  0  0  0  0  0  0  0  0  0  0  0
   -0.0820    0.3390    0.2930 N   0  0  0  0  0  0  0  0  0  0  0  0
    0.6990   -0.4340   -0.6140 C   0  0  0  0  0  0  0  0  0  0  0  0
    2.0640    0.0890   -0.7750 C   0  0  0  0  0  0  0  0  0  0  0  0
    2.5130    0.9920   -1.6630 N   0  0  0  0  0  0  0  0  0  0  0  0
    3.8070    1.1980   -1.4840 N   0  0  0  0  0  0  0  0  0  0  0  0
    4.2210    0.4280   -0.4720 C   0  0  0  0  0  0  0  0  0  0  0  0
    5.4830    0.2880    0.0910 C   0  0  0  0  0  0  0  0  0  0  0  0
    6.6590    1.0630   -0.4170 C   0  0  0  0  0  0  0  0  0  0  0  0
    5.6180   -0.5940    1.1420 C   0  0  0  0  0  0  0  0  0  0  0  0
    4.5180   -1.2950    1.5900 C   0  0  0  0  0  0  0  0  0  0  0  0
    3.2810   -1.1150    0.9890 C   0  0  0  0  0  0  0  0  0  0  0  0
    3.1490   -0.2560   -0.0340 N   0  0  0  0  0  0  0  0  0  0  0  0
   -1.6010   -1.2320    1.3490 C   0  0  2  0  0  0  0  0  0  0  0  0
   -1.6480   -2.5770    0.7230 C   0  0  0  0  0  0  0  0  0  0  0  0
   -2.7800   -2.0360    1.6140 C   0  0  0  0  0  0  0  0  0  0  0  0
  1  2  1  0
  2  3  2  3
  3  4  1  0
  3  7  1  0
  4  5  1  0
  5  6  1  0
  6  7  1  0
  7  8  2  3
  8  9  1  0
 21  8  1  6
  9 10  1  0
 10 11  1  0
 11 12  2  0
 11 20  1  0
 12 13  1  0
 13 14  2  0
 14 15  1  0
 14 20  1  0
 15 16  1  0
 15 17  2  0
 17 18  1  0
 18 19  2  0
 19 20  1  0
 21 22  1  0
 21 23  1  0
 22 23  1  0
M  END
