
     RDKit          3D

 23 26  0  0  0  0  0  0  0  0999 V2000
    6.3540   -2.4870   -0.9720 C   0  0  0  0  0  0  0  0  0  0  0  0
    5.3410   -1.6730   -0.7290 C   0  0  0  0  0  0  0  0  0  0  0  0
    4.0770   -2.0180   -0.4850 N   0  0  0  0  0  0  0  0  0  0  0  0
    3.3110   -0.9340   -0.2810 C   0  0  0  0  0  0  0  0  0  0  0  0
    2.0050   -0.7800   -0.0070 N   0  0  0  0  0  0  0  0  0  0  0  0
    1.4240    0.4130    0.1640 C   0  0  0  0  0  0  0  0  0  0  0  0
    0.0510    0.5210    0.4490 N   0  0  0  0  0  0  0  0  0  0  0  0
   -0.7490   -0.6820    0.5600 C   0  0  0  0  0  0  0  0  0  0  0  0
   -2.1230   -0.3320   -0.0200 C   0  0  0  0  0  0  0  0  0  0  0  0
   -2.7580    0.5590    0.8950 N   0  0  0  0  0  0  0  0  0  0  0  0
   -4.0180    1.0780    0.4640 C   0  0  0  0  0  0  0  0  0  0  0  0
   -5.0410    0.0230    0.2160 C   0  0  0  0  0  0  0  0  0  0  0  0
   -6.3140    0.3000   -0.2120 C   0  0  0  0  0  0  0  0  0  0  0  0
   -6.9590   -0.9060   -0.3280 C   0  0  0  0  0  0  0  0  0  0  0  0
   -6.0520   -1.8750    0.0350 C   0  0  0  0  0  0  0  0  0  0  0  0
   -4.9460   -1.2670    0.3430 O   0  0  0  0  0  0  0  0  0  0  0  0
   -1.9300    1.6040    1.4050 C   0  0  0  0  0  0  0  0  0  0  0  0
   -0.6370    1.7780    0.6460 C   0  0  0  0  0  0  0  0  0  0  0  0
    2.2420    1.5340    0.0460 C   0  0  0  0  0  0  0  0  0  0  0  0
    3.5890    1.4450   -0.2330 C   0  0  0  0  0  0  0  0  0  0  0  0
    4.1310    0.1660   -0.4000 C   0  0  0  0  0  0  0  0  0  0  0  0
    5.4010   -0.2860   -0.6800 C   0  0  0  0  0  0  0  0  0  0  0  0
    6.4790    0.4530   -0.8680 C   0  0  0  0  0  0  0  0  0  0  0  0
  1  2  2  0
  2  3  1  0
  2 22  1  0
  3  4  1  0
  4  5  2  0
  4 21  1  0
  5  6  1  0
  6  7  1  0
  6 19  2  0
  7  8  1  0
  7 18  1  0
  8  9  1  0
  9 10  1  0
 10 11  1  0
 10 17  1  0
 11 12  1  0
 12 13  2  0
 12 16  1  0
 13 14  1  0
 14 15  2  0
 15 16  1  0
 17 18  1  0
 19 20  1  0
 20 21  2  0
 21 22  1  0
 22 23  2  0
M  END
