
     RDKit          3D

 23 25  0  0  0  0  0  0  0  0999 V2000
   -6.9310    2.1590    0.9960 C   0  0  0  0  0  0  0  0  0  0  0  0
   -5.7940    1.2910    0.5310 C   0  0  0  0  0  0  0  0  0  0  0  0
   -5.7080    0.5510   -0.6090 C   0  0  0  0  0  0  0  0  0  0  0  0
   -4.5110   -0.0550   -0.5930 N   0  0  0  0  0  0  0  0  0  0  0  0
   -4.0100   -0.9450   -1.6280 C   0  0  0  0  0  0  0  0  0  0  0  0
   -3.8260    0.2770    0.5280 C   0  0  0  0  0  0  0  0  0  0  0  0
   -2.4690   -0.1820    0.9180 C   0  0  0  0  0  0  0  0  0  0  0  0
   -1.4750    0.8060    0.3480 C   0  0  0  0  0  0  0  0  0  0  0  0
   -0.1060    0.4040    0.7010 N   0  0  0  0  0  0  0  0  0  0  0  0
    0.4780    0.8370    1.8350 C   0  0  0  0  0  0  0  0  0  0  0  0
    1.7650    0.4400    2.1380 C   0  0  0  0  0  0  0  0  0  0  0  0
    2.4970   -0.4030    1.3080 C   0  0  0  0  0  0  0  0  0  0  0  0
    1.8780   -0.8380    0.1430 C   0  0  0  0  0  0  0  0  0  0  0  0
    2.5320   -1.7170   -0.7760 N   0  0  0  0  0  0  0  0  0  0  0  0
    3.8970   -2.1530   -0.5760 C   0  0  0  0  0  0  0  0  0  0  0  0
    4.8210   -0.9730   -0.7100 C   0  0  0  0  0  0  0  0  0  0  0  0
    4.4700    0.2650   -0.9880 C   0  0  0  0  0  0  0  0  0  0  0  0
    5.6800    1.0890   -1.0210 C   0  0  0  0  0  0  0  0  0  0  0  0
    6.7800    0.1540   -0.7230 C   0  0  0  0  0  0  0  0  0  0  0  0
    6.2680   -1.0420   -0.5440 C   0  0  0  0  0  0  0  0  0  0  0  0
    0.6070   -0.4100   -0.0960 C   0  0  0  0  0  0  0  0  0  0  0  0
    0.0270   -0.7990   -1.1550 O   0  0  0  0  0  0  0  0  0  0  0  0
   -4.6420    1.1080    1.2010 N   0  0  0  0  0  0  0  0  0  0  0  0
  1  2  1  0
  2  3  2  0
  2 23  1  0
  3  4  1  0
  4  5  1  0
  4  6  1  0
  6  7  1  0
  6 23  2  0
  7  8  1  0
  8  9  1  0
  9 10  1  0
  9 21  1  0
 10 11  2  0
 11 12  1  0
 12 13  2  0
 13 14  1  0
 13 21  1  0
 14 15  1  0
 15 16  1  0
 16 17  2  0
 16 20  1  0
 17 18  1  0
 18 19  1  0
 19 20  2  0
 21 22  2  0
M  END
