
     RDKit          3D

 20 22  0  0  0  0  0  0  0  0999 V2000
   -5.1930    1.0430   -0.0820 C   0  0  0  0  0  0  0  0  0  0  0  0
   -4.0730    0.1910    0.4240 C   0  0  0  0  0  0  0  0  0  0  0  0
   -4.2290   -0.6050    1.5330 C   0  0  0  0  0  0  0  0  0  0  0  0
   -3.2450   -1.3980    2.0180 N   0  0  0  0  0  0  0  0  0  0  0  0
   -2.0460   -1.4280    1.4110 C   0  0  0  0  0  0  0  0  0  0  0  0
   -1.0410   -2.2070    1.9550 C   0  0  0  0  0  0  0  0  0  0  0  0
    0.2190   -2.2050    1.3560 C   0  0  0  0  0  0  0  0  0  0  0  0
    0.4210   -1.4280    0.2450 C   0  0  0  0  0  0  0  0  0  0  0  0
    1.7160   -1.3240   -0.3280 N   0  0  0  0  0  0  0  0  0  0  0  0
    2.7780   -0.8150    0.5430 C   0  0  0  0  0  0  0  0  0  0  0  0
    3.4900    0.3400   -0.1220 C   0  0  1  0  0  0  0  0  0  0  0  0
    4.4420    1.0080    0.8230 C   0  0  0  0  0  0  0  0  0  0  0  0
    5.6640    1.2090   -0.0980 C   0  0  0  0  0  0  0  0  0  0  0  0
    4.9640    1.1630   -1.4500 C   0  0  0  0  0  0  0  0  0  0  0  0
    4.1500    0.0130   -1.2860 O   0  0  0  0  0  0  0  0  0  0  0  0
   -0.6000   -0.6680   -0.2690 C   0  0  0  0  0  0  0  0  0  0  0  0
   -1.8580   -0.6360    0.2900 C   0  0  0  0  0  0  0  0  0  0  0  0
   -2.8490    0.1670   -0.2100 C   0  0  0  0  0  0  0  0  0  0  0  0
   -2.6730    1.0830   -1.3650 C   0  0  0  0  0  0  0  0  0  0  0  0
   -3.7890    0.7790   -2.2860 N   0  0  0  0  0  0  0  0  0  0  0  0
  1  2  1  0
  2  3  2  0
  2 18  1  0
  3  4  1  0
  4  5  2  0
  5  6  1  0
  5 17  1  0
  6  7  2  0
  7  8  1  0
  8  9  1  0
  8 16  2  0
  9 10  1  0
 11 10  1  1
 11 12  1  0
 11 15  1  0
 12 13  1  0
 13 14  1  0
 14 15  1  0
 16 17  1  0
 17 18  2  0
 18 19  1  0
 19 20  1  0
M  CHG  1   4   1
M  END
