
     RDKit          3D

 25 26  0  0  0  0  0  0  0  0999 V2000
   -2.9290    3.6220   -0.5390 C   0  0  0  0  0  0  0  0  0  0  0  0
   -1.9090    3.7830    0.2160 C   0  0  0  0  0  0  0  0  0  0  0  0
   -1.0610    2.5130    0.5960 C   0  0  0  0  0  0  0  0  0  0  0  0
   -1.5210    1.4250   -0.0290 O   0  0  0  0  0  0  0  0  0  0  0  0
   -1.4290    0.1260    0.2450 C   0  0  0  0  0  0  0  0  0  0  0  0
   -0.4820   -0.7860    0.2310 C   0  0  0  0  0  0  0  0  0  0  0  0
    0.9250   -0.5870   -0.1520 C   0  0  0  0  0  0  0  0  0  0  0  0
    1.4770   -1.2550   -1.3960 C   0  0  0  0  0  0  0  0  0  0  0  0
    2.9540   -1.2550   -1.1020 N   0  0  0  0  0  0  0  0  0  0  0  0
    3.6900   -2.2500   -0.6470 C   0  0  0  0  0  0  0  0  0  0  0  0
    4.8860   -1.7800   -0.1540 C   0  0  0  0  0  0  0  0  0  0  0  0
    5.9470   -2.1050    0.4120 C   0  0  0  0  0  0  0  0  0  0  0  0
    7.1560   -2.4690    1.0310 N   0  0  0  0  0  0  0  0  0  0  0  0
    4.7550   -0.2670   -0.4160 C   0  0  0  0  0  0  0  0  0  0  0  0
    5.8750    0.5620    0.0560 C   0  0  0  0  0  0  0  0  0  0  0  0
    5.5780    2.0120    0.0140 C   0  0  0  0  0  0  0  0  0  0  0  0
    3.6070   -0.1110   -0.9630 N   0  0  0  0  0  0  0  0  0  0  0  0
   -0.7330   -2.1460    0.5730 C   0  0  0  0  0  0  0  0  0  0  0  0
   -2.0240   -2.5710    0.9190 C   0  0  0  0  0  0  0  0  0  0  0  0
   -2.3960   -3.9990    1.1190 C   0  0  0  0  0  0  0  0  0  0  0  0
   -2.9880   -1.6140    0.9330 C   0  0  0  0  0  0  0  0  0  0  0  0
   -2.8050   -0.3270    0.6320 C   0  0  0  0  0  0  0  0  0  0  0  0
   -3.7390    0.6320    0.6100 O   0  0  0  0  0  0  0  0  0  0  0  0
   -5.0940    0.6520    0.7760 C   0  0  0  0  0  0  0  0  0  0  0  0
   -5.7030    1.2750   -0.5290 C   0  0  0  0  0  0  0  0  0  0  0  0
  1  2  2  0
  2  3  1  0
  3  4  1  0
  4  5  1  0
  5  6  2  0
  5 22  1  0
  6  7  1  0
  6 18  1  0
  7  8  1  0
  8  9  1  0
  9 10  1  0
  9 17  1  0
 10 11  2  0
 11 12  1  0
 11 14  1  0
 12 13  3  0
 14 15  1  0
 14 17  2  0
 15 16  1  0
 18 19  2  0
 19 20  1  0
 19 21  1  0
 21 22  2  0
 22 23  1  0
 23 24  1  0
 24 25  1  0
M  END
