
     RDKit          3D

 23 25  0  0  0  0  0  0  0  0999 V2000
   -5.2000   -1.5440    1.6420 C   0  0  0  0  0  0  0  0  0  0  0  0
   -4.0330   -1.1120    1.2050 C   0  0  0  0  0  0  0  0  0  0  0  0
   -3.9960   -0.0980    0.2870 C   0  0  0  0  0  0  0  0  0  0  0  0
   -5.2250    0.4410   -0.1530 N   0  0  0  0  0  0  0  0  0  0  0  0
   -2.7970    0.3930   -0.2040 C   0  0  0  0  0  0  0  0  0  0  0  0
   -1.5830   -0.1360    0.2280 C   0  0  0  0  0  0  0  0  0  0  0  0
   -0.3550    0.4080   -0.3110 C   0  0  0  0  0  0  0  0  0  0  0  0
   -0.5100    1.3950   -1.1130 O   0  0  0  0  0  0  0  0  0  0  0  0
    0.9690    0.0270   -0.0970 N   0  0  0  0  0  0  0  0  0  0  0  0
    2.1620    0.5790   -0.6400 C   0  0  0  0  0  0  0  0  0  0  0  0
    2.1900    1.6320   -1.5240 C   0  0  0  0  0  0  0  0  0  0  0  0
    3.3750    2.1650   -2.0520 C   0  0  0  0  0  0  0  0  0  0  0  0
    3.3680    3.3040   -3.0040 C   0  0  0  0  0  0  0  0  0  0  0  0
    3.2990    2.9050   -4.3170 F   0  0  0  0  0  0  0  0  0  0  0  0
    4.5520    1.5840   -1.6460 C   0  0  0  0  0  0  0  0  0  0  0  0
    4.5320    0.5290   -0.7610 C   0  0  0  0  0  0  0  0  0  0  0  0
    3.3780    0.0040   -0.2410 C   0  0  0  0  0  0  0  0  0  0  0  0
    3.4200   -1.1390    0.7150 C   0  0  0  0  0  0  0  0  0  0  0  0
   -1.6140   -1.1630    1.1560 C   0  0  0  0  0  0  0  0  0  0  0  0
   -2.8380   -1.6520    1.6460 C   0  0  0  0  0  0  0  0  0  0  0  0
   -2.6470   -2.6260    2.5230 C   0  0  0  0  0  0  0  0  0  0  0  0
   -1.3110   -2.8420    2.6650 O   0  0  0  0  0  0  0  0  0  0  0  0
   -0.5700   -1.9490    1.8230 C   0  0  0  0  0  0  0  0  0  0  0  0
  1  2  2  0
  2  3  1  0
  2 20  1  0
  3  4  1  0
  3  5  2  0
  5  6  1  0
  6  7  1  0
  6 19  2  0
  7  8  2  0
  7  9  1  0
  9 10  1  0
 10 11  2  0
 10 17  1  0
 11 12  1  0
 12 13  1  0
 12 15  2  0
 13 14  1  0
 15 16  1  0
 16 17  2  0
 17 18  1  0
 19 20  1  0
 19 23  1  0
 20 21  2  0
 21 22  1  0
 22 23  1  0
M  END
