
     RDKit          3D

 23 25  0  0  0  0  0  0  0  0999 V2000
    2.9500   -1.1520   -1.2170 O   0  0  0  0  0  0  0  0  0  0  0  0
    2.4910   -0.3480   -0.4060 C   0  0  0  0  0  0  0  0  0  0  0  0
    1.0590   -0.2920   -0.2860 N   0  0  0  0  0  0  0  0  0  0  0  0
    0.2110   -1.1270   -1.0690 C   0  0  0  0  0  0  0  0  0  0  0  0
   -1.2370   -0.9690   -0.8480 C   0  0  0  0  0  0  0  0  0  0  0  0
   -1.8000   -0.0920    0.0390 C   0  0  0  0  0  0  0  0  0  0  0  0
   -3.1960   -0.0030    0.1900 C   0  0  0  0  0  0  0  0  0  0  0  0
   -4.0350   -0.8000   -0.5560 C   0  0  0  0  0  0  0  0  0  0  0  0
   -3.4920   -1.6750   -1.4400 C   0  0  0  0  0  0  0  0  0  0  0  0
   -2.1350   -1.7610   -1.5860 C   0  0  0  0  0  0  0  0  0  0  0  0
   -1.5770   -2.6540   -2.4890 O   0  0  0  0  0  0  0  0  0  0  0  0
   -5.4980   -0.6290   -0.3220 C   0  0  0  0  0  0  0  0  0  0  0  0
   -5.7400    0.8860   -0.3490 C   0  0  0  0  0  0  0  0  0  0  0  0
   -5.0610    1.5350    0.8090 C   0  0  0  0  0  0  0  0  0  0  0  0
   -3.7310    0.9660    1.1670 C   0  0  0  0  0  0  0  0  0  0  0  0
    3.3270    0.4870    0.3770 N   0  0  0  0  0  0  0  0  0  0  0  0
    4.7360    0.5090    0.3400 C   0  0  0  0  0  0  0  0  0  0  0  0
    5.5490   -0.3140   -0.3850 C   0  0  0  0  0  0  0  0  0  0  0  0
    6.9480   -0.2210   -0.3720 C   0  0  0  0  0  0  0  0  0  0  0  0
    7.5520    0.7430    0.4050 C   0  0  0  0  0  0  0  0  0  0  0  0
    8.9060    0.8730    0.4510 F   0  0  0  0  0  0  0  0  0  0  0  0
    6.7620    1.5940    1.1530 C   0  0  0  0  0  0  0  0  0  0  0  0
    5.3890    1.4710    1.1140 C   0  0  0  0  0  0  0  0  0  0  0  0
  1  2  2  0
  2  3  1  0
  2 16  1  0
  3  4  1  0
  4  5  1  0
  5  6  2  0
  5 10  1  0
  6  7  1  0
  7  8  2  0
  7 15  1  0
  8  9  1  0
  8 12  1  0
  9 10  2  0
 10 11  1  0
 12 13  1  0
 13 14  1  0
 14 15  1  0
 16 17  1  0
 17 18  2  0
 17 23  1  0
 18 19  1  0
 19 20  2  0
 20 21  1  0
 20 22  1  0
 22 23  2  0
M  END
