
     RDKit          3D

 23 25  0  0  0  0  0  0  0  0999 V2000
   -3.4480   -1.6860   -1.4540 C   0  0  0  0  0  0  0  0  0  0  0  0
   -3.0210   -1.2210   -0.3080 C   0  0  0  0  0  0  0  0  0  0  0  0
   -2.2400   -2.0270    0.4930 F   0  0  0  0  0  0  0  0  0  0  0  0
   -3.4500    0.1070    0.1060 C   0  0  0  0  0  0  0  0  0  0  0  0
   -4.8260    0.4070   -0.0000 C   0  0  0  0  0  0  0  0  0  0  0  0
   -5.3250    1.6050    0.4400 C   0  0  0  0  0  0  0  0  0  0  0  0
   -4.5010    2.5550    0.9990 C   0  0  0  0  0  0  0  0  0  0  0  0
   -3.1680    2.2820    1.1070 C   0  0  0  0  0  0  0  0  0  0  0  0
   -2.6350    1.0390    0.6500 C   0  0  0  0  0  0  0  0  0  0  0  0
   -1.1890    0.9130    0.6650 C   0  0  0  0  0  0  0  0  0  0  0  0
   -0.4440    0.1410   -0.0690 C   0  0  0  0  0  0  0  0  0  0  0  0
    1.0300    0.0940    0.0450 C   0  0  0  0  0  0  0  0  0  0  0  0
    1.7610    0.8450    0.9150 C   0  0  0  0  0  0  0  0  0  0  0  0
    3.1550    0.7140    0.9330 C   0  0  0  0  0  0  0  0  0  0  0  0
    3.8290   -0.1440    0.1050 C   0  0  0  0  0  0  0  0  0  0  0  0
    5.1780   -0.2450    0.1480 N   0  0  0  0  0  0  0  0  0  0  0  0
    5.8250   -1.0930   -0.6710 C   0  0  0  0  0  0  0  0  0  0  0  0
    7.0950   -1.1710   -0.6130 O   0  0  0  0  0  0  0  0  0  0  0  0
    5.1160   -1.8390   -1.5350 N   0  0  0  0  0  0  0  0  0  0  0  0
    3.7780   -1.7580   -1.5990 C   0  0  0  0  0  0  0  0  0  0  0  0
    3.1210   -2.4580   -2.4070 O   0  0  0  0  0  0  0  0  0  0  0  0
    3.0810   -0.8990   -0.7730 C   0  0  0  0  0  0  0  0  0  0  0  0
    1.7090   -0.7750   -0.7940 C   0  0  0  0  0  0  0  0  0  0  0  0
  1  2  2  0
  2  3  1  0
  2  4  1  0
  4  5  2  0
  4  9  1  0
  5  6  1  0
  6  7  2  0
  7  8  1  0
  8  9  2  0
  9 10  1  0
 10 11  2  3
 11 12  1  0
 12 13  2  0
 12 23  1  0
 13 14  1  0
 14 15  2  0
 15 16  1  0
 15 22  1  0
 16 17  1  0
 17 18  2  0
 17 19  1  0
 19 20  1  0
 20 21  2  0
 20 22  1  0
 22 23  2  0
M  END
