
     RDKit          3D

 23 25  0  0  0  0  0  0  0  0999 V2000
    7.5790   -0.7370   -0.5210 C   0  0  0  0  0  0  0  0  0  0  0  0
    6.2550   -0.9900    0.1050 C   0  0  0  0  0  0  0  0  0  0  0  0
    5.2140   -0.3330   -0.3500 C   0  0  0  0  0  0  0  0  0  0  0  0
    5.1690    0.6710   -1.4480 C   0  0  0  0  0  0  0  0  0  0  0  0
    3.7760    0.4810   -2.0000 C   0  0  0  0  0  0  0  0  0  0  0  0
    2.9630    0.0280   -0.8160 C   0  0  0  0  0  0  0  0  0  0  0  0
    1.6030    0.0090   -0.5490 C   0  0  0  0  0  0  0  0  0  0  0  0
    1.0940   -0.4630    0.6280 C   0  0  0  0  0  0  0  0  0  0  0  0
   -0.2870   -0.4860    0.9090 N   0  0  0  0  0  0  0  0  0  0  0  0
   -1.2760   -0.0380    0.0340 C   0  0  0  0  0  0  0  0  0  0  0  0
   -1.0870    0.4370   -1.0950 O   0  0  0  0  0  0  0  0  0  0  0  0
   -2.6670   -0.1170    0.4470 N   0  0  0  0  0  0  0  0  0  0  0  0
   -3.7040    0.3450   -0.4510 C   0  0  0  0  0  0  0  0  0  0  0  0
   -5.0460    0.1970    0.1110 C   0  0  0  0  0  0  0  0  0  0  0  0
   -5.3560   -0.3130    1.3430 C   0  0  0  0  0  0  0  0  0  0  0  0
   -6.7320   -0.2670    1.4630 C   0  0  0  0  0  0  0  0  0  0  0  0
   -7.1840    0.2730    0.2880 C   0  0  0  0  0  0  0  0  0  0  0  0
   -8.6220    0.5140   -0.0310 C   0  0  0  0  0  0  0  0  0  0  0  0
   -6.1590    0.5350   -0.4860 O   0  0  0  0  0  0  0  0  0  0  0  0
    1.9880   -0.9470    1.6030 C   0  0  0  0  0  0  0  0  0  0  0  0
    1.4920   -1.4170    2.7710 F   0  0  0  0  0  0  0  0  0  0  0  0
    3.3220   -0.9270    1.3360 C   0  0  0  0  0  0  0  0  0  0  0  0
    3.8270   -0.4450    0.1360 C   0  0  0  0  0  0  0  0  0  0  0  0
  1  2  1  0
  2  3  2  3
  3  4  1  0
  3 23  1  0
  4  5  1  0
  5  6  1  0
  6  7  2  0
  6 23  1  0
  7  8  1  0
  8  9  1  0
  8 20  2  0
  9 10  1  0
 10 11  2  0
 10 12  1  0
 12 13  1  0
 13 14  1  0
 14 15  2  0
 14 19  1  0
 15 16  1  0
 16 17  2  0
 17 18  1  0
 17 19  1  0
 20 21  1  0
 20 22  1  0
 22 23  2  0
M  END
