
     RDKit          3D

 18 19  0  0  0  0  0  0  0  0999 V2000
   -4.5550    3.2220    1.0100 C   0  0  0  0  0  0  0  0  0  0  0  0
   -3.8570    2.1360    0.7390 C   0  0  0  0  0  0  0  0  0  0  0  0
   -2.4140    2.0970    0.5920 C   0  0  0  0  0  0  0  0  0  0  0  0
   -2.0850    0.8210    0.3220 C   0  0  0  0  0  0  0  0  0  0  0  0
   -0.7780    0.3740    0.1110 O   0  0  0  0  0  0  0  0  0  0  0  0
   -0.0260    1.0100   -0.9010 C   0  0  0  0  0  0  0  0  0  0  0  0
    1.3540    0.4500   -1.0370 C   0  0  2  0  0  0  0  0  0  0  0  0
    1.3920   -0.8870   -1.3490 O   0  0  0  0  0  0  0  0  0  0  0  0
    2.2270    0.8010    0.1670 C   0  0  0  0  0  0  0  0  0  0  0  0
    3.6100    0.4630   -0.0870 N   0  0  0  0  0  0  0  0  0  0  0  0
    3.9380   -0.8650    0.4000 C   0  0  1  0  0  0  0  0  0  0  0  0
    5.1100   -1.5810   -0.2960 C   0  0  0  0  0  0  0  0  0  0  0  0
    5.2220   -1.0830    1.1500 C   0  0  0  0  0  0  0  0  0  0  0  0
   -3.2920    0.0180    0.2890 C   0  0  0  0  0  0  0  0  0  0  0  0
   -3.3770   -1.4200    0.0290 C   0  0  0  0  0  0  0  0  0  0  0  0
   -2.3480   -2.1710   -0.2110 C   0  0  0  0  0  0  0  0  0  0  0  0
   -4.7460   -2.0590    0.0430 C   0  0  0  0  0  0  0  0  0  0  0  0
   -4.3050    0.8170    0.5360 N   0  0  0  0  0  0  0  0  0  0  0  0
  1  2  2  0
  2  3  1  0
  2 18  1  0
  3  4  2  0
  4  5  1  0
  4 14  1  0
  5  6  1  0
  6  7  1  0
  7  8  1  1
  7  9  1  0
  9 10  1  0
 11 10  1  6
 11 12  1  0
 11 13  1  0
 12 13  1  0
 14 15  1  0
 14 18  2  0
 15 16  2  0
 15 17  1  0
M  CHG  1  10   1
M  END
