
     RDKit          3D

 18 19  0  0  0  0  0  0  0  0999 V2000
    4.5170    2.2380   -0.7810 C   0  0  0  0  0  0  0  0  0  0  0  0
    4.0430    1.0970   -1.2540 C   0  0  0  0  0  0  0  0  0  0  0  0
    3.3110    0.1170   -0.4280 C   0  0  2  0  0  0  0  0  0  0  0  0
    2.4740    0.8180    0.6510 C   0  0  0  0  0  0  0  0  0  0  0  0
    1.4140   -0.1450    0.9880 N   0  0  0  0  0  0  0  0  0  0  0  0
    0.3190    0.1350    0.1040 C   0  0  0  0  0  0  0  0  0  0  0  0
   -0.8670   -0.7560    0.3020 C   0  0  1  0  0  0  0  0  0  0  0  0
   -1.4040   -0.6750    1.5750 O   0  0  0  0  0  0  0  0  0  0  0  0
   -1.9590   -0.2590   -0.6530 C   0  0  1  0  0  0  0  0  0  0  0  0
   -1.3810   -0.3540   -1.9410 O   0  0  0  0  0  0  0  0  0  0  0  0
   -3.1660   -1.1190   -0.6440 C   0  0  0  0  0  0  0  0  0  0  0  0
   -4.2190   -0.7450    0.3320 C   0  0  0  0  0  0  0  0  0  0  0  0
   -4.4270    0.7190    0.5130 C   0  0  0  0  0  0  0  0  0  0  0  0
   -3.7000    1.4850   -0.5820 C   0  0  0  0  0  0  0  0  0  0  0  0
   -2.2180    1.1870   -0.3900 C   0  0  0  0  0  0  0  0  0  0  0  0
    1.8750   -1.4950    0.9170 C   0  0  0  0  0  0  0  0  0  0  0  0
    3.3520   -1.6600    1.0940 C   0  0  0  0  0  0  0  0  0  0  0  0
    4.1470   -0.8240    0.2490 N   0  0  0  0  0  0  0  0  0  0  0  0
  1  2  2  0
  3  2  1  1
  3  4  1  0
  3 18  1  0
  4  5  1  0
  5  6  1  0
  5 16  1  0
  6  7  1  0
  7  8  1  1
  7  9  1  0
  9 10  1  6
  9 11  1  0
  9 15  1  0
 11 12  1  0
 12 13  1  0
 13 14  1  0
 14 15  1  0
 16 17  1  0
 17 18  1  0
M  END
