
     RDKit          3D

 17 19  0  0  0  0  0  0  0  0999 V2000
   -0.4530    1.1000    0.6000 O   0  0  0  0  0  0  0  0  0  0  0  0
   -0.3380    0.0310   -0.0580 C   0  0  0  0  0  0  0  0  0  0  0  0
    0.9840   -0.6390   -0.2500 C   0  0  0  0  0  0  0  0  0  0  0  0
    1.9860    0.1520    0.4290 N   0  0  0  0  0  0  0  0  0  0  0  0
    3.2550    0.1500   -0.2260 C   0  0  2  0  0  0  0  0  0  0  0  0
    4.1780   -0.9490    0.2300 C   0  0  0  0  0  0  0  0  0  0  0  0
    5.0300   -0.4230    1.3400 C   0  0  0  0  0  0  0  0  0  0  0  0
    5.9700    0.6210    0.7410 C   0  0  0  0  0  0  0  0  0  0  0  0
    5.3090    1.4070   -0.2000 O   0  0  0  0  0  0  0  0  0  0  0  0
    3.9460    1.4700    0.1180 C   0  0  0  0  0  0  0  0  0  0  0  0
   -1.5390   -0.5030   -0.6090 N   0  0  0  0  0  0  0  0  0  0  0  0
   -2.8080    0.1360   -0.4280 C   0  0  1  0  0  0  0  0  0  0  0  0
   -3.7490    0.2620   -1.6110 C   0  0  0  0  0  0  0  0  0  0  0  0
   -4.0850   -0.6050   -0.4720 C   0  0  2  0  0  0  0  0  0  0  0  0
   -5.1740   -0.0920    0.4630 C   0  0  2  0  0  0  0  0  0  0  0  0
   -6.5030   -0.8800    0.4030 C   0  0  0  0  0  0  0  0  0  0  0  0
   -6.3960    0.5310   -0.0880 C   0  0  0  0  0  0  0  0  0  0  0  0
  1  2  2  0
  2  3  1  0
  2 11  1  0
  3  4  1  0
  5  4  1  1
  5  6  1  0
  5 10  1  0
  6  7  1  0
  7  8  1  0
  8  9  1  0
  9 10  1  0
 12 11  1  6
 12 13  1  0
 12 14  1  0
 14 13  1  6
 14 15  1  0
 15 16  1  6
 15 17  1  0
 16 17  1  0
M  CHG  1   4   1
M  END
