
     RDKit          3D

 18 19  0  0  0  0  0  0  0  0999 V2000
   -3.5930    3.3570   -0.9720 C   0  0  0  0  0  0  0  0  0  0  0  0
   -3.6190    2.0980   -1.6390 O   0  0  0  0  0  0  0  0  0  0  0  0
   -3.0630    1.0340   -0.9110 C   0  0  0  0  0  0  0  0  0  0  0  0
   -1.8900    0.5370   -1.2000 C   0  0  0  0  0  0  0  0  0  0  0  0
   -1.2700   -0.5740   -0.4670 C   0  0  1  0  0  0  0  0  0  0  0  0
    0.1640   -0.3380   -0.4200 N   0  0  0  0  0  0  0  0  0  0  0  0
    0.9430   -1.5320   -0.4620 C   0  0  0  0  0  0  0  0  0  0  0  0
    2.2950   -1.4040   -1.0910 C   0  0  0  0  0  0  0  0  0  0  0  0
    3.1980   -0.4500   -0.4330 C   0  0  0  0  0  0  0  0  0  0  0  0
    4.3690   -0.7630    0.0990 C   0  0  0  0  0  0  0  0  0  0  0  0
    5.0080    0.4220    0.6710 C   0  0  0  0  0  0  0  0  0  0  0  0
    4.0380    1.5170    0.4010 C   0  0  0  0  0  0  0  0  0  0  0  0
    3.0140    0.9680   -0.2350 C   0  0  0  0  0  0  0  0  0  0  0  0
   -1.8470   -0.8250    0.8960 C   0  0  2  0  0  0  0  0  0  0  0  0
   -1.6090   -2.2460    1.3570 C   0  0  0  0  0  0  0  0  0  0  0  0
   -3.2760   -0.5890    0.9320 N   0  0  0  0  0  0  0  0  0  0  0  0
   -3.8260    0.4830    0.1910 C   0  0  0  0  0  0  0  0  0  0  0  0
   -4.9790    0.9580    0.4900 O   0  0  0  0  0  0  0  0  0  0  0  0
  1  2  1  0
  2  3  1  0
  3  4  2  0
  3 17  1  0
  4  5  1  0
  5  6  1  1
  5 14  1  0
  6  7  1  0
  7  8  1  0
  8  9  1  0
  9 10  2  0
  9 13  1  0
 10 11  1  0
 11 12  1  0
 12 13  2  0
 14 15  1  6
 14 16  1  0
 16 17  1  0
 17 18  2  0
M  CHG  1   6   1
M  END
