
     RDKit          3D

 18 20  0  0  0  0  0  0  0  0999 V2000
    3.1550    1.1700   -2.0110 O   0  0  0  0  0  0  0  0  0  0  0  0
    3.7940    1.7020   -0.8970 C   0  0  0  0  0  0  0  0  0  0  0  0
    3.6400    0.8370    0.3330 C   0  0  2  0  0  0  0  0  0  0  0  0
    4.1710   -0.5740    0.2770 C   0  0  0  0  0  0  0  0  0  0  0  0
    2.6640   -0.2520    0.4090 C   0  0  2  0  0  0  0  0  0  0  0  0
    1.8860   -0.6910   -0.7070 N   0  0  0  0  0  0  0  0  0  0  0  0
    1.0990   -1.8620   -0.3040 C   0  0  0  0  0  0  0  0  0  0  0  0
   -0.0730   -1.3360    0.4840 C   0  0  2  0  0  0  0  0  0  0  0  0
   -1.0670   -2.4200    0.8320 C   0  0  0  0  0  0  0  0  0  0  0  0
   -2.3180   -1.6300    0.9490 C   0  0  0  0  0  0  0  0  0  0  0  0
   -2.1600   -0.4980    0.2870 C   0  0  0  0  0  0  0  0  0  0  0  0
   -3.1600    0.5550    0.1590 C   0  0  0  0  0  0  0  0  0  0  0  0
   -2.9180    1.7090   -0.5510 C   0  0  0  0  0  0  0  0  0  0  0  0
   -3.9030    2.6790   -0.6420 C   0  0  0  0  0  0  0  0  0  0  0  0
   -5.1060    2.4970   -0.0340 N   0  0  0  0  0  0  0  0  0  0  0  0
   -5.3720    1.3800    0.6660 C   0  0  0  0  0  0  0  0  0  0  0  0
   -4.3950    0.4290    0.7500 C   0  0  0  0  0  0  0  0  0  0  0  0
   -0.8780   -0.4580   -0.2790 O   0  0  0  0  0  0  0  0  0  0  0  0
  1  2  1  0
  3  2  1  6
  3  4  1  0
  3  5  1  0
  4  5  1  0
  5  6  1  6
  6  7  1  0
  8  7  1  6
  8  9  1  0
  8 18  1  0
  9 10  1  0
 10 11  2  0
 11 12  1  0
 11 18  1  0
 12 13  2  0
 12 17  1  0
 13 14  1  0
 14 15  2  0
 15 16  1  0
 16 17  2  0
M  CHG  1   6   1
M  END
