
     RDKit          3D

 13 13  0  0  0  0  0  0  0  0999 V2000
    3.0070    0.6090    0.0220 C   0  0  0  0  0  0  0  0  0  0  0  0
    1.6510    0.7510   -0.1930 O   0  0  0  0  0  0  0  0  0  0  0  0
    0.9770   -0.3520    0.3500 C   0  0  0  0  0  0  0  0  0  0  0  0
   -0.5130   -0.2120    0.1220 C   0  0  1  0  0  0  0  0  0  0  0  0
   -1.0750    0.9890    0.7380 C   0  0  0  0  0  0  0  0  0  0  0  0
   -0.6650    2.2910    0.4160 N   0  0  0  0  0  0  0  0  0  0  0  0
   -1.9910    0.8770    1.6220 O   0  0  0  0  0  0  0  0  0  0  0  0
   -0.7930   -0.2300   -1.3780 C   0  0  0  0  0  0  0  0  0  0  0  0
   -2.1620   -0.3640   -1.5890 O   0  0  0  0  0  0  0  0  0  0  0  0
   -2.6410   -1.5120   -1.2590 O   0  0  0  0  0  0  0  0  0  0  0  0
   -2.2070   -2.0060   -0.0990 N   0  0  0  0  0  0  0  0  0  0  0  0
   -1.1580   -1.4310    0.6780 C   0  0  0  0  0  0  0  0  0  0  0  0
   -0.7870   -1.9230    1.7850 O   0  0  0  0  0  0  0  0  0  0  0  0
  1  2  1  0
  2  3  1  0
  4  3  1  6
  4  5  1  0
  4  8  1  0
  4 12  1  0
  5  6  1  0
  5  7  2  0
  8  9  1  0
  9 10  1  0
 10 11  1  0
 11 12  1  0
 12 13  2  0
M  END
