
     RDKit          3D

 21 22  0  0  0  0  0  0  0  0999 V2000
    6.8490    1.3190    0.2430 C   0  0  0  0  0  0  0  0  0  0  0  0
    5.8070    0.3630    0.3220 O   0  0  0  0  0  0  0  0  0  0  0  0
    4.4660    0.7030    0.2600 C   0  0  0  0  0  0  0  0  0  0  0  0
    4.1820    1.9190    0.1280 O   0  0  0  0  0  0  0  0  0  0  0  0
    3.3810   -0.2700    0.3400 C   0  0  2  0  0  0  0  0  0  0  0  0
    3.5750   -1.4250   -0.6080 C   0  0  0  0  0  0  0  0  0  0  0  0
    2.0740    0.3190    0.2530 N   0  0  0  0  0  0  0  0  0  0  0  0
    1.1230   -0.6920    0.6270 C   0  0  2  0  0  0  0  0  0  0  0  0
   -0.1850   -0.2350    0.6080 O   0  0  0  0  0  0  0  0  0  0  0  0
   -1.2150   -0.7260   -0.1420 C   0  0  0  0  0  0  0  0  0  0  0  0
   -0.9780   -1.6970   -0.9060 O   0  0  0  0  0  0  0  0  0  0  0  0
   -2.5820   -0.1740   -0.0990 C   0  0  0  0  0  0  0  0  0  0  0  0
   -2.9050    0.8510    0.6840 C   0  0  0  0  0  0  0  0  0  0  0  0
   -4.3360    1.1940    0.5270 C   0  0  0  0  0  0  0  0  0  0  0  0
   -4.8710    0.0140   -0.2410 C   0  0  1  0  0  0  0  0  0  0  0  0
   -5.7330    0.4690   -1.2450 O   0  0  0  0  0  0  0  0  0  0  0  0
   -6.9800   -0.1070   -1.0190 C   0  0  0  0  0  0  0  0  0  0  0  0
   -3.6960   -0.5580   -0.7840 O   0  0  0  0  0  0  0  0  0  0  0  0
    1.4620   -1.0890    2.0450 C   0  0  0  0  0  0  0  0  0  0  0  0
    0.7300   -1.3850    2.9460 O   0  0  0  0  0  0  0  0  0  0  0  0
    3.2760   -0.9980    2.0310 S   0  0  0  0  0  0  0  0  0  0  0  0
  1  2  1  0
  2  3  1  0
  3  4  2  0
  3  5  1  0
  5  6  1  6
  5  7  1  0
  5 21  1  0
  7  8  1  0
  8  9  1  1
  8 19  1  0
  9 10  1  0
 10 11  2  0
 10 12  1  0
 12 13  2  0
 12 18  1  0
 13 14  1  0
 14 15  1  0
 15 16  1  6
 15 18  1  0
 16 17  1  0
 19 20  2  0
 19 21  1  0
M  END
