
     RDKit          3D

 22 23  0  0  0  0  0  0  0  0999 V2000
    3.7350   -2.7540    1.1560 O   0  0  0  0  0  0  0  0  0  0  0  0
    4.3470   -1.8190    0.5870 C   0  0  0  0  0  0  0  0  0  0  0  0
    5.6160   -2.0120    0.0910 O   0  0  0  0  0  0  0  0  0  0  0  0
    6.4880   -0.9770   -0.3070 C   0  0  0  0  0  0  0  0  0  0  0  0
    5.8500    0.3850   -0.2140 C   0  0  1  0  0  0  0  0  0  0  0  0
    6.4190    1.2990   -1.0950 O   0  0  0  0  0  0  0  0  0  0  0  0
    4.4320    0.3640   -0.4440 N   0  0  0  0  0  0  0  0  0  0  0  0
    3.7130   -0.5060    0.4430 C   0  0  1  0  0  0  0  0  0  0  0  0
    2.0040   -0.6320   -0.1750 S   0  0  0  0  0  0  0  0  0  0  0  0
    1.3480    1.0500   -0.3020 C   0  0  0  0  0  0  0  0  0  0  0  0
   -0.0750    1.0580   -0.8100 C   0  0  0  0  0  0  0  0  0  0  0  0
   -0.9020    0.3490    0.0390 O   0  0  0  0  0  0  0  0  0  0  0  0
   -2.1860    0.3720   -0.4450 C   0  0  1  0  0  0  0  0  0  0  0  0
   -2.6440   -1.0210   -0.7320 C   0  0  0  0  0  0  0  0  0  0  0  0
   -1.6970   -1.8190   -1.0140 O   0  0  0  0  0  0  0  0  0  0  0  0
   -3.8700   -1.6690   -0.7680 O   0  0  0  0  0  0  0  0  0  0  0  0
   -5.2190   -1.2350   -0.8880 C   0  0  0  0  0  0  0  0  0  0  0  0
   -5.7570   -0.6930    0.4150 C   0  0  0  0  0  0  0  0  0  0  0  0
   -5.4470    0.7820    0.5880 C   0  0  0  0  0  0  0  0  0  0  0  0
   -4.3580    1.1900   -0.1450 O   0  0  0  0  0  0  0  0  0  0  0  0
   -3.1760    0.9400    0.5670 C   0  0  1  0  0  0  0  0  0  0  0  0
   -3.3820   -0.0570    1.5190 O   0  0  0  0  0  0  0  0  0  0  0  0
  1  2  2  0
  2  3  1  0
  2  8  1  0
  3  4  1  0
  4  5  1  0
  5  6  1  6
  5  7  1  0
  7  8  1  0
  8  9  1  6
  9 10  1  0
 10 11  1  0
 11 12  1  0
 13 12  1  1
 13 14  1  0
 13 21  1  0
 14 15  2  0
 14 16  1  0
 16 17  1  0
 17 18  1  0
 18 19  1  0
 19 20  1  0
 20 21  1  0
 21 22  1  1
M  END
