
     RDKit          3D

 13 13  0  0  0  0  0  0  0  0999 V2000
   -0.6540   -2.1500    0.0270 C   0  0  0  0  0  0  0  0  0  0  0  0
   -0.3420   -0.6560    0.0310 C   0  0  1  0  0  0  0  0  0  0  0  0
    1.1450   -0.5530   -0.2860 C   0  0  0  0  0  0  0  0  0  0  0  0
    1.6330    0.8270   -0.3170 C   0  0  0  0  0  0  0  0  0  0  0  0
    2.7620    1.2500    0.4320 N   0  0  0  0  0  0  0  0  0  0  0  0
    1.0480    1.6820   -1.0210 O   0  0  0  0  0  0  0  0  0  0  0  0
   -1.1010   -0.0930   -1.0100 O   0  0  0  0  0  0  0  0  0  0  0  0
   -1.9490    0.9650   -0.8720 C   0  0  0  0  0  0  0  0  0  0  0  0
   -2.5320    1.4180   -1.8980 O   0  0  0  0  0  0  0  0  0  0  0  0
   -2.1830    1.5510    0.3930 N   0  0  0  0  0  0  0  0  0  0  0  0
   -1.5070    0.9930    1.4640 O   0  0  0  0  0  0  0  0  0  0  0  0
   -0.6420   -0.0770    1.3630 C   0  0  0  0  0  0  0  0  0  0  0  0
   -0.1130   -0.5570    2.3940 O   0  0  0  0  0  0  0  0  0  0  0  0
  2  1  1  1
  2  3  1  0
  2  7  1  0
  2 12  1  0
  3  4  1  0
  4  5  1  0
  4  6  2  0
  7  8  1  0
  8  9  2  0
  8 10  1  0
 10 11  1  0
 11 12  1  0
 12 13  2  0
M  END
