
     RDKit          3D

 21 22  0  0  0  0  0  0  0  0999 V2000
   -3.5990   -0.5460    2.0780 C   0  0  0  0  0  0  0  0  0  0  0  0
   -3.6220    0.0640    0.6710 C   0  0  2  0  0  0  0  0  0  0  0  0
   -3.7310    1.5670    0.8420 C   0  0  0  0  0  0  0  0  0  0  0  0
   -4.7650   -0.4430    0.0570 O   0  0  0  0  0  0  0  0  0  0  0  0
   -4.8400   -0.1470   -1.2890 C   0  0  0  0  0  0  0  0  0  0  0  0
   -4.1700   -1.2630   -2.1030 C   0  0  0  0  0  0  0  0  0  0  0  0
   -2.7490   -1.7960   -1.0690 S   0  0  0  0  0  0  0  0  0  0  0  0
   -2.3540   -0.3180   -0.0540 C   0  0  2  0  0  0  0  0  0  0  0  0
   -1.2550   -0.5640    0.8190 N   0  0  0  0  0  0  0  0  0  0  0  0
   -0.0650    0.2350    0.6500 C   0  0  0  0  0  0  0  0  0  0  0  0
   -0.0010    1.1210   -0.2400 O   0  0  0  0  0  0  0  0  0  0  0  0
    1.0250    0.0340    1.4710 O   0  0  0  0  0  0  0  0  0  0  0  0
    2.2350    0.7580    1.3900 C   0  0  0  0  0  0  0  0  0  0  0  0
    2.8580    0.5610    0.0380 C   0  0  2  0  0  0  0  0  0  0  0  0
    3.0950   -0.8120   -0.1080 O   0  0  0  0  0  0  0  0  0  0  0  0
    4.3620   -1.0610    0.4270 C   0  0  0  0  0  0  0  0  0  0  0  0
    5.3690   -0.5610   -0.6060 C   0  0  1  0  0  0  0  0  0  0  0  0
    5.2550   -1.3920   -1.7090 O   0  0  0  0  0  0  0  0  0  0  0  0
    4.9020    0.8470   -0.9850 C   0  0  1  0  0  0  0  0  0  0  0  0
    4.2650    0.8670   -2.2110 O   0  0  0  0  0  0  0  0  0  0  0  0
    4.0750    1.2690    0.0530 O   0  0  0  0  0  0  0  0  0  0  0  0
  2  1  1  1
  2  3  1  0
  2  4  1  0
  2  8  1  0
  4  5  1  0
  5  6  1  0
  6  7  1  0
  7  8  1  0
  8  9  1  1
  9 10  1  0
 10 11  2  0
 10 12  1  0
 12 13  1  0
 14 13  1  1
 14 15  1  0
 14 21  1  0
 15 16  1  0
 16 17  1  0
 17 18  1  6
 17 19  1  0
 19 20  1  6
 19 21  1  0
M  END
