
     RDKit          3D

 23 25  0  0  0  0  0  0  0  0999 V2000
    7.6790    0.1080   -0.6540 C   0  0  0  0  0  0  0  0  0  0  0  0
    6.1980    0.2150   -0.5800 C   0  0  0  0  0  0  0  0  0  0  0  0
    5.5010    1.1970   -1.2570 C   0  0  0  0  0  0  0  0  0  0  0  0
    4.1490    1.3300   -1.2160 C   0  0  0  0  0  0  0  0  0  0  0  0
    3.3770    0.4410   -0.4560 C   0  0  0  0  0  0  0  0  0  0  0  0
    1.9860    0.6210   -0.4190 N   0  0  0  0  0  0  0  0  0  0  0  0
    1.0730   -0.3450    0.0030 C   0  0  0  0  0  0  0  0  0  0  0  0
    1.4440   -1.4710    0.3800 O   0  0  0  0  0  0  0  0  0  0  0  0
   -0.3820   -0.0480    0.0110 C   0  0  0  0  0  0  0  0  0  0  0  0
   -0.7440    1.0830   -0.3690 O   0  0  0  0  0  0  0  0  0  0  0  0
   -1.2760   -1.0500    0.4440 N   0  0  0  0  0  0  0  0  0  0  0  0
   -2.6730   -0.8940    0.4990 C   0  0  0  0  0  0  0  0  0  0  0  0
   -3.3460    0.2340    0.1450 C   0  0  0  0  0  0  0  0  0  0  0  0
   -4.7380    0.2910    0.2350 C   0  0  0  0  0  0  0  0  0  0  0  0
   -5.4230   -0.8100    0.6880 C   0  0  0  0  0  0  0  0  0  0  0  0
   -4.7780   -1.9300    1.0420 N   0  0  0  0  0  0  0  0  0  0  0  0
   -3.4410   -1.9850    0.9550 C   0  0  0  0  0  0  0  0  0  0  0  0
   -2.8520   -3.0490    1.2930 O   0  0  0  0  0  0  0  0  0  0  0  0
   -6.7430   -0.5580    0.7020 C   0  0  0  0  0  0  0  0  0  0  0  0
   -6.9390    0.8120    0.2220 C   0  0  0  0  0  0  0  0  0  0  0  0
   -5.5690    1.2870   -0.0590 C   0  0  0  0  0  0  0  0  0  0  0  0
    4.0230   -0.5390    0.2250 C   0  0  0  0  0  0  0  0  0  0  0  0
    5.4220   -0.6460    0.1600 C   0  0  0  0  0  0  0  0  0  0  0  0
  1  2  1  0
  2  3  2  0
  2 23  1  0
  3  4  1  0
  4  5  2  0
  5  6  1  0
  5 22  1  0
  6  7  1  0
  7  8  2  0
  7  9  1  0
  9 10  2  0
  9 11  1  0
 11 12  1  0
 12 13  2  0
 12 17  1  0
 13 14  1  0
 14 15  1  0
 14 21  2  0
 15 16  1  0
 15 19  2  0
 16 17  1  0
 17 18  2  0
 19 20  1  0
 20 21  1  0
 22 23  2  0
M  END
