
     RDKit          3D

 23 25  0  0  0  0  0  0  0  0999 V2000
   -5.0320   -0.5170    0.9900 C   0  0  0  0  0  0  0  0  0  0  0  0
   -3.8330   -0.7080    0.4840 C   0  0  0  0  0  0  0  0  0  0  0  0
   -3.0130   -1.9360    0.4780 C   0  0  0  0  0  0  0  0  0  0  0  0
   -1.6100   -1.4920   -0.0130 C   0  0  1  0  0  0  0  0  0  0  0  0
   -1.4620   -2.0500   -1.4010 C   0  0  0  0  0  0  0  0  0  0  0  0
   -1.6190   -0.0470    0.0470 N   0  0  0  0  0  0  0  0  0  0  0  0
   -0.5930    0.8990    0.2550 C   0  0  0  0  0  0  0  0  0  0  0  0
   -0.9390    2.1600    0.3630 O   0  0  0  0  0  0  0  0  0  0  0  0
    0.8250    0.7060    0.3720 C   0  0  0  0  0  0  0  0  0  0  0  0
    1.4770   -0.4700    0.1530 C   0  0  0  0  0  0  0  0  0  0  0  0
    2.8680   -0.6220    0.2290 C   0  0  0  0  0  0  0  0  0  0  0  0
    3.6300    0.4560    0.5360 C   0  0  0  0  0  0  0  0  0  0  0  0
    3.0400    1.6610    0.7650 C   0  0  0  0  0  0  0  0  0  0  0  0
    1.6700    1.7860    0.6860 C   0  0  0  0  0  0  0  0  0  0  0  0
    1.0880    3.0590    0.9330 N   0  0  0  0  0  0  0  0  0  0  0  0
    5.0490    0.3150    0.6170 N   0  0  0  0  0  0  0  0  0  0  0  0
    5.6380   -0.9470    0.3760 C   0  0  0  0  0  0  0  0  0  0  0  0
    6.8410   -1.1540    0.7010 O   0  0  0  0  0  0  0  0  0  0  0  0
    4.8420   -2.0270   -0.2590 C   0  0  0  0  0  0  0  0  0  0  0  0
    3.4620   -1.8610   -0.0070 O   0  0  0  0  0  0  0  0  0  0  0  0
   -3.0050    0.2900   -0.2330 C   0  0  0  0  0  0  0  0  0  0  0  0
   -3.5080    1.2510   -0.9630 C   0  0  0  0  0  0  0  0  0  0  0  0
   -2.8070    2.2920   -1.7250 C   0  0  0  0  0  0  0  0  0  0  0  0
  1  2  2  0
  2  3  1  0
  2 21  1  0
  3  4  1  0
  4  5  1  6
  4  6  1  0
  6  7  1  0
  6 21  1  0
  7  8  2  0
  7  9  1  0
  9 10  2  0
  9 14  1  0
 10 11  1  0
 11 12  2  0
 11 20  1  0
 12 13  1  0
 12 16  1  0
 13 14  2  0
 14 15  1  0
 16 17  1  0
 17 18  2  0
 17 19  1  0
 19 20  1  0
 21 22  2  3
 22 23  1  0
M  END
