
     RDKit          3D

 23 25  0  0  0  0  0  0  0  0999 V2000
   -1.8790    1.4760   -2.4810 N   0  0  0  0  0  0  0  0  0  0  0  0
   -1.6810    0.9240   -1.1950 C   0  0  0  0  0  0  0  0  0  0  0  0
   -0.4550    0.3040   -0.9530 C   0  0  0  0  0  0  0  0  0  0  0  0
   -0.1260   -0.2810    0.2660 C   0  0  0  0  0  0  0  0  0  0  0  0
    1.1380   -0.8600    0.5080 N   0  0  0  0  0  0  0  0  0  0  0  0
    2.1520   -1.1410   -0.4460 C   0  0  0  0  0  0  0  0  0  0  0  0
    1.9440   -0.8640   -1.6570 O   0  0  0  0  0  0  0  0  0  0  0  0
    3.3780   -1.7190   -0.0700 N   0  0  0  0  0  0  0  0  0  0  0  0
    3.7330   -2.0850    1.2590 C   0  0  0  0  0  0  0  0  0  0  0  0
    4.9670   -1.2300    1.6070 C   0  0  0  0  0  0  0  0  0  0  0  0
    5.9590   -1.6130    0.7080 O   0  0  0  0  0  0  0  0  0  0  0  0
    5.6850   -1.3260   -0.6050 C   0  0  0  0  0  0  0  0  0  0  0  0
    4.3790   -1.9670   -1.0970 C   0  0  0  0  0  0  0  0  0  0  0  0
   -1.0700   -0.2330    1.2620 C   0  0  0  0  0  0  0  0  0  0  0  0
   -0.8920   -0.8230    2.5530 C   0  0  0  0  0  0  0  0  0  0  0  0
    0.0800   -1.4480    2.9430 O   0  0  0  0  0  0  0  0  0  0  0  0
   -2.3160    0.3970    1.0200 C   0  0  0  0  0  0  0  0  0  0  0  0
   -2.6120    0.9660   -0.1940 C   0  0  0  0  0  0  0  0  0  0  0  0
   -3.9210    1.5990   -0.3710 C   0  0  0  0  0  0  0  0  0  0  0  0
   -4.4020    2.1940   -1.4350 C   0  0  0  0  0  0  0  0  0  0  0  0
   -5.7930    2.6990   -1.1610 C   0  0  0  0  0  0  0  0  0  0  0  0
   -6.0320    2.2980    0.2310 C   0  0  0  0  0  0  0  0  0  0  0  0
   -4.9640    1.6790    0.6570 C   0  0  0  0  0  0  0  0  0  0  0  0
  1  2  1  0
  2  3  2  0
  2 18  1  0
  3  4  1  0
  4  5  1  0
  4 14  2  0
  5  6  1  0
  6  7  2  0
  6  8  1  0
  8  9  1  0
  8 13  1  0
  9 10  1  0
 10 11  1  0
 11 12  1  0
 12 13  1  0
 14 15  1  0
 14 17  1  0
 15 16  2  0
 17 18  2  0
 18 19  1  0
 19 20  2  0
 19 23  1  0
 20 21  1  0
 21 22  1  0
 22 23  2  0
M  END
