
     RDKit          3D

 23 25  0  0  0  0  0  0  0  0999 V2000
   -3.0770   -1.6510    2.9370 C   0  0  0  0  0  0  0  0  0  0  0  0
   -3.7880   -0.9820    1.8180 C   0  0  0  0  0  0  0  0  0  0  0  0
   -5.1430   -1.0020    1.7290 C   0  0  0  0  0  0  0  0  0  0  0  0
   -5.8340   -0.4080    0.7520 C   0  0  0  0  0  0  0  0  0  0  0  0
   -5.1590    0.2820   -0.2480 C   0  0  0  0  0  0  0  0  0  0  0  0
   -5.9520    0.9250   -1.2810 C   0  0  0  0  0  0  0  0  0  0  0  0
   -5.3700    1.5880   -2.1650 O   0  0  0  0  0  0  0  0  0  0  0  0
   -3.7840    0.3100   -0.1690 C   0  0  0  0  0  0  0  0  0  0  0  0
   -3.0680   -0.2920    0.8160 C   0  0  0  0  0  0  0  0  0  0  0  0
   -1.6910   -0.3320    0.9180 N   0  0  0  0  0  0  0  0  0  0  0  0
   -0.7760    0.2190   -0.0960 C   0  0  0  0  0  0  0  0  0  0  0  0
   -1.1880    0.7630   -1.0550 O   0  0  0  0  0  0  0  0  0  0  0  0
    0.5910   -0.0600    0.3490 N   0  0  0  0  0  0  0  0  0  0  0  0
    1.3590    0.4850   -1.1400 C   0  0  0  0  0  0  0  0  0  0  0  0
    0.6300    0.7720   -1.9640 O   0  0  0  0  0  0  0  0  0  0  0  0
    2.7650    0.4410   -0.9740 C   0  0  0  0  0  0  0  0  0  0  0  0
    3.6060    0.6880   -2.0920 C   0  0  0  0  0  0  0  0  0  0  0  0
    4.9100    0.6440   -1.6820 C   0  0  0  0  0  0  0  0  0  0  0  0
    4.8960    0.3740   -0.3400 C   0  0  0  0  0  0  0  0  0  0  0  0
    3.6150    0.2600    0.0430 N   0  0  0  0  0  0  0  0  0  0  0  0
    6.1270    0.3180    0.1340 C   0  0  0  0  0  0  0  0  0  0  0  0
    7.0530    0.5730   -0.9950 C   0  0  0  0  0  0  0  0  0  0  0  0
    6.1320    0.7610   -2.1560 C   0  0  0  0  0  0  0  0  0  0  0  0
  1  2  1  0
  2  3  2  0
  2  9  1  0
  3  4  1  0
  4  5  2  0
  5  6  1  0
  5  8  1  0
  6  7  2  0
  8  9  2  0
  9 10  1  0
 10 11  1  0
 11 12  2  0
 11 13  1  0
 13 14  1  0
 14 15  2  0
 14 16  1  0
 16 17  2  0
 16 20  1  0
 17 18  1  0
 18 19  1  0
 18 23  2  0
 19 20  1  0
 19 21  2  0
 21 22  1  0
 22 23  1  0
M  END
