
     RDKit          3D

 26 28  0  0  0  0  0  0  0  0999 V2000
   -3.1410    0.7510   -2.6780 C   0  0  0  0  0  0  0  0  0  0  0  0
   -3.5270    0.4050   -1.2630 C   0  0  0  0  0  0  0  0  0  0  0  0
   -4.6040    0.7770   -0.6710 O   0  0  0  0  0  0  0  0  0  0  0  0
   -4.6650    0.3050    0.5990 C   0  0  0  0  0  0  0  0  0  0  0  0
   -5.7020    0.5920    1.3490 C   0  0  0  0  0  0  0  0  0  0  0  0
   -6.9940    1.6120    0.6190 Cl  0  0  0  0  0  0  0  0  0  0  0  0
   -6.0050    0.1330    2.9660 Cl  0  0  0  0  0  0  0  0  0  0  0  0
   -3.5240   -0.4160    0.7940 C   0  0  0  0  0  0  0  0  0  0  0  0
   -3.0360   -1.0970    1.7710 C   0  0  0  0  0  0  0  0  0  0  0  0
   -3.4380   -1.4350    3.1220 C   0  0  0  0  0  0  0  0  0  0  0  0
   -3.1390   -0.4470    4.1400 N   0  0  0  0  0  0  0  0  0  0  0  0
   -2.7710   -0.3560   -0.4230 C   0  0  0  0  0  0  0  0  0  0  0  0
   -1.5340   -0.9260   -0.7440 N   0  0  0  0  0  0  0  0  0  0  0  0
   -0.3000   -0.2190   -0.5120 C   0  0  0  0  0  0  0  0  0  0  0  0
   -0.4350    0.9160   -0.0130 O   0  0  0  0  0  0  0  0  0  0  0  0
    0.9230   -0.8180   -0.8440 N   0  0  0  0  0  0  0  0  0  0  0  0
    2.1780   -0.2070   -0.6480 C   0  0  0  0  0  0  0  0  0  0  0  0
    2.3660    0.9100    0.1280 C   0  0  0  0  0  0  0  0  0  0  0  0
    3.6340    1.4770    0.2640 C   0  0  0  0  0  0  0  0  0  0  0  0
    4.6880    0.8910   -0.3970 C   0  0  0  0  0  0  0  0  0  0  0  0
    5.9460    1.4400   -0.2720 C   0  0  0  0  0  0  0  0  0  0  0  0
    6.9830    0.8350   -0.9430 C   0  0  0  0  0  0  0  0  0  0  0  0
    6.8010   -0.2890   -1.7260 C   0  0  0  0  0  0  0  0  0  0  0  0
    5.5670   -0.8090   -1.8350 N   0  0  0  0  0  0  0  0  0  0  0  0
    4.5260   -0.2280   -1.1810 C   0  0  0  0  0  0  0  0  0  0  0  0
    3.2740   -0.7690   -1.3010 C   0  0  0  0  0  0  0  0  0  0  0  0
  1  2  1  0
  2  3  1  0
  2 12  2  0
  3  4  1  0
  4  5  2  3
  4  8  1  0
  5  6  1  0
  5  7  1  0
  8  9  2  3
  8 12  1  0
  9 10  1  0
 10 11  1  0
 12 13  1  0
 13 14  1  0
 14 15  2  0
 14 16  1  0
 16 17  1  0
 17 18  2  0
 17 26  1  0
 18 19  1  0
 19 20  2  0
 20 21  1  0
 20 25  1  0
 21 22  2  0
 22 23  1  0
 23 24  2  0
 24 25  1  0
 25 26  2  0
M  END
