
     RDKit          3D

  9  8  0  0  0  0  0  0  0  0999 V2000
    2.5670    1.4120    1.0560 O   0  0  0  0  0  0  0  0  0  0  0  0
    2.5310    0.4820    0.2110 C   0  0  0  0  0  0  0  0  0  0  0  0
    1.2880   -0.1700   -0.1610 C   0  0  0  0  0  0  0  0  0  0  0  0
    1.2680   -1.0950   -1.0040 O   0  0  0  0  0  0  0  0  0  0  0  0
    0.0980    0.2240    0.4160 O   0  0  0  0  0  0  0  0  0  0  0  0
   -1.0980   -0.3960    0.0670 C   0  0  0  0  0  0  0  0  0  0  0  0
   -2.2410    0.1900    0.8110 C   0  0  0  0  0  0  0  0  0  0  0  0
   -2.0160    1.1220    1.6230 O   0  0  0  0  0  0  0  0  0  0  0  0
   -3.5300   -0.2550    0.6380 O   0  0  0  0  0  0  0  0  0  0  0  0
  1  2  2  0
  2  3  1  0
  3  4  2  0
  3  5  1  0
  5  6  1  0
  6  7  1  0
  7  8  2  0
  7  9  1  0
M  CHG  1   9  -1
M  END
