
     RDKit          3D

 23 24  0  0  0  0  0  0  0  0999 V2000
    6.2530    1.2800   -0.2760 C   0  0  0  0  0  0  0  0  0  0  0  0
    5.4170    0.0430    0.7250 S   0  0  0  0  0  0  0  0  0  0  0  0
    3.6530    0.0480    0.3580 C   0  0  0  0  0  0  0  0  0  0  0  0
    3.2330    0.8840   -0.5100 N   0  0  0  0  0  0  0  0  0  0  0  0
    1.5980    0.9880   -0.9420 S   0  0  2  0  0  0  0  0  0  0  0  0
    1.4430    0.7220   -2.4100 O   0  0  0  0  0  0  0  0  0  0  0  0
    1.0630    2.3410   -0.5810 O   0  0  0  0  0  0  0  0  0  0  0  0
    0.7340   -0.2440   -0.0030 C   0  0  0  0  0  0  0  0  0  0  0  0
   -0.6690   -0.4330   -0.2480 C   0  0  0  0  0  0  0  0  0  0  0  0
   -1.1980   -1.6400   -0.6300 C   0  0  0  0  0  0  0  0  0  0  0  0
   -2.5470   -1.8290   -0.8400 C   0  0  0  0  0  0  0  0  0  0  0  0
   -3.3910   -0.7560   -0.6580 C   0  0  0  0  0  0  0  0  0  0  0  0
   -2.8590    0.4540   -0.2750 C   0  0  0  0  0  0  0  0  0  0  0  0
   -3.7070    1.6490   -0.0450 C   0  0  0  0  0  0  0  0  0  0  0  0
   -5.1650    1.4100   -0.2180 C   0  0  0  0  0  0  0  0  0  0  0  0
   -5.5580    0.4430    0.6890 F   0  0  0  0  0  0  0  0  0  0  0  0
   -1.5350    0.5830   -0.0840 N   0  0  0  0  0  0  0  0  0  0  0  0
    1.4060   -0.9760    0.8280 C   0  0  0  0  0  0  0  0  0  0  0  0
    0.7170   -2.0230    1.6440 C   0  0  2  0  0  0  0  0  0  0  0  0
    1.2690   -1.8990    2.9520 F   0  0  0  0  0  0  0  0  0  0  0  0
    1.0290   -3.2940    1.2330 F   0  0  0  0  0  0  0  0  0  0  0  0
   -0.6130   -1.7890    1.8430 F   0  0  0  0  0  0  0  0  0  0  0  0
    2.8330   -0.8610    1.0290 N   0  0  0  0  0  0  0  0  0  0  0  0
  1  2  1  0
  2  3  1  0
  3  4  2  0
  3 23  1  0
  5  4  1  1
  5  6  2  0
  5  7  2  0
  5  8  1  0
  8  9  1  0
  8 18  2  0
  9 10  2  0
  9 17  1  0
 10 11  1  0
 11 12  2  0
 12 13  1  0
 13 14  1  0
 13 17  2  0
 14 15  1  0
 15 16  1  0
 18 19  1  0
 18 23  1  0
 19 20  1  1
 19 21  1  0
 19 22  1  0
M  END
