
     RDKit          3D

 23 24  0  0  0  0  0  0  0  0999 V2000
   -1.5330   -2.2070   -1.8450 C   0  0  0  0  0  0  0  0  0  0  0  0
   -2.2030   -1.1360   -1.0320 C   0  0  0  0  0  0  0  0  0  0  0  0
   -3.5250   -1.0640   -0.6490 C   0  0  0  0  0  0  0  0  0  0  0  0
   -3.6860    0.0920    0.0840 C   0  0  0  0  0  0  0  0  0  0  0  0
   -4.6270    0.7920    0.7450 N   0  0  0  0  0  0  0  0  0  0  0  0
   -3.9950    1.8820    1.2350 C   0  0  0  0  0  0  0  0  0  0  0  0
   -4.7030    3.0480    2.1140 S   0  0  0  0  0  0  0  0  0  0  0  0
   -2.7030    1.8480    0.8820 N   0  0  0  0  0  0  0  0  0  0  0  0
   -2.4910    0.7510    0.1710 N   0  0  0  0  0  0  0  0  0  0  0  0
   -1.6090   -0.0040   -0.5070 C   0  0  0  0  0  0  0  0  0  0  0  0
    0.0860    0.3930   -0.7000 S   0  0  1  0  0  0  0  0  0  0  0  0
    0.5060    0.0930   -2.0760 O   0  0  0  0  0  0  0  0  0  0  0  0
    0.1830    1.9230   -0.5510 O   0  0  0  0  0  0  0  0  0  0  0  0
    1.0360   -0.2700    0.6070 C   0  0  0  0  0  0  0  0  0  0  0  0
    2.4820   -0.0100    0.5250 C   0  0  0  0  0  0  0  0  0  0  0  0
    3.3990   -0.5630   -0.4220 C   0  0  0  0  0  0  0  0  0  0  0  0
    3.0520   -1.4100   -1.3530 C   0  0  0  0  0  0  0  0  0  0  0  0
    3.9840   -1.9090   -2.2470 F   0  0  0  0  0  0  0  0  0  0  0  0
    3.0020    0.8170    1.4570 C   0  0  0  0  0  0  0  0  0  0  0  0
    4.4170    1.1870    1.5290 C   0  0  1  0  0  0  0  0  0  0  0  0
    4.7720    1.8300    0.3560 F   0  0  0  0  0  0  0  0  0  0  0  0
    4.6650    2.1060    2.5400 F   0  0  0  0  0  0  0  0  0  0  0  0
    5.2360    0.0860    1.7010 F   0  0  0  0  0  0  0  0  0  0  0  0
  1  2  1  0
  2  3  1  0
  2 10  2  0
  3  4  2  0
  4  5  1  0
  4  9  1  0
  5  6  1  0
  6  7  2  0
  6  8  1  0
  8  9  1  0
  9 10  1  0
 10 11  1  0
 11 12  2  0
 11 13  2  0
 11 14  1  1
 14 15  1  0
 15 16  1  0
 15 19  2  3
 16 17  2  3
 17 18  1  0
 19 20  1  0
 20 21  1  6
 20 22  1  0
 20 23  1  0
M  END
