
     RDKit          3D

 23 24  0  0  0  0  0  0  0  0999 V2000
    2.8620   -3.9100    1.1370 N   0  0  0  0  0  0  0  0  0  0  0  0
    2.8400   -2.8040    0.7310 C   0  0  0  0  0  0  0  0  0  0  0  0
    2.7950   -1.4230    0.2030 C   0  0  0  0  0  0  0  0  0  0  0  0
    1.6300   -0.8100    0.0500 C   0  0  0  0  0  0  0  0  0  0  0  0
    0.2850   -1.3110    0.3380 N   0  0  0  0  0  0  0  0  0  0  0  0
   -0.7960   -0.4180    0.0700 C   0  0  0  0  0  0  0  0  0  0  0  0
   -0.4830    0.6960   -0.3800 O   0  0  0  0  0  0  0  0  0  0  0  0
   -2.1340   -0.8030    0.3100 N   0  0  0  0  0  0  0  0  0  0  0  0
   -3.2750    0.0180    0.1030 C   0  0  0  0  0  0  0  0  0  0  0  0
   -4.4940   -0.4220    0.3110 C   0  0  0  0  0  0  0  0  0  0  0  0
   -4.7910   -1.7070    0.7550 F   0  0  0  0  0  0  0  0  0  0  0  0
   -5.6070    0.4800   -0.0280 C   0  0  0  0  0  0  0  0  0  0  0  0
   -4.7150    1.5490   -1.2810 S   0  0  0  0  0  0  0  0  0  0  0  0
   -3.1960    1.4230   -0.2440 C   0  0  0  0  0  0  0  0  0  0  0  0
   -2.4830    2.4350    0.0720 C   0  0  0  0  0  0  0  0  0  0  0  0
   -2.7560    3.6450   -0.5330 F   0  0  0  0  0  0  0  0  0  0  0  0
    2.0290    0.7490   -0.5780 S   0  0  0  0  0  0  0  0  0  0  0  0
    3.8140    0.4920   -0.6060 C   0  0  0  0  0  0  0  0  0  0  0  0
    4.8350    1.4900   -1.0620 C   0  0  2  0  0  0  0  0  0  0  0  0
    4.8110    2.6100   -0.2430 F   0  0  0  0  0  0  0  0  0  0  0  0
    4.5940    1.8680   -2.3720 F   0  0  0  0  0  0  0  0  0  0  0  0
    3.9410   -0.7820   -0.1250 C   0  0  0  0  0  0  0  0  0  0  0  0
    5.2650   -1.3060   -0.0180 O   0  0  0  0  0  0  0  0  0  0  0  0
  1  2  3  0
  2  3  1  0
  3  4  2  0
  3 22  1  0
  4  5  1  0
  4 17  1  0
  5  6  1  0
  6  7  2  0
  6  8  1  0
  8  9  1  0
  9 10  2  0
  9 14  1  0
 10 11  1  0
 10 12  1  0
 12 13  1  0
 13 14  1  0
 14 15  2  3
 15 16  1  0
 17 18  1  0
 18 19  1  0
 18 22  2  0
 19 20  1  1
 19 21  1  0
 22 23  1  0
M  END
