
     RDKit          3D

 18 19  0  0  0  0  0  0  0  0999 V2000
    6.5190    0.3270    0.1830 C   0  0  0  0  0  0  0  0  0  0  0  0
    5.7180   -0.2930   -1.3450 S   0  0  0  0  0  0  0  0  0  0  0  0
    3.9670   -0.2760   -1.0530 C   0  0  0  0  0  0  0  0  0  0  0  0
    3.3650   -1.3850   -0.5210 C   0  0  0  0  0  0  0  0  0  0  0  0
    1.9900   -1.3500   -0.3010 C   0  0  0  0  0  0  0  0  0  0  0  0
    1.2410   -0.2330   -0.6070 C   0  0  0  0  0  0  0  0  0  0  0  0
   -0.1820   -0.2030   -0.3760 N   0  0  0  0  0  0  0  0  0  0  0  0
   -0.4860    0.3100    0.9380 C   0  0  0  0  0  0  0  0  0  0  0  0
   -1.7680   -0.2710    1.4820 C   0  0  0  0  0  0  0  0  0  0  0  0
   -2.9100    0.0120    0.6690 N   0  0  0  0  0  0  0  0  0  0  0  0
   -3.3970   -0.8090   -0.4220 C   0  0  0  0  0  0  0  0  0  0  0  0
   -4.7410   -0.2430   -0.8160 C   0  0  0  0  0  0  0  0  0  0  0  0
   -5.0470    0.8750    0.1220 C   0  0  0  0  0  0  0  0  0  0  0  0
   -3.7550    1.1480    0.7990 C   0  0  0  0  0  0  0  0  0  0  0  0
   -3.3990    2.2070    1.4130 O   0  0  0  0  0  0  0  0  0  0  0  0
    1.8910    0.8230   -1.1260 N   0  0  0  0  0  0  0  0  0  0  0  0
    3.2170    0.8270   -1.3530 C   0  0  0  0  0  0  0  0  0  0  0  0
    3.7310    1.8870   -1.8510 O   0  0  0  0  0  0  0  0  0  0  0  0
  1  2  1  0
  2  3  1  0
  3  4  2  0
  3 17  1  0
  4  5  1  0
  5  6  2  0
  6  7  1  0
  6 16  1  0
  7  8  1  0
  8  9  1  0
  9 10  1  0
 10 11  1  0
 10 14  1  0
 11 12  1  0
 12 13  1  0
 13 14  1  0
 14 15  2  0
 16 17  1  0
 17 18  2  0
M  CHG  1   7   1
M  END
