
     RDKit          3D

 11 12  0  0  0  0  0  0  0  0999 V2000
    3.5230    1.0300    0.0090 O   0  0  0  0  0  0  0  0  0  0  0  0
    3.1140   -0.2630   -0.2470 C   0  0  0  0  0  0  0  0  0  0  0  0
    1.6400   -0.4080   -0.2180 C   0  0  0  0  0  0  0  0  0  0  0  0
    1.0070   -1.6130   -0.4460 C   0  0  0  0  0  0  0  0  0  0  0  0
   -0.3150   -1.3970   -0.3460 N   0  0  0  0  0  0  0  0  0  0  0  0
   -0.4990   -0.1010   -0.0650 C   0  0  0  0  0  0  0  0  0  0  0  0
   -1.8100    0.5450    0.1250 C   0  0  0  0  0  0  0  0  0  0  0  0
   -2.2370    1.7660    0.4010 C   0  0  0  0  0  0  0  0  0  0  0  0
   -3.6230    1.3410    0.3680 C   0  0  0  0  0  0  0  0  0  0  0  0
   -3.1970    0.1100    0.0900 C   0  0  0  0  0  0  0  0  0  0  0  0
    0.6850    0.5080    0.0150 N   0  0  0  0  0  0  0  0  0  0  0  0
  1  2  1  0
  2  3  1  0
  3  4  2  0
  3 11  1  0
  4  5  1  0
  5  6  1  0
  6  7  1  0
  6 11  2  0
  7  8  2  0
  7 10  1  0
  8  9  1  0
  9 10  2  0
M  END
