
     RDKit          3D

 11 12  0  0  0  0  0  0  0  0999 V2000
    2.2320    1.3760   -0.4270 C   0  0  0  0  0  0  0  0  0  0  0  0
    0.9060    1.2520   -0.3670 C   0  0  0  0  0  0  0  0  0  0  0  0
    0.2580    0.0040   -0.0110 C   0  0  0  0  0  0  0  0  0  0  0  0
   -1.1890   -0.1320    0.0550 C   0  0  0  0  0  0  0  0  0  0  0  0
   -2.0530    0.9100   -0.2140 C   0  0  0  0  0  0  0  0  0  0  0  0
   -3.3200    0.4030   -0.0490 C   0  0  0  0  0  0  0  0  0  0  0  0
   -3.1870   -0.8880    0.3020 N   0  0  0  0  0  0  0  0  0  0  0  0
   -1.9230   -1.2130    0.3670 N   0  0  0  0  0  0  0  0  0  0  0  0
    0.9900   -1.0580    0.2660 C   0  0  0  0  0  0  0  0  0  0  0  0
    2.4870   -1.0050    0.2220 C   0  0  0  0  0  0  0  0  0  0  0  0
    2.9770    0.2560   -0.1340 O   0  0  0  0  0  0  0  0  0  0  0  0
  1  2  2  0
  1 11  1  0
  2  3  1  0
  3  4  1  0
  3  9  2  0
  4  5  2  0
  4  8  1  0
  5  6  1  0
  6  7  2  0
  7  8  1  0
  9 10  1  0
 10 11  1  0
M  END
