
     RDKit          3D

 11 11  0  0  0  0  0  0  0  0999 V2000
    3.5510    0.7730   -0.4040 C   0  0  0  0  0  0  0  0  0  0  0  0
    2.3320   -0.0670   -0.1160 C   0  0  0  0  0  0  0  0  0  0  0  0
    1.1220    0.6700   -0.3180 N   0  0  0  0  0  0  0  0  0  0  0  0
   -0.1290    0.0340   -0.0920 C   0  0  0  0  0  0  0  0  0  0  0  0
   -1.3060    0.6760   -0.2660 N   0  0  0  0  0  0  0  0  0  0  0  0
   -2.4690    0.0760   -0.0530 C   0  0  0  0  0  0  0  0  0  0  0  0
   -3.7210    0.8800   -0.2750 C   0  0  0  0  0  0  0  0  0  0  0  0
   -2.4950   -1.1930    0.3420 N   0  0  0  0  0  0  0  0  0  0  0  0
   -1.3550   -1.8880    0.5320 C   0  0  0  0  0  0  0  0  0  0  0  0
   -1.3470   -3.4470    1.0170 S   0  0  0  0  0  0  0  0  0  0  0  0
   -0.1920   -1.2520    0.3090 N   0  0  0  0  0  0  0  0  0  0  0  0
  1  2  1  0
  2  3  1  0
  3  4  1  0
  4  5  2  0
  4 11  1  0
  5  6  1  0
  6  7  1  0
  6  8  2  0
  8  9  1  0
  9 10  2  0
  9 11  1  0
M  END
