
     RDKit          3D

 27 29  0  0  0  0  0  0  0  0999 V2000
   -3.6090   -0.8890   -2.6960 N   0  0  0  0  0  0  0  0  0  0  0  0
   -3.0020    0.3790   -2.5930 C   0  0  0  0  0  0  0  0  0  0  0  0
   -2.8870    1.1710   -3.7640 N   0  0  0  0  0  0  0  0  0  0  0  0
   -2.5480    0.8520   -1.4880 N   0  0  0  0  0  0  0  0  0  0  0  0
   -2.6670    0.0460   -0.3070 C   0  0  2  0  0  0  0  0  0  0  0  0
   -3.9260    0.3980    0.5010 C   0  0  0  0  0  0  0  0  0  0  0  0
   -3.5670   -0.2170    1.8040 C   0  0  0  0  0  0  0  0  0  0  0  0
   -4.3550   -0.7330    2.8090 C   0  0  0  0  0  0  0  0  0  0  0  0
   -3.7980   -1.2720    3.9680 C   0  0  0  0  0  0  0  0  0  0  0  0
   -2.4280   -1.2850    4.1050 C   0  0  0  0  0  0  0  0  0  0  0  0
   -1.6520   -0.7620    3.0850 C   0  0  0  0  0  0  0  0  0  0  0  0
   -2.1950   -0.2310    1.9440 C   0  0  0  0  0  0  0  0  0  0  0  0
   -1.6050    0.3770    0.7350 C   0  0  1  0  0  0  0  0  0  0  0  0
   -0.3270   -0.1550    0.3900 N   0  0  0  0  0  0  0  0  0  0  0  0
    0.7790    0.7170    0.2890 C   0  0  0  0  0  0  0  0  0  0  0  0
    0.6990    1.9540    0.4880 O   0  0  0  0  0  0  0  0  0  0  0  0
    2.0960    0.1400   -0.0710 C   0  0  0  0  0  0  0  0  0  0  0  0
    2.1540   -1.0850   -0.2640 O   0  0  0  0  0  0  0  0  0  0  0  0
    3.2300    0.9500   -0.1880 N   0  0  0  0  0  0  0  0  0  0  0  0
    4.5070    0.4670   -0.5300 C   0  0  0  0  0  0  0  0  0  0  0  0
    5.6200    1.3170   -0.3710 C   0  0  0  0  0  0  0  0  0  0  0  0
    6.9020    0.9610   -0.6840 C   0  0  0  0  0  0  0  0  0  0  0  0
    7.1730   -0.2900   -1.1880 C   0  0  0  0  0  0  0  0  0  0  0  0
    8.8100   -0.7350   -1.5840 Cl  0  0  0  0  0  0  0  0  0  0  0  0
    6.1090   -1.1410   -1.3550 C   0  0  0  0  0  0  0  0  0  0  0  0
    6.3650   -2.3860   -1.8540 F   0  0  0  0  0  0  0  0  0  0  0  0
    4.8030   -0.7700   -1.0330 C   0  0  0  0  0  0  0  0  0  0  0  0
  1  2  1  0
  2  3  1  0
  2  4  2  3
  5  4  1  6
  5  6  1  0
  5 13  1  0
  6  7  1  0
  7  8  2  0
  7 12  1  0
  8  9  1  0
  9 10  2  0
 10 11  1  0
 11 12  2  0
 12 13  1  0
 13 14  1  6
 14 15  1  0
 15 16  2  0
 15 17  1  0
 17 18  2  0
 17 19  1  0
 19 20  1  0
 20 21  2  0
 20 27  1  0
 21 22  1  0
 22 23  2  0
 23 24  1  0
 23 25  1  0
 25 26  1  0
 25 27  2  0
M  CHG  1   4   1
M  END
