
     RDKit          3D

 11 11  0  0  0  0  0  0  0  0999 V2000
   -2.1380    1.4260    0.0910 C   0  0  0  0  0  0  0  0  0  0  0  0
   -1.7550    0.0320   -0.2290 C   0  0  1  0  0  0  0  0  0  0  0  0
   -2.0930   -0.9520    0.8890 C   0  0  0  0  0  0  0  0  0  0  0  0
   -2.7690   -0.5030   -1.6640 S   0  0  0  0  0  0  0  0  0  0  0  0
   -0.3300   -0.1730   -0.5960 C   0  0  0  0  0  0  0  0  0  0  0  0
    0.6200    0.1910    0.3920 N   0  0  0  0  0  0  0  0  0  0  0  0
    2.0070    0.0360    0.1440 C   0  0  0  0  0  0  0  0  0  0  0  0
    3.0720    0.3310    0.9730 C   0  0  0  0  0  0  0  0  0  0  0  0
    4.2230    0.0320    0.3490 N   0  0  0  0  0  0  0  0  0  0  0  0
    3.9070   -0.4400   -0.8440 N   0  0  0  0  0  0  0  0  0  0  0  0
    2.5980   -0.4480   -0.9900 N   0  0  0  0  0  0  0  0  0  0  0  0
  2  1  1  1
  2  3  1  0
  2  4  1  0
  2  5  1  0
  5  6  1  0
  6  7  1  0
  7  8  2  0
  7 11  1  0
  8  9  1  0
  9 10  1  0
 10 11  2  0
M  END
