
     RDKit          3D

 11 11  0  0  0  0  0  0  0  0999 V2000
   -2.8700   -0.9820    0.9220 C   0  0  0  0  0  0  0  0  0  0  0  0
   -2.1610   -0.9340   -0.4350 C   0  0  0  0  0  0  0  0  0  0  0  0
   -0.8650   -0.2150   -0.3050 C   0  0  0  0  0  0  0  0  0  0  0  0
   -0.8700    1.1160   -0.4990 N   0  0  0  0  0  0  0  0  0  0  0  0
    0.2530    1.8240   -0.3980 C   0  0  0  0  0  0  0  0  0  0  0  0
    0.1980    3.2150   -0.6100 N   0  0  0  0  0  0  0  0  0  0  0  0
    1.4190    1.1820   -0.0940 N   0  0  0  0  0  0  0  0  0  0  0  0
    1.4410   -0.1480    0.1040 C   0  0  0  0  0  0  0  0  0  0  0  0
    2.7390   -0.7910    0.4330 C   0  0  0  0  0  0  0  0  0  0  0  0
    3.6310   -1.3230   -1.0320 S   0  0  0  0  0  0  0  0  0  0  0  0
    0.2920   -0.8310   -0.0050 N   0  0  0  0  0  0  0  0  0  0  0  0
  1  2  1  0
  2  3  1  0
  3  4  2  0
  3 11  1  0
  4  5  1  0
  5  6  1  0
  5  7  2  0
  7  8  1  0
  8  9  1  0
  8 11  2  0
  9 10  1  0
M  END
