
     RDKit          3D

 18 20  0  0  0  0  0  0  0  0999 V2000
    0.8970   -1.4100   -1.9130 O   0  0  0  0  0  0  0  0  0  0  0  0
    1.8940   -0.9950   -1.3060 C   0  0  0  0  0  0  0  0  0  0  0  0
    3.0860   -1.4290   -1.7850 N   0  0  0  0  0  0  0  0  0  0  0  0
    4.2520   -1.0740   -1.2450 C   0  0  0  0  0  0  0  0  0  0  0  0
    4.2420   -0.2430   -0.1690 N   0  0  0  0  0  0  0  0  0  0  0  0
    5.2460    0.2680    0.5620 N   0  0  0  0  0  0  0  0  0  0  0  0
    4.7550    1.0450    1.5370 C   0  0  0  0  0  0  0  0  0  0  0  0
    3.4220    1.0030    1.3900 N   0  0  0  0  0  0  0  0  0  0  0  0
    3.0990    0.2100    0.3390 C   0  0  0  0  0  0  0  0  0  0  0  0
    1.8800   -0.1630   -0.2280 C   0  0  0  0  0  0  0  0  0  0  0  0
    0.6760    0.3510    0.3550 C   0  0  0  0  0  0  0  0  0  0  0  0
   -0.5370    0.0840   -0.0750 C   0  0  0  0  0  0  0  0  0  0  0  0
   -1.6450    0.7250    0.6800 C   0  0  0  0  0  0  0  0  0  0  0  0
   -2.8760    0.4820    0.2800 C   0  0  0  0  0  0  0  0  0  0  0  0
   -4.0930    1.0190    0.8930 C   0  0  0  0  0  0  0  0  0  0  0  0
   -5.1490    0.3100    0.5260 C   0  0  0  0  0  0  0  0  0  0  0  0
   -4.7080   -0.7850   -0.3850 C   0  0  0  0  0  0  0  0  0  0  0  0
   -3.3370   -0.3670   -0.8510 C   0  0  0  0  0  0  0  0  0  0  0  0
  1  2  2  0
  2  3  1  0
  2 10  1  0
  3  4  2  0
  4  5  1  0
  5  6  1  0
  5  9  1  0
  6  7  1  0
  7  8  2  0
  8  9  1  0
  9 10  2  0
 10 11  1  0
 11 12  2  3
 12 13  1  0
 13 14  2  3
 14 15  1  0
 14 18  1  0
 15 16  2  0
 16 17  1  0
 17 18  1  0
M  END
