
     RDKit          3D

 18 20  0  0  0  0  0  0  0  0999 V2000
   -4.4470   -1.2680    1.2840 C   0  0  0  0  0  0  0  0  0  0  0  0
   -3.9610   -0.3610    0.2800 N   0  0  0  0  0  0  0  0  0  0  0  0
   -4.7410    0.3620   -0.5350 C   0  0  0  0  0  0  0  0  0  0  0  0
   -3.9040    1.0990   -1.3450 C   0  0  0  0  0  0  0  0  0  0  0  0
   -2.6110    0.7910   -0.9850 C   0  0  0  0  0  0  0  0  0  0  0  0
   -1.3650    1.1930   -1.4180 C   0  0  0  0  0  0  0  0  0  0  0  0
   -0.2310    0.6970   -0.8510 N   0  0  0  0  0  0  0  0  0  0  0  0
   -0.2740   -0.1910    0.1370 C   0  0  0  0  0  0  0  0  0  0  0  0
    0.9020   -0.7040    0.7270 N   0  0  0  0  0  0  0  0  0  0  0  0
    2.2230   -0.3790    0.3750 C   0  0  0  0  0  0  0  0  0  0  0  0
    2.6200    0.2990   -0.7500 C   0  0  0  0  0  0  0  0  0  0  0  0
    3.9700    0.5890   -0.9930 C   0  0  0  0  0  0  0  0  0  0  0  0
    4.9590    0.2070   -0.1190 C   0  0  0  0  0  0  0  0  0  0  0  0
    6.3050    0.5060   -0.3800 O   0  0  0  0  0  0  0  0  0  0  0  0
    4.5790   -0.4750    1.0120 C   0  0  0  0  0  0  0  0  0  0  0  0
    3.2530   -0.7540    1.2430 C   0  0  0  0  0  0  0  0  0  0  0  0
   -1.5040   -0.5870    0.5620 N   0  0  0  0  0  0  0  0  0  0  0  0
   -2.6500   -0.1270    0.0360 C   0  0  0  0  0  0  0  0  0  0  0  0
  1  2  1  0
  2  3  1  0
  2 18  1  0
  3  4  2  0
  4  5  1  0
  5  6  2  0
  5 18  1  0
  6  7  1  0
  7  8  2  0
  8  9  1  0
  8 17  1  0
  9 10  1  0
 10 11  2  0
 10 16  1  0
 11 12  1  0
 12 13  2  0
 13 14  1  0
 13 15  1  0
 15 16  2  0
 17 18  2  0
M  END
