
     RDKit          3D

 18 20  0  0  0  0  0  0  0  0999 V2000
   -4.6880    0.1110    1.0040 C   0  0  0  0  0  0  0  0  0  0  0  0
   -3.8160   -0.9070    0.3890 C   0  0  0  0  0  0  0  0  0  0  0  0
   -4.0800   -2.1800    0.2900 O   0  0  0  0  0  0  0  0  0  0  0  0
   -3.1370   -2.8280   -0.2930 N   0  0  0  0  0  0  0  0  0  0  0  0
   -2.1680   -1.9440   -0.6140 C   0  0  0  0  0  0  0  0  0  0  0  0
   -2.5810   -0.7050   -0.1860 C   0  0  0  0  0  0  0  0  0  0  0  0
   -1.8950    0.5280   -0.3190 N   0  0  0  0  0  0  0  0  0  0  0  0
   -0.6020    0.6190   -0.8940 C   0  0  1  0  0  0  0  0  0  0  0  0
   -0.1750    2.0930   -1.0940 C   0  0  0  0  0  0  0  0  0  0  0  0
    1.2470    1.8480   -1.5740 C   0  0  0  0  0  0  0  0  0  0  0  0
    1.7210    0.8320   -0.6020 C   0  0  0  0  0  0  0  0  0  0  0  0
    2.9970    0.5500   -0.3420 C   0  0  0  0  0  0  0  0  0  0  0  0
    3.5180   -0.4110    0.5780 N   0  0  0  0  0  0  0  0  0  0  0  0
    4.8210   -0.9460    0.2770 C   0  0  0  0  0  0  0  0  0  0  0  0
    2.8540   -0.8530    1.7240 N   0  0  0  0  0  0  0  0  0  0  0  0
    1.5840   -0.9110    1.9870 C   0  0  0  0  0  0  0  0  0  0  0  0
    0.4790   -0.5030    1.0900 C   0  0  0  0  0  0  0  0  0  0  0  0
    0.5190    0.2160    0.0010 C   0  0  0  0  0  0  0  0  0  0  0  0
  1  2  1  0
  2  3  1  0
  2  6  2  0
  3  4  1  0
  4  5  2  0
  5  6  1  0
  6  7  1  0
  8  7  1  1
  8  9  1  0
  8 18  1  0
  9 10  1  0
 10 11  1  0
 11 12  2  0
 11 18  1  0
 12 13  1  0
 13 14  1  0
 13 15  1  0
 15 16  2  0
 16 17  1  0
 17 18  2  0
M  END
