
     RDKit          3D

 18 20  0  0  0  0  0  0  0  0999 V2000
   -4.3960   -1.3860    1.1860 C   0  0  0  0  0  0  0  0  0  0  0  0
   -3.1170   -1.0770    1.0560 C   0  0  0  0  0  0  0  0  0  0  0  0
   -2.6500   -0.1740    0.0110 C   0  0  0  0  0  0  0  0  0  0  0  0
   -1.2910    0.1720   -0.1510 N   0  0  0  0  0  0  0  0  0  0  0  0
   -0.4390   -0.6280   -1.0090 C   0  0  0  0  0  0  0  0  0  0  0  0
    0.9620   -0.5810   -0.3890 C   0  0  0  0  0  0  0  0  0  0  0  0
    1.4610    0.7590   -0.4430 N   0  0  0  0  0  0  0  0  0  0  0  0
    2.5530    0.9650    0.5030 C   0  0  0  0  0  0  0  0  0  0  0  0
    3.6320   -0.0070    0.1080 C   0  0  0  0  0  0  0  0  0  0  0  0
    3.7710   -1.2990    0.5750 C   0  0  0  0  0  0  0  0  0  0  0  0
    4.8670   -1.8070   -0.0390 N   0  0  0  0  0  0  0  0  0  0  0  0
    5.3810   -0.8840   -0.8420 N   0  0  0  0  0  0  0  0  0  0  0  0
    4.6500    0.2430   -0.7820 C   0  0  0  0  0  0  0  0  0  0  0  0
    0.4560    1.7760   -0.3650 C   0  0  0  0  0  0  0  0  0  0  0  0
   -0.6880    1.3130    0.5120 C   0  0  0  0  0  0  0  0  0  0  0  0
   -3.5230    0.3460   -0.8210 C   0  0  0  0  0  0  0  0  0  0  0  0
   -4.9600    0.0350   -0.7180 C   0  0  0  0  0  0  0  0  0  0  0  0
   -5.2980   -0.8390    0.3150 O   0  0  0  0  0  0  0  0  0  0  0  0
  1  2  2  0
  1 18  1  0
  2  3  1  0
  3  4  1  0
  3 16  2  0
  4  5  1  0
  4 15  1  0
  5  6  1  0
  6  7  1  0
  7  8  1  0
  7 14  1  0
  8  9  1  0
  9 10  1  0
  9 13  2  0
 10 11  2  0
 11 12  1  0
 12 13  1  0
 14 15  1  0
 16 17  1  0
 17 18  1  0
M  END
