
     RDKit          3D

 25 26  0  0  0  0  0  0  0  0999 V2000
    6.7980    2.6550    1.1320 O   0  0  0  0  0  0  0  0  0  0  0  0
    5.7440    2.0930    0.7550 C   0  0  0  0  0  0  0  0  0  0  0  0
    5.8060    0.8240    0.2200 C   0  0  0  0  0  0  0  0  0  0  0  0
    4.6520    0.2060   -0.1910 C   0  0  0  0  0  0  0  0  0  0  0  0
    3.4460    0.8020   -0.0980 N   0  0  0  0  0  0  0  0  0  0  0  0
    2.2860    0.0840   -0.5250 C   0  0  2  0  0  0  0  0  0  0  0  0
    1.1140    0.5480    0.1400 O   0  0  0  0  0  0  0  0  0  0  0  0
    0.2780   -0.4920    0.1230 C   0  0  2  0  0  0  0  0  0  0  0  0
   -0.7970   -0.6890    1.1180 C   0  0  0  0  0  0  0  0  0  0  0  0
   -1.8440    0.2120    0.8490 O   0  0  0  0  0  0  0  0  0  0  0  0
   -3.1400   -0.5510    0.2020 P   0  0  0  0  0  0  0  0  0  0  0  0
   -4.2110   -1.4720    1.0110 O   0  0  0  0  0  0  0  0  0  0  0  0
   -2.3360   -1.7970   -0.2760 O   0  0  0  0  0  0  0  0  0  0  0  0
   -4.0220    0.6690    0.4610 O   0  0  0  0  0  0  0  0  0  0  0  0
   -5.3540    1.0510   -0.1910 P   0  0  0  0  0  0  0  0  0  0  0  0
   -6.1950   -0.1200    0.4990 O   0  0  0  0  0  0  0  0  0  0  0  0
   -5.2350    2.5550    0.5030 O   0  0  0  0  0  0  0  0  0  0  0  0
   -4.6340    0.8290   -1.6910 O   0  0  0  0  0  0  0  0  0  0  0  0
    0.9450   -1.7820   -0.1990 C   0  0  1  0  0  0  0  0  0  0  0  0
    0.8490   -2.0720   -1.5640 O   0  0  0  0  0  0  0  0  0  0  0  0
    2.3950   -1.3110    0.0640 C   0  0  1  0  0  0  0  0  0  0  0  0
    3.2470   -2.1860   -0.5470 O   0  0  0  0  0  0  0  0  0  0  0  0
    3.4050    2.0360    0.4280 C   0  0  0  0  0  0  0  0  0  0  0  0
    2.2700    2.6200    0.5380 O   0  0  0  0  0  0  0  0  0  0  0  0
    4.5140    2.6770    0.8460 N   0  0  0  0  0  0  0  0  0  0  0  0
  1  2  2  0
  2  3  1  0
  2 25  1  0
  3  4  2  0
  4  5  1  0
  6  5  1  1
  5 23  1  0
  6  7  1  0
  6 21  1  0
  7  8  1  0
  8  9  1  1
  8 19  1  0
  9 10  1  0
 10 11  1  0
 11 12  1  0
 11 13  1  0
 11 14  1  0
 14 15  1  0
 15 16  1  0
 15 17  1  0
 15 18  1  0
 19 20  1  6
 19 21  1  0
 21 22  1  6
 23 24  2  0
 23 25  1  0
M  END
