
     RDKit          3D

 23 24  0  0  0  0  0  0  0  0999 V2000
    1.4100   -0.3280    0.6030 O   0  0  0  0  0  0  0  0  0  0  0  0
    1.7670   -0.7730   -0.5120 C   0  0  0  0  0  0  0  0  0  0  0  0
    0.8440   -1.2230   -1.5630 C   0  0  0  0  0  0  0  0  0  0  0  0
   -0.4990   -1.0540   -1.1650 O   0  0  0  0  0  0  0  0  0  0  0  0
   -0.9540    0.2320   -0.8830 C   0  0  0  0  0  0  0  0  0  0  0  0
   -0.2990    1.4430   -0.9330 C   0  0  0  0  0  0  0  0  0  0  0  0
   -1.1570    2.3840   -0.5720 O   0  0  0  0  0  0  0  0  0  0  0  0
   -2.3120    1.8780   -0.2950 C   0  0  0  0  0  0  0  0  0  0  0  0
   -2.2550    0.5320   -0.4690 C   0  0  0  0  0  0  0  0  0  0  0  0
   -3.2280   -0.4320   -0.2980 O   0  0  0  0  0  0  0  0  0  0  0  0
   -4.5290   -0.1780    0.1110 C   0  0  2  0  0  0  0  0  0  0  0  0
   -4.8560   -0.8630    1.4460 C   0  0  0  0  0  0  0  0  0  0  0  0
   -5.9470   -0.0810    1.9640 O   0  0  0  0  0  0  0  0  0  0  0  0
   -6.7640    0.4670    0.9550 C   0  0  0  0  0  0  0  0  0  0  0  0
   -7.4530    1.5030    1.1550 O   0  0  0  0  0  0  0  0  0  0  0  0
   -6.7520   -0.2580   -0.3430 C   0  0  0  0  0  0  0  0  0  0  0  0
   -5.4910   -0.5400   -0.8020 O   0  0  0  0  0  0  0  0  0  0  0  0
    3.1780   -0.8470   -0.7760 N   0  0  0  0  0  0  0  0  0  0  0  0
    4.1010   -0.4120    0.2390 C   0  0  0  0  0  0  0  0  0  0  0  0
    5.5140   -0.5840   -0.2670 C   0  0  0  0  0  0  0  0  0  0  0  0
    6.5310   -0.1420    0.7610 C   0  0  0  0  0  0  0  0  0  0  0  0
    6.3350    1.2070    1.0640 O   0  0  0  0  0  0  0  0  0  0  0  0
    7.2010    1.6100    1.9480 O   0  0  0  0  0  0  0  0  0  0  0  0
  1  2  2  0
  2  3  1  0
  2 18  1  0
  3  4  1  0
  4  5  1  0
  5  6  2  0
  5  9  1  0
  6  7  1  0
  7  8  1  0
  8  9  2  0
  9 10  1  0
 11 10  1  6
 11 12  1  0
 11 17  1  0
 12 13  1  0
 13 14  1  0
 14 15  2  0
 14 16  1  0
 16 17  1  0
 18 19  1  0
 19 20  1  0
 20 21  1  0
 21 22  1  0
 22 23  1  0
M  END
