
     RDKit          3D

 10  9  0  0  0  0  0  0  0  0999 V2000
   -3.0250    0.3250   -0.4210 N   0  0  0  0  0  0  0  0  0  0  0  0
   -2.5030   -0.0880    0.8120 C   0  0  0  0  0  0  0  0  0  0  0  0
   -3.4710   -0.1470    2.0990 S   0  0  0  0  0  0  0  0  0  0  0  0
   -1.1600   -0.4450    0.9290 N   0  0  0  0  0  0  0  0  0  0  0  0
   -0.3160   -0.3960   -0.1850 N   0  0  0  0  0  0  0  0  0  0  0  0
    1.0550   -0.0680   -0.0180 C   0  0  0  0  0  0  0  0  0  0  0  0
    1.4890    0.1740    1.1380 O   0  0  0  0  0  0  0  0  0  0  0  0
    1.9470   -0.0080   -1.1410 N   0  0  0  0  0  0  0  0  0  0  0  0
    3.2540    0.3040   -0.9810 O   0  0  0  0  0  0  0  0  0  0  0  0
    3.8540   -0.3590    0.4720 S   0  0  0  0  0  0  0  0  0  0  0  0
  1  2  1  0
  2  3  2  0
  2  4  1  0
  4  5  1  0
  5  6  1  0
  6  7  2  0
  6  8  1  0
  8  9  1  0
  9 10  1  0
M  END
