
     RDKit          3D

 11 11  0  0  0  0  0  0  0  0999 V2000
   -3.3940    0.5120    0.1610 C   0  0  0  0  0  0  0  0  0  0  0  0
   -2.6050   -0.5340   -0.3730 O   0  0  0  0  0  0  0  0  0  0  0  0
   -1.2090   -0.4450   -0.3020 C   0  0  0  0  0  0  0  0  0  0  0  0
   -0.3950   -1.4280   -0.8030 C   0  0  0  0  0  0  0  0  0  0  0  0
    0.9840   -1.3550   -0.7410 C   0  0  0  0  0  0  0  0  0  0  0  0
    1.5870   -0.2640   -0.1600 C   0  0  0  0  0  0  0  0  0  0  0  0
    3.0360   -0.1390   -0.0700 C   0  0  0  0  0  0  0  0  0  0  0  0
    3.7980   -1.0280   -0.5220 O   0  0  0  0  0  0  0  0  0  0  0  0
    3.6330    0.9640    0.5170 O   0  0  0  0  0  0  0  0  0  0  0  0
    0.7820    0.7310    0.3460 C   0  0  0  0  0  0  0  0  0  0  0  0
   -0.6070    0.6500    0.2800 C   0  0  0  0  0  0  0  0  0  0  0  0
  1  2  1  0
  2  3  1  0
  3  4  2  0
  3 11  1  0
  4  5  1  0
  5  6  2  0
  6  7  1  0
  6 10  1  0
  7  8  2  0
  7  9  1  0
 10 11  2  0
M  END
