
     RDKit          3D

 10  9  0  0  0  0  0  0  0  0999 V2000
    3.2640    0.1460   -0.4160 N   0  0  0  0  0  0  0  0  0  0  0  0
    1.9030   -0.2420   -0.3870 C   0  0  0  0  0  0  0  0  0  0  0  0
    1.6880   -1.4420   -0.7030 O   0  0  0  0  0  0  0  0  0  0  0  0
    0.8700    0.6460   -0.0340 N   0  0  0  0  0  0  0  0  0  0  0  0
   -0.4640    0.3830    0.0250 N   0  0  0  0  0  0  0  0  0  0  0  0
   -1.2570   -0.7480   -0.1520 C   0  0  0  0  0  0  0  0  0  0  0  0
   -0.7790   -2.2570   -0.5230 S   0  0  0  0  0  0  0  0  0  0  0  0
   -2.7060   -0.6260    0.0030 N   0  0  0  0  0  0  0  0  0  0  0  0
   -3.1790    0.6490    0.3210 N   0  0  0  0  0  0  0  0  0  0  0  0
   -3.6830    1.4400   -0.4910 O   0  0  0  0  0  0  0  0  0  0  0  0
  1  2  1  0
  2  3  2  0
  2  4  1  0
  4  5  1  0
  5  6  1  0
  6  7  2  0
  6  8  1  0
  8  9  1  0
  9 10  2  0
M  END
