
     RDKit          3D

 11 11  0  0  0  0  0  0  0  0999 V2000
   -3.7150   -1.1760   -0.0980 C   0  0  0  0  0  0  0  0  0  0  0  0
   -2.4700   -0.3410   -0.0540 C   0  0  0  0  0  0  0  0  0  0  0  0
   -1.1840   -0.8500   -0.1290 C   0  0  0  0  0  0  0  0  0  0  0  0
   -0.3120    0.1990   -0.0560 C   0  0  0  0  0  0  0  0  0  0  0  0
    1.0670    0.2460   -0.0840 O   0  0  0  0  0  0  0  0  0  0  0  0
    1.9010   -0.8750   -0.2030 C   0  0  0  0  0  0  0  0  0  0  0  0
    3.3400   -0.3590   -0.1910 C   0  0  0  0  0  0  0  0  0  0  0  0
    4.2450   -1.4280   -0.3070 O   0  0  0  0  0  0  0  0  0  0  0  0
   -1.1010    1.3280    0.0620 C   0  0  0  0  0  0  0  0  0  0  0  0
   -0.6120    2.7310    0.1750 C   0  0  0  0  0  0  0  0  0  0  0  0
   -2.3600    0.9590    0.0590 O   0  0  0  0  0  0  0  0  0  0  0  0
  1  2  1  0
  2  3  2  0
  2 11  1  0
  3  4  1  0
  4  5  1  0
  4  9  2  0
  5  6  1  0
  6  7  1  0
  7  8  1  0
  9 10  1  0
  9 11  1  0
M  END
