
     RDKit          3D

 10  9  0  0  0  0  0  0  0  0999 V2000
    3.9550   -0.2390    0.0980 C   0  0  0  0  0  0  0  0  0  0  0  0
    2.8340   -0.8430   -0.2670 C   0  0  0  0  0  0  0  0  0  0  0  0
    1.7950   -1.3120    0.6790 C   0  0  0  0  0  0  0  0  0  0  0  0
    0.5480   -0.6940    0.4420 O   0  0  0  0  0  0  0  0  0  0  0  0
    0.3560    0.6850    0.5130 C   0  0  0  0  0  0  0  0  0  0  0  0
    1.3760    1.3600    0.8050 O   0  0  0  0  0  0  0  0  0  0  0  0
   -0.9420    1.3150    0.2650 C   0  0  0  0  0  0  0  0  0  0  0  0
   -2.0160    0.6340   -0.0410 C   0  0  0  0  0  0  0  0  0  0  0  0
   -3.2900    1.3410   -0.2760 C   0  0  0  0  0  0  0  0  0  0  0  0
   -1.9720   -0.8360   -0.1530 C   0  0  0  0  0  0  0  0  0  0  0  0
  1  2  2  0
  2  3  1  0
  3  4  1  0
  4  5  1  0
  5  6  2  0
  5  7  1  0
  7  8  2  3
  8  9  1  0
  8 10  1  0
M  END
