
     RDKit          3D

 10  9  0  0  0  0  0  0  0  0999 V2000
   -3.5050    0.0610    1.3800 N   0  0  0  0  0  0  0  0  0  0  0  0
   -2.3830   -0.4490    0.6810 C   0  0  0  0  0  0  0  0  0  0  0  0
   -1.9720   -1.6180    0.9560 O   0  0  0  0  0  0  0  0  0  0  0  0
   -1.6710    0.2460   -0.3150 N   0  0  0  0  0  0  0  0  0  0  0  0
   -0.5670   -0.2830   -0.9890 N   0  0  0  0  0  0  0  0  0  0  0  0
    0.7800    0.0300   -0.6480 C   0  0  0  0  0  0  0  0  0  0  0  0
    0.9370    0.8260    0.3130 O   0  0  0  0  0  0  0  0  0  0  0  0
    2.1090   -0.7000   -1.5700 S   0  0  0  0  0  0  0  0  0  0  0  0
    3.6780   -0.1960   -1.0030 N   0  0  0  0  0  0  0  0  0  0  0  0
    3.9420   -0.5230    0.7010 S   0  0  0  0  0  0  0  0  0  0  0  0
  1  2  1  0
  2  3  2  0
  2  4  1  0
  4  5  1  0
  5  6  1  0
  6  7  2  0
  6  8  1  0
  8  9  1  0
  9 10  1  0
M  END
