
     RDKit          3D

 26 29  0  0  0  0  0  0  0  0999 V2000
    5.2400   -1.2020   -1.5700 C   0  0  0  0  0  0  0  0  0  0  0  0
    4.9300    0.0640   -2.3030 C   0  0  0  0  0  0  0  0  0  0  0  0
    4.7460    1.1480   -1.3490 N   0  0  0  0  0  0  0  0  0  0  0  0
    3.7330    1.1050   -0.3540 C   0  0  0  0  0  0  0  0  0  0  0  0
    3.4450    2.0480    0.6050 C   0  0  0  0  0  0  0  0  0  0  0  0
    2.3840    1.5360    1.3150 C   0  0  0  0  0  0  0  0  0  0  0  0
    2.0280    0.3520    0.8350 N   0  0  0  0  0  0  0  0  0  0  0  0
    1.0340   -0.5610    1.2330 C   0  0  0  0  0  0  0  0  0  0  0  0
   -0.2880   -0.3710    0.5960 C   0  0  0  0  0  0  0  0  0  0  0  0
   -0.7370    0.5700   -0.0870 N   0  0  0  0  0  0  0  0  0  0  0  0
   -0.1690    1.7660   -0.4890 C   0  0  0  0  0  0  0  0  0  0  0  0
   -0.3670    2.9550    0.1140 C   0  0  0  0  0  0  0  0  0  0  0  0
    0.3920    4.0090   -0.5840 C   0  0  0  0  0  0  0  0  0  0  0  0
    1.0380    3.3000   -1.6570 N   0  0  0  0  0  0  0  0  0  0  0  0
    0.7280    2.0590   -1.6020 C   0  0  0  0  0  0  0  0  0  0  0  0
   -1.2730   -1.4540    0.8050 N   0  0  0  0  0  0  0  0  0  0  0  0
   -2.6310   -1.0750    0.8090 C   0  0  0  0  0  0  0  0  0  0  0  0
   -3.0650    0.1710    0.6420 N   0  0  0  0  0  0  0  0  0  0  0  0
   -4.3740    0.4770    0.6570 C   0  0  0  0  0  0  0  0  0  0  0  0
   -5.3630   -0.4630    0.8450 C   0  0  0  0  0  0  0  0  0  0  0  0
   -4.9390   -1.7710    1.0210 C   0  0  0  0  0  0  0  0  0  0  0  0
   -3.6030   -2.0540    1.0020 C   0  0  0  0  0  0  0  0  0  0  0  0
   -3.4940   -3.4890    1.2130 C   0  0  0  0  0  0  0  0  0  0  0  0
   -4.6710   -4.0680    1.3550 C   0  0  0  0  0  0  0  0  0  0  0  0
   -5.6960   -3.0030    1.2420 C   0  0  0  0  0  0  0  0  0  0  0  0
    2.8660    0.1030   -0.1890 N   0  0  0  0  0  0  0  0  0  0  0  0
  1  2  1  0
  2  3  1  0
  3  4  1  0
  4  5  1  0
  4 26  2  0
  5  6  2  0
  6  7  1  0
  7  8  1  0
  7 26  1  0
  8  9  1  0
  9 10  2  3
  9 16  1  0
 10 11  1  0
 11 12  2  0
 11 15  1  0
 12 13  1  0
 13 14  1  0
 14 15  2  0
 16 17  1  0
 17 18  2  0
 17 22  1  0
 18 19  1  0
 19 20  2  0
 20 21  1  0
 21 22  2  0
 21 25  1  0
 22 23  1  0
 23 24  2  0
 24 25  1  0
M  END
