
     RDKit          3D

 26 29  0  0  0  0  0  0  0  0999 V2000
   -6.2470    3.8270   -0.5260 C   0  0  0  0  0  0  0  0  0  0  0  0
   -5.9560    2.3580   -0.3740 C   0  0  0  0  0  0  0  0  0  0  0  0
   -4.5490    2.0770   -0.3320 N   0  0  0  0  0  0  0  0  0  0  0  0
   -4.1020    0.7390   -0.1920 C   0  0  0  0  0  0  0  0  0  0  0  0
   -2.7740    0.4630   -0.1520 N   0  0  0  0  0  0  0  0  0  0  0  0
   -2.3510   -0.7970   -0.0200 C   0  0  0  0  0  0  0  0  0  0  0  0
   -0.9010   -1.0850    0.0230 C   0  0  0  0  0  0  0  0  0  0  0  0
   -0.0470   -0.1180   -0.0670 C   0  0  0  0  0  0  0  0  0  0  0  0
    1.3820   -0.3650   -0.0290 C   0  0  0  0  0  0  0  0  0  0  0  0
    1.9460   -1.6120    0.1030 C   0  0  0  0  0  0  0  0  0  0  0  0
    3.3090   -1.7920    0.1340 C   0  0  0  0  0  0  0  0  0  0  0  0
    4.1180   -0.6840    0.0290 C   0  0  0  0  0  0  0  0  0  0  0  0
    5.4480   -0.5060    0.0230 N   0  0  0  0  0  0  0  0  0  0  0  0
    5.7390    0.8010   -0.1080 C   0  0  0  0  0  0  0  0  0  0  0  0
    7.0760    1.4530   -0.1620 C   0  0  1  0  0  0  0  0  0  0  0  0
    7.9150    1.1400    1.0480 C   0  0  0  0  0  0  0  0  0  0  0  0
    7.7960    0.9070   -1.3800 C   0  0  0  0  0  0  0  0  0  0  0  0
    4.5180    1.4420   -0.1840 C   0  0  0  0  0  0  0  0  0  0  0  0
    3.5340    0.4990   -0.0970 N   0  0  0  0  0  0  0  0  0  0  0  0
    2.2300    0.6870   -0.1280 N   0  0  0  0  0  0  0  0  0  0  0  0
   -3.2620   -1.7830    0.0720 N   0  0  0  0  0  0  0  0  0  0  0  0
   -4.5930   -1.5520    0.0370 C   0  0  0  0  0  0  0  0  0  0  0  0
   -5.5810   -2.6700    0.1410 C   0  0  2  0  0  0  0  0  0  0  0  0
   -5.2600   -3.7020    1.2250 C   0  0  0  0  0  0  0  0  0  0  0  0
   -5.1670   -4.0480   -0.2210 C   0  0  0  0  0  0  0  0  0  0  0  0
   -4.9840   -0.2670   -0.0980 N   0  0  0  0  0  0  0  0  0  0  0  0
  1  2  1  0
  2  3  1  0
  3  4  1  0
  4  5  2  0
  4 26  1  0
  5  6  1  0
  6  7  1  0
  6 21  2  0
  7  8  2  3
  8  9  1  0
  9 10  1  0
  9 20  2  0
 10 11  2  0
 11 12  1  0
 12 13  2  0
 12 19  1  0
 13 14  1  0
 14 15  1  0
 14 18  2  0
 15 16  1  1
 15 17  1  0
 18 19  1  0
 19 20  1  0
 21 22  1  0
 23 22  1  6
 22 26  2  0
 23 24  1  0
 23 25  1  0
 24 25  1  0
M  END
