
     RDKit          3D

 26 29  0  0  0  0  0  0  0  0999 V2000
   -5.8050   -0.0440    2.4550 C   0  0  0  0  0  0  0  0  0  0  0  0
   -6.1040    1.0450    1.4420 C   0  0  0  0  0  0  0  0  0  0  0  0
   -4.8960    1.2100    0.5860 C   0  0  0  0  0  0  0  0  0  0  0  0
   -4.3150    2.3450    0.5590 N   0  0  0  0  0  0  0  0  0  0  0  0
   -3.1840    2.5470   -0.2270 N   0  0  0  0  0  0  0  0  0  0  0  0
   -2.6770    1.4680   -1.0040 C   0  0  0  0  0  0  0  0  0  0  0  0
   -3.2570    0.2870   -0.9940 C   0  0  0  0  0  0  0  0  0  0  0  0
   -2.7150   -0.8320   -1.8130 C   0  0  0  0  0  0  0  0  0  0  0  0
   -2.3200   -2.0050   -0.9520 C   0  0  0  0  0  0  0  0  0  0  0  0
   -1.3130   -1.7000    0.0230 N   0  0  0  0  0  0  0  0  0  0  0  0
   -0.0350   -1.2640   -0.4200 C   0  0  0  0  0  0  0  0  0  0  0  0
    0.9520   -0.9600    0.4500 N   0  0  0  0  0  0  0  0  0  0  0  0
    2.1810   -0.5440    0.0480 C   0  0  0  0  0  0  0  0  0  0  0  0
    3.1800   -0.2420    1.0310 N   0  0  0  0  0  0  0  0  0  0  0  0
    4.2150   -1.0690    1.5480 C   0  0  0  0  0  0  0  0  0  0  0  0
    5.2780   -0.1180    2.0060 C   0  0  0  0  0  0  0  0  0  0  0  0
    4.6130    1.2220    2.1600 C   0  0  0  0  0  0  0  0  0  0  0  0
    3.2270    1.0210    1.7060 C   0  0  0  0  0  0  0  0  0  0  0  0
    2.4550   -0.4220   -1.2510 N   0  0  0  0  0  0  0  0  0  0  0  0
    3.5500   -0.0480   -1.9380 C   0  0  0  0  0  0  0  0  0  0  0  0
    4.8570    0.3630   -1.3770 C   0  0  0  0  0  0  0  0  0  0  0  0
    3.2360   -0.1200   -3.2940 C   0  0  0  0  0  0  0  0  0  0  0  0
    1.9440   -0.5400   -3.4480 C   0  0  0  0  0  0  0  0  0  0  0  0
    1.4720   -0.7240   -2.1690 C   0  0  0  0  0  0  0  0  0  0  0  0
    0.2730   -1.1310   -1.7180 N   0  0  0  0  0  0  0  0  0  0  0  0
   -4.4530    0.0220   -0.1830 C   0  0  0  0  0  0  0  0  0  0  0  0
  1  2  1  0
  2  3  1  0
  3  4  2  0
  3 26  1  0
  4  5  1  0
  5  6  1  0
  6  7  2  0
  7  8  1  0
  7 26  1  0
  8  9  1  0
  9 10  1  0
 10 11  1  0
 11 12  1  0
 11 25  2  0
 12 13  2  0
 13 14  1  0
 13 19  1  0
 14 15  1  0
 14 18  1  0
 15 16  1  0
 16 17  1  0
 17 18  1  0
 19 20  1  0
 19 24  1  0
 20 21  1  0
 20 22  2  0
 22 23  1  0
 23 24  2  0
 24 25  1  0
M  END
