
     RDKit          3D

 25 28  0  0  0  0  0  0  0  0999 V2000
    5.7680    2.6360    1.4940 C   0  0  0  0  0  0  0  0  0  0  0  0
    5.5740    1.4970    0.5690 C   0  0  0  0  0  0  0  0  0  0  0  0
    4.3480    0.7100    0.5610 C   0  0  0  0  0  0  0  0  0  0  0  0
    3.3350    0.8960   -0.2980 N   0  0  0  0  0  0  0  0  0  0  0  0
    2.2830    0.0270   -0.4110 C   0  0  0  0  0  0  0  0  0  0  0  0
    1.2430    0.1980   -1.4700 C   0  0  0  0  0  0  0  0  0  0  0  0
   -0.0270    0.4290   -1.0010 N   0  0  0  0  0  0  0  0  0  0  0  0
   -0.3640    1.0660    0.2060 C   0  0  0  0  0  0  0  0  0  0  0  0
   -1.5530    0.2050    0.7040 C   0  0  0  0  0  0  0  0  0  0  0  0
   -2.6390    0.2480   -0.0760 C   0  0  0  0  0  0  0  0  0  0  0  0
   -3.8370   -0.4900    0.1980 C   0  0  0  0  0  0  0  0  0  0  0  0
   -3.8630   -1.8020    0.7330 C   0  0  0  0  0  0  0  0  0  0  0  0
   -5.1260   -2.1650    0.9490 N   0  0  0  0  0  0  0  0  0  0  0  0
   -5.9570   -1.1670    0.5890 N   0  0  0  0  0  0  0  0  0  0  0  0
   -5.1670   -0.1650    0.1420 C   0  0  0  0  0  0  0  0  0  0  0  0
   -5.6950    1.1530   -0.2750 C   0  0  0  0  0  0  0  0  0  0  0  0
   -2.4080    1.0180   -1.3640 C   0  0  0  0  0  0  0  0  0  0  0  0
   -1.1220    0.4270   -1.9560 C   0  0  0  0  0  0  0  0  0  0  0  0
    2.1910   -1.1000    0.3560 C   0  0  0  0  0  0  0  0  0  0  0  0
    1.3150   -2.1560    0.4750 C   0  0  0  0  0  0  0  0  0  0  0  0
    0.1360   -2.4720   -0.4100 C   0  0  0  0  0  0  0  0  0  0  0  0
    1.8130   -2.9440    1.4330 N   0  0  0  0  0  0  0  0  0  0  0  0
    2.9360   -2.4490    1.9000 N   0  0  0  0  0  0  0  0  0  0  0  0
    3.2550   -1.2850    1.2650 C   0  0  0  0  0  0  0  0  0  0  0  0
    4.2610   -0.4180    1.3460 N   0  0  0  0  0  0  0  0  0  0  0  0
  1  2  1  0
  2  3  1  0
  3  4  2  0
  3 25  1  0
  4  5  1  0
  5  6  1  0
  5 19  2  0
  6  7  1  0
  7  8  1  0
  7 18  1  0
  8  9  1  0
  9 10  2  0
 10 11  1  0
 10 17  1  0
 11 12  1  0
 11 15  2  0
 12 13  2  0
 13 14  1  0
 14 15  1  0
 15 16  1  0
 17 18  1  0
 19 20  1  0
 19 24  1  0
 20 21  1  0
 20 22  2  0
 22 23  1  0
 23 24  1  0
 24 25  2  0
M  END
