
     RDKit          3D

 14 14  0  0  0  0  0  0  0  0999 V2000
   -4.5380   -0.3980   -0.9410 C   0  0  0  0  0  0  0  0  0  0  0  0
   -3.3030    0.2430   -0.3780 C   0  0  0  0  0  0  0  0  0  0  0  0
   -3.3610    1.3590    0.2160 O   0  0  0  0  0  0  0  0  0  0  0  0
   -2.0260   -0.3500   -0.4760 N   0  0  0  0  0  0  0  0  0  0  0  0
   -0.8090    0.2330    0.0530 C   0  0  1  0  0  0  0  0  0  0  0  0
   -0.1550   -0.6270    1.0760 C   0  0  0  0  0  0  0  0  0  0  0  0
    1.0620   -1.2550    0.6960 N   0  0  0  0  0  0  0  0  0  0  0  0
    1.9920   -0.4840   -0.0370 C   0  0  2  0  0  0  0  0  0  0  0  0
    3.3670   -0.4230    0.5950 C   0  0  0  0  0  0  0  0  0  0  0  0
    3.2840    0.1370    1.8570 O   0  0  0  0  0  0  0  0  0  0  0  0
    1.4610    0.8970   -0.3520 C   0  0  2  0  0  0  0  0  0  0  0  0
    1.1880    1.5350    0.8740 O   0  0  0  0  0  0  0  0  0  0  0  0
    0.1470    0.6160   -1.0840 C   0  0  2  0  0  0  0  0  0  0  0  0
   -0.3000    1.7270   -1.7690 O   0  0  0  0  0  0  0  0  0  0  0  0
  1  2  1  0
  2  3  2  0
  2  4  1  0
  5  4  1  6
  5  6  1  0
  5 13  1  0
  6  7  1  0
  7  8  1  0
  8  9  1  1
  8 11  1  0
  9 10  1  0
 11 12  1  1
 11 13  1  0
 13 14  1  1
M  CHG  1   7   1
M  END
