
     RDKit          3D

 26 29  0  0  0  0  0  0  0  0999 V2000
    2.8010   -4.4110   -1.1290 C   0  0  0  0  0  0  0  0  0  0  0  0
    1.6990   -3.3850   -1.0820 C   0  0  0  0  0  0  0  0  0  0  0  0
    0.5820   -3.5410   -1.8710 C   0  0  0  0  0  0  0  0  0  0  0  0
   -0.4220   -2.6250   -1.8390 C   0  0  0  0  0  0  0  0  0  0  0  0
   -0.3270   -1.4960   -0.9910 C   0  0  0  0  0  0  0  0  0  0  0  0
   -1.4170   -0.5390   -0.9790 C   0  0  0  0  0  0  0  0  0  0  0  0
   -1.5550    0.5890   -0.3020 N   0  0  0  0  0  0  0  0  0  0  0  0
   -2.7210    1.2020   -0.5610 C   0  0  0  0  0  0  0  0  0  0  0  0
   -3.3540    0.4180   -1.4490 N   0  0  0  0  0  0  0  0  0  0  0  0
   -2.5730   -0.6200   -1.6970 N   0  0  0  0  0  0  0  0  0  0  0  0
   -4.6440    1.0180   -1.7820 C   0  0  1  0  0  0  0  0  0  0  0  0
   -4.9470    0.8070   -3.2460 C   0  0  0  0  0  0  0  0  0  0  0  0
   -5.7390    0.5150   -0.9010 C   0  0  0  0  0  0  0  0  0  0  0  0
   -4.4200    2.4770   -1.5040 C   0  0  0  0  0  0  0  0  0  0  0  0
   -3.5720    2.4090   -0.2440 C   0  0  0  0  0  0  0  0  0  0  0  0
    0.7770   -1.3560   -0.2210 C   0  0  0  0  0  0  0  0  0  0  0  0
    0.9750   -0.2870    0.6550 N   0  0  0  0  0  0  0  0  0  0  0  0
    2.1930   -0.2210    1.4400 C   0  0  0  0  0  0  0  0  0  0  0  0
    2.2250    0.9970    2.3450 C   0  0  0  0  0  0  0  0  0  0  0  0
    3.4970    1.0030    3.1140 C   0  0  0  0  0  0  0  0  0  0  0  0
    3.7000    0.6740    4.3990 N   0  0  0  0  0  0  0  0  0  0  0  0
    4.9790    0.8100    4.7030 N   0  0  0  0  0  0  0  0  0  0  0  0
    5.6640    1.2350    3.6240 C   0  0  0  0  0  0  0  0  0  0  0  0
    4.7350    1.3590    2.6200 C   0  0  0  0  0  0  0  0  0  0  0  0
    4.9770    1.8020    1.2170 C   0  0  0  0  0  0  0  0  0  0  0  0
    1.7520   -2.3220   -0.3050 N   0  0  0  0  0  0  0  0  0  0  0  0
  1  2  1  0
  2  3  2  0
  2 26  1  0
  3  4  1  0
  4  5  2  0
  5  6  1  0
  5 16  1  0
  6  7  1  0
  6 10  2  0
  7  8  2  0
  8  9  1  0
  8 15  1  0
  9 10  1  0
  9 11  1  0
 11 12  1  6
 11 13  1  0
 11 14  1  0
 14 15  1  0
 16 17  1  0
 16 26  2  0
 17 18  1  0
 18 19  1  0
 19 20  1  0
 20 21  2  0
 20 24  1  0
 21 22  1  0
 22 23  1  0
 23 24  2  0
 24 25  1  0
M  END
