
     RDKit          3D

 11 11  0  0  0  0  0  0  0  0999 V2000
    3.0070   -0.6290    1.0630 N   0  0  0  0  0  0  0  0  0  0  0  0
    2.0660    0.4000    0.7040 C   0  0  0  0  0  0  0  0  0  0  0  0
    0.6530   -0.1360    0.6260 C   0  0  2  0  0  0  0  0  0  0  0  0
    0.5000   -1.1320   -0.2980 O   0  0  0  0  0  0  0  0  0  0  0  0
   -0.6310   -0.9090   -1.0410 C   0  0  0  0  0  0  0  0  0  0  0  0
   -1.4660    0.0630   -0.2380 C   0  0  1  0  0  0  0  0  0  0  0  0
   -2.3680    0.7640   -1.0090 O   0  0  0  0  0  0  0  0  0  0  0  0
   -2.1410   -0.7080    0.8760 C   0  0  0  0  0  0  0  0  0  0  0  0
   -2.8050    0.2010    1.6800 O   0  0  0  0  0  0  0  0  0  0  0  0
   -0.3510    0.9440    0.2860 C   0  0  2  0  0  0  0  0  0  0  0  0
    0.1150    1.7200   -0.7610 O   0  0  0  0  0  0  0  0  0  0  0  0
  1  2  1  0
  3  2  1  6
  3  4  1  0
  3 10  1  0
  4  5  1  0
  5  6  1  0
  6  7  1  6
  6  8  1  0
  6 10  1  0
  8  9  1  0
 10 11  1  6
M  CHG  1   1   1
M  END
