
     RDKit          3D

 11 11  0  0  0  0  0  0  0  0999 V2000
   -1.0160   -2.0030    0.0670 N   0  0  0  0  0  0  0  0  0  0  0  0
   -0.2930   -0.7970   -0.1650 C   0  0  2  0  0  0  0  0  0  0  0  0
    1.1460   -0.8800    0.3640 C   0  0  0  0  0  0  0  0  0  0  0  0
    1.4410    0.5860    0.5890 C   0  0  1  0  0  0  0  0  0  0  0  0
    2.5070    0.9810   -0.4140 C   0  0  0  0  0  0  0  0  0  0  0  0
    3.6380    0.2160   -0.1410 O   0  0  0  0  0  0  0  0  0  0  0  0
    0.2690    1.2810    0.4160 O   0  0  0  0  0  0  0  0  0  0  0  0
   -0.7530    0.3680    0.6680 C   0  0  1  0  0  0  0  0  0  0  0  0
   -2.1020    0.8830    0.3010 C   0  0  2  0  0  0  0  0  0  0  0  0
   -3.1300    0.0140    0.5340 O   0  0  0  0  0  0  0  0  0  0  0  0
   -2.1510    1.2710   -1.0350 O   0  0  0  0  0  0  0  0  0  0  0  0
  2  1  1  1
  2  3  1  0
  2  8  1  0
  3  4  1  0
  4  5  1  6
  4  7  1  0
  5  6  1  0
  8  7  1  6
  8  9  1  0
  9 10  1  6
  9 11  1  0
M  CHG  1   1   1
M  END
