
     RDKit          3D

 11 11  0  0  0  0  0  0  0  0999 V2000
    0.4100    1.1430    1.2990 N   0  0  0  0  0  0  0  0  0  0  0  0
    0.2920    0.2420    0.1770 C   0  0  1  0  0  0  0  0  0  0  0  0
   -1.1470   -0.1970    0.0690 C   0  0  0  0  0  0  0  0  0  0  0  0
   -2.0700    0.9770   -0.1450 C   0  0  0  0  0  0  0  0  0  0  0  0
   -3.3890    0.5380   -0.2400 O   0  0  0  0  0  0  0  0  0  0  0  0
    0.7930    0.8660   -1.1080 C   0  0  0  0  0  0  0  0  0  0  0  0
    1.9550    0.1750   -1.4520 O   0  0  0  0  0  0  0  0  0  0  0  0
    1.6830   -1.1410   -1.0800 C   0  0  2  0  0  0  0  0  0  0  0  0
    0.6100   -1.6230   -1.8430 O   0  0  0  0  0  0  0  0  0  0  0  0
    1.2270   -0.8990    0.3650 C   0  0  2  0  0  0  0  0  0  0  0  0
    0.6980   -2.0120    0.9430 O   0  0  0  0  0  0  0  0  0  0  0  0
  2  1  1  1
  2  3  1  0
  2  6  1  0
  2 10  1  0
  3  4  1  0
  4  5  1  0
  6  7  1  0
  7  8  1  0
  8  9  1  6
  8 10  1  0
 10 11  1  6
M  CHG  1   1   1
M  END
