
     RDKit          3D

 11 11  0  0  0  0  0  0  0  0999 V2000
    2.6580   -1.2020    0.8830 O   0  0  0  0  0  0  0  0  0  0  0  0
    2.1410   -0.4390   -0.1780 C   0  0  0  0  0  0  0  0  0  0  0  0
    1.0610    0.4420    0.3840 C   0  0  1  0  0  0  0  0  0  0  0  0
    0.4980    1.2480   -0.6800 N   0  0  0  0  0  0  0  0  0  0  0  0
   -0.8600    1.6450   -0.3640 C   0  0  0  0  0  0  0  0  0  0  0  0
   -1.7290    0.4120   -0.5700 C   0  0  2  0  0  0  0  0  0  0  0  0
   -2.9890    0.7170   -0.0920 O   0  0  0  0  0  0  0  0  0  0  0  0
   -1.1150   -0.7830    0.1050 C   0  0  1  0  0  0  0  0  0  0  0  0
   -0.6630   -1.6730   -0.8450 O   0  0  0  0  0  0  0  0  0  0  0  0
   -0.0330   -0.3290    1.0570 C   0  0  1  0  0  0  0  0  0  0  0  0
    0.4330   -1.3740    1.8370 O   0  0  0  0  0  0  0  0  0  0  0  0
  1  2  1  0
  3  2  1  6
  3  4  1  0
  3 10  1  0
  4  5  1  0
  5  6  1  0
  6  7  1  1
  6  8  1  0
  8  9  1  6
  8 10  1  0
 10 11  1  6
M  CHG  1   4   1
M  END
