
     RDKit          3D

 11 11  0  0  0  0  0  0  0  0999 V2000
    2.8440    0.3020    0.5740 N   0  0  0  0  0  0  0  0  0  0  0  0
    1.9650    0.1690   -0.5800 C   0  0  1  0  0  0  0  0  0  0  0  0
    2.1370   -1.1570   -1.0390 O   0  0  0  0  0  0  0  0  0  0  0  0
    0.5210    0.3790   -0.1480 C   0  0  2  0  0  0  0  0  0  0  0  0
    0.1540   -0.4890    0.9800 C   0  0  0  0  0  0  0  0  0  0  0  0
   -1.1320   -0.8860    1.1160 O   0  0  0  0  0  0  0  0  0  0  0  0
   -1.8590   -1.1470    0.0090 C   0  0  0  0  0  0  0  0  0  0  0  0
   -2.4970    0.1580   -0.4660 C   0  0  1  0  0  0  0  0  0  0  0  0
   -3.0590    0.7860    0.6490 O   0  0  0  0  0  0  0  0  0  0  0  0
   -1.4040    1.0000   -1.0780 C   0  0  0  0  0  0  0  0  0  0  0  0
   -0.2560    0.2390   -1.2940 O   0  0  0  0  0  0  0  0  0  0  0  0
  2  1  1  1
  2  3  1  0
  2  4  1  0
  4  5  1  1
  4 11  1  0
  5  6  1  0
  6  7  1  0
  7  8  1  0
  8  9  1  1
  8 10  1  0
 10 11  1  0
M  CHG  1   1   1
M  END
