
     RDKit          3D

 11 11  0  0  0  0  0  0  0  0999 V2000
    0.9880   -0.3520   -1.3090 N   0  0  0  0  0  0  0  0  0  0  0  0
    0.6410   -0.1530    0.0570 C   0  0  2  0  0  0  0  0  0  0  0  0
    1.6480    0.7770    0.7470 C   0  0  0  0  0  0  0  0  0  0  0  0
    2.9010    0.1860    0.6670 O   0  0  0  0  0  0  0  0  0  0  0  0
    0.6820   -1.5220    0.7270 C   0  0  0  0  0  0  0  0  0  0  0  0
   -0.6280   -1.9660    0.5880 O   0  0  0  0  0  0  0  0  0  0  0  0
   -1.4240   -0.8810    0.9470 C   0  0  0  0  0  0  0  0  0  0  0  0
   -0.7240    0.3080    0.3440 C   0  0  2  0  0  0  0  0  0  0  0  0
   -1.4940    0.8490   -0.8260 C   0  0  1  0  0  0  0  0  0  0  0  0
   -1.6480   -0.0960   -1.8340 O   0  0  0  0  0  0  0  0  0  0  0  0
   -2.8050    1.1210   -0.3620 O   0  0  0  0  0  0  0  0  0  0  0  0
  2  1  1  6
  2  3  1  0
  2  5  1  0
  2  8  1  0
  3  4  1  0
  5  6  1  0
  6  7  1  0
  8  7  1  6
  8  9  1  0
  9 10  1  6
  9 11  1  0
M  CHG  1   1   1
M  END
