
     RDKit          3D

 33 35  0  0  0  0  0  0  0  0999 V2000
    1.1990   -0.7340    1.9010 O   0  0  0  0  0  0  0  0  0  0  0  0
    1.5440   -0.1920    0.8220 C   0  0  0  0  0  0  0  0  0  0  0  0
    2.8170    0.4040    0.7410 N   0  0  0  0  0  0  0  0  0  0  0  0
    3.6850    0.3730    1.8990 C   0  0  0  0  0  0  0  0  0  0  0  0
    5.0060    1.0600    1.6250 C   0  0  0  0  0  0  0  0  0  0  0  0
    5.7280    0.3680    0.4750 C   0  0  0  0  0  0  0  0  0  0  0  0
    7.0420    1.1070    0.2550 C   0  0  0  0  0  0  0  0  0  0  0  0
    8.0080    0.3430   -1.1320 P   0  0  0  0  0  0  0  0  0  0  0  0
    9.1270    1.4850   -1.8100 O   0  0  0  0  0  0  0  0  0  0  0  0
    8.8850   -1.0460   -0.5170 O   0  0  0  0  0  0  0  0  0  0  0  0
    0.6170   -0.1830   -0.3480 C   0  0  2  0  0  0  0  0  0  0  0  0
    0.4140    1.1820   -0.9020 C   0  0  0  0  0  0  0  0  0  0  0  0
   -0.3190    1.1120   -2.0720 O   0  0  0  0  0  0  0  0  0  0  0  0
   -0.6200   -0.8430   -0.0330 N   0  0  0  0  0  0  0  0  0  0  0  0
   -0.9180   -2.0940   -0.6910 C   0  0  0  0  0  0  0  0  0  0  0  0
   -1.8390   -1.9820   -2.2590 P   0  0  0  0  0  0  0  0  0  0  0  0
   -2.8170   -0.5920   -2.3500 O   0  0  0  0  0  0  0  0  0  0  0  0
   -2.7320   -3.4540   -2.5010 O   0  0  0  0  0  0  0  0  0  0  0  0
   -1.5430   -0.3380    0.9180 C   0  0  0  0  0  0  0  0  0  0  0  0
   -1.2840    0.7470    1.5270 O   0  0  0  0  0  0  0  0  0  0  0  0
   -2.8040   -0.9630    1.2880 C   0  0  0  0  0  0  0  0  0  0  0  0
   -2.9300   -1.9710    2.2530 C   0  0  0  0  0  0  0  0  0  0  0  0
   -4.1790   -2.3070    2.3210 O   0  0  0  0  0  0  0  0  0  0  0  0
   -4.8990   -1.6240    1.5000 C   0  0  0  0  0  0  0  0  0  0  0  0
   -4.0940   -0.7510    0.8100 C   0  0  0  0  0  0  0  0  0  0  0  0
   -4.7210    0.0360   -0.0940 O   0  0  0  0  0  0  0  0  0  0  0  0
   -6.0820    0.2700    0.0650 C   0  0  2  0  0  0  0  0  0  0  0  0
   -6.8120    0.4320   -1.2270 C   0  0  0  0  0  0  0  0  0  0  0  0
   -7.3130    1.8570   -1.1420 C   0  0  0  0  0  0  0  0  0  0  0  0
   -7.3320    2.1830    0.2350 O   0  0  0  0  0  0  0  0  0  0  0  0
   -6.4210    1.4000    0.9180 C   0  0  0  0  0  0  0  0  0  0  0  0
   -5.9780    1.6330    2.0580 O   0  0  0  0  0  0  0  0  0  0  0  0
   -6.5360   -1.3320    0.8730 S   0  0  0  0  0  0  0  0  0  0  0  0
  1  2  2  0
  2  3  1  0
  2 11  1  0
  3  4  1  0
  4  5  1  0
  5  6  1  0
  6  7  1  0
  7  8  1  0
  8  9  1  0
  8 10  1  0
 11 12  1  1
 11 14  1  0
 12 13  1  0
 14 15  1  0
 14 19  1  0
 15 16  1  0
 16 17  1  0
 16 18  1  0
 19 20  2  0
 19 21  1  0
 21 22  2  0
 21 25  1  0
 22 23  1  0
 23 24  1  0
 24 25  2  0
 24 33  1  0
 25 26  1  0
 26 27  1  0
 27 28  1  6
 27 31  1  0
 27 33  1  0
 28 29  1  0
 29 30  1  0
 30 31  1  0
 31 32  2  0
M  END
