
     RDKit          3D

 34 35  0  0  0  0  0  0  0  0999 V2000
    3.5570    0.7700    4.2760 C   0  0  0  0  0  0  0  0  0  0  0  0
    2.7940    0.3670    3.1620 O   0  0  0  0  0  0  0  0  0  0  0  0
    1.4730    0.7650    2.9870 C   0  0  0  0  0  0  0  0  0  0  0  0
    0.9560    1.4970    3.8380 O   0  0  0  0  0  0  0  0  0  0  0  0
    0.7070    0.2890    1.7560 C   0  0  1  0  0  0  0  0  0  0  0  0
    1.0430   -1.1560    1.5740 C   0  0  0  0  0  0  0  0  0  0  0  0
    0.7600   -1.5780    0.3810 C   0  0  0  0  0  0  0  0  0  0  0  0
   -0.2500   -2.5600    0.0530 C   0  0  0  0  0  0  0  0  0  0  0  0
   -0.8830   -2.3850   -1.2140 O   0  0  0  0  0  0  0  0  0  0  0  0
   -2.2220   -2.7180   -1.2660 C   0  0  0  0  0  0  0  0  0  0  0  0
   -2.6450   -3.3710   -2.2970 O   0  0  0  0  0  0  0  0  0  0  0  0
   -3.2320   -2.4010   -0.2580 C   0  0  0  0  0  0  0  0  0  0  0  0
   -4.1670   -3.3110   -0.0130 C   0  0  0  0  0  0  0  0  0  0  0  0
   -4.1500   -4.5050   -0.7120 O   0  0  0  0  0  0  0  0  0  0  0  0
   -3.2860   -1.1200    0.4960 C   0  0  2  0  0  0  0  0  0  0  0  0
   -5.0780   -0.9850    1.1090 P   0  0  0  0  0  0  0  0  0  0  0  0
   -3.1140    0.0770   -0.3640 C   0  0  0  0  0  0  0  0  0  0  0  0
   -2.3930    1.1570   -0.1700 C   0  0  0  0  0  0  0  0  0  0  0  0
   -2.5040    2.1630   -1.3200 C   0  0  0  0  0  0  0  0  0  0  0  0
   -0.9220    2.5390   -2.1540 P   0  0  0  0  0  0  0  0  0  0  0  0
   -0.8880    2.0760   -3.8150 O   0  0  0  0  0  0  0  0  0  0  0  0
   -0.3330    4.1210   -1.8780 O   0  0  0  0  0  0  0  0  0  0  0  0
   -1.5470    1.4670    0.9800 C   0  0  0  0  0  0  0  0  0  0  0  0
   -1.7740    2.6960    1.3590 O   0  0  0  0  0  0  0  0  0  0  0  0
   -0.5940    0.7770    1.7340 N   0  0  0  0  0  0  0  0  0  0  0  0
    1.4800   -1.0060   -0.8300 C   0  0  2  0  0  0  0  0  0  0  0  0
    2.8670   -1.5580   -0.9710 C   0  0  0  0  0  0  0  0  0  0  0  0
    1.4280    0.4090   -0.6460 N   0  0  0  0  0  0  0  0  0  0  0  0
    2.5560    1.2370   -1.6650 S   0  0  2  0  0  0  0  0  0  0  0  0
    2.4440    2.7090   -1.3650 O   0  0  0  0  0  0  0  0  0  0  0  0
    2.1920    1.0050   -3.0940 O   0  0  0  0  0  0  0  0  0  0  0  0
    4.1260    0.7610   -1.3040 O   0  0  0  0  0  0  0  0  0  0  0  0
    5.0310    1.6350   -1.8950 C   0  0  0  0  0  0  0  0  0  0  0  0
    1.5420    0.9140    0.6510 C   0  0  0  0  0  0  0  0  0  0  0  0
  1  2  1  0
  2  3  1  0
  3  4  2  0
  5  3  1  1
  5  6  1  0
  5 25  1  0
  5 34  1  0
  6  7  2  0
  7  8  1  0
  7 26  1  0
  8  9  1  0
  9 10  1  0
 10 11  2  0
 10 12  1  0
 12 13  2  3
 12 15  1  0
 13 14  1  0
 15 16  1  6
 15 17  1  0
 17 18  2  0
 18 19  1  0
 18 23  1  0
 19 20  1  0
 20 21  1  0
 20 22  1  0
 23 24  2  0
 23 25  1  0
 26 27  1  1
 26 28  1  0
 28 29  1  0
 28 34  1  0
 29 30  2  0
 29 31  2  0
 29 32  1  6
 32 33  1  0
M  END
