
     RDKit          3D

 34 35  0  0  0  0  0  0  0  0999 V2000
    1.4780   -2.8680    0.6190 C   0  0  0  0  0  0  0  0  0  0  0  0
    2.4910   -1.9880    0.0500 C   0  0  0  0  0  0  0  0  0  0  0  0
    2.4970   -0.7600   -0.3480 C   0  0  0  0  0  0  0  0  0  0  0  0
    3.8740   -0.3810   -0.8480 N   0  0  0  0  0  0  0  0  0  0  0  0
    4.9120   -0.0990    0.0610 C   0  0  2  0  0  0  0  0  0  0  0  0
    5.2140   -1.1870    1.0730 C   0  0  0  0  0  0  0  0  0  0  0  0
    4.8150    1.2000    0.7850 C   0  0  0  0  0  0  0  0  0  0  0  0
    4.8430    2.3230   -0.0330 O   0  0  0  0  0  0  0  0  0  0  0  0
    1.5550    0.2780   -0.4990 C   0  0  0  0  0  0  0  0  0  0  0  0
    2.1080    1.4210   -0.9100 O   0  0  0  0  0  0  0  0  0  0  0  0
    0.1580    0.4390   -0.3300 N   0  0  0  0  0  0  0  0  0  0  0  0
   -0.7290   -0.6050   -0.0250 C   0  0  0  0  0  0  0  0  0  0  0  0
   -0.9680   -1.5150   -1.0700 C   0  0  0  0  0  0  0  0  0  0  0  0
   -1.8320   -2.5710   -0.9200 C   0  0  0  0  0  0  0  0  0  0  0  0
   -2.0280   -3.5070   -2.0780 C   0  0  0  0  0  0  0  0  0  0  0  0
   -3.3860   -2.8590   -3.1790 P   0  0  0  0  0  0  0  0  0  0  0  0
   -2.6000   -1.7980   -4.3370 O   0  0  0  0  0  0  0  0  0  0  0  0
   -4.0340   -4.2100   -4.0500 O   0  0  0  0  0  0  0  0  0  0  0  0
   -2.4510   -2.7060    0.2870 C   0  0  0  0  0  0  0  0  0  0  0  0
   -2.2410   -1.8310    1.3390 C   0  0  0  0  0  0  0  0  0  0  0  0
   -1.3690   -0.7700    1.1800 C   0  0  0  0  0  0  0  0  0  0  0  0
   -1.1730    0.0980    2.2840 N   0  0  0  0  0  0  0  0  0  0  0  0
   -1.7400   -0.0840    3.5940 C   0  0  0  0  0  0  0  0  0  0  0  0
   -1.1300   -1.1830    4.3990 C   0  0  0  0  0  0  0  0  0  0  0  0
   -1.7870   -1.2390    5.6480 O   0  0  0  0  0  0  0  0  0  0  0  0
   -0.3590    1.8100   -0.4560 C   0  0  0  0  0  0  0  0  0  0  0  0
    0.2770    2.7890    0.3290 C   0  0  0  0  0  0  0  0  0  0  0  0
   -0.1000    4.1020    0.2930 C   0  0  0  0  0  0  0  0  0  0  0  0
   -1.1330    4.4410   -0.5460 C   0  0  0  0  0  0  0  0  0  0  0  0
   -1.7530    3.4880   -1.3120 C   0  0  0  0  0  0  0  0  0  0  0  0
   -2.8070    3.8150   -2.1730 O   0  0  0  0  0  0  0  0  0  0  0  0
   -3.3010    5.1160   -2.3170 C   0  0  0  0  0  0  0  0  0  0  0  0
   -1.3740    2.1260   -1.2850 C   0  0  0  0  0  0  0  0  0  0  0  0
   -2.0690    1.1610   -2.1520 C   0  0  0  0  0  0  0  0  0  0  0  0
  1  2  1  0
  2  3  2  3
  3  4  1  0
  3  9  1  0
  4  5  1  0
  5  6  1  1
  5  7  1  0
  7  8  1  0
  9 10  2  0
  9 11  1  0
 11 12  1  0
 11 26  1  0
 12 13  2  0
 12 21  1  0
 13 14  1  0
 14 15  1  0
 14 19  2  0
 15 16  1  0
 16 17  1  0
 16 18  1  0
 19 20  1  0
 20 21  2  0
 21 22  1  0
 22 23  1  0
 23 24  1  0
 24 25  1  0
 26 27  2  0
 26 33  1  0
 27 28  1  0
 28 29  2  0
 29 30  1  0
 30 31  1  0
 30 33  2  0
 31 32  1  0
 33 34  1  0
M  END
