
     RDKit          3D

 37 41  0  0  0  0  0  0  0  0999 V2000
  -10.6680    1.0670    0.4760 N   0  0  0  0  0  0  0  0  0  0  0  0
   -9.4400    0.5110    0.0430 C   0  0  0  0  0  0  0  0  0  0  0  0
   -9.3380   -0.1910   -1.0850 N   0  0  0  0  0  0  0  0  0  0  0  0
   -8.2000   -0.7380   -1.5260 C   0  0  0  0  0  0  0  0  0  0  0  0
   -7.0580   -0.5800   -0.7980 N   0  0  0  0  0  0  0  0  0  0  0  0
   -7.1020    0.1190    0.3450 C   0  0  0  0  0  0  0  0  0  0  0  0
   -8.2750    0.6700    0.7820 C   0  0  0  0  0  0  0  0  0  0  0  0
   -7.9770    1.2930    1.9460 N   0  0  0  0  0  0  0  0  0  0  0  0
   -6.6930    1.1290    2.1980 C   0  0  0  0  0  0  0  0  0  0  0  0
   -6.1000    0.4030    1.2330 N   0  0  0  0  0  0  0  0  0  0  0  0
   -4.7260   -0.0320    1.0950 C   0  0  2  0  0  0  0  0  0  0  0  0
   -4.1510    0.6720    0.0220 O   0  0  0  0  0  0  0  0  0  0  0  0
   -3.1160   -0.2070   -0.3690 C   0  0  2  0  0  0  0  0  0  0  0  0
   -2.2820    0.3900   -1.3860 C   0  0  0  0  0  0  0  0  0  0  0  0
   -1.1900   -0.4610   -1.7350 O   0  0  0  0  0  0  0  0  0  0  0  0
    0.1920    0.0290   -1.0920 P   0  0  0  0  0  0  0  0  0  0  0  0
    0.3170   -0.2720    0.5910 O   0  0  0  0  0  0  0  0  0  0  0  0
   -0.1960    1.4520   -0.8840 O   0  0  0  0  0  0  0  0  0  0  0  0
    1.6780    0.4100   -1.7240 O   0  0  0  0  0  0  0  0  0  0  0  0
    2.2220    1.5030   -1.0000 C   0  0  0  0  0  0  0  0  0  0  0  0
    3.2060    0.9720   -0.0150 C   0  0  0  0  0  0  0  0  0  0  0  0
    3.3930   -0.3430    0.0330 C   0  0  0  0  0  0  0  0  0  0  0  0
    4.3610   -0.8470    1.0290 C   0  0  0  0  0  0  0  0  0  0  0  0
    5.4910   -1.5840    0.3900 C   0  0  0  0  0  0  0  0  0  0  0  0
    6.2290   -0.7320   -0.6090 C   0  0  2  0  0  0  0  0  0  0  0  0
    7.6600   -1.5760   -1.3260 S   0  0  0  0  0  0  0  0  0  0  0  0
    8.9260   -0.3170   -0.7990 C   0  0  0  0  0  0  0  0  0  0  0  0
    8.0280    0.8930   -0.8380 C   0  0  2  0  0  0  0  0  0  0  0  0
    8.5780    1.9210   -0.0090 N   0  0  0  0  0  0  0  0  0  0  0  0
    8.2070    1.5740    1.3470 C   0  0  0  0  0  0  0  0  0  0  0  0
    8.6410    2.1870    2.3550 O   0  0  0  0  0  0  0  0  0  0  0  0
    7.3000    0.4470    1.2930 N   0  0  0  0  0  0  0  0  0  0  0  0
    6.7840    0.5040   -0.0460 C   0  0  2  0  0  0  0  0  0  0  0  0
   -3.8400   -1.4790   -0.5700 C   0  0  1  0  0  0  0  0  0  0  0  0
   -3.0160   -2.6200   -0.6450 O   0  0  0  0  0  0  0  0  0  0  0  0
   -4.6860   -1.5030    0.7200 C   0  0  1  0  0  0  0  0  0  0  0  0
   -3.9030   -2.1270    1.6890 O   0  0  0  0  0  0  0  0  0  0  0  0
  1  2  1  0
  2  3  2  0
  2  7  1  0
  3  4  1  0
  4  5  2  0
  5  6  1  0
  6  7  2  0
  6 10  1  0
  7  8  1  0
  8  9  2  0
  9 10  1  0
 11 10  1  6
 11 12  1  0
 11 36  1  0
 12 13  1  0
 13 14  1  6
 13 34  1  0
 14 15  1  0
 15 16  1  0
 16 17  1  0
 16 18  1  0
 16 19  1  0
 19 20  1  0
 20 21  1  0
 21 22  2  3
 22 23  1  0
 23 24  1  0
 25 24  1  1
 25 26  1  0
 25 33  1  0
 26 27  1  0
 28 27  1  1
 28 29  1  0
 28 33  1  0
 29 30  1  0
 30 31  2  0
 30 32  1  0
 33 32  1  1
 34 35  1  1
 34 36  1  0
 36 37  1  1
M  END
