
     RDKit          3D

 25 28  0  0  0  0  0  0  0  0999 V2000
    1.9470   -1.4660   -1.8820 C   0  0  0  0  0  0  0  0  0  0  0  0
    0.8490   -1.0350   -0.9610 C   0  0  0  0  0  0  0  0  0  0  0  0
   -0.4710   -1.2810   -1.1600 N   0  0  0  0  0  0  0  0  0  0  0  0
   -1.1850   -0.7710   -0.1670 N   0  0  0  0  0  0  0  0  0  0  0  0
   -2.6360   -0.8450   -0.0500 C   0  0  0  0  0  0  0  0  0  0  0  0
   -3.6620   -2.1810    0.2360 S   0  0  0  0  0  0  0  0  0  0  0  0
   -5.2440   -1.3130    0.2150 C   0  0  0  0  0  0  0  0  0  0  0  0
   -6.5750   -1.9140    0.4090 C   0  0  0  0  0  0  0  0  0  0  0  0
   -4.8250   -0.0240   -0.0190 C   0  0  0  0  0  0  0  0  0  0  0  0
   -3.5350    0.2450   -0.1560 C   0  0  0  0  0  0  0  0  0  0  0  0
   -3.3590    1.7430   -0.4080 C   0  0  0  0  0  0  0  0  0  0  0  0
   -4.6100    2.3500    0.1340 C   0  0  0  0  0  0  0  0  0  0  0  0
   -5.6270    1.2790   -0.1660 C   0  0  0  0  0  0  0  0  0  0  0  0
   -0.3510   -0.1890    0.6850 C   0  0  0  0  0  0  0  0  0  0  0  0
   -0.6780    0.4750    1.8740 N   0  0  0  0  0  0  0  0  0  0  0  0
    0.9560   -0.3420    0.2040 C   0  0  0  0  0  0  0  0  0  0  0  0
    2.1430    0.1730    0.8820 C   0  0  0  0  0  0  0  0  0  0  0  0
    2.0130    0.8070    1.9880 O   0  0  0  0  0  0  0  0  0  0  0  0
    3.4660    0.0390    0.4280 N   0  0  0  0  0  0  0  0  0  0  0  0
    4.5640    0.6120    1.2220 C   0  0  0  0  0  0  0  0  0  0  0  0
    5.8650    0.3530    0.5570 C   0  0  0  0  0  0  0  0  0  0  0  0
    6.6750   -0.7440    0.7490 C   0  0  0  0  0  0  0  0  0  0  0  0
    7.7750   -0.5780   -0.0620 C   0  0  0  0  0  0  0  0  0  0  0  0
    7.5810    0.6190   -0.7130 C   0  0  0  0  0  0  0  0  0  0  0  0
    6.4500    1.1460   -0.3310 O   0  0  0  0  0  0  0  0  0  0  0  0
  1  2  1  0
  2  3  2  0
  2 16  1  0
  3  4  1  0
  4  5  1  0
  4 14  1  0
  5  6  1  0
  5 10  2  0
  6  7  1  0
  7  8  1  0
  7  9  2  0
  9 10  1  0
  9 13  1  0
 10 11  1  0
 11 12  1  0
 12 13  1  0
 14 15  1  0
 14 16  2  0
 16 17  1  0
 17 18  2  0
 17 19  1  0
 19 20  1  0
 20 21  1  0
 21 22  2  0
 21 25  1  0
 22 23  1  0
 23 24  2  0
 24 25  1  0
M  END
