
     RDKit          3D

 14 14  0  0  0  0  0  0  0  0999 V2000
   -1.9110    1.4770   -1.4740 C   0  0  0  0  0  0  0  0  0  0  0  0
   -1.9740    0.3280   -0.8050 C   0  0  0  0  0  0  0  0  0  0  0  0
   -3.0870   -0.6360   -0.9940 C   0  0  0  0  0  0  0  0  0  0  0  0
   -3.3680   -1.4200    0.0780 O   0  0  0  0  0  0  0  0  0  0  0  0
   -2.7940   -1.0990    1.2650 C   0  0  0  0  0  0  0  0  0  0  0  0
   -1.3550   -0.7700    1.1920 C   0  0  0  0  0  0  0  0  0  0  0  0
   -0.9490   -0.0570    0.1560 C   0  0  0  0  0  0  0  0  0  0  0  0
    0.4260    0.3470   -0.0480 C   0  0  0  0  0  0  0  0  0  0  0  0
    0.7810    1.0200   -1.0420 O   0  0  0  0  0  0  0  0  0  0  0  0
    1.4410    0.0130    0.8440 O   0  0  0  0  0  0  0  0  0  0  0  0
    2.7840    0.3890    0.6750 C   0  0  0  0  0  0  0  0  0  0  0  0
    3.3800   -0.1330   -0.5780 C   0  0  0  0  0  0  0  0  0  0  0  0
    4.7300    0.1870   -0.8460 N   0  0  0  0  0  0  0  0  0  0  0  0
    2.7500   -0.8380   -1.4030 O   0  0  0  0  0  0  0  0  0  0  0  0
  1  2  2  0
  2  3  1  0
  2  7  1  0
  3  4  1  0
  4  5  1  0
  5  6  1  0
  6  7  2  0
  7  8  1  0
  8  9  2  0
  8 10  1  0
 10 11  1  0
 11 12  1  0
 12 13  1  0
 12 14  2  0
M  END
