
     RDKit          3D

 25 27  0  0  0  0  0  0  0  0999 V2000
   -4.9660    1.5360    2.7050 C   0  0  0  0  0  0  0  0  0  0  0  0
   -4.1320    1.1290    1.7690 C   0  0  0  0  0  0  0  0  0  0  0  0
   -4.4490    0.8920    0.3670 C   0  0  0  0  0  0  0  0  0  0  0  0
   -5.6180    1.0370   -0.2330 C   0  0  0  0  0  0  0  0  0  0  0  0
   -3.2110    0.4520   -0.2850 C   0  0  0  0  0  0  0  0  0  0  0  0
   -3.0910    0.1160   -1.6680 N   0  0  0  0  0  0  0  0  0  0  0  0
   -3.8860   -0.9240   -2.2890 C   0  0  0  0  0  0  0  0  0  0  0  0
   -2.2080    0.4040    0.5700 C   0  0  0  0  0  0  0  0  0  0  0  0
   -0.8580    0.0090    0.2430 N   0  0  0  0  0  0  0  0  0  0  0  0
   -0.5180   -1.3360   -0.0100 C   0  0  0  0  0  0  0  0  0  0  0  0
   -1.7540   -2.4440    0.1060 S   0  0  0  0  0  0  0  0  0  0  0  0
    0.7510   -1.8400   -0.3500 N   0  0  0  0  0  0  0  0  0  0  0  0
    1.9110   -1.0480   -0.5260 C   0  0  0  0  0  0  0  0  0  0  0  0
    1.9100    0.1290   -1.2060 C   0  0  0  0  0  0  0  0  0  0  0  0
    3.0940    0.8780   -1.3080 C   0  0  0  0  0  0  0  0  0  0  0  0
    4.2480    0.4120   -0.7190 C   0  0  0  0  0  0  0  0  0  0  0  0
    5.3950    1.1390   -0.8190 N   0  0  0  0  0  0  0  0  0  0  0  0
    6.5440    0.7130   -0.2540 C   0  0  0  0  0  0  0  0  0  0  0  0
    7.5540    1.4470   -0.3960 O   0  0  0  0  0  0  0  0  0  0  0  0
    6.5970   -0.4710    0.4430 C   0  0  0  0  0  0  0  0  0  0  0  0
    5.4550   -1.2280    0.5620 C   0  0  0  0  0  0  0  0  0  0  0  0
    4.2750   -0.7770   -0.0260 C   0  0  0  0  0  0  0  0  0  0  0  0
    3.1000   -1.4780    0.0520 C   0  0  0  0  0  0  0  0  0  0  0  0
   -2.7130    0.8170    1.8870 C   0  0  0  0  0  0  0  0  0  0  0  0
   -2.0110    0.8830    2.9350 O   0  0  0  0  0  0  0  0  0  0  0  0
  1  2  2  0
  2  3  1  0
  2 24  1  0
  3  4  2  0
  3  5  1  0
  5  6  1  0
  5  8  2  0
  6  7  1  0
  8  9  1  0
  8 24  1  0
  9 10  1  0
 10 11  2  0
 10 12  1  0
 12 13  1  0
 13 14  2  0
 13 23  1  0
 14 15  1  0
 15 16  2  0
 16 17  1  0
 16 22  1  0
 17 18  1  0
 18 19  2  0
 18 20  1  0
 20 21  2  0
 21 22  1  0
 22 23  2  0
 24 25  2  0
M  END
