
     RDKit          3D

 24 27  0  0  0  0  0  0  0  0999 V2000
    2.0120   -1.9840   -0.9990 O   0  0  0  0  0  0  0  0  0  0  0  0
    2.8450   -1.5830   -0.0090 C   0  0  0  0  0  0  0  0  0  0  0  0
    4.0070   -2.2800   -0.0530 N   0  0  0  0  0  0  0  0  0  0  0  0
    5.2170   -2.1990   -0.1570 C   0  0  0  0  0  0  0  0  0  0  0  0
    5.9950   -0.9820   -0.3030 C   0  0  0  0  0  0  0  0  0  0  0  0
    5.6740    0.3470   -0.2550 C   0  0  0  0  0  0  0  0  0  0  0  0
    6.6270    1.2560   -0.4780 C   0  0  0  0  0  0  0  0  0  0  0  0
    7.8940    0.8280   -0.7490 C   0  0  0  0  0  0  0  0  0  0  0  0
    7.7420   -0.9370   -0.6850 S   0  0  0  0  0  0  0  0  0  0  0  0
    2.3170   -0.5930    0.7870 N   0  0  0  0  0  0  0  0  0  0  0  0
    1.0430   -0.0200    0.6640 C   0  0  0  0  0  0  0  0  0  0  0  0
    0.8260    1.3480    0.9430 C   0  0  0  0  0  0  0  0  0  0  0  0
   -0.4250    1.8980    0.8510 C   0  0  0  0  0  0  0  0  0  0  0  0
   -1.4950    1.1310    0.4850 C   0  0  0  0  0  0  0  0  0  0  0  0
   -2.8000    1.3730    0.3250 N   0  0  0  0  0  0  0  0  0  0  0  0
   -3.4560    0.2670   -0.0360 C   0  0  0  0  0  0  0  0  0  0  0  0
   -4.9070    0.2520   -0.2950 C   0  0  2  0  0  0  0  0  0  0  0  0
   -5.6940   -1.0090   -0.2550 C   0  0  0  0  0  0  0  0  0  0  0  0
   -5.2180   -1.9000   -1.1910 O   0  0  0  0  0  0  0  0  0  0  0  0
   -5.3280    1.2760   -1.3230 C   0  0  0  0  0  0  0  0  0  0  0  0
   -5.7210    1.5100    0.0570 C   0  0  0  0  0  0  0  0  0  0  0  0
   -2.5420   -0.7060   -0.1090 N   0  0  0  0  0  0  0  0  0  0  0  0
   -1.3210   -0.2140    0.2090 C   0  0  0  0  0  0  0  0  0  0  0  0
   -0.0710   -0.7790    0.2970 C   0  0  0  0  0  0  0  0  0  0  0  0
  1  2  2  0
  2  3  1  0
  2 10  1  0
  3  4  2  3
  4  5  1  0
  5  6  2  0
  5  9  1  0
  6  7  1  0
  7  8  2  0
  8  9  1  0
 10 11  1  0
 11 12  2  0
 11 24  1  0
 12 13  1  0
 13 14  2  0
 14 15  1  0
 14 23  1  0
 15 16  2  0
 16 17  1  0
 16 22  1  0
 17 18  1  6
 17 20  1  0
 17 21  1  0
 18 19  1  0
 20 21  1  0
 22 23  1  0
 23 24  2  0
M  END
