
     RDKit          3D

 25 28  0  0  0  0  0  0  0  0999 V2000
    1.7950   -1.7150   -1.6050 O   0  0  0  0  0  0  0  0  0  0  0  0
    1.3770   -1.2660   -0.5120 C   0  0  0  0  0  0  0  0  0  0  0  0
    2.1660   -0.3210    0.2360 N   0  0  0  0  0  0  0  0  0  0  0  0
    3.4100    0.1770   -0.1590 C   0  0  0  0  0  0  0  0  0  0  0  0
    3.9200    0.1410   -1.4290 C   0  0  0  0  0  0  0  0  0  0  0  0
    5.1950    0.6380   -1.7090 C   0  0  0  0  0  0  0  0  0  0  0  0
    5.9910    1.1850   -0.7270 C   0  0  0  0  0  0  0  0  0  0  0  0
    5.4710    1.2110    0.5090 N   0  0  0  0  0  0  0  0  0  0  0  0
    4.2530    0.7430    0.8040 C   0  0  0  0  0  0  0  0  0  0  0  0
    0.0910   -1.6710    0.0630 C   0  0  0  0  0  0  0  0  0  0  0  0
   -0.2030   -2.9890    0.3430 C   0  0  0  0  0  0  0  0  0  0  0  0
   -1.4180   -3.2840    0.9740 C   0  0  0  0  0  0  0  0  0  0  0  0
   -1.7220   -4.4590    1.2490 O   0  0  0  0  0  0  0  0  0  0  0  0
   -2.2990   -2.3200    1.3080 N   0  0  0  0  0  0  0  0  0  0  0  0
   -2.0220   -1.0440    1.0390 C   0  0  0  0  0  0  0  0  0  0  0  0
   -0.8170   -0.7030    0.4090 C   0  0  0  0  0  0  0  0  0  0  0  0
   -0.5320    0.7120    0.0680 C   0  0  0  0  0  0  0  0  0  0  0  0
   -1.8340    1.2430   -0.4820 C   0  0  0  0  0  0  0  0  0  0  0  0
   -1.9190    2.0390   -1.5950 C   0  0  0  0  0  0  0  0  0  0  0  0
   -3.1480    2.4980   -2.0650 C   0  0  0  0  0  0  0  0  0  0  0  0
   -4.2940    2.1620   -1.4200 N   0  0  0  0  0  0  0  0  0  0  0  0
   -4.2230    1.3730   -0.3100 C   0  0  0  0  0  0  0  0  0  0  0  0
   -5.6900    0.8990    0.5900 S   0  0  0  0  0  0  0  0  0  0  0  0
   -3.0110    0.9170    0.1560 C   0  0  0  0  0  0  0  0  0  0  0  0
   -2.9680    0.0710    1.3700 C   0  0  0  0  0  0  0  0  0  0  0  0
  1  2  2  0
  2  3  1  0
  2 10  1  0
  3  4  1  0
  4  5  2  0
  4  9  1  0
  5  6  1  0
  6  7  2  0
  7  8  1  0
  8  9  2  0
 10 11  2  0
 10 16  1  0
 11 12  1  0
 12 13  2  0
 12 14  1  0
 14 15  1  0
 15 16  2  0
 15 25  1  0
 16 17  1  0
 17 18  1  0
 18 19  2  0
 18 24  1  0
 19 20  1  0
 20 21  2  0
 21 22  1  0
 22 23  1  0
 22 24  2  0
 24 25  1  0
M  END
