
     RDKit          3D

 19 19  0  0  0  0  0  0  0  0999 V2000
   -4.5350   -2.3230   -0.3150 C   0  0  0  0  0  0  0  0  0  0  0  0
   -4.8520   -0.8150   -0.4290 C   0  0  0  0  0  0  0  0  0  0  0  0
   -3.7350   -0.1230    0.1900 C   0  0  0  0  0  0  0  0  0  0  0  0
   -2.9560    0.7370   -0.4170 C   0  0  0  0  0  0  0  0  0  0  0  0
   -3.1540    1.0900   -1.8340 C   0  0  0  0  0  0  0  0  0  0  0  0
   -3.4160    2.6050   -1.8460 C   0  0  0  0  0  0  0  0  0  0  0  0
   -1.8870    1.3510    0.3080 O   0  0  0  0  0  0  0  0  0  0  0  0
   -1.1350    0.6240    1.2610 C   0  0  2  0  0  0  0  0  0  0  0  0
    0.1880    0.2080    0.6920 C   0  0  0  0  0  0  0  0  0  0  0  0
    0.5070    0.5130   -0.4960 O   0  0  0  0  0  0  0  0  0  0  0  0
    1.1130   -0.5080    1.4030 O   0  0  0  0  0  0  0  0  0  0  0  0
    2.3620   -0.9310    0.9450 C   0  0  0  0  0  0  0  0  0  0  0  0
    3.2690    0.1960    0.5270 C   0  0  0  0  0  0  0  0  0  0  0  0
    4.5690   -0.4400    0.0630 C   0  0  1  0  0  0  0  0  0  0  0  0
    4.3600   -1.3800   -1.0990 C   0  0  0  0  0  0  0  0  0  0  0  0
    5.5940    0.6080   -0.3080 C   0  0  0  0  0  0  0  0  0  0  0  0
    5.0680    1.4720   -1.4260 C   0  0  0  0  0  0  0  0  0  0  0  0
   -1.9060   -0.6330    1.6690 C   0  0  0  0  0  0  0  0  0  0  0  0
   -3.3920   -0.3710    1.6580 C   0  0  0  0  0  0  0  0  0  0  0  0
  1  2  1  0
  2  3  1  0
  3  4  2  0
  3 19  1  0
  4  5  1  0
  4  7  1  0
  5  6  1  0
  7  8  1  0
  8  9  1  6
  8 18  1  0
  9 10  2  0
  9 11  1  0
 11 12  1  0
 12 13  1  0
 13 14  1  0
 14 15  1  6
 14 16  1  0
 16 17  1  0
 18 19  1  0
M  END
