
     RDKit          3D

 27 29  0  0  0  0  0  0  0  0999 V2000
   -0.4810    0.9690    0.1830 O   0  0  0  0  0  0  0  0  0  0  0  0
   -1.0800   -0.1180    0.3060 C   0  0  0  0  0  0  0  0  0  0  0  0
   -0.2920   -1.3620    0.4290 C   0  0  0  0  0  0  0  0  0  0  0  0
    1.1240   -1.1150    0.3720 N   0  0  0  0  0  0  0  0  0  0  0  0
    1.8880   -1.0970   -0.8230 C   0  0  0  0  0  0  0  0  0  0  0  0
    1.6860   -1.7550   -1.8860 O   0  0  0  0  0  0  0  0  0  0  0  0
    3.0150   -0.1490   -0.6400 C   0  0  0  0  0  0  0  0  0  0  0  0
    3.2540   -0.1570    0.8350 C   0  0  2  0  0  0  0  0  0  0  0  0
    4.7990   -1.0500    1.1370 S   0  0  0  0  0  0  0  0  0  0  0  0
    6.1800   -0.0940    0.4320 C   0  0  0  0  0  0  0  0  0  0  0  0
    7.3670   -0.6000    0.5280 C   0  0  0  0  0  0  0  0  0  0  0  0
    8.6650   -0.0930    0.0720 C   0  0  1  0  0  0  0  0  0  0  0  0
    9.4110   -1.2950   -1.0220 Cl  0  0  0  0  0  0  0  0  0  0  0  0
    8.4800    1.4890   -0.7430 S   0  0  0  0  0  0  0  0  0  0  0  0
    6.7720    1.9470   -0.7380 C   0  0  0  0  0  0  0  0  0  0  0  0
    5.8600    1.1690   -0.1920 C   0  0  0  0  0  0  0  0  0  0  0  0
    2.0740   -0.8340    1.4000 C   0  0  0  0  0  0  0  0  0  0  0  0
    1.9200   -1.1230    2.6130 O   0  0  0  0  0  0  0  0  0  0  0  0
   -2.4790   -0.1600    0.3270 N   0  0  0  0  0  0  0  0  0  0  0  0
   -3.2180    1.1060    0.1870 C   0  0  0  0  0  0  0  0  0  0  0  0
   -4.1020    0.8720   -1.0350 C   0  0  0  0  0  0  0  0  0  0  0  0
   -5.0590   -0.1250   -0.7160 N   0  0  0  0  0  0  0  0  0  0  0  0
   -6.0360    0.2280    0.2600 C   0  0  0  0  0  0  0  0  0  0  0  0
   -7.0000    1.2900   -0.2280 C   0  0  0  0  0  0  0  0  0  0  0  0
   -7.9020    1.5540    0.8010 O   0  0  0  0  0  0  0  0  0  0  0  0
   -4.4600   -1.3810   -0.4450 C   0  0  0  0  0  0  0  0  0  0  0  0
   -3.2580   -1.3490    0.4690 C   0  0  0  0  0  0  0  0  0  0  0  0
  1  2  2  0
  2  3  1  0
  2 19  1  0
  3  4  1  0
  4  5  1  0
  4 17  1  0
  5  6  2  0
  5  7  1  0
  7  8  1  0
  8  9  1  6
  8 17  1  0
  9 10  1  0
 10 11  2  0
 10 16  1  0
 11 12  1  0
 12 13  1  6
 12 14  1  0
 14 15  1  0
 15 16  2  0
 17 18  2  0
 19 20  1  0
 19 27  1  0
 20 21  1  0
 21 22  1  0
 22 23  1  0
 22 26  1  0
 23 24  1  0
 24 25  1  0
 26 27  1  0
M  END
