
     RDKit          3D

 19 19  0  0  0  0  0  0  0  0999 V2000
   -5.3930    1.0740    0.5450 C   0  0  0  0  0  0  0  0  0  0  0  0
   -5.3310    0.8460   -0.7530 C   0  0  0  0  0  0  0  0  0  0  0  0
   -4.2540   -0.0250   -1.3000 C   0  0  0  0  0  0  0  0  0  0  0  0
   -3.4440   -0.6220   -0.2450 C   0  0  0  0  0  0  0  0  0  0  0  0
   -4.0330   -1.6240    0.6280 C   0  0  0  0  0  0  0  0  0  0  0  0
   -5.2830   -2.0320    0.5250 C   0  0  0  0  0  0  0  0  0  0  0  0
   -2.1650   -0.2840   -0.0700 C   0  0  0  0  0  0  0  0  0  0  0  0
   -1.4590    0.6930   -0.8930 C   0  0  0  0  0  0  0  0  0  0  0  0
    0.0420    0.4020   -0.7850 C   0  0  0  0  0  0  0  0  0  0  0  0
    0.5560    0.4920    0.6130 C   0  0  2  0  0  0  0  0  0  0  0  0
    1.9070   -0.1780    0.6890 C   0  0  0  0  0  0  0  0  0  0  0  0
    2.9280    0.4290   -0.1810 C   0  0  0  0  0  0  0  0  0  0  0  0
    2.7980    1.4140   -0.9210 O   0  0  0  0  0  0  0  0  0  0  0  0
    4.1890   -0.1710   -0.1740 O   0  0  0  0  0  0  0  0  0  0  0  0
    5.2370    0.3390   -0.9760 C   0  0  1  0  0  0  0  0  0  0  0  0
    6.3100    0.8380    0.0000 C   0  0  0  0  0  0  0  0  0  0  0  0
    5.8100   -0.7520   -1.8510 C   0  0  0  0  0  0  0  0  0  0  0  0
   -0.3570   -0.1850    1.5940 C   0  0  0  0  0  0  0  0  0  0  0  0
   -1.4170   -0.8780    0.9560 O   0  0  0  0  0  0  0  0  0  0  0  0
  1  2  2  0
  2  3  1  0
  3  4  1  0
  4  5  1  0
  4  7  2  3
  5  6  2  0
  7  8  1  0
  7 19  1  0
  8  9  1  0
  9 10  1  0
 10 11  1  6
 10 18  1  0
 11 12  1  0
 12 13  2  0
 12 14  1  0
 14 15  1  0
 15 16  1  1
 15 17  1  0
 18 19  1  0
M  END
