
     RDKit          3D

 28 30  0  0  0  0  0  0  0  0999 V2000
   -6.0770    1.9530    0.8700 C   0  0  0  0  0  0  0  0  0  0  0  0
   -5.1890    1.1320    0.1330 O   0  0  0  0  0  0  0  0  0  0  0  0
   -4.5870    1.6050   -1.0220 C   0  0  0  0  0  0  0  0  0  0  0  0
   -4.8500    2.7570   -1.3820 O   0  0  0  0  0  0  0  0  0  0  0  0
   -3.6640    0.6920   -1.7490 C   0  0  0  0  0  0  0  0  0  0  0  0
   -3.5500   -0.5800   -1.0780 N   0  0  0  0  0  0  0  0  0  0  0  0
   -4.3920   -1.7250   -1.3190 C   0  0  0  0  0  0  0  0  0  0  0  0
   -4.9790   -1.9800   -2.4140 O   0  0  0  0  0  0  0  0  0  0  0  0
   -4.4280   -2.4880   -0.1060 N   0  0  0  0  0  0  0  0  0  0  0  0
   -3.6080   -1.7820    0.8250 C   0  0  0  0  0  0  0  0  0  0  0  0
   -3.6960   -1.7900    2.0680 O   0  0  0  0  0  0  0  0  0  0  0  0
   -2.6260   -1.0360   -0.0500 C   0  0  1  0  0  0  0  0  0  0  0  0
   -1.7120   -2.0970   -0.6170 C   0  0  0  0  0  0  0  0  0  0  0  0
   -0.5220   -2.1880    0.3480 C   0  0  0  0  0  0  0  0  0  0  0  0
    0.2140   -0.9190    0.0850 N   0  0  0  0  0  0  0  0  0  0  0  0
    1.5540   -1.0250   -0.2820 C   0  0  0  0  0  0  0  0  0  0  0  0
    2.0640   -2.2380   -0.3470 O   0  0  0  0  0  0  0  0  0  0  0  0
    2.5200    0.0030   -0.6150 C   0  0  0  0  0  0  0  0  0  0  0  0
    2.3400    1.2740   -0.6520 C   0  0  0  0  0  0  0  0  0  0  0  0
    3.7750    2.2410   -1.1100 S   0  0  0  0  0  0  0  0  0  0  0  0
    5.1290    1.0840   -0.6430 C   0  0  1  0  0  0  0  0  0  0  0  0
    5.4060    1.1550    0.8190 C   0  0  0  0  0  0  0  0  0  0  0  0
    6.5020    0.2050    1.1840 C   0  0  0  0  0  0  0  0  0  0  0  0
    7.7790    0.5260    0.4660 C   0  0  0  0  0  0  0  0  0  0  0  0
    8.2750    2.1890    0.8960 Cl  0  0  0  0  0  0  0  0  0  0  0  0
    4.2130   -0.4470   -1.0480 S   0  0  0  0  0  0  0  0  0  0  0  0
   -0.4950    0.3090    0.2260 C   0  0  0  0  0  0  0  0  0  0  0  0
   -1.9470    0.0540    0.6710 C   0  0  0  0  0  0  0  0  0  0  0  0
  1  2  1  0
  2  3  1  0
  3  4  2  0
  3  5  1  0
  5  6  1  0
  6  7  1  0
  6 12  1  0
  7  8  2  0
  7  9  1  0
  9 10  1  0
 10 11  2  0
 10 12  1  0
 12 13  1  6
 12 28  1  0
 13 14  1  0
 14 15  1  0
 15 16  1  0
 15 27  1  0
 16 17  2  0
 16 18  1  0
 18 19  2  0
 18 26  1  0
 19 20  1  0
 20 21  1  0
 21 22  1  1
 21 26  1  0
 22 23  1  0
 23 24  1  0
 24 25  1  0
 27 28  1  0
M  END
