
     RDKit          3D

 19 19  0  0  0  0  0  0  0  0999 V2000
   -2.7750    3.6820    1.0790 C   0  0  0  0  0  0  0  0  0  0  0  0
   -1.6340    2.6560    1.1460 C   0  0  0  0  0  0  0  0  0  0  0  0
   -1.6330    1.7670   -0.0430 C   0  0  0  0  0  0  0  0  0  0  0  0
   -0.5670    0.7160   -0.0990 C   0  0  2  0  0  0  0  0  0  0  0  0
    0.7780    1.2850   -0.1000 C   0  0  0  0  0  0  0  0  0  0  0  0
    0.8790    2.4960   -0.0740 O   0  0  0  0  0  0  0  0  0  0  0  0
    2.0430    0.5080   -0.1310 C   0  0  2  0  0  0  0  0  0  0  0  0
    2.9580    0.8920    1.0310 C   0  0  0  0  0  0  0  0  0  0  0  0
    2.8130    0.8700   -1.3980 C   0  0  0  0  0  0  0  0  0  0  0  0
    1.8530   -0.8680   -0.1870 O   0  0  0  0  0  0  0  0  0  0  0  0
    3.0660   -1.5060   -0.2130 C   0  0  0  0  0  0  0  0  0  0  0  0
    2.8810   -3.0140   -0.2740 C   0  0  0  0  0  0  0  0  0  0  0  0
   -0.7470    0.0050   -1.4530 C   0  0  0  0  0  0  0  0  0  0  0  0
   -2.1460   -0.4770   -1.5520 C   0  0  0  0  0  0  0  0  0  0  0  0
   -2.6730   -1.0300   -0.4100 O   0  0  0  0  0  0  0  0  0  0  0  0
   -1.7670   -1.4030    0.5350 C   0  0  2  0  0  0  0  0  0  0  0  0
   -1.0330   -2.6940    0.1640 C   0  0  0  0  0  0  0  0  0  0  0  0
   -2.5720   -1.7580    1.7960 C   0  0  0  0  0  0  0  0  0  0  0  0
   -0.8060   -0.3170    0.9610 C   0  0  0  0  0  0  0  0  0  0  0  0
  1  2  1  0
  2  3  1  0
  4  3  1  1
  4  5  1  0
  4 13  1  0
  4 19  1  0
  5  6  2  0
  5  7  1  0
  7  8  1  1
  7  9  1  0
  7 10  1  0
 10 11  1  0
 11 12  1  0
 13 14  1  0
 14 15  1  0
 15 16  1  0
 16 17  1  6
 16 18  1  0
 16 19  1  0
M  END
