
     RDKit          3D

 19 19  0  0  0  0  0  0  0  0999 V2000
    3.8880   -2.2430   -1.3240 C   0  0  0  0  0  0  0  0  0  0  0  0
    3.1740   -1.1530   -1.7450 O   0  0  0  0  0  0  0  0  0  0  0  0
    3.1820   -0.0810   -0.8190 C   0  0  0  0  0  0  0  0  0  0  0  0
    2.5780   -0.5210    0.4930 C   0  0  0  0  0  0  0  0  0  0  0  0
    1.1840   -0.9290    0.4350 C   0  0  0  0  0  0  0  0  0  0  0  0
    0.1330    0.1520    0.1360 C   0  0  0  0  0  0  0  0  0  0  0  0
    0.5490    1.3420    0.0830 C   0  0  0  0  0  0  0  0  0  0  0  0
    0.0370    2.6570   -0.1570 C   0  0  0  0  0  0  0  0  0  0  0  0
    0.9010    3.6940   -0.1010 C   0  0  0  0  0  0  0  0  0  0  0  0
    0.5720    5.1050   -0.3160 C   0  0  0  0  0  0  0  0  0  0  0  0
   -0.7710    5.3250   -0.6230 O   0  0  0  0  0  0  0  0  0  0  0  0
   -1.6880    4.3130   -0.6950 C   0  0  0  0  0  0  0  0  0  0  0  0
   -1.3160    3.0530   -0.4760 C   0  0  0  0  0  0  0  0  0  0  0  0
   -1.1890   -0.4190    0.0090 C   0  0  0  0  0  0  0  0  0  0  0  0
   -2.2370    0.1950   -0.1750 O   0  0  0  0  0  0  0  0  0  0  0  0
   -1.3500   -1.9410    0.1110 C   0  0  0  0  0  0  0  0  0  0  0  0
   -2.8250   -2.2740    0.0340 C   0  0  1  0  0  0  0  0  0  0  0  0
   -3.0890   -3.7380    0.1240 C   0  0  0  0  0  0  0  0  0  0  0  0
   -3.5730   -1.5000    1.0760 C   0  0  0  0  0  0  0  0  0  0  0  0
  1  2  1  0
  2  3  1  0
  3  4  1  0
  4  5  1  0
  5  6  1  0
  6  7  2  3
  6 14  1  0
  7  8  1  0
  8  9  2  0
  8 13  1  0
  9 10  1  0
 10 11  1  0
 11 12  1  0
 12 13  2  0
 14 15  2  0
 14 16  1  0
 16 17  1  0
 17 18  1  1
 17 19  1  0
M  END
