
     RDKit          3D

 19 19  0  0  0  0  0  0  0  0999 V2000
   -4.2730   -3.2670   -0.1100 C   0  0  0  0  0  0  0  0  0  0  0  0
   -4.0550   -1.7690   -0.3900 C   0  0  0  0  0  0  0  0  0  0  0  0
   -2.6080   -1.5320   -0.5940 C   0  0  0  0  0  0  0  0  0  0  0  0
   -2.1680   -0.1510   -0.9040 C   0  0  2  0  0  0  0  0  0  0  0  0
   -0.6620   -0.2260   -1.0470 C   0  0  0  0  0  0  0  0  0  0  0  0
   -0.1000    0.0990   -2.1210 O   0  0  0  0  0  0  0  0  0  0  0  0
    0.1380   -0.6520   -0.0040 O   0  0  0  0  0  0  0  0  0  0  0  0
    1.5430   -0.7390   -0.0810 C   0  0  0  0  0  0  0  0  0  0  0  0
    2.2340    0.5520   -0.3550 C   0  0  0  0  0  0  0  0  0  0  0  0
    3.7220    0.2840   -0.4030 C   0  0  1  0  0  0  0  0  0  0  0  0
    3.9640   -0.7250   -1.5280 C   0  0  0  0  0  0  0  0  0  0  0  0
    4.4980    1.5320   -0.7870 C   0  0  0  0  0  0  0  0  0  0  0  0
    4.1500   -0.2860    0.7660 O   0  0  0  0  0  0  0  0  0  0  0  0
    3.9400    0.4830    1.8850 C   0  0  0  0  0  0  0  0  0  0  0  0
   -2.4770    0.8750    0.0960 C   0  0  0  0  0  0  0  0  0  0  0  0
   -1.5530    1.5790    0.7770 C   0  0  0  0  0  0  0  0  0  0  0  0
   -2.2400    2.5030    1.6770 C   0  0  0  0  0  0  0  0  0  0  0  0
   -3.6800    2.2880    1.4620 C   0  0  0  0  0  0  0  0  0  0  0  0
   -3.7830    1.3420    0.5450 C   0  0  0  0  0  0  0  0  0  0  0  0
  1  2  1  0
  2  3  1  0
  4  3  1  1
  4  5  1  0
  4 15  1  0
  5  6  2  0
  5  7  1  0
  7  8  1  0
  8  9  1  0
  9 10  1  0
 10 11  1  6
 10 12  1  0
 10 13  1  0
 13 14  1  0
 15 16  2  0
 15 19  1  0
 16 17  1  0
 17 18  1  0
 18 19  2  0
M  END
