
     RDKit          3D

 26 28  0  0  0  0  0  0  0  0999 V2000
    4.8750    0.2310    3.1050 C   0  0  0  0  0  0  0  0  0  0  0  0
    5.1700    1.0640    1.9010 C   0  0  0  0  0  0  0  0  0  0  0  0
    4.0140    1.1270    0.9600 C   0  0  0  0  0  0  0  0  0  0  0  0
    2.9680    0.5050    1.2570 O   0  0  0  0  0  0  0  0  0  0  0  0
    4.0520    1.8560   -0.2480 N   0  0  0  0  0  0  0  0  0  0  0  0
    2.9570    1.9250   -1.1550 C   0  0  0  0  0  0  0  0  0  0  0  0
    2.6590    2.3940   -2.1640 N   0  0  0  0  0  0  0  0  0  0  0  0
    1.5170    2.3010   -2.8340 C   0  0  0  0  0  0  0  0  0  0  0  0
    1.3120    3.0010   -4.1570 C   0  0  0  0  0  0  0  0  0  0  0  0
    0.5710    1.5540   -2.2570 C   0  0  0  0  0  0  0  0  0  0  0  0
   -0.8250    1.1840   -2.6350 C   0  0  0  0  0  0  0  0  0  0  0  0
   -1.4210    1.6000   -3.8250 C   0  0  0  0  0  0  0  0  0  0  0  0
   -3.0970    0.8320   -3.6830 S   0  0  0  0  0  0  0  0  0  0  0  0
   -2.7150    0.0590   -2.0090 C   0  0  0  0  0  0  0  0  0  0  0  0
   -3.7190   -0.6960   -1.3920 N   0  0  0  0  0  0  0  0  0  0  0  0
   -3.5550   -1.3250   -0.1390 C   0  0  0  0  0  0  0  0  0  0  0  0
   -4.5760   -2.0630    0.4250 C   0  0  0  0  0  0  0  0  0  0  0  0
   -4.3870   -2.6650    1.6510 C   0  0  0  0  0  0  0  0  0  0  0  0
   -3.2050   -2.5590    2.3470 C   0  0  0  0  0  0  0  0  0  0  0  0
   -3.0240   -3.2090    3.6520 C   0  0  0  0  0  0  0  0  0  0  0  0
   -1.9470   -3.1110    4.2840 O   0  0  0  0  0  0  0  0  0  0  0  0
   -4.0770   -3.9410    4.1790 O   0  0  0  0  0  0  0  0  0  0  0  0
   -2.1930   -1.8230    1.7800 C   0  0  0  0  0  0  0  0  0  0  0  0
   -2.3670   -1.2060    0.5380 C   0  0  0  0  0  0  0  0  0  0  0  0
   -1.5800    0.4580   -1.8880 N   0  0  0  0  0  0  0  0  0  0  0  0
    1.3730    0.9950   -0.7300 S   0  0  0  0  0  0  0  0  0  0  0  0
  1  2  1  0
  2  3  1  0
  3  4  2  0
  3  5  1  0
  5  6  1  0
  6  7  2  0
  6 26  1  0
  7  8  1  0
  8  9  1  0
  8 10  2  0
 10 11  1  0
 10 26  1  0
 11 12  2  0
 11 25  1  0
 12 13  1  0
 13 14  1  0
 14 15  1  0
 14 25  2  0
 15 16  1  0
 16 17  2  0
 16 24  1  0
 17 18  1  0
 18 19  2  0
 19 20  1  0
 19 23  1  0
 20 21  2  0
 20 22  1  0
 23 24  2  0
M  END
