
     RDKit          3D

 16 16  0  0  0  0  0  0  0  0999 V2000
   -5.8270    0.9090   -0.3730 C   0  0  0  0  0  0  0  0  0  0  0  0
   -4.6670    0.0970    0.0100 N   0  0  0  0  0  0  0  0  0  0  0  0
   -3.3430    0.5710   -0.1770 C   0  0  0  0  0  0  0  0  0  0  0  0
   -3.2090    1.7100   -0.6840 O   0  0  0  0  0  0  0  0  0  0  0  0
   -2.1470   -0.2420    0.2070 C   0  0  0  0  0  0  0  0  0  0  0  0
   -0.6920    0.7110   -0.1940 S   0  0  0  0  0  0  0  0  0  0  0  0
    0.8520   -0.0460    0.1800 C   0  0  0  0  0  0  0  0  0  0  0  0
    2.0260    0.6720   -0.1300 C   0  0  0  0  0  0  0  0  0  0  0  0
    3.2830    0.1850    0.1170 C   0  0  0  0  0  0  0  0  0  0  0  0
    4.4240    0.8990   -0.1920 O   0  0  0  0  0  0  0  0  0  0  0  0
    4.3990    2.1790   -0.7830 C   0  0  0  0  0  0  0  0  0  0  0  0
    3.4180   -1.0660    0.6960 C   0  0  0  0  0  0  0  0  0  0  0  0
    4.6950   -1.5470    0.9400 O   0  0  0  0  0  0  0  0  0  0  0  0
    2.2760   -1.7490    0.9900 C   0  0  0  0  0  0  0  0  0  0  0  0
    0.9870   -1.2860    0.7540 C   0  0  0  0  0  0  0  0  0  0  0  0
   -0.1420   -2.0770    1.1010 N   0  0  0  0  0  0  0  0  0  0  0  0
  1  2  1  0
  2  3  1  0
  3  4  2  0
  3  5  1  0
  5  6  1  0
  6  7  1  0
  7  8  2  0
  7 15  1  0
  8  9  1  0
  9 10  1  0
  9 12  2  0
 10 11  1  0
 12 13  1  0
 12 14  1  0
 14 15  2  0
 15 16  1  0
M  END
