
     RDKit          3D

 16 16  0  0  0  0  0  0  0  0999 V2000
    4.8040    1.8210    0.4160 C   0  0  0  0  0  0  0  0  0  0  0  0
    4.7950    0.3360    0.6950 C   0  0  0  0  0  0  0  0  0  0  0  0
    3.9020   -0.4020   -0.1270 N   0  0  0  0  0  0  0  0  0  0  0  0
    2.4940   -0.2220   -0.2040 C   0  0  0  0  0  0  0  0  0  0  0  0
    2.0200    0.6790    0.5320 O   0  0  0  0  0  0  0  0  0  0  0  0
    1.6570   -1.0290   -1.0780 C   0  0  0  0  0  0  0  0  0  0  0  0
    0.2880   -0.7450   -1.0550 O   0  0  0  0  0  0  0  0  0  0  0  0
   -0.5400   -0.8190    0.0110 C   0  0  0  0  0  0  0  0  0  0  0  0
    0.0330   -1.1910    1.0910 O   0  0  0  0  0  0  0  0  0  0  0  0
   -1.9580   -0.5250    0.0360 C   0  0  0  0  0  0  0  0  0  0  0  0
   -2.9610   -0.6820    1.6070 S   0  0  0  0  0  0  0  0  0  0  0  0
   -4.4630   -0.1920    0.8620 C   0  0  0  0  0  0  0  0  0  0  0  0
   -5.7950   -0.0820    1.5890 C   0  0  0  0  0  0  0  0  0  0  0  0
   -4.1530    0.0380   -0.3990 C   0  0  0  0  0  0  0  0  0  0  0  0
   -2.8930   -0.1210   -0.8530 C   0  0  0  0  0  0  0  0  0  0  0  0
   -2.4580    0.1110   -2.2380 N   0  0  0  0  0  0  0  0  0  0  0  0
  1  2  1  0
  2  3  1  0
  3  4  1  0
  4  5  2  0
  4  6  1  0
  6  7  1  0
  7  8  1  0
  8  9  2  0
  8 10  1  0
 10 11  1  0
 10 15  2  0
 11 12  1  0
 12 13  1  0
 12 14  2  0
 14 15  1  0
 15 16  1  0
M  END
