
     RDKit          3D

 16 16  0  0  0  0  0  0  0  0999 V2000
    5.4980   -1.6340    0.1540 N   0  0  0  0  0  0  0  0  0  0  0  0
    4.4570   -0.7850    0.6070 C   0  0  0  0  0  0  0  0  0  0  0  0
    3.8750   -1.1520    1.6670 O   0  0  0  0  0  0  0  0  0  0  0  0
    4.0620    0.4460   -0.0900 C   0  0  0  0  0  0  0  0  0  0  0  0
    2.8910    1.1570    0.4770 C   0  0  0  0  0  0  0  0  0  0  0  0
    1.6060    0.3900    0.4970 C   0  0  0  0  0  0  0  0  0  0  0  0
    0.3240    1.4210    1.2120 S   0  0  1  0  0  0  0  0  0  0  0  0
    0.7760    1.7660    2.6040 O   0  0  0  0  0  0  0  0  0  0  0  0
    0.2430    2.6810    0.4350 O   0  0  0  0  0  0  0  0  0  0  0  0
   -1.1670    0.6650    1.2870 N   0  0  0  0  0  0  0  0  0  0  0  0
   -1.7670    0.2630    0.0650 C   0  0  1  0  0  0  0  0  0  0  0  0
   -1.9400   -1.2410    0.1230 C   0  0  0  0  0  0  0  0  0  0  0  0
   -2.5590   -1.7940   -1.1270 C   0  0  0  0  0  0  0  0  0  0  0  0
   -3.9810   -1.2420   -1.2170 C   0  0  0  0  0  0  0  0  0  0  0  0
   -3.8440    0.2630   -1.3120 C   0  0  0  0  0  0  0  0  0  0  0  0
   -3.1540    0.8520   -0.1250 C   0  0  0  0  0  0  0  0  0  0  0  0
  1  2  1  0
  2  3  2  0
  2  4  1  0
  4  5  1  0
  5  6  1  0
  7  6  1  6
  7  8  2  0
  7  9  2  0
  7 10  1  0
 11 10  1  1
 11 12  1  0
 11 16  1  0
 12 13  1  0
 13 14  1  0
 14 15  1  0
 15 16  1  0
M  END
