
     RDKit          3D

 22 24  0  0  0  0  0  0  0  0999 V2000
   -3.6870    2.6720   -0.8200 C   0  0  0  0  0  0  0  0  0  0  0  0
   -2.7520    2.0460   -0.1490 C   0  0  0  0  0  0  0  0  0  0  0  0
   -1.5970    1.2610   -0.6450 C   0  0  0  0  0  0  0  0  0  0  0  0
   -1.4650    0.2080    0.3540 N   0  0  0  0  0  0  0  0  0  0  0  0
   -1.1010   -1.1700    0.1590 C   0  0  0  0  0  0  0  0  0  0  0  0
   -1.9560   -2.2200    0.3700 N   0  0  0  0  0  0  0  0  0  0  0  0
   -1.3590   -3.3690    0.0750 C   0  0  0  0  0  0  0  0  0  0  0  0
   -1.9820   -4.7140    0.1780 C   0  0  0  0  0  0  0  0  0  0  0  0
   -0.0860   -3.0740   -0.3380 C   0  0  0  0  0  0  0  0  0  0  0  0
    0.9520   -4.0340   -0.7660 C   0  0  0  0  0  0  0  0  0  0  0  0
    0.0910   -1.6850   -0.2880 C   0  0  0  0  0  0  0  0  0  0  0  0
    1.3310   -0.9990   -0.6110 C   0  0  0  0  0  0  0  0  0  0  0  0
    2.1750   -1.5850   -1.3230 O   0  0  0  0  0  0  0  0  0  0  0  0
    1.6630    0.3090   -0.1680 N   0  0  0  0  0  0  0  0  0  0  0  0
    2.9170    0.9390   -0.5520 C   0  0  0  0  0  0  0  0  0  0  0  0
    3.0410    2.3180    0.0720 C   0  0  2  0  0  0  0  0  0  0  0  0
    4.2750    3.1160   -0.2320 C   0  0  0  0  0  0  0  0  0  0  0  0
    4.1370    2.4660    1.1170 C   0  0  0  0  0  0  0  0  0  0  0  0
   -1.8280    0.8320    1.6070 C   0  0  0  0  0  0  0  0  0  0  0  0
   -1.4610    0.3830    2.7140 O   0  0  0  0  0  0  0  0  0  0  0  0
   -2.6530    2.0100    1.3040 C   0  0  0  0  0  0  0  0  0  0  0  0
   -3.1830    2.8410    2.1900 C   0  0  0  0  0  0  0  0  0  0  0  0
  1  2  2  0
  2  3  1  0
  2 21  1  0
  3  4  1  0
  4  5  1  0
  4 19  1  0
  5  6  1  0
  5 11  2  0
  6  7  1  0
  7  8  1  0
  7  9  2  0
  9 10  1  0
  9 11  1  0
 11 12  1  0
 12 13  2  0
 12 14  1  0
 14 15  1  0
 16 15  1  6
 16 17  1  0
 16 18  1  0
 17 18  1  0
 19 20  2  0
 19 21  1  0
 21 22  2  0
M  END
