
     RDKit          3D

 31 34  0  0  0  0  0  0  0  0999 V2000
   -6.5250    3.6180    0.5970 C   0  0  0  0  0  0  0  0  0  0  0  0
   -5.1250    2.9360    0.5150 C   0  0  2  0  0  0  0  0  0  0  0  0
   -4.5110    3.4260   -0.7800 C   0  0  0  0  0  0  0  0  0  0  0  0
   -5.4090    1.4830    0.5230 C   0  0  0  0  0  0  0  0  0  0  0  0
   -4.2980    0.5160    0.4960 C   0  0  2  0  0  0  0  0  0  0  0  0
   -3.3510    0.6790    1.6870 C   0  0  0  0  0  0  0  0  0  0  0  0
   -3.5070    0.4140   -0.7510 C   0  0  0  0  0  0  0  0  0  0  0  0
   -2.4560   -0.6570   -0.5400 C   0  0  0  0  0  0  0  0  0  0  0  0
   -2.8250   -1.9540   -0.8240 C   0  0  0  0  0  0  0  0  0  0  0  0
   -1.8750   -2.9320   -0.6340 C   0  0  0  0  0  0  0  0  0  0  0  0
   -0.5900   -2.6190   -0.1730 C   0  0  0  0  0  0  0  0  0  0  0  0
    0.3800   -3.6450    0.0200 N   0  0  0  0  0  0  0  0  0  0  0  0
    1.4710   -3.9250   -0.8930 C   0  0  0  0  0  0  0  0  0  0  0  0
    1.4560   -5.4600   -0.8740 C   0  0  0  0  0  0  0  0  0  0  0  0
    1.3700   -5.7260    0.6220 C   0  0  0  0  0  0  0  0  0  0  0  0
    0.5220   -4.5870    1.0690 C   0  0  0  0  0  0  0  0  0  0  0  0
    0.0010   -4.4630    2.2030 O   0  0  0  0  0  0  0  0  0  0  0  0
   -0.2550   -1.3100    0.1000 C   0  0  0  0  0  0  0  0  0  0  0  0
    1.1110   -1.0470    0.5820 C   0  0  0  0  0  0  0  0  0  0  0  0
    1.4220    0.3180    0.8520 N   0  0  0  0  0  0  0  0  0  0  0  0
    1.8790    1.0340   -0.3330 C   0  0  0  0  0  0  0  0  0  0  0  0
    3.3580    1.1640   -0.3920 C   0  0  0  0  0  0  0  0  0  0  0  0
    4.1660    0.2090   -0.9720 C   0  0  0  0  0  0  0  0  0  0  0  0
    5.5530    0.3450   -1.0220 C   0  0  0  0  0  0  0  0  0  0  0  0
    6.1680    1.4510   -0.4870 C   0  0  0  0  0  0  0  0  0  0  0  0
    5.3770    2.4160    0.0960 C   0  0  0  0  0  0  0  0  0  0  0  0
    3.9990    2.2810    0.1460 C   0  0  0  0  0  0  0  0  0  0  0  0
    6.2920    3.4720    0.5780 C   0  0  0  0  0  0  0  0  0  0  0  0
    7.4010    3.3080   -0.2730 O   0  0  0  0  0  0  0  0  0  0  0  0
    7.5820    1.9290   -0.3570 C   0  0  0  0  0  0  0  0  0  0  0  0
   -1.2020   -0.3150   -0.0850 C   0  0  0  0  0  0  0  0  0  0  0  0
  2  1  1  6
  2  3  1  0
  2  4  1  0
  4  5  1  0
  5  6  1  1
  5  7  1  0
  7  8  1  0
  8  9  2  0
  8 31  1  0
  9 10  1  0
 10 11  2  0
 11 12  1  0
 11 18  1  0
 12 13  1  0
 12 16  1  0
 13 14  1  0
 14 15  1  0
 15 16  1  0
 16 17  2  0
 18 19  1  0
 18 31  2  0
 19 20  1  0
 20 21  1  0
 21 22  1  0
 22 23  2  0
 22 27  1  0
 23 24  1  0
 24 25  2  0
 25 26  1  0
 25 30  1  0
 26 27  2  0
 26 28  1  0
 28 29  1  0
 29 30  1  0
M  CHG  1  20   1
M  END
