
     RDKit          3D

 31 34  0  0  0  0  0  0  0  0999 V2000
    7.9190    0.5840    0.2330 C   0  0  0  0  0  0  0  0  0  0  0  0
    8.2060   -0.5190   -0.6440 N   0  0  0  0  0  0  0  0  0  0  0  0
    7.4030   -1.7250   -0.2350 C   0  0  0  0  0  0  0  0  0  0  0  0
    5.9870   -1.1920   -0.3530 C   0  0  0  0  0  0  0  0  0  0  0  0
    5.2410   -0.8170    0.7210 C   0  0  0  0  0  0  0  0  0  0  0  0
    4.0130   -0.1470    0.5530 C   0  0  0  0  0  0  0  0  0  0  0  0
    3.5190    0.1600   -0.6790 C   0  0  0  0  0  0  0  0  0  0  0  0
    2.3690    1.0300   -0.9720 C   0  0  1  0  0  0  0  0  0  0  0  0
    1.9500    0.6910   -2.3100 O   0  0  0  0  0  0  0  0  0  0  0  0
    1.1820    1.0350   -0.1640 C   0  0  0  0  0  0  0  0  0  0  0  0
    0.0510    0.3540   -0.7140 C   0  0  0  0  0  0  0  0  0  0  0  0
   -1.1560    0.3140   -0.0760 C   0  0  0  0  0  0  0  0  0  0  0  0
   -1.2950    0.9420    1.1360 C   0  0  0  0  0  0  0  0  0  0  0  0
   -0.2130    1.6080    1.6820 C   0  0  0  0  0  0  0  0  0  0  0  0
    1.0180    1.6570    1.0370 C   0  0  0  0  0  0  0  0  0  0  0  0
    2.0550    2.4950    1.6550 C   0  0  0  0  0  0  0  0  0  0  0  0
   -2.6260    0.8340    1.7840 C   0  0  0  0  0  0  0  0  0  0  0  0
   -3.1820   -0.5920    1.5060 C   0  0  0  0  0  0  0  0  0  0  0  0
   -3.2510   -0.8870    0.1890 N   0  0  0  0  0  0  0  0  0  0  0  0
   -4.2000   -1.6340   -0.5020 C   0  0  0  0  0  0  0  0  0  0  0  0
   -5.5340   -1.5650    0.1140 C   0  0  0  0  0  0  0  0  0  0  0  0
   -6.0870   -2.6470    0.6880 C   0  0  0  0  0  0  0  0  0  0  0  0
   -7.4530   -2.6190    1.0350 C   0  0  0  0  0  0  0  0  0  0  0  0
   -8.1590   -1.4850    0.7720 C   0  0  0  0  0  0  0  0  0  0  0  0
   -7.5780   -0.3850    0.1760 C   0  0  0  0  0  0  0  0  0  0  0  0
   -6.2480   -0.3730   -0.1780 C   0  0  0  0  0  0  0  0  0  0  0  0
   -5.5730    0.6740   -0.7640 O   0  0  0  0  0  0  0  0  0  0  0  0
   -6.1040    1.9260   -1.0630 C   0  0  0  0  0  0  0  0  0  0  0  0
   -2.3120   -0.2890   -0.7410 C   0  0  0  0  0  0  0  0  0  0  0  0
    4.3190   -0.2600   -1.7890 C   0  0  0  0  0  0  0  0  0  0  0  0
    5.5120   -0.9150   -1.6180 C   0  0  0  0  0  0  0  0  0  0  0  0
  1  2  1  0
  2  3  1  0
  3  4  1  0
  4  5  2  0
  4 31  1  0
  5  6  1  0
  6  7  2  0
  7  8  1  0
  7 30  1  0
  8  9  1  6
  8 10  1  0
 10 11  2  0
 10 15  1  0
 11 12  1  0
 12 13  2  0
 12 29  1  0
 13 14  1  0
 13 17  1  0
 14 15  2  0
 15 16  1  0
 17 18  1  0
 18 19  1  0
 19 20  1  0
 19 29  1  0
 20 21  1  0
 21 22  2  0
 21 26  1  0
 22 23  1  0
 23 24  2  0
 24 25  1  0
 25 26  2  0
 26 27  1  0
 27 28  1  0
 30 31  2  0
M  CHG  1   2   1
M  END
