
     RDKit          3D

 31 34  0  0  0  0  0  0  0  0999 V2000
   -6.1800   -1.1210   -2.9390 C   0  0  0  0  0  0  0  0  0  0  0  0
   -4.7930   -1.6490   -2.9350 C   0  0  0  0  0  0  0  0  0  0  0  0
   -4.2090   -2.0530   -1.6400 C   0  0  0  0  0  0  0  0  0  0  0  0
   -4.0490   -1.0650   -0.5660 C   0  0  2  0  0  0  0  0  0  0  0  0
   -5.3520   -0.4750   -0.1310 C   0  0  0  0  0  0  0  0  0  0  0  0
   -3.0310   -0.0610   -0.8090 N   0  0  0  0  0  0  0  0  0  0  0  0
   -2.5770    0.5650    0.3510 C   0  0  0  0  0  0  0  0  0  0  0  0
   -3.2460    1.7350    0.7480 C   0  0  0  0  0  0  0  0  0  0  0  0
   -2.8590    2.3860    1.8680 C   0  0  0  0  0  0  0  0  0  0  0  0
   -1.8270    1.9150    2.6110 C   0  0  0  0  0  0  0  0  0  0  0  0
   -1.1710    0.7580    2.2130 C   0  0  0  0  0  0  0  0  0  0  0  0
   -1.5260    0.0460    1.0690 C   0  0  0  0  0  0  0  0  0  0  0  0
   -0.7730   -1.1450    0.7340 C   0  0  0  0  0  0  0  0  0  0  0  0
   -1.0400   -1.8340   -0.3110 O   0  0  0  0  0  0  0  0  0  0  0  0
    0.3530   -1.7050    1.5140 C   0  0  0  0  0  0  0  0  0  0  0  0
    1.6060   -1.7740    0.7180 C   0  0  0  0  0  0  0  0  0  0  0  0
    1.8450   -2.9050   -0.0240 C   0  0  0  0  0  0  0  0  0  0  0  0
    2.9650   -3.0580   -0.7830 C   0  0  0  0  0  0  0  0  0  0  0  0
    3.8880   -2.0130   -0.7920 C   0  0  0  0  0  0  0  0  0  0  0  0
    3.7170   -0.8560   -0.0770 C   0  0  0  0  0  0  0  0  0  0  0  0
    4.6520    0.2200   -0.0580 C   0  0  0  0  0  0  0  0  0  0  0  0
    4.2840    1.2500    0.6440 O   0  0  0  0  0  0  0  0  0  0  0  0
    5.8930    0.3460   -0.6690 N   0  0  0  0  0  0  0  0  0  0  0  0
    6.7340    1.5920   -0.5330 C   0  0  0  0  0  0  0  0  0  0  0  0
    8.1520    1.1220   -0.7430 C   0  0  0  0  0  0  0  0  0  0  0  0
    7.9920    0.0340   -1.7920 C   0  0  0  0  0  0  0  0  0  0  0  0
    6.6200   -0.5760   -1.4850 C   0  0  0  0  0  0  0  0  0  0  0  0
    2.5290   -0.7730    0.6870 C   0  0  0  0  0  0  0  0  0  0  0  0
   -1.5980    2.7960    3.7770 C   0  0  0  0  0  0  0  0  0  0  0  0
   -2.7170    3.7770    3.7780 C   0  0  0  0  0  0  0  0  0  0  0  0
   -3.4190    3.6350    2.4720 C   0  0  0  0  0  0  0  0  0  0  0  0
  1  2  1  0
  2  3  1  0
  3  4  1  0
  4  5  1  6
  4  6  1  0
  6  7  1  0
  7  8  2  0
  7 12  1  0
  8  9  1  0
  9 10  2  0
  9 31  1  0
 10 11  1  0
 10 29  1  0
 11 12  2  0
 12 13  1  0
 13 14  2  0
 13 15  1  0
 15 16  1  0
 16 17  2  0
 16 28  1  0
 17 18  1  0
 18 19  2  0
 19 20  1  0
 20 21  1  0
 20 28  2  0
 21 22  2  0
 21 23  1  0
 23 24  1  0
 23 27  1  0
 24 25  1  0
 25 26  1  0
 26 27  1  0
 29 30  1  0
 30 31  1  0
M  CHG  1   6   1
M  END
