
     RDKit          3D

 31 34  0  0  0  0  0  0  0  0999 V2000
    0.3210    5.2030    0.1430 C   0  0  0  0  0  0  0  0  0  0  0  0
   -1.1420    5.2190    0.0090 C   0  0  1  0  0  0  0  0  0  0  0  0
   -1.4790    6.4430   -0.8280 C   0  0  0  0  0  0  0  0  0  0  0  0
   -2.5130    6.4900   -1.4440 O   0  0  0  0  0  0  0  0  0  0  0  0
   -1.8520    4.0870   -0.6070 C   0  0  0  0  0  0  0  0  0  0  0  0
   -1.7450    2.7450    0.0010 C   0  0  2  0  0  0  0  0  0  0  0  0
   -0.4330    2.0840    0.0850 C   0  0  0  0  0  0  0  0  0  0  0  0
    0.2730    1.8110   -1.1180 N   0  0  0  0  0  0  0  0  0  0  0  0
    1.1300    0.6700   -0.8600 C   0  0  0  0  0  0  0  0  0  0  0  0
    1.1600   -0.4060   -1.6950 C   0  0  0  0  0  0  0  0  0  0  0  0
    1.9890   -1.4600   -1.4140 C   0  0  0  0  0  0  0  0  0  0  0  0
    2.8210   -1.5000   -0.3060 C   0  0  0  0  0  0  0  0  0  0  0  0
    3.6540   -2.6310   -0.0830 N   0  0  0  0  0  0  0  0  0  0  0  0
    4.3020   -3.2470   -1.1010 C   0  0  0  0  0  0  0  0  0  0  0  0
    5.1110   -4.3440   -0.8880 C   0  0  0  0  0  0  0  0  0  0  0  0
    5.2690   -4.8320    0.3890 C   0  0  0  0  0  0  0  0  0  0  0  0
    4.6170   -4.2140    1.4230 C   0  0  0  0  0  0  0  0  0  0  0  0
    3.8190   -3.1170    1.1440 C   0  0  0  0  0  0  0  0  0  0  0  0
    3.2420   -2.5840    2.1120 O   0  0  0  0  0  0  0  0  0  0  0  0
    2.7840   -0.4180    0.5260 C   0  0  0  0  0  0  0  0  0  0  0  0
    1.9450    0.6580    0.2490 C   0  0  0  0  0  0  0  0  0  0  0  0
   -2.8020    1.8080   -0.4780 C   0  0  0  0  0  0  0  0  0  0  0  0
   -2.7990    0.4640    0.0620 C   0  0  0  0  0  0  0  0  0  0  0  0
   -3.3990    0.0940    1.2560 C   0  0  0  0  0  0  0  0  0  0  0  0
   -3.4090   -1.1850    1.7540 C   0  0  0  0  0  0  0  0  0  0  0  0
   -2.7770   -2.1640    1.0100 C   0  0  0  0  0  0  0  0  0  0  0  0
   -2.1650   -1.8680   -0.1780 C   0  0  0  0  0  0  0  0  0  0  0  0
   -2.1830   -0.5460   -0.6420 C   0  0  0  0  0  0  0  0  0  0  0  0
   -1.5830   -3.1210   -0.7300 C   0  0  0  0  0  0  0  0  0  0  0  0
   -2.4350   -4.1920   -0.0800 C   0  0  0  0  0  0  0  0  0  0  0  0
   -2.6370   -3.6210    1.3130 C   0  0  0  0  0  0  0  0  0  0  0  0
  2  1  1  6
  2  3  1  0
  2  5  1  0
  3  4  2  0
  6  5  1  6
  6  7  1  0
  6 22  1  0
  7  8  1  0
  8  9  1  0
  9 10  2  0
  9 21  1  0
 10 11  1  0
 11 12  2  0
 12 13  1  0
 12 20  1  0
 13 14  1  0
 13 18  1  0
 14 15  2  0
 15 16  1  0
 16 17  2  0
 17 18  1  0
 18 19  2  0
 20 21  2  0
 22 23  1  0
 23 24  2  0
 23 28  1  0
 24 25  1  0
 25 26  2  0
 26 27  1  0
 26 31  1  0
 27 28  2  0
 27 29  1  0
 29 30  1  0
 30 31  1  0
M  CHG  1   8   1
M  END
