
     RDKit          3D

 27 29  0  0  0  0  0  0  0  0999 V2000
   -6.6260    2.5610    0.6170 C   0  0  0  0  0  0  0  0  0  0  0  0
   -5.8750    1.4130    0.3910 O   0  0  0  0  0  0  0  0  0  0  0  0
   -6.2650    0.1520    0.1900 C   0  0  0  0  0  0  0  0  0  0  0  0
   -7.5940    0.0340    0.2050 O   0  0  0  0  0  0  0  0  0  0  0  0
   -5.6070   -1.0720   -0.0340 C   0  0  0  0  0  0  0  0  0  0  0  0
   -4.4120   -1.5120   -0.1580 C   0  0  0  0  0  0  0  0  0  0  0  0
   -4.1940   -3.0310   -0.4120 C   0  0  0  0  0  0  0  0  0  0  0  0
   -3.2280   -3.1970   -1.4140 O   0  0  0  0  0  0  0  0  0  0  0  0
   -2.0880   -2.4760   -1.4700 C   0  0  0  0  0  0  0  0  0  0  0  0
   -1.0320   -2.8330   -2.0560 O   0  0  0  0  0  0  0  0  0  0  0  0
   -2.0740   -1.1600   -0.7880 C   0  0  0  0  0  0  0  0  0  0  0  0
   -3.1950   -0.7290   -0.1530 C   0  0  0  0  0  0  0  0  0  0  0  0
   -2.8670    0.4440    0.3990 N   0  0  0  0  0  0  0  0  0  0  0  0
   -1.5670    0.7500    0.1090 C   0  0  0  0  0  0  0  0  0  0  0  0
   -0.9920    2.0610    0.5300 C   0  0  0  0  0  0  0  0  0  0  0  0
   -1.0170   -0.2500   -0.6530 C   0  0  0  0  0  0  0  0  0  0  0  0
    0.1650   -0.3010   -1.4360 C   0  0  0  0  0  0  0  0  0  0  0  0
    1.4560   -0.5410   -1.1360 N   0  0  0  0  0  0  0  0  0  0  0  0
    2.4260   -0.2320   -0.1740 C   0  0  0  0  0  0  0  0  0  0  0  0
    2.0930    0.4800    0.7990 O   0  0  0  0  0  0  0  0  0  0  0  0
    3.7720   -0.6940   -0.2430 N   0  0  0  0  0  0  0  0  0  0  0  0
    4.8490   -0.6000    0.6600 C   0  0  1  0  0  0  0  0  0  0  0  0
    6.0610   -1.1610   -0.0290 C   0  0  0  0  0  0  0  0  0  0  0  0
    7.1390   -0.5780    0.5730 O   0  0  0  0  0  0  0  0  0  0  0  0
    6.7850    0.7660    0.6880 C   0  0  1  0  0  0  0  0  0  0  0  0
    7.0480    1.4890   -0.5460 N   0  0  0  0  0  0  0  0  0  0  0  0
    5.2850    0.7920    1.0470 C   0  0  0  0  0  0  0  0  0  0  0  0
  1  2  1  0
  2  3  1  0
  3  4  2  0
  3  5  1  0
  5  6  2  3
  6  7  1  0
  6 12  1  0
  7  8  1  0
  8  9  1  0
  9 10  2  0
  9 11  1  0
 11 12  2  0
 11 16  1  0
 12 13  1  0
 13 14  1  0
 14 15  1  0
 14 16  2  0
 16 17  1  0
 17 18  1  0
 18 19  1  0
 19 20  2  0
 19 21  1  0
 22 21  1  6
 22 23  1  0
 22 27  1  0
 23 24  1  0
 24 25  1  0
 25 26  1  6
 25 27  1  0
M  END
