
     RDKit          3D

 27 29  0  0  0  0  0  0  0  0999 V2000
    4.2530    1.5860    0.2020 C   0  0  0  0  0  0  0  0  0  0  0  0
    4.5730    0.3650   -0.5740 C   0  0  0  0  0  0  0  0  0  0  0  0
    3.4300   -0.5420   -0.8850 C   0  0  0  0  0  0  0  0  0  0  0  0
    2.7160   -1.1580    0.2450 C   0  0  2  0  0  0  0  0  0  0  0  0
    3.6570   -1.9780    1.1100 C   0  0  0  0  0  0  0  0  0  0  0  0
    1.7670   -2.1300   -0.3730 N   0  0  0  0  0  0  0  0  0  0  0  0
    0.5620   -1.3780   -0.6170 C   0  0  0  0  0  0  0  0  0  0  0  0
   -0.2500   -1.7410   -1.4950 O   0  0  0  0  0  0  0  0  0  0  0  0
    0.4860   -0.2610    0.2240 N   0  0  0  0  0  0  0  0  0  0  0  0
   -0.4980    0.7060    0.5680 C   0  0  0  0  0  0  0  0  0  0  0  0
   -1.7770    0.5020    0.5060 C   0  0  0  0  0  0  0  0  0  0  0  0
   -2.1570   -0.8210    0.0870 N   0  0  0  0  0  0  0  0  0  0  0  0
   -3.2440   -1.2890   -0.6830 C   0  0  0  0  0  0  0  0  0  0  0  0
   -3.3640   -2.7030   -0.9890 C   0  0  0  0  0  0  0  0  0  0  0  0
   -4.3080   -3.1680   -1.6730 O   0  0  0  0  0  0  0  0  0  0  0  0
   -2.4280   -3.6050   -0.5280 O   0  0  0  0  0  0  0  0  0  0  0  0
   -4.2290   -0.5110   -1.1430 C   0  0  0  0  0  0  0  0  0  0  0  0
   -4.5270    0.9060   -1.0470 C   0  0  0  0  0  0  0  0  0  0  0  0
   -3.4780    1.8280   -0.5970 C   0  0  0  0  0  0  0  0  0  0  0  0
   -2.8500    1.5380    0.7510 C   0  0  2  0  0  0  0  0  0  0  0  0
   -2.3110    2.7720    1.3240 C   0  0  0  0  0  0  0  0  0  0  0  0
   -3.1010    3.6340    1.7710 O   0  0  0  0  0  0  0  0  0  0  0  0
   -0.9210    3.0320    1.3940 N   0  0  0  0  0  0  0  0  0  0  0  0
   -0.0140    2.0330    1.0290 C   0  0  0  0  0  0  0  0  0  0  0  0
    1.1990    2.2560    1.0870 O   0  0  0  0  0  0  0  0  0  0  0  0
    1.7420   -0.3670    0.9970 C   0  0  0  0  0  0  0  0  0  0  0  0
    1.8930    0.1540    2.1180 O   0  0  0  0  0  0  0  0  0  0  0  0
  1  2  1  0
  2  3  1  0
  3  4  1  0
  4  5  1  1
  4  6  1  0
  4 26  1  0
  6  7  1  0
  7  8  2  0
  7  9  1  0
  9 10  1  0
  9 26  1  0
 10 11  2  0
 10 24  1  0
 11 12  1  0
 11 20  1  0
 12 13  1  0
 13 14  1  0
 13 17  2  0
 14 15  2  0
 14 16  1  0
 17 18  1  0
 18 19  1  0
 20 19  1  6
 20 21  1  0
 21 22  2  0
 21 23  1  0
 23 24  1  0
 24 25  2  0
 26 27  2  0
M  END
