
     RDKit          3D

 20 22  0  0  0  0  0  0  0  0999 V2000
    1.1910   -1.9930    1.1810 C   0  0  0  0  0  0  0  0  0  0  0  0
    0.7270   -0.6100    0.7980 C   0  0  1  0  0  0  0  0  0  0  0  0
    1.7640    0.0940   -0.0690 C   0  0  0  0  0  0  0  0  0  0  0  0
    2.8650   -0.5260   -0.3670 C   0  0  0  0  0  0  0  0  0  0  0  0
    4.0210   -0.0980   -1.1710 C   0  0  2  0  0  0  0  0  0  0  0  0
    4.1910   -0.9990   -2.2180 F   0  0  0  0  0  0  0  0  0  0  0  0
    5.1690   -0.0950   -0.3660 F   0  0  0  0  0  0  0  0  0  0  0  0
    3.7980    1.5500   -1.8020 S   0  0  0  0  0  0  0  0  0  0  0  0
    2.2410    2.1470   -1.2520 C   0  0  0  0  0  0  0  0  0  0  0  0
    1.4750    1.4180   -0.5170 C   0  0  0  0  0  0  0  0  0  0  0  0
   -0.5380   -0.6710    0.0980 N   0  0  0  0  0  0  0  0  0  0  0  0
   -0.8640   -1.4730   -0.9280 C   0  0  0  0  0  0  0  0  0  0  0  0
   -0.1300   -2.3130   -1.4630 O   0  0  0  0  0  0  0  0  0  0  0  0
   -2.1320   -1.2280   -1.3000 N   0  0  0  0  0  0  0  0  0  0  0  0
   -2.6450   -0.2640   -0.5200 C   0  0  0  0  0  0  0  0  0  0  0  0
   -3.8580    0.3780   -0.4390 C   0  0  0  0  0  0  0  0  0  0  0  0
   -4.0280    1.3490    0.5200 C   0  0  0  0  0  0  0  0  0  0  0  0
   -3.0200    1.6910    1.3930 C   0  0  0  0  0  0  0  0  0  0  0  0
   -1.8130    1.0520    1.3110 C   0  0  0  0  0  0  0  0  0  0  0  0
   -1.6190    0.0780    0.3610 C   0  0  0  0  0  0  0  0  0  0  0  0
  2  1  1  6
  2  3  1  0
  2 11  1  0
  3  4  2  0
  3 10  1  0
  4  5  1  0
  5  6  1  6
  5  7  1  0
  5  8  1  0
  8  9  1  0
  9 10  2  0
 11 12  1  0
 11 20  1  0
 12 13  2  0
 12 14  1  0
 14 15  1  0
 15 16  2  0
 15 20  1  0
 16 17  1  0
 17 18  2  0
 18 19  1  0
 19 20  2  0
M  END
