
     RDKit          3D

 20 22  0  0  0  0  0  0  0  0999 V2000
   -3.6340   -2.3250    0.2070 O   0  0  0  0  0  0  0  0  0  0  0  0
   -2.4690   -1.8540    0.1710 C   0  0  0  0  0  0  0  0  0  0  0  0
   -1.3890   -2.6300    0.3060 N   0  0  0  0  0  0  0  0  0  0  0  0
   -0.1650   -2.0750    0.2600 C   0  0  0  0  0  0  0  0  0  0  0  0
    1.1040   -3.1130    0.4360 S   0  0  0  0  0  0  0  0  0  0  0  0
    0.0460   -0.7570    0.0830 N   0  0  0  0  0  0  0  0  0  0  0  0
    1.3710   -0.2270    0.0430 C   0  0  0  0  0  0  0  0  0  0  0  0
    1.8650    0.3670   -1.0970 C   0  0  0  0  0  0  0  0  0  0  0  0
    3.1520    0.8630   -1.0790 C   0  0  0  0  0  0  0  0  0  0  0  0
    3.9640    0.7890    0.0320 C   0  0  0  0  0  0  0  0  0  0  0  0
    3.4750    0.1950    1.1770 C   0  0  0  0  0  0  0  0  0  0  0  0
    4.2510    0.1000    2.3060 F   0  0  0  0  0  0  0  0  0  0  0  0
    2.1860   -0.2990    1.1520 C   0  0  0  0  0  0  0  0  0  0  0  0
   -1.0470    0.0230   -0.0530 C   0  0  0  0  0  0  0  0  0  0  0  0
   -0.9090    1.3850   -0.2380 C   0  0  0  0  0  0  0  0  0  0  0  0
   -2.0340    2.1840   -0.3770 C   0  0  0  0  0  0  0  0  0  0  0  0
   -3.3050    1.6550   -0.3360 C   0  0  0  0  0  0  0  0  0  0  0  0
   -4.4060    2.4210   -0.4700 F   0  0  0  0  0  0  0  0  0  0  0  0
   -3.4570    0.3100   -0.1540 C   0  0  0  0  0  0  0  0  0  0  0  0
   -2.3300   -0.4800   -0.0160 C   0  0  0  0  0  0  0  0  0  0  0  0
  1  2  2  0
  2  3  1  0
  2 20  1  0
  3  4  1  0
  4  5  2  0
  4  6  1  0
  6  7  1  0
  6 14  1  0
  7  8  2  0
  7 13  1  0
  8  9  1  0
  9 10  2  0
 10 11  1  0
 11 12  1  0
 11 13  2  0
 14 15  2  0
 14 20  1  0
 15 16  1  0
 16 17  2  0
 17 18  1  0
 17 19  1  0
 19 20  2  0
M  END
