
     RDKit          3D

 12 12  0  0  0  0  0  0  0  0999 V2000
    2.1230    1.3390    0.1540 O   0  0  0  0  0  0  0  0  0  0  0  0
    2.4190    0.3400   -0.5060 C   0  0  0  0  0  0  0  0  0  0  0  0
    3.4140    0.5040   -1.4730 O   0  0  0  0  0  0  0  0  0  0  0  0
    1.8210   -0.9960   -0.3640 C   0  0  1  0  0  0  0  0  0  0  0  0
    3.1800   -2.0850    0.1100 Cl  0  0  0  0  0  0  0  0  0  0  0  0
    0.7280   -1.1360    0.6230 C   0  0  0  0  0  0  0  0  0  0  0  0
   -0.4680   -0.3340    0.4360 C   0  0  0  0  0  0  0  0  0  0  0  0
   -1.4590   -0.8220   -0.4140 C   0  0  0  0  0  0  0  0  0  0  0  0
   -2.6340   -0.1620   -0.6490 C   0  0  0  0  0  0  0  0  0  0  0  0
   -2.8600    1.0460   -0.0200 C   0  0  0  0  0  0  0  0  0  0  0  0
   -1.9090    1.5540    0.8210 C   0  0  0  0  0  0  0  0  0  0  0  0
   -0.7240    0.8620    1.0420 C   0  0  0  0  0  0  0  0  0  0  0  0
  1  2  2  0
  2  3  1  0
  2  4  1  0
  4  5  1  1
  4  6  1  0
  6  7  1  0
  7  8  2  0
  7 12  1  0
  8  9  1  0
  9 10  2  0
 10 11  1  0
 11 12  2  0
M  END
