
     RDKit          3D

 15 15  0  0  0  0  0  0  0  0999 V2000
    5.8040   -1.0490    0.0920 C   0  0  0  0  0  0  0  0  0  0  0  0
    5.5950    0.2430    0.5330 O   0  0  0  0  0  0  0  0  0  0  0  0
    4.4540    0.7870    0.0030 C   0  0  0  0  0  0  0  0  0  0  0  0
    3.1800    0.0480    0.3400 C   0  0  0  0  0  0  0  0  0  0  0  0
    2.0820    0.7310   -0.2770 O   0  0  0  0  0  0  0  0  0  0  0  0
    0.7770    0.2910   -0.1490 C   0  0  0  0  0  0  0  0  0  0  0  0
    0.5940   -0.7440    0.5370 O   0  0  0  0  0  0  0  0  0  0  0  0
   -0.3570    0.9720   -0.7700 C   0  0  0  0  0  0  0  0  0  0  0  0
   -1.6930    0.4010   -0.5380 C   0  0  1  0  0  0  0  0  0  0  0  0
   -2.6160    1.2100   -1.2280 O   0  0  0  0  0  0  0  0  0  0  0  0
   -1.9100   -1.0020   -1.0010 C   0  0  0  0  0  0  0  0  0  0  0  0
   -3.3480   -1.2350   -0.5140 C   0  0  0  0  0  0  0  0  0  0  0  0
   -3.5000   -0.3620    0.7130 C   0  0  2  0  0  0  0  0  0  0  0  0
   -4.4870    0.6670    0.5400 N   0  0  0  0  0  0  0  0  0  0  0  0
   -2.1410    0.3320    0.9010 C   0  0  0  0  0  0  0  0  0  0  0  0
  1  2  1  0
  2  3  1  0
  3  4  1  0
  4  5  1  0
  5  6  1  0
  6  7  2  0
  6  8  1  0
  8  9  1  0
  9 10  1  6
  9 11  1  0
  9 15  1  0
 11 12  1  0
 12 13  1  0
 13 14  1  6
 13 15  1  0
M  CHG  1  14   1
M  END
