
     RDKit          3D

 15 15  0  0  0  0  0  0  0  0999 V2000
    4.7210    0.9190   -0.5580 C   0  0  0  0  0  0  0  0  0  0  0  0
    4.2360    0.0960    0.4100 O   0  0  0  0  0  0  0  0  0  0  0  0
    3.1050   -0.5930    0.0430 C   0  0  0  0  0  0  0  0  0  0  0  0
    1.9930    0.3460   -0.2780 C   0  0  2  0  0  0  0  0  0  0  0  0
    1.5430    1.0200    1.0040 C   0  0  0  0  0  0  0  0  0  0  0  0
    0.5480    0.1640    1.5270 O   0  0  0  0  0  0  0  0  0  0  0  0
    0.2720   -0.7650    0.5530 C   0  0  1  0  0  0  0  0  0  0  0  0
   -1.1780   -1.1210    0.4380 C   0  0  2  0  0  0  0  0  0  0  0  0
   -1.3390   -2.1000   -0.6130 N   0  0  0  0  0  0  0  0  0  0  0  0
   -2.0770    0.0390    0.1850 C   0  0  2  0  0  0  0  0  0  0  0  0
   -1.9930    1.0650    1.2950 C   0  0  0  0  0  0  0  0  0  0  0  0
   -3.5140   -0.4940    0.2100 C   0  0  0  0  0  0  0  0  0  0  0  0
   -1.8880    0.6640   -1.1700 C   0  0  0  0  0  0  0  0  0  0  0  0
   -2.8010    1.7340   -1.2510 O   0  0  0  0  0  0  0  0  0  0  0  0
    0.8150   -0.3420   -0.6360 O   0  0  0  0  0  0  0  0  0  0  0  0
  1  2  1  0
  2  3  1  0
  4  3  1  1
  4  5  1  0
  4 15  1  0
  5  6  1  0
  7  6  1  1
  7  8  1  0
  7 15  1  0
  8  9  1  6
  8 10  1  0
 10 11  1  1
 10 12  1  0
 10 13  1  0
 13 14  1  0
M  CHG  1   9   1
M  END
