
     RDKit          3D

 15 15  0  0  0  0  0  0  0  0999 V2000
   -3.0750   -0.1270   -0.4260 C   0  0  0  0  0  0  0  0  0  0  0  0
   -2.1020   -0.0390    0.4570 C   0  0  0  0  0  0  0  0  0  0  0  0
   -2.3490    0.6950    1.7210 C   0  0  0  0  0  0  0  0  0  0  0  0
   -0.8100   -0.6410    0.2050 C   0  0  1  0  0  0  0  0  0  0  0  0
   -0.6750   -1.3400   -1.1440 C   0  0  0  0  0  0  0  0  0  0  0  0
    0.7560   -1.5220   -1.3220 N   0  0  0  0  0  0  0  0  0  0  0  0
    1.4360   -0.6620   -0.3950 C   0  0  2  0  0  0  0  0  0  0  0  0
    2.0850   -1.4180    0.6930 C   0  0  0  0  0  0  0  0  0  0  0  0
    2.0110   -2.6690    0.7380 O   0  0  0  0  0  0  0  0  0  0  0  0
    2.7940   -0.7770    1.6950 O   0  0  0  0  0  0  0  0  0  0  0  0
    0.3760    0.2810    0.1960 C   0  0  1  0  0  0  0  0  0  0  0  0
    0.2310    1.4740   -0.6730 C   0  0  0  0  0  0  0  0  0  0  0  0
    1.4540    2.3130   -0.6050 C   0  0  0  0  0  0  0  0  0  0  0  0
    1.5520    3.3750   -1.2730 O   0  0  0  0  0  0  0  0  0  0  0  0
    2.5080    1.9230    0.2040 O   0  0  0  0  0  0  0  0  0  0  0  0
  1  2  2  0
  2  3  1  0
  4  2  1  6
  4  5  1  0
  4 11  1  0
  5  6  1  0
  6  7  1  0
  7  8  1  1
  7 11  1  0
  8  9  2  0
  8 10  1  0
 11 12  1  6
 12 13  1  0
 13 14  2  0
 13 15  1  0
M  CHG  1   6   1
M  END
