
     RDKit          3D

 15 15  0  0  0  0  0  0  0  0999 V2000
    4.8350    0.4200    0.1980 C   0  0  0  0  0  0  0  0  0  0  0  0
    4.5930   -0.9060   -0.0610 O   0  0  0  0  0  0  0  0  0  0  0  0
    3.4480   -1.1520   -0.7880 C   0  0  0  0  0  0  0  0  0  0  0  0
    2.1980   -0.6470   -0.0770 C   0  0  0  0  0  0  0  0  0  0  0  0
    1.0570   -0.8930   -0.8020 O   0  0  0  0  0  0  0  0  0  0  0  0
   -0.0370   -0.4240   -0.1260 C   0  0  1  0  0  0  0  0  0  0  0  0
   -0.7860    0.6260   -0.9590 C   0  0  0  0  0  0  0  0  0  0  0  0
   -1.9810    1.1100   -0.2020 C   0  0  2  0  0  0  0  0  0  0  0  0
   -3.2800    0.8730   -0.9380 C   0  0  0  0  0  0  0  0  0  0  0  0
   -1.8550    2.6220   -0.0290 C   0  0  0  0  0  0  0  0  0  0  0  0
   -2.9080    3.1600    0.6780 O   0  0  0  0  0  0  0  0  0  0  0  0
   -2.0090    0.5550    1.0560 O   0  0  0  0  0  0  0  0  0  0  0  0
   -2.1090   -0.8130    1.0820 C   0  0  0  0  0  0  0  0  0  0  0  0
   -1.0540   -1.4910    0.2080 C   0  0  2  0  0  0  0  0  0  0  0  0
   -0.4950   -2.6240    0.8740 N   0  0  0  0  0  0  0  0  0  0  0  0
  1  2  1  0
  2  3  1  0
  3  4  1  0
  4  5  1  0
  6  5  1  6
  6  7  1  0
  6 14  1  0
  7  8  1  0
  8  9  1  6
  8 10  1  0
  8 12  1  0
 10 11  1  0
 12 13  1  0
 13 14  1  0
 14 15  1  1
M  CHG  1  15   1
M  END
