
     RDKit          3D

 26 28  0  0  0  0  0  0  0  0999 V2000
   -5.4160   -2.1390    2.1660 C   0  0  0  0  0  0  0  0  0  0  0  0
   -5.4530   -0.9040    1.3300 C   0  0  0  0  0  0  0  0  0  0  0  0
   -4.1180   -0.3830    0.9580 C   0  0  0  0  0  0  0  0  0  0  0  0
   -3.5490    0.7180    1.5590 C   0  0  0  0  0  0  0  0  0  0  0  0
   -2.3000    1.1570    1.1690 C   0  0  0  0  0  0  0  0  0  0  0  0
   -1.5790    0.5240    0.1810 C   0  0  0  0  0  0  0  0  0  0  0  0
   -0.2440    1.0850   -0.2690 C   0  0  0  0  0  0  0  0  0  0  0  0
   -0.3920    2.3950   -0.8180 C   0  0  0  0  0  0  0  0  0  0  0  0
    0.6090    3.1710   -1.5370 C   0  0  2  0  0  0  0  0  0  0  0  0
    1.1410    2.6220   -2.8190 C   0  0  0  0  0  0  0  0  0  0  0  0
    1.7200    3.7750   -0.6770 C   0  0  0  0  0  0  0  0  0  0  0  0
    0.7690    0.2780   -0.0920 C   0  0  0  0  0  0  0  0  0  0  0  0
    2.1980    0.4900   -0.4170 C   0  0  0  0  0  0  0  0  0  0  0  0
    2.9390   -0.7460   -0.0080 C   0  0  0  0  0  0  0  0  0  0  0  0
    2.0780   -1.6210    0.5880 C   0  0  0  0  0  0  0  0  0  0  0  0
    2.5620   -2.8150    1.0590 C   0  0  0  0  0  0  0  0  0  0  0  0
    3.9220   -3.1060    0.9150 C   0  0  0  0  0  0  0  0  0  0  0  0
    4.7890   -2.2290    0.3160 C   0  0  0  0  0  0  0  0  0  0  0  0
    6.1360   -2.5380    0.1840 O   0  0  0  0  0  0  0  0  0  0  0  0
    4.2780   -1.0260   -0.1520 C   0  0  0  0  0  0  0  0  0  0  0  0
    5.2150   -0.0690   -0.8030 C   0  0  0  0  0  0  0  0  0  0  0  0
    0.7510   -1.0460    0.5660 C   0  0  0  0  0  0  0  0  0  0  0  0
   -0.2720   -1.6110    1.0510 O   0  0  0  0  0  0  0  0  0  0  0  0
   -2.1310   -0.5720   -0.4270 C   0  0  0  0  0  0  0  0  0  0  0  0
   -3.3980   -1.0180   -0.0330 C   0  0  0  0  0  0  0  0  0  0  0  0
   -4.0040   -2.2080   -0.6860 C   0  0  0  0  0  0  0  0  0  0  0  0
  1  2  1  0
  2  3  1  0
  3  4  2  0
  3 25  1  0
  4  5  1  0
  5  6  2  0
  6  7  1  0
  6 24  1  0
  7  8  1  0
  7 12  2  3
  8  9  1  0
  9 10  1  6
  9 11  1  0
 12 13  1  0
 12 22  1  0
 13 14  1  0
 14 15  2  0
 14 20  1  0
 15 16  1  0
 15 22  1  0
 16 17  2  0
 17 18  1  0
 18 19  1  0
 18 20  2  0
 20 21  1  0
 22 23  2  0
 24 25  2  0
 25 26  1  0
M  END
