
     RDKit          3D

 15 15  0  0  0  0  0  0  0  0999 V2000
    4.6110    0.4150    1.0560 C   0  0  0  0  0  0  0  0  0  0  0  0
    3.8280   -0.5040    0.1760 C   0  0  0  0  0  0  0  0  0  0  0  0
    2.3310   -0.2080    0.2410 C   0  0  1  0  0  0  0  0  0  0  0  0
    2.0620    1.1230   -0.1770 N   0  0  0  0  0  0  0  0  0  0  0  0
    1.6310   -1.2410   -0.5710 C   0  0  0  0  0  0  0  0  0  0  0  0
    0.2710   -1.2950   -0.6160 O   0  0  0  0  0  0  0  0  0  0  0  0
   -0.7140   -0.5240   -1.1050 C   0  0  0  0  0  0  0  0  0  0  0  0
   -0.4210    0.5280   -1.7010 O   0  0  0  0  0  0  0  0  0  0  0  0
   -2.1610   -0.8460   -0.9830 C   0  0  2  0  0  0  0  0  0  0  0  0
   -2.9560    0.1010   -1.5650 O   0  0  0  0  0  0  0  0  0  0  0  0
   -3.0460    1.2900   -0.8900 C   0  0  0  0  0  0  0  0  0  0  0  0
   -3.6370    1.0800    0.4920 C   0  0  0  0  0  0  0  0  0  0  0  0
   -2.6490    0.1780    1.2370 C   0  0  0  0  0  0  0  0  0  0  0  0
   -2.5820   -1.1060    0.4240 C   0  0  1  0  0  0  0  0  0  0  0  0
   -3.8820   -1.6320    0.3870 O   0  0  0  0  0  0  0  0  0  0  0  0
  1  2  1  0
  2  3  1  0
  3  4  1  6
  3  5  1  0
  5  6  1  0
  6  7  1  0
  7  8  2  0
  9  7  1  1
  9 10  1  0
  9 14  1  0
 10 11  1  0
 11 12  1  0
 12 13  1  0
 13 14  1  0
 14 15  1  6
M  CHG  1   4   1
M  END
