
     RDKit          3D

 30 32  0  0  0  0  0  0  0  0999 V2000
    2.2750    1.1060    2.7230 C   0  0  0  0  0  0  0  0  0  0  0  0
    2.7590    0.6180    1.3440 C   0  0  0  0  0  0  0  0  0  0  0  0
    2.2270    0.9830    0.3090 N   0  0  0  0  0  0  0  0  0  0  0  0
    1.8660    1.1920   -0.9790 C   0  0  0  0  0  0  0  0  0  0  0  0
    2.0520    0.1960   -2.1130 C   0  0  0  0  0  0  0  0  0  0  0  0
    1.2670    2.3470   -1.3930 C   0  0  0  0  0  0  0  0  0  0  0  0
    0.9800    2.3810   -2.7170 F   0  0  0  0  0  0  0  0  0  0  0  0
    0.9350    3.4650   -0.5280 C   0  0  0  0  0  0  0  0  0  0  0  0
    0.0740    3.5310    0.4520 C   0  0  0  0  0  0  0  0  0  0  0  0
   -0.8000    2.4430    0.9270 C   0  0  0  0  0  0  0  0  0  0  0  0
   -1.1620    1.4540   -0.0380 N   0  0  0  0  0  0  0  0  0  0  0  0
   -2.1630    1.7570   -0.9640 C   0  0  0  0  0  0  0  0  0  0  0  0
   -3.4100    0.9640   -0.9870 C   0  0  2  0  0  0  0  0  0  0  0  0
   -4.4990    1.6210   -0.1380 C   0  0  0  0  0  0  0  0  0  0  0  0
   -3.2500   -0.4310   -0.6260 N   0  0  0  0  0  0  0  0  0  0  0  0
   -2.4460   -0.5600    0.5670 C   0  0  1  0  0  0  0  0  0  0  0  0
   -2.2800   -2.0070    0.9350 C   0  0  0  0  0  0  0  0  0  0  0  0
   -1.8620   -2.7790   -0.2670 C   0  0  0  0  0  0  0  0  0  0  0  0
   -2.8070   -2.7940   -1.1640 O   0  0  0  0  0  0  0  0  0  0  0  0
   -0.6290   -3.4400   -0.4840 N   0  0  0  0  0  0  0  0  0  0  0  0
    0.7530   -3.1140   -0.4150 C   0  0  0  0  0  0  0  0  0  0  0  0
    1.4100   -3.6230   -1.5850 C   0  0  0  0  0  0  0  0  0  0  0  0
    2.6970   -3.4640   -1.8450 N   0  0  0  0  0  0  0  0  0  0  0  0
    3.3850   -2.7850   -0.9440 C   0  0  0  0  0  0  0  0  0  0  0  0
    2.8450   -2.2490    0.2240 N   0  0  0  0  0  0  0  0  0  0  0  0
    1.5340   -2.4180    0.4870 C   0  0  0  0  0  0  0  0  0  0  0  0
    0.9960   -1.9250    1.6170 O   0  0  0  0  0  0  0  0  0  0  0  0
    3.8890   -1.5580    0.9190 C   0  0  0  0  0  0  0  0  0  0  0  0
    3.9310   -0.3200    1.4360 C   0  0  0  0  0  0  0  0  0  0  0  0
   -1.1490    0.1200    0.4930 C   0  0  0  0  0  0  0  0  0  0  0  0
  1  2  1  0
  2  3  2  0
  2 29  1  0
  3  4  1  0
  4  5  1  0
  4  6  2  0
  6  7  1  0
  6  8  1  0
  8  9  2  0
  9 10  1  0
 10 11  1  0
 11 12  1  0
 11 30  1  0
 12 13  1  0
 13 14  1  1
 13 15  1  0
 15 16  1  0
 16 17  1  6
 16 30  1  0
 17 18  1  0
 18 19  2  0
 18 20  1  0
 20 21  1  0
 21 22  2  0
 21 26  1  0
 22 23  1  0
 23 24  2  0
 24 25  1  0
 25 26  1  0
 25 28  1  0
 26 27  2  0
 28 29  2  0
M  END
