
     RDKit          3D

 31 35  0  0  0  0  0  0  0  0999 V2000
    1.6880   -1.5770    0.0600 O   0  0  0  0  0  0  0  0  0  0  0  0
    0.8210   -0.8510   -0.4660 C   0  0  0  0  0  0  0  0  0  0  0  0
    1.2280    0.5610   -0.6410 C   0  0  0  0  0  0  0  0  0  0  0  0
    2.4920    0.8370   -0.1350 O   0  0  0  0  0  0  0  0  0  0  0  0
    2.9630    0.7500    1.1410 C   0  0  0  0  0  0  0  0  0  0  0  0
    2.1390    0.3490    2.1890 C   0  0  0  0  0  0  0  0  0  0  0  0
    2.6230    0.2590    3.4950 C   0  0  0  0  0  0  0  0  0  0  0  0
    3.9280    0.5660    3.7860 C   0  0  0  0  0  0  0  0  0  0  0  0
    4.5170    0.4480    5.4360 Cl  0  0  0  0  0  0  0  0  0  0  0  0
    4.7300    0.9630    2.7350 C   0  0  0  0  0  0  0  0  0  0  0  0
    4.2770    1.0580    1.4450 C   0  0  0  0  0  0  0  0  0  0  0  0
    5.1310    1.4650    0.3960 N   0  0  0  0  0  0  0  0  0  0  0  0
    6.0460    0.7810   -0.1490 C   0  0  0  0  0  0  0  0  0  0  0  0
    6.8520    1.3680   -1.2410 C   0  0  0  0  0  0  0  0  0  0  0  0
    7.3920    0.3530   -2.0380 O   0  0  0  0  0  0  0  0  0  0  0  0
    8.4190   -0.2710   -1.3550 C   0  0  0  0  0  0  0  0  0  0  0  0
    7.9030   -1.4080   -0.4870 C   0  0  0  0  0  0  0  0  0  0  0  0
    6.3800   -0.8820    0.3830 S   0  0  0  0  0  0  0  0  0  0  0  0
   -0.4500   -1.4670   -0.8350 C   0  0  0  0  0  0  0  0  0  0  0  0
   -1.4720   -0.6140   -1.3550 N   0  0  0  0  0  0  0  0  0  0  0  0
   -2.0640    0.2950   -0.4150 C   0  0  0  0  0  0  0  0  0  0  0  0
   -3.4110   -0.2790   -0.0360 C   0  0  1  0  0  0  0  0  0  0  0  0
   -4.5650    0.2780   -0.8320 C   0  0  2  0  0  0  0  0  0  0  0  0
   -5.1240    1.5170   -0.2090 C   0  0  0  0  0  0  0  0  0  0  0  0
   -6.6160    1.6030   -0.2100 C   0  0  0  0  0  0  0  0  0  0  0  0
   -7.3190    0.3280    0.1570 C   0  0  0  0  0  0  0  0  0  0  0  0
   -6.2490   -0.7010    0.4560 C   0  0  0  0  0  0  0  0  0  0  0  0
   -5.4870   -0.8380   -0.7980 N   0  0  2  0  0  0  0  0  0  0  0  0
   -4.6890   -2.0460   -0.7460 C   0  0  0  0  0  0  0  0  0  0  0  0
   -3.3170   -1.6460   -0.5500 N   0  0  0  0  0  0  0  0  0  0  0  0
   -2.5760   -1.4620   -1.7590 C   0  0  0  0  0  0  0  0  0  0  0  0
  1  2  2  0
  2  3  1  0
  2 19  1  0
  3  4  1  0
  4  5  1  0
  5  6  2  0
  5 11  1  0
  6  7  1  0
  7  8  2  0
  8  9  1  0
  8 10  1  0
 10 11  2  0
 11 12  1  0
 12 13  2  3
 13 14  1  0
 13 18  1  0
 14 15  1  0
 15 16  1  0
 16 17  1  0
 17 18  1  0
 19 20  1  0
 20 21  1  0
 20 31  1  0
 22 21  1  6
 22 23  1  0
 22 30  1  0
 23 24  1  1
 23 28  1  0
 24 25  1  0
 25 26  1  0
 26 27  1  0
 28 27  1  1
 28 29  1  0
 29 30  1  0
 30 31  1  0
M  CHG  1  28   1
M  END
