
     RDKit          3D

 31 35  0  0  0  0  0  0  0  0999 V2000
    5.9190   -0.7940   -0.0710 C   0  0  0  0  0  0  0  0  0  0  0  0
    4.4160   -0.5290    0.2030 C   0  0  0  0  0  0  0  0  0  0  0  0
    3.9730    0.4850   -0.6490 N   0  0  2  0  0  0  0  0  0  0  0  0
    3.8770    1.7880    0.0540 C   0  0  0  0  0  0  0  0  0  0  0  0
    3.3630    2.6520   -1.1130 C   0  0  0  0  0  0  0  0  0  0  0  0
    2.2690    1.7780   -1.6610 C   0  0  0  0  0  0  0  0  0  0  0  0
    2.7790    0.3770   -1.3850 C   0  0  2  0  0  0  0  0  0  0  0  0
    1.7310   -0.5880   -1.0310 C   0  0  0  0  0  0  0  0  0  0  0  0
    1.0620   -0.5620    0.2160 N   0  0  0  0  0  0  0  0  0  0  0  0
    1.6390   -0.9120    1.5260 C   0  0  0  0  0  0  0  0  0  0  0  0
   -0.2830   -0.0550    0.3530 C   0  0  0  0  0  0  0  0  0  0  0  0
   -1.3800   -0.6050   -0.0900 C   0  0  0  0  0  0  0  0  0  0  0  0
   -1.3720   -1.8840   -0.8050 C   0  0  0  0  0  0  0  0  0  0  0  0
   -2.3680   -2.4770   -1.4150 C   0  0  0  0  0  0  0  0  0  0  0  0
   -3.9650   -1.8570   -1.5060 Cl  0  0  0  0  0  0  0  0  0  0  0  0
   -2.1560   -3.7500   -2.2240 C   0  0  0  0  0  0  0  0  0  0  0  0
   -1.4730   -4.8410   -1.4690 C   0  0  0  0  0  0  0  0  0  0  0  0
   -0.8740   -4.2040   -0.2760 C   0  0  0  0  0  0  0  0  0  0  0  0
   -0.1990   -2.8570   -0.7190 C   0  0  0  0  0  0  0  0  0  0  0  0
   -2.6070    0.1070    0.2300 C   0  0  0  0  0  0  0  0  0  0  0  0
   -3.7150   -0.3470   -0.1470 O   0  0  0  0  0  0  0  0  0  0  0  0
   -2.7660    1.3390    0.9680 N   0  0  0  0  0  0  0  0  0  0  0  0
   -3.8060    2.2050    0.6010 C   0  0  0  0  0  0  0  0  0  0  0  0
   -4.5340    1.8910   -0.4380 O   0  0  0  0  0  0  0  0  0  0  0  0
   -4.2160    3.4490    1.2220 C   0  0  1  0  0  0  0  0  0  0  0  0
   -5.7040    3.3230    1.6020 C   0  0  0  0  0  0  0  0  0  0  0  0
   -5.7740    4.3600    2.6620 C   0  0  0  0  0  0  0  0  0  0  0  0
   -4.5960    4.5950    3.0970 N   0  0  0  0  0  0  0  0  0  0  0  0
   -3.6500    3.8130    2.4410 O   0  0  0  0  0  0  0  0  0  0  0  0
   -1.8850    1.6400    2.0690 C   0  0  0  0  0  0  0  0  0  0  0  0
   -0.2180    1.5090    1.2830 S   0  0  0  0  0  0  0  0  0  0  0  0
  1  2  1  0
  3  2  1  1
  3  4  1  0
  3  7  1  0
  4  5  1  0
  5  6  1  0
  6  7  1  0
  7  8  1  1
  8  9  1  0
  9 10  1  0
  9 11  1  0
 11 12  2  0
 11 31  1  0
 12 13  1  0
 12 20  1  0
 13 14  2  0
 13 19  1  0
 14 15  1  0
 14 16  1  0
 16 17  1  0
 17 18  1  0
 18 19  1  0
 20 21  2  0
 20 22  1  0
 22 23  1  0
 22 30  1  0
 23 24  2  0
 25 23  1  1
 25 26  1  0
 25 29  1  0
 26 27  1  0
 27 28  2  0
 28 29  1  0
 30 31  1  0
 21 15  1  0
M  CHG  1   3   1
M  END
