
     RDKit          3D

 22 24  0  0  0  0  0  0  0  0999 V2000
   -6.5230    0.3750   -0.5520 N   0  0  0  0  0  0  0  0  0  0  0  0
   -5.2310   -0.1570   -0.3170 C   0  0  0  0  0  0  0  0  0  0  0  0
   -4.9780   -1.4980   -0.1320 C   0  0  0  0  0  0  0  0  0  0  0  0
   -3.6960   -1.9330    0.0910 C   0  0  0  0  0  0  0  0  0  0  0  0
   -2.6190   -1.0580    0.1390 C   0  0  0  0  0  0  0  0  0  0  0  0
   -1.4120   -1.5100    0.3540 O   0  0  0  0  0  0  0  0  0  0  0  0
   -0.3580   -0.7320    0.4090 C   0  0  0  0  0  0  0  0  0  0  0  0
    0.7840   -1.2360    0.6210 N   0  0  0  0  0  0  0  0  0  0  0  0
    1.9880   -0.4820    0.7000 C   0  0  0  0  0  0  0  0  0  0  0  0
    2.2370    0.4400    1.6800 C   0  0  0  0  0  0  0  0  0  0  0  0
    3.4280    1.1400    1.7000 C   0  0  0  0  0  0  0  0  0  0  0  0
    3.7050    2.0500    2.6440 F   0  0  0  0  0  0  0  0  0  0  0  0
    4.3780    0.8890    0.6980 C   0  0  0  0  0  0  0  0  0  0  0  0
    4.1810   -0.0230   -0.3060 C   0  0  0  0  0  0  0  0  0  0  0  0
    5.0880   -0.3320   -1.3380 N   0  0  0  0  0  0  0  0  0  0  0  0
    6.3810    0.1780   -1.4290 C   0  0  0  0  0  0  0  0  0  0  0  0
    6.8620    0.9580   -0.6020 O   0  0  0  0  0  0  0  0  0  0  0  0
    2.9410   -0.6940   -0.2550 C   0  0  0  0  0  0  0  0  0  0  0  0
   -0.5130    0.6170    0.2370 C   0  0  0  0  0  0  0  0  0  0  0  0
   -1.7720    1.1350    0.0080 C   0  0  0  0  0  0  0  0  0  0  0  0
   -2.8650    0.2860   -0.0450 C   0  0  0  0  0  0  0  0  0  0  0  0
   -4.1430    0.7200   -0.2670 C   0  0  0  0  0  0  0  0  0  0  0  0
  1  2  1  0
  2  3  2  0
  2 22  1  0
  3  4  1  0
  4  5  2  0
  5  6  1  0
  5 21  1  0
  6  7  1  0
  7  8  2  3
  7 19  1  0
  8  9  1  0
  9 10  2  0
  9 18  1  0
 10 11  1  0
 11 12  1  0
 11 13  2  0
 13 14  1  0
 14 15  1  0
 14 18  2  0
 15 16  1  0
 16 17  2  0
 19 20  2  0
 20 21  1  0
 21 22  2  0
M  END
