
     RDKit          3D

 22 24  0  0  0  0  0  0  0  0999 V2000
   -3.8010    2.7110   -0.8920 C   0  0  0  0  0  0  0  0  0  0  0  0
   -4.3450    1.6040   -0.5270 C   0  0  0  0  0  0  0  0  0  0  0  0
   -3.7050    0.3740   -0.1490 C   0  0  0  0  0  0  0  0  0  0  0  0
   -4.3350   -0.7350    0.2640 C   0  0  0  0  0  0  0  0  0  0  0  0
   -5.6750   -0.8370    0.3700 F   0  0  0  0  0  0  0  0  0  0  0  0
   -3.3030   -1.7360    0.6260 C   0  0  0  0  0  0  0  0  0  0  0  0
   -2.1150   -0.7870    0.9670 C   0  0  0  0  0  0  0  0  0  0  0  0
   -2.3110    0.0910   -0.2240 N   0  0  0  0  0  0  0  0  0  0  0  0
   -1.3230    0.4490   -1.1390 C   0  0  0  0  0  0  0  0  0  0  0  0
   -1.4730    1.1440   -2.1550 O   0  0  0  0  0  0  0  0  0  0  0  0
    0.0520   -0.0350   -0.8980 C   0  0  0  0  0  0  0  0  0  0  0  0
    0.9290    0.7220   -0.1480 C   0  0  0  0  0  0  0  0  0  0  0  0
    2.2030    0.2460    0.0610 C   0  0  0  0  0  0  0  0  0  0  0  0
    3.1190    0.9710    0.8070 C   0  0  0  0  0  0  0  0  0  0  0  0
    4.3770    0.4760    0.9980 C   0  0  0  0  0  0  0  0  0  0  0  0
    5.3210    1.2070    1.7590 N   0  0  0  0  0  0  0  0  0  0  0  0
    4.7380   -0.7450    0.4490 C   0  0  0  0  0  0  0  0  0  0  0  0
    3.8030   -1.4430   -0.2900 C   0  0  0  0  0  0  0  0  0  0  0  0
    2.5190   -0.9790   -0.5080 C   0  0  0  0  0  0  0  0  0  0  0  0
    1.6400   -1.6930   -1.2350 N   0  0  0  0  0  0  0  0  0  0  0  0
    0.3770   -1.2480   -1.4570 C   0  0  0  0  0  0  0  0  0  0  0  0
   -0.4220   -1.9400   -2.1410 O   0  0  0  0  0  0  0  0  0  0  0  0
  1  2  2  0
  2  3  1  0
  3  4  2  0
  3  8  1  0
  4  5  1  0
  4  6  1  0
  6  7  1  0
  7  8  1  0
  8  9  1  0
  9 10  2  0
  9 11  1  0
 11 12  2  0
 11 21  1  0
 12 13  1  0
 13 14  2  0
 13 19  1  0
 14 15  1  0
 15 16  1  0
 15 17  2  0
 17 18  1  0
 18 19  2  0
 19 20  1  0
 20 21  1  0
 21 22  2  0
M  END
