
     RDKit          3D

 22 24  0  0  0  0  0  0  0  0999 V2000
   -2.1650    1.8140   -2.4680 C   0  0  0  0  0  0  0  0  0  0  0  0
   -1.6070    0.9840   -1.4100 N   0  0  0  0  0  0  0  0  0  0  0  0
   -0.2920    0.9640   -1.1670 C   0  0  0  0  0  0  0  0  0  0  0  0
    0.4600    1.6910   -1.8880 O   0  0  0  0  0  0  0  0  0  0  0  0
    0.2780    0.1740   -0.1540 C   0  0  0  0  0  0  0  0  0  0  0  0
    1.6740    0.2050    0.0430 N   0  0  0  0  0  0  0  0  0  0  0  0
    2.4280   -0.5010    0.9890 C   0  0  0  0  0  0  0  0  0  0  0  0
    1.8350   -1.2690    1.7830 O   0  0  0  0  0  0  0  0  0  0  0  0
    3.9020   -0.3560    1.0660 C   0  0  0  0  0  0  0  0  0  0  0  0
    4.6150    0.4250    0.2770 C   0  0  0  0  0  0  0  0  0  0  0  0
    6.0530    0.2930    0.6680 C   0  0  0  0  0  0  0  0  0  0  0  0
    6.0460   -0.6680    1.7850 C   0  0  0  0  0  0  0  0  0  0  0  0
    4.7780   -1.0240    1.9890 C   0  0  0  0  0  0  0  0  0  0  0  0
   -0.6130   -0.5760    0.5710 C   0  0  0  0  0  0  0  0  0  0  0  0
   -1.9800   -0.5380    0.2990 C   0  0  0  0  0  0  0  0  0  0  0  0
   -2.8720   -1.3070    1.0460 C   0  0  0  0  0  0  0  0  0  0  0  0
   -4.2210   -1.2480    0.7530 C   0  0  0  0  0  0  0  0  0  0  0  0
   -5.0640   -2.0120    1.5010 F   0  0  0  0  0  0  0  0  0  0  0  0
   -4.7430   -0.4600   -0.2510 C   0  0  0  0  0  0  0  0  0  0  0  0
   -6.1410   -0.4490   -0.4970 N   0  0  0  0  0  0  0  0  0  0  0  0
   -3.8520    0.2950   -0.9820 C   0  0  0  0  0  0  0  0  0  0  0  0
   -2.4960    0.2500   -0.7040 C   0  0  0  0  0  0  0  0  0  0  0  0
  1  2  1  0
  2  3  1  0
  2 22  1  0
  3  4  2  0
  3  5  1  0
  5  6  1  0
  5 14  2  0
  6  7  1  0
  7  8  2  0
  7  9  1  0
  9 10  2  0
  9 13  1  0
 10 11  1  0
 11 12  1  0
 12 13  2  0
 14 15  1  0
 15 16  2  0
 15 22  1  0
 16 17  1  0
 17 18  1  0
 17 19  2  0
 19 20  1  0
 19 21  1  0
 21 22  2  0
M  END
