
     RDKit          3D

 32 34  0  0  0  0  0  0  0  0999 V2000
   -4.9680    0.1340    2.7410 C   0  0  0  0  0  0  0  0  0  0  0  0
   -5.1100   -0.6610    1.5810 O   0  0  0  0  0  0  0  0  0  0  0  0
   -4.9680   -0.1410    0.2980 C   0  0  0  0  0  0  0  0  0  0  0  0
   -6.0670    0.3610   -0.3550 C   0  0  0  0  0  0  0  0  0  0  0  0
   -7.4290    0.3600    0.2940 C   0  0  0  0  0  0  0  0  0  0  0  0
   -5.8770    0.8600   -1.6120 C   0  0  0  0  0  0  0  0  0  0  0  0
   -4.6440    0.8850   -2.2570 C   0  0  0  0  0  0  0  0  0  0  0  0
   -4.5120    1.3970   -3.5170 O   0  0  0  0  0  0  0  0  0  0  0  0
   -3.5420    0.3790   -1.5960 C   0  0  0  0  0  0  0  0  0  0  0  0
   -2.2770    0.3560   -2.1460 C   0  0  0  0  0  0  0  0  0  0  0  0
   -1.1630   -0.1440   -1.5050 C   0  0  0  0  0  0  0  0  0  0  0  0
   -1.3490   -0.6520   -0.2240 C   0  0  0  0  0  0  0  0  0  0  0  0
   -2.6080   -0.6340    0.3330 C   0  0  0  0  0  0  0  0  0  0  0  0
   -3.7350   -0.1270   -0.3210 C   0  0  0  0  0  0  0  0  0  0  0  0
   -0.2820   -1.1760    0.5090 O   0  0  0  0  0  0  0  0  0  0  0  0
    0.9210   -0.4670    0.7890 C   0  0  0  0  0  0  0  0  0  0  0  0
    2.0530   -1.2330    0.7210 O   0  0  0  0  0  0  0  0  0  0  0  0
    2.9850   -0.9620    1.7210 C   0  0  2  0  0  0  0  0  0  0  0  0
    2.2250   -0.9610    2.9180 O   0  0  0  0  0  0  0  0  0  0  0  0
    3.4920    0.4180    1.5290 C   0  0  1  0  0  0  0  0  0  0  0  0
    3.6600    1.0040    2.8060 O   0  0  0  0  0  0  0  0  0  0  0  0
    4.7030    0.5990    0.7000 C   0  0  1  0  0  0  0  0  0  0  0  0
    5.1140    1.9320    0.7970 O   0  0  0  0  0  0  0  0  0  0  0  0
    5.8270   -0.2360    1.2760 C   0  0  0  0  0  0  0  0  0  0  0  0
    6.9680    0.0310    0.5070 O   0  0  0  0  0  0  0  0  0  0  0  0
    4.5610    0.2660   -0.7560 C   0  0  0  0  0  0  0  0  0  0  0  0
    3.4180    0.9460   -1.3960 C   0  0  0  0  0  0  0  0  0  0  0  0
    3.1110    2.0970   -0.9330 O   0  0  0  0  0  0  0  0  0  0  0  0
    2.6690    0.4520   -2.4320 O   0  0  0  0  0  0  0  0  0  0  0  0
    2.3650   -0.9240   -2.4790 C   0  0  0  0  0  0  0  0  0  0  0  0
    0.9270   -1.2560   -2.3290 C   0  0  0  0  0  0  0  0  0  0  0  0
    0.0830   -0.1430   -2.1140 O   0  0  0  0  0  0  0  0  0  0  0  0
  1  2  1  0
  2  3  1  0
  3  4  2  0
  3 14  1  0
  4  5  1  0
  4  6  1  0
  6  7  2  0
  7  8  1  0
  7  9  1  0
  9 10  2  0
  9 14  1  0
 10 11  1  0
 11 12  2  0
 11 32  1  0
 12 13  1  0
 12 15  1  0
 13 14  2  0
 15 16  1  0
 16 17  1  0
 17 18  1  0
 18 19  1  1
 18 20  1  0
 20 21  1  1
 20 22  1  0
 22 23  1  6
 22 24  1  0
 22 26  1  0
 24 25  1  0
 26 27  1  0
 27 28  2  0
 27 29  1  0
 29 30  1  0
 30 31  1  0
 31 32  1  0
M  END
