
     RDKit          3D

 33 36  0  0  0  0  0  0  0  0999 V2000
   -0.4300    2.9090   -0.2450 C   0  0  0  0  0  0  0  0  0  0  0  0
   -0.6010    1.6350   -0.7730 N   0  0  0  0  0  0  0  0  0  0  0  0
    0.1490    1.2050   -1.8790 C   0  0  0  0  0  0  0  0  0  0  0  0
    1.5750    1.0450   -1.5060 C   0  0  0  0  0  0  0  0  0  0  0  0
    2.7390    0.9300   -1.2080 C   0  0  0  0  0  0  0  0  0  0  0  0
    4.1130    0.7930   -0.8410 C   0  0  0  0  0  0  0  0  0  0  0  0
    4.8810    1.8910   -0.4920 C   0  0  0  0  0  0  0  0  0  0  0  0
    6.2070    1.7730   -0.1330 C   0  0  0  0  0  0  0  0  0  0  0  0
    6.7570    0.5470   -0.1270 N   0  0  0  0  0  0  0  0  0  0  0  0
    6.0310   -0.5580   -0.4650 C   0  0  0  0  0  0  0  0  0  0  0  0
    6.6840   -1.8990   -0.4430 C   0  0  0  0  0  0  0  0  0  0  0  0
    5.7330   -2.8960   -0.8460 N   0  0  0  0  0  0  0  0  0  0  0  0
    4.7090   -0.4430   -0.8230 C   0  0  0  0  0  0  0  0  0  0  0  0
   -1.6420    0.7800   -0.2870 C   0  0  2  0  0  0  0  0  0  0  0  0
   -2.9310    1.5110   -0.1580 C   0  0  0  0  0  0  0  0  0  0  0  0
   -3.3630    2.3260   -1.1780 C   0  0  0  0  0  0  0  0  0  0  0  0
   -4.5490    3.0250   -1.0980 C   0  0  0  0  0  0  0  0  0  0  0  0
   -5.3020    2.8840    0.0440 C   0  0  0  0  0  0  0  0  0  0  0  0
   -6.4950    3.5490    0.1930 F   0  0  0  0  0  0  0  0  0  0  0  0
   -4.8680    2.0680    1.0620 C   0  0  0  0  0  0  0  0  0  0  0  0
   -3.7050    1.4130    0.9280 N   0  0  0  0  0  0  0  0  0  0  0  0
   -1.2190    0.0800    0.9250 C   0  0  0  0  0  0  0  0  0  0  0  0
   -0.2100    0.5600    1.7880 C   0  0  0  0  0  0  0  0  0  0  0  0
   -0.0430   -0.2890    2.8050 N   0  0  0  0  0  0  0  0  0  0  0  0
   -0.8870   -1.2850    2.6390 N   0  0  0  0  0  0  0  0  0  0  0  0
   -1.6260   -1.0940    1.4950 C   0  0  0  0  0  0  0  0  0  0  0  0
   -2.5990   -2.0630    1.0400 C   0  0  0  0  0  0  0  0  0  0  0  0
   -3.4870   -1.9140    0.0210 C   0  0  0  0  0  0  0  0  0  0  0  0
   -4.3750   -2.9270   -0.3890 C   0  0  0  0  0  0  0  0  0  0  0  0
   -4.3730   -4.1330    0.2450 C   0  0  0  0  0  0  0  0  0  0  0  0
   -5.4750   -5.4000   -0.2570 Cl  0  0  0  0  0  0  0  0  0  0  0  0
   -3.4890   -4.3270    1.2840 C   0  0  0  0  0  0  0  0  0  0  0  0
   -2.6350   -3.3230    1.6620 C   0  0  0  0  0  0  0  0  0  0  0  0
  1  2  1  0
  2  3  1  0
 14  2  1  1
  3  4  1  0
  4  5  3  0
  5  6  1  0
  6  7  2  0
  6 13  1  0
  7  8  1  0
  8  9  2  0
  9 10  1  0
 10 11  1  0
 10 13  2  0
 11 12  1  0
 14 15  1  0
 14 22  1  0
 15 16  2  0
 15 21  1  0
 16 17  1  0
 17 18  2  0
 18 19  1  0
 18 20  1  0
 20 21  2  0
 22 23  1  0
 22 26  2  0
 23 24  2  0
 24 25  1  0
 25 26  1  0
 26 27  1  0
 27 28  2  0
 27 33  1  0
 28 29  1  0
 29 30  2  0
 30 31  1  0
 30 32  1  0
 32 33  2  0
M  CHG  2   9   1  21   1
M  END
