
     RDKit          3D

 32 36  0  0  0  0  0  0  0  0999 V2000
   -4.9680   -4.4410    0.5030 C   0  0  0  0  0  0  0  0  0  0  0  0
   -4.7670   -3.1560   -0.1770 N   0  0  0  0  0  0  0  0  0  0  0  0
   -3.6830   -2.5120    0.4650 C   0  0  0  0  0  0  0  0  0  0  0  0
   -3.5200   -1.0440    0.1690 C   0  0  2  0  0  0  0  0  0  0  0  0
   -3.3680   -0.7120   -1.2330 C   0  0  0  0  0  0  0  0  0  0  0  0
   -2.4100   -0.5160    1.1010 C   0  0  0  0  0  0  0  0  0  0  0  0
   -1.9270    0.7710    0.7850 N   0  0  0  0  0  0  0  0  0  0  0  0
   -0.5410    0.7290    0.2350 C   0  0  0  0  0  0  0  0  0  0  0  0
    0.0290   -0.4110   -0.5190 N   0  0  0  0  0  0  0  0  0  0  0  0
    1.3020   -0.1350   -1.1250 C   0  0  0  0  0  0  0  0  0  0  0  0
    2.3810   -1.0720   -1.1200 C   0  0  0  0  0  0  0  0  0  0  0  0
    2.7220   -2.1650   -1.8730 C   0  0  0  0  0  0  0  0  0  0  0  0
    4.0930   -2.3990   -1.6610 C   0  0  0  0  0  0  0  0  0  0  0  0
    4.5910   -1.4820   -0.7740 N   0  0  0  0  0  0  0  0  0  0  0  0
    3.5750   -0.7140   -0.4520 C   0  0  0  0  0  0  0  0  0  0  0  0
    3.6960    0.2440    0.5650 C   0  0  0  0  0  0  0  0  0  0  0  0
    4.8760    0.3860    1.2290 C   0  0  0  0  0  0  0  0  0  0  0  0
    5.9570   -0.4100    0.8810 C   0  0  0  0  0  0  0  0  0  0  0  0
    7.1760   -0.1990    1.4540 C   0  0  0  0  0  0  0  0  0  0  0  0
    8.2950   -0.8930    1.0210 C   0  0  0  0  0  0  0  0  0  0  0  0
    9.8560   -0.6560    1.7580 Cl  0  0  0  0  0  0  0  0  0  0  0  0
    8.1350   -1.8020    0.0140 C   0  0  0  0  0  0  0  0  0  0  0  0
    6.9030   -2.0240   -0.5550 C   0  0  0  0  0  0  0  0  0  0  0  0
    5.7570   -1.3350   -0.1520 C   0  0  0  0  0  0  0  0  0  0  0  0
    0.0670    1.7900    0.4780 N   0  0  0  0  0  0  0  0  0  0  0  0
   -0.8120    2.6920    1.2260 C   0  0  0  0  0  0  0  0  0  0  0  0
   -2.1830    2.1540    0.7280 C   0  0  1  0  0  0  0  0  0  0  0  0
   -2.1560    2.5600   -0.7710 C   0  0  0  0  0  0  0  0  0  0  0  0
   -1.9330    4.0700   -0.8890 C   0  0  0  0  0  0  0  0  0  0  0  0
   -2.7450    4.7500    0.0610 N   0  0  0  0  0  0  0  0  0  0  0  0
   -3.8130    3.9360    0.5890 C   0  0  0  0  0  0  0  0  0  0  0  0
   -3.2830    2.7750    1.4550 C   0  0  0  0  0  0  0  0  0  0  0  0
  1  2  1  0
  2  3  1  0
  3  4  1  0
  4  5  1  6
  4  6  1  0
  6  7  1  0
  7  8  1  0
  7 27  1  0
  8  9  1  0
  8 25  2  0
  9 10  1  0
 10 11  1  0
 11 12  1  0
 11 15  2  0
 12 13  2  0
 13 14  1  0
 14 15  1  0
 14 24  1  0
 15 16  1  0
 16 17  2  0
 17 18  1  0
 18 19  2  0
 18 24  1  0
 19 20  1  0
 20 21  1  0
 20 22  2  0
 22 23  1  0
 23 24  2  0
 25 26  1  0
 27 26  1  1
 27 28  1  0
 27 32  1  0
 28 29  1  0
 29 30  1  0
 30 31  1  0
 31 32  1  0
M  CHG  2   2   1  25   1
M  END
