
     RDKit          3D

 33 36  0  0  0  0  0  0  0  0999 V2000
   -7.5090    4.2430   -1.7510 F   0  0  0  0  0  0  0  0  0  0  0  0
   -6.4330    3.6940   -1.1540 C   0  0  0  0  0  0  0  0  0  0  0  0
   -6.5320    2.6270   -0.4050 C   0  0  0  0  0  0  0  0  0  0  0  0
   -5.3630    1.9830    0.2770 C   0  0  0  0  0  0  0  0  0  0  0  0
   -5.6160    0.9140    1.0090 C   0  0  0  0  0  0  0  0  0  0  0  0
   -4.8730   -0.0090    1.8140 C   0  0  0  0  0  0  0  0  0  0  0  0
   -4.4720   -1.2800    1.7300 C   0  0  0  0  0  0  0  0  0  0  0  0
   -4.6010   -2.3350    0.7760 C   0  0  0  0  0  0  0  0  0  0  0  0
   -3.8180   -3.0940    0.0450 C   0  0  0  0  0  0  0  0  0  0  0  0
   -4.5520   -4.0570   -0.8100 N   0  0  0  0  0  0  0  0  0  0  0  0
   -5.5760   -5.1550    0.0440 Cl  0  0  0  0  0  0  0  0  0  0  0  0
   -2.3860   -3.2800   -0.0990 C   0  0  1  0  0  0  0  0  0  0  0  0
   -1.9540   -3.0570   -1.4590 N   0  0  0  0  0  0  0  0  0  0  0  0
   -1.5350   -1.7030   -1.4880 N   0  0  0  0  0  0  0  0  0  0  0  0
   -1.6250   -1.2150   -0.2440 C   0  0  0  0  0  0  0  0  0  0  0  0
   -1.5420   -2.3150    0.6110 N   0  0  0  0  0  0  0  0  0  0  0  0
   -1.7890    0.2250    0.0220 C   0  0  2  0  0  0  0  0  0  0  0  0
   -2.8170    0.8450   -0.9550 C   0  0  0  0  0  0  0  0  0  0  0  0
   -2.9830    2.2300   -0.4600 C   0  0  0  0  0  0  0  0  0  0  0  0
   -4.1060    2.6850    0.0660 C   0  0  0  0  0  0  0  0  0  0  0  0
   -1.7590    3.0710   -0.5970 C   0  0  0  0  0  0  0  0  0  0  0  0
   -0.6490    2.3390    0.0850 C   0  0  0  0  0  0  0  0  0  0  0  0
   -0.5600    0.9440   -0.2660 N   0  0  1  0  0  0  0  0  0  0  0  0
    0.6040    0.3200    0.3310 C   0  0  0  0  0  0  0  0  0  0  0  0
    1.8080    0.6770   -0.5390 C   0  0  0  0  0  0  0  0  0  0  0  0
    3.0740    0.0540    0.0280 C   0  0  0  0  0  0  0  0  0  0  0  0
    4.2550    0.4080   -0.8310 C   0  0  0  0  0  0  0  0  0  0  0  0
    5.4870   -0.1440   -0.3610 N   0  0  1  0  0  0  0  0  0  0  0  0
    6.2900    0.8190    0.3700 C   0  0  0  0  0  0  0  0  0  0  0  0
    7.7380    0.3720    0.2190 C   0  0  0  0  0  0  0  0  0  0  0  0
    7.8200   -1.1350    0.0750 C   0  0  0  0  0  0  0  0  0  0  0  0
    6.7140   -1.8380    0.7980 C   0  0  0  0  0  0  0  0  0  0  0  0
    5.3380   -1.3180    0.4430 C   0  0  0  0  0  0  0  0  0  0  0  0
  1  2  1  0
  2  3  2  3
  3  4  1  0
  4  5  2  0
  4 20  1  0
  5  6  1  0
  6  7  2  0
  7  8  1  0
  8  9  2  0
  9 10  1  0
  9 12  1  0
 10 11  1  0
 12 13  1  6
 12 16  1  0
 13 14  1  0
 14 15  2  0
 15 16  1  0
 17 15  1  6
 17 18  1  0
 17 23  1  0
 18 19  1  0
 19 20  2  0
 19 21  1  0
 21 22  1  0
 22 23  1  0
 23 24  1  1
 24 25  1  0
 25 26  1  0
 26 27  1  0
 28 27  1  1
 28 29  1  0
 28 33  1  0
 29 30  1  0
 30 31  1  0
 31 32  1  0
 32 33  1  0
M  CHG  2  23   1  28   1
M  END
