
     RDKit          3D

 17 16  0  0  0  0  0  0  0  0999 V2000
   -2.5480    3.2940   -0.3530 C   0  0  0  0  0  0  0  0  0  0  0  0
   -3.0960    1.9860   -0.8860 C   0  0  0  0  0  0  0  0  0  0  0  0
   -3.3070    1.0330    0.1910 C   0  0  0  0  0  0  0  0  0  0  0  0
   -2.8280   -0.1450    0.4410 C   0  0  0  0  0  0  0  0  0  0  0  0
   -3.3810   -0.7640    1.7260 C   0  0  0  0  0  0  0  0  0  0  0  0
   -1.7830   -0.8570   -0.2840 C   0  0  0  0  0  0  0  0  0  0  0  0
   -1.1570   -0.1410   -1.3220 O   0  0  0  0  0  0  0  0  0  0  0  0
   -0.0810    0.7350   -1.1500 C   0  0  0  0  0  0  0  0  0  0  0  0
    1.1690    0.0970   -0.6250 C   0  0  0  0  0  0  0  0  0  0  0  0
    2.1640    1.0940   -0.4710 O   0  0  0  0  0  0  0  0  0  0  0  0
    3.3420    0.5290    0.0190 C   0  0  1  0  0  0  0  0  0  0  0  0
    3.8230   -0.5220   -0.9700 C   0  0  0  0  0  0  0  0  0  0  0  0
    4.4130    1.5970    0.0750 C   0  0  0  0  0  0  0  0  0  0  0  0
    3.1840   -0.0250    1.4090 C   0  0  0  0  0  0  0  0  0  0  0  0
   -1.3640   -2.0690   -0.0660 C   0  0  0  0  0  0  0  0  0  0  0  0
   -0.2640   -2.6060   -0.9600 C   0  0  0  0  0  0  0  0  0  0  0  0
   -1.8300   -3.0300    0.9520 C   0  0  0  0  0  0  0  0  0  0  0  0
  1  2  1  0
  2  3  1  0
  3  4  2  3
  4  5  1  0
  4  6  1  0
  6  7  1  0
  6 15  2  3
  7  8  1  0
  8  9  1  0
  9 10  1  0
 10 11  1  0
 11 12  1  6
 11 13  1  0
 11 14  1  0
 15 16  1  0
 15 17  1  0
M  END
