
     RDKit          3D

 17 17  0  0  0  0  0  0  0  0999 V2000
    5.6810   -1.2950    1.1640 C   0  0  0  0  0  0  0  0  0  0  0  0
    4.9670   -1.0580   -0.1420 C   0  0  0  0  0  0  0  0  0  0  0  0
    4.1670    0.2510   -0.0620 C   0  0  0  0  0  0  0  0  0  0  0  0
    3.4920    0.4080   -1.3940 C   0  0  0  0  0  0  0  0  0  0  0  0
    2.7100    1.6740   -1.4770 C   0  0  0  0  0  0  0  0  0  0  0  0
    1.6080    1.8390   -0.4890 C   0  0  2  0  0  0  0  0  0  0  0  0
    2.0410    1.8370    0.8190 O   0  0  0  0  0  0  0  0  0  0  0  0
    0.6070    0.6990   -0.7290 C   0  0  0  0  0  0  0  0  0  0  0  0
   -0.4640    0.9260    0.1350 O   0  0  0  0  0  0  0  0  0  0  0  0
   -1.4390   -0.0350    0.0170 C   0  0  1  0  0  0  0  0  0  0  0  0
   -1.5980   -0.7740    1.3070 C   0  0  0  0  0  0  0  0  0  0  0  0
   -2.7590   -0.2620    2.1320 C   0  0  0  0  0  0  0  0  0  0  0  0
   -3.9750   -1.0890    1.8130 C   0  0  0  0  0  0  0  0  0  0  0  0
   -4.6710   -0.6770    0.5640 C   0  0  0  0  0  0  0  0  0  0  0  0
   -3.7810   -0.5250   -0.6270 C   0  0  1  0  0  0  0  0  0  0  0  0
   -4.6830   -0.1360   -1.8080 C   0  0  0  0  0  0  0  0  0  0  0  0
   -2.7460    0.5400   -0.5000 C   0  0  0  0  0  0  0  0  0  0  0  0
  1  2  1  0
  2  3  1  0
  3  4  1  0
  4  5  1  0
  5  6  1  0
  6  7  1  1
  6  8  1  0
  8  9  1  0
 10  9  1  1
 10 11  1  0
 10 17  1  0
 11 12  1  0
 12 13  1  0
 13 14  1  0
 14 15  1  0
 15 16  1  6
 15 17  1  0
M  END
