
     RDKit          3D

 23 26  0  0  0  0  0  0  0  0999 V2000
    0.3850   -1.1830    1.6580 C   0  0  0  0  0  0  0  0  0  0  0  0
   -0.0770   -0.4230    0.3580 C   0  0  2  0  0  0  0  0  0  0  0  0
   -1.2930   -1.0010    0.0360 N   0  0  0  0  0  0  0  0  0  0  0  0
   -1.3450   -2.3850    0.0040 C   0  0  0  0  0  0  0  0  0  0  0  0
   -2.5330   -2.8150   -0.3050 N   0  0  0  0  0  0  0  0  0  0  0  0
   -3.3330   -1.7620   -0.4950 C   0  0  0  0  0  0  0  0  0  0  0  0
   -4.6560   -1.6200   -0.8310 C   0  0  0  0  0  0  0  0  0  0  0  0
   -5.2050   -0.4140   -0.9550 N   0  0  0  0  0  0  0  0  0  0  0  0
   -4.4440    0.6790   -0.7470 C   0  0  0  0  0  0  0  0  0  0  0  0
   -4.7340    2.0100   -0.8080 N   0  0  0  0  0  0  0  0  0  0  0  0
   -3.6430    2.7170   -0.5230 C   0  0  0  0  0  0  0  0  0  0  0  0
   -2.5760    1.8370   -0.2600 C   0  0  0  0  0  0  0  0  0  0  0  0
   -3.1060    0.6060   -0.4070 C   0  0  0  0  0  0  0  0  0  0  0  0
   -2.5370   -0.6440   -0.2770 C   0  0  0  0  0  0  0  0  0  0  0  0
    0.8960   -0.9980   -0.7200 C   0  0  0  0  0  0  0  0  0  0  0  0
    2.3210   -0.7900   -0.4320 C   0  0  0  0  0  0  0  0  0  0  0  0
    2.6320    0.5330    0.0050 N   0  0  0  0  0  0  0  0  0  0  0  0
    4.2950    0.7820    0.2500 S   0  0  1  0  0  0  0  0  0  0  0  0
    5.1860    0.5500   -1.2660 C   0  0  0  0  0  0  0  0  0  0  0  0
    4.5500    2.1800    0.7220 O   0  0  0  0  0  0  0  0  0  0  0  0
    4.8330   -0.1990    1.2640 O   0  0  0  0  0  0  0  0  0  0  0  0
    1.8100    0.8750    1.1110 C   0  0  0  0  0  0  0  0  0  0  0  0
    0.3410    0.8980    0.5960 C   0  0  0  0  0  0  0  0  0  0  0  0
  2  1  1  1
  2  3  1  0
  2 15  1  0
  2 23  1  0
  3  4  1  0
  3 14  1  0
  4  5  2  0
  5  6  1  0
  6  7  2  0
  6 14  1  0
  7  8  1  0
  8  9  2  0
  9 10  1  0
  9 13  1  0
 10 11  1  0
 11 12  2  0
 12 13  1  0
 13 14  2  0
 15 16  1  0
 16 17  1  0
 17 18  1  0
 17 22  1  0
 18 19  1  6
 18 20  2  0
 18 21  2  0
 22 23  1  0
M  END
