
     RDKit          3D

  9  9  0  0  0  0  0  0  0  0999 V2000
    2.7220   -0.6290   -0.2670 O   0  0  0  0  0  0  0  0  0  0  0  0
    2.2030    0.6730   -0.1430 C   0  0  0  0  0  0  0  0  0  0  0  0
    0.9510    0.5420    0.4460 O   0  0  0  0  0  0  0  0  0  0  0  0
    0.0810   -0.2260   -0.2990 C   0  0  1  0  0  0  0  0  0  0  0  0
   -0.4890   -1.2870    0.6260 C   0  0  0  0  0  0  0  0  0  0  0  0
   -1.5440   -0.7280    1.2980 O   0  0  0  0  0  0  0  0  0  0  0  0
   -1.6550    0.5960    0.9450 C   0  0  0  0  0  0  0  0  0  0  0  0
   -1.2000    0.5940   -0.5020 C   0  0  2  0  0  0  0  0  0  0  0  0
   -2.0700   -0.1940   -1.2390 O   0  0  0  0  0  0  0  0  0  0  0  0
  1  2  1  0
  2  3  1  0
  4  3  1  1
  4  5  1  0
  4  8  1  0
  5  6  1  0
  6  7  1  0
  7  8  1  0
  8  9  1  6
M  END
