
     RDKit          3D

  9  9  0  0  0  0  0  0  0  0999 V2000
    1.9950    0.6930   -0.7850 O   0  0  0  0  0  0  0  0  0  0  0  0
    1.6560   -0.0410    0.3210 C   0  0  0  0  0  0  0  0  0  0  0  0
    0.1800   -0.2990    0.3910 C   0  0  2  0  0  0  0  0  0  0  0  0
   -0.1600   -1.0460    1.5170 O   0  0  0  0  0  0  0  0  0  0  0  0
   -0.3300   -1.0760   -0.8090 C   0  0  0  0  0  0  0  0  0  0  0  0
   -1.8080   -0.6810   -0.6580 C   0  0  0  0  0  0  0  0  0  0  0  0
   -1.6550    0.7140   -0.6280 O   0  0  0  0  0  0  0  0  0  0  0  0
   -0.6420    0.9630    0.2730 C   0  0  2  0  0  0  0  0  0  0  0  0
    0.1960    2.0010   -0.1530 O   0  0  0  0  0  0  0  0  0  0  0  0
  1  2  1  0
  2  3  1  0
  3  4  1  1
  3  5  1  0
  3  8  1  0
  5  6  1  0
  6  7  1  0
  7  8  1  0
  8  9  1  6
M  END
