
     RDKit          3D

  9  9  0  0  0  0  0  0  0  0999 V2000
    2.6050   -0.0780    0.9380 O   0  0  0  0  0  0  0  0  0  0  0  0
    1.9510   -0.6660   -0.1670 C   0  0  0  0  0  0  0  0  0  0  0  0
    0.4750   -0.5540    0.1070 C   0  0  1  0  0  0  0  0  0  0  0  0
    0.0940   -1.2040    1.2680 O   0  0  0  0  0  0  0  0  0  0  0  0
    0.0310    0.9100    0.1420 C   0  0  0  0  0  0  0  0  0  0  0  0
   -1.4820    0.7320    0.0350 C   0  0  1  0  0  0  0  0  0  0  0  0
   -1.9820    1.6520   -0.8580 O   0  0  0  0  0  0  0  0  0  0  0  0
   -1.5920   -0.6750   -0.4960 C   0  0  0  0  0  0  0  0  0  0  0  0
   -0.3070   -1.0370   -0.9280 O   0  0  0  0  0  0  0  0  0  0  0  0
  1  2  1  0
  2  3  1  0
  3  4  1  1
  3  5  1  0
  3  9  1  0
  5  6  1  0
  6  7  1  6
  6  8  1  0
  8  9  1  0
M  END
