
     RDKit          3D

  9  9  0  0  0  0  0  0  0  0999 V2000
   -1.7680   -0.6940   -1.2270 O   0  0  0  0  0  0  0  0  0  0  0  0
   -1.7090   -0.7110    0.1490 C   0  0  0  0  0  0  0  0  0  0  0  0
   -0.3540   -0.2280    0.6030 C   0  0  1  0  0  0  0  0  0  0  0  0
   -0.2150   -0.2150    1.9720 O   0  0  0  0  0  0  0  0  0  0  0  0
    0.7400   -1.1100    0.0390 C   0  0  0  0  0  0  0  0  0  0  0  0
    1.8590   -0.2850    0.2780 O   0  0  0  0  0  0  0  0  0  0  0  0
    1.4640    0.8730   -0.3910 C   0  0  1  0  0  0  0  0  0  0  0  0
    1.6280    0.6080   -1.7590 O   0  0  0  0  0  0  0  0  0  0  0  0
    0.0120    1.1060   -0.0370 C   0  0  0  0  0  0  0  0  0  0  0  0
  1  2  1  0
  2  3  1  0
  3  4  1  1
  3  5  1  0
  3  9  1  0
  5  6  1  0
  6  7  1  0
  7  8  1  6
  7  9  1  0
M  END
