
     RDKit          3D

 15 16  0  0  0  0  0  0  0  0999 V2000
   -4.2870    1.3680    0.1800 N   0  0  0  0  0  0  0  0  0  0  0  0
   -3.1370    0.5410    0.1370 C   0  0  0  0  0  0  0  0  0  0  0  0
   -3.2000   -0.7480    0.1170 N   0  0  0  0  0  0  0  0  0  0  0  0
   -2.0500   -1.5490    0.0740 N   0  0  0  0  0  0  0  0  0  0  0  0
   -0.7350   -0.9710    0.0490 C   0  0  0  0  0  0  0  0  0  0  0  0
    0.3830   -1.7540    0.0070 C   0  0  0  0  0  0  0  0  0  0  0  0
    1.6270   -1.1200   -0.0160 C   0  0  0  0  0  0  0  0  0  0  0  0
    1.7720    0.2320    0.0020 C   0  0  0  0  0  0  0  0  0  0  0  0
    3.0110    0.9220   -0.0190 N   0  0  0  0  0  0  0  0  0  0  0  0
    4.2940    0.3640   -0.0620 C   0  0  0  0  0  0  0  0  0  0  0  0
    4.5340   -0.9840   -0.0900 O   0  0  0  0  0  0  0  0  0  0  0  0
    5.6030    1.3390   -0.0810 S   0  0  0  0  0  0  0  0  0  0  0  0
    0.5790    0.9640    0.0460 C   0  0  0  0  0  0  0  0  0  0  0  0
   -0.6590    0.4040    0.0690 C   0  0  0  0  0  0  0  0  0  0  0  0
   -1.8640    1.1580    0.1130 N   0  0  0  0  0  0  0  0  0  0  0  0
  1  2  1  0
  2  3  2  0
  2 15  1  0
  3  4  1  0
  4  5  1  0
  5  6  2  0
  5 14  1  0
  6  7  1  0
  7  8  2  0
  8  9  1  0
  8 13  1  0
  9 10  1  0
 10 11  1  0
 10 12  2  0
 13 14  2  0
 14 15  1  0
M  CHG  1   3   1
M  END
