
     RDKit          3D

 15 15  0  0  0  0  0  0  0  0999 V2000
    3.6870    0.9990    1.5720 N   0  0  0  0  0  0  0  0  0  0  0  0
    4.1100    0.4700    0.2990 C   0  0  0  0  0  0  0  0  0  0  0  0
    5.7350    0.3460    0.0990 S   0  0  0  0  0  0  0  0  0  0  0  0
    3.1900    0.0890   -0.6930 N   0  0  0  0  0  0  0  0  0  0  0  0
    1.8050    0.2240   -0.4490 C   0  0  0  0  0  0  0  0  0  0  0  0
    0.9730   -0.8050   -0.5170 C   0  0  0  0  0  0  0  0  0  0  0  0
    1.2220   -2.0760   -0.8020 N   0  0  0  0  0  0  0  0  0  0  0  0
    0.0780   -2.7520   -0.7520 C   0  0  0  0  0  0  0  0  0  0  0  0
   -0.0530   -3.9910   -0.9710 O   0  0  0  0  0  0  0  0  0  0  0  0
   -0.9460   -1.9110   -0.4280 N   0  0  0  0  0  0  0  0  0  0  0  0
   -0.3950   -0.6950   -0.2800 C   0  0  0  0  0  0  0  0  0  0  0  0
   -1.0320    0.4270    0.0380 C   0  0  0  0  0  0  0  0  0  0  0  0
   -2.4640    0.3940    0.2570 C   0  0  0  0  0  0  0  0  0  0  0  0
   -3.1030    1.5280    0.5770 C   0  0  0  0  0  0  0  0  0  0  0  0
   -4.5070    1.4530    0.7850 N   0  0  0  0  0  0  0  0  0  0  0  0
  1  2  1  0
  2  3  2  0
  2  4  1  0
  4  5  1  0
  5  6  2  3
  6  7  1  0
  6 11  1  0
  7  8  1  0
  8  9  2  0
  8 10  1  0
 10 11  1  0
 11 12  2  3
 12 13  1  0
 13 14  2  3
 14 15  1  0
M  CHG  1  15   1
M  END
