
     RDKit          3D

 15 15  0  0  0  0  0  0  0  0999 V2000
   -2.8930    4.1690   -0.0860 N   0  0  0  0  0  0  0  0  0  0  0  0
   -2.4100    2.8010   -0.2100 C   0  0  0  0  0  0  0  0  0  0  0  0
   -3.2470    1.9910   -0.6700 O   0  0  0  0  0  0  0  0  0  0  0  0
   -0.7670    2.5100    0.2870 S   0  0  0  0  0  0  0  0  0  0  0  0
   -0.2360    0.7910    0.2750 C   0  0  0  0  0  0  0  0  0  0  0  0
    1.0570    0.6190    0.2720 C   0  0  0  0  0  0  0  0  0  0  0  0
    1.8530   -0.5760    0.2720 C   0  0  0  0  0  0  0  0  0  0  0  0
    3.1990   -0.4980    0.2510 C   0  0  0  0  0  0  0  0  0  0  0  0
    3.7930    0.7850    0.2290 N   0  0  0  0  0  0  0  0  0  0  0  0
    3.9640   -1.6790    0.2510 N   0  0  0  0  0  0  0  0  0  0  0  0
   -1.1760   -0.2960    0.1530 C   0  0  0  0  0  0  0  0  0  0  0  0
   -2.4790   -0.1420    0.2490 N   0  0  0  0  0  0  0  0  0  0  0  0
   -3.1860   -1.3910    0.0940 C   0  0  0  0  0  0  0  0  0  0  0  0
   -2.0940   -2.4320    0.3930 C   0  0  0  0  0  0  0  0  0  0  0  0
   -0.9790   -1.6700   -0.1800 N   0  0  0  0  0  0  0  0  0  0  0  0
  1  2  1  0
  2  3  2  0
  2  4  1  0
  4  5  1  0
  5  6  2  3
  5 11  1  0
  6  7  1  0
  7  8  2  3
  8  9  1  0
  8 10  1  0
 11 12  2  0
 11 15  1  0
 12 13  1  0
 13 14  1  0
 14 15  1  0
M  CHG  1  10   1
M  END
