
     RDKit          3D

 25 28  0  0  0  0  0  0  0  0999 V2000
   -6.6380   -0.2560   -0.8000 C   0  0  0  0  0  0  0  0  0  0  0  0
   -5.3910   -0.3260    0.0690 C   0  0  2  0  0  0  0  0  0  0  0  0
   -5.2200   -1.7060    0.6260 C   0  0  0  0  0  0  0  0  0  0  0  0
   -5.6120    0.6140    1.2430 C   0  0  0  0  0  0  0  0  0  0  0  0
   -4.2810    0.0640   -0.7170 O   0  0  0  0  0  0  0  0  0  0  0  0
   -2.9960    0.1010   -0.1980 C   0  0  0  0  0  0  0  0  0  0  0  0
   -2.8410   -0.2250    1.0010 O   0  0  0  0  0  0  0  0  0  0  0  0
   -1.8570    0.4810   -0.9340 N   0  0  0  0  0  0  0  0  0  0  0  0
   -0.5040    0.5260   -0.4100 C   0  0  2  0  0  0  0  0  0  0  0  0
    0.1220    1.8720   -0.5380 C   0  0  0  0  0  0  0  0  0  0  0  0
    1.6020    1.5800   -0.5670 C   0  0  0  0  0  0  0  0  0  0  0  0
    1.8000    0.1570   -1.0100 C   0  0  1  0  0  0  0  0  0  0  0  0
    2.4770   -0.6300    0.0030 N   0  0  0  0  0  0  0  0  0  0  0  0
    1.8540   -1.5300    0.8050 C   0  0  0  0  0  0  0  0  0  0  0  0
    2.7410   -2.0950    1.6320 N   0  0  0  0  0  0  0  0  0  0  0  0
    3.9640   -1.5790    1.3910 C   0  0  0  0  0  0  0  0  0  0  0  0
    5.2100   -1.7920    1.9330 C   0  0  0  0  0  0  0  0  0  0  0  0
    6.2250   -1.0880    1.4400 N   0  0  0  0  0  0  0  0  0  0  0  0
    6.0910   -0.1930    0.4520 C   0  0  0  0  0  0  0  0  0  0  0  0
    6.9760    0.6230   -0.1910 N   0  0  0  0  0  0  0  0  0  0  0  0
    6.3220    1.3410   -1.1210 C   0  0  0  0  0  0  0  0  0  0  0  0
    4.9770    0.9980   -1.0980 C   0  0  0  0  0  0  0  0  0  0  0  0
    4.8500    0.0470   -0.1170 C   0  0  0  0  0  0  0  0  0  0  0  0
    3.7630   -0.6540    0.3540 C   0  0  0  0  0  0  0  0  0  0  0  0
    0.3880   -0.3650   -1.2240 C   0  0  0  0  0  0  0  0  0  0  0  0
  2  1  1  6
  2  3  1  0
  2  4  1  0
  2  5  1  0
  5  6  1  0
  6  7  2  0
  6  8  1  0
  9  8  1  6
  9 10  1  0
  9 25  1  0
 10 11  1  0
 11 12  1  0
 12 13  1  1
 12 25  1  0
 13 14  1  0
 13 24  1  0
 14 15  2  0
 15 16  1  0
 16 17  2  0
 16 24  1  0
 17 18  1  0
 18 19  2  0
 19 20  1  0
 19 23  1  0
 20 21  1  0
 21 22  2  0
 22 23  1  0
 23 24  2  0
M  END
