
     RDKit          3D

 13 13  0  0  0  0  0  0  0  0999 V2000
    4.0060    0.5440    0.8710 C   0  0  0  0  0  0  0  0  0  0  0  0
    3.2360    1.5190    0.0090 C   0  0  0  0  0  0  0  0  0  0  0  0
    1.8330    1.2620    0.0670 O   0  0  0  0  0  0  0  0  0  0  0  0
    1.3780    0.0310   -0.3440 C   0  0  0  0  0  0  0  0  0  0  0  0
    2.2070   -0.8210   -0.7530 O   0  0  0  0  0  0  0  0  0  0  0  0
   -0.0150   -0.3400   -0.3310 C   0  0  0  0  0  0  0  0  0  0  0  0
   -0.6040   -1.5650   -0.7250 C   0  0  0  0  0  0  0  0  0  0  0  0
   -1.9120   -1.6860   -0.6270 C   0  0  0  0  0  0  0  0  0  0  0  0
   -2.6700   -0.6660   -0.1630 C   0  0  0  0  0  0  0  0  0  0  0  0
   -4.1150   -0.4910    0.0600 C   0  0  0  0  0  0  0  0  0  0  0  0
   -4.5530    0.7560    0.5740 N   0  0  0  0  0  0  0  0  0  0  0  0
   -4.9370   -1.3790   -0.1830 O   0  0  0  0  0  0  0  0  0  0  0  0
   -1.4100    0.5970    0.1720 S   0  0  0  0  0  0  0  0  0  0  0  0
  1  2  1  0
  2  3  1  0
  3  4  1  0
  4  5  2  0
  4  6  1  0
  6  7  2  0
  6 13  1  0
  7  8  1  0
  8  9  2  0
  9 10  1  0
  9 13  1  0
 10 11  1  0
 10 12  2  0
M  END
