
     RDKit          3D

 17 19  0  0  0  0  0  0  0  0999 V2000
    2.4690   -1.4010    1.2310 C   0  0  0  0  0  0  0  0  0  0  0  0
    3.2690   -0.9700    0.2880 C   0  0  0  0  0  0  0  0  0  0  0  0
    3.0970    0.2930   -0.3650 C   0  0  0  0  0  0  0  0  0  0  0  0
    4.1150    0.9910   -0.9800 N   0  0  0  0  0  0  0  0  0  0  0  0
    3.6730    2.1020   -1.4970 N   0  0  0  0  0  0  0  0  0  0  0  0
    2.3730    2.1750   -1.2480 C   0  0  0  0  0  0  0  0  0  0  0  0
    1.9670    1.0380   -0.5280 C   0  0  0  0  0  0  0  0  0  0  0  0
    0.5940    0.7980   -0.1410 C   0  0  0  0  0  0  0  0  0  0  0  0
   -0.1100    1.7330    0.5860 C   0  0  0  0  0  0  0  0  0  0  0  0
   -1.4290    1.5610    0.9500 C   0  0  0  0  0  0  0  0  0  0  0  0
   -2.0870    0.3900    0.5680 C   0  0  0  0  0  0  0  0  0  0  0  0
   -1.4130   -0.5710   -0.1620 C   0  0  0  0  0  0  0  0  0  0  0  0
   -0.1080   -0.3510   -0.4960 C   0  0  0  0  0  0  0  0  0  0  0  0
   -2.1250   -1.7110   -0.5090 O   0  0  0  0  0  0  0  0  0  0  0  0
   -3.5340   -1.6600   -0.6590 C   0  0  0  0  0  0  0  0  0  0  0  0
   -4.1310   -0.9790    0.5550 C   0  0  0  0  0  0  0  0  0  0  0  0
   -3.4150    0.1690    0.9100 O   0  0  0  0  0  0  0  0  0  0  0  0
  1  2  2  0
  2  3  1  0
  3  4  1  0
  3  7  2  0
  4  5  1  0
  5  6  2  0
  6  7  1  0
  7  8  1  0
  8  9  2  0
  8 13  1  0
  9 10  1  0
 10 11  2  0
 11 12  1  0
 11 17  1  0
 12 13  2  0
 12 14  1  0
 14 15  1  0
 15 16  1  0
 16 17  1  0
M  END
