
     RDKit          3D

 17 19  0  0  0  0  0  0  0  0999 V2000
    4.9290    1.5360    0.4090 C   0  0  0  0  0  0  0  0  0  0  0  0
    3.6230    0.8410    0.2600 C   0  0  0  0  0  0  0  0  0  0  0  0
    3.4520   -0.5030    0.1340 C   0  0  0  0  0  0  0  0  0  0  0  0
    2.0890   -0.7290    0.0210 C   0  0  0  0  0  0  0  0  0  0  0  0
    1.5190    0.5320    0.0900 C   0  0  0  0  0  0  0  0  0  0  0  0
    2.4570    1.4480    0.2320 O   0  0  0  0  0  0  0  0  0  0  0  0
    0.0820    0.7960    0.0140 C   0  0  0  0  0  0  0  0  0  0  0  0
   -0.2850    1.9290    0.3490 O   0  0  0  0  0  0  0  0  0  0  0  0
   -0.9670   -0.0740   -0.3960 N   0  0  0  0  0  0  0  0  0  0  0  0
   -2.3040    0.3460   -0.2150 C   0  0  0  0  0  0  0  0  0  0  0  0
   -2.8890    1.4050   -0.7210 C   0  0  0  0  0  0  0  0  0  0  0  0
   -4.3000    1.4510   -0.2650 C   0  0  0  0  0  0  0  0  0  0  0  0
   -4.4040    0.2310    0.5870 C   0  0  0  0  0  0  0  0  0  0  0  0
   -3.2580   -0.4030    0.6150 C   0  0  0  0  0  0  0  0  0  0  0  0
   -0.7540   -1.3960   -1.0030 C   0  0  0  0  0  0  0  0  0  0  0  0
    0.0560   -2.2870   -0.0940 C   0  0  0  0  0  0  0  0  0  0  0  0
    1.4660   -2.0010   -0.1310 N   0  0  0  0  0  0  0  0  0  0  0  0
  1  2  1  0
  2  3  2  0
  2  6  1  0
  3  4  1  0
  4  5  2  0
  4 17  1  0
  5  6  1  0
  5  7  1  0
  7  8  2  0
  7  9  1  0
  9 10  1  0
  9 15  1  0
 10 11  2  0
 10 14  1  0
 11 12  1  0
 12 13  1  0
 13 14  2  0
 15 16  1  0
 16 17  1  0
M  END
