
     RDKit          3D

 14 14  0  0  0  0  0  0  0  0999 V2000
   -2.7550    1.0800    0.7160 C   0  0  0  0  0  0  0  0  0  0  0  0
   -1.5220    0.3060    0.3200 C   0  0  2  0  0  0  0  0  0  0  0  0
   -0.3960    1.0730    0.6440 O   0  0  0  0  0  0  0  0  0  0  0  0
    0.8660    0.5670    0.3730 C   0  0  0  0  0  0  0  0  0  0  0  0
    1.6480    1.1260   -0.5190 C   0  0  0  0  0  0  0  0  0  0  0  0
    2.9870    0.5910   -0.8070 C   0  0  2  0  0  0  0  0  0  0  0  0
    2.9760    0.1820   -2.1770 O   0  0  0  0  0  0  0  0  0  0  0  0
    3.2880   -0.5210   -0.0480 O   0  0  0  0  0  0  0  0  0  0  0  0
    2.5190   -1.1290    0.8790 C   0  0  0  0  0  0  0  0  0  0  0  0
    1.3070   -0.6050    1.1060 C   0  0  0  0  0  0  0  0  0  0  0  0
    0.4450   -1.1950    2.0680 N   0  0  0  0  0  0  0  0  0  0  0  0
   -1.6000    0.0070   -1.1350 C   0  0  0  0  0  0  0  0  0  0  0  0
   -2.7050   -0.7680   -1.5820 N   0  0  0  0  0  0  0  0  0  0  0  0
   -0.7450    0.4080   -1.9560 O   0  0  0  0  0  0  0  0  0  0  0  0
  2  1  1  6
  2  3  1  0
  2 12  1  0
  3  4  1  0
  4  5  2  0
  4 10  1  0
  5  6  1  0
  6  7  1  6
  6  8  1  0
  8  9  1  0
  9 10  2  0
 10 11  1  0
 12 13  1  0
 12 14  2  0
M  END
