
     RDKit          3D

 14 14  0  0  0  0  0  0  0  0999 V2000
   -2.0120    2.0700    0.2870 N   0  0  0  0  0  0  0  0  0  0  0  0
   -0.8200    1.5500    0.8000 C   0  0  0  0  0  0  0  0  0  0  0  0
   -0.1630    2.2280    1.6150 O   0  0  0  0  0  0  0  0  0  0  0  0
   -0.2790    0.1970    0.4150 C   0  0  1  0  0  0  0  0  0  0  0  0
   -1.2570   -0.8190    0.9860 C   0  0  1  0  0  0  0  0  0  0  0  0
   -2.5080   -0.6730    0.2750 N   0  0  0  0  0  0  0  0  0  0  0  0
   -0.8100   -2.2150    0.8860 C   0  0  0  0  0  0  0  0  0  0  0  0
    0.1830   -2.5750    1.4890 O   0  0  0  0  0  0  0  0  0  0  0  0
   -0.1320    0.0700   -1.0630 C   0  0  0  0  0  0  0  0  0  0  0  0
    1.1320   -0.6710   -1.3920 C   0  0  0  0  0  0  0  0  0  0  0  0
    2.2660    0.1400   -1.4240 O   0  0  0  0  0  0  0  0  0  0  0  0
    2.8850    0.1480   -0.1680 C   0  0  0  0  0  0  0  0  0  0  0  0
    1.9180    0.9030    0.7390 C   0  0  0  0  0  0  0  0  0  0  0  0
    0.9190    0.0350    1.0880 O   0  0  0  0  0  0  0  0  0  0  0  0
  1  2  1  0
  2  3  2  0
  4  2  1  6
  4  5  1  0
  4  9  1  0
  4 14  1  0
  5  6  1  6
  5  7  1  0
  7  8  2  0
  9 10  1  0
 10 11  1  0
 11 12  1  0
 12 13  1  0
 13 14  1  0
M  END
