
     RDKit          3D

 17 19  0  0  0  0  0  0  0  0999 V2000
   -5.2590   -0.7510    0.0640 C   0  0  0  0  0  0  0  0  0  0  0  0
   -4.0520   -1.4230   -0.1820 C   0  0  0  0  0  0  0  0  0  0  0  0
   -2.8520   -0.7500   -0.1820 C   0  0  0  0  0  0  0  0  0  0  0  0
   -1.6790   -1.3850   -0.4160 O   0  0  0  0  0  0  0  0  0  0  0  0
   -0.4220   -0.8660   -0.4500 C   0  0  0  0  0  0  0  0  0  0  0  0
    0.0580   -0.4000   -1.6650 C   0  0  0  0  0  0  0  0  0  0  0  0
    1.3130    0.1420   -1.8110 C   0  0  0  0  0  0  0  0  0  0  0  0
    2.1460    0.2340   -0.7040 C   0  0  0  0  0  0  0  0  0  0  0  0
    1.7050   -0.2170    0.5180 C   0  0  0  0  0  0  0  0  0  0  0  0
    0.4320   -0.7590    0.6260 C   0  0  0  0  0  0  0  0  0  0  0  0
    2.5330   -0.1270    1.6200 O   0  0  0  0  0  0  0  0  0  0  0  0
    3.9290   -0.0110    1.4160 C   0  0  0  0  0  0  0  0  0  0  0  0
    4.2280    1.0420    0.3650 C   0  0  0  0  0  0  0  0  0  0  0  0
    3.4430    0.7890   -0.8280 N   0  0  0  0  0  0  0  0  0  0  0  0
   -2.8820    0.6010    0.0670 C   0  0  0  0  0  0  0  0  0  0  0  0
   -4.0920    1.2660    0.3110 C   0  0  0  0  0  0  0  0  0  0  0  0
   -5.2350    0.5620    0.3000 N   0  0  0  0  0  0  0  0  0  0  0  0
  1  2  2  0
  1 17  1  0
  2  3  1  0
  3  4  1  0
  3 15  2  0
  4  5  1  0
  5  6  2  0
  5 10  1  0
  6  7  1  0
  7  8  2  0
  8  9  1  0
  8 14  1  0
  9 10  2  0
  9 11  1  0
 11 12  1  0
 12 13  1  0
 13 14  1  0
 15 16  1  0
 16 17  2  0
M  END
