
     RDKit          3D

 28 32  0  0  0  0  0  0  0  0999 V2000
   -6.5540   -0.5400    0.3700 C   0  0  0  0  0  0  0  0  0  0  0  0
   -5.2510   -0.5310   -0.3800 C   0  0  2  0  0  0  0  0  0  0  0  0
   -4.8940   -1.9890   -0.6780 C   0  0  0  0  0  0  0  0  0  0  0  0
   -4.1900    0.0390    0.4060 N   0  0  2  0  0  0  0  0  0  0  0  0
   -4.3760    1.4430    0.6010 C   0  0  0  0  0  0  0  0  0  0  0  0
   -3.9950    1.9990   -0.7660 C   0  0  0  0  0  0  0  0  0  0  0  0
   -2.8540    1.0630   -1.1730 C   0  0  0  0  0  0  0  0  0  0  0  0
   -2.9250   -0.1050   -0.2390 C   0  0  1  0  0  0  0  0  0  0  0  0
   -1.8140   -0.1030    0.7690 C   0  0  0  0  0  0  0  0  0  0  0  0
   -2.1280    0.0350    2.0000 O   0  0  0  0  0  0  0  0  0  0  0  0
   -0.4590   -0.2470    0.3870 N   0  0  0  0  0  0  0  0  0  0  0  0
   -0.0790   -0.4070   -0.9970 C   0  0  0  0  0  0  0  0  0  0  0  0
    1.2350   -1.1890   -0.9640 C   0  0  0  0  0  0  0  0  0  0  0  0
    2.3230   -0.2280   -0.4350 C   0  0  2  0  0  0  0  0  0  0  0  0
    3.5380   -1.0040   -0.3660 N   0  0  0  0  0  0  0  0  0  0  0  0
    3.6310   -2.3700   -0.4210 C   0  0  0  0  0  0  0  0  0  0  0  0
    4.9100   -2.7520   -0.3280 N   0  0  0  0  0  0  0  0  0  0  0  0
    5.6470   -1.6090   -0.2110 C   0  0  0  0  0  0  0  0  0  0  0  0
    6.9930   -1.3770   -0.0840 C   0  0  0  0  0  0  0  0  0  0  0  0
    7.5240   -0.1530    0.0180 N   0  0  0  0  0  0  0  0  0  0  0  0
    6.7180    0.9200   -0.0020 C   0  0  0  0  0  0  0  0  0  0  0  0
    6.9560    2.2550    0.0800 N   0  0  0  0  0  0  0  0  0  0  0  0
    5.7980    2.9180    0.0100 C   0  0  0  0  0  0  0  0  0  0  0  0
    4.7610    1.9920   -0.1220 C   0  0  0  0  0  0  0  0  0  0  0  0
    5.3340    0.7430   -0.1300 C   0  0  0  0  0  0  0  0  0  0  0  0
    4.7800   -0.5280   -0.2360 C   0  0  0  0  0  0  0  0  0  0  0  0
    1.8750    0.3070    0.8980 C   0  0  0  0  0  0  0  0  0  0  0  0
    0.5640   -0.2380    1.3830 C   0  0  0  0  0  0  0  0  0  0  0  0
  2  1  1  1
  2  3  1  0
  2  4  1  0
  4  5  1  6
  4  8  1  0
  5  6  1  0
  6  7  1  0
  7  8  1  0
  8  9  1  1
  9 10  2  0
  9 11  1  0
 11 12  1  0
 11 28  1  0
 12 13  1  0
 13 14  1  0
 14 15  1  1
 14 27  1  0
 15 16  1  0
 15 26  1  0
 16 17  2  0
 17 18  1  0
 18 19  2  0
 18 26  1  0
 19 20  1  0
 20 21  2  0
 21 22  1  0
 21 25  1  0
 22 23  1  0
 23 24  2  0
 24 25  1  0
 25 26  2  0
 27 28  1  0
M  CHG  1   4   1
M  END
