
     RDKit          3D

 17 18  0  0  0  0  0  0  0  0999 V2000
    5.2070   -1.2420   -0.7890 C   0  0  0  0  0  0  0  0  0  0  0  0
    4.0280   -0.4710   -0.6130 O   0  0  0  0  0  0  0  0  0  0  0  0
    2.7830   -0.9770   -0.4210 C   0  0  0  0  0  0  0  0  0  0  0  0
    2.6240   -2.2200   -0.3920 O   0  0  0  0  0  0  0  0  0  0  0  0
    1.6050   -0.1390   -0.2460 C   0  0  0  0  0  0  0  0  0  0  0  0
    1.6390    1.1860   -0.2560 C   0  0  0  0  0  0  0  0  0  0  0  0
    2.9450    1.8510   -0.4580 C   0  0  0  0  0  0  0  0  0  0  0  0
    0.4630    1.9940   -0.0810 N   0  0  0  0  0  0  0  0  0  0  0  0
   -0.7880    1.3400    0.1120 C   0  0  0  0  0  0  0  0  0  0  0  0
   -1.9120    1.9790    0.2810 C   0  0  0  0  0  0  0  0  0  0  0  0
   -3.2190    1.3540    0.4820 C   0  0  0  0  0  0  0  0  0  0  0  0
   -3.1750   -0.1100    0.4820 C   0  0  0  0  0  0  0  0  0  0  0  0
   -4.4560   -0.9070    0.6800 C   0  0  0  0  0  0  0  0  0  0  0  0
   -2.0550   -0.7700    0.3140 C   0  0  0  0  0  0  0  0  0  0  0  0
   -2.1020   -2.2590    0.3270 C   0  0  0  0  0  0  0  0  0  0  0  0
   -0.7780   -0.1110    0.1170 C   0  0  0  0  0  0  0  0  0  0  0  0
    0.3200   -0.7520   -0.0480 N   0  0  0  0  0  0  0  0  0  0  0  0
  1  2  1  0
  2  3  1  0
  3  4  2  0
  3  5  1  0
  5  6  2  0
  5 17  1  0
  6  7  1  0
  6  8  1  0
  8  9  1  0
  9 10  2  0
  9 16  1  0
 10 11  1  0
 11 12  1  0
 12 13  1  0
 12 14  2  0
 14 15  1  0
 14 16  1  0
 16 17  2  0
M  END
