
     RDKit          3D

 18 19  0  0  0  0  0  0  0  0999 V2000
   -1.6220   -1.5630    0.1150 C   0  0  0  0  0  0  0  0  0  0  0  0
   -2.1620   -0.4000   -0.1120 C   0  0  0  0  0  0  0  0  0  0  0  0
   -3.5470   -0.2800   -0.4190 N   0  0  0  0  0  0  0  0  0  0  0  0
   -4.4330   -1.0870   -0.0690 N   0  0  0  0  0  0  0  0  0  0  0  0
   -1.3510    0.8670   -0.0880 C   0  0  0  0  0  0  0  0  0  0  0  0
   -1.8860    2.0700    0.2280 C   0  0  0  0  0  0  0  0  0  0  0  0
   -1.1030    3.1620    0.2160 C   0  0  0  0  0  0  0  0  0  0  0  0
   -1.4180    4.8300    0.5530 Cl  0  0  0  0  0  0  0  0  0  0  0  0
    0.5530    2.5290   -0.2740 S   0  0  0  0  0  0  0  0  0  0  0  0
   -0.0270    0.8040   -0.4110 C   0  0  0  0  0  0  0  0  0  0  0  0
    0.8390   -0.2760   -0.8260 C   0  0  0  0  0  0  0  0  0  0  0  0
    2.0520   -0.3570   -0.3330 C   0  0  0  0  0  0  0  0  0  0  0  0
    2.7310    0.4720    0.5980 N   0  0  0  0  0  0  0  0  0  0  0  0
    4.0550   -0.0370    0.8170 C   0  0  0  0  0  0  0  0  0  0  0  0
    4.9090    0.4650    1.5820 O   0  0  0  0  0  0  0  0  0  0  0  0
    4.2240   -1.1850    0.0320 N   0  0  0  0  0  0  0  0  0  0  0  0
    3.0150   -1.4050   -0.6830 C   0  0  0  0  0  0  0  0  0  0  0  0
    2.8210   -2.3570   -1.4860 O   0  0  0  0  0  0  0  0  0  0  0  0
  1  2  2  0
  2  3  1  0
  2  5  1  0
  3  4  2  0
  5  6  1  0
  5 10  2  0
  6  7  2  0
  7  8  1  0
  7  9  1  0
  9 10  1  0
 10 11  1  0
 11 12  2  3
 12 13  1  0
 12 17  1  0
 13 14  1  0
 14 15  2  0
 14 16  1  0
 16 17  1  0
 17 18  2  0
M  CHG  1   4   1
M  END
