
     RDKit          3D

 27 28  0  0  0  0  0  0  0  0999 V2000
    4.6850    2.5050   -0.7150 C   0  0  0  0  0  0  0  0  0  0  0  0
    5.2140    1.8780    0.5220 C   0  0  0  0  0  0  0  0  0  0  0  0
    5.2440    0.5780    0.6970 C   0  0  0  0  0  0  0  0  0  0  0  0
    4.7570   -0.3780   -0.3170 C   0  0  0  0  0  0  0  0  0  0  0  0
    3.6570   -1.2120    0.2090 N   0  0  0  0  0  0  0  0  0  0  0  0
    3.9510   -2.4380    0.8530 C   0  0  0  0  0  0  0  0  0  0  0  0
    4.9580   -3.1650    0.7970 O   0  0  0  0  0  0  0  0  0  0  0  0
    2.4530   -2.7390    1.8370 S   0  0  0  0  0  0  0  0  0  0  0  0
    1.3720   -1.8130    0.6830 C   0  0  0  0  0  0  0  0  0  0  0  0
    0.1000   -2.0320    0.5060 C   0  0  0  0  0  0  0  0  0  0  0  0
   -0.6670   -1.2400   -0.4370 C   0  0  0  0  0  0  0  0  0  0  0  0
   -1.9830   -1.4780   -0.6080 C   0  0  0  0  0  0  0  0  0  0  0  0
   -2.7850   -0.6840   -1.5620 C   0  0  2  0  0  0  0  0  0  0  0  0
   -4.0660   -1.4080   -1.9220 C   0  0  0  0  0  0  0  0  0  0  0  0
   -1.9560   -0.6340   -2.8540 C   0  0  0  0  0  0  0  0  0  0  0  0
   -3.0180    0.7070   -1.0970 C   0  0  2  0  0  0  0  0  0  0  0  0
   -1.7650    1.4380   -0.8890 N   0  0  0  0  0  0  0  0  0  0  0  0
   -3.9400    0.8400    0.0610 C   0  0  0  0  0  0  0  0  0  0  0  0
   -5.1140    1.4580    0.0570 C   0  0  0  0  0  0  0  0  0  0  0  0
   -5.7420    1.3920    1.3590 C   0  0  0  0  0  0  0  0  0  0  0  0
   -4.8380    0.6450    2.1910 N   0  0  0  0  0  0  0  0  0  0  0  0
   -3.7160    0.3050    1.3960 C   0  0  0  0  0  0  0  0  0  0  0  0
   -2.7440   -0.3490    1.8600 O   0  0  0  0  0  0  0  0  0  0  0  0
    2.3150   -0.8720    0.1130 C   0  0  0  0  0  0  0  0  0  0  0  0
    1.9080    0.2140   -0.4470 O   0  0  0  0  0  0  0  0  0  0  0  0
    5.7690    0.0230    1.9190 N   0  0  0  0  0  0  0  0  0  0  0  0
    6.9450    1.1340    2.5450 Cl  0  0  0  0  0  0  0  0  0  0  0  0
  1  2  1  0
  2  3  2  3
  3  4  1  0
  3 26  1  0
  4  5  1  0
  5  6  1  0
  5 24  1  0
  6  7  2  0
  6  8  1  0
  8  9  1  0
  9 10  2  3
  9 24  1  0
 10 11  1  0
 11 12  2  3
 12 13  1  0
 13 14  1  6
 13 15  1  0
 13 16  1  0
 16 17  1  1
 16 18  1  0
 18 19  2  0
 18 22  1  0
 19 20  1  0
 20 21  1  0
 21 22  1  0
 22 23  2  0
 24 25  2  0
 26 27  1  0
M  CHG  1  26   1
M  END
