
     RDKit          3D

 27 27  0  0  0  0  0  0  0  0999 V2000
   -4.1450   -2.1110   -2.4910 C   0  0  0  0  0  0  0  0  0  0  0  0
   -4.7380   -1.6800   -1.4070 C   0  0  0  0  0  0  0  0  0  0  0  0
   -4.5040   -0.4330   -0.7190 C   0  0  0  0  0  0  0  0  0  0  0  0
   -5.2550   -0.2670    0.3570 C   0  0  0  0  0  0  0  0  0  0  0  0
   -5.3180    0.8450    1.3130 C   0  0  0  0  0  0  0  0  0  0  0  0
   -4.8800    2.0640    1.0600 C   0  0  0  0  0  0  0  0  0  0  0  0
   -4.2620    2.6010   -0.1420 C   0  0  0  0  0  0  0  0  0  0  0  0
   -3.7000    1.8930   -1.1010 C   0  0  0  0  0  0  0  0  0  0  0  0
   -3.0260    2.8680   -2.4550 S   0  0  0  0  0  0  0  0  0  0  0  0
   -3.3820    4.8950   -2.0440 Cl  0  0  0  0  0  0  0  0  0  0  0  0
   -3.4910    0.4310   -1.3110 C   0  0  1  0  0  0  0  0  0  0  0  0
   -2.1580    0.1960   -0.7100 N   0  0  0  0  0  0  0  0  0  0  0  0
   -0.9970   -0.0050   -1.4580 C   0  0  0  0  0  0  0  0  0  0  0  0
   -1.2400    0.0430   -2.7470 O   0  0  0  0  0  0  0  0  0  0  0  0
    0.3510   -0.2420   -1.0910 C   0  0  0  0  0  0  0  0  0  0  0  0
    1.0360   -0.3580   -0.0100 C   0  0  0  0  0  0  0  0  0  0  0  0
    0.5650   -0.2650    1.3650 C   0  0  0  0  0  0  0  0  0  0  0  0
    0.7650   -1.5750    2.1330 C   0  0  0  0  0  0  0  0  0  0  0  0
    0.0380   -2.6540    1.4910 N   0  0  0  0  0  0  0  0  0  0  0  0
    2.4760   -0.6260   -0.2190 N   0  0  0  0  0  0  0  0  0  0  0  0
    3.4680    0.2590    0.2400 C   0  0  0  0  0  0  0  0  0  0  0  0
    3.1430    1.3110    0.8450 O   0  0  0  0  0  0  0  0  0  0  0  0
    4.8930   -0.1010   -0.0180 C   0  0  0  0  0  0  0  0  0  0  0  0
    5.8360    0.9420    0.5320 C   0  0  0  0  0  0  0  0  0  0  0  0
    7.2200    0.4920    0.2250 C   0  0  0  0  0  0  0  0  0  0  0  0
    8.3410    1.2640    0.6150 N   0  0  0  0  0  0  0  0  0  0  0  0
    7.4610   -0.5930   -0.3940 O   0  0  0  0  0  0  0  0  0  0  0  0
  1  2  2  0
  2  3  1  0
  3  4  2  0
  3 11  1  0
  4  5  1  0
  5  6  2  0
  6  7  1  0
  7  8  2  0
  8  9  1  0
  8 11  1  0
  9 10  1  0
 11 12  1  1
 12 13  1  0
 13 14  2  0
 13 15  1  0
 15 16  2  3
 16 17  1  0
 16 20  1  0
 17 18  1  0
 18 19  1  0
 20 21  1  0
 21 22  2  0
 21 23  1  0
 23 24  1  0
 24 25  1  0
 25 26  1  0
 25 27  2  0
M  CHG  1  19   1
M  END
