
     RDKit          3D

 27 27  0  0  0  0  0  0  0  0999 V2000
   -0.7830   -0.2450   -0.7150 C   0  0  0  0  0  0  0  0  0  0  0  0
   -1.3280    0.5300    0.4490 C   0  0  1  0  0  0  0  0  0  0  0  0
   -1.6140    1.9510    0.0890 C   0  0  0  0  0  0  0  0  0  0  0  0
   -0.3740    2.6570   -0.3730 C   0  0  0  0  0  0  0  0  0  0  0  0
    0.2160    2.0990   -1.4810 O   0  0  0  0  0  0  0  0  0  0  0  0
   -2.4930   -0.1370    0.9940 N   0  0  0  0  0  0  0  0  0  0  0  0
   -3.6320   -0.3500    0.1480 C   0  0  0  0  0  0  0  0  0  0  0  0
   -3.5870    0.0480   -1.0450 O   0  0  0  0  0  0  0  0  0  0  0  0
   -4.7590   -1.0040    0.7030 N   0  0  0  0  0  0  0  0  0  0  0  0
   -5.9190   -1.2370   -0.1100 C   0  0  0  0  0  0  0  0  0  0  0  0
   -6.5070    0.0560   -0.6280 C   0  0  0  0  0  0  0  0  0  0  0  0
   -6.8710    0.8460    0.5420 N   0  0  0  0  0  0  0  0  0  0  0  0
   -0.0790    0.5770    1.7940 S   0  0  0  0  0  0  0  0  0  0  0  0
    0.1270   -1.0600    2.3990 C   0  0  0  0  0  0  0  0  0  0  0  0
    1.1570   -1.7950    2.1740 C   0  0  0  0  0  0  0  0  0  0  0  0
    2.3250   -1.4960    1.4260 C   0  0  0  0  0  0  0  0  0  0  0  0
    3.2190   -2.4340    1.3580 O   0  0  0  0  0  0  0  0  0  0  0  0
    2.6610   -0.3140    0.7370 N   0  0  0  0  0  0  0  0  0  0  0  0
    3.9150   -0.2570    0.0460 C   0  0  0  0  0  0  0  0  0  0  0  0
    4.7350    0.7020    0.4630 C   0  0  0  0  0  0  0  0  0  0  0  0
    6.0760    1.1590    0.0970 C   0  0  0  0  0  0  0  0  0  0  0  0
    7.0800    0.7470   -0.6570 C   0  0  0  0  0  0  0  0  0  0  0  0
    7.2750   -0.4340   -1.5060 C   0  0  0  0  0  0  0  0  0  0  0  0
    6.4790   -1.3920   -1.9370 C   0  0  0  0  0  0  0  0  0  0  0  0
    5.0710   -1.7090   -1.7690 C   0  0  0  0  0  0  0  0  0  0  0  0
    4.5070   -2.9840   -2.8270 Cl  0  0  0  0  0  0  0  0  0  0  0  0
    4.0620   -1.2680   -0.9940 C   0  0  0  0  0  0  0  0  0  0  0  0
  2  1  1  6
  2  3  1  0
  2  6  1  0
  2 13  1  0
  3  4  1  0
  4  5  1  0
  6  7  1  0
  7  8  2  0
  7  9  1  0
  9 10  1  0
 10 11  1  0
 11 12  1  0
 13 14  1  0
 14 15  2  3
 15 16  1  0
 16 17  2  0
 16 18  1  0
 18 19  1  0
 19 20  2  0
 19 27  1  0
 20 21  1  0
 21 22  2  0
 22 23  1  0
 23 24  2  0
 24 25  1  0
 25 26  1  0
 25 27  2  0
M  CHG  1  12   1
M  END
