
     RDKit          3D

 11 11  0  0  0  0  0  0  0  0999 V2000
   -2.2220   -0.7470    0.2480 C   0  0  0  0  0  0  0  0  0  0  0  0
   -1.3770    0.4660   -0.0680 C   0  0  1  0  0  0  0  0  0  0  0  0
   -2.2140    1.5490   -0.3290 O   0  0  0  0  0  0  0  0  0  0  0  0
   -0.4410    0.7420    1.0890 C   0  0  0  0  0  0  0  0  0  0  0  0
    0.8810    0.5770    0.6480 O   0  0  0  0  0  0  0  0  0  0  0  0
    1.0640   -0.6960    0.1590 C   0  0  2  0  0  0  0  0  0  0  0  0
    2.4960   -0.8100   -0.3470 C   0  0  0  0  0  0  0  0  0  0  0  0
    3.3650   -0.5700    0.6950 O   0  0  0  0  0  0  0  0  0  0  0  0
    0.2370   -0.9910   -0.9250 O   0  0  0  0  0  0  0  0  0  0  0  0
   -0.4660    0.1710   -1.2680 C   0  0  2  0  0  0  0  0  0  0  0  0
    0.4710    1.1870   -1.3940 O   0  0  0  0  0  0  0  0  0  0  0  0
  2  1  1  1
  2  3  1  0
  2  4  1  0
  2 10  1  0
  4  5  1  0
  5  6  1  0
  6  7  1  6
  6  9  1  0
  7  8  1  0
  9 10  1  0
 10 11  1  1
M  END
