
     RDKit          3D

 11 11  0  0  0  0  0  0  0  0999 V2000
    2.2090    1.3530   -0.0520 O   0  0  0  0  0  0  0  0  0  0  0  0
    2.4530   -0.0280   -0.2330 C   0  0  0  0  0  0  0  0  0  0  0  0
    1.2840   -0.7300    0.4670 C   0  0  2  0  0  0  0  0  0  0  0  0
    1.4060   -2.0950    0.3610 O   0  0  0  0  0  0  0  0  0  0  0  0
    0.0260   -0.2030   -0.2320 C   0  0  2  0  0  0  0  0  0  0  0  0
    0.0100    1.1540   -0.0620 O   0  0  0  0  0  0  0  0  0  0  0  0
   -1.2120    1.7550   -0.2860 C   0  0  0  0  0  0  0  0  0  0  0  0
   -2.2560    1.1420    0.4170 O   0  0  0  0  0  0  0  0  0  0  0  0
   -2.4050   -0.1420   -0.1160 C   0  0  0  0  0  0  0  0  0  0  0  0
   -1.1660   -0.9230    0.3130 C   0  0  2  0  0  0  0  0  0  0  0  0
   -1.1240   -1.0890    1.6820 O   0  0  0  0  0  0  0  0  0  0  0  0
  1  2  1  0
  2  3  1  0
  3  4  1  6
  3  5  1  0
  5  6  1  1
  5 10  1  0
  6  7  1  0
  7  8  1  0
  8  9  1  0
  9 10  1  0
 10 11  1  1
M  END
