
     RDKit          3D

 11 11  0  0  0  0  0  0  0  0999 V2000
   -2.3580   -0.5490    0.1590 O   0  0  0  0  0  0  0  0  0  0  0  0
   -1.6260    0.3100    0.9670 C   0  0  0  0  0  0  0  0  0  0  0  0
   -0.2380    0.5730    0.4450 C   0  0  2  0  0  0  0  0  0  0  0  0
   -0.2490    1.2000   -0.9220 C   0  0  1  0  0  0  0  0  0  0  0  0
   -0.0700    2.5580   -0.9150 O   0  0  0  0  0  0  0  0  0  0  0  0
    0.8040    0.5810   -1.6100 O   0  0  0  0  0  0  0  0  0  0  0  0
    0.5400   -0.7730   -1.3120 C   0  0  2  0  0  0  0  0  0  0  0  0
   -0.7090   -1.0570   -1.8500 O   0  0  0  0  0  0  0  0  0  0  0  0
    0.4810   -0.7270    0.1990 C   0  0  1  0  0  0  0  0  0  0  0  0
    1.8980   -0.5620    0.7010 C   0  0  0  0  0  0  0  0  0  0  0  0
    1.8880   -0.2660    2.0610 O   0  0  0  0  0  0  0  0  0  0  0  0
  1  2  1  0
  3  2  1  6
  3  4  1  0
  3  9  1  0
  4  5  1  1
  4  6  1  0
  6  7  1  0
  7  8  1  6
  7  9  1  0
  9 10  1  1
 10 11  1  0
M  END
