
     RDKit          3D

 12 12  0  0  0  0  0  0  0  0999 V2000
    2.5420   -0.7920    0.0890 O   0  0  0  0  0  0  0  0  0  0  0  0
    1.8400    0.3030   -0.4290 C   0  0  0  0  0  0  0  0  0  0  0  0
    0.5990    0.5390    0.4320 C   0  0  1  0  0  0  0  0  0  0  0  0
    1.0140    0.8030    1.7530 O   0  0  0  0  0  0  0  0  0  0  0  0
   -0.1700    1.7230   -0.0450 C   0  0  0  0  0  0  0  0  0  0  0  0
   -0.9920    1.4740   -1.1250 O   0  0  0  0  0  0  0  0  0  0  0  0
   -1.9030    0.4740   -0.7880 C   0  0  0  0  0  0  0  0  0  0  0  0
   -1.0910   -0.8270   -0.7590 C   0  0  2  0  0  0  0  0  0  0  0  0
   -1.9030   -1.9400   -0.6880 O   0  0  0  0  0  0  0  0  0  0  0  0
   -0.2230   -0.7240    0.4900 C   0  0  2  0  0  0  0  0  0  0  0  0
   -1.1100   -0.5780    1.5720 O   0  0  0  0  0  0  0  0  0  0  0  0
    0.5670   -1.8320    0.6650 O   0  0  0  0  0  0  0  0  0  0  0  0
  1  2  1  0
  2  3  1  0
  3  4  1  1
  3  5  1  0
  3 10  1  0
  5  6  1  0
  6  7  1  0
  7  8  1  0
  8  9  1  1
  8 10  1  0
 10 11  1  1
 10 12  1  0
M  END
