
     RDKit          3D

 12 12  0  0  0  0  0  0  0  0999 V2000
    1.5060   -1.4620    0.4030 C   0  0  0  0  0  0  0  0  0  0  0  0
    0.6750   -0.3100   -0.1230 C   0  0  2  0  0  0  0  0  0  0  0  0
    1.4320    0.3260   -1.2070 C   0  0  0  0  0  0  0  0  0  0  0  0
    1.7520   -0.3680   -2.2090 O   0  0  0  0  0  0  0  0  0  0  0  0
    1.7970    1.6450   -1.1590 O   0  0  0  0  0  0  0  0  0  0  0  0
    0.4310    0.6380    0.8660 O   0  0  0  0  0  0  0  0  0  0  0  0
   -0.7020    1.2740    0.3660 C   0  0  2  0  0  0  0  0  0  0  0  0
   -1.2500    2.1680    1.2740 O   0  0  0  0  0  0  0  0  0  0  0  0
   -1.6240    0.0780    0.1370 C   0  0  2  0  0  0  0  0  0  0  0  0
   -2.0410   -0.4030    1.3620 O   0  0  0  0  0  0  0  0  0  0  0  0
   -0.6600   -0.8630   -0.5620 C   0  0  2  0  0  0  0  0  0  0  0  0
   -0.8550   -2.1320   -0.0170 O   0  0  0  0  0  0  0  0  0  0  0  0
  2  1  1  1
  2  3  1  0
  2  6  1  0
  2 11  1  0
  3  4  2  0
  3  5  1  0
  6  7  1  0
  7  8  1  1
  7  9  1  0
  9 10  1  1
  9 11  1  0
 11 12  1  1
M  END
