
     RDKit          3D

 14 14  0  0  0  0  0  0  0  0999 V2000
    3.9370    1.5180   -0.7310 C   0  0  0  0  0  0  0  0  0  0  0  0
    4.2780    0.1880   -0.0970 C   0  0  0  0  0  0  0  0  0  0  0  0
    3.1680   -0.6720   -0.3470 O   0  0  0  0  0  0  0  0  0  0  0  0
    1.9220   -0.3420    0.1240 C   0  0  0  0  0  0  0  0  0  0  0  0
    1.7890    0.7170    0.7690 O   0  0  0  0  0  0  0  0  0  0  0  0
    0.7590   -1.1350   -0.0770 N   0  0  0  0  0  0  0  0  0  0  0  0
   -0.5200   -0.7720    0.4200 C   0  0  2  0  0  0  0  0  0  0  0  0
   -1.1260   -1.7470    1.3860 C   0  0  0  0  0  0  0  0  0  0  0  0
   -2.8680   -1.1530    1.4140 S   0  0  0  0  0  0  0  0  0  0  0  0
   -2.7800   -0.0570   -0.0590 C   0  0  2  0  0  0  0  0  0  0  0  0
   -2.7250    1.3560    0.4110 C   0  0  0  0  0  0  0  0  0  0  0  0
   -3.9570   -0.2490   -0.9280 C   0  0  0  0  0  0  0  0  0  0  0  0
   -4.9810    0.3540   -0.6260 O   0  0  0  0  0  0  0  0  0  0  0  0
   -1.5110   -0.5480   -0.6950 C   0  0  0  0  0  0  0  0  0  0  0  0
  1  2  1  0
  2  3  1  0
  3  4  1  0
  4  5  2  0
  4  6  1  0
  7  6  1  6
  7  8  1  0
  7 14  1  0
  8  9  1  0
  9 10  1  0
 10 11  1  1
 10 12  1  0
 10 14  1  0
 12 13  2  0
M  END
