
     RDKit          3D

 14 14  0  0  0  0  0  0  0  0999 V2000
    4.8110    0.0840    0.3410 C   0  0  0  0  0  0  0  0  0  0  0  0
    3.5650   -0.0350   -0.3170 O   0  0  0  0  0  0  0  0  0  0  0  0
    2.3870    0.2110    0.3660 C   0  0  0  0  0  0  0  0  0  0  0  0
    2.5090    0.5430    1.5940 O   0  0  0  0  0  0  0  0  0  0  0  0
    1.0500    0.1010   -0.2730 C   0  0  1  0  0  0  0  0  0  0  0  0
    0.9040   -1.3470   -0.7320 C   0  0  0  0  0  0  0  0  0  0  0  0
   -0.0080    0.4090    0.6550 N   0  0  0  0  0  0  0  0  0  0  0  0
   -1.4130    0.3780    0.2910 C   0  0  0  0  0  0  0  0  0  0  0  0
   -2.2350   -0.6040    0.6200 C   0  0  0  0  0  0  0  0  0  0  0  0
   -1.8960   -1.8090    1.3860 C   0  0  0  0  0  0  0  0  0  0  0  0
   -3.8660   -0.2020   -0.0090 S   0  0  0  0  0  0  0  0  0  0  0  0
   -3.4910    1.6110   -0.1150 C   0  0  0  0  0  0  0  0  0  0  0  0
   -2.0440    1.4470   -0.5090 C   0  0  2  0  0  0  0  0  0  0  0  0
   -2.0500    1.1360   -1.8760 O   0  0  0  0  0  0  0  0  0  0  0  0
  1  2  1  0
  2  3  1  0
  3  4  2  0
  3  5  1  0
  5  6  1  1
  5  7  1  0
  7  8  1  0
  8  9  2  0
  8 13  1  0
  9 10  1  0
  9 11  1  0
 11 12  1  0
 12 13  1  0
 13 14  1  6
M  END
