
     RDKit          3D

 14 14  0  0  0  0  0  0  0  0999 V2000
    3.5840    0.3610    1.3540 C   0  0  0  0  0  0  0  0  0  0  0  0
    2.4160    0.8760    0.6720 O   0  0  0  0  0  0  0  0  0  0  0  0
    1.3520    0.0030    0.4940 C   0  0  0  0  0  0  0  0  0  0  0  0
    1.4430   -1.1270    1.0320 O   0  0  0  0  0  0  0  0  0  0  0  0
    0.1530    0.3010   -0.3270 C   0  0  1  0  0  0  0  0  0  0  0  0
    0.6280    1.1580   -1.4380 N   0  0  0  0  0  0  0  0  0  0  0  0
    0.4730    2.5540   -1.3370 C   0  0  0  0  0  0  0  0  0  0  0  0
   -0.0590    3.1430   -0.4260 O   0  0  0  0  0  0  0  0  0  0  0  0
   -0.0050   -1.0710   -1.0760 C   0  0  0  0  0  0  0  0  0  0  0  0
   -1.4180   -1.4460   -1.2680 C   0  0  0  0  0  0  0  0  0  0  0  0
   -2.1090   -1.6070    0.0690 C   0  0  0  0  0  0  0  0  0  0  0  0
   -1.7180   -0.5170    1.0290 C   0  0  2  0  0  0  0  0  0  0  0  0
   -3.1730    0.1420    1.9020 S   0  0  0  0  0  0  0  0  0  0  0  0
   -1.1220    0.6390    0.2420 C   0  0  0  0  0  0  0  0  0  0  0  0
  1  2  1  0
  2  3  1  0
  3  4  2  0
  3  5  1  0
  5  6  1  6
  5  9  1  0
  5 14  1  0
  6  7  1  0
  7  8  2  0
  9 10  1  0
 10 11  1  0
 11 12  1  0
 12 13  1  6
 12 14  1  0
M  END
