
     RDKit          3D

 14 14  0  0  0  0  0  0  0  0999 V2000
   -4.0480   -0.5300   -0.4270 C   0  0  0  0  0  0  0  0  0  0  0  0
   -2.7880    0.2980   -0.5500 C   0  0  2  0  0  0  0  0  0  0  0  0
   -1.5530   -0.6030   -0.6430 C   0  0  0  0  0  0  0  0  0  0  0  0
   -0.5550    0.0940    0.1660 N   0  0  0  0  0  0  0  0  0  0  0  0
    0.7620   -0.4350    0.0020 C   0  0  2  0  0  0  0  0  0  0  0  0
    0.8430   -1.9050    0.3850 C   0  0  0  0  0  0  0  0  0  0  0  0
    1.6730    0.2790    0.9810 C   0  0  0  0  0  0  0  0  0  0  0  0
    3.3440   -0.3280    0.8510 S   0  0  2  0  0  0  0  0  0  0  0  0
    3.9340   -0.0480   -0.7990 C   0  0  0  0  0  0  0  0  0  0  0  0
    3.4290   -1.7810    1.1820 O   0  0  0  0  0  0  0  0  0  0  0  0
    4.1680    0.4540    1.8350 O   0  0  0  0  0  0  0  0  0  0  0  0
   -0.6290    1.4680   -0.3170 C   0  0  0  0  0  0  0  0  0  0  0  0
   -1.7630    2.1000    0.5050 C   0  0  0  0  0  0  0  0  0  0  0  0
   -2.7450    1.1090    0.5910 O   0  0  0  0  0  0  0  0  0  0  0  0
  2  1  1  1
  2  3  1  0
  2 14  1  0
  3  4  1  0
  4  5  1  0
  4 12  1  0
  5  6  1  1
  5  7  1  0
  7  8  1  0
  8  9  1  6
  8 10  2  0
  8 11  2  0
 12 13  1  0
 13 14  1  0
M  END
