
     RDKit          3D

  5  4  0  0  0  0  0  0  0  0999 V2000
   -1.5420    1.4470    0.1350 Cl  0  0  0  0  0  0  0  0  0  0  0  0
   -1.1190   -0.2470   -0.2230 C   0  0  0  0  0  0  0  0  0  0  0  0
   -0.0700   -0.6820    0.5680 O   0  0  0  0  0  0  0  0  0  0  0  0
    1.0850    0.0540    0.3980 C   0  0  0  0  0  0  0  0  0  0  0  0
    1.6780   -0.0070   -1.2890 Cl  0  0  0  0  0  0  0  0  0  0  0  0
  1  2  1  0
  2  3  1  0
  3  4  1  0
  4  5  1  0
M  END
