
     RDKit          3D

 13 13  0  0  0  0  0  0  0  0999 V2000
   -3.3660    1.6560   -0.3850 C   0  0  0  0  0  0  0  0  0  0  0  0
   -3.3040    0.2530   -0.2660 O   0  0  0  0  0  0  0  0  0  0  0  0
   -2.0930   -0.3990   -0.0740 C   0  0  0  0  0  0  0  0  0  0  0  0
   -0.9140    0.3100    0.0050 C   0  0  0  0  0  0  0  0  0  0  0  0
    0.3150   -0.3030    0.1960 C   0  0  0  0  0  0  0  0  0  0  0  0
    1.5360    0.5040    0.2720 C   0  0  0  0  0  0  0  0  0  0  0  0
    2.7420    0.0280    0.4490 C   0  0  0  0  0  0  0  0  0  0  0  0
    3.9370    0.9450    0.5130 C   0  0  0  0  0  0  0  0  0  0  0  0
    4.5200    0.7530    1.7600 O   0  0  0  0  0  0  0  0  0  0  0  0
    0.3230   -1.6730    0.3070 C   0  0  0  0  0  0  0  0  0  0  0  0
   -0.8770   -2.3900    0.2260 C   0  0  0  0  0  0  0  0  0  0  0  0
   -2.0960   -1.7750    0.0360 C   0  0  0  0  0  0  0  0  0  0  0  0
   -3.2740   -2.5170   -0.0400 O   0  0  0  0  0  0  0  0  0  0  0  0
  1  2  1  0
  2  3  1  0
  3  4  2  0
  3 12  1  0
  4  5  1  0
  5  6  1  0
  5 10  2  0
  6  7  2  3
  7  8  1  0
  8  9  1  0
 10 11  1  0
 11 12  2  0
 12 13  1  0
M  END
