
     RDKit          3D

 40 43  0  0  0  0  0  0  0  0999 V2000
   -7.3470   -3.1460    0.8940 C   0  0  0  0  0  0  0  0  0  0  0  0
   -7.2260   -2.5980   -0.5670 C   0  0  0  0  0  0  0  0  0  0  0  0
   -6.9750   -1.1680   -0.4620 C   0  0  0  0  0  0  0  0  0  0  0  0
   -5.8020   -0.6300   -0.7230 C   0  0  0  0  0  0  0  0  0  0  0  0
   -4.7450   -1.6000   -1.1430 C   0  0  0  0  0  0  0  0  0  0  0  0
   -3.5080   -1.4000   -0.6810 C   0  0  0  0  0  0  0  0  0  0  0  0
   -3.3050   -0.2240    0.1610 C   0  0  0  0  0  0  0  0  0  0  0  0
   -2.0170    0.0430    0.7550 N   0  0  0  0  0  0  0  0  0  0  0  0
   -1.3500   -0.8930    1.5600 C   0  0  0  0  0  0  0  0  0  0  0  0
    0.1780   -0.7510    1.5860 C   0  0  0  0  0  0  0  0  0  0  0  0
    0.7740   -1.1670    0.3330 C   0  0  2  0  0  0  0  0  0  0  0  0
    2.1920   -1.0900    0.2010 N   0  0  0  0  0  0  0  0  0  0  0  0
    3.3060   -1.9100    0.2560 C   0  0  0  0  0  0  0  0  0  0  0  0
    3.1660   -3.1040    0.5340 O   0  0  0  0  0  0  0  0  0  0  0  0
    4.6250   -1.3090   -0.0360 C   0  0  0  0  0  0  0  0  0  0  0  0
    4.6170   -0.0570   -0.3100 O   0  0  0  0  0  0  0  0  0  0  0  0
    5.8820   -1.9600   -0.0680 N   0  0  0  0  0  0  0  0  0  0  0  0
    6.9840   -1.1380   -0.4620 C   0  0  2  0  0  0  0  0  0  0  0  0
    7.9180   -1.6510   -1.5240 C   0  0  0  0  0  0  0  0  0  0  0  0
    8.1200   -0.4670   -2.4850 C   0  0  0  0  0  0  0  0  0  0  0  0
    8.1640    1.0710   -1.5920 S   0  0  1  0  0  0  0  0  0  0  0  0
    9.2730    1.9560   -2.1220 O   0  0  0  0  0  0  0  0  0  0  0  0
    6.8810    1.8780   -1.8140 O   0  0  0  0  0  0  0  0  0  0  0  0
    8.3910    0.7350    0.1110 C   0  0  0  0  0  0  0  0  0  0  0  0
    9.1270    1.5110    0.9600 C   0  0  0  0  0  0  0  0  0  0  0  0
    9.2580    1.1280    2.2910 C   0  0  0  0  0  0  0  0  0  0  0  0
    8.6560   -0.0150    2.7550 C   0  0  0  0  0  0  0  0  0  0  0  0
    7.8990   -0.8050    1.8780 C   0  0  0  0  0  0  0  0  0  0  0  0
    7.7620   -0.4430    0.5700 C   0  0  0  0  0  0  0  0  0  0  0  0
    0.3300   -0.3850   -0.8750 C   0  0  0  0  0  0  0  0  0  0  0  0
    0.1920   -0.9230   -1.9970 O   0  0  0  0  0  0  0  0  0  0  0  0
    0.1340    0.9760   -0.7040 O   0  0  0  0  0  0  0  0  0  0  0  0
   -0.1920    1.8710   -1.7250 C   0  0  0  0  0  0  0  0  0  0  0  0
   -4.2120    0.6680    0.4630 C   0  0  0  0  0  0  0  0  0  0  0  0
   -4.3960    1.9000    1.2510 C   0  0  0  0  0  0  0  0  0  0  0  0
   -5.0440    2.8340    0.2630 C   0  0  0  0  0  0  0  0  0  0  0  0
   -6.1340    1.9070   -0.3510 C   0  0  2  0  0  0  0  0  0  0  0  0
   -7.3220    2.0950    0.4670 C   0  0  0  0  0  0  0  0  0  0  0  0
   -7.6620    3.6010    0.3910 C   0  0  0  0  0  0  0  0  0  0  0  0
   -5.3870    0.7100   -0.5570 C   0  0  2  0  0  0  0  0  0  0  0  0
  1  2  1  0
  2  3  1  0
  3  4  2  3
  4  5  1  0
 40  4  1  1
  5  6  2  0
  6  7  1  0
  7  8  1  0
  7 34  2  0
  8  9  1  0
  9 10  1  0
 11 10  1  1
 11 12  1  0
 11 30  1  0
 12 13  1  0
 13 14  2  0
 13 15  1  0
 15 16  2  0
 15 17  1  0
 18 17  1  1
 18 19  1  0
 18 29  1  0
 19 20  1  0
 21 20  1  6
 21 22  2  0
 21 23  2  0
 21 24  1  0
 24 25  2  0
 24 29  1  0
 25 26  1  0
 26 27  2  0
 27 28  1  0
 28 29  2  0
 30 31  2  0
 30 32  1  0
 32 33  1  0
 34 35  1  0
 34 40  1  0
 35 36  1  0
 36 37  1  0
 37 38  1  1
 37 40  1  0
 38 39  1  0
M  END
