
     RDKit          3D

 40 43  0  0  0  0  0  0  0  0999 V2000
    9.1180    0.7620   -2.1960 C   0  0  0  0  0  0  0  0  0  0  0  0
    8.2700    0.7250   -0.9640 C   0  0  0  0  0  0  0  0  0  0  0  0
    7.1510    1.6140   -1.0820 O   0  0  0  0  0  0  0  0  0  0  0  0
    6.2030    1.3690   -2.0620 C   0  0  0  0  0  0  0  0  0  0  0  0
    6.2200    0.2950   -2.9750 C   0  0  0  0  0  0  0  0  0  0  0  0
    5.1420    0.4200   -3.7300 O   0  0  0  0  0  0  0  0  0  0  0  0
    4.4370    1.4610   -3.3920 C   0  0  0  0  0  0  0  0  0  0  0  0
    3.1770    1.8040   -4.0800 C   0  0  0  0  0  0  0  0  0  0  0  0
    2.0480    1.2560   -3.5650 C   0  0  0  0  0  0  0  0  0  0  0  0
    2.1370    0.3950   -2.4100 C   0  0  0  0  0  0  0  0  0  0  0  0
    1.0370   -0.2330   -1.8690 C   0  0  0  0  0  0  0  0  0  0  0  0
    1.3250   -1.0420   -0.7300 C   0  0  0  0  0  0  0  0  0  0  0  0
    2.7790   -0.7260   -0.1040 C   0  0  0  0  0  0  0  0  0  0  0  0
    0.7410   -1.9050    0.0060 C   0  0  0  0  0  0  0  0  0  0  0  0
   -0.4230   -2.6140    0.2170 C   0  0  0  0  0  0  0  0  0  0  0  0
   -0.4130   -3.5790    1.4580 C   0  0  0  0  0  0  0  0  0  0  0  0
   -1.5210   -2.6890   -0.3560 O   0  0  0  0  0  0  0  0  0  0  0  0
   -0.2220    0.0110   -2.4700 C   0  0  0  0  0  0  0  0  0  0  0  0
   -1.4680   -0.3290   -1.9300 N   0  0  0  0  0  0  0  0  0  0  0  0
   -1.9020    0.2320   -0.6730 C   0  0  0  0  0  0  0  0  0  0  0  0
   -1.0550    1.0160   -0.1110 O   0  0  0  0  0  0  0  0  0  0  0  0
   -3.1140    0.0000   -0.0620 N   0  0  0  0  0  0  0  0  0  0  0  0
   -4.1290   -0.8490   -0.6350 C   0  0  0  0  0  0  0  0  0  0  0  0
   -5.4690   -0.1240   -0.6760 C   0  0  0  0  0  0  0  0  0  0  0  0
   -5.3270    1.3360   -0.3540 C   0  0  0  0  0  0  0  0  0  0  0  0
   -4.4880    1.6650    0.8280 C   0  0  0  0  0  0  0  0  0  0  0  0
   -3.4550    0.6260    1.1910 C   0  0  1  0  0  0  0  0  0  0  0  0
   -3.9070   -0.3210    2.2500 C   0  0  2  0  0  0  0  0  0  0  0  0
   -4.2960    0.3260    3.5350 C   0  0  0  0  0  0  0  0  0  0  0  0
   -5.5570   -0.2490    4.0100 N   0  0  0  0  0  0  0  0  0  0  0  0
   -5.4560   -1.6850    4.1760 C   0  0  0  0  0  0  0  0  0  0  0  0
   -4.2740   -1.9300    5.0790 C   0  0  0  0  0  0  0  0  0  0  0  0
   -2.6980   -1.7830    4.2470 S   0  0  0  0  0  0  0  0  0  0  0  0
   -2.8310   -1.3490    2.4920 C   0  0  0  0  0  0  0  0  0  0  0  0
   -0.3610    0.8130   -3.5620 C   0  0  0  0  0  0  0  0  0  0  0  0
    0.7720    1.4840   -4.1780 C   0  0  0  0  0  0  0  0  0  0  0  0
    0.6480    2.2280   -5.1930 O   0  0  0  0  0  0  0  0  0  0  0  0
    5.0660    2.0830   -2.3580 C   0  0  0  0  0  0  0  0  0  0  0  0
    4.6460    3.2330   -1.7050 O   0  0  0  0  0  0  0  0  0  0  0  0
    3.8230    3.0550   -0.5530 C   0  0  0  0  0  0  0  0  0  0  0  0
  1  2  1  0
  2  3  1  0
  3  4  1  0
  4  5  2  0
  4 38  1  0
  5  6  1  0
  6  7  1  0
  7  8  1  0
  7 38  2  0
  8  9  2  3
  9 10  1  0
  9 36  1  0
 10 11  2  0
 11 12  1  0
 11 18  1  0
 12 13  1  0
 12 14  2  3
 14 15  1  0
 15 16  1  0
 15 17  2  0
 18 19  1  0
 18 35  2  0
 19 20  1  0
 20 21  2  0
 20 22  1  0
 22 23  1  0
 22 27  1  0
 23 24  1  0
 24 25  1  0
 25 26  1  0
 27 26  1  6
 27 28  1  0
 28 29  1  1
 28 34  1  0
 29 30  1  0
 30 31  1  0
 31 32  1  0
 32 33  1  0
 33 34  1  0
 35 36  1  0
 36 37  2  0
 38 39  1  0
 39 40  1  0
M  END
