
     RDKit          3D

 40 43  0  0  0  0  0  0  0  0999 V2000
    5.9280   -3.3750   -2.8070 C   0  0  0  0  0  0  0  0  0  0  0  0
    5.5070   -2.5070   -3.7170 O   0  0  0  0  0  0  0  0  0  0  0  0
    5.0170   -1.2820   -3.4870 C   0  0  0  0  0  0  0  0  0  0  0  0
    3.7600   -1.3620   -2.5510 C   0  0  0  0  0  0  0  0  0  0  0  0
    3.2790   -0.1070   -2.4250 O   0  0  0  0  0  0  0  0  0  0  0  0
    2.0160    0.2950   -1.6900 C   0  0  0  0  0  0  0  0  0  0  0  0
    1.3740   -0.6670   -1.3230 C   0  0  0  0  0  0  0  0  0  0  0  0
    0.1940   -1.3490   -0.6380 C   0  0  0  0  0  0  0  0  0  0  0  0
   -0.4020   -0.5690    0.2610 C   0  0  0  0  0  0  0  0  0  0  0  0
   -1.6110   -1.1810    0.9980 C   0  0  0  0  0  0  0  0  0  0  0  0
   -2.2440   -0.5270    1.8530 O   0  0  0  0  0  0  0  0  0  0  0  0
   -1.9750   -2.4850    0.6280 N   0  0  0  0  0  0  0  0  0  0  0  0
   -3.1710   -3.2090    1.1100 C   0  0  0  0  0  0  0  0  0  0  0  0
   -4.3470   -2.4190    0.5330 C   0  0  1  0  0  0  0  0  0  0  0  0
   -4.1500   -2.4430   -1.0150 C   0  0  0  0  0  0  0  0  0  0  0  0
   -5.5480   -2.2480   -1.5470 C   0  0  0  0  0  0  0  0  0  0  0  0
   -6.4960   -2.5260   -0.4730 C   0  0  1  0  0  0  0  0  0  0  0  0
   -7.3880   -3.7670   -0.9180 C   0  0  0  0  0  0  0  0  0  0  0  0
   -8.0310   -4.6280   -1.2270 N   0  0  0  0  0  0  0  0  0  0  0  0
   -5.6150   -3.2270    0.6100 C   0  0  2  0  0  0  0  0  0  0  0  0
   -6.1670   -3.1030    1.8350 O   0  0  0  0  0  0  0  0  0  0  0  0
   -0.0850    0.8240    0.7200 C   0  0  0  0  0  0  0  0  0  0  0  0
   -1.0880    1.7620    0.3320 C   0  0  0  0  0  0  0  0  0  0  0  0
   -1.0210    3.1090    0.7690 C   0  0  0  0  0  0  0  0  0  0  0  0
   -2.0920    4.0370    0.2380 C   0  0  0  0  0  0  0  0  0  0  0  0
   -0.0450    3.5020    1.5310 C   0  0  0  0  0  0  0  0  0  0  0  0
    1.0030    2.6120    1.9660 C   0  0  0  0  0  0  0  0  0  0  0  0
    0.9240    1.2580    1.5160 C   0  0  0  0  0  0  0  0  0  0  0  0
    2.0440    0.4860    2.0010 N   0  0  0  0  0  0  0  0  0  0  0  0
    3.1280   -0.1440    1.3000 C   0  0  0  0  0  0  0  0  0  0  0  0
    2.9920   -1.5120    1.5200 O   0  0  0  0  0  0  0  0  0  0  0  0
    4.1870    0.2040    0.5270 C   0  0  0  0  0  0  0  0  0  0  0  0
    4.5420    1.1240   -0.3690 C   0  0  0  0  0  0  0  0  0  0  0  0
    3.4770    2.4590   -0.9570 S   0  0  0  0  0  0  0  0  0  0  0  0
    1.9550    1.7330   -1.6620 C   0  0  0  0  0  0  0  0  0  0  0  0
    1.8930    3.0990    2.9610 C   0  0  0  0  0  0  0  0  0  0  0  0
    2.1570    2.3550    3.9100 O   0  0  0  0  0  0  0  0  0  0  0  0
    2.4000    4.4310    2.7910 C   0  0  0  0  0  0  0  0  0  0  0  0
    1.1400    5.3600    2.8480 C   0  0  0  0  0  0  0  0  0  0  0  0
    0.0080    4.9030    2.0780 C   0  0  0  0  0  0  0  0  0  0  0  0
  1  2  1  0
  2  3  1  0
  3  4  1  0
  4  5  1  0
  5  6  1  0
  6  7  2  0
  6 35  1  0
  7  8  1  0
  8  9  2  0
  9 10  1  0
  9 22  1  0
 10 11  2  0
 10 12  1  0
 12 13  1  0
 14 13  1  1
 14 15  1  0
 14 20  1  0
 15 16  1  0
 16 17  1  0
 17 18  1  6
 17 20  1  0
 18 19  3  0
 20 21  1  1
 22 23  2  0
 22 28  1  0
 23 24  1  0
 24 25  1  0
 24 26  2  0
 26 27  1  0
 26 40  1  0
 27 28  2  0
 27 36  1  0
 28 29  1  0
 29 30  1  0
 30 31  2  0
 30 32  1  0
 32 33  2  0
 33 34  1  0
 34 35  1  0
 36 37  2  0
 36 38  1  0
 38 39  1  0
 39 40  1  0
M  END
