
     RDKit          3D

 40 43  0  0  0  0  0  0  0  0999 V2000
   -2.9960   -4.5160   -1.1480 C   0  0  0  0  0  0  0  0  0  0  0  0
   -2.2870   -3.3980   -0.3830 C   0  0  0  0  0  0  0  0  0  0  0  0
   -1.3590   -2.6370   -1.2780 C   0  0  2  0  0  0  0  0  0  0  0  0
   -0.2800   -3.5040   -1.8760 C   0  0  0  0  0  0  0  0  0  0  0  0
   -0.7050   -1.5090   -0.5940 N   0  0  0  0  0  0  0  0  0  0  0  0
   -0.9110   -0.1710   -1.0910 C   0  0  0  0  0  0  0  0  0  0  0  0
   -2.0720    0.4950   -0.4530 C   0  0  1  0  0  0  0  0  0  0  0  0
   -2.2990    1.9000   -1.0120 C   0  0  0  0  0  0  0  0  0  0  0  0
   -3.3540    2.4630   -0.2560 O   0  0  0  0  0  0  0  0  0  0  0  0
   -4.4970    1.7320    0.0710 C   0  0  0  0  0  0  0  0  0  0  0  0
   -4.4590    0.3730   -0.1410 C   0  0  0  0  0  0  0  0  0  0  0  0
   -5.5780   -0.3760    0.1750 C   0  0  0  0  0  0  0  0  0  0  0  0
   -6.7240    0.1850    0.6890 C   0  0  0  0  0  0  0  0  0  0  0  0
   -6.7230    1.5460    0.8850 C   0  0  0  0  0  0  0  0  0  0  0  0
   -7.9250    2.2060    1.4330 C   0  0  0  0  0  0  0  0  0  0  0  0
   -5.6270    2.3370    0.5850 C   0  0  0  0  0  0  0  0  0  0  0  0
   -5.6050    3.7090    0.7750 O   0  0  0  0  0  0  0  0  0  0  0  0
   -6.0420    4.5180   -0.3220 C   0  0  0  0  0  0  0  0  0  0  0  0
   -3.3020   -0.1770   -0.6580 O   0  0  0  0  0  0  0  0  0  0  0  0
    0.1210   -1.8330    0.4990 C   0  0  0  0  0  0  0  0  0  0  0  0
    0.3360   -3.0390    0.8550 O   0  0  0  0  0  0  0  0  0  0  0  0
    0.8310   -0.8200    1.3640 C   0  0  1  0  0  0  0  0  0  0  0  0
   -0.1130   -0.5040    2.5190 C   0  0  0  0  0  0  0  0  0  0  0  0
    2.3370   -1.5930    1.9730 S   0  0  0  0  0  0  0  0  0  0  0  0
    3.5380   -1.8640    0.6930 C   0  0  0  0  0  0  0  0  0  0  0  0
    4.0770   -3.2260    0.6020 C   0  0  0  0  0  0  0  0  0  0  0  0
    3.5240   -4.3020    1.3860 N   0  0  0  0  0  0  0  0  0  0  0  0
    5.0280   -3.4500   -0.1680 O   0  0  0  0  0  0  0  0  0  0  0  0
    4.0000   -0.8440   -0.0130 C   0  0  0  0  0  0  0  0  0  0  0  0
    4.9800   -1.0810   -1.0840 C   0  0  0  0  0  0  0  0  0  0  0  0
    3.6070    0.5240    0.3950 C   0  0  0  0  0  0  0  0  0  0  0  0
    4.8080    1.3640    0.5890 C   0  0  0  0  0  0  0  0  0  0  0  0
    5.4870    1.4580    1.7890 C   0  0  0  0  0  0  0  0  0  0  0  0
    6.5480    2.2560    1.6190 N   0  0  0  0  0  0  0  0  0  0  0  0
    6.5760    2.6860    0.3290 C   0  0  0  0  0  0  0  0  0  0  0  0
    5.4730    2.1230   -0.3250 C   0  0  0  0  0  0  0  0  0  0  0  0
    5.2580    2.4330   -1.6000 C   0  0  0  0  0  0  0  0  0  0  0  0
    6.1330    3.2940   -2.4130 C   0  0  0  0  0  0  0  0  0  0  0  0
    7.2070    3.7610   -1.6660 O   0  0  0  0  0  0  0  0  0  0  0  0
    7.3830    3.4610   -0.3380 C   0  0  0  0  0  0  0  0  0  0  0  0
  1  2  1  0
  2  3  1  0
  3  4  1  1
  3  5  1  0
  5  6  1  0
  5 20  1  0
  7  6  1  6
  7  8  1  0
  7 19  1  0
  8  9  1  0
  9 10  1  0
 10 11  2  0
 10 16  1  0
 11 12  1  0
 11 19  1  0
 12 13  2  0
 13 14  1  0
 14 15  1  0
 14 16  2  0
 16 17  1  0
 17 18  1  0
 20 21  2  0
 20 22  1  0
 22 23  1  1
 22 24  1  0
 24 25  1  0
 25 26  1  0
 25 29  2  3
 26 27  1  0
 26 28  2  0
 29 30  1  0
 29 31  1  0
 31 32  1  0
 32 33  2  0
 32 36  1  0
 33 34  1  0
 34 35  1  0
 35 36  1  0
 35 40  2  0
 36 37  2  0
 37 38  1  0
 38 39  1  0
 39 40  1  0
M  END
