
     RDKit          3D

 31 34  0  0  0  0  0  0  0  0999 V2000
   -5.2730   -3.4930   -0.5030 C   0  0  0  0  0  0  0  0  0  0  0  0
   -4.9260   -2.1590   -0.8150 O   0  0  0  0  0  0  0  0  0  0  0  0
   -3.6410   -1.7150   -0.5370 C   0  0  0  0  0  0  0  0  0  0  0  0
   -2.7240   -2.5640    0.0340 C   0  0  0  0  0  0  0  0  0  0  0  0
   -1.4450   -2.1340    0.3130 C   0  0  0  0  0  0  0  0  0  0  0  0
   -1.0110   -0.8260    0.0360 C   0  0  0  0  0  0  0  0  0  0  0  0
    0.3030   -0.4990    0.3580 N   0  0  0  0  0  0  0  0  0  0  0  0
    0.8910    0.7530    0.1560 C   0  0  0  0  0  0  0  0  0  0  0  0
    0.2650    1.7000   -0.3440 O   0  0  0  0  0  0  0  0  0  0  0  0
    2.3180    1.0360    0.5290 C   0  0  2  0  0  0  0  0  0  0  0  0
    3.1590    1.1860   -0.7160 C   0  0  0  0  0  0  0  0  0  0  0  0
    4.5030    0.7710   -0.2520 C   0  0  0  0  0  0  0  0  0  0  0  0
    5.7920    1.0470   -0.7230 C   0  0  0  0  0  0  0  0  0  0  0  0
    6.9120    0.5290   -0.1090 C   0  0  0  0  0  0  0  0  0  0  0  0
    8.2820    0.8250   -0.6130 C   0  0  0  0  0  0  0  0  0  0  0  0
    8.2070    1.6470   -1.7170 O   0  0  0  0  0  0  0  0  0  0  0  0
    6.7110   -0.2760    0.9930 C   0  0  0  0  0  0  0  0  0  0  0  0
    8.1530   -0.9500    1.7940 S   0  0  0  0  0  0  0  0  0  0  0  0
    5.4390   -0.5460    1.4550 C   0  0  0  0  0  0  0  0  0  0  0  0
    4.3130   -0.0320    0.8470 C   0  0  0  0  0  0  0  0  0  0  0  0
    2.9290   -0.1370    1.0950 O   0  0  0  0  0  0  0  0  0  0  0  0
   -1.9500   -0.0180   -0.5290 C   0  0  0  0  0  0  0  0  0  0  0  0
   -3.2600   -0.4360   -0.8220 C   0  0  0  0  0  0  0  0  0  0  0  0
   -4.1110    0.4870   -1.3960 O   0  0  0  0  0  0  0  0  0  0  0  0
   -5.2720    0.8920   -0.7550 C   0  0  0  0  0  0  0  0  0  0  0  0
   -5.5310    0.4750    0.5190 C   0  0  0  0  0  0  0  0  0  0  0  0
   -6.6770    0.8520    1.1970 C   0  0  0  0  0  0  0  0  0  0  0  0
   -7.5670    1.6660    0.5630 C   0  0  0  0  0  0  0  0  0  0  0  0
   -9.1440    2.1830    1.5030 Br  0  0  0  0  0  0  0  0  0  0  0  0
   -7.3180    2.0920   -0.7170 C   0  0  0  0  0  0  0  0  0  0  0  0
   -6.1810    1.7190   -1.3940 C   0  0  0  0  0  0  0  0  0  0  0  0
  1  2  1  0
  2  3  1  0
  3  4  2  0
  3 23  1  0
  4  5  1  0
  5  6  2  0
  6  7  1  0
  6 22  1  0
  7  8  1  0
  8  9  2  0
 10  8  1  6
 10 11  1  0
 10 21  1  0
 11 12  1  0
 12 13  2  0
 12 20  1  0
 13 14  1  0
 14 15  1  0
 14 17  2  0
 15 16  1  0
 17 18  1  0
 17 19  1  0
 19 20  2  0
 20 21  1  0
 22 23  2  0
 23 24  1  0
 24 25  1  0
 25 26  2  0
 25 31  1  0
 26 27  1  0
 27 28  2  0
 28 29  1  0
 28 30  1  0
 30 31  2  0
M  END
