
     RDKit          3D

 31 34  0  0  0  0  0  0  0  0999 V2000
    5.5600   -3.2220   -1.7720 C   0  0  0  0  0  0  0  0  0  0  0  0
    6.6260   -2.5240   -0.9360 C   0  0  0  0  0  0  0  0  0  0  0  0
    6.0730   -1.2760   -0.3340 C   0  0  0  0  0  0  0  0  0  0  0  0
    6.1710   -0.0880   -1.0240 C   0  0  0  0  0  0  0  0  0  0  0  0
    5.6820    1.0990   -0.5280 C   0  0  0  0  0  0  0  0  0  0  0  0
    5.0750    1.0820    0.7080 C   0  0  0  0  0  0  0  0  0  0  0  0
    4.5630    2.3750    1.2170 C   0  0  0  0  0  0  0  0  0  0  0  0
    3.3250    2.7550    0.6640 O   0  0  0  0  0  0  0  0  0  0  0  0
    2.1560    2.0440    0.7550 C   0  0  0  0  0  0  0  0  0  0  0  0
    2.1900    0.9640    1.3850 O   0  0  0  0  0  0  0  0  0  0  0  0
    0.8930    2.5350    0.1320 C   0  0  0  0  0  0  0  0  0  0  0  0
   -0.2880    1.8970    0.1780 C   0  0  0  0  0  0  0  0  0  0  0  0
   -1.3660    2.4000   -0.4020 C   0  0  0  0  0  0  0  0  0  0  0  0
   -2.7630    2.0020   -0.5510 C   0  0  0  0  0  0  0  0  0  0  0  0
   -3.5240    2.7500   -1.1870 O   0  0  0  0  0  0  0  0  0  0  0  0
   -3.2590    0.8030    0.0020 N   0  0  0  0  0  0  0  0  0  0  0  0
   -4.5730    0.3010   -0.0650 C   0  0  0  0  0  0  0  0  0  0  0  0
   -5.5950    0.9490   -0.7140 C   0  0  0  0  0  0  0  0  0  0  0  0
   -6.9050    0.4390   -0.7750 C   0  0  0  0  0  0  0  0  0  0  0  0
   -7.1540   -0.7450   -0.1630 C   0  0  0  0  0  0  0  0  0  0  0  0
   -6.1730   -1.4340    0.4980 C   0  0  0  0  0  0  0  0  0  0  0  0
   -4.8950   -0.8960    0.5350 C   0  0  0  0  0  0  0  0  0  0  0  0
   -3.9690   -1.6360    1.2100 O   0  0  0  0  0  0  0  0  0  0  0  0
   -6.7950   -2.6650    1.0340 C   0  0  0  0  0  0  0  0  0  0  0  0
   -8.1440   -2.4360    1.0030 O   0  0  0  0  0  0  0  0  0  0  0  0
   -8.3980   -1.5470   -0.0380 C   0  0  0  0  0  0  0  0  0  0  0  0
   -0.7110    3.9550   -1.1170 S   0  0  0  0  0  0  0  0  0  0  0  0
    0.8930    3.7370   -0.5580 C   0  0  0  0  0  0  0  0  0  0  0  0
    2.3970    4.9520   -0.8480 Br  0  0  0  0  0  0  0  0  0  0  0  0
    4.9770   -0.1070    1.3980 C   0  0  0  0  0  0  0  0  0  0  0  0
    5.4670   -1.2930    0.8980 C   0  0  0  0  0  0  0  0  0  0  0  0
  1  2  1  0
  2  3  1  0
  3  4  2  0
  3 31  1  0
  4  5  1  0
  5  6  2  0
  6  7  1  0
  6 30  1  0
  7  8  1  0
  8  9  1  0
  9 10  2  0
  9 11  1  0
 11 12  1  0
 11 28  2  0
 12 13  2  0
 13 14  1  0
 13 27  1  0
 14 15  2  0
 14 16  1  0
 16 17  1  0
 17 18  2  0
 17 22  1  0
 18 19  1  0
 19 20  2  0
 20 21  1  0
 20 26  1  0
 21 22  2  0
 21 24  1  0
 22 23  1  0
 24 25  1  0
 25 26  1  0
 27 28  1  0
 28 29  1  0
 30 31  2  0
M  END
