
     RDKit          3D

 31 34  0  0  0  0  0  0  0  0999 V2000
    5.7540    3.4400   -1.3140 C   0  0  0  0  0  0  0  0  0  0  0  0
    4.4920    2.5680   -1.1650 C   0  0  0  0  0  0  0  0  0  0  0  0
    4.8030    1.3070   -0.4350 C   0  0  0  0  0  0  0  0  0  0  0  0
    3.6630    0.3760   -0.2090 C   0  0  0  0  0  0  0  0  0  0  0  0
    2.9040   -0.1980   -1.6720 S   0  0  2  0  0  0  0  0  0  0  0  0
    3.9420   -0.7590   -2.5920 O   0  0  0  0  0  0  0  0  0  0  0  0
    2.2950    1.0010   -2.3890 O   0  0  0  0  0  0  0  0  0  0  0  0
    1.5740   -1.3120   -1.3890 C   0  0  2  0  0  0  0  0  0  0  0  0
    0.8520   -1.8450   -3.1200 Br  0  0  0  0  0  0  0  0  0  0  0  0
    0.4480   -0.7060   -0.6030 C   0  0  0  0  0  0  0  0  0  0  0  0
   -0.1620   -1.8310    0.0480 N   0  0  0  0  0  0  0  0  0  0  0  0
   -1.4680   -2.0360    0.4500 C   0  0  0  0  0  0  0  0  0  0  0  0
   -1.8200   -3.2560    0.7140 O   0  0  0  0  0  0  0  0  0  0  0  0
   -2.5560   -1.0690    0.6340 C   0  0  0  0  0  0  0  0  0  0  0  0
   -2.4300    0.2230    0.4810 C   0  0  0  0  0  0  0  0  0  0  0  0
   -3.5260    1.1790    0.6750 C   0  0  0  0  0  0  0  0  0  0  0  0
   -3.4040    2.5180    0.4400 C   0  0  0  0  0  0  0  0  0  0  0  0
   -4.4860    3.3890    0.5670 C   0  0  0  0  0  0  0  0  0  0  0  0
   -4.4070    4.7420    0.3410 O   0  0  0  0  0  0  0  0  0  0  0  0
   -5.7040    2.8570    0.9430 C   0  0  0  0  0  0  0  0  0  0  0  0
   -6.8140    3.7140    1.0780 O   0  0  0  0  0  0  0  0  0  0  0  0
   -5.8570    1.5070    1.1880 C   0  0  0  0  0  0  0  0  0  0  0  0
   -4.7350    0.6730    1.0460 C   0  0  0  0  0  0  0  0  0  0  0  0
   -4.9220   -0.7340    1.3890 C   0  0  0  0  0  0  0  0  0  0  0  0
   -3.8800   -1.6480    0.9300 C   0  0  0  0  0  0  0  0  0  0  0  0
    0.8920   -2.8210    0.1710 C   0  0  0  0  0  0  0  0  0  0  0  0
    0.9340   -3.9380    1.0000 C   0  0  0  0  0  0  0  0  0  0  0  0
    2.0270   -4.7790    1.0050 C   0  0  0  0  0  0  0  0  0  0  0  0
    3.0720   -4.4720    0.1600 C   0  0  0  0  0  0  0  0  0  0  0  0
    3.0420   -3.3720   -0.6640 C   0  0  0  0  0  0  0  0  0  0  0  0
    1.9300   -2.5180   -0.6670 C   0  0  0  0  0  0  0  0  0  0  0  0
  1  2  1  0
  2  3  1  0
  3  4  1  0
  5  4  1  1
  5  6  2  0
  5  7  2  0
  5  8  1  0
  8  9  1  6
  8 10  1  0
  8 31  1  0
 10 11  1  0
 11 12  1  0
 11 26  1  0
 12 13  2  0
 12 14  1  0
 14 15  2  0
 14 25  1  0
 15 16  1  0
 16 17  2  0
 16 23  1  0
 17 18  1  0
 18 19  1  0
 18 20  2  0
 20 21  1  0
 20 22  1  0
 22 23  2  0
 23 24  1  0
 24 25  1  0
 26 27  2  0
 26 31  1  0
 27 28  1  0
 28 29  2  0
 29 30  1  0
 30 31  2  0
M  END
