
     RDKit          3D

 19 20  0  0  0  0  0  0  0  0999 V2000
   -2.6920   -2.7560    1.6730 C   0  0  0  0  0  0  0  0  0  0  0  0
   -3.0260   -1.7080    0.9450 C   0  0  0  0  0  0  0  0  0  0  0  0
   -2.4060   -1.3340   -0.3270 C   0  0  0  0  0  0  0  0  0  0  0  0
   -1.7860   -0.0100   -0.3030 N   0  0  0  0  0  0  0  0  0  0  0  0
   -0.4340    0.0360    0.0880 C   0  0  0  0  0  0  0  0  0  0  0  0
    0.1510    1.1400    0.1280 O   0  0  0  0  0  0  0  0  0  0  0  0
    0.2830   -1.0820    0.4320 O   0  0  0  0  0  0  0  0  0  0  0  0
    1.6280   -0.9710    0.8090 C   0  0  0  0  0  0  0  0  0  0  0  0
    2.5410   -0.4190   -0.2420 C   0  0  0  0  0  0  0  0  0  0  0  0
    3.9260   -0.3380    0.2380 C   0  0  0  0  0  0  0  0  0  0  0  0
    4.9930   -1.1240    0.2530 C   0  0  0  0  0  0  0  0  0  0  0  0
    6.1610   -0.7360    0.7890 C   0  0  0  0  0  0  0  0  0  0  0  0
    6.2280    0.5290    1.3370 C   0  0  0  0  0  0  0  0  0  0  0  0
    4.5820    1.1920    1.0860 S   0  0  0  0  0  0  0  0  0  0  0  0
   -2.5200    1.1480   -0.6570 C   0  0  0  0  0  0  0  0  0  0  0  0
   -3.8130    1.1660   -1.0390 C   0  0  0  0  0  0  0  0  0  0  0  0
   -4.2480    2.5460   -1.3320 C   0  0  0  0  0  0  0  0  0  0  0  0
   -3.0580    3.3520   -1.0790 C   0  0  0  0  0  0  0  0  0  0  0  0
   -2.0960    2.5310   -0.6980 C   0  0  0  0  0  0  0  0  0  0  0  0
  1  2  2  0
  2  3  1  0
  3  4  1  0
  4  5  1  0
  4 15  1  0
  5  6  2  0
  5  7  1  0
  7  8  1  0
  8  9  1  0
  9 10  1  0
 10 11  2  0
 10 14  1  0
 11 12  1  0
 12 13  2  0
 13 14  1  0
 15 16  2  0
 15 19  1  0
 16 17  1  0
 17 18  1  0
 18 19  2  0
M  END
