
     RDKit          3D

 19 20  0  0  0  0  0  0  0  0999 V2000
   -1.2270    6.1320    0.3700 N   0  0  0  0  0  0  0  0  0  0  0  0
   -2.2790    5.6200    0.6280 C   0  0  0  0  0  0  0  0  0  0  0  0
   -3.8010    4.8660    0.9740 S   0  0  0  0  0  0  0  0  0  0  0  0
   -3.9960    3.3790    0.0040 C   0  0  0  0  0  0  0  0  0  0  0  0
   -3.0580    2.2680    0.3310 C   0  0  0  0  0  0  0  0  0  0  0  0
   -1.6900    2.5820    0.1460 O   0  0  0  0  0  0  0  0  0  0  0  0
   -0.7570    1.5660    0.4480 C   0  0  0  0  0  0  0  0  0  0  0  0
   -1.1320    0.3490    0.9130 C   0  0  0  0  0  0  0  0  0  0  0  0
   -0.2540   -0.6910    1.2230 C   0  0  0  0  0  0  0  0  0  0  0  0
    1.0960   -0.4300    1.0290 C   0  0  0  0  0  0  0  0  0  0  0  0
    2.0690   -1.4160    1.3110 O   0  0  0  0  0  0  0  0  0  0  0  0
    2.3160   -2.4110    0.3730 C   0  0  0  0  0  0  0  0  0  0  0  0
    1.4980   -2.4990   -0.7490 C   0  0  0  0  0  0  0  0  0  0  0  0
    1.6600   -3.4450   -1.7310 C   0  0  0  0  0  0  0  0  0  0  0  0
    2.6830   -4.3590   -1.6070 C   0  0  0  0  0  0  0  0  0  0  0  0
    3.5180   -4.2980   -0.4990 C   0  0  0  0  0  0  0  0  0  0  0  0
    3.3360   -3.3300    0.4860 C   0  0  0  0  0  0  0  0  0  0  0  0
    1.4900    0.7950    0.5600 C   0  0  0  0  0  0  0  0  0  0  0  0
    0.5900    1.8270    0.2560 C   0  0  0  0  0  0  0  0  0  0  0  0
  1  2  3  0
  2  3  1  0
  3  4  1  0
  4  5  1  0
  5  6  1  0
  6  7  1  0
  7  8  2  0
  7 19  1  0
  8  9  1  0
  9 10  2  0
 10 11  1  0
 10 18  1  0
 11 12  1  0
 12 13  2  0
 12 17  1  0
 13 14  1  0
 14 15  2  0
 15 16  1  0
 16 17  2  0
 18 19  2  0
M  END
