
     RDKit          3D

 19 20  0  0  0  0  0  0  0  0999 V2000
   -3.9550   -3.4340   -0.0360 C   0  0  0  0  0  0  0  0  0  0  0  0
   -3.2370   -2.1170   -0.0510 C   0  0  0  0  0  0  0  0  0  0  0  0
   -1.8570   -2.2690   -0.3730 O   0  0  0  0  0  0  0  0  0  0  0  0
   -1.0900   -1.1000   -0.4160 C   0  0  0  0  0  0  0  0  0  0  0  0
   -1.6290    0.1440   -0.1600 C   0  0  0  0  0  0  0  0  0  0  0  0
   -0.8240    1.2770   -0.2150 C   0  0  0  0  0  0  0  0  0  0  0  0
   -1.4060    2.5860    0.0580 C   0  0  0  0  0  0  0  0  0  0  0  0
   -0.7430    3.7930    0.0350 C   0  0  0  0  0  0  0  0  0  0  0  0
   -1.6530    4.7740    0.3480 C   0  0  0  0  0  0  0  0  0  0  0  0
   -2.8580    4.0950    0.5520 C   0  0  0  0  0  0  0  0  0  0  0  0
   -2.6530    2.8250    0.3690 O   0  0  0  0  0  0  0  0  0  0  0  0
    0.5030    1.0890   -0.5320 C   0  0  0  0  0  0  0  0  0  0  0  0
    1.0780   -0.1360   -0.7940 C   0  0  0  0  0  0  0  0  0  0  0  0
    2.4490   -0.2500   -1.1150 N   0  0  0  0  0  0  0  0  0  0  0  0
    3.2600    0.9490   -1.1770 C   0  0  0  0  0  0  0  0  0  0  0  0
    3.0540   -1.5190   -1.3770 C   0  0  0  0  0  0  0  0  0  0  0  0
    2.9350   -2.5720    0.0970 S   0  0  0  0  0  0  0  0  0  0  0  0
    3.9560   -1.8810    1.4380 C   0  0  0  0  0  0  0  0  0  0  0  0
    0.2440   -1.2460   -0.7290 C   0  0  0  0  0  0  0  0  0  0  0  0
  1  2  1  0
  2  3  1  0
  3  4  1  0
  4  5  2  0
  4 19  1  0
  5  6  1  0
  6  7  1  0
  6 12  2  0
  7  8  2  0
  7 11  1  0
  8  9  1  0
  9 10  2  0
 10 11  1  0
 12 13  1  0
 13 14  1  0
 13 19  2  0
 14 15  1  0
 14 16  1  0
 16 17  1  0
 17 18  1  0
M  END
