
     RDKit          3D

 19 19  0  0  0  0  0  0  0  0999 V2000
   -3.8860    1.6320   -1.8410 C   0  0  0  0  0  0  0  0  0  0  0  0
   -4.5750    0.8590   -1.0270 C   0  0  0  0  0  0  0  0  0  0  0  0
   -6.0510    0.8720   -1.1060 C   0  0  0  0  0  0  0  0  0  0  0  0
   -3.8620    0.0230   -0.0800 C   0  0  0  0  0  0  0  0  0  0  0  0
   -4.4790   -0.7800    0.7720 C   0  0  0  0  0  0  0  0  0  0  0  0
   -3.7550   -1.6270    1.7310 C   0  0  0  0  0  0  0  0  0  0  0  0
   -2.4550    0.0270   -0.0210 O   0  0  0  0  0  0  0  0  0  0  0  0
   -1.8010    0.9160    0.8170 C   0  0  0  0  0  0  0  0  0  0  0  0
   -2.4480    1.7100    1.5190 O   0  0  0  0  0  0  0  0  0  0  0  0
   -0.3520    0.9280    0.8840 C   0  0  0  0  0  0  0  0  0  0  0  0
    0.4780    1.7300    1.6500 C   0  0  0  0  0  0  0  0  0  0  0  0
    1.7850    1.5520    1.5380 C   0  0  0  0  0  0  0  0  0  0  0  0
    2.2750    0.6030    0.6880 C   0  0  0  0  0  0  0  0  0  0  0  0
    3.6300    0.1840    0.3580 C   0  0  0  0  0  0  0  0  0  0  0  0
    3.8820   -0.7620   -0.4980 C   0  0  0  0  0  0  0  0  0  0  0  0
    5.2120   -1.1390   -0.7920 N   0  0  0  0  0  0  0  0  0  0  0  0
    6.0470   -1.6140    0.2900 C   0  0  0  0  0  0  0  0  0  0  0  0
    5.7490   -1.0630   -2.1250 C   0  0  0  0  0  0  0  0  0  0  0  0
    0.7560   -0.0950   -0.0090 S   0  0  0  0  0  0  0  0  0  0  0  0
  1  2  2  0
  2  3  1  0
  2  4  1  0
  4  5  2  3
  4  7  1  0
  5  6  1  0
  7  8  1  0
  8  9  2  0
  8 10  1  0
 10 11  2  0
 10 19  1  0
 11 12  1  0
 12 13  2  0
 13 14  1  0
 13 19  1  0
 14 15  2  3
 15 16  1  0
 16 17  1  0
 16 18  1  0
M  END
