
     RDKit          3D

 26 28  0  0  0  0  0  0  0  0999 V2000
   -7.8240    0.5110    0.5530 C   0  0  0  0  0  0  0  0  0  0  0  0
   -7.4550    0.1660   -0.8240 C   0  0  0  0  0  0  0  0  0  0  0  0
   -6.1530   -0.0860   -1.1370 C   0  0  0  0  0  0  0  0  0  0  0  0
   -5.2020    0.0020   -0.0830 C   0  0  0  0  0  0  0  0  0  0  0  0
   -3.9060   -0.1730   -0.0340 C   0  0  0  0  0  0  0  0  0  0  0  0
   -3.3120    0.0360    1.3440 C   0  0  0  0  0  0  0  0  0  0  0  0
   -1.8860   -0.1140    1.3960 C   0  0  0  0  0  0  0  0  0  0  0  0
   -1.1000   -0.4360    0.3880 C   0  0  0  0  0  0  0  0  0  0  0  0
    0.2950   -0.5420    0.6240 N   0  0  0  0  0  0  0  0  0  0  0  0
    1.2630    0.2310   -0.0230 C   0  0  0  0  0  0  0  0  0  0  0  0
    0.8700    1.0810   -0.8740 O   0  0  0  0  0  0  0  0  0  0  0  0
    2.6710    0.0590    0.2770 C   0  0  0  0  0  0  0  0  0  0  0  0
    3.1950   -0.8340    1.1800 C   0  0  0  0  0  0  0  0  0  0  0  0
    4.5420   -0.9510    1.4220 C   0  0  0  0  0  0  0  0  0  0  0  0
    5.4400   -0.1540    0.7470 C   0  0  0  0  0  0  0  0  0  0  0  0
    4.9750    0.7520   -0.1640 C   0  0  0  0  0  0  0  0  0  0  0  0
    3.6030    0.8460   -0.3850 C   0  0  0  0  0  0  0  0  0  0  0  0
    5.8600    1.6020   -0.9320 N   0  0  0  0  0  0  0  0  0  0  0  0
    7.2440    1.4260   -0.6750 C   0  0  0  0  0  0  0  0  0  0  0  0
    8.0910    2.3280   -0.8150 O   0  0  0  0  0  0  0  0  0  0  0  0
    7.6630    0.0790   -0.2180 C   0  0  2  0  0  0  0  0  0  0  0  0
    7.1550   -1.0890   -1.4780 Cl  0  0  0  0  0  0  0  0  0  0  0  0
    6.8870   -0.2540    1.0250 C   0  0  0  0  0  0  0  0  0  0  0  0
   -1.7330   -0.6430   -0.8930 C   0  0  0  0  0  0  0  0  0  0  0  0
   -3.0460   -0.5240   -1.1030 C   0  0  0  0  0  0  0  0  0  0  0  0
   -3.5660   -0.7650   -2.4230 N   0  0  0  0  0  0  0  0  0  0  0  0
  1  2  1  0
  2  3  2  3
  3  4  1  0
  4  5  2  3
  5  6  1  0
  5 25  1  0
  6  7  1  0
  7  8  2  0
  8  9  1  0
  8 24  1  0
  9 10  1  0
 10 11  2  0
 10 12  1  0
 12 13  2  0
 12 17  1  0
 13 14  1  0
 14 15  2  0
 15 16  1  0
 15 23  1  0
 16 17  2  0
 16 18  1  0
 18 19  1  0
 19 20  2  0
 19 21  1  0
 21 22  1  6
 21 23  1  0
 24 25  2  0
 25 26  1  0
M  CHG  1  26   1
M  END
