
     RDKit          3D

 26 28  0  0  0  0  0  0  0  0999 V2000
    4.7960    0.3010   -2.7710 C   0  0  0  0  0  0  0  0  0  0  0  0
    3.9370   -0.1740   -1.9030 C   0  0  0  0  0  0  0  0  0  0  0  0
    3.0850   -1.3090   -2.1580 N   0  0  0  0  0  0  0  0  0  0  0  0
    2.0050   -1.2390   -1.2050 C   0  0  0  0  0  0  0  0  0  0  0  0
    2.1210    0.1090   -0.5340 C   0  0  1  0  0  0  0  0  0  0  0  0
    1.5770    0.1330    0.7830 N   0  0  0  0  0  0  0  0  0  0  0  0
    0.1950    0.0630    1.0000 C   0  0  0  0  0  0  0  0  0  0  0  0
   -0.6660    0.2330   -0.0990 C   0  0  0  0  0  0  0  0  0  0  0  0
   -2.0310    0.2290    0.0130 C   0  0  0  0  0  0  0  0  0  0  0  0
   -2.6220    0.0540    1.2350 C   0  0  0  0  0  0  0  0  0  0  0  0
   -4.0170    0.0540    1.3200 O   0  0  0  0  0  0  0  0  0  0  0  0
   -4.7930    0.2280    0.1930 C   0  0  0  0  0  0  0  0  0  0  0  0
   -5.2150   -0.8460   -0.5760 C   0  0  0  0  0  0  0  0  0  0  0  0
   -5.9950   -0.6710   -1.7080 C   0  0  0  0  0  0  0  0  0  0  0  0
   -6.3550    0.6100   -2.0690 C   0  0  0  0  0  0  0  0  0  0  0  0
   -5.9470    1.6970   -1.3180 C   0  0  0  0  0  0  0  0  0  0  0  0
   -5.1740    1.5140   -0.1980 C   0  0  0  0  0  0  0  0  0  0  0  0
   -1.8130   -0.1130    2.3140 C   0  0  0  0  0  0  0  0  0  0  0  0
   -0.4090   -0.1130    2.2210 C   0  0  0  0  0  0  0  0  0  0  0  0
    0.3890   -0.3230    3.4080 C   0  0  0  0  0  0  0  0  0  0  0  0
   -0.3460   -0.4810    4.6550 N   0  0  0  0  0  0  0  0  0  0  0  0
    1.6220   -0.3770    3.4470 O   0  0  0  0  0  0  0  0  0  0  0  0
    3.6160    0.2790   -0.5410 C   0  0  0  0  0  0  0  0  0  0  0  0
    4.4530    0.6590    0.3440 C   0  0  0  0  0  0  0  0  0  0  0  0
    5.9180    0.7370    0.2440 C   0  0  0  0  0  0  0  0  0  0  0  0
    6.6990   -0.2690    1.5120 Cl  0  0  0  0  0  0  0  0  0  0  0  0
  1  2  2  0
  2  3  1  0
  2 23  1  0
  3  4  1  0
  4  5  1  0
  5  6  1  1
  5 23  1  0
  6  7  1  0
  7  8  2  0
  7 19  1  0
  8  9  1  0
  9 10  2  0
 10 11  1  0
 10 18  1  0
 11 12  1  0
 12 13  2  0
 12 17  1  0
 13 14  1  0
 14 15  2  0
 15 16  1  0
 16 17  2  0
 18 19  2  0
 19 20  1  0
 20 21  1  0
 20 22  2  0
 23 24  2  3
 24 25  1  0
 25 26  1  0
M  CHG  1   3   1
M  END
