
     RDKit          3D

 26 29  0  0  0  0  0  0  0  0999 V2000
    7.6290    1.1990   -0.1180 C   0  0  0  0  0  0  0  0  0  0  0  0
    6.6160    1.3940    1.0170 C   0  0  0  0  0  0  0  0  0  0  0  0
    5.2980    1.2480    0.4480 N   0  0  0  0  0  0  0  0  0  0  0  0
    5.0180   -0.1270    0.0430 C   0  0  1  0  0  0  0  0  0  0  0  0
    5.0170   -1.0060    1.1700 N   0  0  0  0  0  0  0  0  0  0  0  0
    3.7300   -1.5730    1.3460 C   0  0  0  0  0  0  0  0  0  0  0  0
    3.3300   -2.3900    2.2430 O   0  0  0  0  0  0  0  0  0  0  0  0
    2.9040   -1.0310    0.2690 C   0  0  0  0  0  0  0  0  0  0  0  0
    3.6590   -0.1870   -0.5040 C   0  0  0  0  0  0  0  0  0  0  0  0
    3.0870    0.4290   -1.5900 C   0  0  0  0  0  0  0  0  0  0  0  0
    1.7620    0.2000   -1.9040 C   0  0  0  0  0  0  0  0  0  0  0  0
    0.9810   -0.6480   -1.1390 C   0  0  0  0  0  0  0  0  0  0  0  0
   -0.3090   -0.8410   -1.4920 O   0  0  0  0  0  0  0  0  0  0  0  0
   -1.4650   -0.5760   -0.8180 C   0  0  0  0  0  0  0  0  0  0  0  0
   -1.5760    0.0600    0.4040 C   0  0  0  0  0  0  0  0  0  0  0  0
   -2.8020    0.2790    1.0030 C   0  0  0  0  0  0  0  0  0  0  0  0
   -3.9380   -0.1580    0.3440 C   0  0  0  0  0  0  0  0  0  0  0  0
   -3.8800   -0.7980   -0.8750 C   0  0  0  0  0  0  0  0  0  0  0  0
   -2.6500   -1.0010   -1.4430 C   0  0  0  0  0  0  0  0  0  0  0  0
   -5.1650   -1.2220   -1.4750 C   0  0  0  0  0  0  0  0  0  0  0  0
   -6.0610   -0.0080   -1.5030 C   0  0  0  0  0  0  0  0  0  0  0  0
   -6.3370    0.4240   -0.0890 C   0  0  0  0  0  0  0  0  0  0  0  0
   -5.2940    0.0350    0.9070 C   0  0  2  0  0  0  0  0  0  0  0  0
   -5.2830    0.9300    2.0500 N   0  0  0  0  0  0  0  0  0  0  0  0
    1.5610   -1.2570   -0.0570 C   0  0  0  0  0  0  0  0  0  0  0  0
    0.5690   -2.3330    0.9020 Cl  0  0  0  0  0  0  0  0  0  0  0  0
  1  2  1  0
  2  3  1  0
  4  3  1  1
  4  5  1  0
  4  9  1  0
  5  6  1  0
  6  7  2  0
  6  8  1  0
  8  9  2  0
  8 25  1  0
  9 10  1  0
 10 11  2  0
 11 12  1  0
 12 13  1  0
 12 25  2  0
 13 14  1  0
 14 15  2  0
 14 19  1  0
 15 16  1  0
 16 17  2  0
 17 18  1  0
 17 23  1  0
 18 19  2  0
 18 20  1  0
 20 21  1  0
 21 22  1  0
 22 23  1  0
 23 24  1  1
 25 26  1  0
M  CHG  1  24   1
M  END
