
     RDKit          3D

 26 28  0  0  0  0  0  0  0  0999 V2000
    3.6150    1.7700    1.5810 C   0  0  0  0  0  0  0  0  0  0  0  0
    4.4810    1.2920    0.7290 C   0  0  0  0  0  0  0  0  0  0  0  0
    5.9110    1.5160    0.8330 N   0  0  0  0  0  0  0  0  0  0  0  0
    6.6130    0.8820   -0.2310 C   0  0  0  0  0  0  0  0  0  0  0  0
    5.5670    0.1730   -0.9950 C   0  0  0  0  0  0  0  0  0  0  0  0
    5.7540   -0.6360   -2.0890 C   0  0  0  0  0  0  0  0  0  0  0  0
    4.6540   -1.2020   -2.6640 C   0  0  0  0  0  0  0  0  0  0  0  0
    3.3930   -0.9380   -2.1260 C   0  0  0  0  0  0  0  0  0  0  0  0
    3.1680   -0.1330   -1.0330 C   0  0  0  0  0  0  0  0  0  0  0  0
    1.8980    0.2180   -0.5950 N   0  0  0  0  0  0  0  0  0  0  0  0
    0.6930   -0.5600   -0.7790 C   0  0  0  0  0  0  0  0  0  0  0  0
    0.8860   -1.6120   -1.3670 O   0  0  0  0  0  0  0  0  0  0  0  0
   -0.5780   -0.0550   -0.2740 C   0  0  0  0  0  0  0  0  0  0  0  0
   -1.7280   -0.6080   -0.3510 C   0  0  0  0  0  0  0  0  0  0  0  0
   -1.8950   -1.9380   -1.0330 C   0  0  0  0  0  0  0  0  0  0  0  0
   -2.4450   -2.9130   -0.1010 N   0  0  0  0  0  0  0  0  0  0  0  0
   -2.9360   -0.0330    0.2980 C   0  0  0  0  0  0  0  0  0  0  0  0
   -4.1710   -0.5750   -0.0910 C   0  0  0  0  0  0  0  0  0  0  0  0
   -5.3500   -0.1630    0.4590 C   0  0  0  0  0  0  0  0  0  0  0  0
   -5.3420    0.8100    1.4220 C   0  0  0  0  0  0  0  0  0  0  0  0
   -6.6400    1.2430    2.0050 C   0  0  0  0  0  0  0  0  0  0  0  0
   -7.1980    2.3100    1.2810 O   0  0  0  0  0  0  0  0  0  0  0  0
   -4.1710    1.3710    1.8390 C   0  0  0  0  0  0  0  0  0  0  0  0
   -2.9670    0.9210    1.2500 C   0  0  0  0  0  0  0  0  0  0  0  0
   -1.5200    1.6330    1.9030 Cl  0  0  0  0  0  0  0  0  0  0  0  0
    4.3030    0.4350   -0.4540 C   0  0  0  0  0  0  0  0  0  0  0  0
  1  2  2  0
  2  3  1  0
  2 26  1  0
  3  4  1  0
  4  5  1  0
  5  6  2  0
  5 26  1  0
  6  7  1  0
  7  8  2  0
  8  9  1  0
  9 10  1  0
  9 26  2  0
 10 11  1  0
 11 12  2  0
 11 13  1  0
 13 14  2  3
 14 15  1  0
 14 17  1  0
 15 16  1  0
 17 18  2  0
 17 24  1  0
 18 19  1  0
 19 20  2  0
 20 21  1  0
 20 23  1  0
 21 22  1  0
 23 24  2  0
 24 25  1  0
M  CHG  1  16   1
M  END
