
     RDKit          3D

 26 28  0  0  0  0  0  0  0  0999 V2000
    3.5720   -2.4460    2.8680 C   0  0  0  0  0  0  0  0  0  0  0  0
    3.2500   -2.4220    1.5110 O   0  0  0  0  0  0  0  0  0  0  0  0
    2.4440   -1.3620    1.0400 C   0  0  0  0  0  0  0  0  0  0  0  0
    1.9880   -0.3880    1.8700 C   0  0  0  0  0  0  0  0  0  0  0  0
    1.2060    0.6260    1.3690 C   0  0  0  0  0  0  0  0  0  0  0  0
    0.8360    0.7230    0.0170 C   0  0  0  0  0  0  0  0  0  0  0  0
    1.3000   -0.2720   -0.8280 C   0  0  0  0  0  0  0  0  0  0  0  0
    2.1070   -1.3060   -0.2870 C   0  0  0  0  0  0  0  0  0  0  0  0
    1.0810   -0.3790   -2.2130 N   0  0  0  0  0  0  0  0  0  0  0  0
   -0.1000   -0.4880   -2.9730 C   0  0  0  0  0  0  0  0  0  0  0  0
   -0.3530    0.3540   -3.8500 O   0  0  0  0  0  0  0  0  0  0  0  0
   -1.1070   -1.5700   -2.8040 C   0  0  0  0  0  0  0  0  0  0  0  0
   -0.7610   -2.5200   -1.7100 C   0  0  0  0  0  0  0  0  0  0  0  0
   -1.1290   -2.1670   -0.3360 C   0  0  0  0  0  0  0  0  0  0  0  0
   -1.8260   -1.1150    0.1290 C   0  0  0  0  0  0  0  0  0  0  0  0
   -2.0030   -1.1090    1.6030 C   0  0  0  0  0  0  0  0  0  0  0  0
   -1.4360   -2.2650    2.2690 N   0  0  0  0  0  0  0  0  0  0  0  0
   -2.4510   -0.0690   -0.6580 C   0  0  0  0  0  0  0  0  0  0  0  0
   -2.2350    1.1330   -1.0780 C   0  0  0  0  0  0  0  0  0  0  0  0
   -3.5870    1.7930   -2.1050 Cl  0  0  0  0  0  0  0  0  0  0  0  0
   -1.1730    2.1200   -0.8100 C   0  0  0  0  0  0  0  0  0  0  0  0
   -1.3270    3.5280   -0.9310 C   0  0  0  0  0  0  0  0  0  0  0  0
   -0.1990    4.1650   -0.5140 C   0  0  0  0  0  0  0  0  0  0  0  0
    0.0600    5.6430   -0.4720 C   0  0  0  0  0  0  0  0  0  0  0  0
    0.6340    3.2130   -0.1460 N   0  0  0  0  0  0  0  0  0  0  0  0
    0.0780    1.9420   -0.3140 C   0  0  0  0  0  0  0  0  0  0  0  0
  1  2  1  0
  2  3  1  0
  3  4  2  0
  3  8  1  0
  4  5  1  0
  5  6  2  0
  6  7  1  0
  6 26  1  0
  7  8  2  0
  7  9  1  0
  9 10  1  0
 10 11  2  0
 10 12  1  0
 12 13  1  0
 13 14  1  0
 14 15  2  0
 15 16  1  0
 15 18  1  0
 16 17  1  0
 18 19  2  0
 19 20  1  0
 19 21  1  0
 21 22  1  0
 21 26  2  0
 22 23  2  0
 23 24  1  0
 23 25  1  0
 25 26  1  0
M  CHG  1  17   1
M  END
