
     RDKit          3D

 16 17  0  0  0  0  0  0  0  0999 V2000
   -3.6170    1.4300   -0.2390 C   0  0  0  0  0  0  0  0  0  0  0  0
   -2.2760    0.7750   -0.1620 C   0  0  0  0  0  0  0  0  0  0  0  0
   -1.2130    1.5380   -0.3690 C   0  0  0  0  0  0  0  0  0  0  0  0
    0.1310    1.1910   -0.3560 O   0  0  0  0  0  0  0  0  0  0  0  0
    0.7350   -0.0180   -0.0360 C   0  0  0  0  0  0  0  0  0  0  0  0
    0.1220   -1.1650    0.2530 C   0  0  0  0  0  0  0  0  0  0  0  0
   -1.3050   -1.4670    0.3130 C   0  0  0  0  0  0  0  0  0  0  0  0
   -2.3430   -0.6510    0.1380 C   0  0  0  0  0  0  0  0  0  0  0  0
   -3.6450   -1.1860    0.2470 N   0  0  0  0  0  0  0  0  0  0  0  0
    1.1010   -2.2070    0.5340 C   0  0  0  0  0  0  0  0  0  0  0  0
    0.8960   -3.4070    0.8420 O   0  0  0  0  0  0  0  0  0  0  0  0
    2.3370   -1.5850    0.3890 O   0  0  0  0  0  0  0  0  0  0  0  0
    2.1530   -0.2530    0.0430 C   0  0  0  0  0  0  0  0  0  0  0  0
    3.1220    0.6190   -0.1700 C   0  0  0  0  0  0  0  0  0  0  0  0
    4.5520    0.2310   -0.0520 C   0  0  0  0  0  0  0  0  0  0  0  0
    5.1300    1.0310    0.9420 O   0  0  0  0  0  0  0  0  0  0  0  0
  1  2  1  0
  2  3  2  0
  2  8  1  0
  3  4  1  0
  4  5  1  0
  5  6  2  0
  5 13  1  0
  6  7  1  0
  6 10  1  0
  7  8  2  0
  8  9  1  0
 10 11  2  0
 10 12  1  0
 12 13  1  0
 13 14  2  3
 14 15  1  0
 15 16  1  0
M  END
