
     RDKit          3D

 16 17  0  0  0  0  0  0  0  0999 V2000
    3.9310    0.1330   -0.5830 C   0  0  0  0  0  0  0  0  0  0  0  0
    2.4550    0.1870   -0.4610 C   0  0  0  0  0  0  0  0  0  0  0  0
    1.6990    1.2930   -0.7000 C   0  0  0  0  0  0  0  0  0  0  0  0
    0.3280    1.3130   -0.5780 C   0  0  0  0  0  0  0  0  0  0  0  0
   -0.3330    0.1460   -0.1890 C   0  0  0  0  0  0  0  0  0  0  0  0
    0.4280   -0.9690    0.0520 C   0  0  0  0  0  0  0  0  0  0  0  0
    1.8070   -0.9590   -0.0790 C   0  0  0  0  0  0  0  0  0  0  0  0
    2.5300   -2.1620    0.1910 N   0  0  0  0  0  0  0  0  0  0  0  0
   -1.7720    0.1690   -0.0580 C   0  0  0  0  0  0  0  0  0  0  0  0
   -2.4420   -0.8770    0.2980 C   0  0  0  0  0  0  0  0  0  0  0  0
   -3.9100   -0.8060    0.4180 C   0  0  0  0  0  0  0  0  0  0  0  0
   -4.4600    0.2840    0.1660 O   0  0  0  0  0  0  0  0  0  0  0  0
   -4.6630   -1.8840    0.7900 O   0  0  0  0  0  0  0  0  0  0  0  0
   -2.4410    1.3540   -0.3250 O   0  0  0  0  0  0  0  0  0  0  0  0
   -1.7450    2.5950   -0.3090 C   0  0  0  0  0  0  0  0  0  0  0  0
   -0.4370    2.4300   -0.8210 O   0  0  0  0  0  0  0  0  0  0  0  0
  1  2  1  0
  2  3  2  0
  2  7  1  0
  3  4  1  0
  4  5  2  0
  4 16  1  0
  5  6  1  0
  5  9  1  0
  6  7  2  0
  7  8  1  0
  9 10  2  3
  9 14  1  0
 10 11  1  0
 11 12  2  0
 11 13  1  0
 14 15  1  0
 15 16  1  0
M  END
