
     RDKit          3D

 16 17  0  0  0  0  0  0  0  0999 V2000
    3.9060    1.3340    0.1670 C   0  0  0  0  0  0  0  0  0  0  0  0
    2.8930    0.5390   -0.1220 C   0  0  0  0  0  0  0  0  0  0  0  0
    2.9860   -0.7390   -0.8060 C   0  0  0  0  0  0  0  0  0  0  0  0
    4.0360   -1.3200   -1.2430 O   0  0  0  0  0  0  0  0  0  0  0  0
    1.6180   -1.2270   -0.8900 C   0  0  0  0  0  0  0  0  0  0  0  0
    1.2700   -2.3120   -1.4160 O   0  0  0  0  0  0  0  0  0  0  0  0
    0.7260   -0.2390   -0.2580 C   0  0  0  0  0  0  0  0  0  0  0  0
   -0.7320   -0.4210   -0.1700 C   0  0  0  0  0  0  0  0  0  0  0  0
   -1.4170   -1.4600   -0.6300 C   0  0  0  0  0  0  0  0  0  0  0  0
   -2.8430   -1.3020   -0.3670 C   0  0  0  0  0  0  0  0  0  0  0  0
   -3.0710   -0.1820    0.2500 C   0  0  0  0  0  0  0  0  0  0  0  0
   -4.2850    0.3990    0.7080 N   0  0  0  0  0  0  0  0  0  0  0  0
   -1.7390    0.4450    0.4110 C   0  0  0  0  0  0  0  0  0  0  0  0
   -1.5090    1.5490    0.9620 O   0  0  0  0  0  0  0  0  0  0  0  0
    1.4730    0.7520    0.1680 C   0  0  0  0  0  0  0  0  0  0  0  0
    1.0310    1.8830    0.8180 O   0  0  0  0  0  0  0  0  0  0  0  0
  1  2  2  0
  2  3  1  0
  2 15  1  0
  3  4  2  0
  3  5  1  0
  5  6  2  0
  5  7  1  0
  7  8  1  0
  7 15  2  0
  8  9  2  0
  8 13  1  0
  9 10  1  0
 10 11  2  0
 11 12  1  0
 11 13  1  0
 13 14  2  0
 15 16  1  0
M  END
