
     RDKit          3D

 16 17  0  0  0  0  0  0  0  0999 V2000
    4.1040    0.8610    1.2400 C   0  0  0  0  0  0  0  0  0  0  0  0
    3.6180    0.3860   -0.0010 O   0  0  0  0  0  0  0  0  0  0  0  0
    2.2750    0.2070   -0.1770 C   0  0  0  0  0  0  0  0  0  0  0  0
    1.3710    0.4780    0.8260 C   0  0  0  0  0  0  0  0  0  0  0  0
    0.0210    0.2910    0.6300 C   0  0  0  0  0  0  0  0  0  0  0  0
   -0.8650    0.5540    1.6040 N   0  0  0  0  0  0  0  0  0  0  0  0
   -2.1930    0.3790    1.4350 C   0  0  0  0  0  0  0  0  0  0  0  0
   -2.9610    0.6480    2.3990 O   0  0  0  0  0  0  0  0  0  0  0  0
   -2.6700   -0.0770    0.2470 C   0  0  0  0  0  0  0  0  0  0  0  0
   -4.1280   -0.2710    0.0560 C   0  0  0  0  0  0  0  0  0  0  0  0
   -1.7790   -0.3550   -0.7730 C   0  0  0  0  0  0  0  0  0  0  0  0
   -2.2880   -0.8100   -1.9500 O   0  0  0  0  0  0  0  0  0  0  0  0
   -0.4310   -0.1800   -0.6080 C   0  0  0  0  0  0  0  0  0  0  0  0
    0.4600   -0.4560   -1.6220 C   0  0  0  0  0  0  0  0  0  0  0  0
    1.8130   -0.2620   -1.4060 C   0  0  0  0  0  0  0  0  0  0  0  0
    2.6810   -0.5470   -2.4410 O   0  0  0  0  0  0  0  0  0  0  0  0
  1  2  1  0
  2  3  1  0
  3  4  2  0
  3 15  1  0
  4  5  1  0
  5  6  1  0
  5 13  2  0
  6  7  1  0
  7  8  2  0
  7  9  1  0
  9 10  1  0
  9 11  2  0
 11 12  1  0
 11 13  1  0
 13 14  1  0
 14 15  2  0
 15 16  1  0
M  END
