
     RDKit          3D

 15 16  0  0  0  0  0  0  0  0999 V2000
   -4.0880   -0.6940   -0.2920 C   0  0  0  0  0  0  0  0  0  0  0  0
   -2.6440   -0.9810   -0.3880 C   0  0  0  0  0  0  0  0  0  0  0  0
   -2.2420   -2.2730   -0.7960 N   0  0  0  0  0  0  0  0  0  0  0  0
   -1.7830   -0.0290   -0.0900 C   0  0  0  0  0  0  0  0  0  0  0  0
   -0.3430   -0.2420   -0.1630 C   0  0  0  0  0  0  0  0  0  0  0  0
    0.5100    0.5740    0.4430 C   0  0  0  0  0  0  0  0  0  0  0  0
    1.9430    0.3540    0.3650 C   0  0  0  0  0  0  0  0  0  0  0  0
    2.7960    1.1390    0.9500 C   0  0  0  0  0  0  0  0  0  0  0  0
    4.1550    0.8880    0.8470 O   0  0  0  0  0  0  0  0  0  0  0  0
    4.6150    0.1890   -0.2950 C   0  0  0  0  0  0  0  0  0  0  0  0
    3.7860   -1.0660   -0.4270 C   0  0  0  0  0  0  0  0  0  0  0  0
    2.4090   -0.7270   -0.3560 O   0  0  0  0  0  0  0  0  0  0  0  0
   -0.0450    1.6350    1.1450 O   0  0  0  0  0  0  0  0  0  0  0  0
   -1.3940    1.6770    1.5640 C   0  0  0  0  0  0  0  0  0  0  0  0
   -2.2330    1.3190    0.3380 C   0  0  0  0  0  0  0  0  0  0  0  0
  1  2  1  0
  2  3  1  0
  2  4  2  3
  4  5  1  0
  4 15  1  0
  5  6  2  0
  6  7  1  0
  6 13  1  0
  7  8  2  0
  7 12  1  0
  8  9  1  0
  9 10  1  0
 10 11  1  0
 11 12  1  0
 13 14  1  0
 14 15  1  0
M  END
