
     RDKit          3D

 39 40  0  0  0  0  0  0  0  0999 V2000
   -1.0290    0.9680   -4.3620 C   0  0  0  0  0  0  0  0  0  0  0  0
   -1.1480    0.7240   -2.8620 C   0  0  1  0  0  0  0  0  0  0  0  0
    0.2320    0.6780   -2.2190 C   0  0  0  0  0  0  0  0  0  0  0  0
    0.1390    1.3010   -0.8470 C   0  0  0  0  0  0  0  0  0  0  0  0
    1.2520    0.9270    0.0790 C   0  0  2  0  0  0  0  0  0  0  0  0
    2.3750    0.2510   -0.7020 C   0  0  0  0  0  0  0  0  0  0  0  0
    2.8410    0.7870   -1.7340 O   0  0  0  0  0  0  0  0  0  0  0  0
    2.9000   -0.9500   -0.3040 O   0  0  0  0  0  0  0  0  0  0  0  0
    3.9310   -1.6540   -0.9440 C   0  0  0  0  0  0  0  0  0  0  0  0
    5.1760   -0.8010   -0.9280 C   0  0  0  0  0  0  0  0  0  0  0  0
    5.5900   -0.4770    0.5100 C   0  0  0  0  0  0  0  0  0  0  0  0
    5.8420   -1.6740    1.1790 O   0  0  0  0  0  0  0  0  0  0  0  0
    6.2000   -1.5040    2.4090 O   0  0  0  0  0  0  0  0  0  0  0  0
    6.9040   -0.4380    2.6360 O   0  0  0  0  0  0  0  0  0  0  0  0
    8.1810   -0.7880    2.5820 O   0  0  0  0  0  0  0  0  0  0  0  0
    0.9740    0.1120    1.1230 O   0  0  0  0  0  0  0  0  0  0  0  0
    0.3780   -0.1490    2.2450 C   0  0  0  0  0  0  0  0  0  0  0  0
    0.8890    0.1830    3.3870 O   0  0  0  0  0  0  0  0  0  0  0  0
   -0.9120   -0.8300    2.4250 C   0  0  1  0  0  0  0  0  0  0  0  0
   -0.5770   -2.1170    2.9360 O   0  0  0  0  0  0  0  0  0  0  0  0
   -1.6540   -0.2640    3.4790 O   0  0  0  0  0  0  0  0  0  0  0  0
   -2.6050    0.6360    3.1230 C   0  0  0  0  0  0  0  0  0  0  0  0
   -2.1770    1.8300    2.3510 C   0  0  0  0  0  0  0  0  0  0  0  0
   -3.0400    2.3710    1.4460 O   0  0  0  0  0  0  0  0  0  0  0  0
   -4.1950    2.1430    0.8390 C   0  0  0  0  0  0  0  0  0  0  0  0
   -5.1090    3.0510    1.0320 O   0  0  0  0  0  0  0  0  0  0  0  0
   -4.6870    1.0710   -0.0210 C   0  0  0  0  0  0  0  0  0  0  0  0
   -3.8510    0.7150   -1.1870 N   0  0  0  0  0  0  0  0  0  0  0  0
   -3.9620   -0.5350   -1.8190 N   0  0  0  0  0  0  0  0  0  0  0  0
   -3.4890   -1.7830   -1.3210 C   0  0  0  0  0  0  0  0  0  0  0  0
   -4.4320   -2.6950   -1.2760 O   0  0  0  0  0  0  0  0  0  0  0  0
   -2.2580   -2.2730   -0.8690 N   0  0  0  0  0  0  0  0  0  0  0  0
   -1.3810   -1.8040    0.1500 C   0  0  0  0  0  0  0  0  0  0  0  0
   -0.1330   -1.9940    0.1580 O   0  0  0  0  0  0  0  0  0  0  0  0
   -1.8340   -1.0320    1.3280 C   0  0  1  0  0  0  0  0  0  0  0  0
   -2.8740   -1.8570    1.8730 O   0  0  0  0  0  0  0  0  0  0  0  0
   -2.9770    1.7970   -1.5150 C   0  0  0  0  0  0  0  0  0  0  0  0
   -3.2640    3.0020   -1.0770 O   0  0  0  0  0  0  0  0  0  0  0  0
   -1.8250    1.7840   -2.2520 O   0  0  0  0  0  0  0  0  0  0  0  0
  2  1  1  6
  2  3  1  0
  2 39  1  0
  3  4  1  0
  4  5  1  0
  5  6  1  6
  5 16  1  0
  6  7  2  0
  6  8  1  0
  8  9  1  0
  9 10  1  0
 10 11  1  0
 11 12  1  0
 12 13  1  0
 13 14  1  0
 14 15  1  0
 16 17  1  0
 17 18  2  0
 17 19  1  0
 19 20  1  1
 19 21  1  0
 19 35  1  0
 21 22  1  0
 22 23  1  0
 23 24  1  0
 24 25  1  0
 25 26  2  0
 25 27  1  0
 27 28  1  0
 28 29  1  0
 28 37  1  0
 29 30  1  0
 30 31  2  0
 30 32  1  0
 32 33  1  0
 33 34  2  0
 33 35  1  0
 35 36  1  1
 37 38  2  0
 37 39  1  0
M  END
