
     RDKit          3D

 39 42  0  0  0  0  0  0  0  0999 V2000
   -1.9410    5.3800    0.2430 C   0  0  0  0  0  0  0  0  0  0  0  0
   -0.9710    4.5330    0.7400 O   0  0  0  0  0  0  0  0  0  0  0  0
   -0.4580    3.7110   -0.1170 O   0  0  0  0  0  0  0  0  0  0  0  0
   -0.9900    2.5130   -0.1010 O   0  0  0  0  0  0  0  0  0  0  0  0
   -0.9300    1.8820    1.1450 C   0  0  2  0  0  0  0  0  0  0  0  0
   -0.0540    0.8090    1.2270 O   0  0  0  0  0  0  0  0  0  0  0  0
    0.4420   -0.1270    0.4150 C   0  0  0  0  0  0  0  0  0  0  0  0
   -0.3460   -1.1010    0.0090 C   0  0  0  0  0  0  0  0  0  0  0  0
    0.1190   -2.0780   -0.8290 O   0  0  0  0  0  0  0  0  0  0  0  0
    1.3660   -2.1950   -1.3890 C   0  0  2  0  0  0  0  0  0  0  0  0
    1.3390   -2.0320   -2.7960 O   0  0  0  0  0  0  0  0  0  0  0  0
    1.9090   -3.4440   -1.0850 O   0  0  0  0  0  0  0  0  0  0  0  0
    3.2220   -3.4320   -1.0000 O   0  0  0  0  0  0  0  0  0  0  0  0
    4.0690   -2.4310   -1.4240 C   0  0  0  0  0  0  0  0  0  0  0  0
    3.6220   -1.2050   -1.3780 N   0  0  0  0  0  0  0  0  0  0  0  0
    2.2620   -1.1070   -0.8720 C   0  0  0  0  0  0  0  0  0  0  0  0
    1.8430   -0.1620   -0.0740 C   0  0  0  0  0  0  0  0  0  0  0  0
    2.7380    0.8760    0.3090 N   0  0  0  0  0  0  0  0  0  0  0  0
    2.4180    1.8350    1.3820 C   0  0  0  0  0  0  0  0  0  0  0  0
    3.6040    2.4470    1.7990 O   0  0  0  0  0  0  0  0  0  0  0  0
    4.6200    1.6530    1.9350 O   0  0  0  0  0  0  0  0  0  0  0  0
    5.0780    1.3490    0.7040 N   0  0  0  0  0  0  0  0  0  0  0  0
    6.3750    1.3270    0.4390 O   0  0  0  0  0  0  0  0  0  0  0  0
    6.8000    0.0150    0.2500 C   0  0  0  0  0  0  0  0  0  0  0  0
    4.0220    1.0690   -0.2440 C   0  0  0  0  0  0  0  0  0  0  0  0
    4.2760    1.0180   -1.4500 O   0  0  0  0  0  0  0  0  0  0  0  0
   -1.7720   -1.2220    0.4240 C   0  0  1  0  0  0  0  0  0  0  0  0
   -2.1810   -2.7060    0.3320 C   0  0  0  0  0  0  0  0  0  0  0  0
   -1.8980   -0.9490    1.7820 F   0  0  0  0  0  0  0  0  0  0  0  0
   -2.6150   -0.4020   -0.4670 C   0  0  0  0  0  0  0  0  0  0  0  0
   -3.6890    0.2840    0.2170 N   0  0  0  0  0  0  0  0  0  0  0  0
   -4.4090   -0.5560    0.9910 O   0  0  0  0  0  0  0  0  0  0  0  0
   -5.7130   -1.3260    0.2000 P   0  0  0  0  0  0  0  0  0  0  0  0
   -5.3980   -1.7990   -1.4160 O   0  0  0  0  0  0  0  0  0  0  0  0
   -6.2570   -2.8290    1.1320 C   0  0  0  0  0  0  0  0  0  0  0  0
   -5.9730   -4.3480    0.5530 P   0  0  0  0  0  0  0  0  0  0  0  0
   -3.3120    1.4070    0.8600 O   0  0  0  0  0  0  0  0  0  0  0  0
   -2.2910    1.6830    1.6970 C   0  0  0  0  0  0  0  0  0  0  0  0
   -2.3910    1.7950    2.9660 O   0  0  0  0  0  0  0  0  0  0  0  0
  1  2  1  0
  2  3  1  0
  3  4  1  0
  5  4  1  6
  5  6  1  0
  5 38  1  0
  6  7  1  0
  7  8  2  0
  7 17  1  0
  8  9  1  0
  8 27  1  0
  9 10  1  0
 10 11  1  6
 10 12  1  0
 10 16  1  0
 12 13  1  0
 13 14  1  0
 14 15  2  0
 15 16  1  0
 16 17  2  0
 17 18  1  0
 18 19  1  0
 18 25  1  0
 19 20  1  0
 20 21  1  0
 21 22  1  0
 22 23  1  0
 22 25  1  0
 23 24  1  0
 25 26  2  0
 27 28  1  1
 27 29  1  0
 27 30  1  0
 30 31  1  0
 31 32  1  0
 31 37  1  0
 32 33  1  0
 33 34  1  0
 33 35  1  0
 35 36  2  0
 37 38  1  0
 38 39  2  0
M  END
