
     RDKit          3D

 36 38  0  0  0  0  0  0  0  0999 V2000
    9.9380   -0.7950   -2.0460 O   0  0  0  0  0  0  0  0  0  0  0  0
    8.8910   -0.8110   -1.3420 C   0  0  0  0  0  0  0  0  0  0  0  0
    8.8300   -1.6790   -0.2610 C   0  0  0  0  0  0  0  0  0  0  0  0
    7.6620   -1.6700    0.4920 C   0  0  0  0  0  0  0  0  0  0  0  0
    6.6490   -0.8500    0.1710 N   0  0  0  0  0  0  0  0  0  0  0  0
    5.4220   -0.8440    0.9670 C   0  0  2  0  0  0  0  0  0  0  0  0
    4.3630   -1.0760    0.1140 O   0  0  0  0  0  0  0  0  0  0  0  0
    3.2240   -0.5180    0.7240 C   0  0  2  0  0  0  0  0  0  0  0  0
    2.1990   -0.3490   -0.3760 C   0  0  0  0  0  0  0  0  0  0  0  0
    1.0080    0.2020    0.0960 O   0  0  0  0  0  0  0  0  0  0  0  0
   -0.0300    0.3270   -1.2430 P   0  0  2  0  0  0  0  0  0  0  0  0
   -0.7040   -1.0100   -1.4600 O   0  0  0  0  0  0  0  0  0  0  0  0
    0.8390    0.6900   -2.6530 O   0  0  0  0  0  0  0  0  0  0  0  0
   -1.2300    1.4670   -0.9430 O   0  0  0  0  0  0  0  0  0  0  0  0
   -2.6250    0.9530   -1.7860 P   0  0  2  0  0  0  0  0  0  0  0  0
   -2.3190    0.6560   -3.2210 O   0  0  0  0  0  0  0  0  0  0  0  0
   -3.7250    2.2360   -1.7270 O   0  0  0  0  0  0  0  0  0  0  0  0
   -3.3110   -0.3930   -0.9900 O   0  0  0  0  0  0  0  0  0  0  0  0
   -4.4990   -0.0510   -0.3730 C   0  0  1  0  0  0  0  0  0  0  0  0
   -5.5570   -0.7880   -0.8900 O   0  0  0  0  0  0  0  0  0  0  0  0
   -6.6700   -0.6990   -0.0850 C   0  0  2  0  0  0  0  0  0  0  0  0
   -7.8920   -0.7690   -0.9560 C   0  0  0  0  0  0  0  0  0  0  0  0
   -7.9010    0.2780   -1.8790 O   0  0  0  0  0  0  0  0  0  0  0  0
   -6.6620    0.5150    0.8060 C   0  0  1  0  0  0  0  0  0  0  0  0
   -7.9060    0.6100    1.4340 O   0  0  0  0  0  0  0  0  0  0  0  0
   -5.5520    0.2930    1.8360 C   0  0  2  0  0  0  0  0  0  0  0  0
   -5.1360    1.4800    2.4040 O   0  0  0  0  0  0  0  0  0  0  0  0
   -4.4020   -0.3460    1.1090 C   0  0  1  0  0  0  0  0  0  0  0  0
   -4.4550   -1.7300    1.2620 O   0  0  0  0  0  0  0  0  0  0  0  0
    3.7510    0.8000    1.2060 C   0  0  1  0  0  0  0  0  0  0  0  0
    2.9850    1.1820    2.3080 O   0  0  0  0  0  0  0  0  0  0  0  0
    5.1750    0.5170    1.5700 C   0  0  1  0  0  0  0  0  0  0  0  0
    5.2830    0.4770    2.9530 O   0  0  0  0  0  0  0  0  0  0  0  0
    6.7330   -0.0190   -0.8800 C   0  0  0  0  0  0  0  0  0  0  0  0
    5.7630    0.7240   -1.1370 O   0  0  0  0  0  0  0  0  0  0  0  0
    7.8600   -0.0190   -1.6170 N   0  0  0  0  0  0  0  0  0  0  0  0
  1  2  2  0
  2  3  1  0
  2 36  1  0
  3  4  2  0
  4  5  1  0
  6  5  1  6
  5 34  1  0
  6  7  1  0
  6 32  1  0
  7  8  1  0
  8  9  1  6
  8 30  1  0
  9 10  1  0
 10 11  1  0
 11 12  2  0
 11 13  1  6
 11 14  1  0
 14 15  1  0
 15 16  2  0
 15 17  1  6
 15 18  1  0
 19 18  1  6
 19 20  1  0
 19 28  1  0
 20 21  1  0
 21 22  1  6
 21 24  1  0
 22 23  1  0
 24 25  1  1
 24 26  1  0
 26 27  1  6
 26 28  1  0
 28 29  1  6
 30 31  1  1
 30 32  1  0
 32 33  1  1
 34 35  2  0
 34 36  1  0
M  END
