
     RDKit          3D

 39 39  0  0  0  0  0  0  0  0999 V2000
   -2.8840   -0.3650   -3.3040 C   0  0  0  0  0  0  0  0  0  0  0  0
   -3.1920    0.1950   -2.0350 O   0  0  0  0  0  0  0  0  0  0  0  0
   -2.6770   -0.4600   -0.9250 C   0  0  0  0  0  0  0  0  0  0  0  0
   -3.2480   -1.5840   -0.5760 C   0  0  0  0  0  0  0  0  0  0  0  0
   -2.8640   -2.3940    0.5260 N   0  0  0  0  0  0  0  0  0  0  0  0
   -3.4530   -3.5750    0.9020 N   0  0  0  0  0  0  0  0  0  0  0  0
   -4.8580   -3.6920    0.7360 C   0  0  1  0  0  0  0  0  0  0  0  0
   -5.5380   -2.5900    1.5380 C   0  0  0  0  0  0  0  0  0  0  0  0
   -5.3250   -3.8150   -0.5440 O   0  0  0  0  0  0  0  0  0  0  0  0
   -5.9950   -5.0170   -0.7620 C   0  0  0  0  0  0  0  0  0  0  0  0
   -1.7630   -1.9060    1.2880 C   0  0  0  0  0  0  0  0  0  0  0  0
   -1.3570   -2.5630    2.2830 O   0  0  0  0  0  0  0  0  0  0  0  0
   -1.0800   -0.6750    0.9680 N   0  0  0  0  0  0  0  0  0  0  0  0
   -1.5230    0.0820   -0.1530 C   0  0  0  0  0  0  0  0  0  0  0  0
   -1.0160    1.2290   -0.5470 C   0  0  0  0  0  0  0  0  0  0  0  0
    0.0850    1.9480    0.0170 C   0  0  0  0  0  0  0  0  0  0  0  0
    0.4230    3.1210   -0.5280 C   0  0  0  0  0  0  0  0  0  0  0  0
   -0.2760    3.6230   -1.6090 O   0  0  0  0  0  0  0  0  0  0  0  0
   -1.5410    3.9880   -1.5690 O   0  0  0  0  0  0  0  0  0  0  0  0
   -1.7160    5.2120   -1.1900 O   0  0  0  0  0  0  0  0  0  0  0  0
   -0.6980    5.7310   -0.3970 C   0  0  0  0  0  0  0  0  0  0  0  0
   -1.1900    7.4890    0.0130 P   0  0  0  0  0  0  0  0  0  0  0  0
   -1.5400    7.6100    1.7190 O   0  0  0  0  0  0  0  0  0  0  0  0
    0.4030    8.8920   -0.5420 P   0  0  0  0  0  0  0  0  0  0  0  0
    0.8320    1.5300    1.0730 O   0  0  0  0  0  0  0  0  0  0  0  0
    2.0590    0.8520    0.8480 C   0  0  0  0  0  0  0  0  0  0  0  0
    2.4300    0.6530   -0.3300 O   0  0  0  0  0  0  0  0  0  0  0  0
    2.8400    0.4150    1.8810 O   0  0  0  0  0  0  0  0  0  0  0  0
    4.0950   -0.2760    1.6390 C   0  0  0  0  0  0  0  0  0  0  0  0
    3.9010   -1.4120    0.9300 O   0  0  0  0  0  0  0  0  0  0  0  0
    4.9270   -2.0860    0.6670 O   0  0  0  0  0  0  0  0  0  0  0  0
    6.1380   -1.5730    0.3960 C   0  0  1  0  0  0  0  0  0  0  0  0
    6.0560   -0.6970   -0.6980 F   0  0  0  0  0  0  0  0  0  0  0  0
    6.9660   -1.0490    1.4780 C   0  0  0  0  0  0  0  0  0  0  0  0
    8.0730   -1.5580    1.7730 O   0  0  0  0  0  0  0  0  0  0  0  0
    6.9400   -2.7160   -0.1950 N   0  0  0  0  0  0  0  0  0  0  0  0
    6.9740   -3.6760    0.7550 O   0  0  0  0  0  0  0  0  0  0  0  0
    8.1700   -4.1310    0.9840 O   0  0  0  0  0  0  0  0  0  0  0  0
    8.8330   -4.1040   -0.1500 O   0  0  0  0  0  0  0  0  0  0  0  0
  1  2  1  0
  2  3  1  0
  3  4  2  0
  3 14  1  0
  4  5  1  0
  5  6  1  0
  5 11  1  0
  6  7  1  0
  7  8  1  6
  7  9  1  0
  9 10  1  0
 11 12  2  0
 11 13  1  0
 13 14  1  0
 14 15  2  3
 15 16  1  0
 16 17  2  3
 16 25  1  0
 17 18  1  0
 18 19  1  0
 19 20  1  0
 20 21  1  0
 21 22  1  0
 22 23  1  0
 22 24  1  0
 25 26  1  0
 26 27  2  0
 26 28  1  0
 28 29  1  0
 29 30  1  0
 30 31  1  0
 31 32  1  0
 32 33  1  6
 32 34  1  0
 32 36  1  0
 34 35  2  0
 36 37  1  0
 37 38  1  0
 38 39  1  0
M  END
