
     RDKit          3D

 14 14  0  0  0  0  0  0  0  0999 V2000
    4.0400    0.0240    0.6370 C   0  0  0  0  0  0  0  0  0  0  0  0
    2.8710    0.6510    0.0810 O   0  0  0  0  0  0  0  0  0  0  0  0
    2.3530    0.2300   -1.1370 C   0  0  0  0  0  0  0  0  0  0  0  0
    2.9830   -0.7290   -1.7020 O   0  0  0  0  0  0  0  0  0  0  0  0
    1.1500    0.8300   -1.7680 C   0  0  0  0  0  0  0  0  0  0  0  0
   -0.0900    0.0250   -1.6080 C   0  0  0  0  0  0  0  0  0  0  0  0
   -0.5050   -0.2080   -0.1640 C   0  0  1  0  0  0  0  0  0  0  0  0
    0.5580   -0.8830    0.4450 O   0  0  0  0  0  0  0  0  0  0  0  0
   -0.7750    1.0890    0.5010 C   0  0  0  0  0  0  0  0  0  0  0  0
   -1.7950    1.1720    1.5480 C   0  0  0  0  0  0  0  0  0  0  0  0
   -2.8940    0.1680    1.5390 C   0  0  0  0  0  0  0  0  0  0  0  0
   -2.9260   -0.4940    0.2220 C   0  0  0  0  0  0  0  0  0  0  0  0
   -3.9120   -0.5050   -0.4650 O   0  0  0  0  0  0  0  0  0  0  0  0
   -1.6830   -1.1480   -0.2220 C   0  0  0  0  0  0  0  0  0  0  0  0
  1  2  1  0
  2  3  1  0
  3  4  2  0
  3  5  1  0
  5  6  1  0
  6  7  1  0
  7  8  1  1
  7  9  1  0
  7 14  1  0
  9 10  1  0
 10 11  1  0
 11 12  1  0
 12 13  2  0
 12 14  1  0
M  END
