
     RDKit          3D

 14 14  0  0  0  0  0  0  0  0999 V2000
   -3.7650    1.7500    0.1800 C   0  0  0  0  0  0  0  0  0  0  0  0
   -3.1980    0.4170    0.4590 C   0  0  0  0  0  0  0  0  0  0  0  0
   -2.8550   -0.3950   -0.5290 C   0  0  0  0  0  0  0  0  0  0  0  0
   -2.2950   -1.7100   -0.2040 C   0  0  0  0  0  0  0  0  0  0  0  0
   -0.9810   -1.8980   -0.7230 O   0  0  0  0  0  0  0  0  0  0  0  0
    0.0810   -1.1010   -0.3860 C   0  0  0  0  0  0  0  0  0  0  0  0
   -0.1710   -0.1560    0.4390 O   0  0  0  0  0  0  0  0  0  0  0  0
    1.4320   -1.2590   -0.8910 C   0  0  0  0  0  0  0  0  0  0  0  0
    2.4330   -0.4790   -0.5500 C   0  0  0  0  0  0  0  0  0  0  0  0
    2.4060    0.6920    0.3920 C   0  0  0  0  0  0  0  0  0  0  0  0
    3.8600    1.0400    0.6200 C   0  0  0  0  0  0  0  0  0  0  0  0
    4.5040    0.5910   -0.5810 O   0  0  0  0  0  0  0  0  0  0  0  0
    3.8150   -0.5630   -1.0070 C   0  0  0  0  0  0  0  0  0  0  0  0
    4.2590   -1.5290   -1.6670 O   0  0  0  0  0  0  0  0  0  0  0  0
  1  2  1  0
  2  3  2  3
  3  4  1  0
  4  5  1  0
  5  6  1  0
  6  7  2  0
  6  8  1  0
  8  9  2  3
  9 10  1  0
  9 13  1  0
 10 11  1  0
 11 12  1  0
 12 13  1  0
 13 14  2  0
M  END
