
     RDKit          3D

 14 14  0  0  0  0  0  0  0  0999 V2000
    5.4410    0.3120    0.5320 C   0  0  0  0  0  0  0  0  0  0  0  0
    4.2370    0.2940   -0.0520 C   0  0  0  0  0  0  0  0  0  0  0  0
    3.0160   -0.2800    0.4970 C   0  0  0  0  0  0  0  0  0  0  0  0
    1.9960   -0.1330   -0.3310 C   0  0  0  0  0  0  0  0  0  0  0  0
    0.5800   -0.5950   -0.1120 C   0  0  0  0  0  0  0  0  0  0  0  0
   -0.3700    0.5810   -0.1430 C   0  0  0  0  0  0  0  0  0  0  0  0
   -1.7450    0.0450    0.0800 C   0  0  0  0  0  0  0  0  0  0  0  0
   -1.9590   -1.2020    0.2540 O   0  0  0  0  0  0  0  0  0  0  0  0
   -2.8600    0.8600    0.1110 O   0  0  0  0  0  0  0  0  0  0  0  0
   -4.1610    0.3290    0.3250 C   0  0  0  0  0  0  0  0  0  0  0  0
   -4.5600   -0.6660   -0.7380 C   0  0  0  0  0  0  0  0  0  0  0  0
    2.5210    0.5660   -1.4950 C   0  0  0  0  0  0  0  0  0  0  0  0
    1.8330    0.8760   -2.4860 O   0  0  0  0  0  0  0  0  0  0  0  0
    3.8900    0.8110   -1.2910 O   0  0  0  0  0  0  0  0  0  0  0  0
  1  2  2  0
  2  3  1  0
  2 14  1  0
  3  4  2  0
  4  5  1  0
  4 12  1  0
  5  6  1  0
  6  7  1  0
  7  8  2  0
  7  9  1  0
  9 10  1  0
 10 11  1  0
 12 13  2  0
 12 14  1  0
M  END
