
     RDKit          3D

 14 15  0  0  0  0  0  0  0  0999 V2000
   -2.0200    1.0200   -1.6010 O   0  0  0  0  0  0  0  0  0  0  0  0
   -2.8070    0.6150   -0.7430 C   0  0  0  0  0  0  0  0  0  0  0  0
   -3.9780    1.4010   -0.5870 O   0  0  0  0  0  0  0  0  0  0  0  0
   -2.7240   -0.5410    0.1330 C   0  0  0  0  0  0  0  0  0  0  0  0
   -1.5280   -1.4080    0.0340 C   0  0  0  0  0  0  0  0  0  0  0  0
   -0.2380   -0.7760    0.3050 C   0  0  0  0  0  0  0  0  0  0  0  0
    0.2100   -0.6620    1.6080 C   0  0  0  0  0  0  0  0  0  0  0  0
    1.4500   -0.0770    1.8750 C   0  0  0  0  0  0  0  0  0  0  0  0
    2.2320    0.3900    0.8330 C   0  0  0  0  0  0  0  0  0  0  0  0
    1.7960    0.2810   -0.4690 C   0  0  0  0  0  0  0  0  0  0  0  0
    0.5480   -0.3100   -0.7110 C   0  0  0  0  0  0  0  0  0  0  0  0
    2.7450    0.8150   -1.3280 O   0  0  0  0  0  0  0  0  0  0  0  0
    3.9430    0.9490   -0.5900 C   0  0  0  0  0  0  0  0  0  0  0  0
    3.4780    1.0060    0.7460 O   0  0  0  0  0  0  0  0  0  0  0  0
  1  2  2  0
  2  3  1  0
  2  4  1  0
  4  5  1  0
  5  6  1  0
  6  7  2  0
  6 11  1  0
  7  8  1  0
  8  9  2  0
  9 10  1  0
  9 14  1  0
 10 11  2  0
 10 12  1  0
 12 13  1  0
 13 14  1  0
M  END
