
     RDKit          3D

 11 11  0  0  0  0  0  0  0  0999 V2000
   -1.1110    2.4430    0.0820 C   0  0  0  0  0  0  0  0  0  0  0  0
    0.5240    1.6980   -0.0490 S   0  0  0  0  0  0  0  0  0  0  0  0
    0.4260   -0.1140   -0.1640 C   0  0  0  0  0  0  0  0  0  0  0  0
    1.5550   -0.7830   -0.3070 C   0  0  0  0  0  0  0  0  0  0  0  0
    2.9210   -0.3000   -0.3890 C   0  0  0  0  0  0  0  0  0  0  0  0
    3.8660   -1.1100   -0.5270 O   0  0  0  0  0  0  0  0  0  0  0  0
    3.2220    1.0470   -0.3200 O   0  0  0  0  0  0  0  0  0  0  0  0
    1.0830   -2.5110   -0.4300 S   0  0  0  0  0  0  0  0  0  0  0  0
   -0.6680   -2.1180   -0.8960 C   0  0  0  0  0  0  0  0  0  0  0  0
   -0.7440   -0.8720   -0.1040 N   0  0  0  0  0  0  0  0  0  0  0  0
   -1.9430   -0.5510    0.6460 C   0  0  0  0  0  0  0  0  0  0  0  0
  1  2  1  0
  2  3  1  0
  3  4  2  0
  3 10  1  0
  4  5  1  0
  4  8  1  0
  5  6  2  0
  5  7  1  0
  8  9  1  0
  9 10  1  0
 10 11  1  0
M  END
