
     RDKit          3D

 11 11  0  0  0  0  0  0  0  0999 V2000
   -2.0510   -0.7200    0.1760 C   0  0  0  0  0  0  0  0  0  0  0  0
   -1.4640    0.5110    0.5200 N   0  0  0  0  0  0  0  0  0  0  0  0
   -1.6160    1.5660   -0.4400 C   0  0  0  0  0  0  0  0  0  0  0  0
   -0.0050    0.4760    1.3470 S   0  0  1  0  0  0  0  0  0  0  0  0
    0.5170    1.8220    1.7360 O   0  0  0  0  0  0  0  0  0  0  0  0
   -0.1360   -0.3260    2.6010 O   0  0  0  0  0  0  0  0  0  0  0  0
    1.1970   -0.3430    0.2860 C   0  0  0  0  0  0  0  0  0  0  0  0
    2.0230    0.2890   -0.5630 C   0  0  0  0  0  0  0  0  0  0  0  0
    2.9020   -0.4810   -1.3290 C   0  0  0  0  0  0  0  0  0  0  0  0
    2.5530   -2.1640   -0.8360 S   0  0  0  0  0  0  0  0  0  0  0  0
    1.2640   -1.7080    0.3520 C   0  0  0  0  0  0  0  0  0  0  0  0
  1  2  1  0
  2  3  1  0
  4  2  1  6
  4  5  2  0
  4  6  2  0
  4  7  1  0
  7  8  1  0
  7 11  2  0
  8  9  2  0
  9 10  1  0
 10 11  1  0
M  END
