
     RDKit          3D

 11 11  0  0  0  0  0  0  0  0999 V2000
    3.8310    0.0310    0.4080 C   0  0  0  0  0  0  0  0  0  0  0  0
    2.4960    0.3210   -0.0140 O   0  0  0  0  0  0  0  0  0  0  0  0
    1.5000   -0.6440   -0.0100 C   0  0  0  0  0  0  0  0  0  0  0  0
    1.8170   -1.7950    0.3830 O   0  0  0  0  0  0  0  0  0  0  0  0
    0.1280   -0.3330   -0.4470 C   0  0  0  0  0  0  0  0  0  0  0  0
   -0.1530    0.8930   -0.8510 C   0  0  0  0  0  0  0  0  0  0  0  0
   -1.8140    1.2590   -1.3770 S   0  0  0  0  0  0  0  0  0  0  0  0
   -2.9280    0.4870   -0.2180 C   0  0  0  0  0  0  0  0  0  0  0  0
   -3.9270    1.1100    0.2820 N   0  0  0  0  0  0  0  0  0  0  0  0
   -2.7050   -0.9070    0.1850 C   0  0  0  0  0  0  0  0  0  0  0  0
   -1.1430   -1.5860   -0.4350 S   0  0  0  0  0  0  0  0  0  0  0  0
  1  2  1  0
  2  3  1  0
  3  4  2  0
  3  5  1  0
  5  6  2  0
  5 11  1  0
  6  7  1  0
  7  8  1  0
  8  9  2  0
  8 10  1  0
 10 11  1  0
M  END
