
     RDKit          3D

 11 11  0  0  0  0  0  0  0  0999 V2000
    2.9540    0.5510   -0.0210 C   0  0  0  0  0  0  0  0  0  0  0  0
    2.5110   -0.5930   -0.8880 C   0  0  0  0  0  0  0  0  0  0  0  0
    1.3110   -1.6630   -0.0600 S   0  0  0  0  0  0  0  0  0  0  0  0
   -0.2280   -0.8810    0.2440 C   0  0  0  0  0  0  0  0  0  0  0  0
   -1.1590   -1.5070    0.8450 N   0  0  0  0  0  0  0  0  0  0  0  0
   -2.4380   -0.9620    1.1380 C   0  0  0  0  0  0  0  0  0  0  0  0
   -3.3230   -1.6610    1.7500 O   0  0  0  0  0  0  0  0  0  0  0  0
   -2.8400    0.3890    0.7810 C   0  0  0  0  0  0  0  0  0  0  0  0
   -3.6170    1.0990    1.4710 O   0  0  0  0  0  0  0  0  0  0  0  0
   -2.2950    0.9690   -0.4850 C   0  0  0  0  0  0  0  0  0  0  0  0
   -0.4760    0.7930   -0.2910 S   0  0  0  0  0  0  0  0  0  0  0  0
  1  2  1  0
  2  3  1  0
  3  4  1  0
  4  5  2  0
  4 11  1  0
  5  6  1  0
  6  7  2  0
  6  8  1  0
  8  9  2  0
  8 10  1  0
 10 11  1  0
M  END
