
     RDKit          3D

 12 12  0  0  0  0  0  0  0  0999 V2000
    0.2720    2.1060   -0.3060 N   0  0  0  0  0  0  0  0  0  0  0  0
   -0.4650    0.9130   -0.3400 C   0  0  0  0  0  0  0  0  0  0  0  0
    0.2150   -0.2910   -0.4320 C   0  0  0  0  0  0  0  0  0  0  0  0
    2.0100   -0.2680   -0.5030 S   0  0  0  0  0  0  0  0  0  0  0  0
    2.6830   -0.3460    1.0880 O   0  0  0  0  0  0  0  0  0  0  0  0
    4.3950   -0.2730    0.8910 S   0  0  0  0  0  0  0  0  0  0  0  0
   -0.4690   -1.4470   -0.4660 N   0  0  0  0  0  0  0  0  0  0  0  0
   -1.8150   -1.4410   -0.4120 C   0  0  0  0  0  0  0  0  0  0  0  0
   -2.4460   -2.5500   -0.4450 O   0  0  0  0  0  0  0  0  0  0  0  0
   -2.5030   -0.2850   -0.3220 N   0  0  0  0  0  0  0  0  0  0  0  0
   -1.8300    0.8820   -0.2870 C   0  0  0  0  0  0  0  0  0  0  0  0
   -2.4920    1.9410   -0.2030 O   0  0  0  0  0  0  0  0  0  0  0  0
  1  2  1  0
  2  3  2  0
  2 11  1  0
  3  4  1  0
  3  7  1  0
  4  5  1  0
  5  6  1  0
  7  8  1  0
  8  9  2  0
  8 10  1  0
 10 11  1  0
 11 12  2  0
M  END
