
     RDKit          3D

 11 11  0  0  0  0  0  0  0  0999 V2000
    3.6140    0.3240   -0.0120 C   0  0  0  0  0  0  0  0  0  0  0  0
    2.2790   -0.8610   -0.0400 S   0  0  1  0  0  0  0  0  0  0  0  0
    2.4250   -1.7640   -1.2400 O   0  0  0  0  0  0  0  0  0  0  0  0
    2.2380   -1.7020    1.1810 O   0  0  0  0  0  0  0  0  0  0  0  0
    0.7600    0.0790   -0.1370 C   0  0  0  0  0  0  0  0  0  0  0  0
   -0.4040   -0.8650   -0.1100 C   0  0  0  0  0  0  0  0  0  0  0  0
   -1.6780   -0.1260   -0.1950 N   0  0  0  0  0  0  0  0  0  0  0  0
   -1.7850    1.2070   -0.5530 C   0  0  0  0  0  0  0  0  0  0  0  0
   -2.8490    1.8650   -0.1530 C   0  0  0  0  0  0  0  0  0  0  0  0
   -3.8220    0.6850    0.7740 S   0  0  0  0  0  0  0  0  0  0  0  0
   -2.9510   -0.8010    0.0760 C   0  0  0  0  0  0  0  0  0  0  0  0
  2  1  1  1
  2  3  2  0
  2  4  2  0
  2  5  1  0
  5  6  1  0
  6  7  1  0
  7  8  1  0
  7 11  1  0
  8  9  2  0
  9 10  1  0
 10 11  1  0
M  END
