
     RDKit          3D

 11 11  0  0  0  0  0  0  0  0999 V2000
    3.3130    0.7680    0.9420 C   0  0  0  0  0  0  0  0  0  0  0  0
    3.0200   -0.9830    0.7090 S   0  0  0  0  0  0  0  0  0  0  0  0
    1.2750   -1.2340    0.2380 C   0  0  0  0  0  0  0  0  0  0  0  0
    1.0900   -0.6000   -1.1330 C   0  0  0  0  0  0  0  0  0  0  0  0
   -0.2180   -0.7220   -1.6170 O   0  0  0  0  0  0  0  0  0  0  0  0
   -1.3140   -0.2090   -0.9770 C   0  0  0  0  0  0  0  0  0  0  0  0
   -1.3690    0.2940    0.1770 N   0  0  0  0  0  0  0  0  0  0  0  0
   -2.5790    0.7630    0.6520 C   0  0  0  0  0  0  0  0  0  0  0  0
   -2.7410    1.5850    1.6270 O   0  0  0  0  0  0  0  0  0  0  0  0
   -3.7840    0.2510   -0.0540 C   0  0  0  0  0  0  0  0  0  0  0  0
   -2.9580   -0.1380   -1.6580 S   0  0  0  0  0  0  0  0  0  0  0  0
  1  2  1  0
  2  3  1  0
  3  4  1  0
  4  5  1  0
  5  6  1  0
  6  7  2  0
  6 11  1  0
  7  8  1  0
  8  9  2  0
  8 10  1  0
 10 11  1  0
M  END
