
     RDKit          3D

 30 34  0  0  0  0  0  0  0  0999 V2000
    5.2780    2.3650    1.4420 C   0  0  0  0  0  0  0  0  0  0  0  0
    5.4610    1.1230    0.6570 C   0  0  0  0  0  0  0  0  0  0  0  0
    4.6720    0.0290    0.5740 C   0  0  0  0  0  0  0  0  0  0  0  0
    3.3160   -0.1470    1.1410 C   0  0  0  0  0  0  0  0  0  0  0  0
    3.1210   -1.0080    1.9950 O   0  0  0  0  0  0  0  0  0  0  0  0
    2.3290    0.6810    0.6390 N   0  0  0  0  0  0  0  0  0  0  0  0
    0.9300    0.6370    0.9460 C   0  0  0  0  0  0  0  0  0  0  0  0
    0.2360   -0.6050    0.4940 C   0  0  1  0  0  0  0  0  0  0  0  0
    0.6170   -1.8910    1.0830 C   0  0  0  0  0  0  0  0  0  0  0  0
   -1.1370   -0.3880    0.2360 N   0  0  0  0  0  0  0  0  0  0  0  0
   -1.5540   -0.7920   -1.0860 C   0  0  0  0  0  0  0  0  0  0  0  0
   -2.6260   -1.8820   -1.0210 C   0  0  0  0  0  0  0  0  0  0  0  0
   -3.7510   -1.2220   -0.4120 N   0  0  0  0  0  0  0  0  0  0  0  0
   -5.0560   -1.2920   -0.9960 C   0  0  0  0  0  0  0  0  0  0  0  0
   -6.0390   -0.4910   -0.2380 C   0  0  0  0  0  0  0  0  0  0  0  0
   -5.7550    0.1880    0.8480 C   0  0  0  0  0  0  0  0  0  0  0  0
   -6.9620    0.8890    1.3690 C   0  0  0  0  0  0  0  0  0  0  0  0
   -7.6870    1.0950    0.0880 N   0  0  0  0  0  0  0  0  0  0  0  0
   -6.8080    1.9690   -0.6850 C   0  0  0  0  0  0  0  0  0  0  0  0
   -7.4860   -0.2560   -0.4720 C   0  0  0  0  0  0  0  0  0  0  0  0
   -4.4170    0.1550    1.3250 N   0  0  0  0  0  0  0  0  0  0  0  0
   -3.4700   -0.4870    0.7690 C   0  0  0  0  0  0  0  0  0  0  0  0
   -2.0700   -0.5020    1.2800 C   0  0  0  0  0  0  0  0  0  0  0  0
    5.2260   -0.8860   -0.2510 N   0  0  0  0  0  0  0  0  0  0  0  0
    6.3770   -0.4180   -0.7200 C   0  0  0  0  0  0  0  0  0  0  0  0
    7.3070   -0.9300   -1.5970 C   0  0  0  0  0  0  0  0  0  0  0  0
    8.4360   -0.2480   -1.9720 C   0  0  0  0  0  0  0  0  0  0  0  0
    8.5930    1.0100   -1.4040 C   0  0  0  0  0  0  0  0  0  0  0  0
    7.6720    1.5220   -0.5330 C   0  0  0  0  0  0  0  0  0  0  0  0
    6.5560    0.8350   -0.1750 C   0  0  0  0  0  0  0  0  0  0  0  0
  1  2  1  0
  2  3  2  0
  2 30  1  0
  3  4  1  0
  3 24  1  0
  4  5  2  0
  4  6  1  0
  6  7  1  0
  7  8  1  0
  8  9  1  1
  8 10  1  0
 10 11  1  0
 10 23  1  0
 11 12  1  0
 12 13  1  0
 13 14  1  0
 13 22  1  0
 14 15  1  0
 15 16  2  0
 15 20  1  0
 16 17  1  0
 16 21  1  0
 17 18  1  0
 18 19  1  0
 18 20  1  0
 21 22  2  0
 22 23  1  0
 24 25  1  0
 25 26  2  0
 25 30  1  0
 26 27  1  0
 27 28  2  0
 28 29  1  0
 29 30  2  0
M  END
