
     RDKit          3D

 30 32  0  0  0  0  0  0  0  0999 V2000
    8.4250   -0.1380    0.1560 C   0  0  0  0  0  0  0  0  0  0  0  0
    7.2310   -0.3280   -0.7840 C   0  0  0  0  0  0  0  0  0  0  0  0
    6.3220    0.6890   -0.4970 O   0  0  0  0  0  0  0  0  0  0  0  0
    5.0970    0.8570   -1.1490 C   0  0  0  0  0  0  0  0  0  0  0  0
    4.8410    0.0130   -2.0460 O   0  0  0  0  0  0  0  0  0  0  0  0
    4.1940    1.9720   -0.7740 C   0  0  0  0  0  0  0  0  0  0  0  0
    3.0830    1.4800    0.1240 C   0  0  0  0  0  0  0  0  0  0  0  0
    2.2910    0.4390   -0.5900 C   0  0  0  0  0  0  0  0  0  0  0  0
    1.1440   -0.0990    0.2510 C   0  0  1  0  0  0  0  0  0  0  0  0
    0.1790    0.9560    0.6440 C   0  0  0  0  0  0  0  0  0  0  0  0
   -1.0790    0.3410    1.2310 C   0  0  1  0  0  0  0  0  0  0  0  0
   -2.0220    1.4150    1.5940 C   0  0  0  0  0  0  0  0  0  0  0  0
   -3.2120    1.5650    1.0820 C   0  0  0  0  0  0  0  0  0  0  0  0
   -3.9870    2.6940    1.5790 C   0  0  0  0  0  0  0  0  0  0  0  0
   -3.5620    3.1690    2.6480 O   0  0  0  0  0  0  0  0  0  0  0  0
   -5.1550    3.3150    1.0000 N   0  0  0  0  0  0  0  0  0  0  0  0
   -5.8850    2.7940   -0.1170 C   0  0  0  0  0  0  0  0  0  0  0  0
   -6.4480    3.7040   -0.8270 O   0  0  0  0  0  0  0  0  0  0  0  0
   -6.0600    1.3990   -0.5300 C   0  0  0  0  0  0  0  0  0  0  0  0
   -4.8440    0.5890   -0.5760 C   0  0  0  0  0  0  0  0  0  0  0  0
   -3.6830    0.6290    0.0580 C   0  0  0  0  0  0  0  0  0  0  0  0
   -2.7990   -0.4450   -0.3540 C   0  0  0  0  0  0  0  0  0  0  0  0
   -1.6010   -0.5600    0.2010 C   0  0  0  0  0  0  0  0  0  0  0  0
   -0.7050   -1.6240   -0.2530 C   0  0  0  0  0  0  0  0  0  0  0  0
   -1.0700   -2.8580   -0.3770 C   0  0  0  0  0  0  0  0  0  0  0  0
   -2.3220   -3.5000   -0.1180 C   0  0  0  0  0  0  0  0  0  0  0  0
   -3.3550   -3.0140    0.3330 O   0  0  0  0  0  0  0  0  0  0  0  0
   -2.4240   -4.8910   -0.4110 O   0  0  0  0  0  0  0  0  0  0  0  0
   -3.6340   -5.5870   -0.1790 C   0  0  0  0  0  0  0  0  0  0  0  0
    0.6030   -1.1740   -0.5320 O   0  0  0  0  0  0  0  0  0  0  0  0
  1  2  1  0
  2  3  1  0
  3  4  1  0
  4  5  2  0
  4  6  1  0
  6  7  1  0
  7  8  1  0
  9  8  1  6
  9 10  1  0
  9 30  1  0
 11 10  1  6
 11 12  1  0
 11 23  1  0
 12 13  2  0
 13 14  1  0
 13 21  1  0
 14 15  2  0
 14 16  1  0
 16 17  1  0
 17 18  2  0
 17 19  1  0
 19 20  1  0
 20 21  2  0
 21 22  1  0
 22 23  2  0
 23 24  1  0
 24 25  2  3
 24 30  1  0
 25 26  1  0
 26 27  2  0
 26 28  1  0
 28 29  1  0
M  END
