
     RDKit          3D

 30 33  0  0  0  0  0  0  0  0999 V2000
   -7.5640    0.0510   -1.4660 C   0  0  0  0  0  0  0  0  0  0  0  0
   -6.4280   -0.3830   -0.5880 C   0  0  0  0  0  0  0  0  0  0  0  0
   -6.5810   -1.4820    0.2460 C   0  0  0  0  0  0  0  0  0  0  0  0
   -5.5590   -1.9000    1.0480 C   0  0  0  0  0  0  0  0  0  0  0  0
   -4.3640   -1.1900    0.9980 C   0  0  0  0  0  0  0  0  0  0  0  0
   -4.2100   -0.0960    0.1680 C   0  0  0  0  0  0  0  0  0  0  0  0
   -2.9850    0.6180    0.1360 N   0  0  0  0  0  0  0  0  0  0  0  0
   -2.1930    0.8600   -1.0170 C   0  0  0  0  0  0  0  0  0  0  0  0
   -0.6900    0.5930   -0.8050 C   0  0  0  0  0  0  0  0  0  0  0  0
   -0.2830    1.0070    0.5030 N   0  0  0  0  0  0  0  0  0  0  0  0
    0.9650    0.6210    1.0090 C   0  0  0  0  0  0  0  0  0  0  0  0
    1.3620    0.9380    2.1740 O   0  0  0  0  0  0  0  0  0  0  0  0
    1.8130   -0.1670    0.1560 N   0  0  0  0  0  0  0  0  0  0  0  0
    3.0440   -0.5660    0.6400 N   0  0  0  0  0  0  0  0  0  0  0  0
    4.1300   -0.9370   -0.2350 C   0  0  0  0  0  0  0  0  0  0  0  0
    5.3320   -0.5160    0.0970 C   0  0  0  0  0  0  0  0  0  0  0  0
    5.5420    0.2520    1.2360 C   0  0  0  0  0  0  0  0  0  0  0  0
    6.8250    0.6230    1.5680 C   0  0  0  0  0  0  0  0  0  0  0  0
    7.0170    1.4390    2.7720 C   0  0  0  0  0  0  0  0  0  0  0  0
    7.1730    2.0790    3.6860 N   0  0  0  0  0  0  0  0  0  0  0  0
    7.8960    0.2470    0.7930 C   0  0  0  0  0  0  0  0  0  0  0  0
    7.6950   -0.5110   -0.3360 C   0  0  0  0  0  0  0  0  0  0  0  0
    6.4020   -0.9030   -0.7000 C   0  0  0  0  0  0  0  0  0  0  0  0
    6.1970   -1.5670   -1.7560 N   0  0  0  0  0  0  0  0  0  0  0  0
    4.9620   -2.0190   -2.3120 C   0  0  0  0  0  0  0  0  0  0  0  0
    3.8140   -1.7620   -1.4210 C   0  0  0  0  0  0  0  0  0  0  0  0
   -1.1730    1.8240    1.2780 C   0  0  0  0  0  0  0  0  0  0  0  0
   -2.5090    1.1330    1.3890 C   0  0  0  0  0  0  0  0  0  0  0  0
   -5.2490    0.3300   -0.6450 C   0  0  0  0  0  0  0  0  0  0  0  0
   -5.0430    1.4960   -1.4970 C   0  0  0  0  0  0  0  0  0  0  0  0
  1  2  1  0
  2  3  2  0
  2 29  1  0
  3  4  1  0
  4  5  2  0
  5  6  1  0
  6  7  1  0
  6 29  2  0
  7  8  1  0
  7 28  1  0
  8  9  1  0
  9 10  1  0
 10 11  1  0
 10 27  1  0
 11 12  2  0
 11 13  1  0
 13 14  1  0
 14 15  1  0
 15 16  2  0
 15 26  1  0
 16 17  1  0
 16 23  1  0
 17 18  2  0
 18 19  1  0
 18 21  1  0
 19 20  3  0
 21 22  2  0
 22 23  1  0
 23 24  2  0
 24 25  1  0
 25 26  1  0
 27 28  1  0
 29 30  1  0
M  END
