
     RDKit          3D

 18 19  0  0  0  0  0  0  0  0999 V2000
    1.3460   -1.7090   -1.0610 C   0  0  0  0  0  0  0  0  0  0  0  0
    0.9400   -0.4000   -0.5980 N   0  0  0  0  0  0  0  0  0  0  0  0
    1.8490    0.6650   -0.7610 C   0  0  0  0  0  0  0  0  0  0  0  0
    3.2390    0.4770   -0.4430 C   0  0  0  0  0  0  0  0  0  0  0  0
    3.9210   -0.4650    0.0670 C   0  0  0  0  0  0  0  0  0  0  0  0
    3.6220   -1.7450    0.5550 N   0  0  0  0  0  0  0  0  0  0  0  0
    1.4890    1.8910   -1.0850 N   0  0  0  0  0  0  0  0  0  0  0  0
    0.2390    2.5030   -1.3470 C   0  0  0  0  0  0  0  0  0  0  0  0
   -0.9610    2.0830   -0.9830 C   0  0  0  0  0  0  0  0  0  0  0  0
   -1.2440    0.8620   -0.2170 C   0  0  0  0  0  0  0  0  0  0  0  0
   -2.4420    1.0830    0.2930 C   0  0  0  0  0  0  0  0  0  0  0  0
   -3.0740    2.3080   -0.0000 N   0  0  0  0  0  0  0  0  0  0  0  0
   -3.1510    0.1510    1.1320 N   0  0  0  0  0  0  0  0  0  0  0  0
   -2.7140   -1.0020    1.8520 C   0  0  0  0  0  0  0  0  0  0  0  0
   -1.7870   -1.8950    1.1330 C   0  0  0  0  0  0  0  0  0  0  0  0
   -2.0590   -3.1420    1.0860 O   0  0  0  0  0  0  0  0  0  0  0  0
   -0.5770   -1.4820    0.4660 N   0  0  0  0  0  0  0  0  0  0  0  0
   -0.4020   -0.3290   -0.0700 C   0  0  0  0  0  0  0  0  0  0  0  0
  1  2  1  0
  2  3  1  0
  2 18  1  0
  3  4  1  0
  3  7  2  0
  4  5  2  3
  5  6  1  0
  7  8  1  0
  8  9  2  0
  9 10  1  0
 10 11  2  0
 10 18  1  0
 11 12  1  0
 11 13  1  0
 13 14  1  0
 14 15  1  0
 15 16  2  0
 15 17  1  0
 17 18  2  0
M  END
