
     RDKit          3D

 25 27  0  0  0  0  0  0  0  0999 V2000
   -0.9400    1.8650    0.9330 C   0  0  0  0  0  0  0  0  0  0  0  0
   -1.5810    1.8770   -0.4180 C   0  0  2  0  0  0  0  0  0  0  0  0
   -3.0540    1.5440   -0.4110 C   0  0  0  0  0  0  0  0  0  0  0  0
   -3.3700    0.0840   -0.5600 C   0  0  1  0  0  0  0  0  0  0  0  0
   -2.4990   -0.5920   -1.5360 O   0  0  0  0  0  0  0  0  0  0  0  0
   -2.3650   -0.8500   -0.1720 C   0  0  2  0  0  0  0  0  0  0  0  0
   -2.8650   -2.1590    0.3100 C   0  0  0  0  0  0  0  0  0  0  0  0
   -2.2870   -2.8530    1.2740 C   0  0  0  0  0  0  0  0  0  0  0  0
   -1.1030   -2.5050    2.0270 C   0  0  0  0  0  0  0  0  0  0  0  0
    0.1470   -2.3650    1.6760 C   0  0  0  0  0  0  0  0  0  0  0  0
    0.8240   -2.4970    0.4110 C   0  0  0  0  0  0  0  0  0  0  0  0
    1.3950   -3.6750    0.2460 O   0  0  0  0  0  0  0  0  0  0  0  0
    1.0100   -1.6130   -0.7160 C   0  0  0  0  0  0  0  0  0  0  0  0
    1.8630   -0.4090   -0.5420 C   0  0  0  0  0  0  0  0  0  0  0  0
    3.0390   -0.5850    0.1600 C   0  0  0  0  0  0  0  0  0  0  0  0
    3.5080   -2.1050    0.9140 Cl  0  0  0  0  0  0  0  0  0  0  0  0
    3.9020    0.4970    0.2780 C   0  0  0  0  0  0  0  0  0  0  0  0
    5.0910    0.2730    1.0030 O   0  0  0  0  0  0  0  0  0  0  0  0
    3.6410    1.7290   -0.2680 C   0  0  0  0  0  0  0  0  0  0  0  0
    2.4700    1.9060   -0.9670 C   0  0  0  0  0  0  0  0  0  0  0  0
    2.2520    3.1600   -1.5030 O   0  0  0  0  0  0  0  0  0  0  0  0
    1.5650    0.8330   -1.1080 C   0  0  0  0  0  0  0  0  0  0  0  0
    0.3620    1.1770   -1.8500 C   0  0  0  0  0  0  0  0  0  0  0  0
    0.6080    1.6260   -3.0500 O   0  0  0  0  0  0  0  0  0  0  0  0
   -0.9610    1.0630   -1.3850 O   0  0  0  0  0  0  0  0  0  0  0  0
  2  1  1  1
  2  3  1  0
  2 25  1  0
  4  3  1  1
  4  5  1  0
  4  6  1  0
  6  5  1  6
  6  7  1  0
  7  8  2  0
  8  9  1  0
  9 10  2  0
 10 11  1  0
 11 12  2  0
 11 13  1  0
 13 14  1  0
 14 15  2  0
 14 22  1  0
 15 16  1  0
 15 17  1  0
 17 18  1  0
 17 19  2  0
 19 20  1  0
 20 21  1  0
 20 22  2  0
 22 23  1  0
 23 24  2  0
 23 25  1  0
M  END
