
     RDKit          3D

 18 20  0  0  0  0  0  0  0  0999 V2000
    4.5670   -0.4870   -0.4540 C   0  0  0  0  0  0  0  0  0  0  0  0
    3.1900   -0.2510   -0.8680 N   0  0  0  0  0  0  0  0  0  0  0  0
    2.7590    0.1760   -2.0460 N   0  0  0  0  0  0  0  0  0  0  0  0
    1.4000    0.2740   -2.0250 C   0  0  0  0  0  0  0  0  0  0  0  0
    0.9650   -0.1100   -0.7770 C   0  0  0  0  0  0  0  0  0  0  0  0
   -0.3910   -0.1890   -0.2470 C   0  0  0  0  0  0  0  0  0  0  0  0
   -0.9490   -1.2850    0.2530 N   0  0  0  0  0  0  0  0  0  0  0  0
   -2.1860   -1.2790    0.7140 N   0  0  0  0  0  0  0  0  0  0  0  0
   -2.7710   -2.5120    1.2570 C   0  0  0  0  0  0  0  0  0  0  0  0
   -2.9590   -0.1610    0.7080 C   0  0  0  0  0  0  0  0  0  0  0  0
   -4.1430   -0.1480    1.1480 O   0  0  0  0  0  0  0  0  0  0  0  0
   -2.4560    1.0000    0.2120 C   0  0  0  0  0  0  0  0  0  0  0  0
   -2.8990    2.2980    0.0380 C   0  0  0  0  0  0  0  0  0  0  0  0
   -1.9110    3.0050   -0.5190 N   0  0  0  0  0  0  0  0  0  0  0  0
   -0.8400    2.2210   -0.7140 C   0  0  0  0  0  0  0  0  0  0  0  0
   -1.1710    0.9750   -0.2630 C   0  0  0  0  0  0  0  0  0  0  0  0
    2.0970   -0.4340   -0.0700 C   0  0  0  0  0  0  0  0  0  0  0  0
    2.1540   -0.8810    1.2700 N   0  0  0  0  0  0  0  0  0  0  0  0
  1  2  1  0
  2  3  1  0
  2 17  1  0
  3  4  2  0
  4  5  1  0
  5  6  1  0
  5 17  2  0
  6  7  2  0
  6 16  1  0
  7  8  1  0
  8  9  1  0
  8 10  1  0
 10 11  2  0
 10 12  1  0
 12 13  2  0
 12 16  1  0
 13 14  1  0
 14 15  1  0
 15 16  2  0
 17 18  1  0
M  END
