
     RDKit          3D

 18 20  0  0  0  0  0  0  0  0999 V2000
    4.6290   -0.2950    0.7520 C   0  0  0  0  0  0  0  0  0  0  0  0
    3.7880    0.9630    0.6870 C   0  0  0  0  0  0  0  0  0  0  0  0
    2.3660    0.6730    0.3670 C   0  0  0  0  0  0  0  0  0  0  0  0
    1.3220    0.6730    1.2150 N   0  0  0  0  0  0  0  0  0  0  0  0
    0.1950    0.3640    0.5650 N   0  0  0  0  0  0  0  0  0  0  0  0
   -1.0860    0.2380    0.9650 C   0  0  0  0  0  0  0  0  0  0  0  0
   -1.4230    0.4660    2.3950 C   0  0  0  0  0  0  0  0  0  0  0  0
   -2.0520   -0.0990    0.0460 C   0  0  0  0  0  0  0  0  0  0  0  0
   -1.7340   -0.3140   -1.2970 C   0  0  0  0  0  0  0  0  0  0  0  0
   -0.4430   -0.1750   -1.6420 N   0  0  0  0  0  0  0  0  0  0  0  0
    0.4920    0.1570   -0.7200 C   0  0  0  0  0  0  0  0  0  0  0  0
    1.8440    0.3460   -0.8610 C   0  0  0  0  0  0  0  0  0  0  0  0
    2.6030    0.2310   -2.0570 N   0  0  0  0  0  0  0  0  0  0  0  0
   -2.7470   -0.6620   -2.2240 N   0  0  0  0  0  0  0  0  0  0  0  0
   -4.0380   -1.1210   -1.7810 C   0  0  0  0  0  0  0  0  0  0  0  0
   -4.3900   -0.5860   -0.5190 O   0  0  0  0  0  0  0  0  0  0  0  0
   -3.4350   -0.2420    0.4420 C   0  0  0  0  0  0  0  0  0  0  0  0
   -3.7890   -0.0550    1.6720 N   0  0  0  0  0  0  0  0  0  0  0  0
  1  2  1  0
  2  3  1  0
  3  4  2  0
  3 12  1  0
  4  5  1  0
  5  6  1  0
  5 11  1  0
  6  7  1  0
  6  8  2  0
  8  9  1  0
  8 17  1  0
  9 10  2  0
  9 14  1  0
 10 11  1  0
 11 12  2  0
 12 13  1  0
 14 15  1  0
 15 16  1  0
 16 17  1  0
 17 18  2  0
M  END
