
     RDKit          3D

 19 21  0  0  0  0  0  0  0  0999 V2000
    3.4710   -1.7860   -0.8080 C   0  0  0  0  0  0  0  0  0  0  0  0
    3.9440   -0.5610   -0.1180 C   0  0  0  0  0  0  0  0  0  0  0  0
    4.9870   -0.5580    0.7120 C   0  0  0  0  0  0  0  0  0  0  0  0
    5.2040    0.8140    1.2370 C   0  0  0  0  0  0  0  0  0  0  0  0
    4.1150    1.5700    0.5660 C   0  0  0  0  0  0  0  0  0  0  0  0
    3.3880    0.7860   -0.2120 C   0  0  0  0  0  0  0  0  0  0  0  0
    2.2650    1.1200   -1.0190 N   0  0  0  0  0  0  0  0  0  0  0  0
    0.9600    0.8610   -0.4990 C   0  0  0  0  0  0  0  0  0  0  0  0
    0.6750   -0.0620    0.3480 N   0  0  0  0  0  0  0  0  0  0  0  0
   -0.6790   -0.0840    0.6770 N   0  0  0  0  0  0  0  0  0  0  0  0
   -1.2950    0.8400    0.0360 C   0  0  0  0  0  0  0  0  0  0  0  0
   -2.6740    1.1400    0.0990 N   0  0  0  0  0  0  0  0  0  0  0  0
   -3.6380    0.1350    0.2330 C   0  0  0  0  0  0  0  0  0  0  0  0
   -4.9760    0.5260    0.2880 C   0  0  0  0  0  0  0  0  0  0  0  0
   -6.0110   -0.3760    0.4150 C   0  0  0  0  0  0  0  0  0  0  0  0
   -5.7200   -1.7200    0.4910 C   0  0  0  0  0  0  0  0  0  0  0  0
   -4.3970   -2.0950    0.4360 C   0  0  0  0  0  0  0  0  0  0  0  0
   -3.4140   -1.1750    0.3110 N   0  0  0  0  0  0  0  0  0  0  0  0
   -0.3080    1.5650   -0.8010 C   0  0  0  0  0  0  0  0  0  0  0  0
  1  2  1  0
  2  3  2  0
  2  6  1  0
  3  4  1  0
  4  5  1  0
  5  6  2  0
  6  7  1  0
  7  8  1  0
  8  9  2  0
  8 19  1  0
  9 10  1  0
 10 11  2  0
 11 12  1  0
 11 19  1  0
 12 13  1  0
 13 14  2  0
 13 18  1  0
 14 15  1  0
 15 16  2  0
 16 17  1  0
 17 18  2  0
M  CHG  1  18   1
M  END
