
     RDKit          3D

 19 22  0  0  0  0  0  0  0  0999 V2000
   -3.3010    1.1390   -0.1180 C   0  0  0  0  0  0  0  0  0  0  0  0
   -2.6100    0.0530    0.0940 C   0  0  0  0  0  0  0  0  0  0  0  0
   -3.2600   -1.1570    0.4000 N   0  0  0  0  0  0  0  0  0  0  0  0
   -2.6070   -2.3940    0.6480 C   0  0  0  0  0  0  0  0  0  0  0  0
   -1.1440   -2.3390    0.5620 C   0  0  0  0  0  0  0  0  0  0  0  0
   -0.2370   -3.3180    0.7390 N   0  0  0  0  0  0  0  0  0  0  0  0
    0.9440   -2.8040    0.5640 N   0  0  0  0  0  0  0  0  0  0  0  0
    0.8500   -1.4820    0.2690 N   0  0  0  0  0  0  0  0  0  0  0  0
    1.9800   -0.6600    0.0270 C   0  0  0  0  0  0  0  0  0  0  0  0
    2.5220   -0.5000   -1.2300 C   0  0  0  0  0  0  0  0  0  0  0  0
    3.6440    0.2810   -1.4210 C   0  0  0  0  0  0  0  0  0  0  0  0
    4.2300    0.9100   -0.3410 C   0  0  0  0  0  0  0  0  0  0  0  0
    3.7110    0.7700    0.9320 C   0  0  0  0  0  0  0  0  0  0  0  0
    2.5880   -0.0200    1.0820 C   0  0  0  0  0  0  0  0  0  0  0  0
   -0.4440   -1.1940    0.2680 C   0  0  0  0  0  0  0  0  0  0  0  0
   -1.1520    0.0800    0.0150 C   0  0  0  0  0  0  0  0  0  0  0  0
   -0.5020    1.1950   -0.2700 C   0  0  0  0  0  0  0  0  0  0  0  0
   -1.2250    2.4600   -0.5200 C   0  0  0  0  0  0  0  0  0  0  0  0
   -2.6430    2.3430   -0.4230 N   0  0  0  0  0  0  0  0  0  0  0  0
  1  2  2  0
  1 19  1  0
  2  3  1  0
  2 16  1  0
  3  4  1  0
  4  5  1  0
  5  6  1  0
  5 15  2  0
  6  7  2  0
  7  8  1  0
  8  9  1  0
  8 15  1  0
  9 10  2  0
  9 14  1  0
 10 11  1  0
 11 12  2  0
 12 13  1  0
 13 14  2  0
 15 16  1  0
 16 17  2  0
 17 18  1  0
 18 19  1  0
M  END
