
     RDKit          3D

 20 23  0  0  0  0  0  0  0  0999 V2000
    5.4390    1.2230    0.4600 N   0  0  0  0  0  0  0  0  0  0  0  0
    4.3450    0.3550    0.2520 C   0  0  0  0  0  0  0  0  0  0  0  0
    4.5300   -0.9830   -0.0310 C   0  0  0  0  0  0  0  0  0  0  0  0
    3.4250   -1.7860   -0.2260 C   0  0  0  0  0  0  0  0  0  0  0  0
    2.1380   -1.2340   -0.1330 C   0  0  0  0  0  0  0  0  0  0  0  0
    1.9590    0.0990    0.1500 C   0  0  0  0  0  0  0  0  0  0  0  0
    3.0690    0.8900    0.3420 C   0  0  0  0  0  0  0  0  0  0  0  0
    0.6090    0.6200    0.2380 C   0  0  0  0  0  0  0  0  0  0  0  0
   -0.4940   -0.1090    0.0640 C   0  0  0  0  0  0  0  0  0  0  0  0
   -1.7390    0.6040    0.1940 C   0  0  0  0  0  0  0  0  0  0  0  0
   -1.7340    1.9410    0.4980 N   0  0  0  0  0  0  0  0  0  0  0  0
   -2.8340    2.6560    0.6300 C   0  0  0  0  0  0  0  0  0  0  0  0
   -4.0480    2.1310    0.4780 N   0  0  0  0  0  0  0  0  0  0  0  0
   -4.1570    0.8470    0.1840 C   0  0  0  0  0  0  0  0  0  0  0  0
   -5.2250    0.0640   -0.0240 N   0  0  0  0  0  0  0  0  0  0  0  0
   -4.8330   -1.1820   -0.2970 C   0  0  0  0  0  0  0  0  0  0  0  0
   -3.4320   -1.1940   -0.2620 C   0  0  0  0  0  0  0  0  0  0  0  0
   -3.0070    0.0720    0.0390 C   0  0  0  0  0  0  0  0  0  0  0  0
   -0.3360   -1.5200   -0.2250 C   0  0  0  0  0  0  0  0  0  0  0  0
    1.0090   -1.9790   -0.3160 O   0  0  0  0  0  0  0  0  0  0  0  0
  1  2  1  0
  2  3  2  0
  2  7  1  0
  3  4  1  0
  4  5  2  0
  5  6  1  0
  5 20  1  0
  6  7  2  0
  6  8  1  0
  8  9  2  0
  9 10  1  0
  9 19  1  0
 10 11  2  0
 10 18  1  0
 11 12  1  0
 12 13  2  0
 13 14  1  0
 14 15  1  0
 14 18  2  0
 15 16  1  0
 16 17  2  0
 17 18  1  0
 19 20  1  0
M  END
