
     RDKit          3D

 20 22  0  0  0  0  0  0  0  0999 V2000
   -3.0370    2.3580   -0.5530 C   0  0  0  0  0  0  0  0  0  0  0  0
   -3.5520    1.6250    0.6400 C   0  0  0  0  0  0  0  0  0  0  0  0
   -3.5130    0.1820    0.5020 N   0  0  0  0  0  0  0  0  0  0  0  0
   -2.3010   -0.5280    0.2980 C   0  0  0  0  0  0  0  0  0  0  0  0
   -1.0940    0.1410    0.2270 C   0  0  0  0  0  0  0  0  0  0  0  0
    0.1030   -0.5480    0.0280 C   0  0  0  0  0  0  0  0  0  0  0  0
    0.0650   -1.9190   -0.1000 C   0  0  0  0  0  0  0  0  0  0  0  0
   -1.1090   -2.6030   -0.0350 C   0  0  0  0  0  0  0  0  0  0  0  0
   -2.2770   -1.8960    0.1630 C   0  0  0  0  0  0  0  0  0  0  0  0
   -3.5440   -2.6630    0.2310 C   0  0  0  0  0  0  0  0  0  0  0  0
    1.3300   -2.6080   -0.3100 C   0  0  0  0  0  0  0  0  0  0  0  0
    1.3940   -3.8660   -0.4390 O   0  0  0  0  0  0  0  0  0  0  0  0
    2.5150   -1.8240   -0.3690 N   0  0  0  0  0  0  0  0  0  0  0  0
    2.5310   -0.5780    0.3640 C   0  0  1  0  0  0  0  0  0  0  0  0
    3.7550    0.2060    0.2160 C   0  0  0  0  0  0  0  0  0  0  0  0
    3.7530    1.4520   -0.2190 C   0  0  0  0  0  0  0  0  0  0  0  0
    5.0280    2.1870   -0.3430 C   0  0  0  0  0  0  0  0  0  0  0  0
    2.5010    2.1020   -0.5890 C   0  0  0  0  0  0  0  0  0  0  0  0
    1.3580    1.4650   -0.4980 N   0  0  0  0  0  0  0  0  0  0  0  0
    1.3410    0.1460   -0.0440 N   0  0  0  0  0  0  0  0  0  0  0  0
  1  2  1  0
  2  3  1  0
  3  4  1  0
  4  5  2  0
  4  9  1  0
  5  6  1  0
  6  7  2  0
  6 20  1  0
  7  8  1  0
  7 11  1  0
  8  9  2  0
  9 10  1  0
 11 12  2  0
 11 13  1  0
 14 13  1  6
 14 15  1  0
 14 20  1  0
 15 16  2  0
 16 17  1  0
 16 18  1  0
 18 19  2  0
 19 20  1  0
M  END
