
     RDKit          3D

 20 21  0  0  0  0  0  0  0  0999 V2000
   -1.5860   -2.2970   -1.3680 C   0  0  0  0  0  0  0  0  0  0  0  0
   -1.0440   -1.1270   -0.6210 C   0  0  0  0  0  0  0  0  0  0  0  0
   -1.8210   -0.2570   -0.0070 C   0  0  0  0  0  0  0  0  0  0  0  0
   -3.2780   -0.5210   -0.1090 C   0  0  0  0  0  0  0  0  0  0  0  0
   -4.1490    0.2870    0.4690 C   0  0  0  0  0  0  0  0  0  0  0  0
   -3.6720    1.4460    1.2130 C   0  0  0  0  0  0  0  0  0  0  0  0
   -2.4040    1.7410    1.3440 C   0  0  0  0  0  0  0  0  0  0  0  0
   -1.3380    0.8960    0.7310 C   0  0  0  0  0  0  0  0  0  0  0  0
   -0.1510    1.1570    0.8450 N   0  0  0  0  0  0  0  0  0  0  0  0
    1.1020    0.7710    0.5270 C   0  0  0  0  0  0  0  0  0  0  0  0
    1.7630    1.2440   -0.5360 C   0  0  0  0  0  0  0  0  0  0  0  0
    1.0540    2.2100   -1.3440 C   0  0  0  0  0  0  0  0  0  0  0  0
    0.4740    2.9830   -1.9760 N   0  0  0  0  0  0  0  0  0  0  0  0
    3.1080    0.8360   -0.8850 C   0  0  0  0  0  0  0  0  0  0  0  0
    3.7320    1.3860   -2.0260 O   0  0  0  0  0  0  0  0  0  0  0  0
    3.7340   -0.0470   -0.1330 C   0  0  0  0  0  0  0  0  0  0  0  0
    3.1270   -0.6420    1.0560 C   0  0  2  0  0  0  0  0  0  0  0  0
    3.0560   -2.1000    0.8550 C   0  0  0  0  0  0  0  0  0  0  0  0
    2.9980   -3.2520    0.6760 N   0  0  0  0  0  0  0  0  0  0  0  0
    1.8100   -0.1720    1.3210 N   0  0  0  0  0  0  0  0  0  0  0  0
  1  2  1  0
  2  3  2  3
  3  4  1  0
  3  8  1  0
  4  5  2  0
  5  6  1  0
  6  7  2  0
  7  8  1  0
  8  9  2  3
  9 10  1  0
 10 11  2  0
 10 20  1  0
 11 12  1  0
 11 14  1  0
 12 13  3  0
 14 15  1  0
 14 16  2  0
 16 17  1  0
 17 18  1  6
 17 20  1  0
 18 19  3  0
M  END
