
     RDKit          3D

 20 23  0  0  0  0  0  0  0  0999 V2000
   -0.7440   -2.4180   -1.3630 C   0  0  0  0  0  0  0  0  0  0  0  0
    0.4730   -1.6180   -1.1120 C   0  0  0  0  0  0  0  0  0  0  0  0
    1.6800   -1.9400   -1.5790 N   0  0  0  0  0  0  0  0  0  0  0  0
    2.5560   -1.0250   -1.1620 C   0  0  0  0  0  0  0  0  0  0  0  0
    3.9090   -0.8470   -1.3290 C   0  0  0  0  0  0  0  0  0  0  0  0
    4.5170    0.2020   -0.7640 N   0  0  0  0  0  0  0  0  0  0  0  0
    3.8340    1.1000   -0.0280 C   0  0  0  0  0  0  0  0  0  0  0  0
    4.2300    2.2180    0.6360 N   0  0  0  0  0  0  0  0  0  0  0  0
    3.1720    2.7760    1.2320 C   0  0  0  0  0  0  0  0  0  0  0  0
    2.0320    2.0140    0.9630 C   0  0  0  0  0  0  0  0  0  0  0  0
    2.4660    0.9800    0.1800 C   0  0  0  0  0  0  0  0  0  0  0  0
    1.8320   -0.1060   -0.4050 C   0  0  0  0  0  0  0  0  0  0  0  0
    0.5340   -0.4680   -0.3700 N   0  0  0  0  0  0  0  0  0  0  0  0
   -0.6250    0.1330    0.2570 C   0  0  2  0  0  0  0  0  0  0  0  0
   -1.0590   -0.6790    1.4310 C   0  0  0  0  0  0  0  0  0  0  0  0
   -2.5220   -0.7660    1.6570 C   0  0  0  0  0  0  0  0  0  0  0  0
   -3.2620    0.4220    1.0190 C   0  0  0  0  0  0  0  0  0  0  0  0
   -3.0720    0.1810   -0.4640 C   0  0  1  0  0  0  0  0  0  0  0  0
   -3.8950    1.1030   -1.1260 O   0  0  0  0  0  0  0  0  0  0  0  0
   -1.6520    0.3900   -0.8110 C   0  0  0  0  0  0  0  0  0  0  0  0
  1  2  1  0
  2  3  2  0
  2 13  1  0
  3  4  1  0
  4  5  2  0
  4 12  1  0
  5  6  1  0
  6  7  2  0
  7  8  1  0
  7 11  1  0
  8  9  1  0
  9 10  2  0
 10 11  1  0
 11 12  2  0
 12 13  1  0
 14 13  1  6
 14 15  1  0
 14 20  1  0
 15 16  1  0
 16 17  1  0
 17 18  1  0
 18 19  1  6
 18 20  1  0
M  END
