
     RDKit          3D

 20 22  0  0  0  0  0  0  0  0999 V2000
    4.9700    2.1190    1.9990 C   0  0  0  0  0  0  0  0  0  0  0  0
    3.8480    1.8600    1.1490 O   0  0  0  0  0  0  0  0  0  0  0  0
    3.7380    0.6030    0.5900 C   0  0  0  0  0  0  0  0  0  0  0  0
    4.6790   -0.2710    0.4420 N   0  0  0  0  0  0  0  0  0  0  0  0
    4.2120   -1.4530   -0.1700 C   0  0  0  0  0  0  0  0  0  0  0  0
    2.8990   -1.3080   -0.4200 C   0  0  0  0  0  0  0  0  0  0  0  0
    2.5210    0.0160    0.0520 C   0  0  0  0  0  0  0  0  0  0  0  0
    1.2970    0.5070   -0.0300 C   0  0  0  0  0  0  0  0  0  0  0  0
    0.2230   -0.2280   -0.5960 N   0  0  0  0  0  0  0  0  0  0  0  0
    0.0310   -0.1760   -2.0190 C   0  0  0  0  0  0  0  0  0  0  0  0
   -1.2550   -0.4730   -2.4730 N   0  0  0  0  0  0  0  0  0  0  0  0
   -2.0600   -1.3640   -1.7570 C   0  0  0  0  0  0  0  0  0  0  0  0
   -1.9910   -1.2730   -0.2600 C   0  0  2  0  0  0  0  0  0  0  0  0
   -2.9110   -0.2650    0.2720 C   0  0  0  0  0  0  0  0  0  0  0  0
   -3.9250   -0.6050    1.1260 C   0  0  0  0  0  0  0  0  0  0  0  0
   -4.8050    0.3670    1.6330 C   0  0  0  0  0  0  0  0  0  0  0  0
   -4.6270    1.6420    1.2590 N   0  0  0  0  0  0  0  0  0  0  0  0
   -3.6490    2.0260    0.4260 C   0  0  0  0  0  0  0  0  0  0  0  0
   -2.7720    1.0520   -0.0790 C   0  0  0  0  0  0  0  0  0  0  0  0
   -0.6180   -0.9850    0.2650 C   0  0  0  0  0  0  0  0  0  0  0  0
  1  2  1  0
  2  3  1  0
  3  4  2  0
  3  7  1  0
  4  5  1  0
  5  6  2  0
  6  7  1  0
  7  8  2  3
  8  9  1  0
  9 10  1  0
  9 20  1  0
 10 11  1  0
 11 12  1  0
 12 13  1  0
 13 14  1  6
 13 20  1  0
 14 15  2  0
 14 19  1  0
 15 16  1  0
 16 17  2  0
 17 18  1  0
 18 19  2  0
M  END
