
     RDKit          3D

 15 15  0  0  0  0  0  0  0  0999 V2000
   -2.9580   -1.8460    0.4510 C   0  0  0  0  0  0  0  0  0  0  0  0
   -3.5740   -0.6860   -0.2590 C   0  0  0  0  0  0  0  0  0  0  0  0
   -2.6170    0.1420   -1.0610 C   0  0  0  0  0  0  0  0  0  0  0  0
   -1.5340    0.7400   -0.2260 C   0  0  2  0  0  0  0  0  0  0  0  0
   -2.0200    1.6410    0.8550 C   0  0  0  0  0  0  0  0  0  0  0  0
   -0.5240    1.5160   -1.0530 C   0  0  0  0  0  0  0  0  0  0  0  0
    0.6810    1.6840   -0.2550 C   0  0  0  0  0  0  0  0  0  0  0  0
    1.3440    2.7280   -0.1850 O   0  0  0  0  0  0  0  0  0  0  0  0
    1.0730    0.4720    0.4960 C   0  0  2  0  0  0  0  0  0  0  0  0
    2.1960   -0.2160   -0.0830 N   0  0  0  0  0  0  0  0  0  0  0  0
    3.4070   -0.4880    0.5790 C   0  0  0  0  0  0  0  0  0  0  0  0
    3.5270   -0.1040    1.7700 O   0  0  0  0  0  0  0  0  0  0  0  0
    4.4180   -1.1520   -0.0630 O   0  0  0  0  0  0  0  0  0  0  0  0
    5.6290   -1.4320    0.5770 C   0  0  0  0  0  0  0  0  0  0  0  0
   -0.4390   -0.5160    0.4950 S   0  0  0  0  0  0  0  0  0  0  0  0
  1  2  1  0
  2  3  1  0
  3  4  1  0
  4  5  1  1
  4  6  1  0
  4 15  1  0
  6  7  1  0
  7  8  2  0
  7  9  1  0
  9 10  1  6
  9 15  1  0
 10 11  1  0
 11 12  2  0
 11 13  1  0
 13 14  1  0
M  END
