
     RDKit          3D

 15 16  0  0  0  0  0  0  0  0999 V2000
    5.3500    1.6090    0.9680 O   0  0  0  0  0  0  0  0  0  0  0  0
    4.8280    0.5450    0.2360 C   0  0  0  0  0  0  0  0  0  0  0  0
    3.3520    0.8140    0.0590 C   0  0  2  0  0  0  0  0  0  0  0  0
    2.6710    0.9120    1.2340 O   0  0  0  0  0  0  0  0  0  0  0  0
    1.3930    0.3620    1.0960 C   0  0  0  0  0  0  0  0  0  0  0  0
    1.3680   -0.2650   -0.2240 C   0  0  0  0  0  0  0  0  0  0  0  0
    0.4000   -0.7540   -0.9640 C   0  0  0  0  0  0  0  0  0  0  0  0
   -1.0100   -0.8160   -0.6660 C   0  0  0  0  0  0  0  0  0  0  0  0
   -1.7970   -1.3720   -1.6080 C   0  0  0  0  0  0  0  0  0  0  0  0
   -3.5810   -1.6350   -1.6230 S   0  0  0  0  0  0  0  0  0  0  0  0
   -4.3290   -0.1010   -0.9450 C   0  0  0  0  0  0  0  0  0  0  0  0
   -3.9790   -0.0590    0.4910 C   0  0  0  0  0  0  0  0  0  0  0  0
   -2.8720   -0.8540    0.8970 N   0  0  0  0  0  0  0  0  0  0  0  0
   -1.5740   -0.3010    0.6010 C   0  0  0  0  0  0  0  0  0  0  0  0
    2.7220   -0.2700   -0.6470 O   0  0  0  0  0  0  0  0  0  0  0  0
  1  2  1  0
  3  2  1  1
  3  4  1  0
  3 15  1  0
  4  5  1  0
  5  6  1  0
  6  7  2  3
  6 15  1  0
  7  8  1  0
  8  9  2  0
  8 14  1  0
  9 10  1  0
 10 11  1  0
 11 12  1  0
 12 13  1  0
 13 14  1  0
M  END
