
     RDKit          3D

 18 18  0  0  0  0  0  0  0  0999 V2000
   -2.3010    1.7040    1.5480 C   0  0  0  0  0  0  0  0  0  0  0  0
   -2.9930    0.5610    0.9350 C   0  0  0  0  0  0  0  0  0  0  0  0
   -4.2450    0.7080    0.6760 N   0  0  0  0  0  0  0  0  0  0  0  0
   -5.2310   -0.1380    0.1020 C   0  0  0  0  0  0  0  0  0  0  0  0
   -5.1360   -1.5660    0.3940 C   0  0  0  0  0  0  0  0  0  0  0  0
   -6.6600   -2.4710    0.5270 Cl  0  0  0  0  0  0  0  0  0  0  0  0
   -4.0620   -2.3050    0.5800 C   0  0  0  0  0  0  0  0  0  0  0  0
   -2.6620   -1.8510    0.5340 C   0  0  0  0  0  0  0  0  0  0  0  0
   -2.1740   -0.6370    0.6820 C   0  0  0  0  0  0  0  0  0  0  0  0
   -0.7890   -0.4560    0.5970 N   0  0  0  0  0  0  0  0  0  0  0  0
   -0.0710   -0.0870   -0.5910 C   0  0  0  0  0  0  0  0  0  0  0  0
    1.3810    0.0130   -0.3100 C   0  0  0  0  0  0  0  0  0  0  0  0
    1.8550   -0.2130    0.8530 O   0  0  0  0  0  0  0  0  0  0  0  0
    2.3070    0.3560   -1.2850 O   0  0  0  0  0  0  0  0  0  0  0  0
    3.6830    0.4610   -1.0620 C   0  0  2  0  0  0  0  0  0  0  0  0
    4.2950   -0.8400   -0.5810 C   0  0  0  0  0  0  0  0  0  0  0  0
    4.0500    1.5220   -0.0520 C   0  0  0  0  0  0  0  0  0  0  0  0
    4.3490    0.8020   -2.3810 C   0  0  0  0  0  0  0  0  0  0  0  0
  1  2  1  0
  2  3  2  0
  2  9  1  0
  3  4  1  0
  4  5  1  0
  5  6  1  0
  5  7  2  0
  7  8  1  0
  8  9  2  0
  9 10  1  0
 10 11  1  0
 11 12  1  0
 12 13  2  0
 12 14  1  0
 14 15  1  0
 15 16  1  1
 15 17  1  0
 15 18  1  0
M  END
