
     RDKit          3D

 18 19  0  0  0  0  0  0  0  0999 V2000
    1.4860    1.4900   -0.5590 O   0  0  0  0  0  0  0  0  0  0  0  0
    1.9730    0.2760   -0.1120 C   0  0  0  0  0  0  0  0  0  0  0  0
    1.3270   -0.7770    0.3100 C   0  0  0  0  0  0  0  0  0  0  0  0
   -0.1190   -1.0110    0.4450 C   0  0  0  0  0  0  0  0  0  0  0  0
   -0.9270    0.0880    0.0510 N   0  0  0  0  0  0  0  0  0  0  0  0
   -2.3570   -0.0160    0.1360 C   0  0  0  0  0  0  0  0  0  0  0  0
   -2.8940   -1.1890    0.6010 C   0  0  0  0  0  0  0  0  0  0  0  0
   -4.2790   -1.3430    0.7030 C   0  0  0  0  0  0  0  0  0  0  0  0
   -5.1300   -0.3090    0.3360 C   0  0  0  0  0  0  0  0  0  0  0  0
   -4.5860    0.8670   -0.1300 C   0  0  0  0  0  0  0  0  0  0  0  0
   -5.4470    1.8900   -0.4930 O   0  0  0  0  0  0  0  0  0  0  0  0
   -3.2050    0.9900   -0.2210 C   0  0  0  0  0  0  0  0  0  0  0  0
    2.3700   -1.7890    0.6630 C   0  0  0  0  0  0  0  0  0  0  0  0
    3.5360   -1.2990    0.4400 N   0  0  0  0  0  0  0  0  0  0  0  0
    3.4370    0.0170   -0.0590 C   0  0  0  0  0  0  0  0  0  0  0  0
    4.3990    0.8510   -0.4080 C   0  0  0  0  0  0  0  0  0  0  0  0
    5.8280    0.4900   -0.3150 C   0  0  0  0  0  0  0  0  0  0  0  0
    6.6010    1.6640    0.8050 Cl  0  0  0  0  0  0  0  0  0  0  0  0
  1  2  1  0
  2  3  2  0
  2 15  1  0
  3  4  1  0
  3 13  1  0
  4  5  1  0
  5  6  1  0
  6  7  2  0
  6 12  1  0
  7  8  1  0
  8  9  2  0
  9 10  1  0
 10 11  1  0
 10 12  2  0
 13 14  2  0
 14 15  1  0
 15 16  2  3
 16 17  1  0
 17 18  1  0
M  END
