
     RDKit          3D

 23 24  0  0  0  0  0  0  0  0999 V2000
    0.0860    1.8200   -1.0950 O   0  0  0  0  0  0  0  0  0  0  0  0
   -0.7590    1.6190   -0.1720 C   0  0  0  0  0  0  0  0  0  0  0  0
   -1.7830    2.6310    0.1640 C   0  0  0  0  0  0  0  0  0  0  0  0
   -3.0230    2.1060    1.3270 S   0  0  0  0  0  0  0  0  0  0  0  0
   -4.2250    0.9640    0.6950 C   0  0  0  0  0  0  0  0  0  0  0  0
   -5.3290    1.5520    0.0530 C   0  0  0  0  0  0  0  0  0  0  0  0
   -6.3160    0.7440   -0.4390 C   0  0  0  0  0  0  0  0  0  0  0  0
   -6.2730   -0.6380   -0.3310 C   0  0  0  0  0  0  0  0  0  0  0  0
   -7.3170   -1.4000   -0.8560 O   0  0  0  0  0  0  0  0  0  0  0  0
   -5.1880   -1.1640    0.2960 C   0  0  0  0  0  0  0  0  0  0  0  0
   -4.1500   -0.3920    0.8190 C   0  0  0  0  0  0  0  0  0  0  0  0
   -0.6330    0.3750    0.4960 N   0  0  0  0  0  0  0  0  0  0  0  0
    0.3760   -0.5500    0.1280 N   0  0  0  0  0  0  0  0  0  0  0  0
    1.7470   -0.1470    0.2210 C   0  0  0  0  0  0  0  0  0  0  0  0
    1.9640    0.9980    0.6170 O   0  0  0  0  0  0  0  0  0  0  0  0
    2.7960   -1.0200   -0.1240 N   0  0  0  0  0  0  0  0  0  0  0  0
    4.1830   -0.7590   -0.0860 C   0  0  0  0  0  0  0  0  0  0  0  0
    4.6990    0.4840    0.2870 C   0  0  0  0  0  0  0  0  0  0  0  0
    6.0860    0.6620    0.2940 C   0  0  0  0  0  0  0  0  0  0  0  0
    6.9390   -0.3510   -0.0560 C   0  0  0  0  0  0  0  0  0  0  0  0
    6.4040   -1.5670   -0.4190 C   0  0  0  0  0  0  0  0  0  0  0  0
    5.0430   -1.7830   -0.4380 C   0  0  0  0  0  0  0  0  0  0  0  0
    4.5040   -3.0030   -0.8020 O   0  0  0  0  0  0  0  0  0  0  0  0
  1  2  2  0
  2  3  1  0
  2 12  1  0
  3  4  1  0
  4  5  1  0
  5  6  2  0
  5 11  1  0
  6  7  1  0
  7  8  2  0
  8  9  1  0
  8 10  1  0
 10 11  2  0
 12 13  1  0
 13 14  1  0
 14 15  2  0
 14 16  1  0
 16 17  1  0
 17 18  2  0
 17 22  1  0
 18 19  1  0
 19 20  2  0
 20 21  1  0
 21 22  2  0
 22 23  1  0
M  END
