
     RDKit          3D

 23 24  0  0  0  0  0  0  0  0999 V2000
   -4.6980   -0.9160    1.7730 C   0  0  0  0  0  0  0  0  0  0  0  0
   -4.8470    0.2030    1.0830 C   0  0  0  0  0  0  0  0  0  0  0  0
   -5.3010    1.8160    1.7380 S   0  0  0  0  0  0  0  0  0  0  0  0
   -5.7450    2.5230    0.1240 C   0  0  0  0  0  0  0  0  0  0  0  0
   -5.1260    1.5580   -0.8000 C   0  0  0  0  0  0  0  0  0  0  0  0
   -4.6960    0.4430   -0.3370 C   0  0  0  0  0  0  0  0  0  0  0  0
   -4.0480   -0.6180   -1.2110 C   0  0  0  0  0  0  0  0  0  0  0  0
   -2.6670   -0.8600   -0.7320 C   0  0  0  0  0  0  0  0  0  0  0  0
   -2.2290   -0.2160    0.2650 O   0  0  0  0  0  0  0  0  0  0  0  0
   -1.7840   -1.7830   -1.3250 N   0  0  0  0  0  0  0  0  0  0  0  0
   -0.4810   -1.9960   -0.8560 N   0  0  0  0  0  0  0  0  0  0  0  0
    0.3950   -0.8940   -0.8380 C   0  0  0  0  0  0  0  0  0  0  0  0
   -0.0120    0.2260   -1.2350 O   0  0  0  0  0  0  0  0  0  0  0  0
    1.7830   -0.9830   -0.3740 C   0  0  0  0  0  0  0  0  0  0  0  0
    2.1880   -2.1020    0.0220 O   0  0  0  0  0  0  0  0  0  0  0  0
    2.6460    0.1250   -0.3620 N   0  0  0  0  0  0  0  0  0  0  0  0
    3.9890    0.1410    0.0600 C   0  0  0  0  0  0  0  0  0  0  0  0
    4.7580   -0.9180    0.4430 C   0  0  0  0  0  0  0  0  0  0  0  0
    6.0950   -0.7810    0.8530 C   0  0  0  0  0  0  0  0  0  0  0  0
    6.6910    0.4550    0.8850 C   0  0  0  0  0  0  0  0  0  0  0  0
    8.0110    0.5720    1.2930 O   0  0  0  0  0  0  0  0  0  0  0  0
    5.9260    1.5330    0.5000 C   0  0  0  0  0  0  0  0  0  0  0  0
    4.6180    1.3920    0.0990 C   0  0  0  0  0  0  0  0  0  0  0  0
  1  2  2  0
  2  3  1  0
  2  6  1  0
  3  4  1  0
  4  5  1  0
  5  6  2  0
  6  7  1  0
  7  8  1  0
  8  9  2  0
  8 10  1  0
 10 11  1  0
 11 12  1  0
 12 13  2  0
 12 14  1  0
 14 15  2  0
 14 16  1  0
 16 17  1  0
 17 18  2  0
 17 23  1  0
 18 19  1  0
 19 20  2  0
 20 21  1  0
 20 22  1  0
 22 23  2  0
M  END
