
     RDKit          3D

 23 24  0  0  0  0  0  0  0  0999 V2000
    5.1860    0.6500    3.0370 C   0  0  0  0  0  0  0  0  0  0  0  0
    5.4760    0.3520    1.6790 O   0  0  0  0  0  0  0  0  0  0  0  0
    4.4110    0.0560    0.8080 C   0  0  0  0  0  0  0  0  0  0  0  0
    3.1200    0.0590    1.2750 C   0  0  0  0  0  0  0  0  0  0  0  0
    2.0190   -0.2270    0.4560 C   0  0  0  0  0  0  0  0  0  0  0  0
    0.7350   -0.1920    1.0200 N   0  0  0  0  0  0  0  0  0  0  0  0
   -0.4820   -0.5920    0.3740 C   0  0  0  0  0  0  0  0  0  0  0  0
   -0.4420   -1.0160   -0.7820 O   0  0  0  0  0  0  0  0  0  0  0  0
   -1.7070   -0.4960    1.0650 N   0  0  0  0  0  0  0  0  0  0  0  0
   -2.9940   -0.8350    0.5680 C   0  0  0  0  0  0  0  0  0  0  0  0
   -3.4130    0.0250   -0.5770 C   0  0  1  0  0  0  0  0  0  0  0  0
   -2.5450   -0.1140   -1.6360 O   0  0  0  0  0  0  0  0  0  0  0  0
   -4.7870   -0.3570   -1.1050 C   0  0  0  0  0  0  0  0  0  0  0  0
   -5.8580   -0.2790   -0.0710 C   0  0  0  0  0  0  0  0  0  0  0  0
   -5.8400    1.2820    0.8460 S   0  0  0  0  0  0  0  0  0  0  0  0
   -4.0830    1.7280    1.1190 C   0  0  0  0  0  0  0  0  0  0  0  0
   -3.3810    1.5020   -0.2020 C   0  0  0  0  0  0  0  0  0  0  0  0
    2.3360   -0.5100   -0.8460 C   0  0  0  0  0  0  0  0  0  0  0  0
    3.6310   -0.5200   -1.3420 C   0  0  0  0  0  0  0  0  0  0  0  0
    3.8800   -0.8220   -2.7010 N   0  0  0  0  0  0  0  0  0  0  0  0
    4.6720   -0.2360   -0.5100 C   0  0  0  0  0  0  0  0  0  0  0  0
    6.0550   -0.2330   -0.9830 C   0  0  0  0  0  0  0  0  0  0  0  0
    6.3290   -0.4940   -2.1780 O   0  0  0  0  0  0  0  0  0  0  0  0
  1  2  1  0
  2  3  1  0
  3  4  2  0
  3 21  1  0
  4  5  1  0
  5  6  1  0
  5 18  2  0
  6  7  1  0
  7  8  2  0
  7  9  1  0
  9 10  1  0
 10 11  1  0
 11 12  1  6
 11 13  1  0
 11 17  1  0
 13 14  1  0
 14 15  1  0
 15 16  1  0
 16 17  1  0
 18 19  1  0
 19 20  1  0
 19 21  2  0
 21 22  1  0
 22 23  2  0
M  END
