
     RDKit          3D

 23 24  0  0  0  0  0  0  0  0999 V2000
    6.3080   -0.7510   -0.0870 C   0  0  0  0  0  0  0  0  0  0  0  0
    4.8970   -0.1970    0.0670 C   0  0  0  0  0  0  0  0  0  0  0  0
    3.8170   -0.9540   -0.1630 C   0  0  0  0  0  0  0  0  0  0  0  0
    2.5860   -0.3930   -0.0050 C   0  0  0  0  0  0  0  0  0  0  0  0
    1.2740   -0.9450   -0.1820 N   0  0  0  0  0  0  0  0  0  0  0  0
    0.1250   -0.1610    0.0720 C   0  0  0  0  0  0  0  0  0  0  0  0
    0.3680    1.0330    0.4610 O   0  0  0  0  0  0  0  0  0  0  0  0
   -1.2380   -0.6290   -0.0810 C   0  0  0  0  0  0  0  0  0  0  0  0
   -2.2320    0.2290    0.3980 C   0  0  0  0  0  0  0  0  0  0  0  0
   -3.5670   -0.0940    0.3280 C   0  0  0  0  0  0  0  0  0  0  0  0
   -4.5620    0.8490    0.8450 C   0  0  0  0  0  0  0  0  0  0  0  0
   -5.2270    1.5800   -0.3090 C   0  0  0  0  0  0  0  0  0  0  0  0
   -6.1760    2.4770    0.1860 O   0  0  0  0  0  0  0  0  0  0  0  0
   -3.9090   -1.3050   -0.2370 C   0  0  0  0  0  0  0  0  0  0  0  0
   -5.3110   -1.7200   -0.3450 C   0  0  0  0  0  0  0  0  0  0  0  0
   -2.9410   -2.1160   -0.6920 N   0  0  0  0  0  0  0  0  0  0  0  0
   -1.6250   -1.8190   -0.6320 C   0  0  0  0  0  0  0  0  0  0  0  0
   -0.7930   -2.6170   -1.0740 O   0  0  0  0  0  0  0  0  0  0  0  0
    2.9400    1.2730    0.4900 S   0  0  0  0  0  0  0  0  0  0  0  0
    4.7340    1.0880    0.4460 C   0  0  0  0  0  0  0  0  0  0  0  0
    5.6660    2.1410    0.7670 C   0  0  0  0  0  0  0  0  0  0  0  0
    7.0540    1.9110    0.7490 N   0  0  0  0  0  0  0  0  0  0  0  0
    5.2360    3.2740    1.0670 O   0  0  0  0  0  0  0  0  0  0  0  0
  1  2  1  0
  2  3  1  0
  2 20  2  0
  3  4  2  0
  4  5  1  0
  4 19  1  0
  5  6  1  0
  6  7  2  0
  6  8  1  0
  8  9  2  0
  8 17  1  0
  9 10  1  0
 10 11  1  0
 10 14  2  0
 11 12  1  0
 12 13  1  0
 14 15  1  0
 14 16  1  0
 16 17  1  0
 17 18  2  0
 19 20  1  0
 20 21  1  0
 21 22  1  0
 21 23  2  0
M  END
