
     RDKit          3D

 23 24  0  0  0  0  0  0  0  0999 V2000
    4.9690    1.0190   -0.5240 C   0  0  0  0  0  0  0  0  0  0  0  0
    4.8800   -0.1380    0.0660 C   0  0  0  0  0  0  0  0  0  0  0  0
    5.9960   -0.9590    0.1760 O   0  0  0  0  0  0  0  0  0  0  0  0
    5.9740   -2.1970    0.7900 C   0  0  0  0  0  0  0  0  0  0  0  0
    4.8470   -2.6420    1.3040 C   0  0  0  0  0  0  0  0  0  0  0  0
    3.6580   -1.8080    1.2060 C   0  0  0  0  0  0  0  0  0  0  0  0
    3.6440   -0.6180    0.6250 C   0  0  0  0  0  0  0  0  0  0  0  0
    2.4260    0.1100    0.5910 N   0  0  0  0  0  0  0  0  0  0  0  0
    1.7380    0.4780   -0.5640 C   0  0  0  0  0  0  0  0  0  0  0  0
    2.2020    0.1530   -1.6860 O   0  0  0  0  0  0  0  0  0  0  0  0
    0.4750    1.2410   -0.5540 C   0  0  0  0  0  0  0  0  0  0  0  0
   -0.0350    1.5930    0.5390 O   0  0  0  0  0  0  0  0  0  0  0  0
   -0.2040    1.6020   -1.7460 N   0  0  0  0  0  0  0  0  0  0  0  0
   -1.4210    2.3330   -1.8120 C   0  0  0  0  0  0  0  0  0  0  0  0
   -2.5500    1.6410   -1.1220 C   0  0  0  0  0  0  0  0  0  0  0  0
   -2.6430    0.4310   -0.5610 C   0  0  0  0  0  0  0  0  0  0  0  0
   -3.7870    0.0430    0.0050 C   0  0  0  0  0  0  0  0  0  0  0  0
   -3.9890   -1.2860    0.6560 C   0  0  0  0  0  0  0  0  0  0  0  0
   -2.9440   -2.2490    0.7140 N   0  0  0  0  0  0  0  0  0  0  0  0
   -5.0720   -1.6140    1.1760 O   0  0  0  0  0  0  0  0  0  0  0  0
   -4.8370    0.9450   -0.0250 C   0  0  0  0  0  0  0  0  0  0  0  0
   -6.2340    0.7830    0.5280 C   0  0  0  0  0  0  0  0  0  0  0  0
   -4.1660    2.3300   -0.8630 S   0  0  0  0  0  0  0  0  0  0  0  0
  1  2  2  0
  2  3  1  0
  2  7  1  0
  3  4  1  0
  4  5  2  0
  5  6  1  0
  6  7  2  0
  7  8  1  0
  8  9  1  0
  9 10  2  0
  9 11  1  0
 11 12  2  0
 11 13  1  0
 13 14  1  0
 14 15  1  0
 15 16  2  0
 15 23  1  0
 16 17  1  0
 17 18  1  0
 17 21  2  0
 18 19  1  0
 18 20  2  0
 21 22  1  0
 21 23  1  0
M  END
