
     RDKit          3D

 22 23  0  0  0  0  0  0  0  0999 V2000
   -1.0440    1.0460    0.7900 C   0  0  0  0  0  0  0  0  0  0  0  0
   -1.3680   -0.2980    0.3260 C   0  0  0  0  0  0  0  0  0  0  0  0
   -2.5540   -0.8000    0.2830 C   0  0  0  0  0  0  0  0  0  0  0  0
   -3.7790   -0.1480    0.6790 C   0  0  0  0  0  0  0  0  0  0  0  0
   -3.8810    1.0080    1.1250 O   0  0  0  0  0  0  0  0  0  0  0  0
   -5.0430   -0.8450    0.5720 N   0  0  0  0  0  0  0  0  0  0  0  0
   -6.3140   -0.2850    0.9320 C   0  0  0  0  0  0  0  0  0  0  0  0
   -6.6010    0.9130    0.0700 C   0  0  0  0  0  0  0  0  0  0  0  0
   -6.6110    0.4640   -1.2530 O   0  0  0  0  0  0  0  0  0  0  0  0
   -0.2550   -1.1580   -0.1340 C   0  0  0  0  0  0  0  0  0  0  0  0
    0.9940   -0.8850   -0.1850 C   0  0  0  0  0  0  0  0  0  0  0  0
    1.6570    0.6750    0.3190 S   0  0  0  0  0  0  0  0  0  0  0  0
    3.4300    0.6330    0.0850 C   0  0  0  0  0  0  0  0  0  0  0  0
    4.1770    1.7320    0.4060 C   0  0  0  0  0  0  0  0  0  0  0  0
    5.5350    1.7070    0.2300 C   0  0  0  0  0  0  0  0  0  0  0  0
    6.1600    0.5830   -0.2690 C   0  0  0  0  0  0  0  0  0  0  0  0
    7.5620    0.5980   -0.4360 N   0  0  0  0  0  0  0  0  0  0  0  0
    5.3820   -0.4920   -0.5770 C   0  0  0  0  0  0  0  0  0  0  0  0
    3.9950   -0.5170   -0.4160 C   0  0  0  0  0  0  0  0  0  0  0  0
    3.3130   -1.6840   -0.7700 N   0  0  0  0  0  0  0  0  0  0  0  0
    1.9360   -1.8940   -0.6800 C   0  0  0  0  0  0  0  0  0  0  0  0
    1.4820   -3.0330   -1.0510 O   0  0  0  0  0  0  0  0  0  0  0  0
  1  2  1  0
  2  3  2  3
  2 10  1  0
  3  4  1  0
  4  5  2  0
  4  6  1  0
  6  7  1  0
  7  8  1  0
  8  9  1  0
 10 11  2  3
 11 12  1  0
 11 21  1  0
 12 13  1  0
 13 14  2  0
 13 19  1  0
 14 15  1  0
 15 16  2  0
 16 17  1  0
 16 18  1  0
 18 19  2  0
 19 20  1  0
 20 21  1  0
 21 22  2  0
M  END
