
     RDKit          3D

 23 24  0  0  0  0  0  0  0  0999 V2000
   -2.3010    0.8880    2.3910 C   0  0  0  0  0  0  0  0  0  0  0  0
   -3.2250    0.9110    1.2120 C   0  0  0  0  0  0  0  0  0  0  0  0
   -4.5360    1.2490    1.2690 C   0  0  0  0  0  0  0  0  0  0  0  0
   -5.3470    0.9820    0.1680 C   0  0  0  0  0  0  0  0  0  0  0  0
   -6.6740    1.3100    0.1860 O   0  0  0  0  0  0  0  0  0  0  0  0
   -4.7680    0.3800   -0.9290 C   0  0  0  0  0  0  0  0  0  0  0  0
   -5.5780    0.1160   -2.0070 O   0  0  0  0  0  0  0  0  0  0  0  0
   -3.3920    0.0320   -0.9790 C   0  0  0  0  0  0  0  0  0  0  0  0
   -2.9060   -0.5910   -2.1540 N   0  0  0  0  0  0  0  0  0  0  0  0
   -2.6240    0.2950    0.0720 C   0  0  0  0  0  0  0  0  0  0  0  0
   -1.1310    0.2820    0.2020 C   0  0  0  0  0  0  0  0  0  0  0  0
   -0.1890   -0.9800    0.4930 S   0  0  0  0  0  0  0  0  0  0  0  0
    0.7580   -2.2840    0.1570 C   0  0  0  0  0  0  0  0  0  0  0  0
    2.1730   -1.8490   -0.2430 C   0  0  0  0  0  0  0  0  0  0  0  0
    3.0470   -2.7480   -0.1270 O   0  0  0  0  0  0  0  0  0  0  0  0
    2.4350   -0.5540   -0.6540 N   0  0  0  0  0  0  0  0  0  0  0  0
    3.7770   -0.0030   -0.5530 C   0  0  0  0  0  0  0  0  0  0  0  0
    4.6900   -0.7200    0.2320 C   0  0  0  0  0  0  0  0  0  0  0  0
    6.0000   -0.2940    0.3650 C   0  0  0  0  0  0  0  0  0  0  0  0
    6.8870   -1.0700    1.1820 O   0  0  0  0  0  0  0  0  0  0  0  0
    6.4350    0.8420   -0.2590 C   0  0  0  0  0  0  0  0  0  0  0  0
    5.4810    1.5370   -1.0260 C   0  0  0  0  0  0  0  0  0  0  0  0
    4.2000    1.0740   -1.1330 N   0  0  0  0  0  0  0  0  0  0  0  0
  1  2  1  0
  2  3  2  0
  2 10  1  0
  3  4  1  0
  4  5  1  0
  4  6  2  0
  6  7  1  0
  6  8  1  0
  8  9  1  0
  8 10  2  0
 10 11  1  0
 11 12  1  0
 12 13  1  0
 13 14  1  0
 14 15  2  0
 14 16  1  0
 16 17  1  0
 17 18  2  0
 17 23  1  0
 18 19  1  0
 19 20  1  0
 19 21  2  0
 21 22  1  0
 22 23  2  0
M  END
