
     RDKit          3D

 43 48  0  0  0  0  0  0  0  0999 V2000
  -10.1260    3.7170   -0.3700 C   0  0  0  0  0  0  0  0  0  0  0  0
   -8.6390    3.7640   -0.1490 C   0  0  0  0  0  0  0  0  0  0  0  0
   -8.1610    4.8640    0.1940 O   0  0  0  0  0  0  0  0  0  0  0  0
   -7.8350    2.6300   -0.3210 N   0  0  0  0  0  0  0  0  0  0  0  0
   -6.4240    2.5820   -0.1390 C   0  0  0  0  0  0  0  0  0  0  0  0
   -5.6110    3.6500    0.0820 C   0  0  0  0  0  0  0  0  0  0  0  0
   -4.2600    3.5110    0.2580 C   0  0  0  0  0  0  0  0  0  0  0  0
   -3.6910    2.2780    0.2160 C   0  0  0  0  0  0  0  0  0  0  0  0
   -4.4770    1.1640   -0.0060 C   0  0  0  0  0  0  0  0  0  0  0  0
   -3.7870   -0.1320   -0.0390 C   0  0  0  0  0  0  0  0  0  0  0  0
   -4.4870   -1.2930   -0.2440 C   0  0  0  0  0  0  0  0  0  0  0  0
   -3.8130   -2.5210   -0.2710 C   0  0  0  0  0  0  0  0  0  0  0  0
   -2.4320   -2.5070   -0.0850 C   0  0  0  0  0  0  0  0  0  0  0  0
   -1.5460   -3.4780   -0.0600 N   0  0  0  0  0  0  0  0  0  0  0  0
   -0.3050   -2.9390    0.1580 C   0  0  0  0  0  0  0  0  0  0  0  0
    0.8420   -3.7990    0.2360 C   0  0  0  0  0  0  0  0  0  0  0  0
    2.1120   -3.3350    0.3890 C   0  0  0  0  0  0  0  0  0  0  0  0
    3.2240   -4.1950    0.4740 C   0  0  0  0  0  0  0  0  0  0  0  0
    3.0450   -5.5530    0.4020 C   0  0  0  0  0  0  0  0  0  0  0  0
    1.7920   -6.0100    0.2520 N   0  0  0  0  0  0  0  0  0  0  0  0
    0.7280   -5.1970    0.1700 C   0  0  0  0  0  0  0  0  0  0  0  0
   -0.5720   -5.7360    0.0130 N   0  0  0  0  0  0  0  0  0  0  0  0
   -0.4060   -1.6270    0.2700 N   0  0  0  0  0  0  0  0  0  0  0  0
    0.5480   -0.6510    0.4960 C   0  0  0  0  0  0  0  0  0  0  0  0
    1.1570    0.0520   -0.5400 C   0  0  0  0  0  0  0  0  0  0  0  0
    2.0850    1.0430   -0.3020 C   0  0  0  0  0  0  0  0  0  0  0  0
    2.4350    1.3610    1.0060 C   0  0  0  0  0  0  0  0  0  0  0  0
    3.4250    2.4190    1.2800 C   0  0  0  0  0  0  0  0  0  0  0  0
    4.6270    2.1770    0.4860 N   0  0  0  0  0  0  0  0  0  0  0  0
    5.5490    1.1780    0.8440 C   0  0  0  0  0  0  0  0  0  0  0  0
    5.3230    0.4810    1.8790 O   0  0  0  0  0  0  0  0  0  0  0  0
    6.7440    0.9130    0.0800 C   0  0  0  0  0  0  0  0  0  0  0  0
    7.0760    1.6060   -1.0520 C   0  0  0  0  0  0  0  0  0  0  0  0
    8.2190    1.3590   -1.7910 C   0  0  0  0  0  0  0  0  0  0  0  0
    9.0620    0.3600   -1.3570 C   0  0  0  0  0  0  0  0  0  0  0  0
    8.7610   -0.3580   -0.2230 C   0  0  0  0  0  0  0  0  0  0  0  0
    9.6220   -1.3360    0.1710 F   0  0  0  0  0  0  0  0  0  0  0  0
    7.6220   -0.0970    0.4960 C   0  0  0  0  0  0  0  0  0  0  0  0
    1.8560    0.6890    2.0570 C   0  0  0  0  0  0  0  0  0  0  0  0
    0.9310   -0.2970    1.8010 C   0  0  0  0  0  0  0  0  0  0  0  0
   -1.7430   -1.3430    0.1190 C   0  0  0  0  0  0  0  0  0  0  0  0
   -2.4510   -0.2070    0.1330 N   0  0  0  0  0  0  0  0  0  0  0  0
   -5.8210    1.3160   -0.1800 C   0  0  0  0  0  0  0  0  0  0  0  0
  1  2  1  0
  2  3  2  0
  2  4  1  0
  4  5  1  0
  5  6  2  0
  5 43  1  0
  6  7  1  0
  7  8  2  0
  8  9  1  0
  9 10  1  0
  9 43  2  0
 10 11  2  0
 10 42  1  0
 11 12  1  0
 12 13  2  0
 13 14  1  0
 13 41  1  0
 14 15  2  0
 15 16  1  0
 15 23  1  0
 16 17  2  0
 16 21  1  0
 17 18  1  0
 18 19  2  0
 19 20  1  0
 20 21  2  0
 21 22  1  0
 23 24  1  0
 23 41  1  0
 24 25  2  0
 24 40  1  0
 25 26  1  0
 26 27  2  0
 27 28  1  0
 27 39  1  0
 28 29  1  0
 29 30  1  0
 30 31  2  0
 30 32  1  0
 32 33  2  0
 32 38  1  0
 33 34  1  0
 34 35  2  0
 35 36  1  0
 36 37  1  0
 36 38  2  0
 39 40  2  0
 41 42  2  0
M  END
