
     RDKit          3D

 43 47  0  0  0  0  0  0  0  0999 V2000
   10.2390   -0.2330    3.5430 C   0  0  0  0  0  0  0  0  0  0  0  0
   10.9400    0.8360    2.7030 C   0  0  0  0  0  0  0  0  0  0  0  0
   11.0130    0.3300    1.3570 N   0  0  0  0  0  0  0  0  0  0  0  0
   12.1260   -0.4260    0.9500 C   0  0  0  0  0  0  0  0  0  0  0  0
   12.1870   -0.8620   -0.2140 O   0  0  0  0  0  0  0  0  0  0  0  0
    9.9650    0.5970    0.4510 C   0  0  0  0  0  0  0  0  0  0  0  0
    9.8920    1.5490   -0.5060 N   0  0  0  0  0  0  0  0  0  0  0  0
    8.7200    1.4110   -1.1010 N   0  0  0  0  0  0  0  0  0  0  0  0
    8.0490    0.3900   -0.5390 C   0  0  0  0  0  0  0  0  0  0  0  0
    6.7140   -0.1090   -0.8900 C   0  0  0  0  0  0  0  0  0  0  0  0
    5.9620    0.3860   -1.8230 O   0  0  0  0  0  0  0  0  0  0  0  0
    4.8140   -0.2520   -1.9250 C   0  0  0  0  0  0  0  0  0  0  0  0
    3.6980    0.0230   -2.8740 C   0  0  1  0  0  0  0  0  0  0  0  0
    3.7150   -1.0470   -3.9380 C   0  0  0  0  0  0  0  0  0  0  0  0
    2.4430   -0.0640   -2.1140 N   0  0  0  0  0  0  0  0  0  0  0  0
    1.5720    1.0550   -1.9750 C   0  0  0  0  0  0  0  0  0  0  0  0
    1.9400    2.1380   -2.5420 O   0  0  0  0  0  0  0  0  0  0  0  0
    0.3700    0.9730   -1.2510 N   0  0  0  0  0  0  0  0  0  0  0  0
   -0.1580   -0.1690   -0.5800 C   0  0  0  0  0  0  0  0  0  0  0  0
   -1.6850   -0.0360   -0.6960 C   0  0  0  0  0  0  0  0  0  0  0  0
   -1.9040    1.3290   -1.1990 C   0  0  2  0  0  0  0  0  0  0  0  0
   -2.4210    1.4380   -2.5950 C   0  0  0  0  0  0  0  0  0  0  0  0
   -3.7460    0.7940   -2.8580 C   0  0  0  0  0  0  0  0  0  0  0  0
   -4.8160    1.3210   -2.0640 N   0  0  0  0  0  0  0  0  0  0  0  0
   -5.3110    2.6920   -2.2460 C   0  0  0  0  0  0  0  0  0  0  0  0
   -5.4490    0.5370   -1.0670 C   0  0  0  0  0  0  0  0  0  0  0  0
   -5.1210   -0.7670   -0.7670 C   0  0  0  0  0  0  0  0  0  0  0  0
   -5.7860   -1.4960    0.2290 C   0  0  0  0  0  0  0  0  0  0  0  0
   -6.8080   -0.9340    0.9600 C   0  0  0  0  0  0  0  0  0  0  0  0
   -7.4810   -1.6420    1.9490 C   0  0  0  0  0  0  0  0  0  0  0  0
   -7.0670   -3.0540    2.2150 C   0  0  0  0  0  0  0  0  0  0  0  0
   -8.5070   -1.0920    2.6860 C   0  0  0  0  0  0  0  0  0  0  0  0
   -9.2060   -1.8890    3.7390 C   0  0  0  0  0  0  0  0  0  0  0  0
   -8.8520    0.2140    2.4020 C   0  0  0  0  0  0  0  0  0  0  0  0
   -9.9520    0.8240    3.1800 C   0  0  0  0  0  0  0  0  0  0  0  0
   -8.1870    0.9250    1.4200 C   0  0  0  0  0  0  0  0  0  0  0  0
   -7.1530    0.3680    0.6790 C   0  0  0  0  0  0  0  0  0  0  0  0
   -6.4960    1.0740   -0.3000 C   0  0  0  0  0  0  0  0  0  0  0  0
   -0.5800    2.0340   -1.0390 C   0  0  0  0  0  0  0  0  0  0  0  0
    4.8450   -1.2450   -0.9660 C   0  0  0  0  0  0  0  0  0  0  0  0
    6.0510   -1.1600   -0.3040 C   0  0  0  0  0  0  0  0  0  0  0  0
    6.5300   -2.0170    0.8040 C   0  0  0  0  0  0  0  0  0  0  0  0
    8.8340   -0.0780    0.3960 O   0  0  0  0  0  0  0  0  0  0  0  0
  1  2  1  0
  2  3  1  0
  3  4  1  0
  3  6  1  0
  4  5  2  0
  6  7  2  0
  6 43  1  0
  7  8  1  0
  8  9  2  0
  9 10  1  0
  9 43  1  0
 10 11  1  0
 10 41  2  0
 11 12  1  0
 12 13  1  0
 12 40  2  0
 13 14  1  6
 13 15  1  0
 15 16  1  0
 16 17  2  0
 16 18  1  0
 18 19  1  0
 18 39  1  0
 19 20  1  0
 20 21  1  0
 21 22  1  6
 21 39  1  0
 22 23  1  0
 23 24  1  0
 24 25  1  0
 24 26  1  0
 26 27  2  0
 26 38  1  0
 27 28  1  0
 28 29  2  0
 29 30  1  0
 29 37  1  0
 30 31  1  0
 30 32  2  0
 32 33  1  0
 32 34  1  0
 34 35  1  0
 34 36  2  0
 36 37  1  0
 37 38  2  0
 40 41  1  0
 41 42  1  0
M  END
