
     RDKit          3D

 43 47  0  0  0  0  0  0  0  0999 V2000
   -5.9150   -3.9350   -1.8810 C   0  0  0  0  0  0  0  0  0  0  0  0
   -6.6670   -3.5500   -0.8700 C   0  0  0  0  0  0  0  0  0  0  0  0
   -6.8490   -2.1350   -0.5860 C   0  0  0  0  0  0  0  0  0  0  0  0
   -7.6070   -1.7920    0.4290 C   0  0  0  0  0  0  0  0  0  0  0  0
   -7.8280   -0.3650    0.7720 C   0  0  0  0  0  0  0  0  0  0  0  0
   -6.1960   -1.1390   -1.4660 C   0  0  0  0  0  0  0  0  0  0  0  0
   -4.7470   -1.2800   -1.4280 N   0  0  0  0  0  0  0  0  0  0  0  0
   -4.1260   -0.3310   -2.3470 C   0  0  0  0  0  0  0  0  0  0  0  0
   -4.2600   -1.0750   -0.0720 C   0  0  0  0  0  0  0  0  0  0  0  0
   -2.8170   -1.2140    0.0930 C   0  0  0  0  0  0  0  0  0  0  0  0
   -2.3000   -2.4020    0.5960 C   0  0  0  0  0  0  0  0  0  0  0  0
   -0.9410   -2.4950    0.7420 C   0  0  0  0  0  0  0  0  0  0  0  0
   -0.0470   -1.4610    0.4130 C   0  0  0  0  0  0  0  0  0  0  0  0
    1.3740   -1.6910    0.5580 C   0  0  0  0  0  0  0  0  0  0  0  0
    2.0150   -1.0930    1.4330 O   0  0  0  0  0  0  0  0  0  0  0  0
    2.0340   -2.6010   -0.2930 N   0  0  0  0  0  0  0  0  0  0  0  0
    3.4120   -2.9060   -0.2650 C   0  0  0  0  0  0  0  0  0  0  0  0
    4.3200   -2.3380    0.5430 N   0  0  0  0  0  0  0  0  0  0  0  0
    5.5000   -2.9030    0.2600 C   0  0  0  0  0  0  0  0  0  0  0  0
    6.7700   -2.5640    0.8930 C   0  0  0  0  0  0  0  0  0  0  0  0
    6.8740   -1.5780    1.7970 C   0  0  0  0  0  0  0  0  0  0  0  0
    8.2670   -1.4940    2.2360 C   0  0  0  0  0  0  0  0  0  0  0  0
    8.9700   -2.5510    1.4920 C   0  0  0  0  0  0  0  0  0  0  0  0
    8.0680   -3.1520    0.7200 C   0  0  0  0  0  0  0  0  0  0  0  0
    5.2920   -3.8250   -0.7330 C   0  0  0  0  0  0  0  0  0  0  0  0
    6.2750   -4.7180   -1.3990 C   0  0  0  0  0  0  0  0  0  0  0  0
    4.0060   -3.7850   -1.0140 O   0  0  0  0  0  0  0  0  0  0  0  0
   -0.5580   -0.2970   -0.0780 C   0  0  0  0  0  0  0  0  0  0  0  0
    0.2550    0.8330   -0.4000 N   0  0  0  0  0  0  0  0  0  0  0  0
    1.2830    0.7940   -1.3730 C   0  0  0  0  0  0  0  0  0  0  0  0
   -0.0270    2.0260    0.3110 C   0  0  0  0  0  0  0  0  0  0  0  0
   -0.9530    2.0430    1.1620 O   0  0  0  0  0  0  0  0  0  0  0  0
    0.7410    3.2450    0.0750 C   0  0  1  0  0  0  0  0  0  0  0  0
    0.3480    3.9080   -1.2580 C   0  0  0  0  0  0  0  0  0  0  0  0
    1.0250    5.1830   -1.0990 N   0  0  0  0  0  0  0  0  0  0  0  0
    1.8000    5.9340   -2.0640 C   0  0  0  0  0  0  0  0  0  0  0  0
    0.7500    5.5310    0.2540 C   0  0  0  0  0  0  0  0  0  0  0  0
    0.7540    6.7080    0.7310 O   0  0  0  0  0  0  0  0  0  0  0  0
    0.4660    4.3280    0.9930 N   0  0  0  0  0  0  0  0  0  0  0  0
    0.0160    4.3430    2.3670 C   0  0  1  0  0  0  0  0  0  0  0  0
    0.5460    5.3780    3.2920 C   0  0  0  0  0  0  0  0  0  0  0  0
   -0.8630    5.4500    2.8480 C   0  0  0  0  0  0  0  0  0  0  0  0
   -1.9540   -0.1930   -0.2320 C   0  0  0  0  0  0  0  0  0  0  0  0
  1  2  2  0
  2  3  1  0
  3  4  2  3
  3  6  1  0
  4  5  1  0
  6  7  1  0
  7  8  1  0
  7  9  1  0
  9 10  1  0
 10 11  2  0
 10 43  1  0
 11 12  1  0
 12 13  2  0
 13 14  1  0
 13 28  1  0
 14 15  2  0
 14 16  1  0
 16 17  1  0
 17 18  2  0
 17 27  1  0
 18 19  1  0
 19 20  1  0
 19 25  2  0
 20 21  2  0
 20 24  1  0
 21 22  1  0
 22 23  1  0
 23 24  2  0
 25 26  1  0
 25 27  1  0
 28 29  1  0
 28 43  2  0
 29 30  1  0
 29 31  1  0
 31 32  2  0
 33 31  1  1
 33 34  1  0
 33 39  1  0
 34 35  1  0
 35 36  1  0
 35 37  1  0
 37 38  2  0
 37 39  1  0
 40 39  1  6
 40 41  1  0
 40 42  1  0
 41 42  1  0
M  END
