
     RDKit          3D

 43 48  0  0  0  0  0  0  0  0999 V2000
   10.3340    3.0560   -0.1260 C   0  0  0  0  0  0  0  0  0  0  0  0
   10.3150    2.9600    1.2520 O   0  0  0  0  0  0  0  0  0  0  0  0
    9.7790    1.7820    1.6890 C   0  0  0  0  0  0  0  0  0  0  0  0
    8.3660    1.5950    1.3090 C   0  0  0  0  0  0  0  0  0  0  0  0
    7.6270    0.4420    1.4720 N   0  0  0  0  0  0  0  0  0  0  0  0
    6.3870    0.6750    1.0060 C   0  0  0  0  0  0  0  0  0  0  0  0
    5.2740   -0.2570    1.0480 C   0  0  0  0  0  0  0  0  0  0  0  0
    5.4620   -1.5160    1.6230 C   0  0  0  0  0  0  0  0  0  0  0  0
    4.4190   -2.3760    1.7460 C   0  0  0  0  0  0  0  0  0  0  0  0
    3.1300   -2.0930    1.3330 C   0  0  0  0  0  0  0  0  0  0  0  0
    2.1350   -2.9440    1.4650 O   0  0  0  0  0  0  0  0  0  0  0  0
    1.4390   -4.0010    1.7530 C   0  0  0  0  0  0  0  0  0  0  0  0
    2.9210   -0.8070    0.7420 C   0  0  0  0  0  0  0  0  0  0  0  0
    1.6130   -0.4950    0.3720 N   0  0  0  0  0  0  0  0  0  0  0  0
    0.9650    0.6350   -0.1670 C   0  0  2  0  0  0  0  0  0  0  0  0
    0.8160    1.7970    0.7600 C   0  0  0  0  0  0  0  0  0  0  0  0
    1.9340    2.4780    1.2670 C   0  0  0  0  0  0  0  0  0  0  0  0
    2.8500    3.0590    1.6830 N   0  0  0  0  0  0  0  0  0  0  0  0
   -0.4040    0.3400   -0.6290 N   0  0  0  0  0  0  0  0  0  0  0  0
   -1.2280    1.2680   -1.1750 C   0  0  0  0  0  0  0  0  0  0  0  0
   -2.4270    0.6250   -1.4140 C   0  0  0  0  0  0  0  0  0  0  0  0
   -3.6260    1.0600   -1.9350 C   0  0  0  0  0  0  0  0  0  0  0  0
   -3.6530    2.2730   -2.2850 O   0  0  0  0  0  0  0  0  0  0  0  0
   -4.7230    0.2710   -2.0790 N   0  0  0  0  0  0  0  0  0  0  0  0
   -5.9430    0.8220   -2.6140 C   0  0  0  0  0  0  0  0  0  0  0  0
   -6.8010    1.4930   -1.6030 C   0  0  0  0  0  0  0  0  0  0  0  0
   -6.7570    2.8970   -1.4710 C   0  0  0  0  0  0  0  0  0  0  0  0
   -7.5240    3.5660   -0.5510 C   0  0  0  0  0  0  0  0  0  0  0  0
   -8.3820    2.9210    0.3030 C   0  0  0  0  0  0  0  0  0  0  0  0
   -8.4380    1.5490    0.1870 C   0  0  0  0  0  0  0  0  0  0  0  0
   -7.6620    0.8520   -0.7480 C   0  0  0  0  0  0  0  0  0  0  0  0
   -4.5730   -1.0130   -1.6740 C   0  0  0  0  0  0  0  0  0  0  0  0
   -5.6350   -1.8940   -1.8080 C   0  0  0  0  0  0  0  0  0  0  0  0
   -5.5210   -3.2140   -1.4250 C   0  0  0  0  0  0  0  0  0  0  0  0
   -4.3550   -3.7110   -0.8960 C   0  0  0  0  0  0  0  0  0  0  0  0
   -4.1770   -5.1320   -0.4620 C   0  0  0  0  0  0  0  0  0  0  0  0
   -3.2990   -2.8390   -0.7640 C   0  0  0  0  0  0  0  0  0  0  0  0
   -3.3810   -1.5040   -1.1410 C   0  0  0  0  0  0  0  0  0  0  0  0
   -2.3010   -0.6630   -1.0130 C   0  0  0  0  0  0  0  0  0  0  0  0
   -1.0350   -0.7990   -0.5340 N   0  0  0  0  0  0  0  0  0  0  0  0
    3.9900    0.0450    0.6230 C   0  0  0  0  0  0  0  0  0  0  0  0
    6.4000    1.9880    0.5580 C   0  0  0  0  0  0  0  0  0  0  0  0
    7.5940    2.4890    0.7610 O   0  0  0  0  0  0  0  0  0  0  0  0
  1  2  1  0
  2  3  1  0
  3  4  1  0
  4  5  2  0
  4 43  1  0
  5  6  1  0
  6  7  1  0
  6 42  2  0
  7  8  2  0
  7 41  1  0
  8  9  1  0
  9 10  2  0
 10 11  1  0
 10 13  1  0
 11 12  1  0
 13 14  1  0
 13 41  2  0
 14 15  1  0
 15 16  1  1
 15 19  1  0
 16 17  1  0
 17 18  3  0
 19 20  1  0
 19 40  1  0
 20 21  2  0
 21 22  1  0
 21 39  1  0
 22 23  2  0
 22 24  1  0
 24 25  1  0
 24 32  1  0
 25 26  1  0
 26 27  2  0
 26 31  1  0
 27 28  1  0
 28 29  2  0
 29 30  1  0
 30 31  2  0
 32 33  2  0
 32 38  1  0
 33 34  1  0
 34 35  2  0
 35 36  1  0
 35 37  1  0
 37 38  2  0
 38 39  1  0
 39 40  2  0
 42 43  1  0
M  END
