
     RDKit          3D

 43 47  0  0  0  0  0  0  0  0999 V2000
   -8.2810    3.8520   -0.9030 C   0  0  0  0  0  0  0  0  0  0  0  0
   -8.6940    3.1550    0.1080 C   0  0  0  0  0  0  0  0  0  0  0  0
   -8.1690    1.8380    0.4160 C   0  0  0  0  0  0  0  0  0  0  0  0
   -8.6580    1.2000    1.4840 C   0  0  0  0  0  0  0  0  0  0  0  0
   -9.7070    1.8740    2.2890 C   0  0  0  0  0  0  0  0  0  0  0  0
   -7.1830    1.2550   -0.3910 N   0  0  0  0  0  0  0  0  0  0  0  0
   -6.3900    0.1000   -0.0560 C   0  0  1  0  0  0  0  0  0  0  0  0
   -7.2220   -1.1110    0.0290 C   0  0  0  0  0  0  0  0  0  0  0  0
   -8.2580   -1.4030   -0.8380 C   0  0  0  0  0  0  0  0  0  0  0  0
   -8.7670   -2.5540   -0.4930 O   0  0  0  0  0  0  0  0  0  0  0  0
   -8.1700   -3.0820    0.5410 C   0  0  0  0  0  0  0  0  0  0  0  0
   -8.5050   -4.3900    1.1910 C   0  0  0  0  0  0  0  0  0  0  0  0
   -7.1850   -2.1910    0.8950 C   0  0  0  0  0  0  0  0  0  0  0  0
   -5.2900   -0.0530   -0.9890 N   0  0  0  0  0  0  0  0  0  0  0  0
   -4.4760    1.1620   -0.8360 C   0  0  0  0  0  0  0  0  0  0  0  0
   -3.4100    1.2340   -1.8840 C   0  0  0  0  0  0  0  0  0  0  0  0
   -3.0820   -0.1310   -2.3860 C   0  0  0  0  0  0  0  0  0  0  0  0
   -3.1680   -1.2140   -1.3140 C   0  0  1  0  0  0  0  0  0  0  0  0
   -2.0020   -0.9660   -0.4120 C   0  0  0  0  0  0  0  0  0  0  0  0
   -0.6860   -1.0290   -0.7720 N   0  0  0  0  0  0  0  0  0  0  0  0
    0.0900   -0.7510    0.2870 C   0  0  0  0  0  0  0  0  0  0  0  0
    1.5360   -0.6900    0.3110 C   0  0  0  0  0  0  0  0  0  0  0  0
    2.2470   -0.8910   -0.8590 C   0  0  0  0  0  0  0  0  0  0  0  0
    3.6170   -0.8510   -0.9380 C   0  0  0  0  0  0  0  0  0  0  0  0
    4.3660   -0.5980    0.1940 C   0  0  0  0  0  0  0  0  0  0  0  0
    5.7820   -0.5580    0.1110 N   0  0  0  0  0  0  0  0  0  0  0  0
    6.4840    0.5420    0.7270 C   0  0  0  0  0  0  0  0  0  0  0  0
    7.6760   -0.0700    1.4790 C   0  0  0  0  0  0  0  0  0  0  0  0
    8.6390   -0.5890    0.4450 C   0  0  2  0  0  0  0  0  0  0  0  0
    9.1210    0.5500   -0.3700 C   0  0  0  0  0  0  0  0  0  0  0  0
    8.5380    0.7980   -1.4910 O   0  0  0  0  0  0  0  0  0  0  0  0
   10.1820    1.3590    0.0450 N   0  0  0  0  0  0  0  0  0  0  0  0
   10.6220    2.5320   -0.7150 C   0  0  0  0  0  0  0  0  0  0  0  0
   10.9510    1.0600    1.2280 C   0  0  0  0  0  0  0  0  0  0  0  0
   12.1220    0.1880    0.7800 C   0  0  0  0  0  0  0  0  0  0  0  0
    8.0080   -1.6650   -0.3840 C   0  0  0  0  0  0  0  0  0  0  0  0
    6.5530   -1.5390   -0.5450 C   0  0  0  0  0  0  0  0  0  0  0  0
    5.9590   -2.3440   -1.3060 O   0  0  0  0  0  0  0  0  0  0  0  0
    3.6860   -0.3940    1.3760 C   0  0  0  0  0  0  0  0  0  0  0  0
    2.2930   -0.4400    1.4290 C   0  0  0  0  0  0  0  0  0  0  0  0
   -0.7670   -0.5200    1.2910 N   0  0  0  0  0  0  0  0  0  0  0  0
   -1.9900   -0.6500    0.8610 O   0  0  0  0  0  0  0  0  0  0  0  0
   -4.4610   -1.1500   -0.5680 C   0  0  0  0  0  0  0  0  0  0  0  0
  1  2  2  0
  2  3  1  0
  3  4  2  3
  3  6  1  0
  4  5  1  0
  7  6  1  6
  7  8  1  0
  7 14  1  0
  8  9  2  0
  8 13  1  0
  9 10  1  0
 10 11  1  0
 11 12  1  0
 11 13  2  0
 14 15  1  0
 14 43  1  0
 15 16  1  0
 16 17  1  0
 17 18  1  0
 18 19  1  1
 18 43  1  0
 19 20  2  0
 19 42  1  0
 20 21  1  0
 21 22  1  0
 21 41  2  0
 22 23  2  0
 22 40  1  0
 23 24  1  0
 24 25  2  0
 25 26  1  0
 25 39  1  0
 26 27  1  0
 26 37  1  0
 27 28  1  0
 28 29  1  0
 29 30  1  6
 29 36  1  0
 30 31  2  0
 30 32  1  0
 32 33  1  0
 32 34  1  0
 34 35  1  0
 36 37  1  0
 37 38  2  0
 39 40  2  0
 41 42  1  0
M  END
