
     RDKit          3D

 43 48  0  0  0  0  0  0  0  0999 V2000
   -2.0190    7.9600    2.6130 C   0  0  0  0  0  0  0  0  0  0  0  0
   -1.0240    7.3070    2.0510 C   0  0  0  0  0  0  0  0  0  0  0  0
   -1.2030    5.9590    1.6140 N   0  0  0  0  0  0  0  0  0  0  0  0
   -2.3460    5.5500    0.8320 C   0  0  0  0  0  0  0  0  0  0  0  0
   -2.8210    4.1900    1.3670 C   0  0  0  0  0  0  0  0  0  0  0  0
   -1.6640    3.2680    1.0790 C   0  0  0  0  0  0  0  0  0  0  0  0
   -1.8940    2.0350    0.5150 C   0  0  0  0  0  0  0  0  0  0  0  0
   -0.8480    1.1580    0.2310 C   0  0  0  0  0  0  0  0  0  0  0  0
    0.4080    1.5980    0.5450 C   0  0  0  0  0  0  0  0  0  0  0  0
    0.6560    2.8330    1.1110 C   0  0  0  0  0  0  0  0  0  0  0  0
   -0.3890    3.6900    1.3870 C   0  0  0  0  0  0  0  0  0  0  0  0
   -0.1700    5.0260    2.0010 C   0  0  0  0  0  0  0  0  0  0  0  0
    1.2680    0.5820    0.1750 C   0  0  0  0  0  0  0  0  0  0  0  0
    2.6530    0.5260    0.2730 C   0  0  0  0  0  0  0  0  0  0  0  0
    3.3010   -0.5840   -0.1670 C   0  0  0  0  0  0  0  0  0  0  0  0
    4.6960   -0.7170   -0.0810 N   0  0  0  0  0  0  0  0  0  0  0  0
    5.5290    0.0720    0.6940 C   0  0  0  0  0  0  0  0  0  0  0  0
    5.1180    0.9930    1.4120 O   0  0  0  0  0  0  0  0  0  0  0  0
    7.0140   -0.2190    0.6500 C   0  0  0  0  0  0  0  0  0  0  0  0
    7.2740   -1.3270   -0.2430 N   0  0  0  0  0  0  0  0  0  0  0  0
    7.3070   -2.7150    0.1130 C   0  0  0  0  0  0  0  0  0  0  0  0
    6.8050   -3.1940    1.1570 O   0  0  0  0  0  0  0  0  0  0  0  0
    8.0310   -3.4080   -0.9810 C   0  0  0  0  0  0  0  0  0  0  0  0
    7.7340   -2.5930   -2.0900 O   0  0  0  0  0  0  0  0  0  0  0  0
    7.5450   -1.2840   -1.6290 C   0  0  0  0  0  0  0  0  0  0  0  0
    7.6130   -0.2710   -2.3540 O   0  0  0  0  0  0  0  0  0  0  0  0
    2.5220   -1.6080   -0.6970 C   0  0  0  0  0  0  0  0  0  0  0  0
    1.1560   -1.5800   -0.8060 C   0  0  0  0  0  0  0  0  0  0  0  0
    0.4010   -2.7030   -1.4140 C   0  0  0  0  0  0  0  0  0  0  0  0
    0.5030   -0.4430   -0.3520 C   0  0  0  0  0  0  0  0  0  0  0  0
   -0.8120   -0.0740   -0.3100 N   0  0  0  0  0  0  0  0  0  0  0  0
   -1.9420   -0.8660   -0.7310 C   0  0  0  0  0  0  0  0  0  0  0  0
   -2.5670   -1.6860    0.3600 C   0  0  1  0  0  0  0  0  0  0  0  0
   -3.1100   -0.8860    1.5140 C   0  0  0  0  0  0  0  0  0  0  0  0
   -3.5570   -2.5590   -0.2360 N   0  0  0  0  0  0  0  0  0  0  0  0
   -4.2790   -3.4440    0.6630 C   0  0  0  0  0  0  0  0  0  0  0  0
   -5.2420   -4.2610   -0.1430 C   0  0  0  0  0  0  0  0  0  0  0  0
   -3.8160   -2.5610   -1.6230 C   0  0  0  0  0  0  0  0  0  0  0  0
   -4.5600   -1.7040   -2.3050 C   0  0  0  0  0  0  0  0  0  0  0  0
   -4.5620   -2.0710   -3.7170 C   0  0  0  0  0  0  0  0  0  0  0  0
   -3.8330   -3.1240   -3.8600 N   0  0  0  0  0  0  0  0  0  0  0  0
   -3.3090   -3.5250   -2.6060 C   0  0  0  0  0  0  0  0  0  0  0  0
   -2.5310   -4.5560   -2.4070 C   0  0  0  0  0  0  0  0  0  0  0  0
  1  2  2  0
  2  3  1  0
  3  4  1  0
  3 12  1  0
  4  5  1  0
  5  6  1  0
  6  7  2  0
  6 11  1  0
  7  8  1  0
  8  9  2  0
  8 31  1  0
  9 10  1  0
  9 13  1  0
 10 11  2  0
 11 12  1  0
 13 14  2  0
 13 30  1  0
 14 15  1  0
 15 16  1  0
 15 27  2  0
 16 17  1  0
 17 18  2  0
 17 19  1  0
 19 20  1  0
 20 21  1  0
 20 25  1  0
 21 22  2  0
 21 23  1  0
 23 24  1  0
 24 25  1  0
 25 26  2  0
 27 28  1  0
 28 29  1  0
 28 30  2  0
 30 31  1  0
 31 32  1  0
 32 33  1  0
 33 34  1  1
 33 35  1  0
 35 36  1  0
 35 38  1  0
 36 37  1  0
 38 39  2  0
 38 42  1  0
 39 40  1  0
 40 41  2  0
 41 42  1  0
 42 43  2  0
M  END
