
     RDKit          3D

 25 28  0  0  0  0  0  0  0  0999 V2000
    3.8820   -3.3160   -0.3620 C   0  0  0  0  0  0  0  0  0  0  0  0
    2.8510   -2.3530   -0.0150 N   0  0  0  0  0  0  0  0  0  0  0  0
    3.1270   -0.9810   -0.1160 C   0  0  0  0  0  0  0  0  0  0  0  0
    4.4740   -0.6240   -0.1430 C   0  0  0  0  0  0  0  0  0  0  0  0
    4.8270    0.6960   -0.0660 C   0  0  0  0  0  0  0  0  0  0  0  0
    6.2780    1.0490   -0.0980 C   0  0  0  0  0  0  0  0  0  0  0  0
    3.8540    1.6520    0.0370 C   0  0  0  0  0  0  0  0  0  0  0  0
    4.2780    3.0780    0.1220 C   0  0  0  0  0  0  0  0  0  0  0  0
    2.5270    1.2810    0.0600 C   0  0  0  0  0  0  0  0  0  0  0  0
    2.1350   -0.0690   -0.0210 C   0  0  0  0  0  0  0  0  0  0  0  0
    0.7080   -0.2970   -0.1660 C   0  0  0  0  0  0  0  0  0  0  0  0
    0.2650   -1.3460   -0.8040 C   0  0  0  0  0  0  0  0  0  0  0  0
   -1.1770   -1.6200   -0.9670 C   0  0  0  0  0  0  0  0  0  0  0  0
   -1.9610   -0.5970   -0.3450 N   0  0  0  0  0  0  0  0  0  0  0  0
   -1.4380    0.5260    0.3380 C   0  0  0  0  0  0  0  0  0  0  0  0
   -0.1970    0.6750    0.4270 N   0  0  0  0  0  0  0  0  0  0  0  0
   -2.3830    1.4640    0.9090 N   0  0  0  0  0  0  0  0  0  0  0  0
   -3.6580    1.3110    0.8170 C   0  0  0  0  0  0  0  0  0  0  0  0
   -4.7310    2.0140    1.2450 N   0  0  0  0  0  0  0  0  0  0  0  0
   -5.8730    1.4260    0.8880 C   0  0  0  0  0  0  0  0  0  0  0  0
   -7.2770    1.8510    1.1470 C   0  0  0  0  0  0  0  0  0  0  0  0
   -5.5700    0.2780    0.1890 C   0  0  0  0  0  0  0  0  0  0  0  0
   -4.1820    0.2170    0.1510 C   0  0  0  0  0  0  0  0  0  0  0  0
   -3.4030   -0.6860   -0.3980 C   0  0  0  0  0  0  0  0  0  0  0  0
   -3.9820   -1.8500   -1.1070 C   0  0  0  0  0  0  0  0  0  0  0  0
  1  2  1  0
  2  3  1  0
  3  4  2  0
  3 10  1  0
  4  5  1  0
  5  6  1  0
  5  7  2  0
  7  8  1  0
  7  9  1  0
  9 10  2  0
 10 11  1  0
 11 12  2  0
 11 16  1  0
 12 13  1  0
 13 14  1  0
 14 15  1  0
 14 24  1  0
 15 16  2  0
 15 17  1  0
 17 18  2  0
 18 19  1  0
 18 23  1  0
 19 20  1  0
 20 21  1  0
 20 22  2  0
 22 23  1  0
 23 24  2  0
 24 25  1  0
M  END
