
     RDKit          3D

 25 28  0  0  0  0  0  0  0  0999 V2000
    6.5730    1.0340   -0.2850 C   0  0  0  0  0  0  0  0  0  0  0  0
    5.3050    0.7210   -0.4200 C   0  0  0  0  0  0  0  0  0  0  0  0
    4.7400   -0.4310    0.2720 C   0  0  0  0  0  0  0  0  0  0  0  0
    5.2690   -1.5550    0.7320 C   0  0  0  0  0  0  0  0  0  0  0  0
    4.2040   -2.3400    1.3390 C   0  0  0  0  0  0  0  0  0  0  0  0
    3.0410   -1.6750    1.2380 C   0  0  0  0  0  0  0  0  0  0  0  0
    3.3090   -0.4100    0.5490 C   0  0  0  0  0  0  0  0  0  0  0  0
    2.5360    0.6030    0.1950 C   0  0  0  0  0  0  0  0  0  0  0  0
    1.0970    0.6190    0.4770 C   0  0  0  0  0  0  0  0  0  0  0  0
    0.4590    1.7910    0.8160 C   0  0  0  0  0  0  0  0  0  0  0  0
   -0.9040    1.8310    1.0950 C   0  0  0  0  0  0  0  0  0  0  0  0
   -1.6070    0.6970    1.0310 N   0  0  0  0  0  0  0  0  0  0  0  0
   -1.0060   -0.4590    0.7020 C   0  0  0  0  0  0  0  0  0  0  0  0
   -1.7910   -1.6350    0.6580 N   0  0  0  0  0  0  0  0  0  0  0  0
   -3.1160   -1.6310    1.0160 N   0  0  0  0  0  0  0  0  0  0  0  0
   -4.1110   -1.2700    0.3400 C   0  0  0  0  0  0  0  0  0  0  0  0
   -5.4540   -1.3760    0.9980 C   0  0  0  0  0  0  0  0  0  0  0  0
   -6.2650   -0.1380    0.7820 C   0  0  0  0  0  0  0  0  0  0  0  0
   -5.5880    0.8460   -0.1300 C   0  0  0  0  0  0  0  0  0  0  0  0
   -5.1670    0.1230   -1.3910 C   0  0  0  0  0  0  0  0  0  0  0  0
   -3.9760   -0.7610   -1.0370 C   0  0  0  0  0  0  0  0  0  0  0  0
    0.3320   -0.4910    0.4290 N   0  0  0  0  0  0  0  0  0  0  0  0
    3.1440    1.7050   -0.4850 N   0  0  0  0  0  0  0  0  0  0  0  0
    4.3660    1.5100   -1.2730 C   0  0  2  0  0  0  0  0  0  0  0  0
    4.0080    0.5850   -2.4290 C   0  0  0  0  0  0  0  0  0  0  0  0
  1  2  2  0
  2  3  1  0
  2 24  1  0
  3  4  2  0
  3  7  1  0
  4  5  1  0
  5  6  2  0
  6  7  1  0
  7  8  2  0
  8  9  1  0
  8 23  1  0
  9 10  2  0
  9 22  1  0
 10 11  1  0
 11 12  2  0
 12 13  1  0
 13 14  1  0
 13 22  2  0
 14 15  1  0
 15 16  2  3
 16 17  1  0
 16 21  1  0
 17 18  1  0
 18 19  1  0
 19 20  1  0
 20 21  1  0
 23 24  1  0
 24 25  1  6
M  END
