
     RDKit          3D

 18 20  0  0  0  0  0  0  0  0999 V2000
   -0.4640   -1.1650   -2.2600 O   0  0  0  0  0  0  0  0  0  0  0  0
   -1.3270   -0.5090   -1.5540 C   0  0  0  0  0  0  0  0  0  0  0  0
   -2.1720    0.5480   -2.1480 C   0  0  0  0  0  0  0  0  0  0  0  0
   -3.5260    0.4640   -1.4860 C   0  0  0  0  0  0  0  0  0  0  0  0
   -3.8010   -0.9120   -0.9310 C   0  0  0  0  0  0  0  0  0  0  0  0
   -2.9050   -1.2950    0.1880 C   0  0  0  0  0  0  0  0  0  0  0  0
   -1.4710   -0.8200   -0.1530 C   0  0  0  0  0  0  0  0  0  0  0  0
   -0.6160   -0.7020    0.7790 C   0  0  0  0  0  0  0  0  0  0  0  0
    0.7420   -0.2410    0.8740 C   0  0  0  0  0  0  0  0  0  0  0  0
    1.4580   -0.2560    2.0020 C   0  0  0  0  0  0  0  0  0  0  0  0
    2.7900    0.2740    1.8130 C   0  0  0  0  0  0  0  0  0  0  0  0
    3.8650    0.4410    2.7050 C   0  0  0  0  0  0  0  0  0  0  0  0
    5.0120    0.9820    2.2040 C   0  0  0  0  0  0  0  0  0  0  0  0
    5.1260    1.3440    0.9170 N   0  0  0  0  0  0  0  0  0  0  0  0
    4.1000    1.1900    0.0400 C   0  0  0  0  0  0  0  0  0  0  0  0
    2.9210    0.6470    0.5050 C   0  0  0  0  0  0  0  0  0  0  0  0
    1.6250    0.3300   -0.1120 C   0  0  0  0  0  0  0  0  0  0  0  0
    1.4240    0.5670   -1.3280 O   0  0  0  0  0  0  0  0  0  0  0  0
  1  2  2  0
  2  3  1  0
  2  7  1  0
  3  4  1  0
  4  5  1  0
  5  6  1  0
  6  7  1  0
  7  8  2  3
  8  9  1  0
  9 10  2  0
  9 17  1  0
 10 11  1  0
 11 12  2  0
 11 16  1  0
 12 13  1  0
 13 14  2  0
 14 15  1  0
 15 16  2  0
 16 17  1  0
 17 18  2  0
M  END
