
     RDKit          3D

 18 19  0  0  0  0  0  0  0  0999 V2000
    2.6130    0.8160    2.6340 C   0  0  0  0  0  0  0  0  0  0  0  0
    2.9930    0.3630    1.4780 C   0  0  0  0  0  0  0  0  0  0  0  0
    4.4520    0.2040    1.2660 C   0  0  0  0  0  0  0  0  0  0  0  0
    5.2540    0.4960    2.1680 O   0  0  0  0  0  0  0  0  0  0  0  0
    4.9260   -0.2940   -0.0020 C   0  0  0  0  0  0  0  0  0  0  0  0
    4.0470   -0.5940   -0.9360 C   0  0  0  0  0  0  0  0  0  0  0  0
    2.6000   -0.4280   -0.7020 C   0  0  0  0  0  0  0  0  0  0  0  0
    2.0370    0.0110    0.3920 C   0  0  0  0  0  0  0  0  0  0  0  0
    0.6200    0.1650    0.5320 C   0  0  0  0  0  0  0  0  0  0  0  0
    0.2730    0.5930    1.7380 O   0  0  0  0  0  0  0  0  0  0  0  0
   -0.4830   -0.0280   -0.3020 N   0  0  0  0  0  0  0  0  0  0  0  0
   -0.4170   -0.4260   -1.6420 C   0  0  0  0  0  0  0  0  0  0  0  0
   -0.4120   -1.8870   -1.9580 C   0  0  0  0  0  0  0  0  0  0  0  0
   -1.7820    0.2100    0.3730 C   0  0  1  0  0  0  0  0  0  0  0  0
   -2.3250    1.4810   -0.2560 C   0  0  0  0  0  0  0  0  0  0  0  0
   -3.6880    1.5150    0.4260 C   0  0  0  0  0  0  0  0  0  0  0  0
   -4.1190    0.0700    0.3220 C   0  0  0  0  0  0  0  0  0  0  0  0
   -2.8430   -0.7540    0.0880 C   0  0  0  0  0  0  0  0  0  0  0  0
  1  2  2  0
  2  3  1  0
  2  8  1  0
  3  4  2  0
  3  5  1  0
  5  6  2  0
  6  7  1  0
  7  8  2  0
  8  9  1  0
  9 10  2  0
  9 11  1  0
 11 12  1  0
 14 11  1  6
 12 13  1  0
 14 15  1  0
 14 18  1  0
 15 16  1  0
 16 17  1  0
 17 18  1  0
M  END
