
     RDKit          3D

 18 20  0  0  0  0  0  0  0  0999 V2000
   -6.0270   -0.2790   -0.1280 C   0  0  0  0  0  0  0  0  0  0  0  0
   -4.6530   -0.9240   -0.1050 C   0  0  0  0  0  0  0  0  0  0  0  0
   -3.7070    0.0580    0.4650 C   0  0  0  0  0  0  0  0  0  0  0  0
   -2.6680    0.4910   -0.2300 C   0  0  0  0  0  0  0  0  0  0  0  0
   -1.7100    1.4730    0.3220 C   0  0  0  0  0  0  0  0  0  0  0  0
   -0.3220    0.9530    0.3870 C   0  0  0  0  0  0  0  0  0  0  0  0
    0.5620    1.1110   -0.6720 C   0  0  0  0  0  0  0  0  0  0  0  0
    1.8480    0.6490   -0.6550 C   0  0  0  0  0  0  0  0  0  0  0  0
    2.7280    0.8060   -1.7090 C   0  0  0  0  0  0  0  0  0  0  0  0
    4.0130    0.3140   -1.6230 C   0  0  0  0  0  0  0  0  0  0  0  0
    4.4780   -0.3500   -0.4990 C   0  0  0  0  0  0  0  0  0  0  0  0
    3.5850   -0.4950    0.5400 C   0  0  0  0  0  0  0  0  0  0  0  0
    2.2930   -0.0160    0.4880 C   0  0  0  0  0  0  0  0  0  0  0  0
    1.4070   -0.1660    1.5320 C   0  0  0  0  0  0  0  0  0  0  0  0
    0.1460    0.3070    1.4710 N   0  0  0  0  0  0  0  0  0  0  0  0
    4.2410   -1.1780    1.5550 O   0  0  0  0  0  0  0  0  0  0  0  0
    5.4990   -1.6470    1.1150 C   0  0  0  0  0  0  0  0  0  0  0  0
    5.6670   -0.9450   -0.1030 O   0  0  0  0  0  0  0  0  0  0  0  0
  1  2  1  0
  2  3  1  0
  3  4  2  3
  4  5  1  0
  5  6  1  0
  6  7  2  0
  6 15  1  0
  7  8  1  0
  8  9  2  0
  8 13  1  0
  9 10  1  0
 10 11  2  0
 11 12  1  0
 11 18  1  0
 12 13  2  0
 12 16  1  0
 13 14  1  0
 14 15  2  0
 16 17  1  0
 17 18  1  0
M  END
