
     RDKit          3D

 39 43  0  0  0  0  0  0  0  0999 V2000
   -6.2200   -4.0340    1.3660 C   0  0  0  0  0  0  0  0  0  0  0  0
   -5.6900   -3.4580    0.1100 C   0  0  0  0  0  0  0  0  0  0  0  0
   -6.2820   -2.1150   -0.2180 N   0  0  1  0  0  0  0  0  0  0  0  0
   -7.6200   -2.1260    0.2140 C   0  0  0  0  0  0  0  0  0  0  0  0
   -5.3490   -1.1400    0.0870 C   0  0  0  0  0  0  0  0  0  0  0  0
   -5.4710    0.2500   -0.3120 C   0  0  0  0  0  0  0  0  0  0  0  0
   -6.5320    0.8050   -0.9630 C   0  0  0  0  0  0  0  0  0  0  0  0
   -6.5040    2.1500   -1.3600 C   0  0  0  0  0  0  0  0  0  0  0  0
   -5.4250    2.9520   -1.1080 C   0  0  0  0  0  0  0  0  0  0  0  0
   -5.4400    4.6540   -1.6250 S   0  0  0  0  0  0  0  0  0  0  0  0
   -6.1250    5.6650   -0.3000 C   0  0  0  0  0  0  0  0  0  0  0  0
   -4.3620    2.3590   -0.4440 C   0  0  0  0  0  0  0  0  0  0  0  0
   -4.3340    1.0890   -0.0450 C   0  0  0  0  0  0  0  0  0  0  0  0
   -3.2690    0.4510    0.7510 C   0  0  0  0  0  0  0  0  0  0  0  0
   -2.1150    0.2130    0.0470 N   0  0  1  0  0  0  0  0  0  0  0  0
   -2.1240    0.3840   -1.4110 C   0  0  0  0  0  0  0  0  0  0  0  0
   -0.8380   -0.3990   -1.7970 C   0  0  0  0  0  0  0  0  0  0  0  0
   -0.0920   -0.4480   -0.4900 C   0  0  1  0  0  0  0  0  0  0  0  0
    1.3020   -0.4830   -0.5640 N   0  0  0  0  0  0  0  0  0  0  0  0
    1.7740   -0.6000    0.8200 C   0  0  0  0  0  0  0  0  0  0  0  0
    2.1480    0.7620    1.3300 C   0  0  0  0  0  0  0  0  0  0  0  0
    3.4390    1.1490    0.6190 C   0  0  0  0  0  0  0  0  0  0  0  0
    3.5140    1.8100   -0.5650 C   0  0  0  0  0  0  0  0  0  0  0  0
    4.7430    2.0510   -1.1640 C   0  0  0  0  0  0  0  0  0  0  0  0
    5.9320    1.6410   -0.5920 C   0  0  0  0  0  0  0  0  0  0  0  0
    5.8500    0.9760    0.6070 C   0  0  0  0  0  0  0  0  0  0  0  0
    4.6380    0.7310    1.2120 C   0  0  0  0  0  0  0  0  0  0  0  0
    6.9710    0.4800    1.3250 O   0  0  0  0  0  0  0  0  0  0  0  0
    8.0100   -0.2620    0.7200 C   0  0  0  0  0  0  0  0  0  0  0  0
    8.5340   -1.2750    1.4510 C   0  0  0  0  0  0  0  0  0  0  0  0
    9.5610   -2.0900    0.9530 C   0  0  0  0  0  0  0  0  0  0  0  0
   10.0730   -1.8900   -0.2850 C   0  0  0  0  0  0  0  0  0  0  0  0
   11.1510   -2.6850   -0.8480 C   0  0  0  0  0  0  0  0  0  0  0  0
   11.6540   -2.6060   -1.9400 O   0  0  0  0  0  0  0  0  0  0  0  0
    9.5390   -0.8380   -1.0520 C   0  0  0  0  0  0  0  0  0  0  0  0
    8.5330   -0.0410   -0.5660 C   0  0  0  0  0  0  0  0  0  0  0  0
    8.1050    0.9560   -1.4230 O   0  0  0  0  0  0  0  0  0  0  0  0
    7.1520    1.9690   -1.3900 C   0  0  0  0  0  0  0  0  0  0  0  0
   -0.7900    0.6390    0.3540 C   0  0  0  0  0  0  0  0  0  0  0  0
  1  2  1  0
  2  3  1  0
  3  4  1  1
  3  5  1  0
  5  6  1  0
  6  7  2  0
  6 13  1  0
  7  8  1  0
  8  9  2  0
  9 10  1  0
  9 12  1  0
 10 11  1  0
 12 13  2  0
 13 14  1  0
 15 14  1  1
 15 16  1  0
 15 39  1  0
 16 17  1  0
 17 18  1  0
 18 19  1  6
 18 39  1  0
 19 20  1  0
 20 21  1  0
 21 22  1  0
 22 23  2  0
 22 27  1  0
 23 24  1  0
 24 25  2  0
 25 26  1  0
 25 38  1  0
 26 27  2  0
 26 28  1  0
 28 29  1  0
 29 30  2  0
 29 36  1  0
 30 31  1  0
 31 32  2  0
 32 33  1  0
 32 35  1  0
 33 34  2  0
 35 36  2  0
 36 37  1  0
 37 38  1  0
M  CHG  2   3   1  15   1
M  END
