
     RDKit          3D

 39 43  0  0  0  0  0  0  0  0999 V2000
    7.3440    0.4510    0.8080 C   0  0  0  0  0  0  0  0  0  0  0  0
    7.6260    0.4200   -0.6620 C   0  0  0  0  0  0  0  0  0  0  0  0
    6.8340   -0.6610   -1.3850 C   0  0  1  0  0  0  0  0  0  0  0  0
    7.1890   -2.0100   -0.8310 C   0  0  0  0  0  0  0  0  0  0  0  0
    6.1330   -2.7180   -0.2870 O   0  0  0  0  0  0  0  0  0  0  0  0
    4.9840   -2.1590    0.2060 C   0  0  0  0  0  0  0  0  0  0  0  0
    4.2370   -2.7650    1.2070 C   0  0  0  0  0  0  0  0  0  0  0  0
    3.0880   -2.1540    1.6690 C   0  0  0  0  0  0  0  0  0  0  0  0
    2.6710   -0.9580    1.1600 C   0  0  0  0  0  0  0  0  0  0  0  0
    1.2360   -0.1420    1.8450 S   0  0  0  0  0  0  0  0  0  0  0  0
    0.7910    1.3160    0.8500 C   0  0  0  0  0  0  0  0  0  0  0  0
    0.1570    1.0000   -0.4480 C   0  0  0  0  0  0  0  0  0  0  0  0
   -1.2470    0.3790   -0.3910 C   0  0  1  0  0  0  0  0  0  0  0  0
   -1.2260   -0.9050    0.3640 C   0  0  0  0  0  0  0  0  0  0  0  0
   -2.4460   -1.6620    0.4280 N   0  0  0  0  0  0  0  0  0  0  0  0
   -2.3380   -2.9550   -0.3030 C   0  0  0  0  0  0  0  0  0  0  0  0
   -3.4640   -3.8470    0.1250 C   0  0  0  0  0  0  0  0  0  0  0  0
   -4.4880   -3.4640    0.9400 C   0  0  0  0  0  0  0  0  0  0  0  0
   -5.4650   -4.3720    1.2710 C   0  0  0  0  0  0  0  0  0  0  0  0
   -5.4440   -5.6880    0.7950 C   0  0  0  0  0  0  0  0  0  0  0  0
   -4.4190   -6.0210   -0.0020 N   0  0  0  0  0  0  0  0  0  0  0  0
   -3.4360   -5.1400   -0.3460 C   0  0  0  0  0  0  0  0  0  0  0  0
   -2.1190    1.3910    0.2920 C   0  0  0  0  0  0  0  0  0  0  0  0
   -2.9140    1.1490    1.3800 C   0  0  0  0  0  0  0  0  0  0  0  0
   -3.6780    2.1180    2.0170 C   0  0  0  0  0  0  0  0  0  0  0  0
   -3.6560    3.4130    1.5510 C   0  0  0  0  0  0  0  0  0  0  0  0
   -2.8710    3.6960    0.4630 C   0  0  0  0  0  0  0  0  0  0  0  0
   -2.1160    2.7110   -0.1570 C   0  0  0  0  0  0  0  0  0  0  0  0
   -2.8350    5.1130   -0.0370 C   0  0  0  0  0  0  0  0  0  0  0  0
   -4.2050    5.7120    0.1680 C   0  0  0  0  0  0  0  0  0  0  0  0
   -4.4830    5.7240    1.6540 C   0  0  0  0  0  0  0  0  0  0  0  0
   -4.4130    4.4150    2.1690 O   0  0  0  0  0  0  0  0  0  0  0  0
   -1.6480    0.1030   -1.7260 N   0  0  1  0  0  0  0  0  0  0  0  0
   -1.9240    1.2100   -2.6030 C   0  0  0  0  0  0  0  0  0  0  0  0
   -0.7000   -0.7070   -2.4610 C   0  0  0  0  0  0  0  0  0  0  0  0
    3.4120   -0.3600    0.1680 C   0  0  0  0  0  0  0  0  0  0  0  0
    4.5490   -0.9600   -0.2950 C   0  0  0  0  0  0  0  0  0  0  0  0
    5.3870   -0.3580   -1.3520 C   0  0  0  0  0  0  0  0  0  0  0  0
    4.8280    0.3920   -2.1820 O   0  0  0  0  0  0  0  0  0  0  0  0
  1  2  1  0
  3  2  1  1
  3  4  1  0
  3 38  1  0
  4  5  1  0
  5  6  1  0
  6  7  2  0
  6 37  1  0
  7  8  1  0
  8  9  2  0
  9 10  1  0
  9 36  1  0
 10 11  1  0
 11 12  1  0
 13 12  1  6
 13 14  1  0
 13 23  1  0
 13 33  1  0
 14 15  1  0
 15 16  1  0
 16 17  1  0
 17 18  2  0
 17 22  1  0
 18 19  1  0
 19 20  2  0
 20 21  1  0
 21 22  2  0
 23 24  2  0
 23 28  1  0
 24 25  1  0
 25 26  2  0
 26 27  1  0
 26 32  1  0
 27 28  2  0
 27 29  1  0
 29 30  1  0
 30 31  1  0
 31 32  1  0
 33 34  1  6
 33 35  1  0
 36 37  2  0
 37 38  1  0
 38 39  2  0
M  CHG  2  15   1  33   1
M  END
