
     RDKit          3D

 39 44  0  0  0  0  0  0  0  0999 V2000
   -3.7890   -6.3020    0.1640 C   0  0  0  0  0  0  0  0  0  0  0  0
   -2.8230   -5.5970   -0.3610 C   0  0  0  0  0  0  0  0  0  0  0  0
   -2.2350   -4.3790    0.3350 C   0  0  0  0  0  0  0  0  0  0  0  0
   -2.8150   -4.1420    1.5030 O   0  0  0  0  0  0  0  0  0  0  0  0
   -2.5150   -3.2220    2.3970 C   0  0  0  0  0  0  0  0  0  0  0  0
   -2.6080   -1.7720    2.1230 C   0  0  0  0  0  0  0  0  0  0  0  0
   -1.8240   -1.2050    1.1010 N   0  0  2  0  0  0  0  0  0  0  0  0
   -0.7830   -0.3020    1.6140 C   0  0  0  0  0  0  0  0  0  0  0  0
    0.2570   -0.2240    0.5290 C   0  0  0  0  0  0  0  0  0  0  0  0
    0.4630    0.6960   -0.4090 C   0  0  0  0  0  0  0  0  0  0  0  0
    1.4760    0.5410   -1.2890 C   0  0  0  0  0  0  0  0  0  0  0  0
    2.2570   -0.5700   -1.1760 C   0  0  0  0  0  0  0  0  0  0  0  0
    3.4280   -1.0720   -1.9440 C   0  0  0  0  0  0  0  0  0  0  0  0
    4.7060   -0.5540   -1.3740 C   0  0  0  0  0  0  0  0  0  0  0  0
    5.4060   -1.2580   -0.4060 C   0  0  0  0  0  0  0  0  0  0  0  0
    6.5860   -0.7590    0.1040 C   0  0  0  0  0  0  0  0  0  0  0  0
    7.1140    0.4590   -0.3320 C   0  0  0  0  0  0  0  0  0  0  0  0
    8.3170    0.9470    0.1980 N   0  0  0  0  0  0  0  0  0  0  0  0
    9.5870    1.0150   -0.4820 C   0  0  0  0  0  0  0  0  0  0  0  0
   10.5180    1.7470    0.4680 C   0  0  0  0  0  0  0  0  0  0  0  0
    9.8610    1.7700    1.7000 O   0  0  0  0  0  0  0  0  0  0  0  0
    8.5210    1.4630    1.4940 C   0  0  0  0  0  0  0  0  0  0  0  0
    7.5870    1.6160    2.3390 O   0  0  0  0  0  0  0  0  0  0  0  0
    6.3790    1.1240   -1.2990 C   0  0  0  0  0  0  0  0  0  0  0  0
    5.1970    0.6520   -1.8280 C   0  0  0  0  0  0  0  0  0  0  0  0
    1.5000   -1.4170    0.2510 S   0  0  0  0  0  0  0  0  0  0  0  0
   -2.4910   -0.6030    0.0260 C   0  0  0  0  0  0  0  0  0  0  0  0
   -3.4000    0.5160    0.2110 C   0  0  0  0  0  0  0  0  0  0  0  0
   -3.7190    1.0770    1.4310 C   0  0  0  0  0  0  0  0  0  0  0  0
   -4.6210    2.1610    1.5240 C   0  0  0  0  0  0  0  0  0  0  0  0
   -4.9460    2.7460    2.8180 C   0  0  0  0  0  0  0  0  0  0  0  0
   -5.2100    2.6850    0.3780 C   0  0  0  0  0  0  0  0  0  0  0  0
   -4.8160    2.0440   -0.7350 C   0  0  0  0  0  0  0  0  0  0  0  0
   -3.9810    1.0250   -0.9690 C   0  0  0  0  0  0  0  0  0  0  0  0
   -3.9370    0.8550   -2.4450 C   0  0  0  0  0  0  0  0  0  0  0  0
   -4.5060    2.1690   -2.9700 N   0  0  0  0  0  0  0  0  0  0  0  0
   -5.4630    2.5260   -1.9800 C   0  0  2  0  0  0  0  0  0  0  0  0
   -5.7560    3.9180   -1.5810 C   0  0  0  0  0  0  0  0  0  0  0  0
   -6.1130    3.7910   -0.0310 C   0  0  0  0  0  0  0  0  0  0  0  0
  1  2  2  0
  2  3  1  0
  3  4  1  0
  4  5  1  0
  5  6  1  0
  7  6  1  1
  7  8  1  0
  7 27  1  0
  8  9  1  0
  9 10  2  0
  9 26  1  0
 10 11  1  0
 11 12  2  0
 12 13  1  0
 12 26  1  0
 13 14  1  0
 14 15  2  0
 14 25  1  0
 15 16  1  0
 16 17  2  0
 17 18  1  0
 17 24  1  0
 18 19  1  0
 18 22  1  0
 19 20  1  0
 20 21  1  0
 21 22  1  0
 22 23  2  0
 24 25  2  0
 27 28  1  0
 28 29  2  0
 28 34  1  0
 29 30  1  0
 30 31  1  0
 30 32  2  0
 32 33  1  0
 32 39  1  0
 33 34  2  0
 33 37  1  0
 34 35  1  0
 35 36  1  0
 36 37  1  0
 37 38  1  1
 38 39  1  0
M  CHG  1   7   1
M  END
