
     RDKit          3D

 39 43  0  0  0  0  0  0  0  0999 V2000
   10.5050    2.1550   -1.2270 C   0  0  0  0  0  0  0  0  0  0  0  0
   10.5500    0.7090   -1.1520 N   0  0  0  0  0  0  0  0  0  0  0  0
    9.4230   -0.0940   -0.8410 C   0  0  0  0  0  0  0  0  0  0  0  0
    9.5990   -1.4600   -0.7910 C   0  0  0  0  0  0  0  0  0  0  0  0
    8.5220   -2.2460   -0.4930 C   0  0  0  0  0  0  0  0  0  0  0  0
    7.2700   -1.6800   -0.2440 C   0  0  0  0  0  0  0  0  0  0  0  0
    7.0520   -0.3340   -0.2830 C   0  0  0  0  0  0  0  0  0  0  0  0
    5.8260    0.3340   -0.0230 N   0  0  0  0  0  0  0  0  0  0  0  0
    4.7760   -0.2330    0.6800 C   0  0  0  0  0  0  0  0  0  0  0  0
    4.9230   -1.4350    1.1110 O   0  0  0  0  0  0  0  0  0  0  0  0
    3.4990    0.3960    0.9820 C   0  0  0  0  0  0  0  0  0  0  0  0
    3.3120    1.7390    1.0640 C   0  0  0  0  0  0  0  0  0  0  0  0
    4.4110    2.7620    0.9800 C   0  0  0  0  0  0  0  0  0  0  0  0
    2.0060    2.1940    1.2990 C   0  0  0  0  0  0  0  0  0  0  0  0
    0.9600    1.3060    1.4420 C   0  0  0  0  0  0  0  0  0  0  0  0
    1.1520   -0.0230    1.3620 N   0  0  0  0  0  0  0  0  0  0  0  0
    0.0840   -0.9820    1.5070 C   0  0  0  0  0  0  0  0  0  0  0  0
   -0.0350   -2.1700    1.8140 N   0  0  0  0  0  0  0  0  0  0  0  0
   -1.1590   -2.7820    1.8610 N   0  0  0  0  0  0  0  0  0  0  0  0
   -2.2450   -2.2650    1.6070 C   0  0  0  0  0  0  0  0  0  0  0  0
   -3.6840   -2.5880    1.5440 C   0  0  0  0  0  0  0  0  0  0  0  0
   -4.0790   -3.0770    0.1660 C   0  0  0  0  0  0  0  0  0  0  0  0
   -3.6900   -1.7330   -0.9970 S   0  0  0  0  0  0  0  0  0  0  0  0
   -4.7990   -0.3200   -0.6100 C   0  0  0  0  0  0  0  0  0  0  0  0
   -6.1720   -0.7310   -0.9190 C   0  0  0  0  0  0  0  0  0  0  0  0
   -6.5590   -1.9280   -1.4030 N   0  0  0  0  0  0  0  0  0  0  0  0
   -7.8550   -2.0010   -1.5810 N   0  0  0  0  0  0  0  0  0  0  0  0
   -8.5670   -3.1620   -2.0900 C   0  0  0  0  0  0  0  0  0  0  0  0
   -8.3430   -0.8200   -1.2050 C   0  0  0  0  0  0  0  0  0  0  0  0
   -7.3100    0.0210   -0.7760 C   0  0  0  0  0  0  0  0  0  0  0  0
   -7.4840    1.3920   -0.2940 C   0  0  0  0  0  0  0  0  0  0  0  0
   -8.6690    1.9990   -0.2090 C   0  0  0  0  0  0  0  0  0  0  0  0
   -8.4740    3.3550    0.3110 C   0  0  0  0  0  0  0  0  0  0  0  0
   -7.0330    3.4680    0.5180 C   0  0  0  0  0  0  0  0  0  0  0  0
   -6.4650    2.3080    0.1590 C   0  0  0  0  0  0  0  0  0  0  0  0
   -1.6340   -0.5200    1.2020 S   0  0  0  0  0  0  0  0  0  0  0  0
    2.3730   -0.4460    1.1410 C   0  0  0  0  0  0  0  0  0  0  0  0
    2.5660   -1.7080    1.0630 O   0  0  0  0  0  0  0  0  0  0  0  0
    8.1790    0.4410   -0.5920 C   0  0  0  0  0  0  0  0  0  0  0  0
  1  2  1  0
  2  3  1  0
  3  4  2  0
  3 39  1  0
  4  5  1  0
  5  6  2  0
  6  7  1  0
  7  8  1  0
  7 39  2  0
  8  9  1  0
  9 10  2  0
  9 11  1  0
 11 12  2  0
 11 37  1  0
 12 13  1  0
 12 14  1  0
 14 15  2  0
 15 16  1  0
 16 17  1  0
 16 37  1  0
 17 18  2  0
 17 36  1  0
 18 19  1  0
 19 20  2  0
 20 21  1  0
 20 36  1  0
 21 22  1  0
 22 23  1  0
 23 24  1  0
 24 25  1  0
 25 26  2  0
 25 30  1  0
 26 27  1  0
 27 28  1  0
 27 29  1  0
 29 30  2  0
 30 31  1  0
 31 32  2  0
 31 35  1  0
 32 33  1  0
 33 34  1  0
 34 35  2  0
 37 38  2  0
M  END
