
     RDKit          3D

 37 39  0  0  0  0  0  0  0  0999 V2000
   -4.7760    3.9280   -0.4300 C   0  0  0  0  0  0  0  0  0  0  0  0
   -4.9770    2.9070    0.6580 C   0  0  0  0  0  0  0  0  0  0  0  0
   -5.0350    1.5000    0.1620 C   0  0  1  0  0  0  0  0  0  0  0  0
   -6.1220    1.2250   -0.8130 C   0  0  0  0  0  0  0  0  0  0  0  0
   -7.5170    1.4610   -0.3090 C   0  0  2  0  0  0  0  0  0  0  0  0
   -8.4610    1.1620   -1.2940 F   0  0  0  0  0  0  0  0  0  0  0  0
   -7.7030    2.8040    0.0470 F   0  0  0  0  0  0  0  0  0  0  0  0
   -7.8020    0.7090    0.7960 F   0  0  0  0  0  0  0  0  0  0  0  0
   -3.7480    1.0230   -0.3060 N   0  0  0  0  0  0  0  0  0  0  0  0
   -2.8510    0.6180    0.7270 C   0  0  0  0  0  0  0  0  0  0  0  0
   -3.1630   -0.7460    1.3010 C   0  0  0  0  0  0  0  0  0  0  0  0
   -3.1150   -1.8130    0.2650 C   0  0  0  0  0  0  0  0  0  0  0  0
   -4.2630   -2.3720   -0.2600 C   0  0  0  0  0  0  0  0  0  0  0  0
   -4.1210   -3.3570   -1.2130 C   0  0  0  0  0  0  0  0  0  0  0  0
   -5.3340   -3.9870   -1.8050 C   0  0  0  0  0  0  0  0  0  0  0  0
   -2.8910   -3.7990   -1.6560 C   0  0  0  0  0  0  0  0  0  0  0  0
   -1.7660   -3.2010   -1.0950 C   0  0  0  0  0  0  0  0  0  0  0  0
   -0.4890   -3.5860   -1.4830 C   0  0  0  0  0  0  0  0  0  0  0  0
   -0.4140   -4.4940   -2.3600 O   0  0  0  0  0  0  0  0  0  0  0  0
    0.5830   -2.9970   -0.9310 N   0  0  0  0  0  0  0  0  0  0  0  0
    0.4920   -2.0330    0.0010 C   0  0  0  0  0  0  0  0  0  0  0  0
    1.6700   -1.3770    0.6210 C   0  0  2  0  0  0  0  0  0  0  0  0
    1.6320   -1.5630    2.0950 C   0  0  0  0  0  0  0  0  0  0  0  0
    1.7980    0.0670    0.1950 C   0  0  0  0  0  0  0  0  0  0  0  0
    2.9700    0.7280    0.8090 C   0  0  0  0  0  0  0  0  0  0  0  0
    2.8240    1.2740    1.9260 O   0  0  0  0  0  0  0  0  0  0  0  0
    4.2380    0.7660    0.1890 N   0  0  0  0  0  0  0  0  0  0  0  0
    4.5460    0.1710   -1.1000 C   0  0  0  0  0  0  0  0  0  0  0  0
    5.8080   -0.6610   -1.0300 C   0  0  0  0  0  0  0  0  0  0  0  0
    6.4660   -0.4980    0.1840 O   0  0  0  0  0  0  0  0  0  0  0  0
    6.6420    0.8050    0.5740 C   0  0  1  0  0  0  0  0  0  0  0  0
    7.4420    0.7550    1.8780 C   0  0  0  0  0  0  0  0  0  0  0  0
    7.4770    1.5740   -0.4180 C   0  0  0  0  0  0  0  0  0  0  0  0
    7.6890    3.0060   -0.0200 C   0  0  0  0  0  0  0  0  0  0  0  0
    5.3270    1.4380    0.8670 C   0  0  0  0  0  0  0  0  0  0  0  0
   -0.7360   -1.6460    0.3910 N   0  0  0  0  0  0  0  0  0  0  0  0
   -1.8580   -2.2130   -0.1390 C   0  0  0  0  0  0  0  0  0  0  0  0
  1  2  1  0
  3  2  1  6
  3  4  1  0
  3  9  1  0
  4  5  1  0
  5  6  1  6
  5  7  1  0
  5  8  1  0
  9 10  1  0
 10 11  1  0
 11 12  1  0
 12 13  2  0
 12 37  1  0
 13 14  1  0
 14 15  1  0
 14 16  2  0
 16 17  1  0
 17 18  1  0
 17 37  2  0
 18 19  2  0
 18 20  1  0
 20 21  1  0
 21 22  1  0
 21 36  2  0
 22 23  1  1
 22 24  1  0
 24 25  1  0
 25 26  2  0
 25 27  1  0
 27 28  1  0
 27 35  1  0
 28 29  1  0
 29 30  1  0
 30 31  1  0
 31 32  1  1
 31 33  1  0
 31 35  1  0
 33 34  1  0
 36 37  1  0
M  CHG  1   9   1
M  END
