
     RDKit          3D

 37 38  0  0  0  0  0  0  0  0999 V2000
    8.5310    0.1370    3.2580 C   0  0  0  0  0  0  0  0  0  0  0  0
    8.3440    0.5830    2.0370 C   0  0  0  0  0  0  0  0  0  0  0  0
    9.2070    0.2410    0.9630 N   0  0  0  0  0  0  0  0  0  0  0  0
    8.8670   -0.8740    0.1180 C   0  0  0  0  0  0  0  0  0  0  0  0
    7.5380   -0.5490   -0.5010 C   0  0  0  0  0  0  0  0  0  0  0  0
    6.3410   -0.8370    0.1050 C   0  0  0  0  0  0  0  0  0  0  0  0
    5.3610   -0.3790   -0.7880 C   0  0  0  0  0  0  0  0  0  0  0  0
    3.9520   -0.5130   -0.5300 C   0  0  0  0  0  0  0  0  0  0  0  0
    3.6060   -0.8360    0.6590 O   0  0  0  0  0  0  0  0  0  0  0  0
    2.9480   -0.3180   -1.4850 N   0  0  0  0  0  0  0  0  0  0  0  0
    1.5510   -0.4860   -1.0690 C   0  0  0  0  0  0  0  0  0  0  0  0
    1.3670   -1.8590   -0.5810 C   0  0  0  0  0  0  0  0  0  0  0  0
    0.9520   -2.0960    0.6710 C   0  0  0  0  0  0  0  0  0  0  0  0
    0.6760   -1.0860    1.5580 O   0  0  0  0  0  0  0  0  0  0  0  0
   -0.3900   -0.2020    1.3760 C   0  0  0  0  0  0  0  0  0  0  0  0
   -1.4040   -0.5360    0.5930 C   0  0  0  0  0  0  0  0  0  0  0  0
   -2.5270    0.3490    0.3780 C   0  0  0  0  0  0  0  0  0  0  0  0
   -3.5650    0.0830   -0.3810 C   0  0  0  0  0  0  0  0  0  0  0  0
   -4.6080    1.1480   -0.4570 C   0  0  0  0  0  0  0  0  0  0  0  0
   -5.7040    0.9060    0.4190 N   0  0  0  0  0  0  0  0  0  0  0  0
   -6.4460    2.0930    0.7590 C   0  0  0  0  0  0  0  0  0  0  0  0
   -7.5720    1.8010    1.6840 C   0  0  0  0  0  0  0  0  0  0  0  0
   -8.8160    2.0660    1.3390 C   0  0  0  0  0  0  0  0  0  0  0  0
   -7.2810    1.2050    3.0080 C   0  0  0  0  0  0  0  0  0  0  0  0
   -6.5520   -0.1890    0.0230 C   0  0  1  0  0  0  0  0  0  0  0  0
   -7.4140    0.1220   -1.1690 C   0  0  0  0  0  0  0  0  0  0  0  0
   -5.8150   -1.4650   -0.2100 C   0  0  0  0  0  0  0  0  0  0  0  0
   -5.0270   -1.4580   -1.4340 N   0  0  0  0  0  0  0  0  0  0  0  0
   -3.6210   -1.2210   -1.0850 C   0  0  1  0  0  0  0  0  0  0  0  0
   -2.8490   -1.1030   -2.3750 C   0  0  0  0  0  0  0  0  0  0  0  0
    6.0020    0.1520   -1.8660 C   0  0  0  0  0  0  0  0  0  0  0  0
    5.4210    0.7820   -3.1070 C   0  0  0  0  0  0  0  0  0  0  0  0
    7.3000    0.0240   -1.6420 O   0  0  0  0  0  0  0  0  0  0  0  0
   10.3990    1.0200    0.7510 C   0  0  1  0  0  0  0  0  0  0  0  0
   11.1390    0.5920   -0.3160 F   0  0  0  0  0  0  0  0  0  0  0  0
   10.0670    2.3670    0.5660 F   0  0  0  0  0  0  0  0  0  0  0  0
   11.2290    0.9840    1.8630 F   0  0  0  0  0  0  0  0  0  0  0  0
  1  2  2  0
  2  3  1  0
  3  4  1  0
  3 34  1  0
  4  5  1  0
  5  6  2  0
  5 33  1  0
  6  7  1  0
  7  8  1  0
  7 31  2  0
  8  9  2  0
  8 10  1  0
 10 11  1  0
 11 12  1  0
 12 13  2  3
 13 14  1  0
 14 15  1  0
 15 16  2  3
 16 17  1  0
 17 18  2  3
 18 19  1  0
 18 29  1  0
 19 20  1  0
 20 21  1  0
 20 25  1  0
 21 22  1  0
 22 23  2  0
 22 24  1  0
 25 26  1  6
 25 27  1  0
 27 28  1  0
 28 29  1  0
 29 30  1  6
 31 32  1  0
 31 33  1  0
 34 35  1  6
 34 36  1  0
 34 37  1  0
M  END
