
     RDKit          3D

 36 40  0  0  0  0  0  0  0  0999 V2000
   -4.5130   -2.6640    0.8290 C   0  0  0  0  0  0  0  0  0  0  0  0
   -4.7030   -1.8530   -0.4360 C   0  0  1  0  0  0  0  0  0  0  0  0
   -6.1680   -1.8810   -0.7870 C   0  0  0  0  0  0  0  0  0  0  0  0
   -6.9920   -0.9490    0.0260 C   0  0  0  0  0  0  0  0  0  0  0  0
   -6.5050    0.2600    0.2770 C   0  0  0  0  0  0  0  0  0  0  0  0
   -5.1870    0.6860   -0.2270 C   0  0  2  0  0  0  0  0  0  0  0  0
   -4.2240   -0.4500   -0.2520 C   0  0  0  0  0  0  0  0  0  0  0  0
   -3.0080    0.0290   -0.1080 C   0  0  0  0  0  0  0  0  0  0  0  0
   -1.7510   -0.7720   -0.0970 C   0  0  0  0  0  0  0  0  0  0  0  0
   -1.8050   -2.0090   -0.2400 O   0  0  0  0  0  0  0  0  0  0  0  0
   -0.5030   -0.1370    0.0740 N   0  0  0  0  0  0  0  0  0  0  0  0
    0.7590   -0.7420    0.1050 C   0  0  0  0  0  0  0  0  0  0  0  0
    0.9810   -2.0880    0.0200 C   0  0  0  0  0  0  0  0  0  0  0  0
    2.2410   -2.6680    0.0790 C   0  0  0  0  0  0  0  0  0  0  0  0
    3.3530   -1.8840    0.2320 C   0  0  0  0  0  0  0  0  0  0  0  0
    4.6690   -2.4540    0.2970 N   0  0  0  0  0  0  0  0  0  0  0  0
    5.3940   -2.6130   -0.9540 C   0  0  0  0  0  0  0  0  0  0  0  0
    6.6580   -3.4230   -0.7550 C   0  0  0  0  0  0  0  0  0  0  0  0
    6.4050   -4.5260    0.2430 C   0  0  0  0  0  0  0  0  0  0  0  0
    6.3220   -3.8830    1.6090 C   0  0  0  0  0  0  0  0  0  0  0  0
    5.2350   -2.8460    1.5380 C   0  0  0  0  0  0  0  0  0  0  0  0
    4.8040   -2.3020    2.5740 O   0  0  0  0  0  0  0  0  0  0  0  0
    3.1510   -0.5300    0.3190 C   0  0  0  0  0  0  0  0  0  0  0  0
    1.9060    0.0470    0.2600 C   0  0  0  0  0  0  0  0  0  0  0  0
    1.7610    1.5200    0.3300 C   0  0  0  0  0  0  0  0  0  0  0  0
    1.5950    2.1550   -1.0480 C   0  0  0  0  0  0  0  0  0  0  0  0
    1.4360    3.5790   -0.9030 N   0  0  0  0  0  0  0  0  0  0  0  0
    2.4990    4.5150   -0.8850 C   0  0  0  0  0  0  0  0  0  0  0  0
    3.7250    4.2980   -1.0790 O   0  0  0  0  0  0  0  0  0  0  0  0
    1.9840    5.8770   -0.5950 C   0  0  0  0  0  0  0  0  0  0  0  0
    0.5810    5.5910   -0.0860 C   0  0  0  0  0  0  0  0  0  0  0  0
    0.2140    4.3210   -0.7550 C   0  0  0  0  0  0  0  0  0  0  0  0
   -0.8910    3.8880   -1.1490 O   0  0  0  0  0  0  0  0  0  0  0  0
   -3.0510    1.5160    0.0680 C   0  0  0  0  0  0  0  0  0  0  0  0
   -4.4740    1.6830    0.6510 C   0  0  1  0  0  0  0  0  0  0  0  0
   -4.9720    3.0880    0.4500 C   0  0  0  0  0  0  0  0  0  0  0  0
  2  1  1  1
  2  3  1  0
  2  7  1  0
  3  4  1  0
  4  5  2  0
  6  5  1  1
  6  7  1  0
  6 35  1  0
  7  8  2  0
  8  9  1  0
  8 34  1  0
  9 10  2  0
  9 11  1  0
 11 12  1  0
 12 13  2  0
 12 24  1  0
 13 14  1  0
 14 15  2  0
 15 16  1  0
 15 23  1  0
 16 17  1  0
 16 21  1  0
 17 18  1  0
 18 19  1  0
 19 20  1  0
 20 21  1  0
 21 22  2  0
 23 24  2  0
 24 25  1  0
 25 26  1  0
 26 27  1  0
 27 28  1  0
 27 32  1  0
 28 29  2  0
 28 30  1  0
 30 31  1  0
 31 32  1  0
 32 33  2  0
 34 35  1  0
 35 36  1  6
M  END
