
     RDKit          3D

 36 40  0  0  0  0  0  0  0  0999 V2000
   -7.9060   -0.7960    1.5830 C   0  0  0  0  0  0  0  0  0  0  0  0
   -6.9660    0.0990    0.7980 C   0  0  1  0  0  0  0  0  0  0  0  0
   -5.6010    0.0270    1.3790 C   0  0  0  0  0  0  0  0  0  0  0  0
   -4.6750   -0.9270    0.6830 C   0  0  2  0  0  0  0  0  0  0  0  0
   -3.3230   -0.9770    1.2900 C   0  0  0  0  0  0  0  0  0  0  0  0
   -2.5900    0.2440    1.3130 N   0  0  0  0  0  0  0  0  0  0  0  0
   -2.5840    1.1840    2.2750 C   0  0  0  0  0  0  0  0  0  0  0  0
   -3.2350    1.1830    3.3740 O   0  0  0  0  0  0  0  0  0  0  0  0
   -1.7450    2.1540    1.8600 N   0  0  0  0  0  0  0  0  0  0  0  0
   -1.2220    1.8630    0.6760 N   0  0  0  0  0  0  0  0  0  0  0  0
   -0.2750    2.6590   -0.0940 C   0  0  0  0  0  0  0  0  0  0  0  0
    1.1400    2.3040    0.2720 C   0  0  0  0  0  0  0  0  0  0  0  0
    1.8260    1.2910   -0.3560 C   0  0  0  0  0  0  0  0  0  0  0  0
    3.1410    0.9620   -0.0180 C   0  0  0  0  0  0  0  0  0  0  0  0
    3.8050    1.6520    0.9680 C   0  0  0  0  0  0  0  0  0  0  0  0
    5.1780    1.3750    1.3510 C   0  0  0  0  0  0  0  0  0  0  0  0
    5.5160    1.6820    2.5300 O   0  0  0  0  0  0  0  0  0  0  0  0
    6.1400    0.7840    0.4730 C   0  0  0  0  0  0  0  0  0  0  0  0
    6.1100    0.8530   -0.9000 C   0  0  0  0  0  0  0  0  0  0  0  0
    7.0890    0.2170   -1.6500 C   0  0  0  0  0  0  0  0  0  0  0  0
    8.1160   -0.4980   -1.0720 C   0  0  0  0  0  0  0  0  0  0  0  0
    8.1580   -0.5740    0.3050 C   0  0  0  0  0  0  0  0  0  0  0  0
    7.1880    0.0550    1.0480 C   0  0  0  0  0  0  0  0  0  0  0  0
    9.3630   -1.3990    0.6480 C   0  0  0  0  0  0  0  0  0  0  0  0
   10.1560   -1.2570   -0.4980 O   0  0  0  0  0  0  0  0  0  0  0  0
    9.2800   -1.2690   -1.5760 C   0  0  1  0  0  0  0  0  0  0  0  0
    8.8920   -2.6820   -1.9580 C   0  0  0  0  0  0  0  0  0  0  0  0
    3.0900    2.6820    1.5990 C   0  0  0  0  0  0  0  0  0  0  0  0
    1.7990    2.9970    1.2610 C   0  0  0  0  0  0  0  0  0  0  0  0
   -1.7590    0.6670    0.3450 C   0  0  0  0  0  0  0  0  0  0  0  0
   -1.4630    0.0940   -0.7480 O   0  0  0  0  0  0  0  0  0  0  0  0
   -4.6590   -0.5800   -0.7800 C   0  0  0  0  0  0  0  0  0  0  0  0
   -6.0080   -0.9530   -1.3090 C   0  0  2  0  0  0  0  0  0  0  0  0
   -6.2700   -2.4580   -1.2420 C   0  0  0  0  0  0  0  0  0  0  0  0
   -6.0250   -0.6150   -2.8080 C   0  0  0  0  0  0  0  0  0  0  0  0
   -7.1020   -0.2050   -0.6450 C   0  0  0  0  0  0  0  0  0  0  0  0
  2  1  1  1
  2  3  1  0
  2 36  1  0
  3  4  1  0
  4  5  1  1
  4 32  1  0
  5  6  1  0
  6  7  1  0
  6 30  1  0
  7  8  2  0
  7  9  1  0
  9 10  1  0
 10 11  1  0
 10 30  1  0
 11 12  1  0
 12 13  2  0
 12 29  1  0
 13 14  1  0
 14 15  2  0
 15 16  1  0
 15 28  1  0
 16 17  2  0
 16 18  1  0
 18 19  2  0
 18 23  1  0
 19 20  1  0
 20 21  2  0
 21 22  1  0
 21 26  1  0
 22 23  2  0
 22 24  1  0
 24 25  1  0
 25 26  1  0
 26 27  1  1
 28 29  2  0
 30 31  2  0
 32 33  1  0
 33 34  1  6
 33 35  1  0
 33 36  1  0
M  END
