
     RDKit          3D

 36 40  0  0  0  0  0  0  0  0999 V2000
   -7.0030   -0.1390   -3.8600 C   0  0  0  0  0  0  0  0  0  0  0  0
   -5.8050    0.1910   -3.0170 C   0  0  0  0  0  0  0  0  0  0  0  0
   -4.5690    0.2200   -3.5940 C   0  0  0  0  0  0  0  0  0  0  0  0
   -3.4790    0.5290   -2.7810 C   0  0  0  0  0  0  0  0  0  0  0  0
   -3.6980    0.7890   -1.4460 C   0  0  0  0  0  0  0  0  0  0  0  0
   -4.9470    0.7630   -0.8480 C   0  0  0  0  0  0  0  0  0  0  0  0
   -6.0020    0.4550   -1.6780 C   0  0  0  0  0  0  0  0  0  0  0  0
   -4.7170    1.1010    0.5460 C   0  0  1  0  0  0  0  0  0  0  0  0
   -5.7110    0.7630    1.5470 C   0  0  0  0  0  0  0  0  0  0  0  0
   -6.4100   -0.5360    1.4860 C   0  0  0  0  0  0  0  0  0  0  0  0
   -5.6090   -1.6980    1.0120 C   0  0  0  0  0  0  0  0  0  0  0  0
   -4.2010   -1.7190    1.4860 C   0  0  2  0  0  0  0  0  0  0  0  0
   -4.0210   -1.3680    2.9270 C   0  0  0  0  0  0  0  0  0  0  0  0
   -3.2970   -0.9440    0.5440 C   0  0  0  0  0  0  0  0  0  0  0  0
   -3.3070    0.5250    0.7570 C   0  0  1  0  0  0  0  0  0  0  0  0
   -2.7160    1.1530   -0.4160 N   0  0  0  0  0  0  0  0  0  0  0  0
   -1.5610    1.9430   -0.6300 C   0  0  0  0  0  0  0  0  0  0  0  0
   -0.2570    1.3250   -0.5390 C   0  0  0  0  0  0  0  0  0  0  0  0
    0.7460    1.9930   -0.8620 O   0  0  0  0  0  0  0  0  0  0  0  0
    0.0160   -0.0440   -0.0960 C   0  0  0  0  0  0  0  0  0  0  0  0
    1.3490   -0.4270   -0.2570 O   0  0  0  0  0  0  0  0  0  0  0  0
    2.4500    0.1400    0.2910 C   0  0  0  0  0  0  0  0  0  0  0  0
    2.3370    1.1250    1.0430 O   0  0  0  0  0  0  0  0  0  0  0  0
    3.7670   -0.4390   -0.0330 C   0  0  0  0  0  0  0  0  0  0  0  0
    3.8170   -1.4260   -0.7790 O   0  0  0  0  0  0  0  0  0  0  0  0
    4.9470    0.1300    0.5020 N   0  0  0  0  0  0  0  0  0  0  0  0
    6.2610   -0.3350    0.2590 C   0  0  0  0  0  0  0  0  0  0  0  0
    6.5770   -1.4850   -0.3770 C   0  0  0  0  0  0  0  0  0  0  0  0
    7.8980   -1.8380   -0.5900 C   0  0  0  0  0  0  0  0  0  0  0  0
    8.9160   -1.0310   -0.1610 C   0  0  0  0  0  0  0  0  0  0  0  0
   10.2880   -1.1120   -0.2280 C   0  0  0  0  0  0  0  0  0  0  0  0
   10.8040    0.0050    0.3770 C   0  0  0  0  0  0  0  0  0  0  0  0
    9.7830    0.7510    0.8050 N   0  0  0  0  0  0  0  0  0  0  0  0
    9.8620    2.0140    1.4970 C   0  0  0  0  0  0  0  0  0  0  0  0
    8.6100    0.1410    0.4880 C   0  0  0  0  0  0  0  0  0  0  0  0
    7.3000    0.4840    0.6950 C   0  0  0  0  0  0  0  0  0  0  0  0
  1  2  1  0
  2  3  2  0
  2  7  1  0
  3  4  1  0
  4  5  2  0
  5  6  1  0
  5 16  1  0
  6  7  2  0
  6  8  1  0
  8  9  1  1
  8 15  1  0
  9 10  1  0
 10 11  1  0
 11 12  1  0
 12 13  1  1
 12 14  1  0
 15 14  1  6
 15 16  1  0
 16 17  1  0
 17 18  1  0
 18 19  2  0
 18 20  1  0
 20 21  1  0
 21 22  1  0
 22 23  2  0
 22 24  1  0
 24 25  2  0
 24 26  1  0
 26 27  1  0
 27 28  2  0
 27 36  1  0
 28 29  1  0
 29 30  2  0
 30 31  1  0
 30 35  1  0
 31 32  2  0
 32 33  1  0
 33 34  1  0
 33 35  1  0
 35 36  2  0
M  END
