
     RDKit          3D

 37 38  0  0  0  0  0  0  0  0999 V2000
    8.0410    3.2350   -0.2560 C   0  0  0  0  0  0  0  0  0  0  0  0
    7.7310    2.2420   -1.3760 C   0  0  0  0  0  0  0  0  0  0  0  0
    7.0350    1.0560   -0.7960 C   0  0  0  0  0  0  0  0  0  0  0  0
    5.6600    1.0540   -0.7140 C   0  0  0  0  0  0  0  0  0  0  0  0
    5.0230   -0.0430   -0.1780 C   0  0  0  0  0  0  0  0  0  0  0  0
    3.5470   -0.0800   -0.0600 C   0  0  0  0  0  0  0  0  0  0  0  0
    3.0020    1.0030    0.0650 O   0  0  0  0  0  0  0  0  0  0  0  0
    2.8230   -1.2610   -0.0880 N   0  0  0  0  0  0  0  0  0  0  0  0
    1.4990   -1.6370   -0.0030 C   0  0  0  0  0  0  0  0  0  0  0  0
    0.3350   -1.1590    0.1360 C   0  0  0  0  0  0  0  0  0  0  0  0
   -0.6440   -2.2240    0.1360 F   0  0  0  0  0  0  0  0  0  0  0  0
   -0.2530    0.0940    0.3000 C   0  0  0  0  0  0  0  0  0  0  0  0
    0.5280    1.2330    0.3540 F   0  0  0  0  0  0  0  0  0  0  0  0
   -1.5320    0.3680    0.4240 C   0  0  0  0  0  0  0  0  0  0  0  0
   -2.5670   -0.5630    0.4150 N   0  0  0  0  0  0  0  0  0  0  0  0
   -3.9660   -0.2490    0.5760 C   0  0  0  0  0  0  0  0  0  0  0  0
   -4.3180    0.9120    0.7670 O   0  0  0  0  0  0  0  0  0  0  0  0
   -4.9930   -1.2360    0.5270 N   0  0  0  0  0  0  0  0  0  0  0  0
   -6.3930   -0.9070    0.6900 C   0  0  2  0  0  0  0  0  0  0  0  0
   -6.9680   -1.5090    1.9550 C   0  0  0  0  0  0  0  0  0  0  0  0
   -7.2210   -1.2080   -0.5230 C   0  0  2  0  0  0  0  0  0  0  0  0
   -8.6440   -0.8240   -0.2240 C   0  0  0  0  0  0  0  0  0  0  0  0
   -7.2140   -2.6780   -0.8770 C   0  0  0  0  0  0  0  0  0  0  0  0
   -6.7400   -0.3660   -1.6480 C   0  0  0  0  0  0  0  0  0  0  0  0
   -7.2790    0.6750   -1.8950 O   0  0  0  0  0  0  0  0  0  0  0  0
   -1.8650    1.8080    0.5860 C   0  0  0  0  0  0  0  0  0  0  0  0
   -1.4070    2.5300    1.6670 C   0  0  0  0  0  0  0  0  0  0  0  0
   -1.6460    3.8850    1.8050 C   0  0  0  0  0  0  0  0  0  0  0  0
   -2.3670    4.5660    0.8400 C   0  0  0  0  0  0  0  0  0  0  0  0
   -2.6090    5.9110    0.9720 F   0  0  0  0  0  0  0  0  0  0  0  0
   -2.8270    3.8540   -0.2400 C   0  0  0  0  0  0  0  0  0  0  0  0
   -2.5790    2.5010   -0.3640 C   0  0  0  0  0  0  0  0  0  0  0  0
    5.7410   -1.1230    0.2710 C   0  0  0  0  0  0  0  0  0  0  0  0
    7.1390   -1.1070    0.1810 C   0  0  0  0  0  0  0  0  0  0  0  0
    7.8910   -2.2720    0.6660 C   0  0  0  0  0  0  0  0  0  0  0  0
    6.9820   -3.3330    1.1990 C   0  0  0  0  0  0  0  0  0  0  0  0
    7.7070   -0.0170   -0.3480 N   0  0  0  0  0  0  0  0  0  0  0  0
  1  2  1  0
  2  3  1  0
  3  4  2  0
  3 37  1  0
  4  5  1  0
  5  6  1  0
  5 33  2  0
  6  7  2  0
  6  8  1  0
  8  9  1  0
  9 10  2  3
 10 11  1  0
 10 12  1  0
 12 13  1  0
 12 14  2  3
 14 15  1  0
 14 26  1  0
 15 16  1  0
 16 17  2  0
 16 18  1  0
 18 19  1  0
 19 20  1  1
 19 21  1  0
 21 22  1  1
 21 23  1  0
 21 24  1  0
 24 25  2  0
 26 27  2  0
 26 32  1  0
 27 28  1  0
 28 29  2  0
 29 30  1  0
 29 31  1  0
 31 32  2  0
 33 34  1  0
 34 35  1  0
 34 37  2  0
 35 36  1  0
M  CHG  1  37   1
M  END
