
     RDKit          3D

 37 40  0  0  0  0  0  0  0  0999 V2000
    5.3420   -4.1140    2.0230 C   0  0  0  0  0  0  0  0  0  0  0  0
    4.0000   -3.6810    2.1330 O   0  0  0  0  0  0  0  0  0  0  0  0
    3.5070   -2.8570    1.1330 C   0  0  0  0  0  0  0  0  0  0  0  0
    4.2910   -2.4640    0.0570 C   0  0  0  0  0  0  0  0  0  0  0  0
    3.7830   -1.6470   -0.9200 C   0  0  0  0  0  0  0  0  0  0  0  0
    4.6140   -1.1980   -2.0840 C   0  0  0  0  0  0  0  0  0  0  0  0
    5.1860    0.1320   -1.8340 C   0  0  0  0  0  0  0  0  0  0  0  0
    4.5930    1.2600   -2.4230 C   0  0  0  0  0  0  0  0  0  0  0  0
    5.0830    2.4920   -2.2050 N   0  0  0  0  0  0  0  0  0  0  0  0
    6.1510    2.7150   -1.4240 C   0  0  0  0  0  0  0  0  0  0  0  0
    6.6500    4.0510   -1.2120 N   0  0  0  0  0  0  0  0  0  0  0  0
    6.7450    1.6610   -0.8440 N   0  0  0  0  0  0  0  0  0  0  0  0
    6.2780    0.4000   -1.0410 C   0  0  0  0  0  0  0  0  0  0  0  0
    6.9470   -0.6790   -0.4150 N   0  0  0  0  0  0  0  0  0  0  0  0
    2.4810   -1.2460   -0.7880 C   0  0  0  0  0  0  0  0  0  0  0  0
    1.6490   -1.6240    0.2880 C   0  0  0  0  0  0  0  0  0  0  0  0
    0.2770   -1.1290    0.3010 C   0  0  0  0  0  0  0  0  0  0  0  0
   -0.7020   -1.4620    1.0820 C   0  0  0  0  0  0  0  0  0  0  0  0
   -2.0600   -0.9900    1.1250 C   0  0  0  0  0  0  0  0  0  0  0  0
   -2.8120   -1.5950    2.0410 O   0  0  0  0  0  0  0  0  0  0  0  0
   -2.7720   -0.0420    0.4210 N   0  0  0  0  0  0  0  0  0  0  0  0
   -2.2720    0.8460   -0.4940 N   0  0  0  0  0  0  0  0  0  0  0  0
   -2.5320    0.2930   -1.8220 C   0  0  0  0  0  0  0  0  0  0  0  0
   -4.0280    0.2910   -1.9280 C   0  0  0  0  0  0  0  0  0  0  0  0
   -4.5770    0.4180   -3.1860 C   0  0  0  0  0  0  0  0  0  0  0  0
   -5.9520    0.4210   -3.3390 C   0  0  0  0  0  0  0  0  0  0  0  0
   -6.7560    0.2970   -2.2380 C   0  0  0  0  0  0  0  0  0  0  0  0
   -6.1830    0.1720   -0.9940 C   0  0  0  0  0  0  0  0  0  0  0  0
   -4.8270    0.1650   -0.8060 C   0  0  0  0  0  0  0  0  0  0  0  0
   -4.2570    0.0110    0.5520 C   0  0  2  0  0  0  0  0  0  0  0  0
   -4.7570    0.8890    1.6060 C   0  0  0  0  0  0  0  0  0  0  0  0
   -4.4710    2.3430    1.5770 C   0  0  2  0  0  0  0  0  0  0  0  0
   -5.1400    2.9120    2.8680 C   0  0  0  0  0  0  0  0  0  0  0  0
   -5.1840    3.0940    0.4540 C   0  0  0  0  0  0  0  0  0  0  0  0
    2.1790   -2.4290    1.2420 C   0  0  0  0  0  0  0  0  0  0  0  0
    1.4980   -2.8740    2.3540 O   0  0  0  0  0  0  0  0  0  0  0  0
    1.6080   -2.1040    3.5800 C   0  0  0  0  0  0  0  0  0  0  0  0
  1  2  1  0
  2  3  1  0
  3  4  2  0
  3 35  1  0
  4  5  1  0
  5  6  1  0
  5 15  2  0
  6  7  1  0
  7  8  2  0
  7 13  1  0
  8  9  1  0
  9 10  2  0
 10 11  1  0
 10 12  1  0
 12 13  2  0
 13 14  1  0
 15 16  1  0
 16 17  1  0
 16 35  2  0
 17 18  2  3
 18 19  1  0
 19 20  2  0
 19 21  1  0
 21 22  1  0
 21 30  1  0
 22 23  1  0
 23 24  1  0
 24 25  2  0
 24 29  1  0
 25 26  1  0
 26 27  2  0
 27 28  1  0
 28 29  2  0
 29 30  1  0
 30 31  1  1
 31 32  1  0
 32 33  1  1
 32 34  1  0
 35 36  1  0
 36 37  1  0
M  CHG  1  22   1
M  END
