
     RDKit          3D

 37 40  0  0  0  0  0  0  0  0999 V2000
   -5.1220   -0.9200    4.1450 C   0  0  0  0  0  0  0  0  0  0  0  0
   -4.5420    0.3620    3.8400 N   0  0  0  0  0  0  0  0  0  0  0  0
   -4.6690    0.7370    2.4590 C   0  0  0  0  0  0  0  0  0  0  0  0
   -3.8370   -0.1310    1.5460 C   0  0  0  0  0  0  0  0  0  0  0  0
   -4.0380    0.3500    0.1050 C   0  0  0  0  0  0  0  0  0  0  0  0
   -3.2040   -0.5170   -0.8250 C   0  0  1  0  0  0  0  0  0  0  0  0
   -3.3520   -0.1010   -2.2500 C   0  0  0  0  0  0  0  0  0  0  0  0
   -2.1300    0.5400   -2.8090 C   0  0  1  0  0  0  0  0  0  0  0  0
   -2.3730    1.3560   -4.0460 C   0  0  2  0  0  0  0  0  0  0  0  0
   -3.3450    2.4590   -3.7360 C   0  0  0  0  0  0  0  0  0  0  0  0
   -3.0710    0.4320   -5.0500 C   0  0  0  0  0  0  0  0  0  0  0  0
   -1.3880    1.3100   -1.7410 C   0  0  0  0  0  0  0  0  0  0  0  0
   -0.9150    0.2450   -0.7740 C   0  0  0  0  0  0  0  0  0  0  0  0
   -1.7920   -0.6260   -0.3410 C   0  0  0  0  0  0  0  0  0  0  0  0
   -1.5000   -1.7040    0.5740 N   0  0  0  0  0  0  0  0  0  0  0  0
    0.0900   -1.8470    1.2050 S   0  0  2  0  0  0  0  0  0  0  0  0
    0.6210   -3.1890    0.7170 O   0  0  0  0  0  0  0  0  0  0  0  0
    0.1090   -1.7870    2.7030 O   0  0  0  0  0  0  0  0  0  0  0  0
    1.0280   -0.5880    0.4770 C   0  0  0  0  0  0  0  0  0  0  0  0
    2.4780   -0.4550    0.7980 C   0  0  0  0  0  0  0  0  0  0  0  0
    3.0300   -1.2760    1.6250 C   0  0  0  0  0  0  0  0  0  0  0  0
    4.3700   -1.3490    2.0860 C   0  0  0  0  0  0  0  0  0  0  0  0
    4.7660   -2.4840    2.7960 N   0  0  0  0  0  0  0  0  0  0  0  0
    5.9910   -2.6520    3.2660 C   0  0  0  0  0  0  0  0  0  0  0  0
    6.2860   -3.6940    3.8960 O   0  0  0  0  0  0  0  0  0  0  0  0
    6.9070   -1.6780    3.0510 N   0  0  0  0  0  0  0  0  0  0  0  0
    6.5950   -0.5880    2.3930 N   0  0  0  0  0  0  0  0  0  0  0  0
    5.3210   -0.3990    1.8990 C   0  0  0  0  0  0  0  0  0  0  0  0
    5.0430    0.9000    1.2780 C   0  0  0  0  0  0  0  0  0  0  0  0
    5.8160    1.3090    0.2830 C   0  0  0  0  0  0  0  0  0  0  0  0
    6.9180    0.6500   -0.2960 N   0  0  0  0  0  0  0  0  0  0  0  0
    7.4790    1.4190   -1.3380 C   0  0  0  0  0  0  0  0  0  0  0  0
    8.4730    1.1290   -2.0660 O   0  0  0  0  0  0  0  0  0  0  0  0
    6.7080    2.6150   -1.4290 N   0  0  0  0  0  0  0  0  0  0  0  0
    5.6740    2.5760   -0.4420 C   0  0  0  0  0  0  0  0  0  0  0  0
    4.8150    3.4820   -0.2550 O   0  0  0  0  0  0  0  0  0  0  0  0
    0.4830    0.2440   -0.3530 C   0  0  0  0  0  0  0  0  0  0  0  0
  1  2  1  0
  2  3  1  0
  3  4  1  0
  4  5  1  0
  6  5  1  1
  6  7  1  0
  6 14  1  0
  8  7  1  1
  8  9  1  0
  8 12  1  0
  9 10  1  1
  9 11  1  0
 12 13  1  0
 13 14  2  0
 13 37  1  0
 14 15  1  0
 16 15  1  6
 16 17  2  0
 16 18  2  0
 16 19  1  0
 19 20  1  0
 19 37  2  0
 20 21  2  3
 21 22  1  0
 22 23  2  0
 22 28  1  0
 23 24  1  0
 24 25  2  0
 24 26  1  0
 26 27  1  0
 27 28  2  0
 28 29  1  0
 29 30  2  3
 30 31  1  0
 30 35  1  0
 31 32  1  0
 32 33  2  0
 32 34  1  0
 34 35  1  0
 35 36  2  0
M  END
