
     RDKit          3D

 37 41  0  0  0  0  0  0  0  0999 V2000
    8.3270   -1.6810    2.2230 C   0  0  0  0  0  0  0  0  0  0  0  0
    7.3880   -0.6640    1.5620 C   0  0  0  0  0  0  0  0  0  0  0  0
    6.2360   -1.3180    1.2820 O   0  0  0  0  0  0  0  0  0  0  0  0
    5.2400   -0.5050    0.6600 C   0  0  2  0  0  0  0  0  0  0  0  0
    4.0810   -1.4390    0.5080 C   0  0  0  0  0  0  0  0  0  0  0  0
    2.9050   -0.9890   -0.1490 N   0  0  0  0  0  0  0  0  0  0  0  0
    2.0380    0.0130    0.3170 C   0  0  0  0  0  0  0  0  0  0  0  0
    2.2020    0.6080    1.3760 O   0  0  0  0  0  0  0  0  0  0  0  0
    0.8630    0.3960   -0.4790 C   0  0  0  0  0  0  0  0  0  0  0  0
    0.6720   -0.1950   -1.5660 O   0  0  0  0  0  0  0  0  0  0  0  0
   -0.0190    1.4160   -0.0060 N   0  0  0  0  0  0  0  0  0  0  0  0
   -1.1290    1.7320   -0.8240 C   0  0  0  0  0  0  0  0  0  0  0  0
   -1.1810    2.6770   -1.8230 C   0  0  0  0  0  0  0  0  0  0  0  0
   -0.0850    3.5910   -2.2820 C   0  0  0  0  0  0  0  0  0  0  0  0
   -2.4190    2.6220   -2.3160 N   0  0  0  0  0  0  0  0  0  0  0  0
   -3.1290    1.6960   -1.6740 N   0  0  0  0  0  0  0  0  0  0  0  0
   -2.3760    1.1070   -0.7310 C   0  0  0  0  0  0  0  0  0  0  0  0
   -2.8590    0.1360    0.0590 N   0  0  0  0  0  0  0  0  0  0  0  0
   -4.1440   -0.3160   -0.0430 C   0  0  0  0  0  0  0  0  0  0  0  0
   -4.6220   -1.3770    0.8290 C   0  0  0  0  0  0  0  0  0  0  0  0
   -5.7560   -1.2670    1.5930 C   0  0  0  0  0  0  0  0  0  0  0  0
   -6.2040   -2.2970    2.4010 C   0  0  0  0  0  0  0  0  0  0  0  0
   -5.5160   -3.4880    2.4660 C   0  0  0  0  0  0  0  0  0  0  0  0
   -4.3680   -3.6330    1.7090 C   0  0  0  0  0  0  0  0  0  0  0  0
   -3.9500   -2.5870    0.9160 C   0  0  0  0  0  0  0  0  0  0  0  0
   -4.9310    0.2750   -1.0050 C   0  0  0  0  0  0  0  0  0  0  0  0
   -6.2280   -0.1130   -1.2090 C   0  0  0  0  0  0  0  0  0  0  0  0
   -6.9620    0.5130   -2.2040 C   0  0  0  0  0  0  0  0  0  0  0  0
   -6.4280    1.5100   -2.9940 C   0  0  0  0  0  0  0  0  0  0  0  0
   -7.1050    2.0580   -3.8810 O   0  0  0  0  0  0  0  0  0  0  0  0
   -5.1470    1.8760   -2.7780 N   0  0  0  0  0  0  0  0  0  0  0  0
   -4.4120    1.2860   -1.8200 C   0  0  0  0  0  0  0  0  0  0  0  0
    5.6920   -0.1700   -0.7220 C   0  0  0  0  0  0  0  0  0  0  0  0
    5.7140    1.6470   -0.7300 S   0  0  0  0  0  0  0  0  0  0  0  0
    4.8790    1.8700    0.8070 N   0  0  0  0  0  0  0  0  0  0  0  0
    4.9590    0.6460    1.4600 C   0  0  0  0  0  0  0  0  0  0  0  0
    4.7940    0.5390    2.7300 O   0  0  0  0  0  0  0  0  0  0  0  0
  1  2  1  0
  2  3  1  0
  3  4  1  0
  4  5  1  6
  4 33  1  0
  4 36  1  0
  5  6  1  0
  6  7  1  0
  7  8  2  0
  7  9  1  0
  9 10  2  0
  9 11  1  0
 11 12  1  0
 12 13  1  0
 12 17  2  0
 13 14  1  0
 13 15  2  0
 15 16  1  0
 16 17  1  0
 16 32  1  0
 17 18  1  0
 18 19  2  0
 19 20  1  0
 19 26  1  0
 20 21  2  0
 20 25  1  0
 21 22  1  0
 22 23  2  0
 23 24  1  0
 24 25  2  0
 26 27  1  0
 26 32  2  0
 27 28  2  0
 28 29  1  0
 29 30  2  0
 29 31  1  0
 31 32  1  0
 33 34  1  0
 34 35  1  0
 35 36  1  0
 36 37  2  0
M  END
