
     RDKit          3D

 37 41  0  0  0  0  0  0  0  0999 V2000
    8.5370    0.4560   -1.5770 C   0  0  0  0  0  0  0  0  0  0  0  0
    8.6630    0.8340   -0.2520 O   0  0  0  0  0  0  0  0  0  0  0  0
    7.4890    1.2310    0.3390 C   0  0  0  0  0  0  0  0  0  0  0  0
    6.4460    0.1490    0.3660 C   0  0  0  0  0  0  0  0  0  0  0  0
    6.8240   -1.1810    0.3570 C   0  0  0  0  0  0  0  0  0  0  0  0
    5.8790   -2.1760    0.3730 C   0  0  0  0  0  0  0  0  0  0  0  0
    4.5270   -1.8190    0.3980 C   0  0  0  0  0  0  0  0  0  0  0  0
    3.5030   -2.8840    0.4150 C   0  0  0  0  0  0  0  0  0  0  0  0
    4.1600   -0.5090    0.4060 C   0  0  0  0  0  0  0  0  0  0  0  0
    2.7320   -0.1000    0.4160 C   0  0  0  0  0  0  0  0  0  0  0  0
    1.8430   -0.9400    0.3760 O   0  0  0  0  0  0  0  0  0  0  0  0
    2.4220    1.2590    0.4720 N   0  0  0  0  0  0  0  0  0  0  0  0
    1.1780    1.9060    0.4820 N   0  0  0  0  0  0  0  0  0  0  0  0
    1.2410    3.2850    0.6520 C   0  0  0  0  0  0  0  0  0  0  0  0
    2.3430    3.8220    0.8000 O   0  0  0  0  0  0  0  0  0  0  0  0
    0.1070    3.9980    0.6530 N   0  0  0  0  0  0  0  0  0  0  0  0
   -1.0720    3.4180    0.4940 C   0  0  0  0  0  0  0  0  0  0  0  0
   -2.7620    4.0740    0.4460 S   0  0  0  0  0  0  0  0  0  0  0  0
   -3.5330    2.4880    0.1990 C   0  0  0  0  0  0  0  0  0  0  0  0
   -2.5210    1.6080    0.1680 C   0  0  0  0  0  0  0  0  0  0  0  0
   -1.2490    2.0670    0.3180 C   0  0  0  0  0  0  0  0  0  0  0  0
   -0.0040    1.3720    0.3290 C   0  0  0  0  0  0  0  0  0  0  0  0
   -0.0920    0.1300    0.1720 O   0  0  0  0  0  0  0  0  0  0  0  0
   -2.9200    0.1680   -0.0230 C   0  0  0  0  0  0  0  0  0  0  0  0
   -4.2670   -0.0700   -0.5070 C   0  0  1  0  0  0  0  0  0  0  0  0
   -4.7420   -1.4110   -0.1740 N   0  0  0  0  0  0  0  0  0  0  0  0
   -6.0520   -1.8620   -0.4460 C   0  0  0  0  0  0  0  0  0  0  0  0
   -6.5180   -2.3000   -1.6010 C   0  0  0  0  0  0  0  0  0  0  0  0
   -7.9490   -2.6720   -1.4280 C   0  0  0  0  0  0  0  0  0  0  0  0
   -8.2330   -2.3860   -0.0210 C   0  0  0  0  0  0  0  0  0  0  0  0
   -7.1490   -1.9190    0.5610 C   0  0  0  0  0  0  0  0  0  0  0  0
   -7.0090   -1.5110    1.9360 C   0  0  0  0  0  0  0  0  0  0  0  0
   -6.8750   -1.1760    3.0520 N   0  0  0  0  0  0  0  0  0  0  0  0
   -5.3210    0.8280   -0.1360 N   0  0  0  0  0  0  0  0  0  0  0  0
   -4.9540    2.1730    0.0540 C   0  0  0  0  0  0  0  0  0  0  0  0
   -5.7630    3.1220    0.1080 O   0  0  0  0  0  0  0  0  0  0  0  0
    5.1520    0.4090    0.3900 N   0  0  0  0  0  0  0  0  0  0  0  0
  1  2  1  0
  2  3  1  0
  3  4  1  0
  4  5  2  0
  4 37  1  0
  5  6  1  0
  6  7  2  0
  7  8  1  0
  7  9  1  0
  9 10  1  0
  9 37  2  0
 10 11  2  0
 10 12  1  0
 12 13  1  0
 13 14  1  0
 13 22  1  0
 14 15  2  0
 14 16  1  0
 16 17  1  0
 17 18  1  0
 17 21  2  0
 18 19  1  0
 19 20  2  0
 19 35  1  0
 20 21  1  0
 20 24  1  0
 21 22  1  0
 22 23  2  0
 24 25  1  0
 25 26  1  1
 25 34  1  0
 26 27  1  0
 27 28  2  0
 27 31  1  0
 28 29  1  0
 29 30  1  0
 30 31  2  0
 31 32  1  0
 32 33  3  0
 34 35  1  0
 35 36  2  0
M  END
