
     RDKit          3D

 37 41  0  0  0  0  0  0  0  0999 V2000
   -7.6340    1.1370   -3.2370 C   0  0  0  0  0  0  0  0  0  0  0  0
   -7.9940    0.6890   -1.9350 N   0  0  0  0  0  0  0  0  0  0  0  0
   -9.4700    0.5590   -1.7220 C   0  0  0  0  0  0  0  0  0  0  0  0
   -7.1960    0.3590   -0.8600 C   0  0  0  0  0  0  0  0  0  0  0  0
   -7.8180   -0.0220    0.2180 O   0  0  0  0  0  0  0  0  0  0  0  0
   -5.7570    0.3680   -0.7410 C   0  0  0  0  0  0  0  0  0  0  0  0
   -5.1850   -0.0070    0.4260 C   0  0  0  0  0  0  0  0  0  0  0  0
   -3.7850   -0.0350    0.6480 N   0  0  0  0  0  0  0  0  0  0  0  0
   -2.8750    0.3370   -0.3620 C   0  0  0  0  0  0  0  0  0  0  0  0
   -1.6070    0.3170   -0.2130 N   0  0  0  0  0  0  0  0  0  0  0  0
   -0.9710   -0.0840    0.9890 C   0  0  2  0  0  0  0  0  0  0  0  0
   -0.1860   -1.2880    0.6320 N   0  0  0  0  0  0  0  0  0  0  0  0
    1.1560   -1.4010    1.0690 C   0  0  0  0  0  0  0  0  0  0  0  0
    1.7180   -0.4910    1.7710 O   0  0  0  0  0  0  0  0  0  0  0  0
    1.9550   -2.5460    0.7480 N   0  0  0  0  0  0  0  0  0  0  0  0
    3.5750   -2.7050    1.3020 S   0  0  1  0  0  0  0  0  0  0  0  0
    3.7600   -1.6230    2.3580 O   0  0  0  0  0  0  0  0  0  0  0  0
    3.7140   -4.0260    2.0200 O   0  0  0  0  0  0  0  0  0  0  0  0
    4.7560   -2.4970    0.1000 N   0  0  0  0  0  0  0  0  0  0  0  0
    5.4770   -1.2830   -0.0000 C   0  0  0  0  0  0  0  0  0  0  0  0
    6.0800   -0.6820    1.1020 C   0  0  0  0  0  0  0  0  0  0  0  0
    6.7990    0.4920    0.9840 C   0  0  0  0  0  0  0  0  0  0  0  0
    6.9640    1.1390   -0.2300 C   0  0  0  0  0  0  0  0  0  0  0  0
    6.3690    0.5480   -1.3310 C   0  0  0  0  0  0  0  0  0  0  0  0
    5.6520   -0.6210   -1.2080 C   0  0  0  0  0  0  0  0  0  0  0  0
    6.5200    1.1940   -2.6770 C   0  0  0  0  0  0  0  0  0  0  0  0
    7.7950    1.8930   -2.7170 N   0  0  0  0  0  0  0  0  0  0  0  0
    7.7520    2.9290   -1.7160 C   0  0  0  0  0  0  0  0  0  0  0  0
    7.7500    2.4040   -0.3180 C   0  0  0  0  0  0  0  0  0  0  0  0
   -1.9490   -0.4720    2.0640 C   0  0  0  0  0  0  0  0  0  0  0  0
   -3.2460   -0.4530    1.9130 C   0  0  0  0  0  0  0  0  0  0  0  0
   -3.9620   -0.8840    3.1370 C   0  0  0  0  0  0  0  0  0  0  0  0
   -2.8910   -1.5140    3.9670 C   0  0  0  0  0  0  0  0  0  0  0  0
   -1.6470   -0.9220    3.4300 C   0  0  0  0  0  0  0  0  0  0  0  0
   -0.5570   -0.8410    4.0620 O   0  0  0  0  0  0  0  0  0  0  0  0
   -3.4870    0.7470   -1.6330 C   0  0  0  0  0  0  0  0  0  0  0  0
   -4.8260    0.7500   -1.7750 C   0  0  0  0  0  0  0  0  0  0  0  0
  1  2  1  0
  2  3  1  0
  2  4  1  0
  4  5  2  0
  4  6  1  0
  6  7  2  0
  6 37  1  0
  7  8  1  0
  8  9  1  0
  8 31  1  0
  9 10  2  0
  9 36  1  0
 10 11  1  0
 11 12  1  6
 11 30  1  0
 12 13  1  0
 13 14  2  0
 13 15  1  0
 16 15  1  6
 16 17  2  0
 16 18  2  0
 16 19  1  0
 19 20  1  0
 20 21  2  0
 20 25  1  0
 21 22  1  0
 22 23  2  0
 23 24  1  0
 23 29  1  0
 24 25  2  0
 24 26  1  0
 26 27  1  0
 27 28  1  0
 28 29  1  0
 30 31  2  0
 30 34  1  0
 31 32  1  0
 32 33  1  0
 33 34  1  0
 34 35  2  0
 36 37  2  0
M  END
