
     RDKit          3D

 23 23  0  0  0  0  0  0  0  0999 V2000
    4.6770    2.3200    1.5750 N   0  0  0  0  0  0  0  0  0  0  0  0
    5.6890    1.7400    0.7750 C   0  0  0  0  0  0  0  0  0  0  0  0
    6.6380    2.4280    0.3130 O   0  0  0  0  0  0  0  0  0  0  0  0
    5.6650    0.2970    0.4530 C   0  0  2  0  0  0  0  0  0  0  0  0
    5.6380    0.0700   -1.0280 C   0  0  0  0  0  0  0  0  0  0  0  0
    4.7580   -0.9950   -1.3300 O   0  0  0  0  0  0  0  0  0  0  0  0
    3.4430   -0.6050   -1.0760 C   0  0  0  0  0  0  0  0  0  0  0  0
    3.3910   -0.0460    0.3470 C   0  0  1  0  0  0  0  0  0  0  0  0
    2.2560   -0.7250    1.0750 C   0  0  0  0  0  0  0  0  0  0  0  0
    1.0310   -0.4720    0.3580 N   0  0  0  0  0  0  0  0  0  0  0  0
   -0.2230   -0.9930    0.8120 C   0  0  0  0  0  0  0  0  0  0  0  0
   -0.2580   -1.6790    1.8470 O   0  0  0  0  0  0  0  0  0  0  0  0
   -1.4010   -0.6790    0.0130 C   0  0  0  0  0  0  0  0  0  0  0  0
   -1.3310    0.0180   -1.0290 O   0  0  0  0  0  0  0  0  0  0  0  0
   -2.7050   -1.1370    0.3570 N   0  0  0  0  0  0  0  0  0  0  0  0
   -3.8940   -0.8680   -0.3750 C   0  0  1  0  0  0  0  0  0  0  0  0
   -4.5800   -2.0680   -0.9340 C   0  0  0  0  0  0  0  0  0  0  0  0
   -4.9800   -2.9840    0.0040 O   0  0  0  0  0  0  0  0  0  0  0  0
   -4.8430   -0.0240    0.4410 C   0  0  2  0  0  0  0  0  0  0  0  0
   -6.0160    0.2750   -0.2050 O   0  0  0  0  0  0  0  0  0  0  0  0
   -4.1930    1.3050    0.8300 C   0  0  0  0  0  0  0  0  0  0  0  0
   -3.9140    2.1230   -0.3160 N   0  0  0  0  0  0  0  0  0  0  0  0
    4.5570   -0.2940    1.0420 O   0  0  0  0  0  0  0  0  0  0  0  0
  1  2  1  0
  2  3  2  0
  4  2  1  6
  4  5  1  0
  4 23  1  0
  5  6  1  0
  6  7  1  0
  7  8  1  0
  8  9  1  1
  8 23  1  0
  9 10  1  0
 10 11  1  0
 11 12  2  0
 11 13  1  0
 13 14  2  0
 13 15  1  0
 15 16  1  0
 16 17  1  1
 16 19  1  0
 17 18  1  0
 19 20  1  6
 19 21  1  0
 21 22  1  0
M  CHG  1  22   1
M  END
