
     RDKit          3D

 23 23  0  0  0  0  0  0  0  0999 V2000
    0.6120    5.5320   -0.3570 N   0  0  0  0  0  0  0  0  0  0  0  0
    0.0670    4.3550   -0.9500 C   0  0  0  0  0  0  0  0  0  0  0  0
   -0.7710    4.4060   -1.8580 O   0  0  0  0  0  0  0  0  0  0  0  0
    0.4970    3.0550   -0.4850 N   0  0  0  0  0  0  0  0  0  0  0  0
   -0.0470    1.8930   -1.0770 C   0  0  0  0  0  0  0  0  0  0  0  0
   -0.9250    2.0560   -1.9820 O   0  0  0  0  0  0  0  0  0  0  0  0
    0.4050    0.5520   -0.6330 C   0  0  1  0  0  0  0  0  0  0  0  0
    1.5210    0.6850    0.3370 C   0  0  2  0  0  0  0  0  0  0  0  0
    2.5220    1.4640   -0.2950 O   0  0  0  0  0  0  0  0  0  0  0  0
    2.1910   -0.6610    0.6280 C   0  0  0  0  0  0  0  0  0  0  0  0
    2.6140   -1.2660   -0.5410 O   0  0  0  0  0  0  0  0  0  0  0  0
    3.2160   -2.4890   -0.3870 C   0  0  0  0  0  0  0  0  0  0  0  0
    4.4640   -2.4420    0.4580 C   0  0  0  0  0  0  0  0  0  0  0  0
    4.9770   -3.7620    0.5290 O   0  0  0  0  0  0  0  0  0  0  0  0
   -0.6800   -0.2450   -0.2870 N   0  0  0  0  0  0  0  0  0  0  0  0
   -1.5510   -0.5830   -1.3390 C   0  0  0  0  0  0  0  0  0  0  0  0
   -3.0000   -0.2420   -1.0850 C   0  0  0  0  0  0  0  0  0  0  0  0
   -3.5090   -0.6810    0.2480 C   0  0  2  0  0  0  0  0  0  0  0  0
   -4.5600   -1.6750    0.1500 N   0  0  0  0  0  0  0  0  0  0  0  0
   -4.0480    0.4610    0.8860 O   0  0  0  0  0  0  0  0  0  0  0  0
   -2.3640   -1.2390    1.0540 C   0  0  2  0  0  0  0  0  0  0  0  0
   -2.7080   -1.5580    2.3530 O   0  0  0  0  0  0  0  0  0  0  0  0
   -1.2520   -0.1760    1.0020 C   0  0  0  0  0  0  0  0  0  0  0  0
  1  2  1  0
  2  3  2  0
  2  4  1  0
  4  5  1  0
  5  6  2  0
  5  7  1  0
  7  8  1  0
  7 15  1  1
  8  9  1  6
  8 10  1  0
 10 11  1  0
 11 12  1  0
 12 13  1  0
 13 14  1  0
 15 16  1  0
 15 23  1  0
 16 17  1  0
 17 18  1  0
 18 19  1  6
 18 20  1  0
 18 21  1  0
 21 22  1  1
 21 23  1  0
M  END
