
     RDKit          3D

 23 23  0  0  0  0  0  0  0  0999 V2000
    6.2420   -1.5600   -1.7350 N   0  0  0  0  0  0  0  0  0  0  0  0
    5.1100   -1.2800   -0.9660 N   0  0  0  0  0  0  0  0  0  0  0  0
    4.6950    0.0340   -0.6910 C   0  0  0  0  0  0  0  0  0  0  0  0
    5.3290    1.0180   -1.1280 O   0  0  0  0  0  0  0  0  0  0  0  0
    3.4490    0.2970    0.1570 C   0  0  2  0  0  0  0  0  0  0  0  0
    3.9230    1.1770    1.2570 C   0  0  0  0  0  0  0  0  0  0  0  0
    4.9560    0.5590    1.9810 O   0  0  0  0  0  0  0  0  0  0  0  0
    2.9470   -0.9210    0.5050 O   0  0  0  0  0  0  0  0  0  0  0  0
    1.7550   -1.3080   -0.0410 C   0  0  0  0  0  0  0  0  0  0  0  0
    0.6760   -0.3740    0.3240 C   0  0  0  0  0  0  0  0  0  0  0  0
    0.9070    0.5900    1.0380 O   0  0  0  0  0  0  0  0  0  0  0  0
   -0.6520   -0.5690   -0.1420 N   0  0  0  0  0  0  0  0  0  0  0  0
   -1.7830    0.2790    0.1470 C   0  0  2  0  0  0  0  0  0  0  0  0
   -1.5630    1.6520   -0.3800 C   0  0  0  0  0  0  0  0  0  0  0  0
   -1.3870    1.7160   -1.7570 O   0  0  0  0  0  0  0  0  0  0  0  0
   -1.9480    0.4600    1.6710 C   0  0  0  0  0  0  0  0  0  0  0  0
   -2.0260   -0.8990    2.2730 C   0  0  0  0  0  0  0  0  0  0  0  0
   -3.1340   -1.5880    1.8360 O   0  0  0  0  0  0  0  0  0  0  0  0
   -3.8800   -0.8710    0.9340 C   0  0  0  0  0  0  0  0  0  0  0  0
   -3.0370   -0.4050   -0.2620 C   0  0  2  0  0  0  0  0  0  0  0  0
   -2.6790   -1.6360   -0.8890 O   0  0  0  0  0  0  0  0  0  0  0  0
   -3.9470    0.2470   -1.2210 C   0  0  0  0  0  0  0  0  0  0  0  0
   -4.5030    1.5130   -0.8600 N   0  0  0  0  0  0  0  0  0  0  0  0
  1  2  1  0
  2  3  1  0
  3  4  2  0
  3  5  1  0
  5  6  1  1
  5  8  1  0
  6  7  1  0
  8  9  1  0
  9 10  1  0
 10 11  2  0
 10 12  1  0
 12 13  1  0
 13 14  1  6
 13 16  1  0
 13 20  1  0
 14 15  1  0
 16 17  1  0
 17 18  1  0
 18 19  1  0
 19 20  1  0
 20 21  1  6
 20 22  1  0
 22 23  1  0
M  CHG  1  23   1
M  END
