
     RDKit          3D

 23 23  0  0  0  0  0  0  0  0999 V2000
   -2.2310    1.2280   -0.1560 C   0  0  0  0  0  0  0  0  0  0  0  0
   -0.9110    0.4910    0.1760 C   0  0  2  0  0  0  0  0  0  0  0  0
   -1.2370   -0.8310    0.2360 O   0  0  0  0  0  0  0  0  0  0  0  0
   -0.6230    0.9570    1.5910 C   0  0  2  0  0  0  0  0  0  0  0  0
   -1.5020    0.1480    2.4740 C   0  0  0  0  0  0  0  0  0  0  0  0
   -2.5390    0.6560    3.2800 N   0  0  0  0  0  0  0  0  0  0  0  0
   -1.3180   -1.1040    2.5220 O   0  0  0  0  0  0  0  0  0  0  0  0
   -1.0340    2.2880    1.7700 O   0  0  0  0  0  0  0  0  0  0  0  0
    0.0070    3.1830    1.5340 C   0  0  0  0  0  0  0  0  0  0  0  0
    0.1600    3.3300    0.0750 C   0  0  0  0  0  0  0  0  0  0  0  0
    0.1490    4.5230   -0.3660 O   0  0  0  0  0  0  0  0  0  0  0  0
    0.3200    2.3110   -0.9000 N   0  0  0  0  0  0  0  0  0  0  0  0
    0.0610    0.8580   -0.8410 C   0  0  2  0  0  0  0  0  0  0  0  0
   -0.5690    0.6010   -2.2180 C   0  0  0  0  0  0  0  0  0  0  0  0
   -0.9620   -0.7730   -2.5290 C   0  0  0  0  0  0  0  0  0  0  0  0
    0.0610   -1.7070   -2.5360 O   0  0  0  0  0  0  0  0  0  0  0  0
    1.3630    0.2000   -0.8590 C   0  0  0  0  0  0  0  0  0  0  0  0
    2.3620    0.8310   -1.3030 O   0  0  0  0  0  0  0  0  0  0  0  0
    1.6240   -1.1260   -0.4060 N   0  0  0  0  0  0  0  0  0  0  0  0
    2.9130   -1.7320   -0.4670 C   0  0  0  0  0  0  0  0  0  0  0  0
    3.8770   -1.0940   -0.9600 O   0  0  0  0  0  0  0  0  0  0  0  0
    3.1950   -3.1100    0.0310 C   0  0  0  0  0  0  0  0  0  0  0  0
    1.9490   -3.6370    0.5650 N   0  0  0  0  0  0  0  0  0  0  0  0
  2  1  1  6
  2  3  1  0
  2  4  1  0
  2 13  1  0
  4  5  1  1
  4  8  1  0
  5  6  1  0
  5  7  2  0
  8  9  1  0
  9 10  1  0
 10 11  2  0
 10 12  1  0
 12 13  1  0
 13 14  1  6
 13 17  1  0
 14 15  1  0
 15 16  1  0
 17 18  2  0
 17 19  1  0
 19 20  1  0
 20 21  2  0
 20 22  1  0
 22 23  1  0
M  CHG  1  23   1
M  END
