
     RDKit          3D

 14 14  0  0  0  0  0  0  0  0999 V2000
    3.7780   -0.9830   -0.7360 C   0  0  0  0  0  0  0  0  0  0  0  0
    2.5600   -0.8410   -0.1900 C   0  0  0  0  0  0  0  0  0  0  0  0
    1.5800   -0.1240   -0.9230 C   0  0  0  0  0  0  0  0  0  0  0  0
    0.3490    0.1470   -0.6300 C   0  0  0  0  0  0  0  0  0  0  0  0
   -0.4380    0.9300   -1.6150 C   0  0  0  0  0  0  0  0  0  0  0  0
   -1.6890    1.2430   -1.3990 C   0  0  0  0  0  0  0  0  0  0  0  0
   -2.3590    0.8320   -0.1750 C   0  0  0  0  0  0  0  0  0  0  0  0
   -3.7380    1.1920    0.0350 N   0  0  0  0  0  0  0  0  0  0  0  0
   -4.5280    0.4380    1.0040 C   0  0  0  0  0  0  0  0  0  0  0  0
   -1.7360    0.1570    0.7110 N   0  0  0  0  0  0  0  0  0  0  0  0
   -0.3560   -0.2410    0.5730 C   0  0  0  0  0  0  0  0  0  0  0  0
    0.1840   -0.9020    1.4840 O   0  0  0  0  0  0  0  0  0  0  0  0
    2.3980   -1.4120    1.0300 O   0  0  0  0  0  0  0  0  0  0  0  0
    3.3230   -1.1970    2.0540 C   0  0  0  0  0  0  0  0  0  0  0  0
  1  2  2  0
  2  3  1  0
  2 13  1  0
  3  4  2  3
  4  5  1  0
  4 11  1  0
  5  6  2  0
  6  7  1  0
  7  8  1  0
  7 10  2  0
  8  9  1  0
 10 11  1  0
 11 12  2  0
 13 14  1  0
M  END
