
     RDKit          3D

 14 15  0  0  0  0  0  0  0  0999 V2000
    2.2370    0.3240    1.1460 O   0  0  0  0  0  0  0  0  0  0  0  0
    2.5770   -0.1400    0.0290 C   0  0  0  0  0  0  0  0  0  0  0  0
    1.5610   -0.6420   -0.8180 N   0  0  0  0  0  0  0  0  0  0  0  0
    0.2130   -0.6660   -0.5200 N   0  0  0  0  0  0  0  0  0  0  0  0
   -0.5440    0.3430   -0.3840 C   0  0  0  0  0  0  0  0  0  0  0  0
   -1.9420    0.1800   -0.0720 C   0  0  0  0  0  0  0  0  0  0  0  0
   -2.4430   -1.0230    0.0740 C   0  0  0  0  0  0  0  0  0  0  0  0
   -3.8610   -1.2340    0.3930 C   0  0  0  0  0  0  0  0  0  0  0  0
   -4.7330   -0.0680    0.0170 C   0  0  0  0  0  0  0  0  0  0  0  0
   -4.0600    0.9810   -0.5510 O   0  0  0  0  0  0  0  0  0  0  0  0
   -2.8820    1.3200    0.1010 C   0  0  0  0  0  0  0  0  0  0  0  0
    4.0180   -0.1370   -0.3380 C   0  0  2  0  0  0  0  0  0  0  0  0
    5.0230   -0.2780    0.7340 C   0  0  0  0  0  0  0  0  0  0  0  0
    4.7580    1.0930    0.1520 C   0  0  0  0  0  0  0  0  0  0  0  0
  1  2  2  0
  2  3  1  0
 12  2  1  1
  3  4  1  0
  4  5  2  3
  5  6  1  0
  6  7  2  0
  6 11  1  0
  7  8  1  0
  8  9  1  0
  9 10  1  0
 10 11  1  0
 12 13  1  0
 12 14  1  0
 13 14  1  0
M  END
