
     RDKit          3D

 18 17  0  0  0  0  0  0  0  0999 V2000
    2.3610   -1.4010   -0.5200 O   0  0  0  0  0  0  0  0  0  0  0  0
    2.1230   -1.3410    0.7090 C   0  0  0  0  0  0  0  0  0  0  0  0
    1.0300   -0.5730    1.1570 N   0  0  0  0  0  0  0  0  0  0  0  0
    0.2180    0.1200    0.1800 C   0  0  2  0  0  0  0  0  0  0  0  0
    0.3360    1.4890    0.4670 O   0  0  0  0  0  0  0  0  0  0  0  0
    0.8470    2.2030   -0.6120 C   0  0  2  0  0  0  0  0  0  0  0  0
    2.0320    2.8440   -0.3440 O   0  0  0  0  0  0  0  0  0  0  0  0
   -0.2230    3.1860   -1.0710 C   0  0  0  0  0  0  0  0  0  0  0  0
   -0.5140    4.0260   -0.0230 O   0  0  0  0  0  0  0  0  0  0  0  0
   -1.2280   -0.2630    0.2880 C   0  0  0  0  0  0  0  0  0  0  0  0
   -1.5130   -1.0910    1.1690 O   0  0  0  0  0  0  0  0  0  0  0  0
   -2.1990    0.2410   -0.5090 O   0  0  0  0  0  0  0  0  0  0  0  0
   -3.5290   -0.1000   -0.4300 C   0  0  0  0  0  0  0  0  0  0  0  0
   -3.9160   -1.5090   -0.6890 C   0  0  0  0  0  0  0  0  0  0  0  0
   -3.3930   -2.4730    0.1160 O   0  0  0  0  0  0  0  0  0  0  0  0
    2.9370   -2.0270    1.5930 O   0  0  0  0  0  0  0  0  0  0  0  0
    4.0140   -2.7780    1.0900 C   0  0  0  0  0  0  0  0  0  0  0  0
    4.8620   -1.8950    0.4030 O   0  0  0  0  0  0  0  0  0  0  0  0
  1  2  2  0
  2  3  1  0
  2 16  1  0
  4  3  1  1
  4  5  1  0
  4 10  1  0
  5  6  1  0
  6  7  1  1
  6  8  1  0
  8  9  1  0
 10 11  2  0
 10 12  1  0
 12 13  1  0
 13 14  1  0
 14 15  1  0
 16 17  1  0
 17 18  1  0
M  END
