
     RDKit          3D

 13 14  0  0  0  0  0  0  0  0999 V2000
    2.9360   -0.5650   -0.3150 C   0  0  0  0  0  0  0  0  0  0  0  0
    1.5160   -0.2420   -0.1680 N   0  0  0  0  0  0  0  0  0  0  0  0
    1.0810    1.0280   -0.0670 C   0  0  0  0  0  0  0  0  0  0  0  0
    1.9090    1.9490   -0.1000 O   0  0  0  0  0  0  0  0  0  0  0  0
   -0.2660    1.3460    0.0740 C   0  0  0  0  0  0  0  0  0  0  0  0
   -0.9790    2.4690    0.1940 N   0  0  0  0  0  0  0  0  0  0  0  0
   -2.2930    2.1970    0.3030 C   0  0  0  0  0  0  0  0  0  0  0  0
   -2.4080    0.8540    0.2500 N   0  0  0  0  0  0  0  0  0  0  0  0
   -1.1720    0.3090    0.1090 C   0  0  0  0  0  0  0  0  0  0  0  0
   -0.7080   -0.9490    0.0060 N   0  0  0  0  0  0  0  0  0  0  0  0
   -1.6380   -2.0360    0.0410 C   0  0  0  0  0  0  0  0  0  0  0  0
    0.6080   -1.2380   -0.1300 C   0  0  0  0  0  0  0  0  0  0  0  0
    0.9720   -2.4600   -0.2220 O   0  0  0  0  0  0  0  0  0  0  0  0
  1  2  1  0
  2  3  1  0
  2 12  1  0
  3  4  2  0
  3  5  1  0
  5  6  1  0
  5  9  2  0
  6  7  1  0
  7  8  2  0
  8  9  1  0
  9 10  1  0
 10 11  1  0
 10 12  1  0
 12 13  2  0
M  END
