
     RDKit          3D

 23 23  0  0  0  0  0  0  0  0999 V2000
    5.4800    1.2230    0.3210 C   0  0  0  0  0  0  0  0  0  0  0  0
    4.7790   -0.1220    0.1260 C   0  0  2  0  0  0  0  0  0  0  0  0
    5.2050   -0.6540   -1.2330 C   0  0  0  0  0  0  0  0  0  0  0  0
    6.5940   -0.8130   -1.2580 F   0  0  0  0  0  0  0  0  0  0  0  0
    3.3030    0.0620    0.1540 C   0  0  0  0  0  0  0  0  0  0  0  0
    2.5200   -0.6030    1.0020 N   0  0  0  0  0  0  0  0  0  0  0  0
    1.1930   -0.4340    1.0280 C   0  0  0  0  0  0  0  0  0  0  0  0
    0.5820    0.4350    0.1770 C   0  0  0  0  0  0  0  0  0  0  0  0
   -0.8360    0.6290    0.1680 C   0  0  0  0  0  0  0  0  0  0  0  0
   -1.7090   -0.3490    0.0950 C   0  0  0  0  0  0  0  0  0  0  0  0
   -3.1100    0.0040    0.1020 C   0  0  0  0  0  0  0  0  0  0  0  0
   -4.1620   -0.7470    0.0460 C   0  0  0  0  0  0  0  0  0  0  0  0
   -4.1770   -2.1530   -0.0360 N   0  0  0  0  0  0  0  0  0  0  0  0
   -5.4220   -0.1220    0.0700 O   0  0  0  0  0  0  0  0  0  0  0  0
   -5.5080    0.8880    0.9730 O   0  0  0  0  0  0  0  0  0  0  0  0
   -6.1290    1.9490    0.3350 C   0  0  1  0  0  0  0  0  0  0  0  0
   -6.2160    2.9860    1.2480 F   0  0  0  0  0  0  0  0  0  0  0  0
   -5.4610    2.3780   -0.8000 F   0  0  0  0  0  0  0  0  0  0  0  0
   -7.7660    1.4180   -0.1500 Cl  0  0  0  0  0  0  0  0  0  0  0  0
   -1.3030   -1.7590   -0.0460 C   0  0  0  0  0  0  0  0  0  0  0  0
   -1.8440   -2.2920   -1.2520 O   0  0  0  0  0  0  0  0  0  0  0  0
    1.4010    1.1320   -0.7120 C   0  0  0  0  0  0  0  0  0  0  0  0
    2.7160    0.9170   -0.6860 N   0  0  0  0  0  0  0  0  0  0  0  0
  2  1  1  6
  2  3  1  0
  2  5  1  0
  3  4  1  0
  5  6  2  0
  5 23  1  0
  6  7  1  0
  7  8  2  0
  8  9  1  0
  8 22  1  0
  9 10  2  3
 10 11  1  0
 10 20  1  0
 11 12  2  3
 12 13  1  0
 12 14  1  0
 14 15  1  0
 15 16  1  0
 16 17  1  1
 16 18  1  0
 16 19  1  0
 20 21  1  0
 22 23  2  0
M  CHG  1  23   1
M  END
