
     RDKit          3D

 22 23  0  0  0  0  0  0  0  0999 V2000
   -3.1190   -1.8740   -0.1280 C   0  0  0  0  0  0  0  0  0  0  0  0
   -2.1830   -0.8030    0.3160 C   0  0  0  0  0  0  0  0  0  0  0  0
   -1.1500   -1.1440    1.3080 C   0  0  0  0  0  0  0  0  0  0  0  0
   -2.2880    0.3870   -0.1560 N   0  0  0  0  0  0  0  0  0  0  0  0
   -1.3930    1.4040    0.2700 C   0  0  0  0  0  0  0  0  0  0  0  0
   -1.8560    2.2850    1.2500 O   0  0  0  0  0  0  0  0  0  0  0  0
   -1.0740    3.1010    1.9390 F   0  0  0  0  0  0  0  0  0  0  0  0
   -0.1730    1.5740   -0.1860 C   0  0  0  0  0  0  0  0  0  0  0  0
    0.5970    2.5750    0.2880 F   0  0  0  0  0  0  0  0  0  0  0  0
    0.4170    0.6870   -1.2190 C   0  0  0  0  0  0  0  0  0  0  0  0
    1.6850    0.0380   -0.7330 C   0  0  0  0  0  0  0  0  0  0  0  0
    1.8120   -1.1410   -0.1060 N   0  0  0  0  0  0  0  0  0  0  0  0
    3.1230   -1.3360    0.1500 C   0  0  0  0  0  0  0  0  0  0  0  0
    3.7940   -0.2410   -0.3400 C   0  0  0  0  0  0  0  0  0  0  0  0
    2.8730    0.5690   -0.8680 O   0  0  0  0  0  0  0  0  0  0  0  0
    5.0990   -0.1130   -0.2520 C   0  0  0  0  0  0  0  0  0  0  0  0
    5.9280   -1.1410    0.3790 C   0  0  0  0  0  0  0  0  0  0  0  0
    5.1630   -2.2040    0.8410 O   0  0  0  0  0  0  0  0  0  0  0  0
    3.8180   -2.2540    0.7080 N   0  0  0  0  0  0  0  0  0  0  0  0
   -3.3080    0.7340   -1.1160 C   0  0  1  0  0  0  0  0  0  0  0  0
   -4.1850    1.8140   -0.4810 C   0  0  0  0  0  0  0  0  0  0  0  0
   -2.5590    1.3990   -2.5840 Cl  0  0  0  0  0  0  0  0  0  0  0  0
  1  2  1  0
  2  3  1  0
  2  4  2  3
  4  5  1  0
  4 20  1  0
  5  6  1  0
  5  8  2  3
  6  7  1  0
  8  9  1  0
  8 10  1  0
 10 11  1  0
 11 12  2  0
 11 15  1  0
 12 13  1  0
 13 14  1  0
 13 19  2  0
 14 15  1  0
 14 16  2  0
 16 17  1  0
 17 18  1  0
 18 19  1  0
 20 21  1  1
 20 22  1  0
M  CHG  1   4   1
M  END
