
     RDKit          3D

 22 22  0  0  0  0  0  0  0  0999 V2000
    3.7390    1.3010    1.4020 C   0  0  0  0  0  0  0  0  0  0  0  0
    3.3540    1.1020    0.1770 C   0  0  0  0  0  0  0  0  0  0  0  0
    2.0280    1.0420   -0.2960 N   0  0  0  0  0  0  0  0  0  0  0  0
    1.0780    0.1480    0.2670 C   0  0  2  0  0  0  0  0  0  0  0  0
    1.3490   -0.1930    1.6380 N   0  0  0  0  0  0  0  0  0  0  0  0
    1.4770   -1.2190   -0.4420 C   0  0  2  0  0  0  0  0  0  0  0  0
    2.5590   -1.7590    0.1830 F   0  0  0  0  0  0  0  0  0  0  0  0
    1.8400   -0.9260   -1.7500 O   0  0  0  0  0  0  0  0  0  0  0  0
    2.2850   -2.3560   -2.5490 Cl  0  0  0  0  0  0  0  0  0  0  0  0
    0.3060   -2.0030   -0.4330 N   0  0  0  0  0  0  0  0  0  0  0  0
    0.3160   -3.1240    0.2660 F   0  0  0  0  0  0  0  0  0  0  0  0
   -0.8310   -1.1410   -0.2130 C   0  0  2  0  0  0  0  0  0  0  0  0
   -1.4580   -1.6050    1.0940 C   0  0  0  0  0  0  0  0  0  0  0  0
   -1.7220   -1.3800   -1.3650 C   0  0  0  0  0  0  0  0  0  0  0  0
   -2.5720   -2.3810   -1.2980 C   0  0  0  0  0  0  0  0  0  0  0  0
   -0.3420    0.2690   -0.0650 C   0  0  2  0  0  0  0  0  0  0  0  0
   -0.7160    1.1340   -1.2500 C   0  0  0  0  0  0  0  0  0  0  0  0
   -0.3920    2.5750   -1.1380 C   0  0  0  0  0  0  0  0  0  0  0  0
   -1.1720    0.8930    1.0510 C   0  0  0  0  0  0  0  0  0  0  0  0
   -0.6980    1.3570    2.0520 O   0  0  0  0  0  0  0  0  0  0  0  0
   -2.6650    0.9650    0.9590 C   0  0  0  0  0  0  0  0  0  0  0  0
   -3.1110    2.2690    0.7150 F   0  0  0  0  0  0  0  0  0  0  0  0
  1  2  2  0
  2  3  1  0
  3  4  1  0
  4  5  1  1
  4  6  1  0
  4 16  1  0
  6  7  1  1
  6  8  1  0
  6 10  1  0
  8  9  1  0
 10 11  1  0
 10 12  1  0
 12 13  1  1
 12 14  1  0
 12 16  1  0
 14 15  2  0
 16 17  1  6
 16 19  1  0
 17 18  1  0
 19 20  2  0
 19 21  1  0
 21 22  1  0
M  END
