
     RDKit          3D

 23 24  0  0  0  0  0  0  0  0999 V2000
   -0.4130   -3.1890    0.6090 C   0  0  0  0  0  0  0  0  0  0  0  0
   -0.2460   -1.8450   -0.0630 C   0  0  2  0  0  0  0  0  0  0  0  0
    0.5260   -0.9250    0.7110 N   0  0  0  0  0  0  0  0  0  0  0  0
    0.9850    0.1330   -0.2060 C   0  0  2  0  0  0  0  0  0  0  0  0
    1.7700   -0.5500   -1.1480 F   0  0  0  0  0  0  0  0  0  0  0  0
    1.8740    0.9540    0.5540 N   0  0  0  0  0  0  0  0  0  0  0  0
    3.1160    0.2310    0.7530 C   0  0  0  0  0  0  0  0  0  0  0  0
    4.2570    0.8850   -0.0160 C   0  0  0  0  0  0  0  0  0  0  0  0
    5.4410    0.2070    0.1660 O   0  0  0  0  0  0  0  0  0  0  0  0
   -0.1520    0.8020   -0.8540 C   0  0  1  0  0  0  0  0  0  0  0  0
   -0.1780    0.4510   -2.2130 F   0  0  0  0  0  0  0  0  0  0  0  0
   -1.4840    0.3050   -0.2980 C   0  0  2  0  0  0  0  0  0  0  0  0
   -2.5550    0.7660   -1.0940 O   0  0  0  0  0  0  0  0  0  0  0  0
   -1.7150    0.8400    1.0840 C   0  0  0  0  0  0  0  0  0  0  0  0
   -1.6350    2.3400    1.0220 C   0  0  0  0  0  0  0  0  0  0  0  0
   -0.3400    2.7970    0.5530 N   0  0  0  0  0  0  0  0  0  0  0  0
   -0.4160    4.1510    0.4770 F   0  0  0  0  0  0  0  0  0  0  0  0
   -0.1740    2.2930   -0.7960 C   0  0  1  0  0  0  0  0  0  0  0  0
    0.8710    2.8940   -1.4660 F   0  0  0  0  0  0  0  0  0  0  0  0
   -1.6420    2.8350   -1.6930 Cl  0  0  0  0  0  0  0  0  0  0  0  0
   -1.5740   -1.2130   -0.3610 C   0  0  1  0  0  0  0  0  0  0  0  0
   -1.9220   -1.5480   -1.8160 C   0  0  0  0  0  0  0  0  0  0  0  0
   -2.6800   -1.7010    0.5120 C   0  0  0  0  0  0  0  0  0  0  0  0
  2  1  1  1
  2  3  1  0
  2 21  1  0
  3  4  1  0
  4  5  1  6
  4  6  1  0
  4 10  1  0
  6  7  1  0
  7  8  1  0
  8  9  1  0
 10 11  1  6
 10 12  1  0
 10 18  1  0
 12 13  1  6
 12 14  1  0
 12 21  1  0
 14 15  1  0
 15 16  1  0
 16 17  1  0
 16 18  1  0
 18 19  1  6
 18 20  1  0
 21 22  1  6
 21 23  1  0
M  CHG  1   6   1
M  END
