
     RDKit          3D

 22 23  0  0  0  0  0  0  0  0999 V2000
    3.6180   -1.1270    0.0800 C   0  0  0  0  0  0  0  0  0  0  0  0
    3.3260   -0.0950    0.8230 C   0  0  0  0  0  0  0  0  0  0  0  0
    4.3070    0.3600    1.7070 O   0  0  0  0  0  0  0  0  0  0  0  0
    1.9950    0.6080    0.7550 C   0  0  0  0  0  0  0  0  0  0  0  0
    1.2030    0.0330   -0.2400 N   0  0  0  0  0  0  0  0  0  0  0  0
   -0.0020    0.5850   -0.6980 C   0  0  1  0  0  0  0  0  0  0  0  0
   -0.5430    1.8630   -0.2270 C   0  0  0  0  0  0  0  0  0  0  0  0
   -0.9200    2.1910    1.1190 C   0  0  1  0  0  0  0  0  0  0  0  0
   -1.8870    1.4210    1.7150 F   0  0  0  0  0  0  0  0  0  0  0  0
    0.0900    2.4180    2.0060 F   0  0  0  0  0  0  0  0  0  0  0  0
   -1.7470    3.8350    1.0670 Cl  0  0  0  0  0  0  0  0  0  0  0  0
    0.1910    0.8500   -2.1570 C   0  0  0  0  0  0  0  0  0  0  0  0
    1.0190    1.7000   -2.6500 N   0  0  0  0  0  0  0  0  0  0  0  0
   -0.6860    0.0340   -2.8840 N   0  0  0  0  0  0  0  0  0  0  0  0
   -1.4320   -0.7340   -1.9740 C   0  0  0  0  0  0  0  0  0  0  0  0
   -2.4120   -1.6590   -2.4170 O   0  0  0  0  0  0  0  0  0  0  0  0
   -1.1000   -0.4760   -0.7310 C   0  0  0  0  0  0  0  0  0  0  0  0
   -1.7190   -1.1110    0.4280 C   0  0  0  0  0  0  0  0  0  0  0  0
   -3.0860   -1.4010    0.5640 C   0  0  0  0  0  0  0  0  0  0  0  0
   -3.2890   -1.9880    1.7700 C   0  0  0  0  0  0  0  0  0  0  0  0
   -2.0420   -2.0520    2.3630 C   0  0  0  0  0  0  0  0  0  0  0  0
   -1.1980   -1.5370    1.5460 O   0  0  0  0  0  0  0  0  0  0  0  0
  1  2  2  0
  2  3  1  0
  2  4  1  0
  4  5  1  0
  5  6  1  0
  6  7  1  1
  6 12  1  0
  6 17  1  0
  7  8  1  0
  8  9  1  1
  8 10  1  0
  8 11  1  0
 12 13  2  0
 12 14  1  0
 14 15  1  0
 15 16  1  0
 15 17  2  0
 17 18  1  0
 18 19  2  0
 18 22  1  0
 19 20  1  0
 20 21  2  0
 21 22  1  0
M  CHG  1   5   1
M  END
