
     RDKit          3D

 28 30  0  0  0  0  0  0  0  0999 V2000
   -9.2750    1.2290   -0.4790 C   0  0  0  0  0  0  0  0  0  0  0  0
   -7.7740    1.2670   -0.5120 C   0  0  0  0  0  0  0  0  0  0  0  0
   -7.0420    2.3110   -1.0510 C   0  0  0  0  0  0  0  0  0  0  0  0
   -5.7220    1.9530   -0.8800 C   0  0  0  0  0  0  0  0  0  0  0  0
   -5.7270    0.7210   -0.2510 C   0  0  0  0  0  0  0  0  0  0  0  0
   -4.5490   -0.0700    0.1420 C   0  0  0  0  0  0  0  0  0  0  0  0
   -4.7390   -1.2190    0.7300 C   0  0  0  0  0  0  0  0  0  0  0  0
   -3.6470   -2.0630    1.1510 C   0  0  0  0  0  0  0  0  0  0  0  0
   -3.8770   -3.1840    1.7250 O   0  0  0  0  0  0  0  0  0  0  0  0
   -2.3060   -1.6440    0.9250 N   0  0  0  0  0  0  0  0  0  0  0  0
   -1.2810   -2.5390    1.3730 C   0  0  0  0  0  0  0  0  0  0  0  0
   -1.4130   -3.7170    1.9750 N   0  0  0  0  0  0  0  0  0  0  0  0
   -0.2390   -4.2440    2.2340 N   0  0  0  0  0  0  0  0  0  0  0  0
    0.7140   -3.3720    1.7810 C   0  0  0  0  0  0  0  0  0  0  0  0
    0.0700   -2.2910    1.2340 C   0  0  0  0  0  0  0  0  0  0  0  0
    0.6740   -1.1380    0.6410 N   0  0  0  0  0  0  0  0  0  0  0  0
    2.0700   -0.9490    0.5320 C   0  0  0  0  0  0  0  0  0  0  0  0
    2.8850   -1.7990    0.9590 O   0  0  0  0  0  0  0  0  0  0  0  0
    2.6450    0.2150   -0.0670 N   0  0  0  0  0  0  0  0  0  0  0  0
    4.0500    0.4280   -0.1880 C   0  0  0  0  0  0  0  0  0  0  0  0
    4.3760    1.7250   -0.8520 C   0  0  0  0  0  0  0  0  0  0  0  0
    5.8810    1.8680   -0.9390 C   0  0  0  0  0  0  0  0  0  0  0  0
    6.3960    3.0420   -1.5420 C   0  0  0  0  0  0  0  0  0  0  0  0
    8.1480    2.7950   -1.4320 S   0  0  0  0  0  0  0  0  0  0  0  0
    8.0080    1.1570   -0.5950 C   0  0  0  0  0  0  0  0  0  0  0  0
    9.1870    0.3430   -0.1890 C   0  0  0  0  0  0  0  0  0  0  0  0
    6.7690    1.0380   -0.5230 N   0  0  0  0  0  0  0  0  0  0  0  0
   -6.9540    0.3490   -0.0500 O   0  0  0  0  0  0  0  0  0  0  0  0
  1  2  1  0
  2  3  2  0
  2 28  1  0
  3  4  1  0
  4  5  2  0
  5  6  1  0
  5 28  1  0
  6  7  2  3
  7  8  1  0
  8  9  2  0
  8 10  1  0
 10 11  1  0
 11 12  2  0
 11 15  1  0
 12 13  1  0
 13 14  1  0
 14 15  2  0
 15 16  1  0
 16 17  1  0
 17 18  2  0
 17 19  1  0
 19 20  1  0
 20 21  1  0
 21 22  1  0
 22 23  2  0
 22 27  1  0
 23 24  1  0
 24 25  1  0
 25 26  1  0
 25 27  2  0
M  END
