
     RDKit          3D

 28 31  0  0  0  0  0  0  0  0999 V2000
    8.3140   -1.7760   -0.2760 N   0  0  0  0  0  0  0  0  0  0  0  0
    7.6650   -0.9350   -1.6470 S   0  0  1  0  0  0  0  0  0  0  0  0
    8.3110    0.4120   -1.8090 O   0  0  0  0  0  0  0  0  0  0  0  0
    7.8550   -1.7760   -2.8790 O   0  0  0  0  0  0  0  0  0  0  0  0
    5.9530   -0.7270   -1.3850 C   0  0  0  0  0  0  0  0  0  0  0  0
    5.0970   -1.7060   -1.8340 C   0  0  0  0  0  0  0  0  0  0  0  0
    3.7600   -1.5620   -1.6390 C   0  0  0  0  0  0  0  0  0  0  0  0
    3.2310   -0.4430   -0.9920 C   0  0  0  0  0  0  0  0  0  0  0  0
    1.8490   -0.3750   -0.8330 N   0  0  0  0  0  0  0  0  0  0  0  0
    1.0890    0.6520   -0.2150 C   0  0  0  0  0  0  0  0  0  0  0  0
   -0.2710    0.5530   -0.1480 N   0  0  0  0  0  0  0  0  0  0  0  0
   -1.0610    1.4730    0.4150 C   0  0  0  0  0  0  0  0  0  0  0  0
   -2.4380    1.3120    0.4500 O   0  0  0  0  0  0  0  0  0  0  0  0
   -3.0020    0.1690   -0.1130 C   0  0  0  0  0  0  0  0  0  0  0  0
   -4.5160    0.1480    0.0090 C   0  0  2  0  0  0  0  0  0  0  0  0
   -4.9580    0.1860    1.4480 C   0  0  0  0  0  0  0  0  0  0  0  0
   -6.0700   -0.8120    1.6990 C   0  0  0  0  0  0  0  0  0  0  0  0
   -5.5170   -2.1780    1.3590 C   0  0  0  0  0  0  0  0  0  0  0  0
   -5.2850   -2.2440   -0.1110 C   0  0  0  0  0  0  0  0  0  0  0  0
   -5.1340   -0.9390   -0.7930 C   0  0  0  0  0  0  0  0  0  0  0  0
   -0.4780    2.6080    0.9720 C   0  0  0  0  0  0  0  0  0  0  0  0
   -0.9470    3.7000    1.6000 N   0  0  0  0  0  0  0  0  0  0  0  0
    0.0720    4.5100    1.9440 C   0  0  0  0  0  0  0  0  0  0  0  0
    1.1900    3.9080    1.5230 N   0  0  0  0  0  0  0  0  0  0  0  0
    0.8960    2.7350    0.9190 C   0  0  0  0  0  0  0  0  0  0  0  0
    1.5960    1.7620    0.3350 N   0  0  0  0  0  0  0  0  0  0  0  0
    4.1080    0.5130   -0.5560 C   0  0  0  0  0  0  0  0  0  0  0  0
    5.4840    0.3920   -0.7430 C   0  0  0  0  0  0  0  0  0  0  0  0
  2  1  1  1
  2  3  2  0
  2  4  2  0
  2  5  1  0
  5  6  2  0
  5 28  1  0
  6  7  1  0
  7  8  2  0
  8  9  1  0
  8 27  1  0
  9 10  1  0
 10 11  2  0
 10 26  1  0
 11 12  1  0
 12 13  1  0
 12 21  2  0
 13 14  1  0
 15 14  1  1
 15 16  1  0
 15 20  1  0
 16 17  1  0
 17 18  1  0
 18 19  1  0
 19 20  1  0
 21 22  1  0
 21 25  1  0
 22 23  2  0
 23 24  1  0
 24 25  1  0
 25 26  2  0
 27 28  2  0
M  END
