
     RDKit          3D

 28 31  0  0  0  0  0  0  0  0999 V2000
   -1.4000    0.1960   -1.0760 O   0  0  0  0  0  0  0  0  0  0  0  0
   -1.2110    1.2870   -0.4480 C   0  0  0  0  0  0  0  0  0  0  0  0
    0.1060    1.7560   -0.3280 N   0  0  0  0  0  0  0  0  0  0  0  0
    1.1800    0.9600   -0.9330 C   0  0  0  0  0  0  0  0  0  0  0  0
    1.2900   -0.0620   -1.5560 N   0  0  0  0  0  0  0  0  0  0  0  0
    2.4110   -0.5750   -1.9990 C   0  0  0  0  0  0  0  0  0  0  0  0
    3.5640    0.0940   -1.7400 C   0  0  0  0  0  0  0  0  0  0  0  0
    4.9870   -0.1110   -2.0380 C   0  0  0  0  0  0  0  0  0  0  0  0
    5.5790   -0.9190   -0.9420 C   0  0  0  0  0  0  0  0  0  0  0  0
    6.5720   -0.5880   -0.1290 C   0  0  0  0  0  0  0  0  0  0  0  0
    6.8510   -1.6930    0.8270 C   0  0  0  0  0  0  0  0  0  0  0  0
    5.8600   -2.7150    0.4360 C   0  0  0  0  0  0  0  0  0  0  0  0
    5.1310   -2.2550   -0.5880 C   0  0  0  0  0  0  0  0  0  0  0  0
    2.8750    1.5230   -0.8040 S   0  0  0  0  0  0  0  0  0  0  0  0
   -2.3780    1.9970    0.1170 C   0  0  0  0  0  0  0  0  0  0  0  0
   -3.6350    1.6580    0.0680 C   0  0  0  0  0  0  0  0  0  0  0  0
   -4.1570    0.4960   -0.5620 N   0  0  0  0  0  0  0  0  0  0  0  0
   -4.2200   -0.6360    0.0690 C   0  0  0  0  0  0  0  0  0  0  0  0
   -3.8030   -0.7830    1.3390 N   0  0  0  0  0  0  0  0  0  0  0  0
   -3.8730   -1.9660    1.9870 C   0  0  0  0  0  0  0  0  0  0  0  0
   -3.4680   -2.0620    3.1870 O   0  0  0  0  0  0  0  0  0  0  0  0
   -4.3700   -3.0420    1.3670 N   0  0  0  0  0  0  0  0  0  0  0  0
   -4.7910   -2.9120    0.0960 C   0  0  0  0  0  0  0  0  0  0  0  0
   -5.2560   -3.9320   -0.4750 O   0  0  0  0  0  0  0  0  0  0  0  0
   -4.7190   -1.7190   -0.5510 N   0  0  0  0  0  0  0  0  0  0  0  0
   -4.4910    2.6640    0.7720 C   0  0  0  0  0  0  0  0  0  0  0  0
   -3.5930    3.8960    0.7110 C   0  0  0  0  0  0  0  0  0  0  0  0
   -2.2300    3.2750    0.8610 C   0  0  0  0  0  0  0  0  0  0  0  0
  1  2  2  0
  2  3  1  0
  2 15  1  0
  3  4  1  0
  4  5  2  0
  4 14  1  0
  5  6  1  0
  6  7  2  0
  7  8  1  0
  7 14  1  0
  8  9  1  0
  9 10  2  0
  9 13  1  0
 10 11  1  0
 11 12  1  0
 12 13  2  0
 15 16  2  0
 15 28  1  0
 16 17  1  0
 16 26  1  0
 17 18  2  3
 18 19  1  0
 18 25  1  0
 19 20  1  0
 20 21  2  0
 20 22  1  0
 22 23  1  0
 23 24  2  0
 23 25  1  0
 26 27  1  0
 27 28  1  0
M  END
