
     RDKit          3D

 28 31  0  0  0  0  0  0  0  0999 V2000
   -5.5560   -2.3920   -0.4350 N   0  0  0  0  0  0  0  0  0  0  0  0
   -4.1970   -2.0360   -0.3850 C   0  0  0  0  0  0  0  0  0  0  0  0
   -3.3770   -2.9760   -0.4440 O   0  0  0  0  0  0  0  0  0  0  0  0
   -3.8020   -0.6240   -0.2690 C   0  0  0  0  0  0  0  0  0  0  0  0
   -2.4340   -0.3500   -0.2370 C   0  0  0  0  0  0  0  0  0  0  0  0
   -1.3090   -1.1880   -0.2890 N   0  0  0  0  0  0  0  0  0  0  0  0
   -0.0090   -0.5680   -0.2310 C   0  0  0  0  0  0  0  0  0  0  0  0
    0.1030    0.6820   -0.1380 O   0  0  0  0  0  0  0  0  0  0  0  0
    1.1810   -1.3260   -0.2770 N   0  0  0  0  0  0  0  0  0  0  0  0
    2.4610   -0.6550   -0.2150 C   0  0  0  0  0  0  0  0  0  0  0  0
    3.5380   -1.6440   -0.2790 C   0  0  0  0  0  0  0  0  0  0  0  0
    3.3920   -2.9740   -0.3790 N   0  0  0  0  0  0  0  0  0  0  0  0
    4.5690   -3.5770   -0.4130 N   0  0  0  0  0  0  0  0  0  0  0  0
    5.4810   -2.5860   -0.3310 C   0  0  0  0  0  0  0  0  0  0  0  0
    4.8740   -1.3960   -0.2480 N   0  0  0  0  0  0  0  0  0  0  0  0
    5.4400   -0.0930   -0.1470 C   0  0  0  0  0  0  0  0  0  0  0  0
    5.5470    0.7140   -1.2440 C   0  0  0  0  0  0  0  0  0  0  0  0
    6.1020    1.9870   -1.1360 C   0  0  0  0  0  0  0  0  0  0  0  0
    6.5420    2.4250    0.0870 C   0  0  0  0  0  0  0  0  0  0  0  0
    6.4490    1.6330    1.2200 C   0  0  0  0  0  0  0  0  0  0  0  0
    5.8920    0.3760    1.0710 C   0  0  0  0  0  0  0  0  0  0  0  0
   -2.3790    1.4250   -0.1040 S   0  0  0  0  0  0  0  0  0  0  0  0
   -4.0830    1.7030   -0.0990 C   0  0  0  0  0  0  0  0  0  0  0  0
   -4.6450    0.3830   -0.2020 C   0  0  0  0  0  0  0  0  0  0  0  0
   -6.1500    0.5270   -0.1960 C   0  0  0  0  0  0  0  0  0  0  0  0
   -6.4920    1.4350    0.9710 C   0  0  0  0  0  0  0  0  0  0  0  0
   -6.0610    2.7220    0.8230 O   0  0  0  0  0  0  0  0  0  0  0  0
   -5.0040    2.8930   -0.0250 C   0  0  0  0  0  0  0  0  0  0  0  0
  1  2  1  0
  2  3  2  0
  2  4  1  0
  4  5  2  0
  4 24  1  0
  5  6  1  0
  5 22  1  0
  6  7  1  0
  7  8  2  0
  7  9  1  0
  9 10  1  0
 10 11  1  0
 11 12  2  0
 11 15  1  0
 12 13  1  0
 13 14  2  0
 14 15  1  0
 15 16  1  0
 16 17  2  0
 16 21  1  0
 17 18  1  0
 18 19  2  0
 19 20  1  0
 20 21  2  0
 22 23  1  0
 23 24  2  0
 23 28  1  0
 24 25  1  0
 25 26  1  0
 26 27  1  0
 27 28  1  0
M  END
