
     RDKit          3D

 28 30  0  0  0  0  0  0  0  0999 V2000
   -4.5110   -1.0620   -3.1250 C   0  0  0  0  0  0  0  0  0  0  0  0
   -4.5870   -1.2540   -1.7290 O   0  0  0  0  0  0  0  0  0  0  0  0
   -3.5250   -1.0420   -0.8690 C   0  0  0  0  0  0  0  0  0  0  0  0
   -2.2990   -0.6200   -1.3400 C   0  0  0  0  0  0  0  0  0  0  0  0
   -1.2230   -0.4060   -0.4650 C   0  0  0  0  0  0  0  0  0  0  0  0
    0.0350    0.0030   -0.9650 N   0  0  0  0  0  0  0  0  0  0  0  0
    1.0650    0.5680   -0.1720 C   0  0  0  0  0  0  0  0  0  0  0  0
    0.7650    1.5570    0.5890 N   0  0  0  0  0  0  0  0  0  0  0  0
   -0.4660    2.1740    0.7480 C   0  0  0  0  0  0  0  0  0  0  0  0
   -1.2140    2.5240    1.6830 N   0  0  0  0  0  0  0  0  0  0  0  0
   -2.3510    3.0950    1.6160 C   0  0  0  0  0  0  0  0  0  0  0  0
   -3.2150    3.4980    2.7840 C   0  0  0  0  0  0  0  0  0  0  0  0
   -2.8440    3.3750    0.3040 C   0  0  0  0  0  0  0  0  0  0  0  0
   -1.4930    2.7250   -0.7020 S   0  0  0  0  0  0  0  0  0  0  0  0
    2.4610    0.0840   -0.2030 C   0  0  0  0  0  0  0  0  0  0  0  0
    2.8090   -0.8840   -0.9630 N   0  0  0  0  0  0  0  0  0  0  0  0
    4.1000   -1.4390   -1.0880 C   0  0  0  0  0  0  0  0  0  0  0  0
    4.5060   -2.5710   -0.5190 C   0  0  0  0  0  0  0  0  0  0  0  0
    5.9150   -2.7890   -0.9040 C   0  0  0  0  0  0  0  0  0  0  0  0
    6.2290   -1.6330   -1.7590 C   0  0  0  0  0  0  0  0  0  0  0  0
    5.1930   -0.9060   -1.8360 N   0  0  0  0  0  0  0  0  0  0  0  0
    3.4120    0.7500    0.6600 C   0  0  0  0  0  0  0  0  0  0  0  0
    4.7740    0.3850    0.7230 N   0  0  0  0  0  0  0  0  0  0  0  0
    3.0730    1.7140    1.4200 O   0  0  0  0  0  0  0  0  0  0  0  0
   -1.4810   -0.6440    0.8550 C   0  0  0  0  0  0  0  0  0  0  0  0
   -2.7000   -1.0650    1.3420 C   0  0  0  0  0  0  0  0  0  0  0  0
   -3.7300   -1.2670    0.4800 C   0  0  0  0  0  0  0  0  0  0  0  0
   -4.9680   -1.6910    0.9460 O   0  0  0  0  0  0  0  0  0  0  0  0
  1  2  1  0
  2  3  1  0
  3  4  2  0
  3 27  1  0
  4  5  1  0
  5  6  1  0
  5 25  2  0
  6  7  1  0
  7  8  2  3
  7 15  1  0
  8  9  1  0
  9 10  2  0
  9 14  1  0
 10 11  1  0
 11 12  1  0
 11 13  2  0
 13 14  1  0
 15 16  2  3
 15 22  1  0
 16 17  1  0
 17 18  2  0
 17 21  1  0
 18 19  1  0
 19 20  1  0
 20 21  2  0
 22 23  1  0
 22 24  2  0
 25 26  1  0
 26 27  2  0
 27 28  1  0
M  END
