
     RDKit          3D

 30 34  0  0  0  0  0  0  0  0999 V2000
    7.5600   -0.3380   -0.8000 C   0  0  0  0  0  0  0  0  0  0  0  0
    6.0870   -0.4200   -0.9360 C   0  0  0  0  0  0  0  0  0  0  0  0
    5.3830    0.6810   -1.1540 C   0  0  0  0  0  0  0  0  0  0  0  0
    6.2220    1.9270   -1.2360 C   0  0  0  0  0  0  0  0  0  0  0  0
    3.9180    0.8480   -1.3260 C   0  0  0  0  0  0  0  0  0  0  0  0
    3.0990    0.1060   -0.3580 C   0  0  0  0  0  0  0  0  0  0  0  0
    1.8480    0.6510   -0.2080 C   0  0  0  0  0  0  0  0  0  0  0  0
    0.8840    0.1130    0.6650 C   0  0  0  0  0  0  0  0  0  0  0  0
   -0.3740    0.7310    0.7610 N   0  0  0  0  0  0  0  0  0  0  0  0
   -1.4690    0.3680    1.5570 C   0  0  0  0  0  0  0  0  0  0  0  0
   -1.4750   -0.6750    2.3840 N   0  0  0  0  0  0  0  0  0  0  0  0
   -2.4890   -1.0610    3.1610 C   0  0  0  0  0  0  0  0  0  0  0  0
   -3.6310   -0.3090    3.0980 N   0  0  0  0  0  0  0  0  0  0  0  0
   -3.6940    0.7570    2.2840 C   0  0  0  0  0  0  0  0  0  0  0  0
   -5.2090    1.6940    2.2480 S   0  0  0  0  0  0  0  0  0  0  0  0
   -6.2810    1.0160    1.0090 C   0  0  0  0  0  0  0  0  0  0  0  0
   -7.1740    0.0210    1.3280 C   0  0  0  0  0  0  0  0  0  0  0  0
   -8.0270   -0.5360    0.3930 C   0  0  0  0  0  0  0  0  0  0  0  0
   -7.9850   -0.0820   -0.9030 C   0  0  0  0  0  0  0  0  0  0  0  0
   -7.1100    0.9050   -1.2540 C   0  0  0  0  0  0  0  0  0  0  0  0
   -6.2540    1.4560   -0.2910 C   0  0  0  0  0  0  0  0  0  0  0  0
   -7.2840    1.1590   -2.6030 O   0  0  0  0  0  0  0  0  0  0  0  0
   -8.0370    0.1090   -3.1770 C   0  0  0  0  0  0  0  0  0  0  0  0
   -8.7000   -0.4310   -2.0600 O   0  0  0  0  0  0  0  0  0  0  0  0
   -2.6360    1.0840    1.5330 N   0  0  0  0  0  0  0  0  0  0  0  0
    1.2520   -0.9970    1.3710 C   0  0  0  0  0  0  0  0  0  0  0  0
    2.5210   -1.5950    1.2540 C   0  0  0  0  0  0  0  0  0  0  0  0
    3.4280   -1.0110    0.3710 C   0  0  0  0  0  0  0  0  0  0  0  0
    4.6620   -1.7870    0.4150 C   0  0  0  0  0  0  0  0  0  0  0  0
    5.5040   -1.7820   -0.8090 C   0  0  0  0  0  0  0  0  0  0  0  0
  1  2  1  0
  2  3  2  0
  2 30  1  0
  3  4  1  0
  3  5  1  0
  5  6  1  0
  6  7  2  0
  6 28  1  0
  7  8  1  0
  8  9  1  0
  8 26  2  0
  9 10  1  0
 10 11  2  0
 10 25  1  0
 11 12  1  0
 12 13  2  0
 13 14  1  0
 14 15  1  0
 14 25  2  0
 15 16  1  0
 16 17  2  0
 16 21  1  0
 17 18  1  0
 18 19  2  0
 19 20  1  0
 19 24  1  0
 20 21  2  0
 20 22  1  0
 22 23  1  0
 23 24  1  0
 26 27  1  0
 27 28  2  0
 28 29  1  0
 29 30  1  0
M  END
