
     RDKit          3D

 31 34  0  0  0  0  0  0  0  0999 V2000
   -3.2120    3.8470   -0.7470 C   0  0  0  0  0  0  0  0  0  0  0  0
   -2.0400    3.9340    0.2370 C   0  0  0  0  0  0  0  0  0  0  0  0
   -1.5400    2.5430    0.4010 C   0  0  0  0  0  0  0  0  0  0  0  0
   -0.2970    2.2020    0.0870 C   0  0  0  0  0  0  0  0  0  0  0  0
    0.2270    0.8550    0.2320 C   0  0  0  0  0  0  0  0  0  0  0  0
    1.5120    0.6520   -0.0400 C   0  0  0  0  0  0  0  0  0  0  0  0
    2.6810    1.8990   -0.5770 S   0  0  0  0  0  0  0  0  0  0  0  0
    4.1080    0.8760   -0.2650 C   0  0  0  0  0  0  0  0  0  0  0  0
    5.5840    1.4710   -0.1890 S   0  0  0  0  0  0  0  0  0  0  0  0
    3.6620   -0.4440   -0.1060 N   0  0  0  0  0  0  0  0  0  0  0  0
    4.5690   -1.5940   -0.0620 C   0  0  1  0  0  0  0  0  0  0  0  0
    5.1950   -1.6990   -1.4360 C   0  0  0  0  0  0  0  0  0  0  0  0
    6.4500   -1.0130   -1.2640 N   0  0  0  0  0  0  0  0  0  0  0  0
    6.8850   -1.1740    0.0930 C   0  0  0  0  0  0  0  0  0  0  0  0
    8.1000   -1.0500    0.4080 O   0  0  0  0  0  0  0  0  0  0  0  0
    5.6930   -1.4720    0.8600 C   0  0  0  0  0  0  0  0  0  0  0  0
    2.2770   -0.5710    0.0150 C   0  0  0  0  0  0  0  0  0  0  0  0
    1.6270   -1.6800    0.1700 O   0  0  0  0  0  0  0  0  0  0  0  0
   -0.6370   -0.2490    0.6600 C   0  0  0  0  0  0  0  0  0  0  0  0
   -1.9360    0.1840    1.1070 N   0  0  0  0  0  0  0  0  0  0  0  0
   -3.0250   -0.9230    1.9110 S   0  0  2  0  0  0  0  0  0  0  0  0
   -3.7460   -0.2660    3.0360 O   0  0  0  0  0  0  0  0  0  0  0  0
   -2.2730   -2.1050    2.4600 O   0  0  0  0  0  0  0  0  0  0  0  0
   -4.2050   -1.4020    0.7130 C   0  0  0  0  0  0  0  0  0  0  0  0
   -5.3510   -0.8070    0.4480 C   0  0  0  0  0  0  0  0  0  0  0  0
   -6.0390   -1.5360   -0.6320 C   0  0  0  0  0  0  0  0  0  0  0  0
   -5.0890   -2.6380   -0.9280 C   0  0  0  0  0  0  0  0  0  0  0  0
   -4.0230   -2.5650   -0.1500 C   0  0  0  0  0  0  0  0  0  0  0  0
   -2.6530   -3.6660   -0.1630 Cl  0  0  0  0  0  0  0  0  0  0  0  0
   -2.4130    1.5070    0.9340 C   0  0  0  0  0  0  0  0  0  0  0  0
   -3.6100    1.8170    1.2410 O   0  0  0  0  0  0  0  0  0  0  0  0
  1  2  1  0
  2  3  1  0
  3  4  2  0
  3 30  1  0
  4  5  1  0
  5  6  2  3
  5 19  1  0
  6  7  1  0
  6 17  1  0
  7  8  1  0
  8  9  2  0
  8 10  1  0
 11 10  1  6
 10 17  1  0
 11 12  1  0
 11 16  1  0
 12 13  1  0
 13 14  1  0
 14 15  2  0
 14 16  1  0
 17 18  2  0
 19 20  1  0
 21 20  1  6
 20 30  1  0
 21 22  2  0
 21 23  2  0
 21 24  1  0
 24 25  2  0
 24 28  1  0
 25 26  1  0
 26 27  1  0
 27 28  2  0
 28 29  1  0
 30 31  2  0
M  END
