
     RDKit          3D

 31 34  0  0  0  0  0  0  0  0999 V2000
   -0.9310    0.6230   -1.8610 C   0  0  0  0  0  0  0  0  0  0  0  0
   -0.0780    0.3080   -0.7330 N   0  0  0  0  0  0  0  0  0  0  0  0
    1.2160    0.0700   -0.8640 N   0  0  0  0  0  0  0  0  0  0  0  0
    1.7510   -0.1920    0.3370 C   0  0  0  0  0  0  0  0  0  0  0  0
    3.1740   -0.5120    0.6430 C   0  0  0  0  0  0  0  0  0  0  0  0
    3.9990    1.0280    0.9670 S   0  0  1  0  0  0  0  0  0  0  0  0
    3.8150    1.9200   -0.2450 O   0  0  0  0  0  0  0  0  0  0  0  0
    3.3260    1.7200    2.1100 O   0  0  0  0  0  0  0  0  0  0  0  0
    5.6540    0.8180    1.3360 N   0  0  0  0  0  0  0  0  0  0  0  0
    6.5620    0.2390    0.3920 C   0  0  0  0  0  0  0  0  0  0  0  0
    6.5320    0.4600   -0.9110 C   0  0  0  0  0  0  0  0  0  0  0  0
    7.6340   -0.3220   -1.5340 C   0  0  0  0  0  0  0  0  0  0  0  0
    8.2800   -1.0070   -0.3970 C   0  0  0  0  0  0  0  0  0  0  0  0
    7.6440   -0.6670    0.6990 C   0  0  0  0  0  0  0  0  0  0  0  0
    8.0540   -1.2340    2.2990 Cl  0  0  0  0  0  0  0  0  0  0  0  0
    0.7150   -0.1070    1.2440 C   0  0  0  0  0  0  0  0  0  0  0  0
   -0.4320    0.2080    0.5540 C   0  0  0  0  0  0  0  0  0  0  0  0
   -1.7760    0.3950    1.1420 C   0  0  1  0  0  0  0  0  0  0  0  0
   -2.3420    1.7380    0.8270 C   0  0  0  0  0  0  0  0  0  0  0  0
   -4.0790    1.6320    0.7460 S   0  0  1  0  0  0  0  0  0  0  0  0
   -4.7870    2.1120    1.9620 O   0  0  0  0  0  0  0  0  0  0  0  0
   -4.5480    2.4960   -0.4140 O   0  0  0  0  0  0  0  0  0  0  0  0
   -4.4400   -0.0280    0.3800 C   0  0  0  0  0  0  0  0  0  0  0  0
   -5.5580   -0.6250    0.1060 C   0  0  0  0  0  0  0  0  0  0  0  0
   -6.8050    0.1230    0.0670 C   0  0  0  0  0  0  0  0  0  0  0  0
   -7.9280   -0.5120   -0.2150 C   0  0  0  0  0  0  0  0  0  0  0  0
   -8.0390   -1.9350   -0.5010 C   0  0  0  0  0  0  0  0  0  0  0  0
   -6.9520   -2.6720   -0.4830 C   0  0  0  0  0  0  0  0  0  0  0  0
   -5.6740   -2.0500   -0.1810 C   0  0  0  0  0  0  0  0  0  0  0  0
   -4.5900   -2.7200   -0.1510 O   0  0  0  0  0  0  0  0  0  0  0  0
   -2.8630   -0.8590    0.4510 S   0  0  0  0  0  0  0  0  0  0  0  0
  1  2  1  0
  2  3  1  0
  2 17  1  0
  3  4  2  0
  4  5  1  0
  4 16  1  0
  6  5  1  6
  6  7  2  0
  6  8  2  0
  6  9  1  0
  9 10  1  0
 10 11  2  0
 10 14  1  0
 11 12  1  0
 12 13  1  0
 13 14  2  0
 14 15  1  0
 16 17  2  0
 18 17  1  6
 18 19  1  0
 18 31  1  0
 20 19  1  1
 20 21  2  0
 20 22  2  0
 20 23  1  0
 23 24  2  3
 23 31  1  0
 24 25  1  0
 24 29  1  0
 25 26  2  0
 26 27  1  0
 27 28  2  0
 28 29  1  0
 29 30  2  0
M  END
