
     RDKit          3D

 31 33  0  0  0  0  0  0  0  0999 V2000
    9.4730    0.0150    0.0550 C   0  0  0  0  0  0  0  0  0  0  0  0
    8.2090   -0.1840   -0.2690 C   0  0  0  0  0  0  0  0  0  0  0  0
    7.7450   -1.1660   -1.2330 C   0  0  0  0  0  0  0  0  0  0  0  0
    6.4700   -0.9210   -1.5470 C   0  0  0  0  0  0  0  0  0  0  0  0
    6.0260    0.2190   -0.8210 N   0  0  0  0  0  0  0  0  0  0  0  0
    4.8440    0.9900   -1.0450 C   0  0  0  0  0  0  0  0  0  0  0  0
    4.5670    1.9810   -0.3260 O   0  0  0  0  0  0  0  0  0  0  0  0
    3.8980    0.6540   -2.1320 C   0  0  0  0  0  0  0  0  0  0  0  0
    2.6100   -0.4790   -1.6170 S   0  0  0  0  0  0  0  0  0  0  0  0
    1.5540    0.3000   -0.4220 C   0  0  0  0  0  0  0  0  0  0  0  0
    1.8080    1.4940   -0.0810 O   0  0  0  0  0  0  0  0  0  0  0  0
    0.4500   -0.3940    0.1420 N   0  0  0  0  0  0  0  0  0  0  0  0
   -0.4280    0.1900    1.1100 C   0  0  0  0  0  0  0  0  0  0  0  0
   -1.8830   -0.1660    0.7290 C   0  0  2  0  0  0  0  0  0  0  0  0
   -2.7400    0.6780    1.6230 C   0  0  0  0  0  0  0  0  0  0  0  0
   -4.1420    0.5660    1.5440 N   0  0  0  0  0  0  0  0  0  0  0  0
   -4.9720   -0.5030    1.9290 C   0  0  0  0  0  0  0  0  0  0  0  0
   -4.4620   -1.5210    2.4480 O   0  0  0  0  0  0  0  0  0  0  0  0
   -6.7700   -0.4200    1.6840 S   0  0  0  0  0  0  0  0  0  0  0  0
   -7.1630    1.1440    0.9290 C   0  0  1  0  0  0  0  0  0  0  0  0
   -6.4950    1.2830   -0.7870 S   0  0  0  0  0  0  0  0  0  0  0  0
   -7.9700    0.6920   -1.5950 C   0  0  0  0  0  0  0  0  0  0  0  0
   -8.0580    0.1220   -3.2320 Cl  0  0  0  0  0  0  0  0  0  0  0  0
   -8.9370    0.7730   -0.7290 C   0  0  0  0  0  0  0  0  0  0  0  0
   -8.6000    1.2880    0.5780 C   0  0  0  0  0  0  0  0  0  0  0  0
   -9.3980    1.8340    1.4200 O   0  0  0  0  0  0  0  0  0  0  0  0
   -2.0850   -1.6170    0.7280 C   0  0  0  0  0  0  0  0  0  0  0  0
   -1.1450   -2.3100   -0.2670 C   0  0  0  0  0  0  0  0  0  0  0  0
    0.2110   -1.7410   -0.2800 C   0  0  0  0  0  0  0  0  0  0  0  0
    1.1500   -2.4890   -0.6770 O   0  0  0  0  0  0  0  0  0  0  0  0
    6.9940    0.5020    0.2350 C   0  0  0  0  0  0  0  0  0  0  0  0
  1  2  2  0
  2  3  1  0
  2 31  1  0
  3  4  2  0
  4  5  1  0
  5  6  1  0
  5 31  1  0
  6  7  2  0
  6  8  1  0
  8  9  1  0
  9 10  1  0
 10 11  2  0
 10 12  1  0
 12 13  1  0
 12 29  1  0
 13 14  1  0
 14 15  1  1
 14 27  1  0
 15 16  1  0
 16 17  1  0
 17 18  2  0
 17 19  1  0
 20 19  1  6
 20 21  1  0
 20 25  1  0
 21 22  1  0
 22 23  1  0
 22 24  2  0
 24 25  1  0
 25 26  2  0
 27 28  1  0
 28 29  1  0
 29 30  2  0
M  END
