
     RDKit          3D

 30 32  0  0  0  0  0  0  0  0999 V2000
   -3.1970   -4.4620   -0.1690 O   0  0  0  0  0  0  0  0  0  0  0  0
   -3.4720   -3.2290   -0.4240 C   0  0  0  0  0  0  0  0  0  0  0  0
   -2.5860   -2.4060   -1.1070 N   0  0  0  0  0  0  0  0  0  0  0  0
   -1.4000   -2.9610   -1.5290 O   0  0  0  0  0  0  0  0  0  0  0  0
   -2.7760   -1.0310   -1.4000 C   0  0  0  0  0  0  0  0  0  0  0  0
   -2.2470   -0.0600   -0.3920 C   0  0  1  0  0  0  0  0  0  0  0  0
   -2.7180   -0.0110    0.9680 C   0  0  0  0  0  0  0  0  0  0  0  0
   -4.0280    0.3140    1.4570 C   0  0  2  0  0  0  0  0  0  0  0  0
   -5.1960   -0.5130    1.0560 C   0  0  0  0  0  0  0  0  0  0  0  0
   -6.4080    0.3120    1.5420 C   0  0  0  0  0  0  0  0  0  0  0  0
   -6.0000    1.6930    1.1680 C   0  0  0  0  0  0  0  0  0  0  0  0
   -4.5170    1.7210    1.2880 C   0  0  0  0  0  0  0  0  0  0  0  0
   -0.7450   -0.2830   -0.3830 C   0  0  0  0  0  0  0  0  0  0  0  0
   -0.2830   -1.1460    0.4080 O   0  0  0  0  0  0  0  0  0  0  0  0
    0.1410    0.4350   -1.2260 N   0  0  0  0  0  0  0  0  0  0  0  0
   -0.2910    1.4680   -2.1390 C   0  0  0  0  0  0  0  0  0  0  0  0
    0.8400    1.5990   -3.1470 C   0  0  0  0  0  0  0  0  0  0  0  0
    2.0230    1.3780   -2.2500 C   0  0  0  0  0  0  0  0  0  0  0  0
    1.5720    0.2730   -1.3330 C   0  0  1  0  0  0  0  0  0  0  0  0
    2.2650    0.3010   -0.0480 C   0  0  0  0  0  0  0  0  0  0  0  0
    1.6530    0.4860    1.0160 O   0  0  0  0  0  0  0  0  0  0  0  0
    3.6760    0.1120   -0.0070 N   0  0  0  0  0  0  0  0  0  0  0  0
    4.4160    0.1230    1.1910 C   0  0  0  0  0  0  0  0  0  0  0  0
    3.7830    0.3070    2.2770 O   0  0  0  0  0  0  0  0  0  0  0  0
    5.8550   -0.0710    1.1760 C   0  0  0  0  0  0  0  0  0  0  0  0
    6.5990   -0.0460    0.0240 C   0  0  0  0  0  0  0  0  0  0  0  0
    7.9770   -0.2390    0.0400 C   0  0  0  0  0  0  0  0  0  0  0  0
    8.6400   -0.4610    1.2180 C   0  0  0  0  0  0  0  0  0  0  0  0
    7.9190   -0.4920    2.4050 C   0  0  0  0  0  0  0  0  0  0  0  0
    6.5600   -0.3000    2.3640 C   0  0  0  0  0  0  0  0  0  0  0  0
  1  2  2  0
  2  3  1  0
  3  4  1  0
  3  5  1  0
  6  5  1  6
  6  7  1  0
  6 13  1  0
  8  7  1  6
  8  9  1  0
  8 12  1  0
  9 10  1  0
 10 11  1  0
 11 12  1  0
 13 14  2  0
 13 15  1  0
 15 16  1  0
 15 19  1  0
 16 17  1  0
 17 18  1  0
 18 19  1  0
 19 20  1  1
 20 21  2  0
 20 22  1  0
 22 23  1  0
 23 24  2  0
 23 25  1  0
 25 26  2  0
 25 30  1  0
 26 27  1  0
 27 28  2  0
 28 29  1  0
 29 30  2  0
M  END
