
     RDKit          3D

 27 31  0  0  0  0  0  0  0  0999 V2000
    4.3690    0.9330   -1.0180 O   0  0  0  0  0  0  0  0  0  0  0  0
    4.3270   -0.0890   -0.3180 C   0  0  0  0  0  0  0  0  0  0  0  0
    3.1010   -0.7370   -0.0660 N   0  0  0  0  0  0  0  0  0  0  0  0
    1.8230   -0.3650   -0.5250 C   0  0  0  0  0  0  0  0  0  0  0  0
    1.5980    0.6880   -1.2550 C   0  0  0  0  0  0  0  0  0  0  0  0
    0.2100    1.0070   -1.6970 C   0  0  0  0  0  0  0  0  0  0  0  0
   -0.7750    0.6790   -0.6540 C   0  0  0  0  0  0  0  0  0  0  0  0
   -1.9250    1.2290   -0.2360 N   0  0  0  0  0  0  0  0  0  0  0  0
   -2.4430    0.5110    0.7700 C   0  0  0  0  0  0  0  0  0  0  0  0
   -3.6900    0.7610    1.5240 C   0  0  0  0  0  0  0  0  0  0  0  0
   -4.8910    0.1460    0.9180 C   0  0  0  0  0  0  0  0  0  0  0  0
   -5.4890   -1.0280    1.3270 C   0  0  0  0  0  0  0  0  0  0  0  0
   -6.5490   -1.2980    0.5440 N   0  0  0  0  0  0  0  0  0  0  0  0
   -6.6850   -0.3280   -0.3920 C   0  0  0  0  0  0  0  0  0  0  0  0
   -7.6020   -0.1410   -1.4140 C   0  0  0  0  0  0  0  0  0  0  0  0
   -7.4340    0.9870   -2.1840 C   0  0  0  0  0  0  0  0  0  0  0  0
   -6.4200    1.8880   -1.9700 C   0  0  0  0  0  0  0  0  0  0  0  0
   -5.5160    1.6900   -0.9530 C   0  0  0  0  0  0  0  0  0  0  0  0
   -5.6490    0.5660   -0.1520 C   0  0  0  0  0  0  0  0  0  0  0  0
   -1.5710   -0.5190    0.9730 N   0  0  0  0  0  0  0  0  0  0  0  0
   -0.5390   -0.4440    0.1160 C   0  0  0  0  0  0  0  0  0  0  0  0
    0.6950   -1.2750   -0.1210 C   0  0  0  0  0  0  0  0  0  0  0  0
    5.6200   -0.5860    0.2340 C   0  0  2  0  0  0  0  0  0  0  0  0
    5.6160   -0.4570    1.7550 C   0  0  0  0  0  0  0  0  0  0  0  0
    7.0770   -0.3740    2.0730 C   0  0  0  0  0  0  0  0  0  0  0  0
    7.6880    0.2420    0.8610 C   0  0  0  0  0  0  0  0  0  0  0  0
    6.7330    0.2090   -0.2170 N   0  0  0  0  0  0  0  0  0  0  0  0
  1  2  2  0
  2  3  1  0
 23  2  1  6
  3  4  1  0
  4  5  2  0
  4 22  1  0
  5  6  1  0
  6  7  1  0
  7  8  1  0
  7 21  2  0
  8  9  1  0
  9 10  1  0
  9 20  2  0
 10 11  1  0
 11 12  2  0
 11 19  1  0
 12 13  1  0
 13 14  1  0
 14 15  2  0
 14 19  1  0
 15 16  1  0
 16 17  2  0
 17 18  1  0
 18 19  2  0
 20 21  1  0
 21 22  1  0
 23 24  1  0
 23 27  1  0
 24 25  1  0
 25 26  1  0
 26 27  1  0
M  CHG  1  27   1
M  END
