
     RDKit          3D

 27 30  0  0  0  0  0  0  0  0999 V2000
   -4.1920   -2.0690    2.3290 O   0  0  0  0  0  0  0  0  0  0  0  0
   -3.1390   -1.6860    1.7500 C   0  0  0  0  0  0  0  0  0  0  0  0
   -1.9380   -2.2270    2.1370 C   0  0  0  0  0  0  0  0  0  0  0  0
   -0.7960   -1.7930    1.4900 C   0  0  0  0  0  0  0  0  0  0  0  0
   -0.9080   -0.8620    0.5100 C   0  0  0  0  0  0  0  0  0  0  0  0
    0.2650   -0.3600   -0.2150 C   0  0  0  0  0  0  0  0  0  0  0  0
    1.4810   -0.7810    0.0410 C   0  0  0  0  0  0  0  0  0  0  0  0
    2.6760   -0.2950   -0.6710 C   0  0  0  0  0  0  0  0  0  0  0  0
    3.8860   -0.7450   -0.3820 C   0  0  0  0  0  0  0  0  0  0  0  0
    5.0470   -0.2840   -1.0610 N   0  0  0  0  0  0  0  0  0  0  0  0
    6.1890    0.0540   -0.2990 C   0  0  0  0  0  0  0  0  0  0  0  0
    6.1760   -0.0620    1.0830 C   0  0  0  0  0  0  0  0  0  0  0  0
    7.2940    0.2700    1.8240 C   0  0  0  0  0  0  0  0  0  0  0  0
    8.4330    0.7210    1.1830 C   0  0  0  0  0  0  0  0  0  0  0  0
    8.4170    0.8260   -0.1960 C   0  0  0  0  0  0  0  0  0  0  0  0
    7.3230    0.5060   -0.9670 C   0  0  0  0  0  0  0  0  0  0  0  0
    2.4670    0.7030   -1.7070 C   0  0  0  0  0  0  0  0  0  0  0  0
    1.2270    1.1190   -1.9550 C   0  0  0  0  0  0  0  0  0  0  0  0
    0.1090    0.6220   -1.2430 N   0  0  0  0  0  0  0  0  0  0  0  0
   -2.1260   -0.3850    0.1940 N   0  0  0  0  0  0  0  0  0  0  0  0
   -3.2430   -0.7620    0.7760 N   0  0  0  0  0  0  0  0  0  0  0  0
   -4.5230   -0.2390    0.4200 C   0  0  2  0  0  0  0  0  0  0  0  0
   -4.7990   -0.3900   -1.0820 C   0  0  0  0  0  0  0  0  0  0  0  0
   -6.3160   -0.2490   -1.2240 C   0  0  0  0  0  0  0  0  0  0  0  0
   -6.8300    0.7660   -0.3390 N   0  0  0  0  0  0  0  0  0  0  0  0
   -5.8510    1.7890   -0.0300 C   0  0  0  0  0  0  0  0  0  0  0  0
   -4.6720    1.2320    0.7260 C   0  0  0  0  0  0  0  0  0  0  0  0
  1  2  2  0
  2  3  1  0
  2 21  1  0
  3  4  2  0
  4  5  1  0
  5  6  1  0
  5 20  2  0
  6  7  2  0
  6 19  1  0
  7  8  1  0
  8  9  2  3
  8 17  1  0
  9 10  1  0
 10 11  1  0
 11 12  2  0
 11 16  1  0
 12 13  1  0
 13 14  2  0
 14 15  1  0
 15 16  2  0
 17 18  2  0
 18 19  1  0
 20 21  1  0
 22 21  1  6
 22 23  1  0
 22 27  1  0
 23 24  1  0
 24 25  1  0
 25 26  1  0
 26 27  1  0
M  CHG  1  25   1
M  END
