
     RDKit          3D

 27 30  0  0  0  0  0  0  0  0999 V2000
    3.1440   -2.2020   -1.7030 C   0  0  0  0  0  0  0  0  0  0  0  0
    2.1150   -1.0950   -1.8080 C   0  0  0  0  0  0  0  0  0  0  0  0
    2.7220    0.2380   -1.4210 C   0  0  0  0  0  0  0  0  0  0  0  0
    3.2110    0.1310    0.0180 C   0  0  0  0  0  0  0  0  0  0  0  0
    3.7970    1.3700    0.5280 C   0  0  0  0  0  0  0  0  0  0  0  0
    5.1920    1.5190    0.4150 C   0  0  0  0  0  0  0  0  0  0  0  0
    5.7720    2.6610    0.8060 N   0  0  0  0  0  0  0  0  0  0  0  0
    5.0280    3.6680    1.3060 C   0  0  0  0  0  0  0  0  0  0  0  0
    5.5970    4.7450    1.6710 O   0  0  0  0  0  0  0  0  0  0  0  0
    3.7260    3.5570    1.4240 N   0  0  0  0  0  0  0  0  0  0  0  0
    3.0660    2.3910    1.0350 C   0  0  0  0  0  0  0  0  0  0  0  0
    1.8610    2.3880    1.2490 N   0  0  0  0  0  0  0  0  0  0  0  0
    0.7540    1.5920    1.1570 C   0  0  0  0  0  0  0  0  0  0  0  0
    0.3840    0.7440    2.2200 C   0  0  0  0  0  0  0  0  0  0  0  0
   -0.7290   -0.0380    2.1720 C   0  0  0  0  0  0  0  0  0  0  0  0
   -1.5550   -0.0280    1.0530 C   0  0  0  0  0  0  0  0  0  0  0  0
   -1.2270    0.7820    0.0030 C   0  0  0  0  0  0  0  0  0  0  0  0
   -0.1060    1.5660    0.0600 C   0  0  0  0  0  0  0  0  0  0  0  0
   -2.2150    0.5930   -0.9650 C   0  0  0  0  0  0  0  0  0  0  0  0
   -2.3230    1.2380   -2.2930 C   0  0  0  0  0  0  0  0  0  0  0  0
   -3.0870   -0.3300   -0.4320 C   0  0  0  0  0  0  0  0  0  0  0  0
   -2.6930   -0.7060    0.7830 N   0  0  0  0  0  0  0  0  0  0  0  0
   -3.3440   -1.6550    1.6600 C   0  0  0  0  0  0  0  0  0  0  0  0
   -3.8100   -2.8970    0.9700 C   0  0  0  0  0  0  0  0  0  0  0  0
   -4.9860   -2.7450    0.1850 N   0  0  0  0  0  0  0  0  0  0  0  0
   -5.2920   -1.3790   -0.1700 C   0  0  0  0  0  0  0  0  0  0  0  0
   -4.2980   -0.8120   -1.1560 C   0  0  0  0  0  0  0  0  0  0  0  0
  1  2  1  0
  2  3  1  0
  3  4  1  0
  4  5  1  0
  5  6  2  0
  5 11  1  0
  6  7  1  0
  7  8  1  0
  8  9  2  0
  8 10  1  0
 10 11  1  0
 11 12  2  3
 12 13  1  0
 13 14  2  0
 13 18  1  0
 14 15  1  0
 15 16  2  0
 16 17  1  0
 16 22  1  0
 17 18  2  0
 17 19  1  0
 19 20  1  0
 19 21  2  0
 21 22  1  0
 21 27  1  0
 22 23  1  0
 23 24  1  0
 24 25  1  0
 25 26  1  0
 26 27  1  0
M  CHG  1  25   1
M  END
