
     RDKit          3D

 27 30  0  0  0  0  0  0  0  0999 V2000
    4.7550   -0.3610    2.6030 O   0  0  0  0  0  0  0  0  0  0  0  0
    5.7530   -0.7770    1.9630 C   0  0  0  0  0  0  0  0  0  0  0  0
    6.6830   -1.7300    2.3600 C   0  0  0  0  0  0  0  0  0  0  0  0
    7.5850   -1.8430    1.3210 C   0  0  0  0  0  0  0  0  0  0  0  0
    7.2010   -0.9910    0.3540 N   0  0  0  0  0  0  0  0  0  0  0  0
    6.1010   -0.3520    0.7410 N   0  0  0  0  0  0  0  0  0  0  0  0
    5.4560    0.6220   -0.0790 C   0  0  0  0  0  0  0  0  0  0  0  0
    4.2750    0.4270   -0.6030 C   0  0  0  0  0  0  0  0  0  0  0  0
    3.5780   -0.8210   -0.3510 C   0  0  0  0  0  0  0  0  0  0  0  0
    2.3880   -0.9700   -0.9060 C   0  0  0  0  0  0  0  0  0  0  0  0
    1.7630    0.0480   -1.7420 C   0  0  0  0  0  0  0  0  0  0  0  0
    0.4590   -0.1860   -2.3270 N   0  0  0  0  0  0  0  0  0  0  0  0
   -0.5150    0.8340   -2.4680 C   0  0  0  0  0  0  0  0  0  0  0  0
   -1.1380    1.3410   -1.1990 C   0  0  2  0  0  0  0  0  0  0  0  0
   -0.1170    1.9490   -0.2830 C   0  0  0  0  0  0  0  0  0  0  0  0
   -0.8760    2.7690    0.7770 C   0  0  0  0  0  0  0  0  0  0  0  0
   -2.2100    2.0840    0.9450 C   0  0  0  0  0  0  0  0  0  0  0  0
   -1.9440    0.6520    0.9020 N   0  0  0  0  0  0  0  0  0  0  0  0
   -1.7570    0.1450   -0.4150 C   0  0  1  0  0  0  0  0  0  0  0  0
   -2.9910   -0.2350   -1.1710 C   0  0  0  0  0  0  0  0  0  0  0  0
   -3.7930   -1.3600   -0.7040 C   0  0  0  0  0  0  0  0  0  0  0  0
   -4.4190   -1.4120    0.6090 C   0  0  1  0  0  0  0  0  0  0  0  0
   -5.3950   -0.4130    1.0560 C   0  0  0  0  0  0  0  0  0  0  0  0
   -6.4960   -1.2200    0.3750 C   0  0  0  0  0  0  0  0  0  0  0  0
   -5.6060   -2.4270    0.6050 C   0  0  0  0  0  0  0  0  0  0  0  0
    2.3720    1.1500   -1.9680 N   0  0  0  0  0  0  0  0  0  0  0  0
    3.6590    1.4660   -1.4440 C   0  0  0  0  0  0  0  0  0  0  0  0
  1  2  2  0
  2  3  1  0
  2  6  1  0
  3  4  2  0
  4  5  1  0
  5  6  1  0
  6  7  1  0
  7  8  2  3
  8  9  1  0
  8 27  1  0
  9 10  2  0
 10 11  1  0
 11 12  1  0
 11 26  2  0
 12 13  1  0
 14 13  1  6
 14 15  1  0
 14 19  1  0
 15 16  1  0
 16 17  1  0
 17 18  1  0
 18 19  1  0
 19 20  1  6
 20 21  1  0
 22 21  1  6
 22 23  1  0
 22 25  1  0
 23 24  1  0
 24 25  1  0
 26 27  1  0
M  CHG  1  18   1
M  END
