
     RDKit          3D

 33 36  0  0  0  0  0  0  0  0999 V2000
   -2.0480    0.8820    2.0180 C   0  0  0  0  0  0  0  0  0  0  0  0
   -1.4050    1.5140    1.0210 C   0  0  0  0  0  0  0  0  0  0  0  0
    0.0100    1.2660    0.8320 C   0  0  0  0  0  0  0  0  0  0  0  0
    0.7070    1.8360   -0.1060 C   0  0  0  0  0  0  0  0  0  0  0  0
   -0.0430    2.9560   -1.2110 Cl  0  0  0  0  0  0  0  0  0  0  0  0
    2.1320    1.5540   -0.2600 C   0  0  0  0  0  0  0  0  0  0  0  0
    2.8230    2.1590   -1.2420 C   0  0  0  0  0  0  0  0  0  0  0  0
    2.1330    3.0210   -2.0540 F   0  0  0  0  0  0  0  0  0  0  0  0
    4.2340    1.9320   -1.4580 C   0  0  0  0  0  0  0  0  0  0  0  0
    4.8910    1.1010   -0.6720 C   0  0  0  0  0  0  0  0  0  0  0  0
    6.3380    0.8550   -0.8790 C   0  0  0  0  0  0  0  0  0  0  0  0
    6.7260   -0.4510   -0.2750 C   0  0  0  0  0  0  0  0  0  0  0  0
    5.7330   -1.4550   -0.2200 N   0  0  0  0  0  0  0  0  0  0  0  0
    5.8360   -2.4870   -1.1950 C   0  0  0  0  0  0  0  0  0  0  0  0
    7.0840   -3.1840   -1.0470 N   0  0  0  0  0  0  0  0  0  0  0  0
    4.4340   -1.0940    0.2090 C   0  0  0  0  0  0  0  0  0  0  0  0
    4.2380    0.3890    0.4400 C   0  0  2  0  0  0  0  0  0  0  0  0
    2.8330    0.6660    0.5760 N   0  0  0  0  0  0  0  0  0  0  0  0
   -2.0960    2.4020    0.1720 N   0  0  0  0  0  0  0  0  0  0  0  0
   -3.1940    1.8450   -1.0330 S   0  0  2  0  0  0  0  0  0  0  0  0
   -2.5120    0.8990   -1.9840 O   0  0  0  0  0  0  0  0  0  0  0  0
   -3.7420    3.0300   -1.7680 O   0  0  0  0  0  0  0  0  0  0  0  0
   -4.5210    0.9800   -0.2520 C   0  0  0  0  0  0  0  0  0  0  0  0
   -5.6990    1.5410    0.1780 C   0  0  0  0  0  0  0  0  0  0  0  0
   -6.1020    2.9910    0.0740 C   0  0  0  0  0  0  0  0  0  0  0  0
   -6.4230    0.5430    0.7090 N   0  0  0  0  0  0  0  0  0  0  0  0
   -5.7800   -0.6390    0.6500 C   0  0  0  0  0  0  0  0  0  0  0  0
   -6.0780   -1.9250    1.0450 C   0  0  0  0  0  0  0  0  0  0  0  0
   -7.3700   -2.2280    1.6980 C   0  0  0  0  0  0  0  0  0  0  0  0
   -5.1820   -2.9430    0.8370 C   0  0  0  0  0  0  0  0  0  0  0  0
   -3.9590   -2.7110    0.2280 C   0  0  0  0  0  0  0  0  0  0  0  0
   -3.6910   -1.4190   -0.1540 C   0  0  0  0  0  0  0  0  0  0  0  0
   -4.5570   -0.3610    0.0310 C   0  0  0  0  0  0  0  0  0  0  0  0
  1  2  2  0
  2  3  1  0
  2 19  1  0
  3  4  2  3
  4  5  1  0
  4  6  1  0
  6  7  2  0
  6 18  1  0
  7  8  1  0
  7  9  1  0
  9 10  2  0
 10 11  1  0
 10 17  1  0
 11 12  1  0
 12 13  1  0
 13 14  1  0
 13 16  1  0
 14 15  1  0
 17 16  1  6
 17 18  1  0
 20 19  1  1
 20 21  2  0
 20 22  2  0
 20 23  1  0
 23 24  2  0
 23 33  1  0
 24 25  1  0
 24 26  1  0
 26 27  1  0
 27 28  2  0
 27 33  1  0
 28 29  1  0
 28 30  1  0
 30 31  2  0
 31 32  1  0
 32 33  2  0
M  CHG  1  15   1
M  END
