
     RDKit          3D

 32 35  0  0  0  0  0  0  0  0999 V2000
   -0.3370   -1.0880    2.3690 C   0  0  0  0  0  0  0  0  0  0  0  0
   -1.3770   -0.4840    1.5560 N   0  0  0  0  0  0  0  0  0  0  0  0
   -0.9860    0.5190    0.5970 C   0  0  0  0  0  0  0  0  0  0  0  0
    0.3040    0.9370    0.5550 N   0  0  0  0  0  0  0  0  0  0  0  0
    0.7640    1.9010   -0.2420 C   0  0  0  0  0  0  0  0  0  0  0  0
    2.1850    2.3260   -0.2540 C   0  0  1  0  0  0  0  0  0  0  0  0
    2.4520    2.9320    1.1310 C   0  0  0  0  0  0  0  0  0  0  0  0
    2.2800    1.8200    2.0790 N   0  0  0  0  0  0  0  0  0  0  0  0
    3.6190    1.3070    2.3280 C   0  0  0  0  0  0  0  0  0  0  0  0
    4.0870    0.5890    1.1050 C   0  0  0  0  0  0  0  0  0  0  0  0
    5.0770   -0.2650    1.1780 C   0  0  0  0  0  0  0  0  0  0  0  0
    5.6070   -1.0150    0.0510 C   0  0  0  0  0  0  0  0  0  0  0  0
    6.9940   -1.1750   -0.0330 C   0  0  0  0  0  0  0  0  0  0  0  0
    7.5580   -1.8810   -1.0730 C   0  0  0  0  0  0  0  0  0  0  0  0
    6.7960   -2.4580   -2.0670 C   0  0  0  0  0  0  0  0  0  0  0  0
    7.3590   -3.1560   -3.0950 F   0  0  0  0  0  0  0  0  0  0  0  0
    5.4330   -2.2960   -1.9770 C   0  0  0  0  0  0  0  0  0  0  0  0
    4.8550   -1.5840   -0.9300 C   0  0  0  0  0  0  0  0  0  0  0  0
    3.2870    0.9200   -0.4540 S   0  0  0  0  0  0  0  0  0  0  0  0
   -0.1330    2.4960   -1.0620 N   0  0  0  0  0  0  0  0  0  0  0  0
   -1.4240    2.1330   -1.0750 C   0  0  0  0  0  0  0  0  0  0  0  0
   -2.2680    2.6960   -1.8500 O   0  0  0  0  0  0  0  0  0  0  0  0
   -1.8840    1.1260   -0.2390 C   0  0  0  0  0  0  0  0  0  0  0  0
   -3.2720    0.6810   -0.3050 C   0  0  0  0  0  0  0  0  0  0  0  0
   -3.5250   -0.5760   -0.6200 C   0  0  0  0  0  0  0  0  0  0  0  0
   -2.3130   -1.7730   -0.9770 Cl  0  0  0  0  0  0  0  0  0  0  0  0
   -4.9890   -0.9330   -0.6530 C   0  0  2  0  0  0  0  0  0  0  0  0
   -5.1100   -2.2730   -1.1390 N   0  0  0  0  0  0  0  0  0  0  0  0
   -5.6810   -3.1350   -0.1090 C   0  0  0  0  0  0  0  0  0  0  0  0
   -5.7260    0.0710   -1.5060 C   0  0  0  0  0  0  0  0  0  0  0  0
   -5.3600    1.4850   -1.1940 C   0  0  0  0  0  0  0  0  0  0  0  0
   -4.4110    1.5880   -0.0290 C   0  0  0  0  0  0  0  0  0  0  0  0
  1  2  1  0
  2  3  1  0
  3  4  1  0
  3 23  2  0
  4  5  2  0
  6  5  1  1
  5 20  1  0
  6  7  1  0
  6 19  1  0
  7  8  1  0
  8  9  1  0
  9 10  1  0
 10 11  2  3
 10 19  1  0
 11 12  1  0
 12 13  2  0
 12 18  1  0
 13 14  1  0
 14 15  2  0
 15 16  1  0
 15 17  1  0
 17 18  2  0
 20 21  1  0
 21 22  2  0
 21 23  1  0
 23 24  1  0
 24 25  2  0
 24 32  1  0
 25 26  1  0
 25 27  1  0
 27 28  1  6
 27 30  1  0
 28 29  1  0
 30 31  1  0
 31 32  1  0
M  CHG  1  28   1
M  END
