
     RDKit          3D

 33 36  0  0  0  0  0  0  0  0999 V2000
    8.8500   -0.4970    1.4070 C   0  0  0  0  0  0  0  0  0  0  0  0
    8.1490   -1.6250    0.7950 N   0  0  0  0  0  0  0  0  0  0  0  0
    6.9520   -1.1760    0.1440 C   0  0  0  0  0  0  0  0  0  0  0  0
    6.6390   -1.9920   -1.0980 C   0  0  0  0  0  0  0  0  0  0  0  0
    5.3990   -1.5050   -1.7470 C   0  0  0  0  0  0  0  0  0  0  0  0
    4.9920   -2.1330   -2.8660 F   0  0  0  0  0  0  0  0  0  0  0  0
    4.7030   -0.4910   -1.2620 C   0  0  0  0  0  0  0  0  0  0  0  0
    3.4900   -0.0110   -1.8930 C   0  0  0  0  0  0  0  0  0  0  0  0
    2.8950   -0.7700   -3.3460 Cl  0  0  0  0  0  0  0  0  0  0  0  0
    2.8190    1.0160   -1.3680 C   0  0  0  0  0  0  0  0  0  0  0  0
    3.1870    1.7540   -0.1610 C   0  0  0  0  0  0  0  0  0  0  0  0
    2.3280    2.6630    0.0470 N   0  0  0  0  0  0  0  0  0  0  0  0
    1.2820    2.6800   -0.9520 C   0  0  2  0  0  0  0  0  0  0  0  0
   -0.0290    2.4200   -0.2530 C   0  0  0  0  0  0  0  0  0  0  0  0
   -0.2070    3.1200    0.9160 C   0  0  0  0  0  0  0  0  0  0  0  0
   -1.4080    2.8950    1.5740 C   0  0  0  0  0  0  0  0  0  0  0  0
   -2.3330    2.0040    1.0310 C   0  0  0  0  0  0  0  0  0  0  0  0
   -3.9580    1.5030    1.6350 S   0  0  0  0  0  0  0  0  0  0  0  0
   -4.2680    0.3650    0.2250 C   0  0  0  0  0  0  0  0  0  0  0  0
   -5.5040   -0.4220    0.0910 C   0  0  1  0  0  0  0  0  0  0  0  0
   -6.1810   -0.4500    1.3280 N   0  0  0  0  0  0  0  0  0  0  0  0
   -7.3680   -1.2180    1.5570 C   0  0  0  0  0  0  0  0  0  0  0  0
   -8.0670   -1.2380    2.8600 C   0  0  0  0  0  0  0  0  0  0  0  0
   -7.7580   -1.8720    0.5540 O   0  0  0  0  0  0  0  0  0  0  0  0
   -6.2750    0.0700   -1.0850 C   0  0  0  0  0  0  0  0  0  0  0  0
   -5.8510   -0.7540   -2.2540 C   0  0  0  0  0  0  0  0  0  0  0  0
   -5.0250   -1.8020   -1.7060 N   0  0  0  0  0  0  0  0  0  0  0  0
   -5.1920   -1.8210   -0.2960 C   0  0  0  0  0  0  0  0  0  0  0  0
   -5.0860   -2.8410    0.4260 O   0  0  0  0  0  0  0  0  0  0  0  0
   -3.1580    0.4850   -0.5100 C   0  0  0  0  0  0  0  0  0  0  0  0
   -2.1700    1.3170   -0.1070 C   0  0  0  0  0  0  0  0  0  0  0  0
   -0.9460    1.5460   -0.7780 C   0  0  0  0  0  0  0  0  0  0  0  0
    1.6260    1.6170   -1.8400 N   0  0  0  0  0  0  0  0  0  0  0  0
  1  2  1  0
  2  3  1  0
  3  4  1  0
  4  5  1  0
  5  6  1  0
  5  7  2  3
  7  8  1  0
  8  9  1  0
  8 10  2  3
 10 11  1  0
 10 33  1  0
 11 12  2  0
 12 13  1  0
 13 14  1  1
 13 33  1  0
 14 15  2  0
 14 32  1  0
 15 16  1  0
 16 17  2  0
 17 18  1  0
 17 31  1  0
 18 19  1  0
 19 20  1  0
 19 30  2  0
 20 21  1  1
 20 25  1  0
 20 28  1  0
 21 22  1  0
 22 23  1  0
 22 24  2  0
 25 26  1  0
 26 27  1  0
 27 28  1  0
 28 29  2  0
 30 31  1  0
 31 32  2  0
M  CHG  1   2   1
M  END
