
     RDKit          3D

 33 36  0  0  0  0  0  0  0  0999 V2000
    4.2170   -2.6190   -0.5720 C   0  0  0  0  0  0  0  0  0  0  0  0
    4.4700   -1.2170   -0.9380 C   0  0  0  0  0  0  0  0  0  0  0  0
    3.3760   -0.4810   -0.8480 C   0  0  0  0  0  0  0  0  0  0  0  0
    2.2700   -1.2390   -0.4260 N   0  0  0  0  0  0  0  0  0  0  0  0
    1.8390   -1.4500    1.2330 S   0  0  1  0  0  0  0  0  0  0  0  0
    1.4780   -2.8960    1.4100 O   0  0  0  0  0  0  0  0  0  0  0  0
    3.1270   -1.2540    2.0250 O   0  0  0  0  0  0  0  0  0  0  0  0
    0.6830   -0.3740    1.8100 N   0  0  0  0  0  0  0  0  0  0  0  0
   -0.6770   -0.8290    1.7670 C   0  0  1  0  0  0  0  0  0  0  0  0
   -1.3620   -0.8520    3.0820 C   0  0  0  0  0  0  0  0  0  0  0  0
   -1.2220    0.5360    3.7000 C   0  0  0  0  0  0  0  0  0  0  0  0
   -2.1080    1.4150    2.8420 C   0  0  0  0  0  0  0  0  0  0  0  0
   -1.7550    1.3780    1.4000 C   0  0  2  0  0  0  0  0  0  0  0  0
   -2.8090    2.0760    0.6740 N   0  0  0  0  0  0  0  0  0  0  0  0
   -1.4660    0.0310    0.8180 C   0  0  2  0  0  0  0  0  0  0  0  0
   -2.5980   -0.6100    0.2270 N   0  0  0  0  0  0  0  0  0  0  0  0
   -3.4840   -1.3500    0.8590 N   0  0  0  0  0  0  0  0  0  0  0  0
   -4.4380   -1.8220    0.0480 C   0  0  0  0  0  0  0  0  0  0  0  0
   -4.1420   -1.3470   -1.2070 C   0  0  0  0  0  0  0  0  0  0  0  0
   -2.9930   -0.5980   -1.0580 C   0  0  0  0  0  0  0  0  0  0  0  0
   -2.4640    0.0330   -2.3090 C   0  0  0  0  0  0  0  0  0  0  0  0
   -3.5980    0.7990   -2.9390 C   0  0  0  0  0  0  0  0  0  0  0  0
   -4.8820    0.0240   -3.0280 C   0  0  0  0  0  0  0  0  0  0  0  0
   -4.6990   -1.4250   -2.5800 C   0  0  0  0  0  0  0  0  0  0  0  0
    3.1000    0.9240   -1.0960 C   0  0  0  0  0  0  0  0  0  0  0  0
    1.6570    1.1590   -1.3330 C   0  0  0  0  0  0  0  0  0  0  0  0
    3.8400    2.0310   -1.1650 C   0  0  0  0  0  0  0  0  0  0  0  0
    2.9220    3.4800   -1.5040 Cl  0  0  0  0  0  0  0  0  0  0  0  0
    5.2910    2.2680   -1.0140 C   0  0  0  0  0  0  0  0  0  0  0  0
    6.3760    1.5140   -1.0890 C   0  0  0  0  0  0  0  0  0  0  0  0
    6.6330    0.0920   -1.3600 C   0  0  0  0  0  0  0  0  0  0  0  0
    7.9030   -0.1070   -1.7420 F   0  0  0  0  0  0  0  0  0  0  0  0
    5.8770   -1.0110   -1.3020 C   0  0  0  0  0  0  0  0  0  0  0  0
  1  2  1  0
  2  3  2  0
  2 33  1  0
  3  4  1  0
  3 25  1  0
  5  4  1  6
  5  6  2  0
  5  7  2  0
  5  8  1  0
  9  8  1  1
  9 10  1  0
  9 15  1  0
 10 11  1  0
 11 12  1  0
 12 13  1  0
 13 14  1  6
 13 15  1  0
 15 16  1  1
 16 17  1  0
 16 20  1  0
 17 18  2  0
 18 19  1  0
 19 20  2  0
 19 24  1  0
 20 21  1  0
 21 22  1  0
 22 23  1  0
 23 24  1  0
 25 26  1  0
 25 27  2  0
 27 28  1  0
 27 29  1  0
 29 30  2  0
 30 31  1  0
 31 32  1  0
 31 33  2  0
M  CHG  1  14   1
M  END
