
     RDKit          3D

 33 36  0  0  0  0  0  0  0  0999 V2000
   -5.3830   -3.8650   -0.0300 C   0  0  0  0  0  0  0  0  0  0  0  0
   -5.2360   -2.4850   -0.1720 O   0  0  0  0  0  0  0  0  0  0  0  0
   -3.9550   -2.0690    0.1170 C   0  0  0  0  0  0  0  0  0  0  0  0
   -3.7950   -0.6050   -0.0540 C   0  0  0  0  0  0  0  0  0  0  0  0
   -2.6010    0.1180    0.1470 C   0  0  0  0  0  0  0  0  0  0  0  0
   -1.3720   -0.5230    0.5850 C   0  0  2  0  0  0  0  0  0  0  0  0
   -1.5510   -0.8710    2.0130 N   0  0  0  0  0  0  0  0  0  0  0  0
   -0.0880    0.1330    0.3520 C   0  0  2  0  0  0  0  0  0  0  0  0
    0.2320    1.4620    0.8990 C   0  0  0  0  0  0  0  0  0  0  0  0
    1.7610    1.5600    1.0000 C   0  0  0  0  0  0  0  0  0  0  0  0
    2.4220    0.6120    0.1930 N   0  0  0  0  0  0  0  0  0  0  0  0
    3.4750   -0.4600    1.0050 S   0  0  0  0  0  0  0  0  0  0  0  0
    3.0570   -1.9050    1.0040 O   0  0  0  0  0  0  0  0  0  0  0  0
    5.1360   -0.2540    0.3970 C   0  0  0  0  0  0  0  0  0  0  0  0
    5.6890   -1.2040   -0.4580 C   0  0  0  0  0  0  0  0  0  0  0  0
    6.9740   -0.9990   -0.9100 C   0  0  0  0  0  0  0  0  0  0  0  0
    7.6370   -1.9880   -1.8270 C   0  0  0  0  0  0  0  0  0  0  0  0
    7.6720    0.1190   -0.5150 C   0  0  0  0  0  0  0  0  0  0  0  0
    8.9300    0.3180   -0.9570 F   0  0  0  0  0  0  0  0  0  0  0  0
    7.1110    1.0640    0.3400 C   0  0  0  0  0  0  0  0  0  0  0  0
    7.9830    2.5050    0.8530 Cl  0  0  0  0  0  0  0  0  0  0  0  0
    5.8340    0.8700    0.7960 C   0  0  0  0  0  0  0  0  0  0  0  0
    5.1570    1.8320    1.7060 C   0  0  0  0  0  0  0  0  0  0  0  0
    1.8940    0.2420   -1.0490 C   0  0  0  0  0  0  0  0  0  0  0  0
    0.3770    0.1410   -1.1130 C   0  0  0  0  0  0  0  0  0  0  0  0
   -2.8730    1.3960   -0.1120 N   0  0  0  0  0  0  0  0  0  0  0  0
   -4.1730    1.5160   -0.4660 C   0  0  0  0  0  0  0  0  0  0  0  0
   -4.7660    0.2690   -0.4360 C   0  0  0  0  0  0  0  0  0  0  0  0
   -6.0900    0.3910   -0.8030 C   0  0  0  0  0  0  0  0  0  0  0  0
   -7.1650   -0.6070   -0.9500 C   0  0  0  0  0  0  0  0  0  0  0  0
   -6.2720    1.7170   -1.0470 N   0  0  0  0  0  0  0  0  0  0  0  0
   -5.1480    2.3720   -0.8490 N   0  0  0  0  0  0  0  0  0  0  0  0
   -4.9310    3.8070   -1.0030 C   0  0  0  0  0  0  0  0  0  0  0  0
  1  2  1  0
  2  3  1  0
  3  4  1  0
  4  5  2  0
  4 28  1  0
  5  6  1  0
  5 26  1  0
  6  7  1  1
  6  8  1  0
  8  9  1  6
  8 25  1  0
  9 10  1  0
 10 11  1  0
 12 11  1  6
 11 24  1  0
 12 13  2  0
 12 14  1  0
 14 15  2  0
 14 22  1  0
 15 16  1  0
 16 17  1  0
 16 18  2  0
 18 19  1  0
 18 20  1  0
 20 21  1  0
 20 22  2  0
 22 23  1  0
 24 25  1  0
 26 27  1  0
 27 28  2  0
 27 32  1  0
 28 29  1  0
 29 30  1  0
 29 31  2  0
 31 32  1  0
 32 33  1  0
M  CHG  1   7   1
M  END
