
     RDKit          3D

 32 34  0  0  0  0  0  0  0  0999 V2000
   -2.7710   -0.0710   -2.3660 C   0  0  0  0  0  0  0  0  0  0  0  0
   -2.9120   -0.9190   -1.1230 C   0  0  0  0  0  0  0  0  0  0  0  0
   -2.3850   -0.2120    0.1080 C   0  0  1  0  0  0  0  0  0  0  0  0
   -2.5410   -1.0850    1.3340 C   0  0  2  0  0  0  0  0  0  0  0  0
   -4.0860   -1.3260    1.4090 C   0  0  0  0  0  0  0  0  0  0  0  0
   -2.2960   -0.3290    2.4780 O   0  0  0  0  0  0  0  0  0  0  0  0
   -1.1210    0.4230   -0.0620 N   0  0  0  0  0  0  0  0  0  0  0  0
   -1.0770    1.8750    0.1440 C   0  0  0  0  0  0  0  0  0  0  0  0
   -2.0090    2.4260    0.7600 O   0  0  0  0  0  0  0  0  0  0  0  0
    0.0480    2.6720   -0.3680 C   0  0  1  0  0  0  0  0  0  0  0  0
   -0.1860    2.8310   -1.8840 C   0  0  0  0  0  0  0  0  0  0  0  0
   -0.0280    4.0520    0.2160 C   0  0  0  0  0  0  0  0  0  0  0  0
    0.0340    4.1010    1.6800 C   0  0  0  0  0  0  0  0  0  0  0  0
    0.1290    3.0890    2.4020 O   0  0  0  0  0  0  0  0  0  0  0  0
   -0.0190    5.3520    2.2810 O   0  0  0  0  0  0  0  0  0  0  0  0
    1.3790    2.0250   -0.1200 C   0  0  0  0  0  0  0  0  0  0  0  0
    1.2140    0.6320    0.3890 C   0  0  2  0  0  0  0  0  0  0  0  0
    2.4760   -0.1270    0.3770 C   0  0  0  0  0  0  0  0  0  0  0  0
    2.9890   -0.6300    1.5440 C   0  0  0  0  0  0  0  0  0  0  0  0
    4.1620   -1.3470    1.6070 C   0  0  0  0  0  0  0  0  0  0  0  0
    4.8470   -1.5680    0.4350 C   0  0  0  0  0  0  0  0  0  0  0  0
    4.3750   -1.0870   -0.7540 C   0  0  0  0  0  0  0  0  0  0  0  0
    5.2680   -1.3820   -2.2370 Cl  0  0  0  0  0  0  0  0  0  0  0  0
    3.1830   -0.3630   -0.7800 C   0  0  0  0  0  0  0  0  0  0  0  0
    0.1380   -0.0910   -0.4650 C   0  0  1  0  0  0  0  0  0  0  0  0
    0.3950   -1.5130   -0.4660 C   0  0  0  0  0  0  0  0  0  0  0  0
    0.4780   -2.2540    0.6720 C   0  0  0  0  0  0  0  0  0  0  0  0
    0.7250   -3.6080    0.6820 C   0  0  0  0  0  0  0  0  0  0  0  0
    0.9020   -4.2700   -0.5020 C   0  0  0  0  0  0  0  0  0  0  0  0
    1.2230   -6.0150   -0.5090 Cl  0  0  0  0  0  0  0  0  0  0  0  0
    0.8280   -3.5630   -1.6750 C   0  0  0  0  0  0  0  0  0  0  0  0
    0.5750   -2.1860   -1.6570 C   0  0  0  0  0  0  0  0  0  0  0  0
  1  2  1  0
  3  2  1  6
  3  4  1  0
  3  7  1  0
  4  5  1  1
  4  6  1  0
  7  8  1  0
  7 25  1  0
  8  9  2  0
  8 10  1  0
 10 11  1  6
 10 12  1  0
 10 16  1  0
 12 13  1  0
 13 14  2  0
 13 15  1  0
 16 17  1  0
 17 18  1  6
 17 25  1  0
 18 19  2  0
 18 24  1  0
 19 20  1  0
 20 21  2  0
 21 22  1  0
 22 23  1  0
 22 24  2  0
 25 26  1  1
 26 27  2  0
 26 32  1  0
 27 28  1  0
 28 29  2  0
 29 30  1  0
 29 31  1  0
 31 32  2  0
M  END
