
     RDKit          3D

  7  6  0  0  0  0  0  0  0  0999 V2000
   -1.8330   -0.9740    0.0860 N   0  0  0  0  0  0  0  0  0  0  0  0
   -1.4320    0.3540    0.3090 C   0  0  0  0  0  0  0  0  0  0  0  0
   -2.4390    1.3000    0.5180 O   0  0  0  0  0  0  0  0  0  0  0  0
   -0.1850    0.7630    0.3340 C   0  0  0  0  0  0  0  0  0  0  0  0
    0.9160   -0.1550    0.1270 C   0  0  0  0  0  0  0  0  0  0  0  0
    2.1610    0.2670    0.1540 C   0  0  0  0  0  0  0  0  0  0  0  0
    3.2490   -0.5850   -0.0410 O   0  0  0  0  0  0  0  0  0  0  0  0
  1  2  1  0
  2  3  1  0
  2  4  2  3
  4  5  1  0
  5  6  2  3
  6  7  1  0
M  END
