
     RDKit          3D

  7  6  0  0  0  0  0  0  0  0999 V2000
   -3.1590    0.3300   -0.3010 C   0  0  0  0  0  0  0  0  0  0  0  0
   -2.0230   -0.4040    0.3270 C   0  0  0  0  0  0  0  0  0  0  0  0
   -0.7810   -0.0510   -0.1960 O   0  0  0  0  0  0  0  0  0  0  0  0
    0.1700   -0.8110    0.4820 C   0  0  0  0  0  0  0  0  0  0  0  0
    1.5750   -0.5170    0.0010 C   0  0  0  0  0  0  0  0  0  0  0  0
    1.8310    0.8160    0.2190 O   0  0  0  0  0  0  0  0  0  0  0  0
    3.0620    1.1970   -0.1740 N   0  0  0  0  0  0  0  0  0  0  0  0
  1  2  1  0
  2  3  1  0
  3  4  1  0
  4  5  1  0
  5  6  1  0
  6  7  1  0
M  CHG  1   7   1
M  END
