
     RDKit          3D

  7  6  0  0  0  0  0  0  0  0999 V2000
   -0.4110   -1.8210   -1.2810 N   0  0  0  0  0  0  0  0  0  0  0  0
   -0.1950   -1.3530    0.0660 C   0  0  0  0  0  0  0  0  0  0  0  0
    0.2120    0.0500    0.1540 C   0  0  0  0  0  0  0  0  0  0  0  0
    1.3650    0.3660    0.7030 C   0  0  0  0  0  0  0  0  0  0  0  0
    1.7680    1.6950    0.7950 O   0  0  0  0  0  0  0  0  0  0  0  0
   -0.6540    1.1350   -0.3680 C   0  0  0  0  0  0  0  0  0  0  0  0
   -1.9010    1.1570    0.2700 O   0  0  0  0  0  0  0  0  0  0  0  0
  1  2  1  0
  2  3  1  0
  3  4  2  3
  3  6  1  0
  4  5  1  0
  6  7  1  0
M  END
