
     RDKit          3D

  7  6  0  0  0  0  0  0  0  0999 V2000
   -2.1650   -0.1810    0.2270 N   0  0  0  0  0  0  0  0  0  0  0  0
   -1.3250    0.6680   -0.5760 C   0  0  0  0  0  0  0  0  0  0  0  0
    0.1150    0.6300   -0.1610 C   0  0  0  0  0  0  0  0  0  0  0  0
    0.7180   -0.7520   -0.2540 C   0  0  0  0  0  0  0  0  0  0  0  0
    2.1370   -0.6550    0.1820 C   0  0  0  0  0  0  0  0  0  0  0  0
    2.8200   -1.7280    0.1730 O   0  0  0  0  0  0  0  0  0  0  0  0
    2.7150    0.5390    0.5840 O   0  0  0  0  0  0  0  0  0  0  0  0
  1  2  1  0
  2  3  1  0
  3  4  1  0
  4  5  1  0
  5  6  2  0
  5  7  1  0
M  CHG  1   1   1
M  END
