
     RDKit          3D

  7  6  0  0  0  0  0  0  0  0999 V2000
   -2.1740   -0.8180    0.2380 N   0  0  0  0  0  0  0  0  0  0  0  0
   -0.7710   -1.0690    0.2080 C   0  0  0  0  0  0  0  0  0  0  0  0
    0.0980   -0.1690   -0.2160 C   0  0  0  0  0  0  0  0  0  0  0  0
   -0.3910    1.1410   -0.6770 C   0  0  0  0  0  0  0  0  0  0  0  0
    0.1240    2.2040    0.0630 O   0  0  0  0  0  0  0  0  0  0  0  0
    1.5580   -0.5120   -0.2150 C   0  0  0  0  0  0  0  0  0  0  0  0
    2.2840    0.3660    0.5940 O   0  0  0  0  0  0  0  0  0  0  0  0
  1  2  1  0
  2  3  2  3
  3  4  1  0
  3  6  1  0
  4  5  1  0
  6  7  1  0
M  END
