
     RDKit          3D

 22 23  0  0  0  0  0  0  0  0999 V2000
   -7.3910   -0.6340   -1.7710 C   0  0  0  0  0  0  0  0  0  0  0  0
   -6.2540   -0.6450   -1.0860 C   0  0  0  0  0  0  0  0  0  0  0  0
   -5.5070   -1.8880   -0.8600 C   0  0  0  0  0  0  0  0  0  0  0  0
   -4.3790   -1.8680   -0.1730 C   0  0  0  0  0  0  0  0  0  0  0  0
   -3.8820   -0.6580    0.3480 N   0  0  0  0  0  0  0  0  0  0  0  0
   -2.6250   -0.6820    1.1090 C   0  0  0  0  0  0  0  0  0  0  0  0
   -1.4890   -1.0090    0.1760 C   0  0  0  0  0  0  0  0  0  0  0  0
   -0.1530   -1.0680    0.8330 C   0  0  0  0  0  0  0  0  0  0  0  0
    0.2700    0.2180    1.5050 C   0  0  2  0  0  0  0  0  0  0  0  0
    0.3360    1.3320    0.5180 C   0  0  0  0  0  0  0  0  0  0  0  0
    1.7240   -0.0890    2.4740 S   0  0  0  0  0  0  0  0  0  0  0  0
    3.2100   -0.5000    1.6040 C   0  0  0  0  0  0  0  0  0  0  0  0
    3.7240    0.6760    0.8650 C   0  0  0  0  0  0  0  0  0  0  0  0
    3.1870    1.8090    0.9260 O   0  0  0  0  0  0  0  0  0  0  0  0
    4.8750    0.5310    0.0470 N   0  0  0  0  0  0  0  0  0  0  0  0
    5.5990   -0.7110   -0.1300 C   0  0  0  0  0  0  0  0  0  0  0  0
    6.6610   -0.4120   -1.1590 C   0  0  0  0  0  0  0  0  0  0  0  0
    6.1520    0.8370   -1.8460 C   0  0  0  0  0  0  0  0  0  0  0  0
    5.4870    1.5830   -0.7130 C   0  0  0  0  0  0  0  0  0  0  0  0
   -4.5510    0.5570    0.1650 C   0  0  0  0  0  0  0  0  0  0  0  0
   -4.0570    1.8530    0.7040 C   0  0  0  0  0  0  0  0  0  0  0  0
   -5.6870    0.5740   -0.5200 C   0  0  0  0  0  0  0  0  0  0  0  0
  1  2  2  0
  2  3  1  0
  2 22  1  0
  3  4  2  0
  4  5  1  0
  5  6  1  0
  5 20  1  0
  6  7  1  0
  7  8  1  0
  8  9  1  0
  9 10  1  6
  9 11  1  0
 11 12  1  0
 12 13  1  0
 13 14  2  0
 13 15  1  0
 15 16  1  0
 15 19  1  0
 16 17  1  0
 17 18  1  0
 18 19  1  0
 20 21  1  0
 20 22  2  0
M  END
