
     RDKit          3D

 13 13  0  0  0  0  0  0  0  0999 V2000
   -4.1370    0.3820   -1.3140 C   0  0  0  0  0  0  0  0  0  0  0  0
   -2.8000    0.5250   -0.8990 O   0  0  0  0  0  0  0  0  0  0  0  0
   -2.1590   -0.4220   -0.0920 C   0  0  0  0  0  0  0  0  0  0  0  0
   -2.8000   -1.4200    0.2650 O   0  0  0  0  0  0  0  0  0  0  0  0
   -0.7540   -0.1320    0.2620 C   0  0  1  0  0  0  0  0  0  0  0  0
   -0.1860   -1.1080    1.0590 O   0  0  0  0  0  0  0  0  0  0  0  0
    1.1840   -0.7860    1.0030 C   0  0  0  0  0  0  0  0  0  0  0  0
    1.3140    0.0940   -0.2270 C   0  0  1  0  0  0  0  0  0  0  0  0
    1.3420    1.4200    0.1620 O   0  0  0  0  0  0  0  0  0  0  0  0
    2.7480   -0.3910   -1.2790 P   0  0  0  0  0  0  0  0  0  0  0  0
    3.8420   -1.3190   -0.3160 O   0  0  0  0  0  0  0  0  0  0  0  0
    3.5250    0.9550   -2.0070 O   0  0  0  0  0  0  0  0  0  0  0  0
    0.0880   -0.1400   -0.8550 O   0  0  0  0  0  0  0  0  0  0  0  0
  1  2  1  0
  2  3  1  0
  3  4  2  0
  5  3  1  6
  5  6  1  0
  5 13  1  0
  6  7  1  0
  7  8  1  0
  8  9  1  1
  8 10  1  0
  8 13  1  0
 10 11  1  0
 10 12  1  0
M  END
