
     RDKit          3D

 12 12  0  0  0  0  0  0  0  0999 V2000
   -1.3690   -1.9960    0.0310 N   0  0  0  0  0  0  0  0  0  0  0  0
   -0.6670   -0.7440   -0.0360 C   0  0  0  0  0  0  0  0  0  0  0  0
   -1.3620    0.3640   -0.2860 C   0  0  0  0  0  0  0  0  0  0  0  0
   -2.8170    0.2850   -0.4870 C   0  0  0  0  0  0  0  0  0  0  0  0
   -3.4680    1.0470    0.4570 O   0  0  0  0  0  0  0  0  0  0  0  0
   -0.6670    1.6300   -0.3550 C   0  0  0  0  0  0  0  0  0  0  0  0
    0.5880    1.7140   -0.1830 N   0  0  0  0  0  0  0  0  0  0  0  0
    1.4670    0.5940    0.0950 C   0  0  2  0  0  0  0  0  0  0  0  0
    2.0520    0.8330    1.3360 O   0  0  0  0  0  0  0  0  0  0  0  0
    2.4310    0.5740   -0.9040 O   0  0  0  0  0  0  0  0  0  0  0  0
    3.3210   -0.4100   -0.7830 N   0  0  0  0  0  0  0  0  0  0  0  0
    0.7210   -0.6560    0.1550 N   0  0  0  0  0  0  0  0  0  0  0  0
  1  2  1  0
  2  3  2  0
  2 12  1  0
  3  4  1  0
  3  6  1  0
  4  5  1  0
  6  7  2  0
  7  8  1  0
  8  9  1  1
  8 10  1  0
  8 12  1  0
 10 11  1  0
M  CHG  1  11   1
M  END
