
     RDKit          3D

 12 11  0  0  0  0  0  0  0  0999 V2000
   -3.3230    1.9570   -0.3730 N   0  0  0  0  0  0  0  0  0  0  0  0
   -2.2190    1.3720   -0.9420 O   0  0  0  0  0  0  0  0  0  0  0  0
   -1.4820    0.3880   -0.1960 C   0  0  0  0  0  0  0  0  0  0  0  0
   -0.2260    0.3400   -0.4740 C   0  0  0  0  0  0  0  0  0  0  0  0
    0.8780   -0.4420   -0.0160 C   0  0  0  0  0  0  0  0  0  0  0  0
    0.8060   -1.4410    0.9530 N   0  0  0  0  0  0  0  0  0  0  0  0
    2.0970   -0.2290   -0.5340 C   0  0  0  0  0  0  0  0  0  0  0  0
    3.1830   -0.9450   -0.1330 O   0  0  0  0  0  0  0  0  0  0  0  0
    4.4660   -0.5310   -0.2810 N   0  0  0  0  0  0  0  0  0  0  0  0
   -2.2050   -0.4080    0.7480 C   0  0  0  0  0  0  0  0  0  0  0  0
   -3.6340   -0.2190    0.9380 N   0  0  0  0  0  0  0  0  0  0  0  0
   -1.6750   -1.2870    1.4480 O   0  0  0  0  0  0  0  0  0  0  0  0
  1  2  1  0
  2  3  1  0
  3  4  2  3
  3 10  1  0
  4  5  1  0
  5  6  1  0
  5  7  2  3
  7  8  1  0
  8  9  1  0
 10 11  1  0
 10 12  2  0
M  CHG  1   9   1
M  END
