
     RDKit          3D

 12 11  0  0  0  0  0  0  0  0999 V2000
    3.6660    1.0470    0.2470 N   0  0  0  0  0  0  0  0  0  0  0  0
    2.3000    0.6660    0.1470 C   0  0  0  0  0  0  0  0  0  0  0  0
    1.3400    1.6550    0.2130 O   0  0  0  0  0  0  0  0  0  0  0  0
    1.9450   -0.5930   -0.0040 C   0  0  0  0  0  0  0  0  0  0  0  0
    2.9590   -1.5860   -0.0680 N   0  0  0  0  0  0  0  0  0  0  0  0
    0.5550   -0.9810   -0.1050 C   0  0  0  0  0  0  0  0  0  0  0  0
   -0.4200   -0.1280   -0.0540 N   0  0  0  0  0  0  0  0  0  0  0  0
   -1.8030   -0.5240   -0.1560 C   0  0  2  0  0  0  0  0  0  0  0  0
   -2.2450   -0.2110   -1.4210 O   0  0  0  0  0  0  0  0  0  0  0  0
   -2.6420    0.0940    0.9020 C   0  0  0  0  0  0  0  0  0  0  0  0
   -3.7440    0.8940    0.5020 N   0  0  0  0  0  0  0  0  0  0  0  0
   -2.3880   -0.0830    2.0790 O   0  0  0  0  0  0  0  0  0  0  0  0
  1  2  1  0
  2  3  1  0
  2  4  2  3
  4  5  1  0
  4  6  1  0
  6  7  2  3
  7  8  1  0
  8  9  1  6
  8 10  1  0
 10 11  1  0
 10 12  2  0
M  CHG  1  11   1
M  END
