
     RDKit          3D

 12 11  0  0  0  0  0  0  0  0999 V2000
    0.9870   -2.2730    0.6590 N   0  0  0  0  0  0  0  0  0  0  0  0
    1.1350   -0.9400    0.1830 C   0  0  0  0  0  0  0  0  0  0  0  0
    2.3470   -0.5250   -0.1040 C   0  0  0  0  0  0  0  0  0  0  0  0
    2.5750    0.8030   -0.5880 N   0  0  0  0  0  0  0  0  0  0  0  0
    2.2610    1.9250    0.1880 N   0  0  0  0  0  0  0  0  0  0  0  0
    2.0960    3.0370   -0.3530 O   0  0  0  0  0  0  0  0  0  0  0  0
   -0.0490   -0.1070    0.0370 C   0  0  0  0  0  0  0  0  0  0  0  0
   -1.2570   -0.5480    0.3330 C   0  0  0  0  0  0  0  0  0  0  0  0
   -1.4210   -1.8480    0.7990 O   0  0  0  0  0  0  0  0  0  0  0  0
   -2.4050    0.3250    0.1690 C   0  0  0  0  0  0  0  0  0  0  0  0
   -2.2690    1.6500   -0.3030 N   0  0  0  0  0  0  0  0  0  0  0  0
   -3.5550   -0.0990    0.4510 O   0  0  0  0  0  0  0  0  0  0  0  0
  1  2  1  0
  2  3  2  3
  2  7  1  0
  3  4  1  0
  4  5  1  0
  5  6  2  0
  7  8  2  3
  8  9  1  0
  8 10  1  0
 10 11  1  0
 10 12  2  0
M  CHG  1  11   1
M  END
