
     RDKit          3D

 15 16  0  0  0  0  0  0  0  0999 V2000
   -0.0670   -0.5070    2.9170 O   0  0  0  0  0  0  0  0  0  0  0  0
    0.1940   -1.0900    1.8480 C   0  0  0  0  0  0  0  0  0  0  0  0
    0.9050   -2.2630    1.6710 O   0  0  0  0  0  0  0  0  0  0  0  0
    1.1410   -2.4740    0.2730 C   0  0  0  0  0  0  0  0  0  0  0  0
    0.9270   -1.0440   -0.3390 C   0  0  2  0  0  0  0  0  0  0  0  0
    2.2230   -0.3470   -0.2030 C   0  0  0  0  0  0  0  0  0  0  0  0
    2.3120    1.0470   -0.7490 C   0  0  0  0  0  0  0  0  0  0  0  0
    3.6250    1.5550   -0.5440 O   0  0  0  0  0  0  0  0  0  0  0  0
   -0.2110   -0.6390    0.5020 C   0  0  1  0  0  0  0  0  0  0  0  0
   -1.2800   -1.5330    0.1420 O   0  0  0  0  0  0  0  0  0  0  0  0
   -0.7670    0.7110    0.4330 C   0  0  1  0  0  0  0  0  0  0  0  0
   -1.1090    1.1820   -0.9520 C   0  0  0  0  0  0  0  0  0  0  0  0
   -2.5060    0.7470   -1.2950 C   0  0  0  0  0  0  0  0  0  0  0  0
   -3.3670    1.4070   -0.2080 C   0  0  0  0  0  0  0  0  0  0  0  0
   -2.4420    0.7840    1.2350 S   0  0  0  0  0  0  0  0  0  0  0  0
  1  2  2  0
  2  3  1  0
  2  9  1  0
  3  4  1  0
  4  5  1  0
  5  6  1  1
  5  9  1  0
  6  7  1  0
  7  8  1  0
  9 10  1  6
  9 11  1  0
 11 12  1  6
 11 15  1  0
 12 13  1  0
 13 14  1  0
 14 15  1  0
M  END
