
     RDKit          3D

 19 22  0  0  0  0  0  0  0  0999 V2000
   -4.2980    0.5080    0.0500 C   0  0  0  0  0  0  0  0  0  0  0  0
   -2.8840   -0.0330    0.1130 C   0  0  1  0  0  0  0  0  0  0  0  0
   -2.6940   -0.5960    1.4990 C   0  0  0  0  0  0  0  0  0  0  0  0
   -2.7690   -1.1020   -0.9510 C   0  0  0  0  0  0  0  0  0  0  0  0
   -1.9080    1.0300   -0.1780 C   0  0  0  0  0  0  0  0  0  0  0  0
   -2.2220    2.3160   -0.4620 N   0  0  0  0  0  0  0  0  0  0  0  0
   -1.1330    3.0300   -0.6770 N   0  0  0  0  0  0  0  0  0  0  0  0
   -0.0880    2.2250   -0.5370 C   0  0  0  0  0  0  0  0  0  0  0  0
    1.2410    2.1690   -0.5830 N   0  0  0  0  0  0  0  0  0  0  0  0
    1.6080    0.9240   -0.3110 N   0  0  0  0  0  0  0  0  0  0  0  0
    0.5630    0.1370   -0.0810 C   0  0  0  0  0  0  0  0  0  0  0  0
   -0.5520    0.9670   -0.2240 C   0  0  0  0  0  0  0  0  0  0  0  0
    0.6410   -1.2380    0.2340 N   0  0  0  0  0  0  0  0  0  0  0  0
    1.9030   -1.9080    0.3330 C   0  0  0  0  0  0  0  0  0  0  0  0
    3.0540   -1.0130    0.0740 C   0  0  0  0  0  0  0  0  0  0  0  0
    4.3770   -1.2930    0.0790 C   0  0  0  0  0  0  0  0  0  0  0  0
    5.1410   -0.0850   -0.2350 C   0  0  0  0  0  0  0  0  0  0  0  0
    4.1350    0.9590   -0.4320 C   0  0  0  0  0  0  0  0  0  0  0  0
    2.9400    0.3990   -0.2490 C   0  0  0  0  0  0  0  0  0  0  0  0
  2  1  1  1
  2  3  1  0
  2  4  1  0
  2  5  1  0
  5  6  2  0
  5 12  1  0
  6  7  1  0
  7  8  1  0
  8  9  2  0
  8 12  1  0
  9 10  1  0
 10 11  1  0
 10 19  1  0
 11 12  2  0
 11 13  1  0
 13 14  1  0
 14 15  1  0
 15 16  2  0
 15 19  1  0
 16 17  1  0
 17 18  1  0
 18 19  2  0
M  END
