
     RDKit          3D

 19 21  0  0  0  0  0  0  0  0999 V2000
   -5.1250    1.4580   -0.0980 C   0  0  0  0  0  0  0  0  0  0  0  0
   -4.1070    0.6650    0.0510 C   0  0  0  0  0  0  0  0  0  0  0  0
   -3.7070    0.5160    1.4610 C   0  0  0  0  0  0  0  0  0  0  0  0
   -2.5750    0.1030    2.0090 C   0  0  0  0  0  0  0  0  0  0  0  0
   -1.2390   -0.3810    1.6760 C   0  0  0  0  0  0  0  0  0  0  0  0
   -0.8570   -0.3010    0.2490 C   0  0  1  0  0  0  0  0  0  0  0  0
    0.6140   -0.4890    0.1410 C   0  0  0  0  0  0  0  0  0  0  0  0
    1.5650    0.3310   -0.3250 N   0  0  0  0  0  0  0  0  0  0  0  0
    2.7730   -0.2490   -0.2340 C   0  0  0  0  0  0  0  0  0  0  0  0
    4.0740    0.2970   -0.6290 C   0  0  0  0  0  0  0  0  0  0  0  0
    5.2760   -0.3350   -0.5160 N   0  0  0  0  0  0  0  0  0  0  0  0
    6.2580    0.4600   -0.9750 C   0  0  0  0  0  0  0  0  0  0  0  0
    5.6500    1.6310   -1.3910 C   0  0  0  0  0  0  0  0  0  0  0  0
    4.3380    1.4940   -1.1660 N   0  0  0  0  0  0  0  0  0  0  0  0
    2.5760   -1.4660    0.3030 N   0  0  0  0  0  0  0  0  0  0  0  0
    1.2620   -1.6030    0.5280 N   0  0  0  0  0  0  0  0  0  0  0  0
   -1.5010   -1.3580   -0.6170 C   0  0  0  0  0  0  0  0  0  0  0  0
   -2.5480   -0.7040   -1.4470 C   0  0  0  0  0  0  0  0  0  0  0  0
   -3.5780    0.0920   -1.2050 C   0  0  0  0  0  0  0  0  0  0  0  0
  1  2  2  0
  2  3  1  0
  2 19  1  0
  3  4  2  0
  4  5  1  0
  5  6  1  0
  6  7  1  1
  6 17  1  0
  7  8  1  0
  7 16  2  0
  8  9  2  0
  9 10  1  0
  9 15  1  0
 10 11  2  0
 10 14  1  0
 11 12  1  0
 12 13  2  0
 13 14  1  0
 15 16  1  0
 17 18  1  0
 18 19  2  0
M  CHG  1  16   1
M  END
