
     RDKit          3D

 19 21  0  0  0  0  0  0  0  0999 V2000
    4.3940    1.2280    1.9560 C   0  0  0  0  0  0  0  0  0  0  0  0
    3.9690    0.5060    0.7080 C   0  0  0  0  0  0  0  0  0  0  0  0
    4.8890    0.0760   -0.1200 C   0  0  0  0  0  0  0  0  0  0  0  0
    4.5890   -0.6420   -1.3700 C   0  0  0  0  0  0  0  0  0  0  0  0
    3.1840   -0.8130   -1.5780 N   0  0  0  0  0  0  0  0  0  0  0  0
    2.2350   -0.3300   -0.6530 C   0  0  0  0  0  0  0  0  0  0  0  0
    0.7810   -0.5640   -0.9690 C   0  0  0  0  0  0  0  0  0  0  0  0
   -0.0120    0.0340    0.1650 C   0  0  0  0  0  0  0  0  0  0  0  0
   -1.4430   -0.1350   -0.0330 N   0  0  0  0  0  0  0  0  0  0  0  0
   -2.2410    1.0160   -0.2870 C   0  0  0  0  0  0  0  0  0  0  0  0
   -1.9240    2.2550   -0.7470 N   0  0  0  0  0  0  0  0  0  0  0  0
   -3.0560    2.9580   -0.7980 C   0  0  0  0  0  0  0  0  0  0  0  0
   -4.0960    2.2160   -0.3870 N   0  0  0  0  0  0  0  0  0  0  0  0
   -3.6210    1.0070   -0.0630 C   0  0  0  0  0  0  0  0  0  0  0  0
   -4.1820   -0.2750    0.4510 C   0  0  0  0  0  0  0  0  0  0  0  0
   -3.5000   -1.3820   -0.3350 C   0  0  0  0  0  0  0  0  0  0  0  0
   -2.0380   -1.4470    0.0250 C   0  0  2  0  0  0  0  0  0  0  0  0
   -1.8320   -2.1540    1.3300 C   0  0  0  0  0  0  0  0  0  0  0  0
    2.6000    0.2850    0.4130 N   0  0  0  0  0  0  0  0  0  0  0  0
  1  2  1  0
  2  3  2  0
  2 19  1  0
  3  4  1  0
  4  5  1  0
  5  6  1  0
  6  7  1  0
  6 19  2  0
  7  8  1  0
  8  9  1  0
  9 10  1  0
  9 17  1  0
 10 11  1  0
 10 14  2  0
 11 12  2  0
 12 13  1  0
 13 14  1  0
 14 15  1  0
 15 16  1  0
 16 17  1  0
 17 18  1  1
M  CHG  1  11   1
M  END
