
     RDKit          3D

 19 22  0  0  0  0  0  0  0  0999 V2000
    1.2530   -1.8030    1.4160 C   0  0  0  0  0  0  0  0  0  0  0  0
    2.5570   -1.6170    1.0350 C   0  0  0  0  0  0  0  0  0  0  0  0
    2.9480   -0.5280    0.2740 C   0  0  0  0  0  0  0  0  0  0  0  0
    1.9670    0.3670   -0.0870 C   0  0  0  0  0  0  0  0  0  0  0  0
    0.6910    0.1620    0.3010 N   0  0  0  0  0  0  0  0  0  0  0  0
    0.2780   -0.8740    1.0330 C   0  0  0  0  0  0  0  0  0  0  0  0
   -1.1460   -1.0620    1.4470 C   0  0  0  0  0  0  0  0  0  0  0  0
   -1.9910   -0.3990    0.5430 N   0  0  0  0  0  0  0  0  0  0  0  0
   -1.9950   -0.7800   -0.8140 C   0  0  0  0  0  0  0  0  0  0  0  0
   -2.5310    0.3870   -1.6420 C   0  0  0  0  0  0  0  0  0  0  0  0
   -3.9860    0.5570   -1.2250 C   0  0  0  0  0  0  0  0  0  0  0  0
   -4.0790    0.8430    0.2440 C   0  0  0  0  0  0  0  0  0  0  0  0
   -2.7470    0.7070    0.9570 C   0  0  0  0  0  0  0  0  0  0  0  0
    2.6330    1.4400   -0.8930 C   0  0  0  0  0  0  0  0  0  0  0  0
    4.0120    1.0580   -0.9350 N   0  0  0  0  0  0  0  0  0  0  0  0
    5.1790    1.4380   -1.4090 N   0  0  0  0  0  0  0  0  0  0  0  0
    6.1270    0.5790   -1.0640 N   0  0  0  0  0  0  0  0  0  0  0  0
    5.5760   -0.3950   -0.3430 C   0  0  0  0  0  0  0  0  0  0  0  0
    4.2320   -0.0910   -0.2600 C   0  0  0  0  0  0  0  0  0  0  0  0
  1  2  2  0
  1  6  1  0
  2  3  1  0
  3  4  2  0
  3 19  1  0
  4  5  1  0
  4 14  1  0
  5  6  2  0
  6  7  1  0
  7  8  1  0
  8  9  1  0
  8 13  1  0
  9 10  1  0
 10 11  1  0
 11 12  1  0
 12 13  1  0
 14 15  1  0
 15 16  1  0
 15 19  1  0
 16 17  2  0
 17 18  1  0
 18 19  2  0
M  CHG  1   5   1
M  END
