
     RDKit          3D

 19 22  0  0  0  0  0  0  0  0999 V2000
    3.2740   -2.2510   -1.2930 C   0  0  0  0  0  0  0  0  0  0  0  0
    2.7080   -1.0550   -0.5860 C   0  0  0  0  0  0  0  0  0  0  0  0
    1.4120   -0.8120   -0.6260 N   0  0  0  0  0  0  0  0  0  0  0  0
    0.8570    0.2400    0.0550 C   0  0  0  0  0  0  0  0  0  0  0  0
   -0.4960    0.6130    0.2130 C   0  0  0  0  0  0  0  0  0  0  0  0
   -1.6020   -0.0400   -0.5240 C   0  0  1  0  0  0  0  0  0  0  0  0
   -2.3770   -0.7700    0.6210 C   0  0  0  0  0  0  0  0  0  0  0  0
   -3.7020   -1.2620    0.1500 C   0  0  0  0  0  0  0  0  0  0  0  0
   -4.6010   -0.0650   -0.1800 C   0  0  0  0  0  0  0  0  0  0  0  0
   -3.7230    1.1650   -0.2400 C   0  0  0  0  0  0  0  0  0  0  0  0
   -2.5540    0.9400   -1.0860 N   0  0  0  0  0  0  0  0  0  0  0  0
   -0.4850    1.6830    1.0630 C   0  0  0  0  0  0  0  0  0  0  0  0
    0.8270    1.9310    1.3980 N   0  0  0  0  0  0  0  0  0  0  0  0
    1.6270    1.0480    0.7830 N   0  0  0  0  0  0  0  0  0  0  0  0
    2.9530    0.8040    0.8250 C   0  0  0  0  0  0  0  0  0  0  0  0
    3.9850    1.4290    1.4800 C   0  0  0  0  0  0  0  0  0  0  0  0
    5.1950    0.7740    1.2160 C   0  0  0  0  0  0  0  0  0  0  0  0
    4.8460   -0.2650    0.3760 C   0  0  0  0  0  0  0  0  0  0  0  0
    3.5070   -0.2310    0.1570 N   0  0  0  0  0  0  0  0  0  0  0  0
  1  2  1  0
  2  3  2  0
  2 19  1  0
  3  4  1  0
  4  5  2  0
  4 14  1  0
  6  5  1  1
  5 12  1  0
  6  7  1  0
  6 11  1  0
  7  8  1  0
  8  9  1  0
  9 10  1  0
 10 11  1  0
 12 13  2  0
 13 14  1  0
 14 15  1  0
 15 16  2  0
 15 19  1  0
 16 17  1  0
 17 18  2  0
 18 19  1  0
M  CHG  1  11   1
M  END
