
     RDKit          3D

 19 22  0  0  0  0  0  0  0  0999 V2000
   -0.6790   -0.6510    1.0260 C   0  0  0  0  0  0  0  0  0  0  0  0
    0.6830   -0.4930    0.8810 C   0  0  0  0  0  0  0  0  0  0  0  0
    1.1890   -0.0150   -0.3270 C   0  0  0  0  0  0  0  0  0  0  0  0
    2.6190    0.1800   -0.5610 C   0  0  2  0  0  0  0  0  0  0  0  0
    3.3480   -1.1320   -0.3870 C   0  0  0  0  0  0  0  0  0  0  0  0
    4.7450   -0.7320    0.0320 C   0  0  0  0  0  0  0  0  0  0  0  0
    4.7100    0.7230    0.3790 C   0  0  0  0  0  0  0  0  0  0  0  0
    3.2620    1.1540    0.3940 C   0  0  0  0  0  0  0  0  0  0  0  0
    0.3240    0.2780   -1.3150 N   0  0  0  0  0  0  0  0  0  0  0  0
   -1.0120    0.1190   -1.1620 C   0  0  0  0  0  0  0  0  0  0  0  0
   -1.5630   -0.3510    0.0120 C   0  0  0  0  0  0  0  0  0  0  0  0
   -2.9600   -0.5330    0.2150 N   0  0  0  0  0  0  0  0  0  0  0  0
   -3.5710   -1.6060    0.7200 N   0  0  0  0  0  0  0  0  0  0  0  0
   -4.8870   -1.4570    0.7780 C   0  0  0  0  0  0  0  0  0  0  0  0
   -5.1810   -0.2040    0.2800 C   0  0  0  0  0  0  0  0  0  0  0  0
   -6.1700    0.7140   -0.0140 C   0  0  0  0  0  0  0  0  0  0  0  0
   -5.5350    1.7710   -0.5140 N   0  0  0  0  0  0  0  0  0  0  0  0
   -4.2090    1.5520   -0.5430 N   0  0  0  0  0  0  0  0  0  0  0  0
   -3.9510    0.3300   -0.0560 C   0  0  0  0  0  0  0  0  0  0  0  0
  1  2  2  0
  1 11  1  0
  2  3  1  0
  4  3  1  1
  3  9  2  0
  4  5  1  0
  4  8  1  0
  5  6  1  0
  6  7  1  0
  7  8  1  0
  9 10  1  0
 10 11  2  0
 11 12  1  0
 12 13  1  0
 12 19  1  0
 13 14  2  0
 14 15  1  0
 15 16  1  0
 15 19  2  0
 16 17  2  0
 17 18  1  0
 18 19  1  0
M  CHG  1   9   1
M  END
