
     RDKit          3D

 23 25  0  0  0  0  0  0  0  0999 V2000
   -3.4840    2.5270   -2.2590 C   0  0  0  0  0  0  0  0  0  0  0  0
   -2.5780    0.9660   -2.0850 S   0  0  0  0  0  0  0  0  0  0  0  0
   -3.1620    0.0730   -0.6530 C   0  0  0  0  0  0  0  0  0  0  0  0
   -4.1970   -0.8320   -0.7440 C   0  0  0  0  0  0  0  0  0  0  0  0
   -4.6180   -1.5040    0.3840 C   0  0  0  0  0  0  0  0  0  0  0  0
   -4.0360   -1.3050    1.6190 C   0  0  0  0  0  0  0  0  0  0  0  0
   -4.5170   -2.0510    2.8270 C   0  0  0  0  0  0  0  0  0  0  0  0
   -3.0270   -0.4180    1.6840 N   0  0  0  0  0  0  0  0  0  0  0  0
   -2.5850    0.2600    0.6100 C   0  0  0  0  0  0  0  0  0  0  0  0
   -1.5570    1.1740    0.6430 O   0  0  0  0  0  0  0  0  0  0  0  0
   -0.2160    0.8510    0.5450 C   0  0  0  0  0  0  0  0  0  0  0  0
    0.2490   -0.4350    0.3990 C   0  0  0  0  0  0  0  0  0  0  0  0
    1.6160   -0.7290    0.3020 C   0  0  0  0  0  0  0  0  0  0  0  0
    2.5400    0.2860    0.3510 C   0  0  0  0  0  0  0  0  0  0  0  0
    3.9930    0.0710    0.2550 C   0  0  0  0  0  0  0  0  0  0  0  0
    4.5610   -1.1730    0.1080 C   0  0  0  0  0  0  0  0  0  0  0  0
    5.9440   -1.3120    0.0230 C   0  0  0  0  0  0  0  0  0  0  0  0
    6.7710   -0.2140    0.0840 C   0  0  0  0  0  0  0  0  0  0  0  0
    6.1740    1.0210    0.2310 C   0  0  0  0  0  0  0  0  0  0  0  0
    4.8460    1.1160    0.3090 N   0  0  0  0  0  0  0  0  0  0  0  0
    2.0670    1.5460    0.4950 N   0  0  0  0  0  0  0  0  0  0  0  0
    0.7600    1.8420    0.5890 C   0  0  0  0  0  0  0  0  0  0  0  0
    0.3570    3.0280    0.7230 O   0  0  0  0  0  0  0  0  0  0  0  0
  1  2  1  0
  2  3  1  0
  3  4  2  0
  3  9  1  0
  4  5  1  0
  5  6  2  0
  6  7  1  0
  6  8  1  0
  8  9  2  0
  9 10  1  0
 10 11  1  0
 11 12  2  0
 11 22  1  0
 12 13  1  0
 13 14  2  0
 14 15  1  0
 14 21  1  0
 15 16  2  0
 15 20  1  0
 16 17  1  0
 17 18  2  0
 18 19  1  0
 19 20  2  0
 21 22  1  0
 22 23  2  0
M  END
