
     RDKit          3D

 23 25  0  0  0  0  0  0  0  0999 V2000
    1.6000   -3.6150    2.5360 C   0  0  0  0  0  0  0  0  0  0  0  0
    1.5710   -2.3640    1.8850 O   0  0  0  0  0  0  0  0  0  0  0  0
    0.3820   -1.9240    1.3370 C   0  0  0  0  0  0  0  0  0  0  0  0
   -0.7530   -2.6860    1.4240 C   0  0  0  0  0  0  0  0  0  0  0  0
   -1.9380   -2.2660    0.8870 C   0  0  0  0  0  0  0  0  0  0  0  0
   -2.0210   -1.0360    0.2310 C   0  0  0  0  0  0  0  0  0  0  0  0
   -3.2700   -0.6260   -0.2820 N   0  0  0  0  0  0  0  0  0  0  0  0
   -3.4840    0.2580   -1.3520 C   0  0  0  0  0  0  0  0  0  0  0  0
   -2.5440    0.4340   -2.3390 C   0  0  0  0  0  0  0  0  0  0  0  0
   -2.7070    1.3200   -3.4050 C   0  0  0  0  0  0  0  0  0  0  0  0
   -3.8850    2.0330   -3.4320 C   0  0  0  0  0  0  0  0  0  0  0  0
   -4.8000    1.8620   -2.4730 N   0  0  0  0  0  0  0  0  0  0  0  0
   -4.6460    1.0140   -1.4510 C   0  0  0  0  0  0  0  0  0  0  0  0
   -0.8750   -0.2590    0.1420 C   0  0  0  0  0  0  0  0  0  0  0  0
    0.3170   -0.6830    0.6810 C   0  0  0  0  0  0  0  0  0  0  0  0
    1.5130    0.0580    0.6240 N   0  0  0  0  0  0  0  0  0  0  0  0
    1.7020    1.3170    0.0190 C   0  0  0  0  0  0  0  0  0  0  0  0
    0.7940    1.9080   -0.5380 O   0  0  0  0  0  0  0  0  0  0  0  0
    3.0120    1.9510    0.0490 C   0  0  0  0  0  0  0  0  0  0  0  0
    4.1830    1.5210    0.5940 C   0  0  0  0  0  0  0  0  0  0  0  0
    5.2760    2.2740    0.5020 C   0  0  0  0  0  0  0  0  0  0  0  0
    5.1740    3.4770   -0.1530 C   0  0  0  0  0  0  0  0  0  0  0  0
    3.4400    3.5070   -0.6450 S   0  0  0  0  0  0  0  0  0  0  0  0
  1  2  1  0
  2  3  1  0
  3  4  2  0
  3 15  1  0
  4  5  1  0
  5  6  2  0
  6  7  1  0
  6 14  1  0
  7  8  1  0
  8  9  2  0
  8 13  1  0
  9 10  1  0
 10 11  2  0
 11 12  1  0
 12 13  2  0
 14 15  2  0
 15 16  1  0
 16 17  1  0
 17 18  2  0
 17 19  1  0
 19 20  2  0
 19 23  1  0
 20 21  1  0
 21 22  2  0
 22 23  1  0
M  END
