
     RDKit          3D

 23 25  0  0  0  0  0  0  0  0999 V2000
   -5.0280   -2.4320   -0.1620 C   0  0  0  0  0  0  0  0  0  0  0  0
   -3.9170   -1.6490    0.4890 C   0  0  0  0  0  0  0  0  0  0  0  0
   -2.9770   -1.1540   -0.5620 C   0  0  0  0  0  0  0  0  0  0  0  0
   -1.8470   -0.3630    0.0600 C   0  0  0  0  0  0  0  0  0  0  0  0
   -0.9140    0.1210   -1.0500 C   0  0  0  0  0  0  0  0  0  0  0  0
    0.1350    0.8760   -0.4730 N   0  0  0  0  0  0  0  0  0  0  0  0
   -0.0890    2.2030   -0.0330 C   0  0  0  0  0  0  0  0  0  0  0  0
   -1.2870    2.8290   -0.1830 C   0  0  0  0  0  0  0  0  0  0  0  0
   -1.5450    4.1350    0.2280 C   0  0  0  0  0  0  0  0  0  0  0  0
   -0.5500    4.8570    0.8220 C   0  0  0  0  0  0  0  0  0  0  0  0
    0.6790    4.2560    0.9910 C   0  0  0  0  0  0  0  0  0  0  0  0
    0.9100    2.9610    0.5750 C   0  0  0  0  0  0  0  0  0  0  0  0
    2.1910    2.4010    0.7620 N   0  0  0  0  0  0  0  0  0  0  0  0
    2.4640    1.0540    0.3280 C   0  0  0  0  0  0  0  0  0  0  0  0
    3.7260    0.5270    0.5260 C   0  0  0  0  0  0  0  0  0  0  0  0
    3.9700   -0.7570    0.1110 C   0  0  0  0  0  0  0  0  0  0  0  0
    2.9980   -1.5260   -0.4900 C   0  0  0  0  0  0  0  0  0  0  0  0
    3.2900   -2.8580   -0.9070 N   0  0  0  0  0  0  0  0  0  0  0  0
    4.1520   -3.9200    0.1300 S   0  0  1  0  0  0  0  0  0  0  0  0
    3.9330   -3.5130    1.5490 O   0  0  0  0  0  0  0  0  0  0  0  0
    3.7700   -5.3550   -0.0890 O   0  0  0  0  0  0  0  0  0  0  0  0
    1.7470   -0.9660   -0.6720 C   0  0  0  0  0  0  0  0  0  0  0  0
    1.4420    0.3210   -0.2760 C   0  0  0  0  0  0  0  0  0  0  0  0
  1  2  1  0
  2  3  1  0
  3  4  1  0
  4  5  1  0
  5  6  1  0
  6  7  1  0
  6 23  1  0
  7  8  2  0
  7 12  1  0
  8  9  1  0
  9 10  2  0
 10 11  1  0
 11 12  2  0
 12 13  1  0
 13 14  1  0
 14 15  2  0
 14 23  1  0
 15 16  1  0
 16 17  2  0
 17 18  1  0
 17 22  1  0
 19 18  1  6
 19 20  2  0
 19 21  2  0
 22 23  2  0
M  END
