
     RDKit          3D

 12 11  0  0  0  0  0  0  0  0999 V2000
   -1.4890   -1.2030   -0.6140 O   0  0  0  0  0  0  0  0  0  0  0  0
   -2.0270   -0.0980   -0.3780 C   0  0  0  0  0  0  0  0  0  0  0  0
   -1.4480    1.0390   -0.8470 O   0  0  0  0  0  0  0  0  0  0  0  0
   -0.2720    1.1790   -1.5930 C   0  0  0  0  0  0  0  0  0  0  0  0
    0.9880    0.7340   -0.9490 C   0  0  0  0  0  0  0  0  0  0  0  0
    0.9910   -0.5860   -0.6160 O   0  0  0  0  0  0  0  0  0  0  0  0
    2.1340   -1.0420   -0.0190 C   0  0  0  0  0  0  0  0  0  0  0  0
    2.4780   -0.3550    1.2740 C   0  0  0  0  0  0  0  0  0  0  0  0
    3.6690   -0.9280    1.7630 O   0  0  0  0  0  0  0  0  0  0  0  0
   -3.3030   -0.0990    0.4240 C   0  0  2  0  0  0  0  0  0  0  0  0
   -3.7690    1.1850    0.5980 O   0  0  0  0  0  0  0  0  0  0  0  0
   -3.1850   -0.8230    1.5850 O   0  0  0  0  0  0  0  0  0  0  0  0
  1  2  2  0
  2  3  1  0
  2 10  1  0
  3  4  1  0
  4  5  1  0
  5  6  1  0
  6  7  1  0
  7  8  1  0
  8  9  1  0
 10 11  1  1
 10 12  1  0
M  END
