
     RDKit          3D

 12 11  0  0  0  0  0  0  0  0999 V2000
   -1.1900    1.4210   -0.7900 C   0  0  0  0  0  0  0  0  0  0  0  0
   -1.5550    0.2500    0.1010 C   0  0  1  0  0  0  0  0  0  0  0  0
   -1.6310    0.7310    1.4050 O   0  0  0  0  0  0  0  0  0  0  0  0
   -2.9000   -0.2660   -0.3780 C   0  0  0  0  0  0  0  0  0  0  0  0
   -3.3040   -1.3000    0.4620 O   0  0  0  0  0  0  0  0  0  0  0  0
   -0.6530   -0.7860    0.0150 O   0  0  0  0  0  0  0  0  0  0  0  0
    0.6200   -0.3540    0.4010 C   0  0  0  0  0  0  0  0  0  0  0  0
    1.6240   -1.4660    0.3160 C   0  0  0  0  0  0  0  0  0  0  0  0
    2.8810   -0.9830    0.7140 O   0  0  0  0  0  0  0  0  0  0  0  0
    3.5710    0.0300    0.0820 C   0  0  0  0  0  0  0  0  0  0  0  0
    3.0870    0.5850   -0.9190 O   0  0  0  0  0  0  0  0  0  0  0  0
    4.8320    0.4530    0.5570 O   0  0  0  0  0  0  0  0  0  0  0  0
  2  1  1  6
  2  3  1  0
  2  4  1  0
  2  6  1  0
  4  5  1  0
  6  7  1  0
  7  8  1  0
  8  9  1  0
  9 10  1  0
 10 11  2  0
 10 12  1  0
M  END
