
     RDKit          3D

 12 11  0  0  0  0  0  0  0  0999 V2000
    2.8980    1.0040    0.2570 O   0  0  0  0  0  0  0  0  0  0  0  0
    2.2170    0.5380   -0.8750 C   0  0  0  0  0  0  0  0  0  0  0  0
    1.7180   -0.8660   -0.6950 C   0  0  0  0  0  0  0  0  0  0  0  0
    0.8610   -1.0910    0.3210 O   0  0  0  0  0  0  0  0  0  0  0  0
   -0.3400   -0.4010    0.3470 C   0  0  1  0  0  0  0  0  0  0  0  0
   -1.2480   -0.8550   -0.7800 C   0  0  0  0  0  0  0  0  0  0  0  0
   -0.7440   -0.6130   -2.0330 O   0  0  0  0  0  0  0  0  0  0  0  0
   -1.0770   -0.8890    1.6200 C   0  0  0  0  0  0  0  0  0  0  0  0
   -0.3410   -0.6220    2.7520 O   0  0  0  0  0  0  0  0  0  0  0  0
   -0.1110    0.9390    0.4040 O   0  0  0  0  0  0  0  0  0  0  0  0
   -1.1520    1.8010    0.4370 C   0  0  0  0  0  0  0  0  0  0  0  0
   -2.0190    1.7770   -0.6460 O   0  0  0  0  0  0  0  0  0  0  0  0
  1  2  1  0
  2  3  1  0
  3  4  1  0
  4  5  1  0
  5  6  1  6
  5  8  1  0
  5 10  1  0
  6  7  1  0
  8  9  1  0
 10 11  1  0
 11 12  1  0
M  END
