
     RDKit          3D

 13 12  0  0  0  0  0  0  0  0999 V2000
    3.3170   -0.7470   -2.1320 O   0  0  0  0  0  0  0  0  0  0  0  0
    3.8120   -0.0300   -1.2340 C   0  0  0  0  0  0  0  0  0  0  0  0
    5.1970    0.0370   -1.1770 O   0  0  0  0  0  0  0  0  0  0  0  0
    2.9790    0.6360   -0.3750 O   0  0  0  0  0  0  0  0  0  0  0  0
    1.5730    0.6080   -0.3770 C   0  0  0  0  0  0  0  0  0  0  0  0
    1.1320   -0.8120   -0.1180 C   0  0  0  0  0  0  0  0  0  0  0  0
   -0.2440   -0.9630   -0.0940 O   0  0  0  0  0  0  0  0  0  0  0  0
   -0.9180   -0.2530    0.8510 C   0  0  2  0  0  0  0  0  0  0  0  0
   -1.6800   -1.0220    1.7150 O   0  0  0  0  0  0  0  0  0  0  0  0
   -1.8010    0.7640    0.1170 C   0  0  2  0  0  0  0  0  0  0  0  0
   -2.4860    1.4870    1.0640 O   0  0  0  0  0  0  0  0  0  0  0  0
   -2.7960    0.0320   -0.7650 C   0  0  0  0  0  0  0  0  0  0  0  0
   -3.6160    0.9450   -1.3830 O   0  0  0  0  0  0  0  0  0  0  0  0
  1  2  2  0
  2  3  1  0
  2  4  1  0
  4  5  1  0
  5  6  1  0
  6  7  1  0
  7  8  1  0
  8  9  1  6
  8 10  1  0
 10 11  1  1
 10 12  1  0
 12 13  1  0
M  END
