
     RDKit          3D

 13 13  0  0  0  0  0  0  0  0999 V2000
   -1.1830   -1.1190    0.4590 N   0  0  0  0  0  0  0  0  0  0  0  0
   -1.1800    0.3200    0.4750 C   0  0  1  0  0  0  0  0  0  0  0  0
   -0.1070    0.8220   -0.4840 C   0  0  0  0  0  0  0  0  0  0  0  0
    1.2030    0.3750   -0.1370 N   0  0  0  0  0  0  0  0  0  0  0  0
    2.0400    0.9760    0.6390 O   0  0  0  0  0  0  0  0  0  0  0  0
    3.1330    0.2910    0.7330 C   0  0  0  0  0  0  0  0  0  0  0  0
    4.1790    0.5350    1.3860 O   0  0  0  0  0  0  0  0  0  0  0  0
    3.0080   -0.8230   -0.0220 N   0  0  0  0  0  0  0  0  0  0  0  0
    1.7910   -0.7490   -0.5570 C   0  0  0  0  0  0  0  0  0  0  0  0
    1.2680   -1.5870   -1.3300 O   0  0  0  0  0  0  0  0  0  0  0  0
   -2.4850    0.7610   -0.0930 C   0  0  0  0  0  0  0  0  0  0  0  0
   -2.7680    1.9890   -0.2040 O   0  0  0  0  0  0  0  0  0  0  0  0
   -3.4580   -0.1300   -0.5290 O   0  0  0  0  0  0  0  0  0  0  0  0
  2  1  1  6
  2  3  1  0
  2 11  1  0
  3  4  1  0
  4  5  1  0
  4  9  1  0
  5  6  1  0
  6  7  2  0
  6  8  1  0
  8  9  1  0
  9 10  2  0
 11 12  2  0
 11 13  1  0
M  END
