
     RDKit          3D

 12 11  0  0  0  0  0  0  0  0999 V2000
    4.4290    1.0380   -0.0820 O   0  0  0  0  0  0  0  0  0  0  0  0
    3.2040    0.4830    0.3510 C   0  0  0  0  0  0  0  0  0  0  0  0
    2.8700   -0.5010   -0.5440 O   0  0  0  0  0  0  0  0  0  0  0  0
    1.6870   -1.1440   -0.2570 C   0  0  0  0  0  0  0  0  0  0  0  0
    0.5860   -0.2620   -0.2410 O   0  0  0  0  0  0  0  0  0  0  0  0
   -0.5180   -1.0190    0.0530 C   0  0  0  0  0  0  0  0  0  0  0  0
   -1.8070   -0.2750    0.1210 C   0  0  1  0  0  0  0  0  0  0  0  0
   -2.8070   -1.2280    0.4330 O   0  0  0  0  0  0  0  0  0  0  0  0
   -1.7780    0.6760    1.3000 C   0  0  0  0  0  0  0  0  0  0  0  0
   -0.8440    1.6830    1.1600 O   0  0  0  0  0  0  0  0  0  0  0  0
   -2.2280    0.3860   -1.1390 C   0  0  0  0  0  0  0  0  0  0  0  0
   -1.4020    1.3530   -1.6310 O   0  0  0  0  0  0  0  0  0  0  0  0
  1  2  1  0
  2  3  1  0
  3  4  1  0
  4  5  1  0
  5  6  1  0
  6  7  1  0
  7  8  1  1
  7  9  1  0
  7 11  1  0
  9 10  1  0
 11 12  1  0
M  END
