
     RDKit          3D

 25 26  0  0  0  0  0  0  0  0999 V2000
    6.3330    3.2540    0.3830 C   0  0  0  0  0  0  0  0  0  0  0  0
    4.9490    3.6520   -0.1360 C   0  0  0  0  0  0  0  0  0  0  0  0
    4.0540    2.6260    0.2910 O   0  0  0  0  0  0  0  0  0  0  0  0
    4.2010    1.3130   -0.0790 C   0  0  0  0  0  0  0  0  0  0  0  0
    5.1620    1.0050   -0.8220 O   0  0  0  0  0  0  0  0  0  0  0  0
    3.2340    0.2980    0.4010 C   0  0  0  0  0  0  0  0  0  0  0  0
    2.3020    0.6720    1.1360 O   0  0  0  0  0  0  0  0  0  0  0  0
    3.3860   -1.0480    0.0230 N   0  0  0  0  0  0  0  0  0  0  0  0
    2.5770   -2.1680    0.3350 C   0  0  0  0  0  0  0  0  0  0  0  0
    1.2020   -2.2940   -0.2450 C   0  0  2  0  0  0  0  0  0  0  0  0
    0.2490   -1.2090    0.0730 C   0  0  0  0  0  0  0  0  0  0  0  0
   -1.0810   -1.4970   -0.4500 N   0  0  0  0  0  0  0  0  0  0  0  0
   -2.0750   -0.5580   -0.0670 C   0  0  0  0  0  0  0  0  0  0  0  0
   -1.8930    0.7970   -0.4620 N   0  0  1  0  0  0  0  0  0  0  0  0
   -2.6820    1.1610   -1.6180 C   0  0  0  0  0  0  0  0  0  0  0  0
   -4.1370    1.3130   -1.3300 C   0  0  0  0  0  0  0  0  0  0  0  0
   -4.2610    2.4520   -0.3110 C   0  0  1  0  0  0  0  0  0  0  0  0
   -5.6910    2.8050   -0.0540 C   0  0  0  0  0  0  0  0  0  0  0  0
   -3.5890    1.8960    0.9470 C   0  0  0  0  0  0  0  0  0  0  0  0
   -2.1340    1.6460    0.6790 C   0  0  0  0  0  0  0  0  0  0  0  0
   -1.4740   -2.7830    0.0790 C   0  0  0  0  0  0  0  0  0  0  0  0
   -0.5720   -3.7960   -0.6060 C   0  0  0  0  0  0  0  0  0  0  0  0
    0.7090   -3.6490    0.0350 N   0  0  1  0  0  0  0  0  0  0  0  0
    1.6290   -4.5670   -0.5940 C   0  0  0  0  0  0  0  0  0  0  0  0
    0.6110   -3.8550    1.3680 O   0  0  0  0  0  0  0  0  0  0  0  0
  1  2  1  0
  2  3  1  0
  3  4  1  0
  4  5  2  0
  4  6  1  0
  6  7  2  0
  6  8  1  0
  8  9  1  0
 10  9  1  1
 10 11  1  0
 10 23  1  0
 11 12  1  0
 12 13  1  0
 12 21  1  0
 14 13  1  1
 14 15  1  0
 14 20  1  0
 15 16  1  0
 16 17  1  0
 17 18  1  1
 17 19  1  0
 19 20  1  0
 21 22  1  0
 22 23  1  0
 23 24  1  6
 23 25  1  0
M  CHG  3  14   1  23   1  25  -1
M  END
