
     RDKit          3D

 25 26  0  0  0  0  0  0  0  0999 V2000
   -7.2180   -1.1740    0.9250 C   0  0  0  0  0  0  0  0  0  0  0  0
   -5.7660   -1.1190    0.5010 C   0  0  0  0  0  0  0  0  0  0  0  0
   -5.5020    0.2500   -0.0150 C   0  0  0  0  0  0  0  0  0  0  0  0
   -6.3520    1.2660   -0.1050 O   0  0  0  0  0  0  0  0  0  0  0  0
   -5.7550    2.3050   -0.6080 N   0  0  0  0  0  0  0  0  0  0  0  0
   -6.3210    3.5390   -0.8470 O   0  0  0  0  0  0  0  0  0  0  0  0
   -4.4540    1.9830   -0.8680 C   0  0  0  0  0  0  0  0  0  0  0  0
   -3.4170    2.8690   -1.4450 C   0  0  0  0  0  0  0  0  0  0  0  0
   -4.2890    0.6670   -0.4900 C   0  0  0  0  0  0  0  0  0  0  0  0
   -3.0870   -0.0860   -0.5830 N   0  0  0  0  0  0  0  0  0  0  0  0
   -2.1210   -0.1570    0.4360 C   0  0  0  0  0  0  0  0  0  0  0  0
   -2.4200    0.5280    1.4800 O   0  0  0  0  0  0  0  0  0  0  0  0
   -0.9130   -0.8750    0.4230 N   0  0  0  0  0  0  0  0  0  0  0  0
   -0.0540   -0.8150    1.5880 C   0  0  0  0  0  0  0  0  0  0  0  0
    1.3250   -0.3610    1.0870 C   0  0  0  0  0  0  0  0  0  0  0  0
    1.8030   -1.3870    0.0760 C   0  0  2  0  0  0  0  0  0  0  0  0
    3.2540   -1.3900   -0.0760 C   0  0  0  0  0  0  0  0  0  0  0  0
    3.9290   -0.2250   -0.5040 N   0  0  1  0  0  0  0  0  0  0  0  0
    3.4450    0.3540   -1.7300 C   0  0  0  0  0  0  0  0  0  0  0  0
    4.1720    0.7610    0.5300 C   0  0  0  0  0  0  0  0  0  0  0  0
    5.4540    1.4810    0.2750 C   0  0  0  0  0  0  0  0  0  0  0  0
    6.5770    0.6950    0.2390 O   0  0  0  0  0  0  0  0  0  0  0  0
    6.8600   -0.0100    1.3790 C   0  0  0  0  0  0  0  0  0  0  0  0
    0.9490   -1.2600   -1.1270 C   0  0  0  0  0  0  0  0  0  0  0  0
   -0.4740   -1.6710   -0.6880 C   0  0  0  0  0  0  0  0  0  0  0  0
  1  2  1  0
  2  3  1  0
  3  4  1  0
  3  9  2  0
  4  5  1  0
  5  6  1  0
  5  7  2  0
  7  8  1  0
  7  9  1  0
  9 10  1  0
 10 11  1  0
 11 12  2  0
 11 13  1  0
 13 14  1  0
 13 25  1  0
 14 15  1  0
 15 16  1  0
 16 17  1  6
 16 24  1  0
 17 18  1  0
 18 19  1  6
 18 20  1  0
 20 21  1  0
 21 22  1  0
 22 23  1  0
 24 25  1  0
M  CHG  3   5   1   6  -1  18   1
M  END
