
     RDKit          3D

 25 26  0  0  0  0  0  0  0  0999 V2000
    7.1550    1.7930   -2.3570 C   0  0  0  0  0  0  0  0  0  0  0  0
    5.9500    0.8780   -2.4030 C   0  0  0  0  0  0  0  0  0  0  0  0
    5.5250    0.4360   -1.0270 C   0  0  1  0  0  0  0  0  0  0  0  0
    6.5940   -0.2470   -0.4520 O   0  0  0  0  0  0  0  0  0  0  0  0
    5.1450    1.6360   -0.1990 C   0  0  0  0  0  0  0  0  0  0  0  0
    4.7140    1.2520    1.1820 C   0  0  0  0  0  0  0  0  0  0  0  0
    3.5610    0.3700    1.1930 N   0  0  0  0  0  0  0  0  0  0  0  0
    3.7250   -1.0710    1.1590 C   0  0  0  0  0  0  0  0  0  0  0  0
    2.2400    0.8860    1.2360 C   0  0  0  0  0  0  0  0  0  0  0  0
    2.0580    2.1250    1.2660 O   0  0  0  0  0  0  0  0  0  0  0  0
    1.0720    0.0030    1.2470 C   0  0  0  0  0  0  0  0  0  0  0  0
   -0.1280    0.5200    1.2870 C   0  0  0  0  0  0  0  0  0  0  0  0
   -1.3820   -0.1850    1.3040 C   0  0  0  0  0  0  0  0  0  0  0  0
   -2.6290    0.3920    1.3450 N   0  0  0  0  0  0  0  0  0  0  0  0
   -3.5750   -0.5480    1.3500 C   0  0  0  0  0  0  0  0  0  0  0  0
   -5.0540   -0.4360    1.3880 C   0  0  0  0  0  0  0  0  0  0  0  0
   -5.5370   -0.3750    0.0450 N   0  0  2  0  0  0  0  0  0  0  0  0
   -5.8470    0.9900   -0.3320 C   0  0  0  0  0  0  0  0  0  0  0  0
   -6.3210    1.0110   -1.7540 C   0  0  0  0  0  0  0  0  0  0  0  0
   -7.3590    0.1080   -1.9820 O   0  0  0  0  0  0  0  0  0  0  0  0
   -6.9670   -1.1830   -1.6770 C   0  0  0  0  0  0  0  0  0  0  0  0
   -6.7060   -1.2150   -0.1720 C   0  0  0  0  0  0  0  0  0  0  0  0
   -2.9160   -1.7120    1.3110 N   0  0  0  0  0  0  0  0  0  0  0  0
   -1.5910   -1.4980    1.2830 N   0  0  0  0  0  0  0  0  0  0  0  0
   -0.6710   -2.6160    1.2390 C   0  0  0  0  0  0  0  0  0  0  0  0
  1  2  1  0
  2  3  1  0
  3  4  1  1
  3  5  1  0
  5  6  1  0
  6  7  1  0
  7  8  1  0
  7  9  1  0
  9 10  2  0
  9 11  1  0
 11 12  2  3
 12 13  1  0
 13 14  2  0
 13 24  1  0
 14 15  1  0
 15 16  1  0
 15 23  2  0
 17 16  1  1
 17 18  1  0
 17 22  1  0
 18 19  1  0
 19 20  1  0
 20 21  1  0
 21 22  1  0
 23 24  1  0
 24 25  1  0
M  CHG  1  17   1
M  END
