
     RDKit          3D

 15 15  0  0  0  0  0  0  0  0999 V2000
    4.4900    1.5080    0.6620 C   0  0  0  0  0  0  0  0  0  0  0  0
    4.2360    0.9900   -0.7310 C   0  0  0  0  0  0  0  0  0  0  0  0
    3.6180   -0.2860   -0.6970 O   0  0  0  0  0  0  0  0  0  0  0  0
    2.3760   -0.4850   -0.0810 C   0  0  0  0  0  0  0  0  0  0  0  0
    1.8670    0.5410    0.4270 O   0  0  0  0  0  0  0  0  0  0  0  0
    1.7470   -1.8090   -0.0520 C   0  0  0  0  0  0  0  0  0  0  0  0
    0.5260   -1.8060    0.5940 O   0  0  0  0  0  0  0  0  0  0  0  0
   -0.3410   -0.9440   -0.0610 C   0  0  1  0  0  0  0  0  0  0  0  0
   -1.5000   -1.7460   -0.6660 C   0  0  0  0  0  0  0  0  0  0  0  0
   -2.5580   -0.8510   -1.2540 C   0  0  0  0  0  0  0  0  0  0  0  0
   -3.1160    0.1170   -0.2470 C   0  0  2  0  0  0  0  0  0  0  0  0
   -2.9950    1.4820   -0.6790 N   0  0  0  0  0  0  0  0  0  0  0  0
   -2.3930   -0.1280    1.0490 C   0  0  2  0  0  0  0  0  0  0  0  0
   -2.8900    0.6830    2.0720 O   0  0  0  0  0  0  0  0  0  0  0  0
   -0.9220    0.1150    0.8150 C   0  0  0  0  0  0  0  0  0  0  0  0
  1  2  1  0
  2  3  1  0
  3  4  1  0
  4  5  2  0
  4  6  1  0
  6  7  1  0
  8  7  1  1
  8  9  1  0
  8 15  1  0
  9 10  1  0
 10 11  1  0
 11 12  1  6
 11 13  1  0
 13 14  1  1
 13 15  1  0
M  CHG  1  12   1
M  END
