
     RDKit          3D

 15 15  0  0  0  0  0  0  0  0999 V2000
    5.3820    0.2360    0.3110 C   0  0  0  0  0  0  0  0  0  0  0  0
    4.0330    0.6040    0.1080 O   0  0  0  0  0  0  0  0  0  0  0  0
    3.3820   -0.5230   -0.3380 C   0  0  0  0  0  0  0  0  0  0  0  0
    1.9220   -0.3130   -0.6080 C   0  0  0  0  0  0  0  0  0  0  0  0
    1.1980    0.0920    0.4880 O   0  0  0  0  0  0  0  0  0  0  0  0
   -0.1140    0.2510    0.1230 C   0  0  1  0  0  0  0  0  0  0  0  0
   -1.0140   -0.7390    0.8660 C   0  0  0  0  0  0  0  0  0  0  0  0
   -2.3180   -0.7780    0.0770 C   0  0  2  0  0  0  0  0  0  0  0  0
   -3.4420   -1.0980    1.0190 C   0  0  0  0  0  0  0  0  0  0  0  0
   -2.1680   -1.9110   -0.9270 C   0  0  0  0  0  0  0  0  0  0  0  0
   -3.2760   -2.0550   -1.7340 O   0  0  0  0  0  0  0  0  0  0  0  0
   -2.5070    0.3940   -0.6340 O   0  0  0  0  0  0  0  0  0  0  0  0
   -2.1800    1.5340    0.0810 C   0  0  0  0  0  0  0  0  0  0  0  0
   -0.6730    1.6150    0.3560 C   0  0  2  0  0  0  0  0  0  0  0  0
   -0.0970    2.5860   -0.5600 N   0  0  0  0  0  0  0  0  0  0  0  0
  1  2  1  0
  2  3  1  0
  3  4  1  0
  4  5  1  0
  6  5  1  1
  6  7  1  0
  6 14  1  0
  7  8  1  0
  8  9  1  1
  8 10  1  0
  8 12  1  0
 10 11  1  0
 12 13  1  0
 13 14  1  0
 14 15  1  6
M  CHG  1  15   1
M  END
