
     RDKit          3D

 15 15  0  0  0  0  0  0  0  0999 V2000
    3.2070    0.1860   -1.5040 C   0  0  0  0  0  0  0  0  0  0  0  0
    3.0140   -0.9820   -0.5980 C   0  0  0  0  0  0  0  0  0  0  0  0
    3.0560   -0.6060    0.8660 C   0  0  1  0  0  0  0  0  0  0  0  0
    4.3030   -0.0150    1.2490 N   0  0  0  0  0  0  0  0  0  0  0  0
    1.9500    0.3670    1.2090 C   0  0  0  0  0  0  0  0  0  0  0  0
    0.6760   -0.1830    0.8420 O   0  0  0  0  0  0  0  0  0  0  0  0
   -0.4970    0.5260    1.0580 C   0  0  0  0  0  0  0  0  0  0  0  0
   -0.3850    1.6630    1.5870 O   0  0  0  0  0  0  0  0  0  0  0  0
   -1.8390    0.0440    0.7170 C   0  0  2  0  0  0  0  0  0  0  0  0
   -1.8120   -1.2140    0.1460 O   0  0  0  0  0  0  0  0  0  0  0  0
   -3.0070   -1.5770   -0.4140 C   0  0  0  0  0  0  0  0  0  0  0  0
   -4.1860   -0.7740    0.0590 C   0  0  0  0  0  0  0  0  0  0  0  0
   -4.0100    0.7070   -0.1540 C   0  0  0  0  0  0  0  0  0  0  0  0
   -2.5240    0.9700   -0.2730 C   0  0  1  0  0  0  0  0  0  0  0  0
   -2.1980    2.2980   -0.0070 O   0  0  0  0  0  0  0  0  0  0  0  0
  1  2  1  0
  2  3  1  0
  3  4  1  6
  3  5  1  0
  5  6  1  0
  6  7  1  0
  7  8  2  0
  9  7  1  6
  9 10  1  0
  9 14  1  0
 10 11  1  0
 11 12  1  0
 12 13  1  0
 13 14  1  0
 14 15  1  1
M  CHG  1   4   1
M  END
