
     RDKit          3D

 18 19  0  0  0  0  0  0  0  0999 V2000
    2.0970   -1.1150    1.3080 C   0  0  0  0  0  0  0  0  0  0  0  0
    1.4010   -0.1810    0.3060 C   0  0  2  0  0  0  0  0  0  0  0  0
    2.0630   -0.3550   -1.0230 C   0  0  0  0  0  0  0  0  0  0  0  0
    1.4590    1.1930    0.8010 C   0  0  0  0  0  0  0  0  0  0  0  0
    2.7720    1.8030    1.0680 C   0  0  0  0  0  0  0  0  0  0  0  0
    3.6920    1.9490   -0.0070 N   0  0  0  0  0  0  0  0  0  0  0  0
    0.0350   -0.7180    0.2640 N   0  0  0  0  0  0  0  0  0  0  0  0
    0.2020   -2.0550   -0.2680 C   0  0  0  0  0  0  0  0  0  0  0  0
   -1.0910   -2.8210   -0.4030 C   0  0  0  0  0  0  0  0  0  0  0  0
   -1.9620   -2.0870   -1.1590 O   0  0  0  0  0  0  0  0  0  0  0  0
   -1.4940   -0.9010   -1.6370 C   0  0  0  0  0  0  0  0  0  0  0  0
   -0.9000   -0.0130   -0.5240 C   0  0  1  0  0  0  0  0  0  0  0  0
   -2.0990    0.4820    0.2280 C   0  0  0  0  0  0  0  0  0  0  0  0
   -2.4910    1.7340    0.3590 C   0  0  0  0  0  0  0  0  0  0  0  0
   -1.6590    3.3150   -0.3640 Br  0  0  0  0  0  0  0  0  0  0  0  0
   -3.7160    1.8350    1.1580 C   0  0  0  0  0  0  0  0  0  0  0  0
   -4.0220    0.4320    1.4990 C   0  0  0  0  0  0  0  0  0  0  0  0
   -3.0800   -0.3120    0.9530 C   0  0  0  0  0  0  0  0  0  0  0  0
  2  1  1  1
  2  3  1  0
  2  4  1  0
  2  7  1  0
  4  5  1  0
  5  6  1  0
  7  8  1  0
  7 12  1  0
  8  9  1  0
  9 10  1  0
 10 11  1  0
 11 12  1  0
 12 13  1  1
 13 14  2  0
 13 18  1  0
 14 15  1  0
 14 16  1  0
 16 17  1  0
 17 18  2  0
M  END
