
     RDKit          3D

 22 24  0  0  0  0  0  0  0  0999 V2000
   -4.8270   -0.0400   -1.2200 C   0  0  0  0  0  0  0  0  0  0  0  0
   -3.6250    0.6150   -0.6240 C   0  0  2  0  0  0  0  0  0  0  0  0
   -2.3500    0.2810   -1.4070 C   0  0  0  0  0  0  0  0  0  0  0  0
   -1.4010    0.1700   -0.2660 N   0  0  0  0  0  0  0  0  0  0  0  0
   -2.1770   -0.6810    0.5800 C   0  0  1  0  0  0  0  0  0  0  0  0
   -1.6050   -1.1460    1.8190 C   0  0  0  0  0  0  0  0  0  0  0  0
   -2.7160   -2.0630    2.8850 Cl  0  0  0  0  0  0  0  0  0  0  0  0
   -0.3970   -1.0000    2.2540 C   0  0  0  0  0  0  0  0  0  0  0  0
    0.6140   -0.3080    1.5140 N   0  0  0  0  0  0  0  0  0  0  0  0
    1.7160   -0.9960    0.9560 C   0  0  0  0  0  0  0  0  0  0  0  0
    1.7770   -2.3420    1.1520 N   0  0  0  0  0  0  0  0  0  0  0  0
    2.7800   -3.0550    0.6600 C   0  0  0  0  0  0  0  0  0  0  0  0
    3.7680   -2.4220   -0.0560 C   0  0  0  0  0  0  0  0  0  0  0  0
    3.7270   -1.0750   -0.2640 C   0  0  0  0  0  0  0  0  0  0  0  0
    4.6980   -0.4030   -0.9770 C   0  0  0  0  0  0  0  0  0  0  0  0
    4.6660    0.9560   -1.1930 C   0  0  0  0  0  0  0  0  0  0  0  0
    3.6380    1.6970   -0.6910 C   0  0  0  0  0  0  0  0  0  0  0  0
    3.5440    3.0970   -0.8760 N   0  0  0  0  0  0  0  0  0  0  0  0
    2.6480    1.0280    0.0330 C   0  0  0  0  0  0  0  0  0  0  0  0
    2.6760   -0.3310    0.2520 C   0  0  0  0  0  0  0  0  0  0  0  0
   -3.4100    0.0660    0.7240 N   0  0  0  0  0  0  0  0  0  0  0  0
   -3.3340    1.1400    1.6560 C   0  0  0  0  0  0  0  0  0  0  0  0
  2  1  1  6
  2  3  1  0
  2 21  1  0
  3  4  1  0
  4  5  1  0
  5  6  1  1
  5 21  1  0
  6  7  1  0
  6  8  2  3
  8  9  1  0
  9 10  1  0
 10 11  2  0
 10 20  1  0
 11 12  1  0
 12 13  2  0
 13 14  1  0
 14 15  2  0
 14 20  1  0
 15 16  1  0
 16 17  2  0
 17 18  1  0
 17 19  1  0
 19 20  2  0
 21 22  1  0
M  CHG  1   4   1
M  END
