
     RDKit          3D

 16 18  0  0  0  0  0  0  0  0999 V2000
   -4.2050    1.4910   -0.1460 C   0  0  0  0  0  0  0  0  0  0  0  0
   -2.9050    0.7730   -0.1630 C   0  0  0  0  0  0  0  0  0  0  0  0
   -1.7440    1.5150   -0.1100 C   0  0  0  0  0  0  0  0  0  0  0  0
   -0.5140    0.8490   -0.1240 C   0  0  0  0  0  0  0  0  0  0  0  0
    0.6440    1.5980   -0.0710 C   0  0  0  0  0  0  0  0  0  0  0  0
    1.8710    0.9280   -0.0860 C   0  0  0  0  0  0  0  0  0  0  0  0
    1.9270   -0.4490   -0.1520 C   0  0  0  0  0  0  0  0  0  0  0  0
    0.7600   -1.1740   -0.2050 C   0  0  0  0  0  0  0  0  0  0  0  0
   -0.4730   -0.5300   -0.1910 C   0  0  0  0  0  0  0  0  0  0  0  0
   -1.6470   -1.2510   -0.2430 C   0  0  0  0  0  0  0  0  0  0  0  0
   -1.6010   -2.7140   -0.3140 C   0  0  0  0  0  0  0  0  0  0  0  0
   -2.8810   -0.5950   -0.2290 C   0  0  0  0  0  0  0  0  0  0  0  0
   -4.3900   -1.5110   -0.2960 Cl  0  0  0  0  0  0  0  0  0  0  0  0
    3.2710   -0.9100   -0.1560 N   0  0  0  0  0  0  0  0  0  0  0  0
    4.1030    0.2470   -0.2460 C   0  0  0  0  0  0  0  0  0  0  0  0
    3.2600    1.4650   -0.0400 C   0  0  0  0  0  0  0  0  0  0  0  0
  1  2  1  0
  2  3  2  0
  2 12  1  0
  3  4  1  0
  4  5  2  0
  4  9  1  0
  5  6  1  0
  6  7  2  0
  6 16  1  0
  7  8  1  0
  7 14  1  0
  8  9  2  0
  9 10  1  0
 10 11  1  0
 10 12  2  0
 12 13  1  0
 14 15  1  0
 15 16  1  0
M  CHG  1  14   1
M  END
