
     RDKit          3D

 16 17  0  0  0  0  0  0  0  0999 V2000
   -4.0180    0.7410    1.2150 C   0  0  0  0  0  0  0  0  0  0  0  0
   -3.4480   -0.4790    0.5540 C   0  0  1  0  0  0  0  0  0  0  0  0
   -4.0180   -0.5860   -0.8570 C   0  0  0  0  0  0  0  0  0  0  0  0
   -1.9860   -0.4760    0.4530 C   0  0  0  0  0  0  0  0  0  0  0  0
   -1.2640   -1.5190    0.9860 C   0  0  0  0  0  0  0  0  0  0  0  0
    0.1130   -1.5340    0.9020 C   0  0  0  0  0  0  0  0  0  0  0  0
    0.7920   -0.5040    0.2830 C   0  0  0  0  0  0  0  0  0  0  0  0
    2.1730   -0.4850    0.1800 C   0  0  0  0  0  0  0  0  0  0  0  0
    2.8560    0.5420   -0.4380 C   0  0  0  0  0  0  0  0  0  0  0  0
    4.3430    0.5680   -0.5530 C   0  0  0  0  0  0  0  0  0  0  0  0
    4.8890   -0.6330    0.0790 N   0  0  0  0  0  0  0  0  0  0  0  0
    2.1320    1.5880   -0.9720 C   0  0  0  0  0  0  0  0  0  0  0  0
    0.7410    1.6190   -0.8960 C   0  0  0  0  0  0  0  0  0  0  0  0
   -0.1690    2.9550   -1.5790 Cl  0  0  0  0  0  0  0  0  0  0  0  0
    0.0990    0.5630   -0.2650 C   0  0  0  0  0  0  0  0  0  0  0  0
   -1.2710    0.5450   -0.1630 C   0  0  0  0  0  0  0  0  0  0  0  0
  2  1  1  6
  2  3  1  0
  2  4  1  0
  4  5  2  0
  4 16  1  0
  5  6  1  0
  6  7  2  0
  7  8  1  0
  7 15  1  0
  8  9  2  0
  9 10  1  0
  9 12  1  0
 10 11  1  0
 12 13  2  0
 13 14  1  0
 13 15  1  0
 15 16  2  0
M  CHG  1  11   1
M  END
