
     RDKit          3D

 16 16  0  0  0  0  0  0  0  0999 V2000
   -3.1720    2.4130   -0.3410 C   0  0  0  0  0  0  0  0  0  0  0  0
   -2.5000    1.0870   -0.2580 C   0  0  0  0  0  0  0  0  0  0  0  0
   -3.2510   -0.0560   -0.0970 C   0  0  0  0  0  0  0  0  0  0  0  0
   -2.6110   -1.2790   -0.0210 C   0  0  0  0  0  0  0  0  0  0  0  0
   -3.4030   -2.5250    0.1520 C   0  0  0  0  0  0  0  0  0  0  0  0
   -1.2370   -1.3650   -0.1040 C   0  0  0  0  0  0  0  0  0  0  0  0
   -0.4970   -2.6550   -0.0280 C   0  0  0  0  0  0  0  0  0  0  0  0
   -0.4590   -0.2040   -0.2670 C   0  0  0  0  0  0  0  0  0  0  0  0
    0.9770   -0.3120   -0.3900 C   0  0  0  0  0  0  0  0  0  0  0  0
    1.8850    0.2300    0.3880 C   0  0  0  0  0  0  0  0  0  0  0  0
    1.4970    1.2100    1.7660 Cl  0  0  0  0  0  0  0  0  0  0  0  0
    3.3250    0.0030    0.0900 C   0  0  1  0  0  0  0  0  0  0  0  0
    4.0300    1.3290   -0.1670 C   0  0  0  0  0  0  0  0  0  0  0  0
    3.9820   -0.6580    1.1880 N   0  0  0  0  0  0  0  0  0  0  0  0
   -1.0980    0.9880   -0.3420 C   0  0  0  0  0  0  0  0  0  0  0  0
   -0.3960    2.2520   -0.5690 C   0  0  0  0  0  0  0  0  0  0  0  0
  1  2  1  0
  2  3  2  0
  2 15  1  0
  3  4  1  0
  4  5  1  0
  4  6  2  0
  6  7  1  0
  6  8  1  0
  8  9  1  0
  8 15  2  0
  9 10  2  3
 10 11  1  0
 10 12  1  0
 12 13  1  1
 12 14  1  0
 15 16  1  0
M  CHG  1  14   1
M  END
