
     RDKit          3D

 20 22  0  0  0  0  0  0  0  0999 V2000
   -2.5740    2.4840    1.4310 N   0  0  0  0  0  0  0  0  0  0  0  0
   -3.0820    1.3110    0.7930 C   0  0  0  0  0  0  0  0  0  0  0  0
   -4.4230    1.0900    0.6950 C   0  0  0  0  0  0  0  0  0  0  0  0
   -4.8870   -0.0480    0.0750 C   0  0  0  0  0  0  0  0  0  0  0  0
   -4.0220   -0.9830   -0.4560 C   0  0  0  0  0  0  0  0  0  0  0  0
   -2.6480   -0.7780   -0.3670 C   0  0  0  0  0  0  0  0  0  0  0  0
   -1.7850   -1.6700   -0.8750 N   0  0  0  0  0  0  0  0  0  0  0  0
   -0.4330   -1.4660   -0.7850 C   0  0  0  0  0  0  0  0  0  0  0  0
    0.2770   -2.3660   -1.2940 O   0  0  0  0  0  0  0  0  0  0  0  0
    0.0630   -0.3500   -0.1780 C   0  0  0  0  0  0  0  0  0  0  0  0
    1.4810   -0.1020   -0.0670 C   0  0  0  0  0  0  0  0  0  0  0  0
    2.4670   -0.8330   -0.4870 C   0  0  0  0  0  0  0  0  0  0  0  0
    3.8680   -0.3980   -0.2720 C   0  0  0  0  0  0  0  0  0  0  0  0
    4.9840   -1.0090   -0.6280 C   0  0  0  0  0  0  0  0  0  0  0  0
    6.1250   -0.2060   -0.2050 C   0  0  0  0  0  0  0  0  0  0  0  0
    7.8120   -0.5920   -0.2100 Cl  0  0  0  0  0  0  0  0  0  0  0  0
    5.5800    0.9290    0.2000 C   0  0  0  0  0  0  0  0  0  0  0  0
    4.2750    0.8280    0.3990 C   0  0  0  0  0  0  0  0  0  0  0  0
   -0.8480    0.5580    0.3380 C   0  0  0  0  0  0  0  0  0  0  0  0
   -2.2090    0.3820    0.2650 C   0  0  0  0  0  0  0  0  0  0  0  0
  1  2  1  0
  2  3  2  0
  2 20  1  0
  3  4  1  0
  4  5  2  0
  5  6  1  0
  6  7  1  0
  6 20  2  0
  7  8  1  0
  8  9  2  0
  8 10  1  0
 10 11  1  0
 10 19  2  0
 11 12  2  3
 12 13  1  0
 13 14  2  0
 13 18  1  0
 14 15  1  0
 15 16  1  0
 15 17  2  0
 17 18  2  0
 19 20  1  0
M  END
