
     RDKit          3D

 20 22  0  0  0  0  0  0  0  0999 V2000
   -3.9410    1.8880   -0.2030 C   0  0  0  0  0  0  0  0  0  0  0  0
   -2.7280    1.0590   -0.0450 C   0  0  0  0  0  0  0  0  0  0  0  0
   -1.4960    1.6460   -0.3260 C   0  0  0  0  0  0  0  0  0  0  0  0
   -0.3620    0.8770   -0.1800 C   0  0  0  0  0  0  0  0  0  0  0  0
    0.9510    1.1830   -0.3790 N   0  0  0  0  0  0  0  0  0  0  0  0
    1.6760    0.0810   -0.0920 C   0  0  0  0  0  0  0  0  0  0  0  0
    0.8250   -0.9460    0.2850 C   0  0  0  0  0  0  0  0  0  0  0  0
   -0.4590   -0.4360    0.2330 C   0  0  0  0  0  0  0  0  0  0  0  0
   -1.6920   -0.9880    0.5030 C   0  0  0  0  0  0  0  0  0  0  0  0
   -2.8500   -0.2550    0.3710 C   0  0  0  0  0  0  0  0  0  0  0  0
   -4.1640   -0.8310    0.6550 C   0  0  0  0  0  0  0  0  0  0  0  0
   -4.2360   -2.1870    1.0800 N   0  0  0  0  0  0  0  0  0  0  0  0
   -5.2240   -0.1720    0.5370 O   0  0  0  0  0  0  0  0  0  0  0  0
    1.3820   -2.2790    0.4600 C   0  0  0  0  0  0  0  0  0  0  0  0
    2.6600   -2.5290    0.2480 C   0  0  0  0  0  0  0  0  0  0  0  0
    3.6560   -1.5480   -0.1860 C   0  0  0  0  0  0  0  0  0  0  0  0
    3.1070   -0.1470   -0.0030 C   0  0  0  0  0  0  0  0  0  0  0  0
    3.9300    0.8120    0.3210 C   0  0  0  0  0  0  0  0  0  0  0  0
    3.6530    2.2040    0.6550 C   0  0  0  0  0  0  0  0  0  0  0  0
    4.3930    3.3240   -0.5370 Cl  0  0  0  0  0  0  0  0  0  0  0  0
  1  2  1  0
  2  3  2  0
  2 10  1  0
  3  4  1  0
  4  5  1  0
  4  8  2  0
  5  6  1  0
  6  7  2  0
  6 17  1  0
  7  8  1  0
  7 14  1  0
  8  9  1  0
  9 10  2  0
 10 11  1  0
 11 12  1  0
 11 13  2  0
 14 15  2  0
 15 16  1  0
 16 17  1  0
 17 18  2  3
 18 19  1  0
 19 20  1  0
M  END
