
     RDKit          3D

 29 32  0  0  0  0  0  0  0  0999 V2000
    3.5620    4.3460    0.5890 C   0  0  0  0  0  0  0  0  0  0  0  0
    3.6220    3.2030    1.5600 C   0  0  0  0  0  0  0  0  0  0  0  0
    3.2510    1.9650    1.0410 O   0  0  0  0  0  0  0  0  0  0  0  0
    2.0350    1.6200    0.5000 C   0  0  0  0  0  0  0  0  0  0  0  0
    1.0250    2.5550    0.4350 C   0  0  0  0  0  0  0  0  0  0  0  0
   -0.2060    2.2540   -0.0990 C   0  0  0  0  0  0  0  0  0  0  0  0
   -0.4710    0.9820   -0.5940 C   0  0  0  0  0  0  0  0  0  0  0  0
   -1.6260    0.5630   -1.1500 N   0  0  0  0  0  0  0  0  0  0  0  0
   -2.7230    0.0540   -0.9360 C   0  0  0  0  0  0  0  0  0  0  0  0
   -3.2490   -0.3540    0.2710 C   0  0  0  0  0  0  0  0  0  0  0  0
   -2.5100   -0.2020    1.4040 C   0  0  0  0  0  0  0  0  0  0  0  0
   -3.0400   -0.6120    2.6090 C   0  0  0  0  0  0  0  0  0  0  0  0
   -4.3060   -1.1760    2.6990 C   0  0  0  0  0  0  0  0  0  0  0  0
   -5.0630   -1.3350    1.5590 C   0  0  0  0  0  0  0  0  0  0  0  0
   -4.5300   -0.9240    0.3540 C   0  0  0  0  0  0  0  0  0  0  0  0
   -5.2870   -1.0900   -0.7420 N   0  0  0  0  0  0  0  0  0  0  0  0
   -4.7670   -0.6890   -1.9120 C   0  0  0  0  0  0  0  0  0  0  0  0
   -5.5150   -0.8630   -2.9300 O   0  0  0  0  0  0  0  0  0  0  0  0
   -3.5510   -0.1440   -2.0210 N   0  0  0  0  0  0  0  0  0  0  0  0
   -3.0800    0.2570   -3.3410 C   0  0  0  0  0  0  0  0  0  0  0  0
    0.5890    0.0650   -0.5050 C   0  0  0  0  0  0  0  0  0  0  0  0
    1.8090    0.3470    0.0180 C   0  0  0  0  0  0  0  0  0  0  0  0
    2.8310   -0.6080    0.0800 O   0  0  0  0  0  0  0  0  0  0  0  0
    2.5670   -1.8980   -0.4200 C   0  0  0  0  0  0  0  0  0  0  0  0
    3.7410   -2.7720   -0.2780 C   0  0  0  0  0  0  0  0  0  0  0  0
    4.9250   -2.4400    0.2490 N   0  0  0  0  0  0  0  0  0  0  0  0
    5.7490   -3.4940    0.2100 C   0  0  0  0  0  0  0  0  0  0  0  0
    5.0780   -4.5030   -0.3470 N   0  0  0  0  0  0  0  0  0  0  0  0
    3.8740   -4.0560   -0.6350 N   0  0  0  0  0  0  0  0  0  0  0  0
  1  2  1  0
  2  3  1  0
  3  4  1  0
  4  5  2  0
  4 22  1  0
  5  6  1  0
  6  7  2  0
  7  8  1  0
  7 21  1  0
  8  9  2  3
  9 10  1  0
  9 19  1  0
 10 11  2  0
 10 15  1  0
 11 12  1  0
 12 13  2  0
 13 14  1  0
 14 15  2  0
 15 16  1  0
 16 17  1  0
 17 18  2  0
 17 19  1  0
 19 20  1  0
 21 22  2  0
 22 23  1  0
 23 24  1  0
 24 25  1  0
 25 26  1  0
 25 29  2  0
 26 27  2  0
 27 28  1  0
 28 29  1  0
M  END
