
     RDKit          3D

 29 32  0  0  0  0  0  0  0  0999 V2000
    7.5170   -0.9280   -0.1620 C   0  0  0  0  0  0  0  0  0  0  0  0
    6.4310   -1.7820   -0.8040 C   0  0  0  0  0  0  0  0  0  0  0  0
    5.1250   -1.1330   -0.4530 C   0  0  0  0  0  0  0  0  0  0  0  0
    4.3470   -0.7140   -1.4210 C   0  0  0  0  0  0  0  0  0  0  0  0
    3.0480   -0.0650   -1.2120 C   0  0  0  0  0  0  0  0  0  0  0  0
    2.4160    0.2840   -2.2430 O   0  0  0  0  0  0  0  0  0  0  0  0
    2.5310    0.1450    0.0990 C   0  0  0  0  0  0  0  0  0  0  0  0
    1.4750    0.7180    0.5710 C   0  0  0  0  0  0  0  0  0  0  0  0
    1.2160    0.7420    2.0410 C   0  0  0  0  0  0  0  0  0  0  0  0
   -0.2510    0.5800    2.3360 C   0  0  0  0  0  0  0  0  0  0  0  0
   -1.1140    0.3060    1.1250 C   0  0  1  0  0  0  0  0  0  0  0  0
   -0.9040   -1.1290    0.7170 C   0  0  0  0  0  0  0  0  0  0  0  0
   -1.6180   -1.3680   -0.6080 C   0  0  0  0  0  0  0  0  0  0  0  0
   -3.0700   -1.2050   -0.3070 C   0  0  0  0  0  0  0  0  0  0  0  0
   -4.0280   -1.8840   -1.0230 C   0  0  0  0  0  0  0  0  0  0  0  0
   -5.3650   -1.7380   -0.7500 C   0  0  0  0  0  0  0  0  0  0  0  0
   -5.8100   -0.9020    0.2560 C   0  0  0  0  0  0  0  0  0  0  0  0
   -7.2290   -0.7450    0.5470 C   0  0  0  0  0  0  0  0  0  0  0  0
   -7.5880    0.0200    1.4640 O   0  0  0  0  0  0  0  0  0  0  0  0
   -8.1850   -1.4330   -0.1800 O   0  0  0  0  0  0  0  0  0  0  0  0
   -4.8320   -0.2330    0.9590 C   0  0  0  0  0  0  0  0  0  0  0  0
   -3.4870   -0.3650    0.7020 C   0  0  0  0  0  0  0  0  0  0  0  0
   -2.5640    0.4310    1.5570 C   0  0  0  0  0  0  0  0  0  0  0  0
   -0.8350    1.2080   -0.0140 C   0  0  0  0  0  0  0  0  0  0  0  0
   -1.7750    1.8460   -0.7840 C   0  0  0  0  0  0  0  0  0  0  0  0
   -1.3710    2.7170   -1.8010 C   0  0  0  0  0  0  0  0  0  0  0  0
   -0.0180    2.9290   -2.0200 C   0  0  0  0  0  0  0  0  0  0  0  0
    0.9280    2.2960   -1.2540 C   0  0  0  0  0  0  0  0  0  0  0  0
    0.5240    1.4300   -0.2480 C   0  0  0  0  0  0  0  0  0  0  0  0
  1  2  1  0
  2  3  1  0
  3  4  2  3
  4  5  1  0
  5  6  2  0
  5  7  1  0
  7  8  2  3
  8  9  1  0
  8 29  1  0
  9 10  1  0
 11 10  1  1
 11 12  1  0
 11 23  1  0
 11 24  1  0
 12 13  1  0
 13 14  1  0
 14 15  2  0
 14 22  1  0
 15 16  1  0
 16 17  2  0
 17 18  1  0
 17 21  1  0
 18 19  2  0
 18 20  1  0
 21 22  2  0
 22 23  1  0
 24 25  2  0
 24 29  1  0
 25 26  1  0
 26 27  2  0
 27 28  1  0
 28 29  2  0
M  CHG  1  20  -1
M  END
