
     RDKit          3D

 47 50  0  0  0  0  0  0  0  0999 V2000
   13.0000    0.5530    1.4710 C   0  0  0  0  0  0  0  0  0  0  0  0
   12.0310    0.9720    0.3680 C   0  0  0  0  0  0  0  0  0  0  0  0
   10.7630    0.4900    0.7160 O   0  0  0  0  0  0  0  0  0  0  0  0
    9.6330    0.7250   -0.0830 C   0  0  0  0  0  0  0  0  0  0  0  0
    9.7300    1.3580   -1.1410 O   0  0  0  0  0  0  0  0  0  0  0  0
    8.3020    0.2030    0.3360 C   0  0  0  0  0  0  0  0  0  0  0  0
    8.3620   -0.2950    1.6610 N   0  0  0  0  0  0  0  0  0  0  0  0
    8.5360    0.6210    2.7010 C   0  0  0  0  0  0  0  0  0  0  0  0
    7.7350   -1.5420    1.8820 C   0  0  2  0  0  0  0  0  0  0  0  0
    8.4560   -2.5780    1.0490 C   0  0  0  0  0  0  0  0  0  0  0  0
    6.2780   -1.5640    1.4970 C   0  0  0  0  0  0  0  0  0  0  0  0
    5.8040   -2.6900    1.1410 O   0  0  0  0  0  0  0  0  0  0  0  0
    5.4290   -0.4460    1.5000 N   0  0  0  0  0  0  0  0  0  0  0  0
    4.0490   -0.4600    1.0680 C   0  0  0  0  0  0  0  0  0  0  0  0
    3.4490   -1.4360    0.4320 C   0  0  0  0  0  0  0  0  0  0  0  0
    2.1570   -1.3390   -0.1200 C   0  0  0  0  0  0  0  0  0  0  0  0
    1.4440   -0.1500   -0.0050 C   0  0  0  0  0  0  0  0  0  0  0  0
    0.2440   -0.0210   -0.8380 C   0  0  0  0  0  0  0  0  0  0  0  0
   -0.2740   -1.1010   -1.3200 O   0  0  0  0  0  0  0  0  0  0  0  0
   -0.3730    1.2000   -1.1910 N   0  0  0  0  0  0  0  0  0  0  0  0
   -1.4690    1.1250   -2.2330 C   0  0  2  0  0  0  0  0  0  0  0  0
   -0.7890    0.3000   -3.2190 C   0  0  0  0  0  0  0  0  0  0  0  0
   -0.2130   -0.3830   -4.0570 N   0  0  0  0  0  0  0  0  0  0  0  0
   -1.4520    2.5910   -2.8200 C   0  0  0  0  0  0  0  0  0  0  0  0
   -1.7330    3.5850   -1.7470 C   0  0  0  0  0  0  0  0  0  0  0  0
   -2.7610    0.8110   -1.7790 C   0  0  0  0  0  0  0  0  0  0  0  0
   -3.8450    1.0440   -2.8310 C   0  0  0  0  0  0  0  0  0  0  0  0
   -5.0700    0.8660   -2.3520 C   0  0  0  0  0  0  0  0  0  0  0  0
   -5.6260    0.5370   -1.2140 C   0  0  0  0  0  0  0  0  0  0  0  0
   -4.5510    0.2910   -0.1510 C   0  0  0  0  0  0  0  0  0  0  0  0
   -3.3040    0.4770   -0.6450 C   0  0  0  0  0  0  0  0  0  0  0  0
   -4.8930   -0.1750    1.1560 C   0  0  0  0  0  0  0  0  0  0  0  0
   -4.9760   -1.6940    1.1110 C   0  0  0  0  0  0  0  0  0  0  0  0
   -6.3430   -2.1860    0.9090 N   0  0  0  0  0  0  0  0  0  0  0  0
   -6.4900   -2.7050   -0.4100 C   0  0  0  0  0  0  0  0  0  0  0  0
   -7.8310   -2.7010   -0.9790 C   0  0  0  0  0  0  0  0  0  0  0  0
   -8.9230   -2.0490   -0.8240 C   0  0  0  0  0  0  0  0  0  0  0  0
   -9.3800   -0.9600    0.0190 C   0  0  2  0  0  0  0  0  0  0  0  0
  -10.9330   -0.9730    0.1170 C   0  0  0  0  0  0  0  0  0  0  0  0
  -11.1170    0.2260    0.7880 O   0  0  0  0  0  0  0  0  0  0  0  0
  -10.2990    1.1590    0.1550 C   0  0  0  0  0  0  0  0  0  0  0  0
   -9.2120    0.4220   -0.5560 C   0  0  1  0  0  0  0  0  0  0  0  0
   -7.8570    0.9370   -0.0750 C   0  0  0  0  0  0  0  0  0  0  0  0
   -6.8140    0.3660   -0.7420 O   0  0  0  0  0  0  0  0  0  0  0  0
    2.0460    0.9010    0.6770 C   0  0  0  0  0  0  0  0  0  0  0  0
    3.3390    0.7490    1.2100 C   0  0  0  0  0  0  0  0  0  0  0  0
    3.9440    1.8200    1.9050 N   0  0  0  0  0  0  0  0  0  0  0  0
  1  2  1  0
  2  3  1  0
  3  4  1  0
  4  5  2  0
  4  6  1  0
  6  7  1  0
  7  8  1  0
  7  9  1  0
  9 10  1  6
  9 11  1  0
 11 12  2  0
 11 13  1  0
 13 14  1  0
 14 15  2  0
 14 46  1  0
 15 16  1  0
 16 17  2  0
 17 18  1  0
 17 45  1  0
 18 19  2  0
 18 20  1  0
 20 21  1  0
 21 22  1  6
 21 24  1  0
 21 26  1  0
 22 23  3  0
 24 25  1  0
 26 27  2  0
 26 31  1  0
 27 28  1  0
 28 29  2  0
 29 30  1  0
 29 44  1  0
 30 31  2  0
 30 32  1  0
 32 33  1  0
 33 34  1  0
 34 35  1  0
 35 36  1  0
 36 37  2  0
 37 38  1  0
 38 39  1  6
 38 42  1  0
 39 40  1  0
 40 41  1  0
 42 41  1  1
 42 43  1  0
 43 44  1  0
 45 46  2  0
 46 47  1  0
M  CHG  1  34   1
M  END
