
     RDKit          3D

 47 51  0  0  0  0  0  0  0  0999 V2000
    9.4900    0.1950   -5.6820 C   0  0  0  0  0  0  0  0  0  0  0  0
    9.1390    0.0510   -4.2340 C   0  0  0  0  0  0  0  0  0  0  0  0
    9.5970    0.8950   -3.2660 C   0  0  0  0  0  0  0  0  0  0  0  0
    9.2330    0.7300   -1.9260 C   0  0  0  0  0  0  0  0  0  0  0  0
    8.3860   -0.3060   -1.5330 C   0  0  0  0  0  0  0  0  0  0  0  0
    8.0290   -0.4300   -0.1510 N   0  0  0  0  0  0  0  0  0  0  0  0
    8.9090   -0.6530    0.8350 N   0  0  0  0  0  0  0  0  0  0  0  0
    8.2730   -0.6990    2.0280 C   0  0  0  0  0  0  0  0  0  0  0  0
    8.8210   -0.8970    3.3810 C   0  0  1  0  0  0  0  0  0  0  0  0
    7.7120   -0.5910    4.3900 C   0  0  0  0  0  0  0  0  0  0  0  0
    9.1990   -2.3360    3.6050 C   0  0  0  0  0  0  0  0  0  0  0  0
    9.9790    0.0260    3.6670 C   0  0  0  0  0  0  0  0  0  0  0  0
    6.9370   -0.4940    1.7310 C   0  0  0  0  0  0  0  0  0  0  0  0
    6.8000   -0.3290    0.3770 C   0  0  0  0  0  0  0  0  0  0  0  0
    5.6220   -0.0860   -0.3840 N   0  0  0  0  0  0  0  0  0  0  0  0
    4.3460    0.0450    0.1940 C   0  0  0  0  0  0  0  0  0  0  0  0
    4.1650   -0.0410    1.4260 O   0  0  0  0  0  0  0  0  0  0  0  0
    3.1620    0.2830   -0.5820 N   0  0  0  0  0  0  0  0  0  0  0  0
    1.8650    0.4080    0.0490 C   0  0  0  0  0  0  0  0  0  0  0  0
    0.8360    0.6720   -0.9990 C   0  0  0  0  0  0  0  0  0  0  0  0
   -0.5340    0.7640   -0.4440 N   0  0  2  0  0  0  0  0  0  0  0  0
   -1.3830    0.2330   -1.4690 C   0  0  0  0  0  0  0  0  0  0  0  0
   -2.8020    0.6620   -1.4850 C   0  0  0  0  0  0  0  0  0  0  0  0
   -3.0780    1.5210   -0.3650 N   0  0  0  0  0  0  0  0  0  0  0  0
   -4.3110    1.4050    0.3840 C   0  0  0  0  0  0  0  0  0  0  0  0
   -4.4380    2.0330    1.4650 O   0  0  0  0  0  0  0  0  0  0  0  0
   -5.3860    0.6080   -0.0510 N   0  0  0  0  0  0  0  0  0  0  0  0
   -6.5790    0.3390    0.6680 C   0  0  0  0  0  0  0  0  0  0  0  0
   -6.9220    0.5950    1.9650 C   0  0  0  0  0  0  0  0  0  0  0  0
   -8.2300    0.1460    2.1600 C   0  0  0  0  0  0  0  0  0  0  0  0
   -8.9890    0.2000    3.4370 C   0  0  2  0  0  0  0  0  0  0  0  0
   -8.5960   -1.0080    4.2670 C   0  0  0  0  0  0  0  0  0  0  0  0
  -10.4610    0.1780    3.1230 C   0  0  0  0  0  0  0  0  0  0  0  0
   -8.6290    1.4680    4.1510 C   0  0  0  0  0  0  0  0  0  0  0  0
   -8.6130   -0.3560    0.9680 N   0  0  0  0  0  0  0  0  0  0  0  0
   -7.6500   -0.2430    0.0970 N   0  0  0  0  0  0  0  0  0  0  0  0
   -7.8080   -0.6440   -1.2670 C   0  0  0  0  0  0  0  0  0  0  0  0
   -7.6350    0.3430   -2.2280 C   0  0  0  0  0  0  0  0  0  0  0  0
   -7.8030    0.0370   -3.5630 C   0  0  0  0  0  0  0  0  0  0  0  0
   -8.1380   -1.2160   -4.0130 C   0  0  0  0  0  0  0  0  0  0  0  0
   -8.3050   -1.4750   -5.4740 C   0  0  0  0  0  0  0  0  0  0  0  0
   -8.3060   -2.1900   -3.0500 C   0  0  0  0  0  0  0  0  0  0  0  0
   -8.1400   -1.8980   -1.6840 C   0  0  0  0  0  0  0  0  0  0  0  0
   -2.1640    2.5790   -0.0380 C   0  0  0  0  0  0  0  0  0  0  0  0
   -0.7540    2.1360   -0.1000 C   0  0  0  0  0  0  0  0  0  0  0  0
    7.9340   -1.1420   -2.5230 C   0  0  0  0  0  0  0  0  0  0  0  0
    8.2980   -0.9790   -3.8530 C   0  0  0  0  0  0  0  0  0  0  0  0
  1  2  1  0
  2  3  2  0
  2 47  1  0
  3  4  1  0
  4  5  2  0
  5  6  1  0
  5 46  1  0
  6  7  1  0
  6 14  1  0
  7  8  2  0
  8  9  1  0
  8 13  1  0
  9 10  1  1
  9 11  1  0
  9 12  1  0
 13 14  2  0
 14 15  1  0
 15 16  1  0
 16 17  2  0
 16 18  1  0
 18 19  1  0
 19 20  1  0
 21 20  1  6
 21 22  1  0
 21 45  1  0
 22 23  1  0
 23 24  1  0
 24 25  1  0
 24 44  1  0
 25 26  2  0
 25 27  1  0
 27 28  1  0
 28 29  2  0
 28 36  1  0
 29 30  1  0
 30 31  1  0
 30 35  2  0
 31 32  1  1
 31 33  1  0
 31 34  1  0
 35 36  1  0
 36 37  1  0
 37 38  2  0
 37 43  1  0
 38 39  1  0
 39 40  2  0
 40 41  1  0
 40 42  1  0
 42 43  2  0
 44 45  1  0
 46 47  2  0
M  CHG  1  21   1
M  END
