
     RDKit          3D

 46 50  0  0  0  0  0  0  0  0999 V2000
    9.1100   -2.9830   -0.5340 C   0  0  0  0  0  0  0  0  0  0  0  0
    7.7310   -3.1870    0.0190 C   0  0  0  0  0  0  0  0  0  0  0  0
    7.5430   -3.8720    1.1880 C   0  0  0  0  0  0  0  0  0  0  0  0
    6.2740   -4.0330    1.6490 C   0  0  0  0  0  0  0  0  0  0  0  0
    5.1650   -3.5180    0.9600 C   0  0  0  0  0  0  0  0  0  0  0  0
    3.9490   -3.7550    1.5350 O   0  0  0  0  0  0  0  0  0  0  0  0
    2.7140   -3.3570    1.0820 C   0  0  0  0  0  0  0  0  0  0  0  0
    2.5230   -1.8660    1.0050 C   0  0  0  0  0  0  0  0  0  0  0  0
    3.5000   -1.2000    1.3900 O   0  0  0  0  0  0  0  0  0  0  0  0
    1.3100   -1.3170    0.5280 N   0  0  0  0  0  0  0  0  0  0  0  0
    1.1020    0.0730    0.4450 C   0  0  0  0  0  0  0  0  0  0  0  0
    2.0460    1.0430    0.6220 C   0  0  0  0  0  0  0  0  0  0  0  0
    1.7590    2.3770    0.4890 C   0  0  0  0  0  0  0  0  0  0  0  0
    0.5020    2.8570    0.1690 C   0  0  0  0  0  0  0  0  0  0  0  0
    0.3520    4.2880    0.0630 C   0  0  2  0  0  0  0  0  0  0  0  0
    0.4520    4.8640    1.4630 C   0  0  0  0  0  0  0  0  0  0  0  0
   -0.5810    4.3530    2.3770 C   0  0  0  0  0  0  0  0  0  0  0  0
   -0.6060    4.8140    3.7120 N   0  0  0  0  0  0  0  0  0  0  0  0
   -1.4440    3.5280    2.0360 O   0  0  0  0  0  0  0  0  0  0  0  0
   -0.6340    4.9540   -0.6150 N   0  0  1  0  0  0  0  0  0  0  0  0
   -0.0700    6.2660   -1.0270 C   0  0  0  0  0  0  0  0  0  0  0  0
   -1.1460    7.2980   -1.0570 C   0  0  0  0  0  0  0  0  0  0  0  0
   -2.3150    6.6800   -1.5080 O   0  0  0  0  0  0  0  0  0  0  0  0
   -1.9150    5.7350   -2.4460 C   0  0  0  0  0  0  0  0  0  0  0  0
   -1.3320    4.4860   -1.7400 C   0  0  0  0  0  0  0  0  0  0  0  0
   -0.4570    1.8830   -0.0130 C   0  0  0  0  0  0  0  0  0  0  0  0
   -0.1920    0.5430    0.1160 C   0  0  0  0  0  0  0  0  0  0  0  0
   -1.2540   -0.4420   -0.0250 C   0  0  0  0  0  0  0  0  0  0  0  0
   -2.4280   -0.0960   -0.4850 C   0  0  0  0  0  0  0  0  0  0  0  0
   -3.6070   -0.9050   -0.7040 C   0  0  0  0  0  0  0  0  0  0  0  0
   -4.6910   -0.3480   -1.1270 O   0  0  0  0  0  0  0  0  0  0  0  0
   -3.6500   -2.2950   -0.4760 N   0  0  0  0  0  0  0  0  0  0  0  0
   -2.5700   -3.2980   -0.5310 C   0  0  0  0  0  0  0  0  0  0  0  0
   -3.2640   -4.4460   -1.2810 C   0  0  0  0  0  0  0  0  0  0  0  0
   -4.6460   -4.3690   -0.7980 C   0  0  0  0  0  0  0  0  0  0  0  0
   -5.6480   -5.3100   -0.7730 C   0  0  0  0  0  0  0  0  0  0  0  0
   -6.8370   -4.9390   -0.1960 C   0  0  0  0  0  0  0  0  0  0  0  0
   -7.0710   -3.6800    0.3560 C   0  0  0  0  0  0  0  0  0  0  0  0
   -8.3880   -3.3760    0.9080 C   0  0  0  0  0  0  0  0  0  0  0  0
   -8.7490   -2.2480    1.2870 O   0  0  0  0  0  0  0  0  0  0  0  0
   -6.0340   -2.7440    0.3190 C   0  0  0  0  0  0  0  0  0  0  0  0
   -6.2180   -1.4360    0.9700 C   0  0  0  0  0  0  0  0  0  0  0  0
   -4.8390   -3.0980   -0.2600 C   0  0  0  0  0  0  0  0  0  0  0  0
    5.4090   -2.8420   -0.2060 C   0  0  0  0  0  0  0  0  0  0  0  0
    6.6740   -2.6500   -0.7170 C   0  0  0  0  0  0  0  0  0  0  0  0
    6.9560   -1.9220   -1.9790 C   0  0  0  0  0  0  0  0  0  0  0  0
  1  2  1  0
  2  3  2  0
  2 45  1  0
  3  4  1  0
  4  5  2  0
  5  6  1  0
  5 44  1  0
  6  7  1  0
  7  8  1  0
  8  9  2  0
  8 10  1  0
 10 11  1  0
 11 12  2  0
 11 27  1  0
 12 13  1  0
 13 14  2  0
 14 15  1  0
 14 26  1  0
 15 16  1  1
 15 20  1  0
 16 17  1  0
 17 18  1  0
 17 19  2  0
 20 21  1  6
 20 25  1  0
 21 22  1  0
 22 23  1  0
 23 24  1  0
 24 25  1  0
 26 27  2  0
 27 28  1  0
 28 29  2  3
 29 30  1  0
 30 31  2  0
 30 32  1  0
 32 33  1  0
 32 43  1  0
 33 34  1  0
 34 35  1  0
 35 36  2  0
 35 43  1  0
 36 37  1  0
 37 38  2  0
 38 39  1  0
 38 41  1  0
 39 40  2  0
 41 42  1  0
 41 43  2  0
 44 45  2  0
 45 46  1  0
M  CHG  1  20   1
M  END
