
     RDKit          3D

 40 44  0  0  0  0  0  0  0  0999 V2000
    1.7400   -5.9010   -1.7770 C   0  0  0  0  0  0  0  0  0  0  0  0
    2.3590   -4.6640   -1.1500 C   0  0  0  0  0  0  0  0  0  0  0  0
    1.4730   -3.4870   -1.4340 C   0  0  0  0  0  0  0  0  0  0  0  0
    1.9800   -2.2080   -0.8730 C   0  0  0  0  0  0  0  0  0  0  0  0
    1.4710   -1.6400    0.2250 N   0  0  0  0  0  0  0  0  0  0  0  0
    2.1120   -0.5000    0.4970 N   0  0  0  0  0  0  0  0  0  0  0  0
    1.7430    0.2830    1.6720 C   0  0  0  0  0  0  0  0  0  0  0  0
    0.7920    1.3590    1.3600 C   0  0  0  0  0  0  0  0  0  0  0  0
   -0.5130    0.9600    0.8050 C   0  0  0  0  0  0  0  0  0  0  0  0
   -0.8850   -0.2190    0.9330 O   0  0  0  0  0  0  0  0  0  0  0  0
   -1.3690    1.8490    0.1260 N   0  0  0  0  0  0  0  0  0  0  0  0
   -2.6250    1.5890   -0.4320 C   0  0  0  0  0  0  0  0  0  0  0  0
   -2.8390    1.9910   -1.7560 C   0  0  0  0  0  0  0  0  0  0  0  0
   -4.0860    1.8040   -2.3050 C   0  0  0  0  0  0  0  0  0  0  0  0
   -5.1080    1.2300   -1.5600 C   0  0  0  0  0  0  0  0  0  0  0  0
   -6.3700    1.0630   -2.0870 C   0  0  0  0  0  0  0  0  0  0  0  0
   -7.4170    0.5220   -1.3750 C   0  0  0  0  0  0  0  0  0  0  0  0
   -7.2110    0.1220   -0.0640 C   0  0  0  0  0  0  0  0  0  0  0  0
   -8.3170   -0.4310    0.7640 C   0  0  1  0  0  0  0  0  0  0  0  0
   -8.2110    0.0680    2.1920 C   0  0  0  0  0  0  0  0  0  0  0  0
   -9.6460    0.1180    0.2420 C   0  0  0  0  0  0  0  0  0  0  0  0
   -8.3470   -1.9320    0.7810 C   0  0  0  0  0  0  0  0  0  0  0  0
   -5.9620    0.2800    0.4740 C   0  0  0  0  0  0  0  0  0  0  0  0
   -4.9060    0.8320   -0.2580 C   0  0  0  0  0  0  0  0  0  0  0  0
   -3.6440    1.0240    0.2920 C   0  0  0  0  0  0  0  0  0  0  0  0
    3.0480   -0.3130   -0.4260 C   0  0  0  0  0  0  0  0  0  0  0  0
    3.9880    0.7490   -0.6450 C   0  0  0  0  0  0  0  0  0  0  0  0
    4.8230    0.6790   -1.6290 O   0  0  0  0  0  0  0  0  0  0  0  0
    4.0940    1.9120    0.1400 N   0  0  0  0  0  0  0  0  0  0  0  0
    5.1010    2.9220   -0.2400 C   0  0  0  0  0  0  0  0  0  0  0  0
    6.4830    2.3820   -0.2230 C   0  0  0  0  0  0  0  0  0  0  0  0
    7.2090    2.0330   -1.2990 N   0  0  0  0  0  0  0  0  0  0  0  0
    8.3840    1.6190   -0.9050 N   0  0  0  0  0  0  0  0  0  0  0  0
    8.4440    1.6960    0.4240 C   0  0  0  0  0  0  0  0  0  0  0  0
    7.2620    2.1700    0.8450 N   0  0  0  0  0  0  0  0  0  0  0  0
    7.2110    2.2810    2.2810 C   0  0  0  0  0  0  0  0  0  0  0  0
    8.3740    1.4580    2.7450 C   0  0  0  0  0  0  0  0  0  0  0  0
    9.3350    1.4690    1.6010 C   0  0  0  0  0  0  0  0  0  0  0  0
    2.9830   -1.4010   -1.3190 C   0  0  0  0  0  0  0  0  0  0  0  0
    3.8220   -1.6620   -2.5040 C   0  0  0  0  0  0  0  0  0  0  0  0
  1  2  1  0
  2  3  1  0
  3  4  1  0
  4  5  2  0
  4 39  1  0
  5  6  1  0
  6  7  1  0
  6 26  1  0
  7  8  1  0
  8  9  1  0
  9 10  2  0
  9 11  1  0
 11 12  1  0
 12 13  2  0
 12 25  1  0
 13 14  1  0
 14 15  2  0
 15 16  1  0
 15 24  1  0
 16 17  2  0
 17 18  1  0
 18 19  1  0
 18 23  2  0
 19 20  1  1
 19 21  1  0
 19 22  1  0
 23 24  1  0
 24 25  2  0
 26 27  1  0
 26 39  2  0
 27 28  2  0
 27 29  1  0
 29 30  1  0
 30 31  1  0
 31 32  2  0
 31 35  1  0
 32 33  1  0
 33 34  2  0
 34 35  1  0
 34 38  1  0
 35 36  1  0
 36 37  1  0
 37 38  1  0
 39 40  1  0
M  END
