
     RDKit          3D

 40 44  0  0  0  0  0  0  0  0999 V2000
    5.9770    1.0260    1.3430 C   0  0  0  0  0  0  0  0  0  0  0  0
    6.4810   -0.0310    0.7570 C   0  0  0  0  0  0  0  0  0  0  0  0
    5.7270   -1.2140    0.4310 C   0  0  0  0  0  0  0  0  0  0  0  0
    6.3630   -2.2100   -0.1610 C   0  0  0  0  0  0  0  0  0  0  0  0
    7.7980   -2.0810   -0.4630 C   0  0  0  0  0  0  0  0  0  0  0  0
    4.2960   -1.3570    0.7190 C   0  0  0  0  0  0  0  0  0  0  0  0
    3.5110   -0.5300    1.2660 N   0  0  0  0  0  0  0  0  0  0  0  0
    2.1900   -1.0520    1.3630 N   0  0  0  0  0  0  0  0  0  0  0  0
    1.1840   -0.6340    2.2860 C   0  0  0  0  0  0  0  0  0  0  0  0
    0.8750   -1.6900    3.3290 C   0  0  0  0  0  0  0  0  0  0  0  0
    2.1000   -2.0740    0.3680 C   0  0  1  0  0  0  0  0  0  0  0  0
    1.7970   -1.6290   -1.0000 C   0  0  0  0  0  0  0  0  0  0  0  0
    0.5040   -0.9570   -1.1980 N   0  0  0  0  0  0  0  0  0  0  0  0
   -0.6270   -1.7470   -1.5670 C   0  0  0  0  0  0  0  0  0  0  0  0
   -1.3820   -2.4510   -0.5110 C   0  0  2  0  0  0  0  0  0  0  0  0
   -2.5630   -3.2280   -1.1580 C   0  0  0  0  0  0  0  0  0  0  0  0
   -3.7310   -2.2690   -1.3160 C   0  0  0  0  0  0  0  0  0  0  0  0
   -4.3230   -1.9660   -0.0210 N   0  0  0  0  0  0  0  0  0  0  0  0
   -5.4150   -2.8990    0.2510 C   0  0  0  0  0  0  0  0  0  0  0  0
   -6.5540   -2.6560   -0.6950 C   0  0  0  0  0  0  0  0  0  0  0  0
   -3.3610   -2.1470    1.0180 C   0  0  0  0  0  0  0  0  0  0  0  0
   -1.9620   -1.7040    0.6130 C   0  0  0  0  0  0  0  0  0  0  0  0
    0.4580    0.4270   -0.9960 C   0  0  0  0  0  0  0  0  0  0  0  0
    1.5560    0.9770   -0.5930 O   0  0  0  0  0  0  0  0  0  0  0  0
   -0.6550    1.3400   -1.1830 C   0  0  0  0  0  0  0  0  0  0  0  0
   -0.4390    2.6930   -0.9050 C   0  0  0  0  0  0  0  0  0  0  0  0
   -1.4570    3.5890   -1.0750 C   0  0  0  0  0  0  0  0  0  0  0  0
   -2.7010    3.1530   -1.5240 C   0  0  0  0  0  0  0  0  0  0  0  0
   -2.8230    1.8400   -1.7670 N   0  0  0  0  0  0  0  0  0  0  0  0
   -1.8610    0.9890   -1.6070 N   0  0  0  0  0  0  0  0  0  0  0  0
   -3.7250    4.0400   -1.7000 C   0  0  0  0  0  0  0  0  0  0  0  0
   -4.8430    3.5980   -2.1110 O   0  0  0  0  0  0  0  0  0  0  0  0
   -3.5120    5.3360   -1.4340 N   0  0  0  0  0  0  0  0  0  0  0  0
   -2.3260    5.7950   -1.0000 C   0  0  0  0  0  0  0  0  0  0  0  0
   -2.1720    7.1530   -0.7450 C   0  0  0  0  0  0  0  0  0  0  0  0
   -0.9690    7.6310   -0.3050 C   0  0  0  0  0  0  0  0  0  0  0  0
    0.0890    6.7570   -0.1160 C   0  0  0  0  0  0  0  0  0  0  0  0
   -0.0400    5.4000   -0.3630 C   0  0  0  0  0  0  0  0  0  0  0  0
   -1.2540    4.9440   -0.8030 C   0  0  0  0  0  0  0  0  0  0  0  0
    3.5240   -2.6080    0.3830 C   0  0  0  0  0  0  0  0  0  0  0  0
  1  2  2  0
  2  3  1  0
  3  4  2  3
  3  6  1  0
  4  5  1  0
  6  7  2  0
  6 40  1  0
  7  8  1  0
  8  9  1  0
  8 11  1  0
  9 10  1  0
 11 12  1  6
 11 40  1  0
 12 13  1  0
 13 14  1  0
 13 23  1  0
 15 14  1  6
 15 16  1  0
 15 22  1  0
 16 17  1  0
 17 18  1  0
 18 19  1  0
 18 21  1  0
 19 20  1  0
 21 22  1  0
 23 24  2  0
 23 25  1  0
 25 26  2  0
 25 30  1  0
 26 27  1  0
 27 28  2  0
 27 39  1  0
 28 29  1  0
 28 31  1  0
 29 30  2  0
 31 32  2  0
 31 33  1  0
 33 34  1  0
 34 35  2  0
 34 39  1  0
 35 36  1  0
 36 37  2  0
 37 38  1  0
 38 39  2  0
M  END
