
     RDKit          3D

 40 44  0  0  0  0  0  0  0  0999 V2000
    7.8970    3.4830   -0.6170 C   0  0  0  0  0  0  0  0  0  0  0  0
    7.4710    2.6830    0.6350 C   0  0  0  0  0  0  0  0  0  0  0  0
    6.3040    1.8090    0.3050 C   0  0  0  0  0  0  0  0  0  0  0  0
    5.8390    0.9980    1.4770 C   0  0  0  0  0  0  0  0  0  0  0  0
    6.3640    1.2370    2.5820 O   0  0  0  0  0  0  0  0  0  0  0  0
    4.8500    0.0250    1.2830 N   0  0  0  0  0  0  0  0  0  0  0  0
    4.3140   -0.1940   -0.0510 C   0  0  0  0  0  0  0  0  0  0  0  0
    3.5640   -1.5240   -0.0930 C   0  0  0  0  0  0  0  0  0  0  0  0
    2.5290   -1.5150    0.9110 N   0  0  0  0  0  0  0  0  0  0  0  0
    1.3250   -1.0310    0.4590 C   0  0  0  0  0  0  0  0  0  0  0  0
    0.4010   -1.5280   -0.5410 C   0  0  0  0  0  0  0  0  0  0  0  0
   -0.4900   -0.5290   -1.0690 C   0  0  0  0  0  0  0  0  0  0  0  0
   -0.5980    0.7420   -0.4290 N   0  0  0  0  0  0  0  0  0  0  0  0
   -1.4650    1.7770   -0.8740 C   0  0  0  0  0  0  0  0  0  0  0  0
   -2.7960    1.9130   -0.2620 C   0  0  0  0  0  0  0  0  0  0  0  0
   -3.7050    0.7380   -0.2770 C   0  0  0  0  0  0  0  0  0  0  0  0
   -5.0460    1.1730    0.2520 C   0  0  0  0  0  0  0  0  0  0  0  0
   -5.5810    1.0200    1.4880 C   0  0  0  0  0  0  0  0  0  0  0  0
   -6.8230    1.5910    1.4760 N   0  0  0  0  0  0  0  0  0  0  0  0
   -7.7090    1.6510    2.5930 C   0  0  0  0  0  0  0  0  0  0  0  0
   -7.0980    2.1030    0.2630 C   0  0  0  0  0  0  0  0  0  0  0  0
   -8.1710    2.7800   -0.3110 C   0  0  0  0  0  0  0  0  0  0  0  0
   -8.1090    3.1790   -1.6170 C   0  0  0  0  0  0  0  0  0  0  0  0
   -7.0090    2.9320   -2.4030 C   0  0  0  0  0  0  0  0  0  0  0  0
   -5.9250    2.2490   -1.8250 C   0  0  0  0  0  0  0  0  0  0  0  0
   -6.0010    1.8570   -0.5180 C   0  0  0  0  0  0  0  0  0  0  0  0
   -1.1760   -0.8260   -2.1850 N   0  0  0  0  0  0  0  0  0  0  0  0
   -1.1010   -1.9730   -2.8350 C   0  0  0  0  0  0  0  0  0  0  0  0
   -0.2810   -2.9770   -2.3740 C   0  0  0  0  0  0  0  0  0  0  0  0
   -0.2890   -4.1790   -2.9580 N   0  0  0  0  0  0  0  0  0  0  0  0
    0.3750   -5.2280   -2.4800 C   0  0  0  0  0  0  0  0  0  0  0  0
    0.3960   -6.3370   -3.0170 O   0  0  0  0  0  0  0  0  0  0  0  0
    1.0800   -5.0090   -1.3040 C   0  0  0  0  0  0  0  0  0  0  0  0
    1.7600   -6.0640   -0.6280 C   0  0  0  0  0  0  0  0  0  0  0  0
    2.3240   -6.9700   -0.0390 N   0  0  0  0  0  0  0  0  0  0  0  0
    1.1340   -3.7790   -0.6470 C   0  0  0  0  0  0  0  0  0  0  0  0
    1.5950   -3.7190    0.7430 C   0  0  0  0  0  0  0  0  0  0  0  0
    0.4690   -2.7130   -1.1790 C   0  0  0  0  0  0  0  0  0  0  0  0
    2.8840   -1.0580    2.1940 C   0  0  0  0  0  0  0  0  0  0  0  0
    4.3450   -0.7620    2.3730 C   0  0  0  0  0  0  0  0  0  0  0  0
  1  2  1  0
  2  3  1  0
  3  4  1  0
  4  5  2  0
  4  6  1  0
  6  7  1  0
  6 40  1  0
  7  8  1  0
  8  9  1  0
  9 10  1  0
  9 39  1  0
 10 11  1  0
 11 12  1  0
 11 38  2  0
 12 13  1  0
 12 27  2  0
 13 14  1  0
 14 15  1  0
 15 16  1  0
 16 17  1  0
 17 18  2  0
 17 26  1  0
 18 19  1  0
 19 20  1  0
 19 21  1  0
 21 22  2  0
 21 26  1  0
 22 23  1  0
 23 24  2  0
 24 25  1  0
 25 26  2  0
 27 28  1  0
 28 29  2  0
 29 30  1  0
 29 38  1  0
 30 31  1  0
 31 32  2  0
 31 33  1  0
 33 34  1  0
 33 36  2  0
 34 35  3  0
 36 37  1  0
 36 38  1  0
 39 40  1  0
M  END
