
     RDKit          3D

 40 44  0  0  0  0  0  0  0  0999 V2000
   12.6490    1.7020   -1.5330 C   0  0  0  0  0  0  0  0  0  0  0  0
   11.2310    1.4230   -1.9250 C   0  0  0  0  0  0  0  0  0  0  0  0
   10.5600    0.5220   -0.9050 C   0  0  0  0  0  0  0  0  0  0  0  0
   11.2070    0.0890    0.0630 O   0  0  0  0  0  0  0  0  0  0  0  0
    9.2080    0.2310   -1.1350 N   0  0  0  0  0  0  0  0  0  0  0  0
    8.4040   -0.5960   -0.3160 C   0  0  0  0  0  0  0  0  0  0  0  0
    8.8480   -1.2410    0.7880 C   0  0  0  0  0  0  0  0  0  0  0  0
    7.9730   -2.0120    1.5140 N   0  0  0  0  0  0  0  0  0  0  0  0
    6.6960   -2.1090    1.1120 C   0  0  0  0  0  0  0  0  0  0  0  0
    6.2440   -1.4570   -0.0050 C   0  0  0  0  0  0  0  0  0  0  0  0
    4.8750   -1.5750   -0.4080 N   0  0  0  0  0  0  0  0  0  0  0  0
    4.0010   -2.4230    0.3190 C   0  0  0  0  0  0  0  0  0  0  0  0
    2.5440   -2.2580   -0.0790 C   0  0  0  0  0  0  0  0  0  0  0  0
    2.2210   -0.9060   -0.4120 N   0  0  0  0  0  0  0  0  0  0  0  0
    0.9440   -0.3270   -0.1980 C   0  0  0  0  0  0  0  0  0  0  0  0
    0.7480    0.6640    0.7580 C   0  0  0  0  0  0  0  0  0  0  0  0
   -0.4840    1.2360    0.9710 C   0  0  0  0  0  0  0  0  0  0  0  0
   -1.5440    0.7990    0.2000 C   0  0  0  0  0  0  0  0  0  0  0  0
   -2.8600    1.4230    0.4300 C   0  0  0  0  0  0  0  0  0  0  0  0
   -3.6360    1.6270   -0.5480 O   0  0  0  0  0  0  0  0  0  0  0  0
   -3.3020    1.8110    1.7150 N   0  0  0  0  0  0  0  0  0  0  0  0
   -4.5790    2.4350    1.9240 C   0  0  0  0  0  0  0  0  0  0  0  0
   -5.7100    1.5100    1.7900 C   0  0  0  0  0  0  0  0  0  0  0  0
   -5.9240    0.5090    2.7010 C   0  0  0  0  0  0  0  0  0  0  0  0
   -7.0260   -0.3110    2.5030 C   0  0  0  0  0  0  0  0  0  0  0  0
   -7.3330   -1.4340    3.4530 C   0  0  0  0  0  0  0  0  0  0  0  0
   -7.8720   -0.1190    1.4240 C   0  0  0  0  0  0  0  0  0  0  0  0
   -9.0250   -0.9790    1.2290 C   0  0  0  0  0  0  0  0  0  0  0  0
   -7.6260    0.8880    0.5390 C   0  0  0  0  0  0  0  0  0  0  0  0
   -8.4960    1.1060   -0.6000 C   0  0  1  0  0  0  0  0  0  0  0  0
   -8.2240    2.3100   -1.4670 C   0  0  0  0  0  0  0  0  0  0  0  0
   -8.6000    1.4390   -2.6590 C   0  0  0  0  0  0  0  0  0  0  0  0
   -8.4250    0.1920   -1.7780 C   0  0  0  0  0  0  0  0  0  0  0  0
   -6.5480    1.6590    0.7670 N   0  0  0  0  0  0  0  0  0  0  0  0
   -1.3420   -0.1820   -0.7430 C   0  0  0  0  0  0  0  0  0  0  0  0
   -0.1140   -0.7740   -0.9760 C   0  0  0  0  0  0  0  0  0  0  0  0
    0.0810   -1.8350   -1.9940 C   0  0  0  0  0  0  0  0  0  0  0  0
    3.2120   -0.0040   -1.0310 C   0  0  0  0  0  0  0  0  0  0  0  0
    4.3870   -0.8310   -1.5480 C   0  0  0  0  0  0  0  0  0  0  0  0
    7.1050   -0.7100   -0.7030 N   0  0  0  0  0  0  0  0  0  0  0  0
  1  2  1  0
  2  3  1  0
  3  4  2  0
  3  5  1  0
  5  6  1  0
  6  7  2  0
  6 40  1  0
  7  8  1  0
  8  9  2  0
  9 10  1  0
 10 11  1  0
 10 40  2  0
 11 12  1  0
 11 39  1  0
 12 13  1  0
 13 14  1  0
 14 15  1  0
 14 38  1  0
 15 16  2  0
 15 36  1  0
 16 17  1  0
 17 18  2  0
 18 19  1  0
 18 35  1  0
 19 20  2  0
 19 21  1  0
 21 22  1  0
 22 23  1  0
 23 24  2  0
 23 34  1  0
 24 25  1  0
 25 26  1  0
 25 27  2  0
 27 28  1  0
 27 29  1  0
 30 29  1  1
 29 34  2  0
 30 31  1  0
 30 33  1  0
 31 32  1  0
 32 33  1  0
 35 36  2  0
 36 37  1  0
 38 39  1  0
M  END
