
     RDKit          3D

 44 48  0  0  0  0  0  0  0  0999 V2000
    5.3530   -1.3990   -1.0840 C   0  0  0  0  0  0  0  0  0  0  0  0
    6.0050   -0.3820   -0.1410 C   0  0  1  0  0  0  0  0  0  0  0  0
    5.2810   -0.4680    1.2160 C   0  0  0  0  0  0  0  0  0  0  0  0
    7.3370   -0.8500    0.1060 N   0  0  0  0  0  0  0  0  0  0  0  0
    8.4040   -0.2160   -0.1130 C   0  0  0  0  0  0  0  0  0  0  0  0
    9.6970   -0.7380    0.1550 N   0  0  0  0  0  0  0  0  0  0  0  0
   10.6710    0.0790    0.4200 C   0  0  0  0  0  0  0  0  0  0  0  0
   11.9600   -0.4430    0.6880 N   0  0  0  0  0  0  0  0  0  0  0  0
   10.4900    1.4930    0.4490 N   0  0  0  0  0  0  0  0  0  0  0  0
    9.1840    2.0080    0.1740 C   0  0  0  0  0  0  0  0  0  0  0  0
    8.8460    3.1070    0.6410 O   0  0  0  0  0  0  0  0  0  0  0  0
    8.3180    1.1440   -0.6810 C   0  0  2  0  0  0  0  0  0  0  0  0
    7.0180    1.6440   -0.8980 N   0  0  0  0  0  0  0  0  0  0  0  0
    5.9410    0.9940   -0.6700 C   0  0  0  0  0  0  0  0  0  0  0  0
    4.6350    1.6310   -0.9440 C   0  0  0  0  0  0  0  0  0  0  0  0
    4.5660    2.8040   -1.3880 O   0  0  0  0  0  0  0  0  0  0  0  0
    3.3890    0.9510   -0.7190 N   0  0  0  0  0  0  0  0  0  0  0  0
    2.1510    1.6060   -0.9960 C   0  0  0  0  0  0  0  0  0  0  0  0
    0.9320    0.8370   -0.7360 C   0  0  0  0  0  0  0  0  0  0  0  0
   -0.1640    1.4610   -1.0000 O   0  0  0  0  0  0  0  0  0  0  0  0
    0.8840   -0.4650   -0.2430 N   0  0  0  0  0  0  0  0  0  0  0  0
   -0.2220   -1.3040    0.0110 C   0  0  0  0  0  0  0  0  0  0  0  0
   -1.0610   -1.8990   -1.0240 C   0  0  0  0  0  0  0  0  0  0  0  0
   -1.9750   -0.9180   -2.0940 S   0  0  1  0  0  0  0  0  0  0  0  0
   -1.1010   -0.1900   -3.0530 O   0  0  0  0  0  0  0  0  0  0  0  0
   -2.7510   -1.8790   -3.0980 O   0  0  0  0  0  0  0  0  0  0  0  0
   -3.1520    0.1580   -1.4020 C   0  0  0  0  0  0  0  0  0  0  0  0
   -4.2440   -0.5070   -0.6170 C   0  0  1  0  0  0  0  0  0  0  0  0
   -5.0850    0.5280   -0.1440 O   0  0  0  0  0  0  0  0  0  0  0  0
   -6.2650   -0.1520    0.2050 C   0  0  1  0  0  0  0  0  0  0  0  0
   -7.3110    0.7700    0.5060 N   0  0  0  0  0  0  0  0  0  0  0  0
   -7.4140    2.0950    0.3260 C   0  0  0  0  0  0  0  0  0  0  0  0
   -8.6040    2.5480    0.7680 N   0  0  0  0  0  0  0  0  0  0  0  0
   -9.2910    1.5130    1.2440 C   0  0  0  0  0  0  0  0  0  0  0  0
  -10.5490    1.4340    1.8070 C   0  0  0  0  0  0  0  0  0  0  0  0
  -11.4050    2.5360    1.9940 N   0  0  0  0  0  0  0  0  0  0  0  0
  -10.9720    0.2170    2.1990 N   0  0  0  0  0  0  0  0  0  0  0  0
  -10.1970   -0.8730    2.0460 C   0  0  0  0  0  0  0  0  0  0  0  0
   -8.9800   -0.7870    1.4990 N   0  0  0  0  0  0  0  0  0  0  0  0
   -8.4860    0.4000    1.0820 C   0  0  0  0  0  0  0  0  0  0  0  0
   -6.5140   -0.9610   -1.0500 C   0  0  2  0  0  0  0  0  0  0  0  0
   -7.4010   -1.9910   -0.8610 O   0  0  0  0  0  0  0  0  0  0  0  0
   -5.0980   -1.4560   -1.3540 C   0  0  2  0  0  0  0  0  0  0  0  0
   -5.0380   -2.7600   -0.8470 O   0  0  0  0  0  0  0  0  0  0  0  0
  2  1  1  6
  2  3  1  0
  2  4  1  0
  2 14  1  0
  4  5  2  0
  5  6  1  0
  5 12  1  0
  6  7  2  0
  7  8  1  0
  7  9  1  0
  9 10  1  0
 10 11  2  0
 10 12  1  0
 12 13  1  1
 13 14  2  0
 14 15  1  0
 15 16  2  0
 15 17  1  0
 17 18  1  0
 18 19  1  0
 19 20  2  0
 19 21  1  0
 21 22  1  0
 22 23  1  0
 24 23  1  1
 24 25  2  0
 24 26  2  0
 24 27  1  0
 28 27  1  6
 28 29  1  0
 28 43  1  0
 29 30  1  0
 30 31  1  6
 30 41  1  0
 31 32  1  0
 31 40  1  0
 32 33  2  0
 33 34  1  0
 34 35  2  0
 34 40  1  0
 35 36  1  0
 35 37  1  0
 37 38  2  0
 38 39  1  0
 39 40  2  0
 41 42  1  1
 41 43  1  0
 43 44  1  1
M  CHG  1   6   1
M  END
