
     RDKit          3D

 40 44  0  0  0  0  0  0  0  0999 V2000
    9.5390   -3.2200    0.6770 C   0  0  0  0  0  0  0  0  0  0  0  0
    9.6520   -2.6180    1.8650 C   0  0  0  0  0  0  0  0  0  0  0  0
    8.6430   -1.7750    2.5100 C   0  0  0  0  0  0  0  0  0  0  0  0
    7.4550   -1.5370    1.6680 C   0  0  0  0  0  0  0  0  0  0  0  0
    6.2090   -1.8860    2.0040 C   0  0  0  0  0  0  0  0  0  0  0  0
    5.1030   -1.6210    1.1700 C   0  0  0  0  0  0  0  0  0  0  0  0
    5.2860   -0.9840   -0.0400 C   0  0  0  0  0  0  0  0  0  0  0  0
    4.2260   -0.5160   -0.9220 C   0  0  0  0  0  0  0  0  0  0  0  0
    2.9620   -0.3980   -0.7860 N   0  0  0  0  0  0  0  0  0  0  0  0
    2.3430    0.1270   -1.9360 N   0  0  0  0  0  0  0  0  0  0  0  0
    3.2660    0.3530   -2.8770 C   0  0  0  0  0  0  0  0  0  0  0  0
    2.6840    0.9590   -3.9100 N   0  0  0  0  0  0  0  0  0  0  0  0
    1.4310    1.1060   -3.6130 N   0  0  0  0  0  0  0  0  0  0  0  0
    1.1510    0.5980   -2.3690 C   0  0  0  0  0  0  0  0  0  0  0  0
   -0.1300    0.6250   -1.8000 N   0  0  0  0  0  0  0  0  0  0  0  0
   -1.0710    1.5420   -2.2750 C   0  0  0  0  0  0  0  0  0  0  0  0
   -0.5920    2.2710   -3.2850 O   0  0  0  0  0  0  0  0  0  0  0  0
   -2.3880    1.8900   -1.9720 C   0  0  0  0  0  0  0  0  0  0  0  0
   -3.3010    1.3090   -1.1450 C   0  0  0  0  0  0  0  0  0  0  0  0
   -2.7960    0.1900   -0.5040 N   0  0  0  0  0  0  0  0  0  0  0  0
   -2.4460    0.0750    0.8920 C   0  0  0  0  0  0  0  0  0  0  0  0
   -2.6030    1.0680    1.6190 O   0  0  0  0  0  0  0  0  0  0  0  0
   -1.9110   -1.2550    1.3820 C   0  0  0  0  0  0  0  0  0  0  0  0
   -2.2980   -2.2400    0.4060 C   0  0  0  0  0  0  0  0  0  0  0  0
   -2.6170   -3.0620   -0.3850 N   0  0  0  0  0  0  0  0  0  0  0  0
   -4.6380    1.8640   -1.1090 C   0  0  0  0  0  0  0  0  0  0  0  0
   -4.9150    2.8510   -2.0640 C   0  0  0  0  0  0  0  0  0  0  0  0
   -6.0990    3.5870   -1.9740 C   0  0  0  0  0  0  0  0  0  0  0  0
   -6.9970    3.3610   -0.9740 C   0  0  0  0  0  0  0  0  0  0  0  0
   -6.7390    2.3960   -0.0430 C   0  0  0  0  0  0  0  0  0  0  0  0
   -7.7410    2.1610    1.0060 C   0  0  0  0  0  0  0  0  0  0  0  0
   -5.5370    1.6330   -0.1180 C   0  0  0  0  0  0  0  0  0  0  0  0
   -5.5200    0.4950    0.7560 C   0  0  0  0  0  0  0  0  0  0  0  0
   -5.3210   -0.7990    0.6150 C   0  0  0  0  0  0  0  0  0  0  0  0
   -5.4240   -1.5170    1.9190 C   0  0  0  0  0  0  0  0  0  0  0  0
   -5.6640   -0.4310    2.8720 C   0  0  0  0  0  0  0  0  0  0  0  0
   -5.7250    0.6890    2.2300 C   0  0  0  0  0  0  0  0  0  0  0  0
    4.5420   -0.1350   -2.3510 C   0  0  0  0  0  0  0  0  0  0  0  0
    6.5860   -0.6380   -0.3640 C   0  0  0  0  0  0  0  0  0  0  0  0
    7.6780   -0.8890    0.4390 C   0  0  0  0  0  0  0  0  0  0  0  0
  1  2  2  0
  2  3  1  0
  3  4  1  0
  4  5  2  0
  4 40  1  0
  5  6  1  0
  6  7  2  0
  7  8  1  0
  7 39  1  0
  8  9  2  0
  8 38  1  0
  9 10  1  0
 10 11  1  0
 10 14  1  0
 11 12  2  0
 11 38  1  0
 12 13  1  0
 13 14  2  0
 14 15  1  0
 15 16  1  0
 16 17  2  0
 16 18  1  0
 18 19  2  3
 19 20  1  0
 19 26  1  0
 20 21  1  0
 21 22  2  0
 21 23  1  0
 23 24  1  0
 24 25  3  0
 26 27  2  0
 26 32  1  0
 27 28  1  0
 28 29  2  0
 29 30  1  0
 30 31  1  0
 30 32  2  0
 32 33  1  0
 33 34  2  0
 33 37  1  0
 34 35  1  0
 35 36  1  0
 36 37  2  0
 39 40  2  0
M  END
