
     RDKit          3D

 15 16  0  0  0  0  0  0  0  0999 V2000
   -2.5880   -1.7540   -0.6570 C   0  0  0  0  0  0  0  0  0  0  0  0
   -1.3230   -0.9790   -0.9910 C   0  0  0  0  0  0  0  0  0  0  0  0
   -1.1050    0.1230   -0.0180 C   0  0  0  0  0  0  0  0  0  0  0  0
   -2.0080    0.2610    1.0450 C   0  0  0  0  0  0  0  0  0  0  0  0
   -1.8600    1.2800    1.9580 C   0  0  0  0  0  0  0  0  0  0  0  0
   -2.6870    1.4150    2.9390 N   0  0  0  0  0  0  0  0  0  0  0  0
   -0.7900    2.1250    1.7500 C   0  0  0  0  0  0  0  0  0  0  0  0
    0.0810    1.9660    0.6980 C   0  0  0  0  0  0  0  0  0  0  0  0
   -0.0730    0.9470   -0.2070 N   0  0  0  0  0  0  0  0  0  0  0  0
    0.8970    0.8490   -1.2780 C   0  0  0  0  0  0  0  0  0  0  0  0
    2.0720    0.0670   -0.8640 C   0  0  0  0  0  0  0  0  0  0  0  0
    2.3110   -1.2430   -1.1740 C   0  0  0  0  0  0  0  0  0  0  0  0
    3.5190   -1.6030   -0.5950 C   0  0  0  0  0  0  0  0  0  0  0  0
    3.9660   -0.4880    0.0470 C   0  0  0  0  0  0  0  0  0  0  0  0
    3.1010    0.4620   -0.1310 O   0  0  0  0  0  0  0  0  0  0  0  0
  1  2  1  0
  2  3  1  0
  3  4  2  0
  3  9  1  0
  4  5  1  0
  5  6  2  0
  5  7  1  0
  7  8  2  0
  8  9  1  0
  9 10  1  0
 10 11  1  0
 11 12  2  0
 11 15  1  0
 12 13  1  0
 13 14  2  0
 14 15  1  0
M  END
