
     RDKit          3D

 14 15  0  0  0  0  0  0  0  0999 V2000
    4.9990    0.7520    0.7320 C   0  0  0  0  0  0  0  0  0  0  0  0
    3.6540    0.3010    0.2440 C   0  0  0  0  0  0  0  0  0  0  0  0
    3.4500   -0.3710   -0.9440 C   0  0  0  0  0  0  0  0  0  0  0  0
    2.0980   -0.6200   -1.0590 C   0  0  0  0  0  0  0  0  0  0  0  0
    1.5320   -0.0830    0.0770 C   0  0  0  0  0  0  0  0  0  0  0  0
    0.1080   -0.1140    0.3840 C   0  0  0  0  0  0  0  0  0  0  0  0
   -0.7260   -0.6580   -0.4070 N   0  0  0  0  0  0  0  0  0  0  0  0
   -2.1130   -0.7390   -0.2010 C   0  0  0  0  0  0  0  0  0  0  0  0
   -2.8560   -1.9110   -0.1050 C   0  0  0  0  0  0  0  0  0  0  0  0
   -4.1600   -1.5180    0.0930 C   0  0  0  0  0  0  0  0  0  0  0  0
   -4.2560   -0.1760    0.1240 N   0  0  0  0  0  0  0  0  0  0  0  0
   -3.0180    0.3030   -0.0540 C   0  0  0  0  0  0  0  0  0  0  0  0
   -2.6030    1.7400   -0.0980 C   0  0  0  0  0  0  0  0  0  0  0  0
    2.4960    0.4400    0.7970 O   0  0  0  0  0  0  0  0  0  0  0  0
  1  2  1  0
  2  3  2  0
  2 14  1  0
  3  4  1  0
  4  5  2  0
  5  6  1  0
  5 14  1  0
  6  7  2  3
  7  8  1  0
  8  9  1  0
  8 12  2  0
  9 10  2  0
 10 11  1  0
 11 12  1  0
 12 13  1  0
M  END
