
     RDKit          3D

 15 16  0  0  0  0  0  0  0  0999 V2000
    2.2630   -2.4480   -3.9130 C   0  0  0  0  0  0  0  0  0  0  0  0
    2.3880   -1.9510   -2.7090 C   0  0  0  0  0  0  0  0  0  0  0  0
    1.2730   -1.3210   -2.0530 C   0  0  0  0  0  0  0  0  0  0  0  0
    1.2630   -0.7960   -0.8770 C   0  0  0  0  0  0  0  0  0  0  0  0
    2.4820   -0.7850   -0.0230 C   0  0  0  0  0  0  0  0  0  0  0  0
    2.2500   -1.4730    1.1810 O   0  0  0  0  0  0  0  0  0  0  0  0
    0.0530   -0.1790   -0.3080 C   0  0  0  0  0  0  0  0  0  0  0  0
   -1.1340   -0.1060   -0.9760 C   0  0  0  0  0  0  0  0  0  0  0  0
   -2.2370    0.4680   -0.4070 N   0  0  0  0  0  0  0  0  0  0  0  0
   -2.1270    0.9630    0.8370 C   0  0  0  0  0  0  0  0  0  0  0  0
   -0.9570    0.9160    1.5540 C   0  0  0  0  0  0  0  0  0  0  0  0
    0.1070    0.3400    0.9510 N   0  0  0  0  0  0  0  0  0  0  0  0
   -1.1860    1.5300    2.8720 C   0  0  0  0  0  0  0  0  0  0  0  0
   -2.4200    2.3600    2.6970 C   0  0  0  0  0  0  0  0  0  0  0  0
   -3.1870    1.6330    1.6430 C   0  0  0  0  0  0  0  0  0  0  0  0
  1  2  2  0
  2  3  1  0
  3  4  2  3
  4  5  1  0
  4  7  1  0
  5  6  1  0
  7  8  2  0
  7 12  1  0
  8  9  1  0
  9 10  2  0
 10 11  1  0
 10 15  1  0
 11 12  2  0
 11 13  1  0
 13 14  1  0
 14 15  1  0
M  END
