
     RDKit          3D

 25 26  0  0  0  0  0  0  0  0999 V2000
   -2.2950   -0.3270    3.9550 C   0  0  0  0  0  0  0  0  0  0  0  0
   -1.9040   -0.4870    2.6040 O   0  0  0  0  0  0  0  0  0  0  0  0
   -2.8060   -0.6140    1.5620 C   0  0  0  0  0  0  0  0  0  0  0  0
   -4.0400   -0.5790    1.8970 O   0  0  0  0  0  0  0  0  0  0  0  0
   -2.4210   -0.7830    0.1570 C   0  0  0  0  0  0  0  0  0  0  0  0
   -3.3690   -0.9130   -0.7550 C   0  0  0  0  0  0  0  0  0  0  0  0
   -3.1180   -1.0800   -2.1300 N   0  0  0  0  0  0  0  0  0  0  0  0
   -1.0290   -0.8810   -0.2240 C   0  0  1  0  0  0  0  0  0  0  0  0
   -0.6520   -1.7600   -1.3460 C   0  0  0  0  0  0  0  0  0  0  0  0
    0.7620   -2.1970   -1.0140 C   0  0  0  0  0  0  0  0  0  0  0  0
    1.0930   -3.3690   -0.8850 O   0  0  0  0  0  0  0  0  0  0  0  0
    1.6860   -1.0820   -0.8660 C   0  0  0  0  0  0  0  0  0  0  0  0
    2.9730   -1.2360   -1.1700 C   0  0  0  0  0  0  0  0  0  0  0  0
    3.8520   -0.0920   -1.0230 C   0  0  0  0  0  0  0  0  0  0  0  0
    5.2790   -0.2410   -1.3510 C   0  0  0  0  0  0  0  0  0  0  0  0
    6.1960    0.8210   -1.2360 N   0  0  0  0  0  0  0  0  0  0  0  0
    5.7350   -1.3590   -1.7570 O   0  0  0  0  0  0  0  0  0  0  0  0
    3.4350    1.0780   -0.6100 C   0  0  0  0  0  0  0  0  0  0  0  0
    2.0500    1.2620   -0.2740 N   0  0  0  0  0  0  0  0  0  0  0  0
    1.1200    0.1970   -0.3790 C   0  0  0  0  0  0  0  0  0  0  0  0
   -0.1830    0.3120   -0.0960 C   0  0  0  0  0  0  0  0  0  0  0  0
   -0.7280    1.6060    0.2690 C   0  0  0  0  0  0  0  0  0  0  0  0
   -0.1220    2.6860    0.3890 O   0  0  0  0  0  0  0  0  0  0  0  0
   -2.1160    1.6810    0.5180 O   0  0  0  0  0  0  0  0  0  0  0  0
   -2.7410    2.8980    0.8740 C   0  0  0  0  0  0  0  0  0  0  0  0
  1  2  1  0
  2  3  1  0
  3  4  2  0
  3  5  1  0
  5  6  2  3
  8  5  1  6
  6  7  1  0
  8  9  1  0
  8 21  1  0
  9 10  1  0
 10 11  2  0
 10 12  1  0
 12 13  2  0
 12 20  1  0
 13 14  1  0
 14 15  1  0
 14 18  2  0
 15 16  1  0
 15 17  2  0
 18 19  1  0
 19 20  1  0
 20 21  2  0
 21 22  1  0
 22 23  2  0
 22 24  1  0
 24 25  1  0
M  END
