
     RDKit          3D

 26 27  0  0  0  0  0  0  0  0999 V2000
   -4.6010    3.2850   -1.5370 C   0  0  0  0  0  0  0  0  0  0  0  0
   -3.7380    3.2020   -0.4110 O   0  0  0  0  0  0  0  0  0  0  0  0
   -2.5610    2.3510   -0.6500 C   0  0  0  0  0  0  0  0  0  0  0  0
   -1.7740    2.9720   -1.5900 N   0  0  0  0  0  0  0  0  0  0  0  0
   -2.5420    1.2790    0.0370 C   0  0  0  0  0  0  0  0  0  0  0  0
   -3.7240    1.0810    0.9650 C   0  0  0  0  0  0  0  0  0  0  0  0
   -4.6390    1.9500    1.0070 O   0  0  0  0  0  0  0  0  0  0  0  0
   -3.8050   -0.0630    1.7730 N   0  0  0  0  0  0  0  0  0  0  0  0
   -2.8170   -1.0800    1.7950 C   0  0  1  0  0  0  0  0  0  0  0  0
   -3.4770   -2.4300    1.5870 C   0  0  0  0  0  0  0  0  0  0  0  0
   -1.6990   -0.8300    0.8550 C   0  0  0  0  0  0  0  0  0  0  0  0
   -0.7930   -2.0360    0.7420 C   0  0  0  0  0  0  0  0  0  0  0  0
   -1.5180    0.1970    0.0590 C   0  0  0  0  0  0  0  0  0  0  0  0
   -0.2720    0.4600   -0.6410 C   0  0  0  0  0  0  0  0  0  0  0  0
   -0.1740    1.3450   -1.5510 O   0  0  0  0  0  0  0  0  0  0  0  0
    0.9910   -0.1730   -0.4380 N   0  0  0  0  0  0  0  0  0  0  0  0
    2.1340    0.1250   -1.2850 C   0  0  0  0  0  0  0  0  0  0  0  0
    2.0030    0.9510   -2.2030 O   0  0  0  0  0  0  0  0  0  0  0  0
    3.4220   -0.5680   -1.0280 C   0  0  2  0  0  0  0  0  0  0  0  0
    4.3940   -0.1790   -1.9460 O   0  0  0  0  0  0  0  0  0  0  0  0
    3.1710   -2.0560   -1.0680 C   0  0  0  0  0  0  0  0  0  0  0  0
    3.2630   -2.4880    0.2330 O   0  0  0  0  0  0  0  0  0  0  0  0
    3.2460   -1.4690    1.0190 O   0  0  0  0  0  0  0  0  0  0  0  0
    3.9060   -0.4190    0.3940 C   0  0  2  0  0  0  0  0  0  0  0  0
    3.5540    0.9090    0.9930 C   0  0  0  0  0  0  0  0  0  0  0  0
    5.3850   -0.7020    0.4170 C   0  0  0  0  0  0  0  0  0  0  0  0
  1  2  1  0
  2  3  1  0
  3  4  1  0
  3  5  2  3
  5  6  1  0
  5 13  1  0
  6  7  2  0
  6  8  1  0
  8  9  1  0
  9 10  1  6
  9 11  1  0
 11 12  1  0
 11 13  2  0
 13 14  1  0
 14 15  2  0
 14 16  1  0
 16 17  1  0
 17 18  2  0
 17 19  1  0
 19 20  1  6
 19 21  1  0
 19 24  1  0
 21 22  1  0
 22 23  1  0
 23 24  1  0
 24 25  1  1
 24 26  1  0
M  END
