
     RDKit          3D

 26 27  0  0  0  0  0  0  0  0999 V2000
   -3.5880    2.0940   -0.6220 C   0  0  0  0  0  0  0  0  0  0  0  0
   -4.0970    0.9720    0.2480 C   0  0  0  0  0  0  0  0  0  0  0  0
   -3.2690    0.4230    1.2170 O   0  0  0  0  0  0  0  0  0  0  0  0
   -2.4390   -0.6430    0.8950 C   0  0  0  0  0  0  0  0  0  0  0  0
   -2.4830   -1.0640   -0.2840 O   0  0  0  0  0  0  0  0  0  0  0  0
   -1.5910   -1.2290    1.8240 O   0  0  0  0  0  0  0  0  0  0  0  0
   -0.7840   -2.2860    1.4360 C   0  0  0  0  0  0  0  0  0  0  0  0
    0.2220   -1.9700    0.3960 C   0  0  0  0  0  0  0  0  0  0  0  0
    0.9250   -2.9350   -0.0660 O   0  0  0  0  0  0  0  0  0  0  0  0
    0.4730   -0.6820   -0.1320 N   0  0  0  0  0  0  0  0  0  0  0  0
    1.4590   -0.3830   -1.1520 C   0  0  0  0  0  0  0  0  0  0  0  0
    2.8490   -0.7340   -0.7110 C   0  0  2  0  0  0  0  0  0  0  0  0
    3.1720    0.1610    0.4840 C   0  0  0  0  0  0  0  0  0  0  0  0
    4.6060    0.4750    0.3130 C   0  0  0  0  0  0  0  0  0  0  0  0
    5.5230    0.9930    1.0790 C   0  0  0  0  0  0  0  0  0  0  0  0
    6.8430    1.1780    0.6320 N   0  0  0  0  0  0  0  0  0  0  0  0
    7.2900    0.8210   -0.6700 C   0  0  0  0  0  0  0  0  0  0  0  0
    6.1880    0.2440   -1.4670 C   0  0  0  0  0  0  0  0  0  0  0  0
    4.9620    0.0780   -1.0400 C   0  0  0  0  0  0  0  0  0  0  0  0
    3.8220   -0.4530   -1.6790 O   0  0  0  0  0  0  0  0  0  0  0  0
   -5.3200    0.5270    0.0770 C   0  0  0  0  0  0  0  0  0  0  0  0
   -6.1870    1.1250   -0.9630 C   0  0  0  0  0  0  0  0  0  0  0  0
   -6.5870    0.1680   -1.9050 O   0  0  0  0  0  0  0  0  0  0  0  0
   -5.8360   -0.5400    0.8980 C   0  0  0  0  0  0  0  0  0  0  0  0
   -5.0320   -1.1200    1.9020 N   0  0  0  0  0  0  0  0  0  0  0  0
   -7.0320   -0.9660    0.7190 O   0  0  0  0  0  0  0  0  0  0  0  0
  1  2  1  0
  2  3  1  0
  2 21  2  3
  3  4  1  0
  4  5  2  0
  4  6  1  0
  6  7  1  0
  7  8  1  0
  8  9  2  0
  8 10  1  0
 10 11  1  0
 12 11  1  6
 12 13  1  0
 12 20  1  0
 13 14  1  0
 14 15  2  0
 14 19  1  0
 15 16  1  0
 16 17  1  0
 17 18  1  0
 18 19  2  0
 19 20  1  0
 21 22  1  0
 21 24  1  0
 22 23  1  0
 24 25  1  0
 24 26  2  0
M  END
