
     RDKit          3D

 26 27  0  0  0  0  0  0  0  0999 V2000
   -5.6980    0.5740    1.9210 C   0  0  0  0  0  0  0  0  0  0  0  0
   -4.9870   -0.4030    1.1830 O   0  0  0  0  0  0  0  0  0  0  0  0
   -3.8540   -0.0530    0.4720 C   0  0  0  0  0  0  0  0  0  0  0  0
   -3.4930    1.1510    0.5120 O   0  0  0  0  0  0  0  0  0  0  0  0
   -3.0740   -1.0320   -0.3160 C   0  0  1  0  0  0  0  0  0  0  0  0
   -1.9630   -0.3930   -0.9410 N   0  0  0  0  0  0  0  0  0  0  0  0
   -0.9460    0.2690   -0.2010 C   0  0  0  0  0  0  0  0  0  0  0  0
   -0.9750    0.3260    1.0610 O   0  0  0  0  0  0  0  0  0  0  0  0
    0.1330    0.8860   -0.8730 N   0  0  0  0  0  0  0  0  0  0  0  0
    1.1790    1.5620   -0.2060 C   0  0  0  0  0  0  0  0  0  0  0  0
    1.3950    2.8330   -0.4470 C   0  0  0  0  0  0  0  0  0  0  0  0
    2.4610    3.5290    0.2300 C   0  0  0  0  0  0  0  0  0  0  0  0
    2.6840    4.8030   -0.0050 C   0  0  0  0  0  0  0  0  0  0  0  0
    3.7070    5.4630    0.6460 O   0  0  0  0  0  0  0  0  0  0  0  0
    1.9640    0.8850    0.6900 O   0  0  0  0  0  0  0  0  0  0  0  0
    2.8410   -0.1310    0.3400 C   0  0  0  0  0  0  0  0  0  0  0  0
    2.5540   -1.0560   -0.5420 C   0  0  0  0  0  0  0  0  0  0  0  0
    3.4510   -2.1500   -0.9430 C   0  0  0  0  0  0  0  0  0  0  0  0
    4.7170   -2.1010   -0.2450 N   0  0  0  0  0  0  0  0  0  0  0  0
    5.0450   -1.1030    0.7170 C   0  0  0  0  0  0  0  0  0  0  0  0
    4.1440   -0.1790    0.9800 C   0  0  0  0  0  0  0  0  0  0  0  0
    4.4610    0.8090    1.9280 O   0  0  0  0  0  0  0  0  0  0  0  0
   -2.5850   -2.1850    0.5480 C   0  0  0  0  0  0  0  0  0  0  0  0
   -2.5280   -3.3000   -0.4480 C   0  0  0  0  0  0  0  0  0  0  0  0
   -3.2250   -2.9400   -1.5640 O   0  0  0  0  0  0  0  0  0  0  0  0
   -3.9050   -1.7710   -1.3220 C   0  0  0  0  0  0  0  0  0  0  0  0
  1  2  1  0
  2  3  1  0
  3  4  2  0
  3  5  1  0
  5  6  1  6
  5 23  1  0
  5 26  1  0
  6  7  1  0
  7  8  2  0
  7  9  1  0
  9 10  1  0
 10 11  2  3
 10 15  1  0
 11 12  1  0
 12 13  2  3
 13 14  1  0
 15 16  1  0
 16 17  2  0
 16 21  1  0
 17 18  1  0
 18 19  1  0
 19 20  1  0
 20 21  2  0
 21 22  1  0
 23 24  1  0
 24 25  1  0
 25 26  1  0
M  END
