
     RDKit          3D

 26 27  0  0  0  0  0  0  0  0999 V2000
    4.1170   -2.8170    1.6950 C   0  0  0  0  0  0  0  0  0  0  0  0
    3.8820   -1.6520    1.1150 C   0  0  0  0  0  0  0  0  0  0  0  0
    2.6980   -0.9530    1.3130 O   0  0  0  0  0  0  0  0  0  0  0  0
    2.4440    0.2700    0.7080 C   0  0  0  0  0  0  0  0  0  0  0  0
    1.1640    0.9960    0.9400 C   0  0  0  0  0  0  0  0  0  0  0  0
    0.0240    0.2140    0.5190 N   0  0  0  0  0  0  0  0  0  0  0  0
   -1.3100    0.6580    0.6230 C   0  0  0  0  0  0  0  0  0  0  0  0
   -1.5050    1.8000    1.1110 O   0  0  0  0  0  0  0  0  0  0  0  0
   -2.4570   -0.1540    0.1880 C   0  0  0  0  0  0  0  0  0  0  0  0
   -3.6750    0.3170    0.3120 C   0  0  0  0  0  0  0  0  0  0  0  0
   -3.8340    1.6210    0.8730 O   0  0  0  0  0  0  0  0  0  0  0  0
   -5.0000    2.3880    0.5350 C   0  0  0  0  0  0  0  0  0  0  0  0
   -6.2040    1.5050    0.6600 C   0  0  0  0  0  0  0  0  0  0  0  0
   -7.2570    1.9180    1.2490 O   0  0  0  0  0  0  0  0  0  0  0  0
   -6.1090    0.1860    0.0880 C   0  0  0  0  0  0  0  0  0  0  0  0
   -7.2480   -0.5040   -0.2920 O   0  0  0  0  0  0  0  0  0  0  0  0
   -4.8920   -0.3770   -0.0760 C   0  0  0  0  0  0  0  0  0  0  0  0
   -4.8270   -1.7030   -0.6530 C   0  0  0  0  0  0  0  0  0  0  0  0
   -3.7220   -2.5120   -0.9330 N   0  0  0  0  0  0  0  0  0  0  0  0
   -5.9520   -2.2470   -0.9690 O   0  0  0  0  0  0  0  0  0  0  0  0
    3.3940    0.7510   -0.0780 C   0  0  0  0  0  0  0  0  0  0  0  0
    4.6580    0.0660   -0.3260 C   0  0  0  0  0  0  0  0  0  0  0  0
    5.6980    0.6670   -1.2320 C   0  0  0  0  0  0  0  0  0  0  0  0
    6.1360    1.9600   -0.7420 N   0  0  0  0  0  0  0  0  0  0  0  0
    4.9150   -1.1040    0.2450 C   0  0  0  0  0  0  0  0  0  0  0  0
    6.1140   -1.7650    0.0160 O   0  0  0  0  0  0  0  0  0  0  0  0
  1  2  2  0
  2  3  1  0
  2 25  1  0
  3  4  1  0
  4  5  1  0
  4 21  2  0
  5  6  1  0
  6  7  1  0
  7  8  2  0
  7  9  1  0
  9 10  2  3
 10 11  1  0
 10 17  1  0
 11 12  1  0
 12 13  1  0
 13 14  2  0
 13 15  1  0
 15 16  1  0
 15 17  2  0
 17 18  1  0
 18 19  1  0
 18 20  2  0
 21 22  1  0
 22 23  1  0
 22 25  2  0
 23 24  1  0
 25 26  1  0
M  END
