
     RDKit          3D

 25 26  0  0  0  0  0  0  0  0999 V2000
    6.5100    0.6170    2.2460 C   0  0  0  0  0  0  0  0  0  0  0  0
    6.6590    0.2950    0.8150 C   0  0  0  0  0  0  0  0  0  0  0  0
    5.6500   -0.1730    0.1120 C   0  0  0  0  0  0  0  0  0  0  0  0
    4.3720   -0.3670    0.7840 C   0  0  0  0  0  0  0  0  0  0  0  0
    3.3640   -0.8370    0.0710 C   0  0  0  0  0  0  0  0  0  0  0  0
    2.1390   -1.0330    0.6760 O   0  0  0  0  0  0  0  0  0  0  0  0
    1.0240   -0.5720   -0.0170 C   0  0  0  0  0  0  0  0  0  0  0  0
    0.5940    0.6680    0.0990 C   0  0  0  0  0  0  0  0  0  0  0  0
   -0.5760    1.2450   -0.5950 C   0  0  0  0  0  0  0  0  0  0  0  0
   -1.5230    0.1410   -0.9680 C   0  0  2  0  0  0  0  0  0  0  0  0
   -2.0960   -0.3610    0.1970 O   0  0  0  0  0  0  0  0  0  0  0  0
   -3.4370   -0.4110    0.0640 N   0  0  0  0  0  0  0  0  0  0  0  0
   -4.2910    0.6610   -0.2380 C   0  0  0  0  0  0  0  0  0  0  0  0
   -3.7710    1.7970   -0.4050 O   0  0  0  0  0  0  0  0  0  0  0  0
   -5.7720    0.4700   -0.3600 C   0  0  1  0  0  0  0  0  0  0  0  0
   -6.1480   -0.8240   -1.0490 C   0  0  0  0  0  0  0  0  0  0  0  0
   -6.4920   -0.5620    0.3980 C   0  0  2  0  0  0  0  0  0  0  0  0
   -7.9930   -0.2930    0.5870 C   0  0  0  0  0  0  0  0  0  0  0  0
   -5.9020   -1.3370    1.3830 O   0  0  0  0  0  0  0  0  0  0  0  0
   -0.8180   -0.9910   -1.5910 N   0  0  0  0  0  0  0  0  0  0  0  0
    0.3140   -1.4870   -0.8960 C   0  0  0  0  0  0  0  0  0  0  0  0
    0.6670   -2.6860   -1.0560 O   0  0  0  0  0  0  0  0  0  0  0  0
    7.9390    0.4960    0.1620 C   0  0  0  0  0  0  0  0  0  0  0  0
    8.1130    0.1960   -1.2180 N   0  0  0  0  0  0  0  0  0  0  0  0
    8.9480    0.9420    0.7810 O   0  0  0  0  0  0  0  0  0  0  0  0
  1  2  1  0
  2  3  2  3
  2 23  1  0
  3  4  1  0
  4  5  2  3
  5  6  1  0
  6  7  1  0
  7  8  2  0
  7 21  1  0
  8  9  1  0
  9 10  1  0
 10 11  1  1
 10 20  1  0
 11 12  1  0
 12 13  1  0
 13 14  2  0
 15 13  1  1
 15 16  1  0
 15 17  1  0
 16 17  1  0
 17 18  1  6
 17 19  1  0
 20 21  1  0
 21 22  2  0
 23 24  1  0
 23 25  2  0
M  END
