
     RDKit          3D

 26 28  0  0  0  0  0  0  0  0999 V2000
   -1.8430    2.4650   -1.3370 N   0  0  0  0  0  0  0  0  0  0  0  0
   -1.6670    1.4970   -0.2690 C   0  0  2  0  0  0  0  0  0  0  0  0
   -0.4610    0.6620   -0.4920 C   0  0  0  0  0  0  0  0  0  0  0  0
    0.2800    0.7740   -1.4930 O   0  0  0  0  0  0  0  0  0  0  0  0
   -0.1410   -0.2870    0.4550 O   0  0  0  0  0  0  0  0  0  0  0  0
    0.9850   -1.1400    0.3480 C   0  0  0  0  0  0  0  0  0  0  0  0
    2.2480   -0.3750    0.2770 C   0  0  0  0  0  0  0  0  0  0  0  0
    3.1250   -0.4040   -0.7230 C   0  0  0  0  0  0  0  0  0  0  0  0
    4.2800    0.4900   -0.4550 C   0  0  2  0  0  0  0  0  0  0  0  0
    5.4090   -0.3490   -0.3770 O   0  0  0  0  0  0  0  0  0  0  0  0
    6.2930    0.0260   -1.3190 N   0  0  0  0  0  0  0  0  0  0  0  0
    7.6600   -0.3100   -1.1360 C   0  0  0  0  0  0  0  0  0  0  0  0
    8.0130   -0.9530   -0.0960 O   0  0  0  0  0  0  0  0  0  0  0  0
    8.6550    0.0300   -2.0500 O   0  0  0  0  0  0  0  0  0  0  0  0
    4.0110    1.0850    0.8330 N   0  0  0  0  0  0  0  0  0  0  0  0
    2.7670    0.5480    1.2730 C   0  0  0  0  0  0  0  0  0  0  0  0
    2.2270    0.8450    2.3610 O   0  0  0  0  0  0  0  0  0  0  0  0
   -2.8740    0.6440   -0.1130 C   0  0  0  0  0  0  0  0  0  0  0  0
   -3.4710    0.1080   -1.2230 C   0  0  0  0  0  0  0  0  0  0  0  0
   -4.6100   -0.6990   -1.1360 C   0  0  0  0  0  0  0  0  0  0  0  0
   -5.1320   -0.9520    0.0930 C   0  0  0  0  0  0  0  0  0  0  0  0
   -4.5460   -0.4230    1.2170 C   0  0  0  0  0  0  0  0  0  0  0  0
   -3.4230    0.3710    1.1240 C   0  0  0  0  0  0  0  0  0  0  0  0
   -5.3430   -0.8810    2.3640 C   0  0  0  0  0  0  0  0  0  0  0  0
   -6.2600   -1.7880    1.9050 O   0  0  0  0  0  0  0  0  0  0  0  0
   -6.2910   -1.7380    0.5270 C   0  0  0  0  0  0  0  0  0  0  0  0
  2  1  1  6
  2  3  1  0
  2 18  1  0
  3  4  2  0
  3  5  1  0
  5  6  1  0
  6  7  1  0
  7  8  2  0
  7 16  1  0
  8  9  1  0
  9 10  1  1
  9 15  1  0
 10 11  1  0
 11 12  1  0
 12 13  2  0
 12 14  1  0
 15 16  1  0
 16 17  2  0
 18 19  2  0
 18 23  1  0
 19 20  1  0
 20 21  2  0
 21 22  1  0
 21 26  1  0
 22 23  2  0
 22 24  1  0
 24 25  1  0
 25 26  1  0
M  END
