
     RDKit          3D

 25 28  0  0  0  0  0  0  0  0999 V2000
   -6.1260    1.3800   -1.1640 C   0  0  0  0  0  0  0  0  0  0  0  0
   -4.9080    1.0500   -0.4770 N   0  0  0  0  0  0  0  0  0  0  0  0
   -4.1710    2.2030   -0.0530 C   0  0  0  0  0  0  0  0  0  0  0  0
   -3.0060    2.1490    0.5670 C   0  0  0  0  0  0  0  0  0  0  0  0
   -2.2040    0.9710    0.9640 C   0  0  0  0  0  0  0  0  0  0  0  0
   -2.4340   -0.3170    0.7950 C   0  0  0  0  0  0  0  0  0  0  0  0
   -1.4420   -1.1110    1.3040 C   0  0  0  0  0  0  0  0  0  0  0  0
   -0.3210   -0.5930    1.8620 O   0  0  0  0  0  0  0  0  0  0  0  0
    0.9040   -0.4560    1.2180 C   0  0  0  0  0  0  0  0  0  0  0  0
    1.3230    0.6250    0.4950 C   0  0  0  0  0  0  0  0  0  0  0  0
    2.5820    0.6610   -0.1160 C   0  0  0  0  0  0  0  0  0  0  0  0
    3.4570   -0.3940   -0.0140 C   0  0  0  0  0  0  0  0  0  0  0  0
    4.7710   -0.3750   -0.6420 C   0  0  0  0  0  0  0  0  0  0  0  0
    5.3040    0.6500   -1.3920 C   0  0  0  0  0  0  0  0  0  0  0  0
    6.5760    0.2720   -1.8070 C   0  0  0  0  0  0  0  0  0  0  0  0
    7.6670    1.2300   -2.7860 Cl  0  0  0  0  0  0  0  0  0  0  0  0
    6.7720   -0.9550   -1.3010 N   0  0  0  0  0  0  0  0  0  0  0  0
    5.7090   -1.3360   -0.6150 N   0  0  0  0  0  0  0  0  0  0  0  0
    3.0510   -1.4920    0.7120 C   0  0  0  0  0  0  0  0  0  0  0  0
    1.8100   -1.5250    1.3120 C   0  0  0  0  0  0  0  0  0  0  0  0
   -1.6040   -2.4430    1.2310 N   0  0  0  0  0  0  0  0  0  0  0  0
   -2.6740   -3.0130    0.6900 C   0  0  0  0  0  0  0  0  0  0  0  0
   -3.6400   -2.2240    0.1920 N   0  0  0  0  0  0  0  0  0  0  0  0
   -3.5790   -0.8750    0.2140 C   0  0  0  0  0  0  0  0  0  0  0  0
   -4.6010   -0.3020   -0.3110 N   0  0  0  0  0  0  0  0  0  0  0  0
  1  2  1  0
  2  3  1  0
  2 25  1  0
  3  4  2  0
  4  5  1  0
  5  6  2  0
  6  7  1  0
  6 24  1  0
  7  8  1  0
  7 21  2  0
  8  9  1  0
  9 10  2  0
  9 20  1  0
 10 11  1  0
 11 12  2  0
 12 13  1  0
 12 19  1  0
 13 14  1  0
 13 18  2  0
 14 15  2  0
 15 16  1  0
 15 17  1  0
 17 18  1  0
 19 20  2  0
 21 22  1  0
 22 23  2  0
 23 24  1  0
 24 25  2  0
M  END
