
     RDKit          3D

 24 27  0  0  0  0  0  0  0  0999 V2000
   -5.4690    1.2810    0.8400 C   0  0  0  0  0  0  0  0  0  0  0  0
   -4.3160    0.6510    0.7470 C   0  0  0  0  0  0  0  0  0  0  0  0
   -3.2310    1.2630   -0.0320 C   0  0  0  0  0  0  0  0  0  0  0  0
   -4.1250   -0.6280    1.4070 C   0  0  0  0  0  0  0  0  0  0  0  0
   -5.0980   -1.2320    2.1500 N   0  0  0  0  0  0  0  0  0  0  0  0
   -4.6240   -2.3600    2.6070 N   0  0  0  0  0  0  0  0  0  0  0  0
   -3.3670   -2.5090    2.1840 C   0  0  0  0  0  0  0  0  0  0  0  0
   -3.0690   -1.4150    1.4320 N   0  0  0  0  0  0  0  0  0  0  0  0
   -1.7910   -1.2100    0.7950 C   0  0  0  0  0  0  0  0  0  0  0  0
   -0.9180   -0.3320    1.3110 N   0  0  0  0  0  0  0  0  0  0  0  0
    0.3000   -0.1220    0.7390 C   0  0  0  0  0  0  0  0  0  0  0  0
    1.2050    0.7720    1.2530 C   0  0  0  0  0  0  0  0  0  0  0  0
    2.4510    1.0040    0.6890 C   0  0  0  0  0  0  0  0  0  0  0  0
    2.7970    0.3020   -0.4440 C   0  0  0  0  0  0  0  0  0  0  0  0
    4.0630    0.4890   -1.0790 N   0  0  0  0  0  0  0  0  0  0  0  0
    4.6800    1.6650   -1.2070 C   0  0  0  0  0  0  0  0  0  0  0  0
    5.8830    1.5080   -1.8660 C   0  0  0  0  0  0  0  0  0  0  0  0
    5.9810    0.1690   -2.1430 C   0  0  0  0  0  0  0  0  0  0  0  0
    4.8530   -0.4310   -1.6500 C   0  0  0  0  0  0  0  0  0  0  0  0
    1.8870   -0.6040   -0.9700 C   0  0  0  0  0  0  0  0  0  0  0  0
    0.6530   -0.8170   -0.3900 C   0  0  0  0  0  0  0  0  0  0  0  0
   -0.2470   -1.7140   -0.9130 C   0  0  0  0  0  0  0  0  0  0  0  0
    0.0520   -2.3590   -1.9420 O   0  0  0  0  0  0  0  0  0  0  0  0
   -1.4490   -1.8930   -0.3120 N   0  0  0  0  0  0  0  0  0  0  0  0
  1  2  2  0
  2  3  1  0
  2  4  1  0
  4  5  2  0
  4  8  1  0
  5  6  1  0
  6  7  2  0
  7  8  1  0
  8  9  1  0
  9 10  2  0
  9 24  1  0
 10 11  1  0
 11 12  2  0
 11 21  1  0
 12 13  1  0
 13 14  2  0
 14 15  1  0
 14 20  1  0
 15 16  1  0
 15 19  1  0
 16 17  2  0
 17 18  1  0
 18 19  2  0
 20 21  2  0
 21 22  1  0
 22 23  2  0
 22 24  1  0
M  END
