
     RDKit          3D

 25 28  0  0  0  0  0  0  0  0999 V2000
    3.6840   -1.4340   -0.2300 C   0  0  0  0  0  0  0  0  0  0  0  0
    3.2240   -0.3450   -1.1390 C   0  0  0  0  0  0  0  0  0  0  0  0
    3.5610   -0.2590   -2.4860 C   0  0  0  0  0  0  0  0  0  0  0  0
    2.9550    0.8670   -2.9820 C   0  0  0  0  0  0  0  0  0  0  0  0
    2.2730    1.4340   -1.9460 N   0  0  0  0  0  0  0  0  0  0  0  0
    2.4410    0.7080   -0.8640 N   0  0  0  0  0  0  0  0  0  0  0  0
    1.8730    0.9900    0.4310 C   0  0  0  0  0  0  0  0  0  0  0  0
    0.5510    0.3680    0.6210 C   0  0  0  0  0  0  0  0  0  0  0  0
   -0.5390    1.0680    0.2660 N   0  0  0  0  0  0  0  0  0  0  0  0
   -1.7890    0.5940    0.3980 C   0  0  0  0  0  0  0  0  0  0  0  0
   -2.9310    1.3750    0.0050 N   0  0  0  0  0  0  0  0  0  0  0  0
   -2.7060    2.6570   -0.5240 C   0  0  0  0  0  0  0  0  0  0  0  0
   -2.5350    3.7640    0.2190 C   0  0  0  0  0  0  0  0  0  0  0  0
   -2.3330    4.8660   -0.7110 C   0  0  0  0  0  0  0  0  0  0  0  0
   -2.0540    6.5480   -0.3410 Cl  0  0  0  0  0  0  0  0  0  0  0  0
   -2.4000    4.3480   -1.9010 C   0  0  0  0  0  0  0  0  0  0  0  0
   -2.6150    3.0430   -1.9270 C   0  0  0  0  0  0  0  0  0  0  0  0
   -1.9300   -0.6410    0.9120 N   0  0  0  0  0  0  0  0  0  0  0  0
   -0.8760   -1.3900    1.2860 C   0  0  0  0  0  0  0  0  0  0  0  0
   -1.0680   -2.7260    1.8410 C   0  0  0  0  0  0  0  0  0  0  0  0
   -2.2690   -3.3690    2.0470 C   0  0  0  0  0  0  0  0  0  0  0  0
   -1.9770   -4.6100    2.5870 C   0  0  0  0  0  0  0  0  0  0  0  0
   -0.5910   -4.6550    2.6820 C   0  0  0  0  0  0  0  0  0  0  0  0
   -0.1090   -3.5140    2.2260 O   0  0  0  0  0  0  0  0  0  0  0  0
    0.3480   -0.8590    1.1290 N   0  0  0  0  0  0  0  0  0  0  0  0
  1  2  1  0
  2  3  2  0
  2  6  1  0
  3  4  1  0
  4  5  2  0
  5  6  1  0
  6  7  1  0
  7  8  1  0
  8  9  2  0
  8 25  1  0
  9 10  1  0
 10 11  1  0
 10 18  2  0
 11 12  1  0
 12 13  2  0
 12 17  1  0
 13 14  1  0
 14 15  1  0
 14 16  2  0
 16 17  2  0
 18 19  1  0
 19 20  1  0
 19 25  2  0
 20 21  2  0
 20 24  1  0
 21 22  1  0
 22 23  2  0
 23 24  1  0
M  END
