
     RDKit          3D

 25 28  0  0  0  0  0  0  0  0999 V2000
    1.7760   -3.0010   -1.7690 C   0  0  0  0  0  0  0  0  0  0  0  0
    2.2040   -1.8250   -0.9670 C   0  0  0  0  0  0  0  0  0  0  0  0
    3.5030   -1.5500   -0.6390 N   0  0  0  0  0  0  0  0  0  0  0  0
    3.5550   -0.4420    0.0750 N   0  0  0  0  0  0  0  0  0  0  0  0
    4.7040    0.2180    0.6310 C   0  0  0  0  0  0  0  0  0  0  0  0
    5.9650   -0.1790    0.5260 C   0  0  0  0  0  0  0  0  0  0  0  0
    6.7980    0.7980    1.2480 C   0  0  0  0  0  0  0  0  0  0  0  0
    5.8180    1.7800    1.7590 C   0  0  0  0  0  0  0  0  0  0  0  0
    4.6480    1.4090    1.3850 N   0  0  0  0  0  0  0  0  0  0  0  0
    2.3170   -0.0090    0.2050 N   0  0  0  0  0  0  0  0  0  0  0  0
    1.4750   -0.8120   -0.4060 C   0  0  0  0  0  0  0  0  0  0  0  0
    0.0030   -0.7130   -0.5160 C   0  0  0  0  0  0  0  0  0  0  0  0
   -0.6450   -1.5770   -1.1440 O   0  0  0  0  0  0  0  0  0  0  0  0
   -0.6880    0.3670    0.0910 N   0  0  0  0  0  0  0  0  0  0  0  0
   -2.0850    0.5610    0.0550 C   0  0  0  0  0  0  0  0  0  0  0  0
   -2.5160    1.8090    0.5520 C   0  0  0  0  0  0  0  0  0  0  0  0
   -3.8300    2.1610    0.6020 C   0  0  0  0  0  0  0  0  0  0  0  0
   -4.7630    1.2460    0.1420 C   0  0  0  0  0  0  0  0  0  0  0  0
   -6.0830    1.6100    0.1970 C   0  0  0  0  0  0  0  0  0  0  0  0
   -6.5610    3.1900    0.8320 Cl  0  0  0  0  0  0  0  0  0  0  0  0
   -7.0410    0.7720   -0.2320 N   0  0  0  0  0  0  0  0  0  0  0  0
   -6.6850   -0.4330   -0.7170 C   0  0  0  0  0  0  0  0  0  0  0  0
   -5.3520   -0.8320   -0.7850 C   0  0  0  0  0  0  0  0  0  0  0  0
   -4.3770    0.0170   -0.3500 C   0  0  0  0  0  0  0  0  0  0  0  0
   -3.0230   -0.3110   -0.3870 C   0  0  0  0  0  0  0  0  0  0  0  0
  1  2  1  0
  2  3  2  0
  2 11  1  0
  3  4  1  0
  4  5  1  0
  4 10  1  0
  5  6  2  0
  5  9  1  0
  6  7  1  0
  7  8  1  0
  8  9  2  0
 10 11  2  0
 11 12  1  0
 12 13  2  0
 12 14  1  0
 14 15  1  0
 15 16  2  0
 15 25  1  0
 16 17  1  0
 17 18  2  0
 18 19  1  0
 18 24  1  0
 19 20  1  0
 19 21  2  0
 21 22  1  0
 22 23  2  0
 23 24  1  0
 24 25  2  0
M  END
