
     RDKit          3D

 25 27  0  0  0  0  0  0  0  0999 V2000
    5.0960    1.4830    1.2670 C   0  0  0  0  0  0  0  0  0  0  0  0
    4.1990    0.7630    0.6200 C   0  0  0  0  0  0  0  0  0  0  0  0
    2.8190    1.1780    0.5930 N   0  0  0  0  0  0  0  0  0  0  0  0
    1.8930    0.6290   -0.3380 C   0  0  2  0  0  0  0  0  0  0  0  0
    0.4750    0.8090   -0.0270 C   0  0  0  0  0  0  0  0  0  0  0  0
    0.1120    1.6920    0.7890 O   0  0  0  0  0  0  0  0  0  0  0  0
   -0.5070   -0.0090   -0.6450 N   0  0  0  0  0  0  0  0  0  0  0  0
   -1.9070    0.2530   -0.6400 C   0  0  0  0  0  0  0  0  0  0  0  0
   -2.6980   -0.3590    0.4620 C   0  0  1  0  0  0  0  0  0  0  0  0
   -2.2810    0.0620    1.7830 N   0  0  0  0  0  0  0  0  0  0  0  0
   -4.1500   -0.0410    0.3030 C   0  0  0  0  0  0  0  0  0  0  0  0
   -5.0020   -1.0400    0.1670 C   0  0  0  0  0  0  0  0  0  0  0  0
   -4.5050   -2.7170    0.1660 Cl  0  0  0  0  0  0  0  0  0  0  0  0
   -4.5520    1.2690    0.3030 O   0  0  0  0  0  0  0  0  0  0  0  0
   -5.1390    1.9380   -0.7880 C   0  0  0  0  0  0  0  0  0  0  0  0
   -0.0040   -1.1890   -1.3030 C   0  0  0  0  0  0  0  0  0  0  0  0
   -0.8040   -1.9700   -1.8700 O   0  0  0  0  0  0  0  0  0  0  0  0
    1.3710   -1.4910   -1.3280 N   0  0  0  0  0  0  0  0  0  0  0  0
    2.0960   -2.5650   -1.7580 C   0  0  0  0  0  0  0  0  0  0  0  0
    1.5720   -3.5250   -2.3580 O   0  0  0  0  0  0  0  0  0  0  0  0
    3.4070   -2.3700   -1.4170 N   0  0  0  0  0  0  0  0  0  0  0  0
    3.4670   -1.1840   -0.7840 C   0  0  0  0  0  0  0  0  0  0  0  0
    2.2300   -0.7080   -0.7670 N   0  0  0  0  0  0  0  0  0  0  0  0
    4.5350   -0.4580   -0.0860 C   0  0  0  0  0  0  0  0  0  0  0  0
    5.7590   -0.9360   -0.1240 C   0  0  0  0  0  0  0  0  0  0  0  0
  1  2  2  0
  2  3  1  0
  2 24  1  0
  4  3  1  1
  4  5  1  0
  4 23  1  0
  5  6  2  0
  5  7  1  0
  7  8  1  0
  7 16  1  0
  8  9  1  0
  9 10  1  1
  9 11  1  0
 11 12  2  3
 11 14  1  0
 12 13  1  0
 14 15  1  0
 16 17  2  0
 16 18  1  0
 18 19  1  0
 18 23  1  0
 19 20  2  0
 19 21  1  0
 21 22  2  0
 22 23  1  0
 22 24  1  0
 24 25  2  0
M  CHG  1  10   1
M  END
