
     RDKit          3D

 24 27  0  0  0  0  0  0  0  0999 V2000
    4.8850   -0.4190    0.9340 C   0  0  0  0  0  0  0  0  0  0  0  0
    3.4550   -0.1170    0.5880 C   0  0  0  0  0  0  0  0  0  0  0  0
    2.8560    1.0800    0.8990 C   0  0  0  0  0  0  0  0  0  0  0  0
    1.5640    1.2700    0.5530 N   0  0  0  0  0  0  0  0  0  0  0  0
    0.7910    2.3500    0.7530 N   0  0  0  0  0  0  0  0  0  0  0  0
   -0.4020    2.0550    0.2340 C   0  0  0  0  0  0  0  0  0  0  0  0
   -1.5850    2.9690    0.2250 C   0  0  0  0  0  0  0  0  0  0  0  0
   -1.7780    3.5660   -1.1530 C   0  0  0  0  0  0  0  0  0  0  0  0
   -3.1950    4.6240   -1.0690 Cl  0  0  0  0  0  0  0  0  0  0  0  0
   -0.3880    0.7550   -0.3100 C   0  0  0  0  0  0  0  0  0  0  0  0
   -1.5380    0.2010   -0.9070 N   0  0  0  0  0  0  0  0  0  0  0  0
   -2.5510   -0.4270   -0.1330 C   0  0  0  0  0  0  0  0  0  0  0  0
   -3.6590   -0.9640   -0.7400 C   0  0  0  0  0  0  0  0  0  0  0  0
   -4.6490   -1.5820    0.0270 C   0  0  0  0  0  0  0  0  0  0  0  0
   -4.5050   -1.6440    1.3460 N   0  0  0  0  0  0  0  0  0  0  0  0
   -3.4330   -1.1300    1.9820 C   0  0  0  0  0  0  0  0  0  0  0  0
   -2.4310   -0.5070    1.2340 C   0  0  0  0  0  0  0  0  0  0  0  0
    0.8690    0.3030   -0.0870 C   0  0  0  0  0  0  0  0  0  0  0  0
    1.4550   -0.9140   -0.4120 C   0  0  0  0  0  0  0  0  0  0  0  0
    2.7780   -1.1280   -0.0660 C   0  0  0  0  0  0  0  0  0  0  0  0
    3.1830   -2.4900   -0.5220 C   0  0  0  0  0  0  0  0  0  0  0  0
    1.9730   -3.0260   -1.1690 C   0  0  0  0  0  0  0  0  0  0  0  0
    1.0100   -2.1040   -1.0880 C   0  0  0  0  0  0  0  0  0  0  0  0
   -0.5470   -2.4390   -1.7960 Cl  0  0  0  0  0  0  0  0  0  0  0  0
  1  2  1  0
  2  3  2  0
  2 20  1  0
  3  4  1  0
  4  5  1  0
  4 18  1  0
  5  6  2  0
  6  7  1  0
  6 10  1  0
  7  8  1  0
  8  9  1  0
 10 11  1  0
 10 18  2  0
 11 12  1  0
 12 13  2  0
 12 17  1  0
 13 14  1  0
 14 15  2  0
 15 16  1  0
 16 17  2  0
 18 19  1  0
 19 20  2  0
 19 23  1  0
 20 21  1  0
 21 22  1  0
 22 23  2  0
 23 24  1  0
M  END
