
     RDKit          3D

  8  7  0  0  0  0  0  0  0  0999 V2000
    2.8430    0.8450   -0.9880 C   0  0  0  0  0  0  0  0  0  0  0  0
    1.7860    0.1290   -0.2210 C   0  0  0  0  0  0  0  0  0  0  0  0
    2.0200   -1.3150    0.0190 C   0  0  0  0  0  0  0  0  0  0  0  0
    0.7290    0.8100    0.1900 C   0  0  0  0  0  0  0  0  0  0  0  0
   -0.4080    0.2560    0.9610 C   0  0  0  0  0  0  0  0  0  0  0  0
   -1.7180    0.4100    0.2170 C   0  0  1  0  0  0  0  0  0  0  0  0
   -1.6620   -0.3120   -1.1040 C   0  0  0  0  0  0  0  0  0  0  0  0
   -2.8830   -0.1040    1.0130 C   0  0  0  0  0  0  0  0  0  0  0  0
  1  2  1  0
  2  3  1  0
  2  4  2  3
  4  5  1  0
  5  6  1  0
  6  7  1  6
  6  8  1  0
M  END
