
     RDKit          3D

 21 23  0  0  0  0  0  0  0  0999 V2000
    5.9260   -0.6840    0.9740 C   0  0  0  0  0  0  0  0  0  0  0  0
    4.4780   -0.4660    0.7200 C   0  0  0  0  0  0  0  0  0  0  0  0
    3.9620    0.7150    0.2600 C   0  0  0  0  0  0  0  0  0  0  0  0
    2.5990    0.9020    0.0260 C   0  0  0  0  0  0  0  0  0  0  0  0
    1.7120   -0.1230    0.2570 C   0  0  0  0  0  0  0  0  0  0  0  0
    0.2730   -0.0140    0.0110 C   0  0  0  0  0  0  0  0  0  0  0  0
   -0.7060   -0.3140    0.9230 N   0  0  0  0  0  0  0  0  0  0  0  0
   -1.9000   -0.1300    0.3930 N   0  0  0  0  0  0  0  0  0  0  0  0
   -3.2060   -0.3180    0.9790 C   0  0  2  0  0  0  0  0  0  0  0  0
   -3.9620   -1.2780    0.0770 C   0  0  0  0  0  0  0  0  0  0  0  0
   -3.9380    0.9980    0.9400 C   0  0  0  0  0  0  0  0  0  0  0  0
   -3.1420   -0.8960    2.3570 C   0  0  0  0  0  0  0  0  0  0  0  0
   -1.7210    0.2920   -0.8740 C   0  0  0  0  0  0  0  0  0  0  0  0
   -2.5570    0.6250   -1.8820 N   0  0  0  0  0  0  0  0  0  0  0  0
   -2.1440    1.0200   -3.1000 C   0  0  0  0  0  0  0  0  0  0  0  0
   -0.8230    1.0890   -3.3340 N   0  0  0  0  0  0  0  0  0  0  0  0
    0.0820    0.7680   -2.3640 C   0  0  0  0  0  0  0  0  0  0  0  0
    1.4510    0.8350   -2.6740 N   0  0  0  0  0  0  0  0  0  0  0  0
   -0.3560    0.3710   -1.1360 C   0  0  0  0  0  0  0  0  0  0  0  0
    2.2270   -1.3410    0.7300 C   0  0  0  0  0  0  0  0  0  0  0  0
    3.5800   -1.4920    0.9500 C   0  0  0  0  0  0  0  0  0  0  0  0
  1  2  1  0
  2  3  2  0
  2 21  1  0
  3  4  1  0
  4  5  2  0
  5  6  1  0
  5 20  1  0
  6  7  2  0
  6 19  1  0
  7  8  1  0
  8  9  1  0
  8 13  1  0
  9 10  1  6
  9 11  1  0
  9 12  1  0
 13 14  2  0
 13 19  1  0
 14 15  1  0
 15 16  2  0
 16 17  1  0
 17 18  1  0
 17 19  2  0
 20 21  2  0
M  END
