
     RDKit          3D

 24 24  0  0  0  0  0  0  0  0999 V2000
   -3.1350   -2.1020    0.8980 C   0  0  0  0  0  0  0  0  0  0  0  0
   -2.5070   -0.9000    0.1820 C   0  0  1  0  0  0  0  0  0  0  0  0
   -1.1060   -1.1650   -0.1090 N   0  0  0  0  0  0  0  0  0  0  0  0
   -0.0570   -0.4190    0.4870 C   0  0  0  0  0  0  0  0  0  0  0  0
   -0.4320    0.5030    1.3000 O   0  0  0  0  0  0  0  0  0  0  0  0
    1.3480   -0.5950    0.2730 C   0  0  0  0  0  0  0  0  0  0  0  0
    1.7870   -1.5200   -0.5460 C   0  0  0  0  0  0  0  0  0  0  0  0
    3.1590   -1.7080   -0.7700 C   0  0  0  0  0  0  0  0  0  0  0  0
    3.5410   -2.6620   -1.6110 O   0  0  0  0  0  0  0  0  0  0  0  0
    4.3030   -1.1670   -0.3550 N   0  0  0  0  0  0  0  0  0  0  0  0
    5.3350   -0.5060    0.1700 C   0  0  0  0  0  0  0  0  0  0  0  0
    6.4760   -0.9850   -0.2950 O   0  0  0  0  0  0  0  0  0  0  0  0
    5.4530    0.5140    1.0460 N   0  0  0  0  0  0  0  0  0  0  0  0
    6.7500    1.0280    1.4320 C   0  0  0  0  0  0  0  0  0  0  0  0
    6.4300    2.1340    2.4040 C   0  0  0  0  0  0  0  0  0  0  0  0
    7.6550    2.7140    2.8510 N   0  0  0  0  0  0  0  0  0  0  0  0
   -3.2720   -0.5450   -1.0160 C   0  0  0  0  0  0  0  0  0  0  0  0
   -2.7210   -0.4940   -2.1340 O   0  0  0  0  0  0  0  0  0  0  0  0
   -4.6520   -0.2560   -0.9040 N   0  0  0  0  0  0  0  0  0  0  0  0
   -5.4840    0.1030   -2.0340 C   0  0  2  0  0  0  0  0  0  0  0  0
   -6.1190    1.4430   -1.7670 C   0  0  0  0  0  0  0  0  0  0  0  0
   -7.4250    1.0580   -1.1400 C   0  0  0  0  0  0  0  0  0  0  0  0
   -7.7810   -0.1380   -1.6990 O   0  0  0  0  0  0  0  0  0  0  0  0
   -6.6610   -0.8370   -2.0500 C   0  0  0  0  0  0  0  0  0  0  0  0
  2  1  1  6
  2  3  1  0
  2 17  1  0
  3  4  1  0
  4  5  2  0
  4  6  1  0
  6  7  2  3
  7  8  1  0
  8  9  2  0
  8 10  1  0
 10 11  1  0
 11 12  2  0
 11 13  1  0
 13 14  1  0
 14 15  1  0
 15 16  1  0
 17 18  2  0
 17 19  1  0
 20 19  1  1
 20 21  1  0
 20 24  1  0
 21 22  1  0
 22 23  1  0
 23 24  1  0
M  CHG  1  16   1
M  END
