
     RDKit          3D

 24 24  0  0  0  0  0  0  0  0999 V2000
    9.0630   -1.4790    1.3300 N   0  0  0  0  0  0  0  0  0  0  0  0
    8.7280   -0.5920    0.2300 C   0  0  0  0  0  0  0  0  0  0  0  0
    7.2710   -0.2520    0.2730 C   0  0  0  0  0  0  0  0  0  0  0  0
    6.8990    0.9920    0.3950 C   0  0  0  0  0  0  0  0  0  0  0  0
    5.5150    1.4100    0.4450 C   0  0  0  0  0  0  0  0  0  0  0  0
    5.2130    2.6470    0.5680 O   0  0  0  0  0  0  0  0  0  0  0  0
    4.4340    0.5010    0.3650 N   0  0  0  0  0  0  0  0  0  0  0  0
    3.1010    0.9560    0.4170 N   0  0  0  0  0  0  0  0  0  0  0  0
    2.0050    0.1230    0.0890 C   0  0  0  0  0  0  0  0  0  0  0  0
    2.1810   -1.0680   -0.2670 O   0  0  0  0  0  0  0  0  0  0  0  0
    0.6660    0.6750    0.1710 C   0  0  0  0  0  0  0  0  0  0  0  0
    0.5030    1.8550    0.5290 O   0  0  0  0  0  0  0  0  0  0  0  0
   -0.4990   -0.0710   -0.1410 N   0  0  0  0  0  0  0  0  0  0  0  0
   -1.8610    0.4710   -0.0670 C   0  0  2  0  0  0  0  0  0  0  0  0
   -2.6590   -0.1770    1.0150 C   0  0  0  0  0  0  0  0  0  0  0  0
   -3.8790    0.5970    1.3680 C   0  0  0  0  0  0  0  0  0  0  0  0
   -4.6980    0.8430    0.1320 C   0  0  0  0  0  0  0  0  0  0  0  0
   -4.6600   -0.3500   -0.7460 C   0  0  1  0  0  0  0  0  0  0  0  0
   -6.0070   -0.5750   -1.3880 C   0  0  0  0  0  0  0  0  0  0  0  0
   -7.0040   -0.8100   -0.3230 C   0  0  0  0  0  0  0  0  0  0  0  0
   -6.6440   -0.8700    0.8760 O   0  0  0  0  0  0  0  0  0  0  0  0
   -8.3590   -0.9750   -0.5880 O   0  0  0  0  0  0  0  0  0  0  0  0
   -3.5580   -0.3860   -1.6610 N   0  0  0  0  0  0  0  0  0  0  0  0
   -2.5080    0.5420   -1.4070 C   0  0  0  0  0  0  0  0  0  0  0  0
  1  2  1  0
  2  3  1  0
  3  4  2  3
  4  5  1  0
  5  6  2  0
  5  7  1  0
  7  8  1  0
  8  9  1  0
  9 10  2  0
  9 11  1  0
 11 12  2  0
 11 13  1  0
 14 13  1  6
 14 15  1  0
 14 24  1  0
 15 16  1  0
 16 17  1  0
 17 18  1  0
 18 19  1  6
 18 23  1  0
 19 20  1  0
 20 21  2  0
 20 22  1  0
 23 24  1  0
M  CHG  1  23   1
M  END
