
     RDKit          3D

 21 23  0  0  0  0  0  0  0  0999 V2000
   -3.7120    0.5500    0.5280 C   0  0  0  0  0  0  0  0  0  0  0  0
   -2.8120   -0.2170   -0.4080 C   0  0  2  0  0  0  0  0  0  0  0  0
   -2.9770    0.2510   -1.8140 C   0  0  0  0  0  0  0  0  0  0  0  0
   -3.1860   -1.6740   -0.3100 C   0  0  0  0  0  0  0  0  0  0  0  0
   -1.4410    0.0220    0.0140 N   0  0  0  0  0  0  0  0  0  0  0  0
   -0.4010   -0.0570   -0.7990 N   0  0  0  0  0  0  0  0  0  0  0  0
    0.7380    0.2120   -0.1430 C   0  0  0  0  0  0  0  0  0  0  0  0
    2.0520    0.2230   -0.7570 C   0  0  0  0  0  0  0  0  0  0  0  0
    2.2530    0.9790   -1.9240 C   0  0  0  0  0  0  0  0  0  0  0  0
    3.4700    0.9990   -2.5530 C   0  0  0  0  0  0  0  0  0  0  0  0
    4.5590    0.2940   -2.0930 C   0  0  0  0  0  0  0  0  0  0  0  0
    6.1090    0.3420   -2.9240 Cl  0  0  0  0  0  0  0  0  0  0  0  0
    4.3700   -0.4500   -0.9490 C   0  0  0  0  0  0  0  0  0  0  0  0
    3.1390   -0.4830   -0.2970 C   0  0  0  0  0  0  0  0  0  0  0  0
    0.3790    0.4720    1.1500 C   0  0  0  0  0  0  0  0  0  0  0  0
    1.0510    0.8130    2.2860 C   0  0  0  0  0  0  0  0  0  0  0  0
    2.4440    0.9720    2.2390 N   0  0  0  0  0  0  0  0  0  0  0  0
    0.3830    1.0180    3.4480 N   0  0  0  0  0  0  0  0  0  0  0  0
   -0.9520    0.8930    3.5180 C   0  0  0  0  0  0  0  0  0  0  0  0
   -1.6360    0.5590    2.4090 N   0  0  0  0  0  0  0  0  0  0  0  0
   -0.9980    0.3490    1.2380 C   0  0  0  0  0  0  0  0  0  0  0  0
  2  1  1  1
  2  3  1  0
  2  4  1  0
  2  5  1  0
  5  6  1  0
  5 21  1  0
  6  7  2  0
  7  8  1  0
  7 15  1  0
  8  9  2  0
  8 14  1  0
  9 10  1  0
 10 11  2  0
 11 12  1  0
 11 13  1  0
 13 14  2  0
 15 16  2  0
 15 21  1  0
 16 17  1  0
 16 18  1  0
 18 19  2  0
 19 20  1  0
 20 21  2  0
M  END
