
     RDKit          3D

 21 23  0  0  0  0  0  0  0  0999 V2000
   -4.2080    0.6010   -2.2000 N   0  0  0  0  0  0  0  0  0  0  0  0
   -4.3220    0.4310   -0.7680 C   0  0  2  0  0  0  0  0  0  0  0  0
   -5.1120    1.3690   -0.1620 O   0  0  0  0  0  0  0  0  0  0  0  0
   -4.6830    1.5830    1.1180 C   0  0  0  0  0  0  0  0  0  0  0  0
   -3.4280    0.7590    1.3330 C   0  0  1  0  0  0  0  0  0  0  0  0
   -3.8480   -0.4600    1.8670 O   0  0  0  0  0  0  0  0  0  0  0  0
   -2.9630    0.6120   -0.0830 C   0  0  1  0  0  0  0  0  0  0  0  0
   -2.0860   -0.4780   -0.3220 N   0  0  0  0  0  0  0  0  0  0  0  0
   -1.0310   -0.4890    0.6820 C   0  0  0  0  0  0  0  0  0  0  0  0
   -0.2510   -1.7310    0.6510 C   0  0  0  0  0  0  0  0  0  0  0  0
    1.0140   -1.9300    0.4370 C   0  0  0  0  0  0  0  0  0  0  0  0
    1.9440   -0.8540    0.1690 C   0  0  0  0  0  0  0  0  0  0  0  0
    1.7990    0.4650    0.0730 N   0  0  0  0  0  0  0  0  0  0  0  0
    2.9640    1.0090   -0.1880 N   0  0  0  0  0  0  0  0  0  0  0  0
    3.8530    0.0220   -0.2570 C   0  0  0  0  0  0  0  0  0  0  0  0
    5.2530    0.2180   -0.5280 N   0  0  0  0  0  0  0  0  0  0  0  0
    6.2430   -0.2580    0.2440 C   0  0  0  0  0  0  0  0  0  0  0  0
    7.4580    0.1140   -0.3080 C   0  0  0  0  0  0  0  0  0  0  0  0
    7.1460    0.8310   -1.4400 C   0  0  0  0  0  0  0  0  0  0  0  0
    5.8040    0.8690   -1.5330 N   0  0  0  0  0  0  0  0  0  0  0  0
    3.2370   -1.0880   -0.0430 O   0  0  0  0  0  0  0  0  0  0  0  0
  2  1  1  6
  2  3  1  0
  2  7  1  0
  3  4  1  0
  4  5  1  0
  5  6  1  6
  5  7  1  0
  7  8  1  1
  8  9  1  0
  9 10  1  0
 10 11  2  3
 11 12  1  0
 12 13  2  0
 12 21  1  0
 13 14  1  0
 14 15  2  0
 15 16  1  0
 15 21  1  0
 16 17  1  0
 16 20  1  0
 17 18  2  0
 18 19  1  0
 19 20  2  0
M  CHG  1   8   1
M  END
