
     RDKit          3D

 22 24  0  0  0  0  0  0  0  0999 V2000
    2.0890   -2.6790   -0.2410 N   0  0  0  0  0  0  0  0  0  0  0  0
    1.3340   -1.4880   -0.0800 C   0  0  0  0  0  0  0  0  0  0  0  0
   -0.0620   -1.4440    0.0090 C   0  0  0  0  0  0  0  0  0  0  0  0
   -0.4540   -0.1090    0.1660 C   0  0  0  0  0  0  0  0  0  0  0  0
   -1.8830    0.3070    0.2980 C   0  0  1  0  0  0  0  0  0  0  0  0
   -1.8410    1.7180    0.9000 C   0  0  0  0  0  0  0  0  0  0  0  0
   -1.1690    2.6890    0.1190 N   0  0  0  0  0  0  0  0  0  0  0  0
   -2.4550    0.4190   -1.0750 C   0  0  0  0  0  0  0  0  0  0  0  0
   -3.6440   -0.4220   -1.3750 C   0  0  0  0  0  0  0  0  0  0  0  0
   -3.6700   -1.7340   -0.6770 C   0  0  0  0  0  0  0  0  0  0  0  0
   -3.6210   -1.4830    0.7900 C   0  0  0  0  0  0  0  0  0  0  0  0
   -2.5830   -0.5500    1.2710 C   0  0  0  0  0  0  0  0  0  0  0  0
    0.6750    0.5730    0.1650 N   0  0  0  0  0  0  0  0  0  0  0  0
    1.7350   -0.2170    0.0220 N   0  0  0  0  0  0  0  0  0  0  0  0
    3.1010    0.2190   -0.0170 C   0  0  0  0  0  0  0  0  0  0  0  0
    3.6830    0.6840   -1.1930 C   0  0  0  0  0  0  0  0  0  0  0  0
    4.9860    1.1270   -1.2420 C   0  0  0  0  0  0  0  0  0  0  0  0
    5.7660    1.1210   -0.1020 C   0  0  0  0  0  0  0  0  0  0  0  0
    7.4270    1.6910   -0.1600 Cl  0  0  0  0  0  0  0  0  0  0  0  0
    5.1860    0.6570    1.0710 C   0  0  0  0  0  0  0  0  0  0  0  0
    6.1440    0.6470    2.5350 Cl  0  0  0  0  0  0  0  0  0  0  0  0
    3.8840    0.2150    1.1190 C   0  0  0  0  0  0  0  0  0  0  0  0
  1  2  1  0
  2  3  2  0
  2 14  1  0
  3  4  1  0
  4  5  1  0
  4 13  2  0
  5  6  1  1
  5  8  1  0
  5 12  1  0
  6  7  1  0
  8  9  1  0
  9 10  1  0
 10 11  1  0
 11 12  1  0
 13 14  1  0
 14 15  1  0
 15 16  2  0
 15 22  1  0
 16 17  1  0
 17 18  2  0
 18 19  1  0
 18 20  1  0
 20 21  1  0
 20 22  2  0
M  CHG  1   7   1
M  END
