
     RDKit          3D

 18 19  0  0  0  0  0  0  0  0999 V2000
   -2.1550   -1.2110    0.1610 C   0  0  0  0  0  0  0  0  0  0  0  0
   -1.0500   -0.1980   -0.0900 C   0  0  1  0  0  0  0  0  0  0  0  0
   -0.6250   -0.4290   -1.5350 C   0  0  0  0  0  0  0  0  0  0  0  0
   -1.5820    1.2170   -0.0430 C   0  0  0  0  0  0  0  0  0  0  0  0
   -2.6500    1.4530   -1.0840 C   0  0  0  0  0  0  0  0  0  0  0  0
   -3.7870    0.5710   -0.9050 N   0  0  0  0  0  0  0  0  0  0  0  0
   -0.0260   -0.4560    0.8530 N   0  0  0  0  0  0  0  0  0  0  0  0
   -0.5430   -0.2480    2.1820 C   0  0  0  0  0  0  0  0  0  0  0  0
    0.1050    0.9290    2.8890 C   0  0  0  0  0  0  0  0  0  0  0  0
    1.4700    0.7170    3.0610 O   0  0  0  0  0  0  0  0  0  0  0  0
    1.9910   -0.0480    2.0240 C   0  0  0  0  0  0  0  0  0  0  0  0
    1.2130    0.2100    0.7210 C   0  0  1  0  0  0  0  0  0  0  0  0
    2.1100   -0.3030   -0.3460 C   0  0  0  0  0  0  0  0  0  0  0  0
    2.5890    0.4470   -1.3160 C   0  0  0  0  0  0  0  0  0  0  0  0
    2.2800    2.3230   -1.6140 Br  0  0  0  0  0  0  0  0  0  0  0  0
    3.4320   -0.4310   -2.1590 C   0  0  0  0  0  0  0  0  0  0  0  0
    3.3500   -1.7500   -1.5240 C   0  0  0  0  0  0  0  0  0  0  0  0
    2.5780   -1.6580   -0.4720 C   0  0  0  0  0  0  0  0  0  0  0  0
  2  1  1  1
  2  3  1  0
  2  4  1  0
  2  7  1  0
  4  5  1  0
  5  6  1  0
  7  8  1  0
  7 12  1  0
  8  9  1  0
  9 10  1  0
 10 11  1  0
 11 12  1  0
 12 13  1  6
 13 14  2  0
 13 18  1  0
 14 15  1  0
 14 16  1  0
 16 17  1  0
 17 18  2  0
M  END
