
     RDKit          3D

 22 24  0  0  0  0  0  0  0  0999 V2000
   -3.2750    3.4460   -0.2580 C   0  0  0  0  0  0  0  0  0  0  0  0
   -2.8890    2.2080    0.4960 C   0  0  0  0  0  0  0  0  0  0  0  0
   -2.0130    1.2530    0.1190 N   0  0  0  0  0  0  0  0  0  0  0  0
   -1.9190    0.2910    1.0470 C   0  0  0  0  0  0  0  0  0  0  0  0
   -1.1020   -0.8910    1.0480 N   0  0  0  0  0  0  0  0  0  0  0  0
   -0.2060   -1.1120   -0.0380 C   0  0  2  0  0  0  0  0  0  0  0  0
    0.3270   -2.5470    0.1530 C   0  0  0  0  0  0  0  0  0  0  0  0
    0.9340   -2.9080   -1.1860 C   0  0  0  0  0  0  0  0  0  0  0  0
    2.1010   -1.9980   -1.3820 C   0  0  0  0  0  0  0  0  0  0  0  0
    3.1740   -2.4650   -2.1510 C   0  0  0  0  0  0  0  0  0  0  0  0
    4.2760   -1.6680   -2.3660 C   0  0  0  0  0  0  0  0  0  0  0  0
    5.6440   -2.2040   -3.3180 Cl  0  0  0  0  0  0  0  0  0  0  0  0
    4.2700   -0.4120   -1.7970 C   0  0  0  0  0  0  0  0  0  0  0  0
    5.4050    0.4640   -1.9930 C   0  0  0  0  0  0  0  0  0  0  0  0
    6.3060    1.1800   -2.1400 N   0  0  0  0  0  0  0  0  0  0  0  0
    3.2150    0.0510   -1.0400 C   0  0  0  0  0  0  0  0  0  0  0  0
    2.0880   -0.7500   -0.8140 C   0  0  0  0  0  0  0  0  0  0  0  0
    0.9920   -0.1870    0.0090 C   0  0  2  0  0  0  0  0  0  0  0  0
    1.4010   -0.0950    1.4130 N   0  0  0  0  0  0  0  0  0  0  0  0
   -2.7730    0.6650    2.0430 N   0  0  0  0  0  0  0  0  0  0  0  0
   -3.3670    1.8210    1.7260 C   0  0  0  0  0  0  0  0  0  0  0  0
   -4.3740    2.5600    2.5610 C   0  0  0  0  0  0  0  0  0  0  0  0
  1  2  1  0
  2  3  1  0
  2 21  2  0
  3  4  1  0
  4  5  1  0
  4 20  2  0
  6  5  1  1
  6  7  1  0
  6 18  1  0
  7  8  1  0
  8  9  1  0
  9 10  2  0
  9 17  1  0
 10 11  1  0
 11 12  1  0
 11 13  2  0
 13 14  1  0
 13 16  1  0
 14 15  3  0
 16 17  2  0
 17 18  1  0
 18 19  1  1
 20 21  1  0
 21 22  1  0
M  CHG  1  20   1
M  END
