
     RDKit          3D

 11 10  0  0  0  0  0  0  0  0999 V2000
   -0.2740   -2.0550    1.0140 C   0  0  0  0  0  0  0  0  0  0  0  0
   -0.8550   -1.0590    0.0250 C   0  0  0  0  0  0  0  0  0  0  0  0
   -0.4080    0.3130    0.2980 C   0  0  0  0  0  0  0  0  0  0  0  0
   -1.2370    1.2660    0.5830 C   0  0  0  0  0  0  0  0  0  0  0  0
   -2.6980    1.2250    0.6950 C   0  0  0  0  0  0  0  0  0  0  0  0
   -3.2880    2.1000   -0.2270 O   0  0  0  0  0  0  0  0  0  0  0  0
    0.9580    0.5970    0.2490 O   0  0  0  0  0  0  0  0  0  0  0  0
    1.8460   -0.0250   -0.6240 C   0  0  0  0  0  0  0  0  0  0  0  0
    3.2050    0.5150   -0.4050 C   0  0  0  0  0  0  0  0  0  0  0  0
    3.4040    1.3890    0.4570 O   0  0  0  0  0  0  0  0  0  0  0  0
    4.3130    0.0900   -1.1270 O   0  0  0  0  0  0  0  0  0  0  0  0
  1  2  1  0
  2  3  1  0
  3  4  2  3
  3  7  1  0
  4  5  1  0
  5  6  1  0
  7  8  1  0
  8  9  1  0
  9 10  2  0
  9 11  1  0
M  END
