
     RDKit          3D

 11 10  0  0  0  0  0  0  0  0999 V2000
   -3.7220   -1.0560    0.2920 C   0  0  0  0  0  0  0  0  0  0  0  0
   -3.3970    0.1870   -0.0130 C   0  0  0  0  0  0  0  0  0  0  0  0
   -4.4230    1.1080   -0.1730 O   0  0  0  0  0  0  0  0  0  0  0  0
   -2.0290    0.6470   -0.1910 C   0  0  0  0  0  0  0  0  0  0  0  0
   -0.9760   -0.3860   -0.0070 C   0  0  0  0  0  0  0  0  0  0  0  0
    0.3550    0.2600   -0.2270 C   0  0  0  0  0  0  0  0  0  0  0  0
    0.4500    1.5010   -0.5190 O   0  0  0  0  0  0  0  0  0  0  0  0
    1.5160   -0.4950   -0.1120 O   0  0  0  0  0  0  0  0  0  0  0  0
    2.7460    0.1550   -0.3270 C   0  0  0  0  0  0  0  0  0  0  0  0
    3.9220   -0.7550   -0.1770 C   0  0  0  0  0  0  0  0  0  0  0  0
    5.0760    0.0190   -0.4170 O   0  0  0  0  0  0  0  0  0  0  0  0
  1  2  2  0
  2  3  1  0
  2  4  1  0
  4  5  1  0
  5  6  1  0
  6  7  2  0
  6  8  1  0
  8  9  1  0
  9 10  1  0
 10 11  1  0
M  END
