
     RDKit          3D

 10 10  0  0  0  0  0  0  0  0999 V2000
    3.8480    0.8910    0.5200 O   0  0  0  0  0  0  0  0  0  0  0  0
    3.6070   -0.1390   -0.1690 C   0  0  0  0  0  0  0  0  0  0  0  0
    2.3200   -0.4110   -0.5880 O   0  0  0  0  0  0  0  0  0  0  0  0
    1.3060    0.4960   -0.2170 C   0  0  0  0  0  0  0  0  0  0  0  0
   -0.0510    0.0780   -0.7400 C   0  0  2  0  0  0  0  0  0  0  0  0
   -0.0780   -0.0020   -2.1170 O   0  0  0  0  0  0  0  0  0  0  0  0
   -1.0620    1.0930   -0.2790 C   0  0  0  0  0  0  0  0  0  0  0  0
   -1.9510    0.3410    0.6890 C   0  0  0  0  0  0  0  0  0  0  0  0
   -1.9800   -1.0370    0.0180 C   0  0  0  0  0  0  0  0  0  0  0  0
   -0.4720   -1.2570   -0.1520 C   0  0  0  0  0  0  0  0  0  0  0  0
  1  2  2  0
  2  3  1  0
  3  4  1  0
  4  5  1  0
  5  6  1  6
  5  7  1  0
  5 10  1  0
  7  8  1  0
  8  9  1  0
  9 10  1  0
M  END
