
     RDKit          3D

 16 15  0  0  0  0  0  0  0  0999 V2000
    3.4140   -0.9520    0.2540 C   0  0  0  0  0  0  0  0  0  0  0  0
    2.1350   -0.6530    0.4440 C   0  0  0  0  0  0  0  0  0  0  0  0
    1.7650    0.5800    1.1150 C   0  0  0  0  0  0  0  0  0  0  0  0
    2.9150    1.4030    1.6500 C   0  0  0  0  0  0  0  0  0  0  0  0
    3.6880    0.7800    2.5900 O   0  0  0  0  0  0  0  0  0  0  0  0
    1.1040   -1.6360    0.0180 C   0  0  0  0  0  0  0  0  0  0  0  0
    0.2480   -1.2930   -1.1190 C   0  0  0  0  0  0  0  0  0  0  0  0
   -0.5970   -0.0720   -1.0760 C   0  0  0  0  0  0  0  0  0  0  0  0
   -1.7860   -0.0350   -0.2220 C   0  0  0  0  0  0  0  0  0  0  0  0
   -2.7960    1.0360   -0.1710 C   0  0  0  0  0  0  0  0  0  0  0  0
   -2.0620   -1.1040    0.5450 C   0  0  0  0  0  0  0  0  0  0  0  0
   -3.2140   -1.1530    1.4390 C   0  0  0  0  0  0  0  0  0  0  0  0
   -2.7570   -1.5800    2.8640 C   0  0  0  0  0  0  0  0  0  0  0  0
   -0.2330    0.9020   -1.8720 C   0  0  0  0  0  0  0  0  0  0  0  0
   -0.8590    2.2330   -2.0500 C   0  0  0  0  0  0  0  0  0  0  0  0
    0.9720    0.6610   -2.7660 C   0  0  0  0  0  0  0  0  0  0  0  0
  1  2  2  0
  2  3  1  0
  2  6  1  0
  3  4  1  0
  4  5  1  0
  6  7  1  0
  7  8  1  0
  8  9  1  0
  8 14  2  3
  9 10  1  0
  9 11  2  3
 11 12  1  0
 12 13  1  0
 14 15  1  0
 14 16  1  0
M  END
