
     RDKit          3D

 23 26  0  0  0  0  0  0  0  0999 V2000
   -5.2970   -0.7180   -1.7180 N   0  0  0  0  0  0  0  0  0  0  0  0
   -3.9050   -1.0840   -1.7790 C   0  0  0  0  0  0  0  0  0  0  0  0
   -3.3990   -1.3920   -0.3900 C   0  0  0  0  0  0  0  0  0  0  0  0
   -3.5490   -0.2110    0.4680 C   0  0  0  0  0  0  0  0  0  0  0  0
   -4.6230    0.1150    1.2350 N   0  0  0  0  0  0  0  0  0  0  0  0
   -4.3980    1.2630    1.8790 C   0  0  0  0  0  0  0  0  0  0  0  0
   -3.1270    1.6910    1.5110 C   0  0  0  0  0  0  0  0  0  0  0  0
   -2.6710    0.7730    0.6690 N   0  0  0  0  0  0  0  0  0  0  0  0
   -1.3600    0.8220    0.0290 C   0  0  0  0  0  0  0  0  0  0  0  0
   -0.3750    0.1100    0.9220 C   0  0  0  0  0  0  0  0  0  0  0  0
    0.9520    0.1510    0.3030 C   0  0  0  0  0  0  0  0  0  0  0  0
    1.1940    0.7340   -0.8560 C   0  0  0  0  0  0  0  0  0  0  0  0
    2.5290    0.7760   -1.4840 C   0  0  0  0  0  0  0  0  0  0  0  0
    3.5550    0.2020   -0.8650 C   0  0  0  0  0  0  0  0  0  0  0  0
    4.9190    0.2130   -1.4480 C   0  0  0  0  0  0  0  0  0  0  0  0
    5.8780   -0.4850   -0.5760 C   0  0  0  0  0  0  0  0  0  0  0  0
    7.1110   -0.5800   -0.9110 O   0  0  0  0  0  0  0  0  0  0  0  0
    5.5480   -1.1100    0.6950 C   0  0  0  0  0  0  0  0  0  0  0  0
    4.2970   -1.0840    1.1630 C   0  0  0  0  0  0  0  0  0  0  0  0
    3.5670   -1.5720    2.3500 C   0  0  0  0  0  0  0  0  0  0  0  0
    2.2130   -1.1290    2.1050 N   0  0  0  0  0  0  0  0  0  0  0  0
    2.0920   -0.4950    1.0040 C   0  0  0  0  0  0  0  0  0  0  0  0
    3.3420   -0.4250    0.3610 N   0  0  0  0  0  0  0  0  0  0  0  0
  1  2  1  0
  2  3  1  0
  3  4  1  0
  4  5  2  0
  4  8  1  0
  5  6  1  0
  6  7  2  0
  7  8  1  0
  8  9  1  0
  9 10  1  0
 10 11  1  0
 11 12  2  0
 11 22  1  0
 12 13  1  0
 13 14  2  0
 14 15  1  0
 14 23  1  0
 15 16  1  0
 16 17  2  0
 16 18  1  0
 18 19  2  0
 19 20  1  0
 19 23  1  0
 20 21  1  0
 21 22  2  0
 22 23  1  0
M  CHG  1   1   1
M  END
