
     RDKit          3D

 24 26  0  0  0  0  0  0  0  0999 V2000
   -5.4660   -0.8280    2.4550 C   0  0  0  0  0  0  0  0  0  0  0  0
   -5.3630   -0.8820    0.9510 C   0  0  0  0  0  0  0  0  0  0  0  0
   -3.9110   -0.6130    0.5960 C   0  0  2  0  0  0  0  0  0  0  0  0
   -3.5360    0.7680    1.1250 C   0  0  0  0  0  0  0  0  0  0  0  0
   -3.7660   -0.6280   -0.8480 N   0  0  0  0  0  0  0  0  0  0  0  0
   -2.4670   -0.4740   -1.4020 C   0  0  0  0  0  0  0  0  0  0  0  0
   -1.3470   -0.3130   -0.6120 C   0  0  0  0  0  0  0  0  0  0  0  0
   -0.0990   -0.1590   -1.1630 C   0  0  0  0  0  0  0  0  0  0  0  0
    1.0720    0.0100   -0.3130 C   0  0  0  0  0  0  0  0  0  0  0  0
    0.9650    0.0200    1.0260 N   0  0  0  0  0  0  0  0  0  0  0  0
    2.0110    0.1720    1.8390 N   0  0  0  0  0  0  0  0  0  0  0  0
    3.2580    0.3260    1.3350 C   0  0  0  0  0  0  0  0  0  0  0  0
    4.2170    0.4660    2.1380 O   0  0  0  0  0  0  0  0  0  0  0  0
    3.3970    0.3200   -0.0360 C   0  0  0  0  0  0  0  0  0  0  0  0
    4.7400    0.4860   -0.5710 C   0  0  0  0  0  0  0  0  0  0  0  0
    5.6370    1.4240   -0.1190 C   0  0  0  0  0  0  0  0  0  0  0  0
    6.8720    1.4490   -0.7350 C   0  0  0  0  0  0  0  0  0  0  0  0
    7.2190    0.5910   -1.7550 C   0  0  0  0  0  0  0  0  0  0  0  0
    6.3230   -0.3160   -2.1770 N   0  0  0  0  0  0  0  0  0  0  0  0
    5.1280   -0.3540   -1.5930 C   0  0  0  0  0  0  0  0  0  0  0  0
    2.3130    0.1630   -0.8180 N   0  0  0  0  0  0  0  0  0  0  0  0
    0.0070   -0.1700   -2.5370 C   0  0  0  0  0  0  0  0  0  0  0  0
   -1.1310   -0.3340   -3.3360 C   0  0  0  0  0  0  0  0  0  0  0  0
   -2.3330   -0.4810   -2.7530 N   0  0  0  0  0  0  0  0  0  0  0  0
  1  2  1  0
  2  3  1  0
  3  4  1  6
  3  5  1  0
  5  6  1  0
  6  7  2  0
  6 24  1  0
  7  8  1  0
  8  9  1  0
  8 22  2  0
  9 10  2  0
  9 21  1  0
 10 11  1  0
 11 12  1  0
 12 13  2  0
 12 14  1  0
 14 15  1  0
 14 21  2  0
 15 16  2  0
 15 20  1  0
 16 17  1  0
 17 18  2  0
 18 19  1  0
 19 20  2  0
 22 23  1  0
 23 24  2  0
M  CHG  1  24   1
M  END
