
     RDKit          3D

 16 15  0  0  0  0  0  0  0  0999 V2000
   -3.1600   -0.3390   -1.3350 C   0  0  0  0  0  0  0  0  0  0  0  0
   -2.4450   -1.2170   -0.6870 C   0  0  0  0  0  0  0  0  0  0  0  0
   -3.2130   -2.5310   -0.5480 C   0  0  0  0  0  0  0  0  0  0  0  0
   -1.1100   -1.1060   -0.1590 C   0  0  0  0  0  0  0  0  0  0  0  0
   -0.4990   -2.0880    0.5170 C   0  0  0  0  0  0  0  0  0  0  0  0
   -1.0460   -3.3930    0.8320 C   0  0  0  0  0  0  0  0  0  0  0  0
   -0.2310    0.0940   -0.3060 C   0  0  0  0  0  0  0  0  0  0  0  0
   -0.5000    1.2020   -0.8970 C   0  0  0  0  0  0  0  0  0  0  0  0
    0.2900    2.4170   -1.0860 C   0  0  0  0  0  0  0  0  0  0  0  0
   -0.2600    3.4540   -1.7660 C   0  0  0  0  0  0  0  0  0  0  0  0
   -1.6250    3.4070   -2.3230 C   0  0  0  0  0  0  0  0  0  0  0  0
    1.1510   -0.0720    0.3340 C   0  0  0  0  0  0  0  0  0  0  0  0
    1.9370    0.9950    0.1980 O   0  0  0  0  0  0  0  0  0  0  0  0
    3.2080    1.0520    0.6020 C   0  0  0  0  0  0  0  0  0  0  0  0
    3.5040    0.8530    2.0410 C   0  0  0  0  0  0  0  0  0  0  0  0
    3.1850   -0.5070    2.5750 C   0  0  0  0  0  0  0  0  0  0  0  0
  1  2  2  0
  2  3  1  0
  2  4  1  0
  4  5  2  3
  4  7  1  0
  5  6  1  0
  7  8  2  3
  7 12  1  0
  8  9  1  0
  9 10  2  3
 10 11  1  0
 12 13  1  0
 13 14  1  0
 14 15  1  0
 15 16  1  0
M  END
