
     RDKit          3D

 24 26  0  0  0  0  0  0  0  0999 V2000
   -3.3520    2.2790   -0.9810 C   0  0  0  0  0  0  0  0  0  0  0  0
   -2.5860    1.0830   -0.5310 C   0  0  0  0  0  0  0  0  0  0  0  0
   -1.2230    0.9940   -0.8500 C   0  0  0  0  0  0  0  0  0  0  0  0
   -0.4820   -0.1060   -0.4470 C   0  0  0  0  0  0  0  0  0  0  0  0
    0.8750   -0.1140   -0.8080 N   0  0  0  0  0  0  0  0  0  0  0  0
    1.8290   -1.1170   -0.5170 C   0  0  0  0  0  0  0  0  0  0  0  0
    1.5070   -2.1310    0.1250 O   0  0  0  0  0  0  0  0  0  0  0  0
    3.1920   -0.9950   -0.9510 N   0  0  0  0  0  0  0  0  0  0  0  0
    4.1680   -2.0200   -0.6540 C   0  0  0  0  0  0  0  0  0  0  0  0
    5.5270   -1.6490   -1.2240 C   0  0  0  0  0  0  0  0  0  0  0  0
    5.9010   -0.3900   -0.5960 N   0  0  0  0  0  0  0  0  0  0  0  0
    6.5920   -0.3110    0.5520 C   0  0  0  0  0  0  0  0  0  0  0  0
    6.7580    1.0230    0.8330 C   0  0  0  0  0  0  0  0  0  0  0  0
    6.1460    1.7000   -0.1800 C   0  0  0  0  0  0  0  0  0  0  0  0
    5.6240    0.8270   -1.0510 N   0  0  0  0  0  0  0  0  0  0  0  0
   -1.1190   -1.0760    0.2570 C   0  0  0  0  0  0  0  0  0  0  0  0
   -2.4860   -0.9740    0.5700 C   0  0  0  0  0  0  0  0  0  0  0  0
   -3.2390    0.1150    0.1760 C   0  0  0  0  0  0  0  0  0  0  0  0
   -4.6560    0.2350    0.4930 C   0  0  0  0  0  0  0  0  0  0  0  0
   -5.3620   -0.7140    1.2030 C   0  0  0  0  0  0  0  0  0  0  0  0
   -6.7180   -0.5690    1.4900 C   0  0  0  0  0  0  0  0  0  0  0  0
   -7.3260    0.5350    1.0490 N   0  0  0  0  0  0  0  0  0  0  0  0
   -6.6570    1.4680    0.3570 C   0  0  0  0  0  0  0  0  0  0  0  0
   -5.3590    1.3030    0.0970 N   0  0  0  0  0  0  0  0  0  0  0  0
  1  2  1  0
  2  3  2  0
  2 18  1  0
  3  4  1  0
  4  5  1  0
  4 16  2  0
  5  6  1  0
  6  7  2  0
  6  8  1  0
  8  9  1  0
  9 10  1  0
 10 11  1  0
 11 12  1  0
 11 15  1  0
 12 13  2  0
 13 14  1  0
 14 15  2  0
 16 17  1  0
 17 18  2  0
 18 19  1  0
 19 20  2  0
 19 24  1  0
 20 21  1  0
 21 22  2  0
 22 23  1  0
 23 24  2  0
M  CHG  1  22   1
M  END
