
     RDKit          3D

 31 32  0  0  0  0  0  0  0  0999 V2000
    2.3390    1.8090    4.5010 O   0  0  0  0  0  0  0  0  0  0  0  0
    1.3820    1.2960    3.8730 C   0  0  0  0  0  0  0  0  0  0  0  0
    0.1730    1.1400    4.5460 O   0  0  0  0  0  0  0  0  0  0  0  0
    1.5620    0.9110    2.5610 O   0  0  0  0  0  0  0  0  0  0  0  0
    2.7480    1.0510    1.8650 C   0  0  0  0  0  0  0  0  0  0  0  0
    3.7250    1.5610    2.4640 O   0  0  0  0  0  0  0  0  0  0  0  0
    2.9260    0.6410    0.4780 C   0  0  0  0  0  0  0  0  0  0  0  0
    4.0540    0.7550   -0.2420 N   0  0  0  0  0  0  0  0  0  0  0  0
    3.9000    0.2850   -1.4950 C   0  0  0  0  0  0  0  0  0  0  0  0
    4.8980    0.2390   -2.5670 C   0  0  0  0  0  0  0  0  0  0  0  0
    4.5570   -0.2390   -3.6700 O   0  0  0  0  0  0  0  0  0  0  0  0
    6.1650    0.7010   -2.3830 O   0  0  0  0  0  0  0  0  0  0  0  0
    7.1180    0.6770   -3.3480 O   0  0  0  0  0  0  0  0  0  0  0  0
    2.6260   -0.1370   -1.5560 N   0  0  0  0  0  0  0  0  0  0  0  0
    1.9940    0.0650   -0.3610 C   0  0  0  0  0  0  0  0  0  0  0  0
    0.6470   -0.2570   -0.0560 N   0  0  0  0  0  0  0  0  0  0  0  0
   -0.2430   -0.8620   -1.0200 C   0  0  0  0  0  0  0  0  0  0  0  0
   -1.6120   -1.1090   -0.4710 C   0  0  1  0  0  0  0  0  0  0  0  0
   -1.5160   -1.9540    0.6050 O   0  0  0  0  0  0  0  0  0  0  0  0
   -2.1450   -3.1670    0.4350 C   0  0  0  0  0  0  0  0  0  0  0  0
   -1.4740   -4.1400   -0.9950 P   0  0  0  0  0  0  0  0  0  0  0  0
   -2.1000   -3.6050   -2.4980 O   0  0  0  0  0  0  0  0  0  0  0  0
   -1.7160   -5.8370   -0.7420 O   0  0  0  0  0  0  0  0  0  0  0  0
   -2.3360    0.1490   -0.1620 C   0  0  0  0  0  0  0  0  0  0  0  0
   -3.4870    0.2080    0.5310 N   0  0  0  0  0  0  0  0  0  0  0  0
   -3.8830    1.4600    0.6420 N   0  0  0  0  0  0  0  0  0  0  0  0
   -2.9890    2.2480    0.0170 C   0  0  0  0  0  0  0  0  0  0  0  0
   -3.0550    4.0810   -0.1330 P   0  0  0  0  0  0  0  0  0  0  0  0
   -4.6220    4.5280   -0.6780 O   0  0  0  0  0  0  0  0  0  0  0  0
   -2.6700    4.8410    1.3800 O   0  0  0  0  0  0  0  0  0  0  0  0
   -2.0410    1.4180   -0.4730 N   0  0  0  0  0  0  0  0  0  0  0  0
  1  2  2  0
  2  3  1  0
  2  4  1  0
  4  5  1  0
  5  6  2  0
  5  7  1  0
  7  8  1  0
  7 15  2  0
  8  9  2  0
  9 10  1  0
  9 14  1  0
 10 11  2  0
 10 12  1  0
 12 13  1  0
 14 15  1  0
 15 16  1  0
 16 17  1  0
 18 17  1  1
 18 19  1  0
 18 24  1  0
 19 20  1  0
 20 21  1  0
 21 22  1  0
 21 23  1  0
 24 25  2  0
 24 31  1  0
 25 26  1  0
 26 27  1  0
 27 28  1  0
 27 31  2  0
 28 29  1  0
 28 30  1  0
M  END
