
     RDKit          3D

 31 32  0  0  0  0  0  0  0  0999 V2000
    8.8200   -0.7570    1.1130 N   0  0  0  0  0  0  0  0  0  0  0  0
    7.8240    0.0640    0.5150 C   0  0  0  0  0  0  0  0  0  0  0  0
    8.0500    1.2860    0.2790 O   0  0  0  0  0  0  0  0  0  0  0  0
    6.5690   -0.4200    0.1610 O   0  0  0  0  0  0  0  0  0  0  0  0
    5.5970    0.4080   -0.4300 C   0  0  0  0  0  0  0  0  0  0  0  0
    5.7540    1.6410   -0.6960 N   0  0  0  0  0  0  0  0  0  0  0  0
    4.6050    2.1780   -1.2780 O   0  0  0  0  0  0  0  0  0  0  0  0
    3.8990    1.0720   -1.8680 C   0  0  0  0  0  0  0  0  0  0  0  0
    4.2330    0.0070   -0.8470 C   0  0  2  0  0  0  0  0  0  0  0  0
    3.3180    0.0130    0.2770 N   0  0  0  0  0  0  0  0  0  0  0  0
    1.9880   -0.3340    0.0930 N   0  0  0  0  0  0  0  0  0  0  0  0
    1.0820    0.5780   -0.0280 C   0  0  0  0  0  0  0  0  0  0  0  0
   -0.2840    0.2100   -0.2160 N   0  0  0  0  0  0  0  0  0  0  0  0
   -0.6470   -1.0470    0.0880 O   0  0  0  0  0  0  0  0  0  0  0  0
   -1.7450   -1.0120    0.7960 O   0  0  0  0  0  0  0  0  0  0  0  0
   -1.8300    0.1770    1.3590 O   0  0  0  0  0  0  0  0  0  0  0  0
   -3.0250    0.7410    1.2100 N   0  0  0  0  0  0  0  0  0  0  0  0
   -3.0560    2.1530    1.1990 C   0  0  0  0  0  0  0  0  0  0  0  0
   -3.4860    2.7950   -0.0680 C   0  0  0  0  0  0  0  0  0  0  0  0
   -3.5190    1.9640   -1.1830 O   0  0  0  0  0  0  0  0  0  0  0  0
   -3.9060    0.6350   -1.0520 C   0  0  0  0  0  0  0  0  0  0  0  0
   -4.2410   -0.0810   -2.0410 O   0  0  0  0  0  0  0  0  0  0  0  0
   -3.9090    0.0760    0.3240 C   0  0  2  0  0  0  0  0  0  0  0  0
   -5.3220    0.1790    0.8570 C   0  0  0  0  0  0  0  0  0  0  0  0
   -6.3120   -0.5210   -0.0600 C   0  0  0  0  0  0  0  0  0  0  0  0
   -5.7900   -2.3100   -0.1410 P   0  0  0  0  0  0  0  0  0  0  0  0
   -6.6130   -3.0770   -1.4540 O   0  0  0  0  0  0  0  0  0  0  0  0
   -6.1700   -3.0860    1.3520 O   0  0  0  0  0  0  0  0  0  0  0  0
    4.2230   -1.6380   -1.6960 P   0  0  0  0  0  0  0  0  0  0  0  0
    5.6000   -1.7510   -2.7450 O   0  0  0  0  0  0  0  0  0  0  0  0
    4.1730   -2.9140   -0.5440 O   0  0  0  0  0  0  0  0  0  0  0  0
  1  2  1  0
  2  3  2  0
  2  4  1  0
  4  5  1  0
  5  6  2  0
  5  9  1  0
  6  7  1  0
  7  8  1  0
  8  9  1  0
  9 10  1  1
  9 29  1  0
 10 11  1  0
 11 12  2  3
 12 13  1  0
 13 14  1  0
 14 15  1  0
 15 16  1  0
 16 17  1  0
 17 18  1  0
 17 23  1  0
 18 19  1  0
 19 20  1  0
 20 21  1  0
 21 22  2  0
 21 23  1  0
 23 24  1  1
 24 25  1  0
 25 26  1  0
 26 27  1  0
 26 28  1  0
 29 30  1  0
 29 31  1  0
M  END
