
     RDKit          3D

 31 32  0  0  0  0  0  0  0  0999 V2000
   -7.2240   -0.2840   -0.8980 O   0  0  0  0  0  0  0  0  0  0  0  0
   -7.2230   -1.3290   -1.6270 C   0  0  0  0  0  0  0  0  0  0  0  0
   -6.3020   -2.3630   -1.2830 N   0  0  0  0  0  0  0  0  0  0  0  0
   -5.4260   -2.1700   -0.1310 C   0  0  1  0  0  0  0  0  0  0  0  0
   -6.1450   -2.0030    1.0520 O   0  0  0  0  0  0  0  0  0  0  0  0
   -4.7040   -3.3270    0.0070 O   0  0  0  0  0  0  0  0  0  0  0  0
   -4.5720   -0.9410   -0.4060 C   0  0  0  0  0  0  0  0  0  0  0  0
   -4.8290    0.0610    0.3040 N   0  0  0  0  0  0  0  0  0  0  0  0
   -4.3370    1.3460    0.4100 N   0  0  0  0  0  0  0  0  0  0  0  0
   -3.2060    1.6250    1.0290 N   0  0  0  0  0  0  0  0  0  0  0  0
   -2.1940    2.0720    1.4810 C   0  0  0  0  0  0  0  0  0  0  0  0
   -1.1550    1.6580    2.3950 O   0  0  0  0  0  0  0  0  0  0  0  0
    0.0660    1.9770    1.6860 C   0  0  0  0  0  0  0  0  0  0  0  0
   -0.3770    2.8950    0.6110 C   0  0  2  0  0  0  0  0  0  0  0  0
   -1.6350    3.3590    1.1890 O   0  0  0  0  0  0  0  0  0  0  0  0
   -0.7450    2.4650   -0.5790 O   0  0  0  0  0  0  0  0  0  0  0  0
   -0.4280    1.0840   -1.3570 P   0  0  0  0  0  0  0  0  0  0  0  0
    0.6480   -0.1430   -0.7610 N   0  0  0  0  0  0  0  0  0  0  0  0
    2.0740    0.0370   -0.7440 C   0  0  0  0  0  0  0  0  0  0  0  0
    2.4990    1.1380   -1.1800 O   0  0  0  0  0  0  0  0  0  0  0  0
    2.9000   -0.9980   -0.2530 N   0  0  0  0  0  0  0  0  0  0  0  0
    4.3740   -0.8420   -0.2220 C   0  0  0  0  0  0  0  0  0  0  0  0
    4.9160   -0.6530   -1.6000 C   0  0  0  0  0  0  0  0  0  0  0  0
    6.2270   -0.5160   -1.7510 O   0  0  0  0  0  0  0  0  0  0  0  0
    6.8940    0.5110   -1.2300 C   0  0  0  0  0  0  0  0  0  0  0  0
    7.0020    0.7350    0.5640 P   0  0  0  0  0  0  0  0  0  0  0  0
    6.9300   -0.6670    1.5240 O   0  0  0  0  0  0  0  0  0  0  0  0
    6.1380    2.0860    1.1360 O   0  0  0  0  0  0  0  0  0  0  0  0
   -1.8610    0.4340   -2.0770 O   0  0  0  0  0  0  0  0  0  0  0  0
   -2.2440   -0.6350   -1.2860 C   0  0  0  0  0  0  0  0  0  0  0  0
   -3.5990   -0.9590   -1.3740 O   0  0  0  0  0  0  0  0  0  0  0  0
  1  2  2  0
  2  3  1  0
  3  4  1  0
  4  5  1  1
  4  6  1  0
  4  7  1  0
  7  8  2  0
  7 31  1  0
  8  9  1  0
  9 10  1  0
 10 11  2  0
 11 12  1  0
 11 15  1  0
 12 13  1  0
 14 13  1  1
 14 15  1  0
 14 16  1  0
 16 17  1  0
 17 18  1  0
 17 29  1  0
 18 19  1  0
 19 20  2  0
 19 21  1  0
 21 22  1  0
 22 23  1  0
 23 24  1  0
 24 25  1  0
 25 26  1  0
 26 27  1  0
 26 28  1  0
 29 30  1  0
 30 31  1  0
M  END
