
     RDKit          3D

 31 31  0  0  0  0  0  0  0  0999 V2000
   -2.4540    0.7620    1.9700 N   0  0  0  0  0  0  0  0  0  0  0  0
   -1.9540    1.1340    0.8170 C   0  0  0  0  0  0  0  0  0  0  0  0
   -0.9960    2.1880    0.8510 N   0  0  0  0  0  0  0  0  0  0  0  0
   -0.3730    2.7770   -0.2820 C   0  0  0  0  0  0  0  0  0  0  0  0
   -0.4110    4.0650   -0.3340 O   0  0  0  0  0  0  0  0  0  0  0  0
    0.2870    2.1610   -1.3730 N   0  0  0  0  0  0  0  0  0  0  0  0
    1.3970    1.2690   -1.3070 C   0  0  0  0  0  0  0  0  0  0  0  0
    1.7030    0.5530   -2.3240 O   0  0  0  0  0  0  0  0  0  0  0  0
    2.2770    1.0740   -0.1240 C   0  0  2  0  0  0  0  0  0  0  0  0
    1.6570    1.4360    1.0700 O   0  0  0  0  0  0  0  0  0  0  0  0
    3.7630    2.2210   -0.2700 P   0  0  0  0  0  0  0  0  0  0  0  0
    4.9150    1.8560    0.9560 O   0  0  0  0  0  0  0  0  0  0  0  0
    3.2640    3.8790   -0.2540 O   0  0  0  0  0  0  0  0  0  0  0  0
    2.9870   -0.6340   -0.0600 P   0  0  0  0  0  0  0  0  0  0  0  0
    4.5580   -0.6180    0.6710 O   0  0  0  0  0  0  0  0  0  0  0  0
    4.9220   -1.8580    1.0050 N   0  0  0  0  0  0  0  0  0  0  0  0
    1.9170   -1.7670    0.6700 O   0  0  0  0  0  0  0  0  0  0  0  0
    1.2140   -2.3700   -0.3690 C   0  0  0  0  0  0  0  0  0  0  0  0
   -0.2670   -2.1070   -0.1950 C   0  0  2  0  0  0  0  0  0  0  0  0
   -0.4420   -1.7330    1.2770 C   0  0  0  0  0  0  0  0  0  0  0  0
    0.1930   -2.7860    1.9840 O   0  0  0  0  0  0  0  0  0  0  0  0
   -0.9250   -3.4840   -0.2780 C   0  0  0  0  0  0  0  0  0  0  0  0
   -0.6130   -4.4190    0.4720 O   0  0  0  0  0  0  0  0  0  0  0  0
   -1.9130   -3.7010   -1.2300 O   0  0  0  0  0  0  0  0  0  0  0  0
   -0.8090   -1.2270   -1.1290 N   0  0  0  0  0  0  0  0  0  0  0  0
   -1.6060   -0.2830   -1.2640 C   0  0  0  0  0  0  0  0  0  0  0  0
   -2.4490    0.4130   -0.3170 N   0  0  0  0  0  0  0  0  0  0  0  0
   -3.8840    0.3260   -0.5710 C   0  0  0  0  0  0  0  0  0  0  0  0
   -4.7200    1.2540    0.2100 C   0  0  0  0  0  0  0  0  0  0  0  0
   -4.1690    2.2190    0.7910 O   0  0  0  0  0  0  0  0  0  0  0  0
   -6.0890    1.1220    0.3430 O   0  0  0  0  0  0  0  0  0  0  0  0
  1  2  2  0
  2  3  1  0
  2 27  1  0
  3  4  1  0
  4  5  2  0
  4  6  1  0
  6  7  1  0
  7  8  2  0
  7  9  1  0
  9 10  1  1
  9 11  1  0
  9 14  1  0
 11 12  1  0
 11 13  1  0
 14 15  1  0
 14 17  1  0
 15 16  1  0
 17 18  1  0
 18 19  1  0
 19 20  1  1
 19 22  1  0
 19 25  1  0
 20 21  1  0
 22 23  2  0
 22 24  1  0
 25 26  2  0
 26 27  1  0
 27 28  1  0
 28 29  1  0
 29 30  2  0
 29 31  1  0
M  END
