
     RDKit          3D

 31 31  0  0  0  0  0  0  0  0999 V2000
   -3.7940   -3.8760    1.1670 N   0  0  0  0  0  0  0  0  0  0  0  0
   -3.8380   -3.1350   -0.0800 C   0  0  2  0  0  0  0  0  0  0  0  0
   -4.3980   -4.0790   -1.1380 C   0  0  0  0  0  0  0  0  0  0  0  0
   -4.4850   -3.4700   -2.3820 O   0  0  0  0  0  0  0  0  0  0  0  0
   -2.5360   -2.7170   -0.3810 O   0  0  0  0  0  0  0  0  0  0  0  0
   -2.2630   -1.3780   -0.4510 N   0  0  0  0  0  0  0  0  0  0  0  0
   -1.0460   -0.9330   -0.3600 C   0  0  0  0  0  0  0  0  0  0  0  0
   -0.0360   -1.8220   -0.1920 C   0  0  0  0  0  0  0  0  0  0  0  0
   -0.3090   -3.2350   -0.1160 N   0  0  0  0  0  0  0  0  0  0  0  0
    0.2720   -4.0450   -0.8610 O   0  0  0  0  0  0  0  0  0  0  0  0
    1.2550   -1.3410   -0.0960 C   0  0  0  0  0  0  0  0  0  0  0  0
    1.5510   -0.0410   -0.1620 N   0  0  0  0  0  0  0  0  0  0  0  0
    2.8540    0.5110   -0.0700 C   0  0  0  0  0  0  0  0  0  0  0  0
    3.6600    0.2440    0.9120 N   0  0  0  0  0  0  0  0  0  0  0  0
    3.1110   -0.8540    2.1880 P   0  0  0  0  0  0  0  0  0  0  0  0
    3.2040   -0.1640    3.7700 O   0  0  0  0  0  0  0  0  0  0  0  0
    3.8840   -2.4040    2.1190 O   0  0  0  0  0  0  0  0  0  0  0  0
    3.3270    1.3730   -1.0410 O   0  0  0  0  0  0  0  0  0  0  0  0
    4.2610    2.3180   -0.7640 O   0  0  0  0  0  0  0  0  0  0  0  0
    4.9850    2.4510   -1.8490 O   0  0  0  0  0  0  0  0  0  0  0  0
    6.3060    1.3040   -1.7700 P   0  0  0  0  0  0  0  0  0  0  0  0
    5.6780   -0.3040   -1.9870 O   0  0  0  0  0  0  0  0  0  0  0  0
    7.0030    1.4080   -0.1840 O   0  0  0  0  0  0  0  0  0  0  0  0
    0.5200    0.8360   -0.3320 C   0  0  0  0  0  0  0  0  0  0  0  0
   -0.7880    0.4280   -0.4340 C   0  0  0  0  0  0  0  0  0  0  0  0
   -1.8790    1.3130   -0.6290 N   0  0  0  0  0  0  0  0  0  0  0  0
   -1.7960    2.7380   -0.6260 C   0  0  0  0  0  0  0  0  0  0  0  0
   -1.5210    3.2160    0.7890 C   0  0  2  0  0  0  0  0  0  0  0  0
   -2.5850    2.7880    1.5970 O   0  0  0  0  0  0  0  0  0  0  0  0
   -1.4350    4.7300    0.7640 C   0  0  0  0  0  0  0  0  0  0  0  0
   -2.6310    5.2050    0.2540 O   0  0  0  0  0  0  0  0  0  0  0  0
  2  1  1  1
  2  3  1  0
  2  5  1  0
  3  4  1  0
  5  6  1  0
  6  7  2  3
  7  8  1  0
  7 25  1  0
  8  9  1  0
  8 11  2  0
  9 10  2  0
 11 12  1  0
 12 13  1  0
 12 24  1  0
 13 14  2  3
 13 18  1  0
 14 15  1  0
 15 16  1  0
 15 17  1  0
 18 19  1  0
 19 20  1  0
 20 21  1  0
 21 22  1  0
 21 23  1  0
 24 25  2  0
 25 26  1  0
 26 27  1  0
 27 28  1  0
 28 29  1  1
 28 30  1  0
 30 31  1  0
M  END
