
     RDKit          3D

 31 32  0  0  0  0  0  0  0  0999 V2000
   -3.1970    4.4470   -3.3010 O   0  0  0  0  0  0  0  0  0  0  0  0
   -1.9810    4.3200   -2.9990 C   0  0  0  0  0  0  0  0  0  0  0  0
   -1.1180    5.3270   -3.4310 O   0  0  0  0  0  0  0  0  0  0  0  0
   -1.4840    3.1570   -2.2200 C   0  0  0  0  0  0  0  0  0  0  0  0
   -2.5790    2.2940   -1.9170 N   0  0  0  0  0  0  0  0  0  0  0  0
   -2.3100    1.0980   -1.1610 C   0  0  0  0  0  0  0  0  0  0  0  0
   -1.0910    0.8100   -0.8570 N   0  0  0  0  0  0  0  0  0  0  0  0
   -0.8260   -0.3940   -0.0980 C   0  0  0  0  0  0  0  0  0  0  0  0
    0.4920   -0.7420    0.2660 N   0  0  0  0  0  0  0  0  0  0  0  0
    1.6270    0.0400   -0.0870 C   0  0  0  0  0  0  0  0  0  0  0  0
    1.4980    1.0770   -0.7410 O   0  0  0  0  0  0  0  0  0  0  0  0
    2.8860   -0.3710    0.3090 O   0  0  0  0  0  0  0  0  0  0  0  0
    4.0770    0.3290    0.0130 C   0  0  1  0  0  0  0  0  0  0  0  0
    4.7610    0.7860    1.2920 C   0  0  0  0  0  0  0  0  0  0  0  0
    5.0910   -0.2860    2.1030 O   0  0  0  0  0  0  0  0  0  0  0  0
    5.6720    0.1670    3.1800 O   0  0  0  0  0  0  0  0  0  0  0  0
    6.9570   -0.1290    3.1730 O   0  0  0  0  0  0  0  0  0  0  0  0
    7.7060    0.9580    3.2230 O   0  0  0  0  0  0  0  0  0  0  0  0
    4.9900   -0.4860   -0.8220 C   0  0  0  0  0  0  0  0  0  0  0  0
    4.6360   -1.6430   -1.1600 O   0  0  0  0  0  0  0  0  0  0  0  0
    6.2190    0.0020   -1.2340 O   0  0  0  0  0  0  0  0  0  0  0  0
   -1.8160   -1.1740    0.2680 C   0  0  0  0  0  0  0  0  0  0  0  0
   -1.6150   -2.3650    1.0140 N   0  0  0  0  0  0  0  0  0  0  0  0
   -2.6050   -2.8480    1.9690 C   0  0  0  0  0  0  0  0  0  0  0  0
   -3.9330   -2.1840    1.8220 C   0  0  0  0  0  0  0  0  0  0  0  0
   -3.9290   -0.8910    1.2180 N   0  0  0  0  0  0  0  0  0  0  0  0
   -3.2590   -0.8930   -0.0680 C   0  0  2  0  0  0  0  0  0  0  0  0
   -3.9550   -2.2850   -1.0980 P   0  0  0  0  0  0  0  0  0  0  0  0
   -3.1320   -3.7730   -0.7790 O   0  0  0  0  0  0  0  0  0  0  0  0
   -5.6560   -2.4620   -0.7850 O   0  0  0  0  0  0  0  0  0  0  0  0
   -3.4340    0.3170   -0.7940 N   0  0  0  0  0  0  0  0  0  0  0  0
  1  2  2  0
  2  3  1  0
  2  4  1  0
  4  5  1  0
  5  6  1  0
  6  7  2  0
  6 31  1  0
  7  8  1  0
  8  9  1  0
  8 22  2  0
  9 10  1  0
 10 11  2  0
 10 12  1  0
 12 13  1  0
 13 14  1  1
 13 19  1  0
 14 15  1  0
 15 16  1  0
 16 17  1  0
 17 18  1  0
 19 20  2  0
 19 21  1  0
 22 23  1  0
 22 27  1  0
 23 24  1  0
 24 25  1  0
 25 26  1  0
 26 27  1  0
 27 28  1  6
 27 31  1  0
 28 29  1  0
 28 30  1  0
M  END
