
     RDKit          3D

 31 32  0  0  0  0  0  0  0  0999 V2000
   -2.1570    4.7950    0.5460 C   0  0  0  0  0  0  0  0  0  0  0  0
   -2.7350    3.5100    1.0550 C   0  0  0  0  0  0  0  0  0  0  0  0
   -2.0400    2.4390    0.4460 O   0  0  0  0  0  0  0  0  0  0  0  0
   -2.3950    1.1390    0.7570 C   0  0  0  0  0  0  0  0  0  0  0  0
   -3.4340    0.7000    1.4180 N   0  0  0  0  0  0  0  0  0  0  0  0
   -3.3990   -0.6950    1.5000 N   0  0  0  0  0  0  0  0  0  0  0  0
   -2.6600   -1.0760    0.2820 C   0  0  1  0  0  0  0  0  0  0  0  0
   -2.2640   -2.4350    0.2710 N   0  0  0  0  0  0  0  0  0  0  0  0
   -1.5810   -3.1440    1.2670 C   0  0  0  0  0  0  0  0  0  0  0  0
   -1.2840   -4.3450    1.1090 O   0  0  0  0  0  0  0  0  0  0  0  0
   -1.2210   -2.5310    2.4470 O   0  0  0  0  0  0  0  0  0  0  0  0
   -2.7030   -3.3750   -1.2280 P   0  0  0  0  0  0  0  0  0  0  0  0
   -2.4680   -2.4330   -2.6370 O   0  0  0  0  0  0  0  0  0  0  0  0
   -4.3680   -3.9130   -1.0840 O   0  0  0  0  0  0  0  0  0  0  0  0
   -3.8370   -0.6620   -1.1100 P   0  0  0  0  0  0  0  0  0  0  0  0
   -3.9820    1.0850   -1.1810 O   0  0  0  0  0  0  0  0  0  0  0  0
   -5.4130   -1.2380   -0.5930 O   0  0  0  0  0  0  0  0  0  0  0  0
   -1.5880   -0.0480    0.3580 C   0  0  1  0  0  0  0  0  0  0  0  0
   -0.8440    0.1500   -0.8340 N   0  0  0  0  0  0  0  0  0  0  0  0
    0.5270    0.0240   -0.4900 C   0  0  0  0  0  0  0  0  0  0  0  0
    1.6900    0.1350   -1.3670 C   0  0  0  0  0  0  0  0  0  0  0  0
    1.5530    0.3710   -2.5970 O   0  0  0  0  0  0  0  0  0  0  0  0
    3.0020   -0.0180   -0.8680 N   0  0  0  0  0  0  0  0  0  0  0  0
    4.1830    0.0860   -1.7100 C   0  0  0  0  0  0  0  0  0  0  0  0
    5.4200   -0.1320   -0.8680 C   0  0  0  0  0  0  0  0  0  0  0  0
    6.5710   -0.0380   -1.6430 O   0  0  0  0  0  0  0  0  0  0  0  0
    8.0070   -0.2800   -0.7510 P   0  0  0  0  0  0  0  0  0  0  0  0
    8.8210    1.1550   -0.2840 O   0  0  0  0  0  0  0  0  0  0  0  0
    7.8240   -1.3590    0.5780 O   0  0  0  0  0  0  0  0  0  0  0  0
    0.5880   -0.2140    0.7760 N   0  0  0  0  0  0  0  0  0  0  0  0
   -0.6510   -0.2650    1.3570 O   0  0  0  0  0  0  0  0  0  0  0  0
  1  2  1  0
  2  3  1  0
  3  4  1  0
  4  5  2  0
  4 18  1  0
  5  6  1  0
  6  7  1  0
  7  8  1  1
  7 15  1  0
  7 18  1  0
  8  9  1  0
  8 12  1  0
  9 10  2  0
  9 11  1  0
 12 13  1  0
 12 14  1  0
 15 16  1  0
 15 17  1  0
 18 19  1  6
 18 31  1  0
 19 20  1  0
 20 21  1  0
 20 30  2  0
 21 22  2  0
 21 23  1  0
 23 24  1  0
 24 25  1  0
 25 26  1  0
 26 27  1  0
 27 28  1  0
 27 29  1  0
 30 31  1  0
M  END
