
     RDKit          3D

 30 31  0  0  0  0  0  0  0  0999 V2000
    2.8460    2.0320   -2.5650 N   0  0  0  0  0  0  0  0  0  0  0  0
    2.4240    2.0570   -1.3650 C   0  0  0  0  0  0  0  0  0  0  0  0
    1.9300    0.8880   -0.7450 N   0  0  0  0  0  0  0  0  0  0  0  0
    2.7940   -0.2110   -0.5320 C   0  0  0  0  0  0  0  0  0  0  0  0
    2.2570   -1.2560   -0.0180 O   0  0  0  0  0  0  0  0  0  0  0  0
    4.2370   -0.1940   -0.8660 C   0  0  1  0  0  0  0  0  0  0  0  0
    5.1290    1.1900   -0.0320 P   0  0  0  0  0  0  0  0  0  0  0  0
    4.3050    1.7440    1.3770 O   0  0  0  0  0  0  0  0  0  0  0  0
    6.7850    0.8200    0.2790 O   0  0  0  0  0  0  0  0  0  0  0  0
    5.0280   -1.8390   -0.5080 P   0  0  0  0  0  0  0  0  0  0  0  0
    3.8970   -2.9740    0.1240 O   0  0  0  0  0  0  0  0  0  0  0  0
    6.4470   -1.6910    0.4340 O   0  0  0  0  0  0  0  0  0  0  0  0
    6.3560   -2.2650    1.6150 O   0  0  0  0  0  0  0  0  0  0  0  0
    0.5420    0.8380   -0.3550 C   0  0  0  0  0  0  0  0  0  0  0  0
    0.0500    0.7230    0.8880 N   0  0  0  0  0  0  0  0  0  0  0  0
   -1.2930    0.7130    0.8240 N   0  0  0  0  0  0  0  0  0  0  0  0
   -1.6020    0.8230   -0.4780 C   0  0  0  0  0  0  0  0  0  0  0  0
   -2.9750    0.8560   -1.0480 C   0  0  2  0  0  0  0  0  0  0  0  0
   -3.4640    2.2420   -0.9460 C   0  0  0  0  0  0  0  0  0  0  0  0
   -2.9720    3.1100   -1.7020 O   0  0  0  0  0  0  0  0  0  0  0  0
   -4.4700    2.6180   -0.0190 N   0  0  0  0  0  0  0  0  0  0  0  0
   -5.1880    1.5350    0.5970 C   0  0  0  0  0  0  0  0  0  0  0  0
   -5.7900    1.7010    1.6810 O   0  0  0  0  0  0  0  0  0  0  0  0
   -5.1480    0.2510   -0.1490 C   0  0  0  0  0  0  0  0  0  0  0  0
   -3.8270   -0.1420   -0.5010 N   0  0  0  0  0  0  0  0  0  0  0  0
   -3.2250   -1.0620    0.4090 C   0  0  0  0  0  0  0  0  0  0  0  0
   -4.2110   -2.6500    0.5330 P   0  0  0  0  0  0  0  0  0  0  0  0
   -5.0540   -2.9640   -0.9520 O   0  0  0  0  0  0  0  0  0  0  0  0
   -3.1470   -3.9920    0.9040 O   0  0  0  0  0  0  0  0  0  0  0  0
   -0.4780    0.8950   -1.1520 O   0  0  0  0  0  0  0  0  0  0  0  0
  1  2  2  0
  2  3  1  0
  3  4  1  0
  3 14  1  0
  4  5  2  0
  4  6  1  0
  6  7  1  1
  6 10  1  0
  7  8  1  0
  7  9  1  0
 10 11  1  0
 10 12  1  0
 12 13  1  0
 14 15  2  0
 14 30  1  0
 15 16  1  0
 16 17  2  0
 18 17  1  1
 17 30  1  0
 18 19  1  0
 18 25  1  0
 19 20  2  0
 19 21  1  0
 21 22  1  0
 22 23  2  0
 22 24  1  0
 24 25  1  0
 25 26  1  0
 26 27  1  0
 27 28  1  0
 27 29  1  0
M  END
