
     RDKit          3D

 30 31  0  0  0  0  0  0  0  0999 V2000
    6.8640   -0.4250    4.2900 O   0  0  0  0  0  0  0  0  0  0  0  0
    7.4940   -1.0620    3.0080 P   0  0  0  0  0  0  0  0  0  0  0  0
    6.4590   -1.7570    1.7490 N   0  0  0  0  0  0  0  0  0  0  0  0
    5.2000   -1.1750    1.4150 C   0  0  0  0  0  0  0  0  0  0  0  0
    4.8350   -0.1380    2.0470 O   0  0  0  0  0  0  0  0  0  0  0  0
    4.4100   -1.7710    0.3990 N   0  0  0  0  0  0  0  0  0  0  0  0
    3.1300   -1.2040    0.0360 C   0  0  0  0  0  0  0  0  0  0  0  0
    3.2550    0.2080   -0.4710 C   0  0  0  0  0  0  0  0  0  0  0  0
    1.9670    0.7120   -0.8190 N   0  0  0  0  0  0  0  0  0  0  0  0
    0.8950    0.8670    0.1020 C   0  0  0  0  0  0  0  0  0  0  0  0
    1.1210    0.5390    1.2860 O   0  0  0  0  0  0  0  0  0  0  0  0
   -0.3760    1.3930   -0.4070 C   0  0  2  0  0  0  0  0  0  0  0  0
   -1.3690    1.5180    0.5320 O   0  0  0  0  0  0  0  0  0  0  0  0
   -2.3920    2.2830   -0.0300 C   0  0  2  0  0  0  0  0  0  0  0  0
   -2.4550    3.5130    0.7530 N   0  0  0  0  0  0  0  0  0  0  0  0
   -3.8040    3.9530    0.6480 C   0  0  0  0  0  0  0  0  0  0  0  0
   -4.1890    5.1420    0.8310 O   0  0  0  0  0  0  0  0  0  0  0  0
   -4.6180    2.8200    0.3050 N   0  0  0  0  0  0  0  0  0  0  0  0
   -3.7290    1.7130    0.2100 C   0  0  0  0  0  0  0  0  0  0  0  0
   -4.1070    0.5210    0.3240 O   0  0  0  0  0  0  0  0  0  0  0  0
   -2.1540    2.6390   -1.3300 O   0  0  0  0  0  0  0  0  0  0  0  0
   -1.9610    1.5970   -2.2010 C   0  0  0  0  0  0  0  0  0  0  0  0
   -0.9220    0.6430   -1.5860 C   0  0  2  0  0  0  0  0  0  0  0  0
   -1.6070   -0.5470   -1.2880 N   0  0  0  0  0  0  0  0  0  0  0  0
   -0.8290   -1.8420   -0.4750 P   0  0  0  0  0  0  0  0  0  0  0  0
   -0.9530   -1.7680    1.2760 O   0  0  0  0  0  0  0  0  0  0  0  0
   -1.6880   -3.3280   -0.8790 O   0  0  0  0  0  0  0  0  0  0  0  0
   -3.2960   -3.1160   -0.2460 P   0  0  0  0  0  0  0  0  0  0  0  0
   -4.5060   -3.6580   -1.3310 O   0  0  0  0  0  0  0  0  0  0  0  0
   -3.4650   -3.7690    1.3370 O   0  0  0  0  0  0  0  0  0  0  0  0
  1  2  2  0
  2  3  1  0
  3  4  1  0
  4  5  2  0
  4  6  1  0
  6  7  1  0
  7  8  1  0
  8  9  1  0
  9 10  1  0
 10 11  2  0
 12 10  1  1
 12 13  1  0
 12 23  1  0
 13 14  1  0
 14 15  1  1
 14 19  1  0
 14 21  1  0
 15 16  1  0
 16 17  2  0
 16 18  1  0
 18 19  1  0
 19 20  2  0
 21 22  1  0
 22 23  1  0
 23 24  1  1
 24 25  1  0
 25 26  1  0
 25 27  1  0
 27 28  1  0
 28 29  1  0
 28 30  1  0
M  END
