
     RDKit          3D

 30 33  0  0  0  0  0  0  0  0999 V2000
    3.2600   -3.6000    2.0980 C   0  0  0  0  0  0  0  0  0  0  0  0
    2.6150   -2.6560    1.2490 O   0  0  0  0  0  0  0  0  0  0  0  0
    3.0490   -1.3700    1.0920 C   0  0  0  0  0  0  0  0  0  0  0  0
    4.0400   -0.9400    1.6870 O   0  0  0  0  0  0  0  0  0  0  0  0
    2.2980   -0.4560    0.1700 C   0  0  2  0  0  0  0  0  0  0  0  0
    2.8710    0.8740    0.2000 N   0  0  0  0  0  0  0  0  0  0  0  0
    4.0340    1.2190   -0.5080 C   0  0  0  0  0  0  0  0  0  0  0  0
    4.6350    0.3370   -1.2070 O   0  0  0  0  0  0  0  0  0  0  0  0
    4.5900    2.5200   -0.4850 N   0  0  0  0  0  0  0  0  0  0  0  0
    6.1100    2.8330   -1.3910 P   0  0  0  0  0  0  0  0  0  0  0  0
    6.3570    4.5500   -1.5340 O   0  0  0  0  0  0  0  0  0  0  0  0
    7.4500    2.1550   -0.4880 O   0  0  0  0  0  0  0  0  0  0  0  0
    0.9510   -0.4570    0.3850 N   0  0  0  0  0  0  0  0  0  0  0  0
    0.3270   -0.0560    1.5620 C   0  0  0  0  0  0  0  0  0  0  0  0
   -1.1110    0.3750    1.4360 C   0  0  0  0  0  0  0  0  0  0  0  0
   -1.6160    0.2260    0.0090 C   0  0  2  0  0  0  0  0  0  0  0  0
   -3.0940    0.1120   -0.1100 C   0  0  2  0  0  0  0  0  0  0  0  0
   -3.7260    0.2360    1.1400 O   0  0  0  0  0  0  0  0  0  0  0  0
   -4.6780    1.6810    1.1020 P   0  0  0  0  0  0  0  0  0  0  0  0
   -3.7650    3.0920    1.5410 O   0  0  0  0  0  0  0  0  0  0  0  0
   -5.3710    1.9660   -0.4620 O   0  0  0  0  0  0  0  0  0  0  0  0
   -3.3410   -1.2140   -0.7310 C   0  0  1  0  0  0  0  0  0  0  0  0
   -4.2310   -1.2340   -1.7770 O   0  0  0  0  0  0  0  0  0  0  0  0
   -5.5890   -2.2030   -1.1960 P   0  0  0  0  0  0  0  0  0  0  0  0
   -6.8360   -2.2780   -2.3940 O   0  0  0  0  0  0  0  0  0  0  0  0
   -6.1750   -1.5570    0.2980 O   0  0  0  0  0  0  0  0  0  0  0  0
   -1.9970   -1.5670   -1.3210 C   0  0  0  0  0  0  0  0  0  0  0  0
   -0.6850   -1.6410   -1.4620 N   0  0  0  0  0  0  0  0  0  0  0  0
    0.2020   -1.0830   -0.5810 N   0  0  0  0  0  0  0  0  0  0  0  0
   -1.0970   -0.9560   -0.4840 N   0  0  2  0  0  0  0  0  0  0  0  0
  1  2  1  0
  2  3  1  0
  3  4  2  0
  3  5  1  0
  5  6  1  1
  5 13  1  0
  6  7  1  0
  7  8  2  0
  7  9  1  0
  9 10  1  0
 10 11  1  0
 10 12  1  0
 13 14  1  0
 13 29  1  0
 14 15  1  0
 16 15  1  1
 16 17  1  0
 16 30  1  0
 17 18  1  1
 17 22  1  0
 18 19  1  0
 19 20  1  0
 19 21  1  0
 22 23  1  6
 22 27  1  0
 23 24  1  0
 24 25  1  0
 24 26  1  0
 27 28  2  0
 27 30  1  0
 28 29  1  0
 28 30  1  0
 30 29  1  1
M  CHG  2  28   1  30   1
M  END
