
     RDKit          3D

 31 34  0  0  0  0  0  0  0  0999 V2000
   -5.4760   -2.6550    0.1200 C   0  0  0  0  0  0  0  0  0  0  0  0
   -4.0680   -2.2500    0.0300 C   0  0  0  0  0  0  0  0  0  0  0  0
   -2.6600   -3.3490    0.3930 S   0  0  0  0  0  0  0  0  0  0  0  0
   -1.4410   -2.0750    0.0380 C   0  0  0  0  0  0  0  0  0  0  0  0
   -2.1610   -0.9400   -0.3100 C   0  0  0  0  0  0  0  0  0  0  0  0
   -3.4950   -1.0550   -0.3150 C   0  0  0  0  0  0  0  0  0  0  0  0
   -4.4270    0.0410   -0.8520 C   0  0  0  0  0  0  0  0  0  0  0  0
   -1.4270    0.3330   -0.5770 C   0  0  0  0  0  0  0  0  0  0  0  0
   -1.9930    1.5540   -0.0850 C   0  0  0  0  0  0  0  0  0  0  0  0
   -1.4180    2.7410   -0.5200 C   0  0  0  0  0  0  0  0  0  0  0  0
   -1.7350    3.9770   -0.0030 C   0  0  0  0  0  0  0  0  0  0  0  0
   -2.6740    4.0650    1.0050 C   0  0  0  0  0  0  0  0  0  0  0  0
   -3.0800    5.6240    1.6620 Cl  0  0  0  0  0  0  0  0  0  0  0  0
   -3.2370    2.8930    1.4320 C   0  0  0  0  0  0  0  0  0  0  0  0
   -2.9060    1.6670    0.9040 C   0  0  0  0  0  0  0  0  0  0  0  0
   -0.2900    0.4010   -1.2370 N   0  0  0  0  0  0  0  0  0  0  0  0
    0.5160   -0.6760   -1.8360 C   0  0  1  0  0  0  0  0  0  0  0  0
    1.7390   -0.0640   -2.4600 C   0  0  0  0  0  0  0  0  0  0  0  0
    2.5840    0.6590   -1.4900 C   0  0  0  0  0  0  0  0  0  0  0  0
    2.1970    1.8090   -1.1370 O   0  0  0  0  0  0  0  0  0  0  0  0
    3.7470    0.1930   -0.9440 O   0  0  0  0  0  0  0  0  0  0  0  0
    4.5760    0.8360   -0.0300 C   0  0  2  0  0  0  0  0  0  0  0  0
    3.9070    1.1850    1.2710 C   0  0  0  0  0  0  0  0  0  0  0  0
    5.1560    2.1030   -0.6170 C   0  0  0  0  0  0  0  0  0  0  0  0
    5.7730   -0.0700    0.2580 C   0  0  0  0  0  0  0  0  0  0  0  0
    0.8880   -1.6980   -0.8120 C   0  0  0  0  0  0  0  0  0  0  0  0
    2.0390   -2.2370   -0.4870 N   0  0  0  0  0  0  0  0  0  0  0  0
    1.8680   -3.1410    0.4850 N   0  0  0  0  0  0  0  0  0  0  0  0
    0.5690   -3.2010    0.8110 C   0  0  0  0  0  0  0  0  0  0  0  0
   -0.1120   -4.0570    1.8180 C   0  0  0  0  0  0  0  0  0  0  0  0
   -0.0270   -2.3100    0.0100 N   0  0  0  0  0  0  0  0  0  0  0  0
  1  2  1  0
  2  3  1  0
  2  6  2  0
  3  4  1  0
  4  5  2  0
  4 31  1  0
  5  6  1  0
  5  8  1  0
  6  7  1  0
  8  9  1  0
  8 16  2  0
  9 10  2  0
  9 15  1  0
 10 11  1  0
 11 12  2  0
 12 13  1  0
 12 14  1  0
 14 15  2  0
 16 17  1  0
 17 18  1  1
 17 26  1  0
 18 19  1  0
 19 20  2  0
 19 21  1  0
 21 22  1  0
 22 23  1  1
 22 24  1  0
 22 25  1  0
 26 27  2  0
 26 31  1  0
 27 28  1  0
 28 29  2  0
 29 30  1  0
 29 31  1  0
M  END
