
     RDKit          3D

 30 33  0  0  0  0  0  0  0  0999 V2000
   -5.0840    3.8920    0.5700 C   0  0  0  0  0  0  0  0  0  0  0  0
   -5.1050    2.5770    0.0380 O   0  0  0  0  0  0  0  0  0  0  0  0
   -4.2070    1.5930    0.4650 C   0  0  0  0  0  0  0  0  0  0  0  0
   -3.3880    1.9260    1.3340 O   0  0  0  0  0  0  0  0  0  0  0  0
   -4.2860    0.2490   -0.1250 C   0  0  2  0  0  0  0  0  0  0  0  0
   -5.4890   -0.4150    0.4940 C   0  0  0  0  0  0  0  0  0  0  0  0
   -3.0490   -0.5520   -0.2250 C   0  0  2  0  0  0  0  0  0  0  0  0
   -3.4590   -1.8920   -0.8400 C   0  0  0  0  0  0  0  0  0  0  0  0
   -3.2100   -2.1820   -2.1000 C   0  0  0  0  0  0  0  0  0  0  0  0
   -3.5800   -3.4680   -2.7590 C   0  0  0  0  0  0  0  0  0  0  0  0
   -4.3210   -4.3180   -1.9420 O   0  0  0  0  0  0  0  0  0  0  0  0
   -4.5850   -4.0210   -0.6190 C   0  0  0  0  0  0  0  0  0  0  0  0
   -4.1910   -2.8860   -0.0750 C   0  0  0  0  0  0  0  0  0  0  0  0
   -2.3480   -0.8090    1.0860 C   0  0  0  0  0  0  0  0  0  0  0  0
   -0.8660   -0.7290    1.0400 C   0  0  0  0  0  0  0  0  0  0  0  0
   -0.2920    0.3860    0.3730 N   0  0  2  0  0  0  0  0  0  0  0  0
    0.1590    1.4330    1.2690 C   0  0  0  0  0  0  0  0  0  0  0  0
    1.1940    2.2940    0.5930 C   0  0  0  0  0  0  0  0  0  0  0  0
    2.4030    1.5490    0.1660 C   0  0  0  0  0  0  0  0  0  0  0  0
    2.6850    0.9110   -1.0260 C   0  0  0  0  0  0  0  0  0  0  0  0
    3.9140    0.3710   -0.9440 N   0  0  0  0  0  0  0  0  0  0  0  0
    4.4230    0.6460    0.2630 C   0  0  0  0  0  0  0  0  0  0  0  0
    5.7480    0.2680    0.8290 C   0  0  2  0  0  0  0  0  0  0  0  0
    6.7920    0.8660   -0.1230 C   0  0  0  0  0  0  0  0  0  0  0  0
    8.0370    0.0430    0.1240 C   0  0  0  0  0  0  0  0  0  0  0  0
    7.5390   -1.2540    0.6710 C   0  0  0  0  0  0  0  0  0  0  0  0
    6.0280   -1.1990    0.6860 C   0  0  0  0  0  0  0  0  0  0  0  0
    3.4970    1.3600    0.9260 N   0  0  0  0  0  0  0  0  0  0  0  0
   -1.0610    0.9880   -0.6650 C   0  0  0  0  0  0  0  0  0  0  0  0
   -2.0410   -0.0210   -1.1970 C   0  0  0  0  0  0  0  0  0  0  0  0
  1  2  1  0
  2  3  1  0
  3  4  2  0
  3  5  1  0
  5  6  1  1
  5  7  1  0
  7  8  1  6
  7 14  1  0
  7 30  1  0
  8  9  2  0
  8 13  1  0
  9 10  1  0
 10 11  1  0
 11 12  1  0
 12 13  2  0
 14 15  1  0
 15 16  1  0
 16 17  1  1
 16 29  1  0
 17 18  1  0
 18 19  1  0
 19 20  2  0
 19 28  1  0
 20 21  1  0
 21 22  1  0
 23 22  1  6
 22 28  2  0
 23 24  1  0
 23 27  1  0
 24 25  1  0
 25 26  1  0
 26 27  1  0
 29 30  1  0
M  CHG  2  16   1  28   1
M  END
