
     RDKit          3D

 30 33  0  0  0  0  0  0  0  0999 V2000
   -8.9460   -0.2770   -0.4410 C   0  0  0  0  0  0  0  0  0  0  0  0
   -7.8600    0.4980    0.1900 C   0  0  0  0  0  0  0  0  0  0  0  0
   -8.1250    1.5900    0.9290 N   0  0  0  0  0  0  0  0  0  0  0  0
   -7.1760    2.3220    1.5190 C   0  0  0  0  0  0  0  0  0  0  0  0
   -5.8390    1.9350    1.3610 C   0  0  0  0  0  0  0  0  0  0  0  0
   -5.5160    0.8350    0.6220 C   0  0  0  0  0  0  0  0  0  0  0  0
   -6.5460    0.1350    0.0470 C   0  0  0  0  0  0  0  0  0  0  0  0
   -6.1080   -1.0750   -0.7400 C   0  0  0  0  0  0  0  0  0  0  0  0
   -5.0960   -1.7510    0.1920 C   0  0  0  0  0  0  0  0  0  0  0  0
   -3.8730   -0.9040    0.1270 N   0  0  0  0  0  0  0  0  0  0  0  0
   -2.6850   -1.5070   -0.2630 C   0  0  0  0  0  0  0  0  0  0  0  0
   -2.7960   -2.7840   -0.5630 O   0  0  0  0  0  0  0  0  0  0  0  0
   -1.3460   -1.0080   -0.4060 C   0  0  0  0  0  0  0  0  0  0  0  0
   -0.3310   -1.8330   -0.9210 C   0  0  0  0  0  0  0  0  0  0  0  0
    0.9700   -1.4290   -1.0640 C   0  0  0  0  0  0  0  0  0  0  0  0
    1.3580   -0.1650   -0.7040 C   0  0  0  0  0  0  0  0  0  0  0  0
    2.7840    0.2860   -0.8590 C   0  0  2  0  0  0  0  0  0  0  0  0
    2.9780    0.6120   -2.3230 C   0  0  0  0  0  0  0  0  0  0  0  0
    3.7110   -0.7110   -0.3910 N   0  0  0  0  0  0  0  0  0  0  0  0
    4.6020   -0.2490    0.6300 C   0  0  0  0  0  0  0  0  0  0  0  0
    6.0620   -0.5360    0.2890 C   0  0  2  0  0  0  0  0  0  0  0  0
    6.2610   -1.9080    0.1390 O   0  0  0  0  0  0  0  0  0  0  0  0
    6.9340   -0.0790    1.4230 C   0  0  0  0  0  0  0  0  0  0  0  0
    7.2200    1.3810    1.4270 C   0  0  0  0  0  0  0  0  0  0  0  0
    7.4040    1.9460    0.1910 O   0  0  0  0  0  0  0  0  0  0  0  0
    7.6940    0.9490   -0.7350 C   0  0  0  0  0  0  0  0  0  0  0  0
    6.3700    0.2210   -0.9980 C   0  0  0  0  0  0  0  0  0  0  0  0
    0.4040    0.6770   -0.1960 C   0  0  0  0  0  0  0  0  0  0  0  0
   -0.9320    0.2490   -0.0530 C   0  0  0  0  0  0  0  0  0  0  0  0
   -4.0740    0.4660    0.4660 C   0  0  0  0  0  0  0  0  0  0  0  0
  1  2  1  0
  2  3  2  0
  2  7  1  0
  3  4  1  0
  4  5  2  0
  5  6  1  0
  6  7  2  0
  6 30  1  0
  7  8  1  0
  8  9  1  0
  9 10  1  0
 10 11  1  0
 10 30  1  0
 11 12  2  0
 11 13  1  0
 13 14  2  0
 13 29  1  0
 14 15  1  0
 15 16  2  0
 16 17  1  0
 16 28  1  0
 17 18  1  6
 17 19  1  0
 19 20  1  0
 20 21  1  0
 21 22  1  6
 21 23  1  0
 21 27  1  0
 23 24  1  0
 24 25  1  0
 25 26  1  0
 26 27  1  0
 28 29  2  0
M  CHG  2   3   1  19   1
M  END
