
     RDKit          3D

 30 33  0  0  0  0  0  0  0  0999 V2000
    5.1250    3.6970    0.4410 C   0  0  0  0  0  0  0  0  0  0  0  0
    4.9310    4.1350   -0.7330 C   0  0  0  0  0  0  0  0  0  0  0  0
    5.5040    5.4420   -0.9870 O   0  0  0  0  0  0  0  0  0  0  0  0
    4.2340    3.5470   -1.8900 C   0  0  0  0  0  0  0  0  0  0  0  0
    4.2330    4.2450   -2.9680 C   0  0  0  0  0  0  0  0  0  0  0  0
    3.7790    2.1820   -1.9150 C   0  0  0  0  0  0  0  0  0  0  0  0
    3.6500    1.7850   -3.2300 O   0  0  0  0  0  0  0  0  0  0  0  0
    3.4240    1.1420   -1.1240 N   0  0  0  0  0  0  0  0  0  0  0  0
    2.9100    1.0700    0.2060 C   0  0  0  0  0  0  0  0  0  0  0  0
    3.3470   -0.2490    0.8240 C   0  0  0  0  0  0  0  0  0  0  0  0
    2.4980   -1.3330    0.2310 C   0  0  1  0  0  0  0  0  0  0  0  0
    1.1570   -1.0880    0.5400 O   0  0  0  0  0  0  0  0  0  0  0  0
    0.5150   -2.2330    1.0030 C   0  0  1  0  0  0  0  0  0  0  0  0
   -0.2160   -2.1170    2.2760 C   0  0  0  0  0  0  0  0  0  0  0  0
   -1.3600   -3.0690    2.3080 C   0  0  0  0  0  0  0  0  0  0  0  0
   -2.3990   -2.7100    1.3270 N   0  0  1  0  0  0  0  0  0  0  0  0
   -3.4210   -2.0010    1.9890 C   0  0  0  0  0  0  0  0  0  0  0  0
   -3.8750   -0.7390    1.4350 C   0  0  0  0  0  0  0  0  0  0  0  0
   -3.7630    0.4240    2.0910 C   0  0  0  0  0  0  0  0  0  0  0  0
   -4.2780    1.4720    1.3330 N   0  0  0  0  0  0  0  0  0  0  0  0
   -4.7990    0.8860    0.1390 C   0  0  0  0  0  0  0  0  0  0  0  0
   -5.4600    1.4790   -0.9490 C   0  0  0  0  0  0  0  0  0  0  0  0
   -5.8510    0.6810   -1.9970 C   0  0  0  0  0  0  0  0  0  0  0  0
   -5.5710   -0.6870   -1.9290 C   0  0  0  0  0  0  0  0  0  0  0  0
   -4.9250   -1.2710   -0.8690 C   0  0  0  0  0  0  0  0  0  0  0  0
   -4.5320   -0.4540    0.1890 C   0  0  0  0  0  0  0  0  0  0  0  0
   -1.7610   -2.0960    0.1840 C   0  0  0  0  0  0  0  0  0  0  0  0
   -0.4270   -2.7910   -0.0380 C   0  0  0  0  0  0  0  0  0  0  0  0
    2.6430   -1.2100   -1.3070 C   0  0  0  0  0  0  0  0  0  0  0  0
    3.7340   -0.2630   -1.6590 C   0  0  0  0  0  0  0  0  0  0  0  0
  1  2  2  0
  2  3  1  0
  2  4  1  0
  4  5  2  0
  4  6  1  0
  6  7  2  0
  6  8  1  0
  8  9  1  0
  8 30  1  0
  9 10  1  0
 10 11  1  0
 11 12  1  6
 11 29  1  0
 13 12  1  6
 13 14  1  0
 13 28  1  0
 14 15  1  0
 15 16  1  0
 16 17  1  1
 16 27  1  0
 17 18  1  0
 18 19  2  0
 18 26  1  0
 19 20  1  0
 20 21  1  0
 21 22  2  0
 21 26  1  0
 22 23  1  0
 23 24  2  0
 24 25  1  0
 25 26  2  0
 27 28  1  0
 29 30  1  0
M  CHG  2  16   1  20   1
M  END
