
     RDKit          3D

 31 35  0  0  0  0  0  0  0  0999 V2000
    1.8250   -1.8360    1.9790 C   0  0  0  0  0  0  0  0  0  0  0  0
    1.7090   -0.6240    1.0500 C   0  0  1  0  0  0  0  0  0  0  0  0
    3.0980   -0.0710    0.9990 C   0  0  0  0  0  0  0  0  0  0  0  0
    3.7190    0.0870    2.2010 N   0  0  0  0  0  0  0  0  0  0  0  0
    4.9500    0.5350    2.3650 C   0  0  0  0  0  0  0  0  0  0  0  0
    5.6750    0.8730    1.2130 C   0  0  0  0  0  0  0  0  0  0  0  0
    6.9640    1.3340    1.3200 C   0  0  0  0  0  0  0  0  0  0  0  0
    7.6750    1.6540    0.1880 C   0  0  0  0  0  0  0  0  0  0  0  0
    7.0710    1.5040   -1.0410 C   0  0  0  0  0  0  0  0  0  0  0  0
    7.8200    1.8330   -2.1970 N   0  0  0  0  0  0  0  0  0  0  0  0
    5.7770    1.0420   -1.1590 C   0  0  0  0  0  0  0  0  0  0  0  0
    5.0510    0.7160   -0.0020 C   0  0  0  0  0  0  0  0  0  0  0  0
    3.7660    0.2450   -0.1090 N   0  0  0  0  0  0  0  0  0  0  0  0
    1.2220   -1.0870   -0.2600 C   0  0  0  0  0  0  0  0  0  0  0  0
   -0.2040   -1.1810   -0.4400 N   0  0  0  0  0  0  0  0  0  0  0  0
   -0.9210   -1.8840    0.5690 C   0  0  0  0  0  0  0  0  0  0  0  0
   -2.2420   -2.4550    0.1900 C   0  0  0  0  0  0  0  0  0  0  0  0
   -3.3220   -1.6000   -0.2810 C   0  0  0  0  0  0  0  0  0  0  0  0
   -3.4900   -1.2220   -1.6170 C   0  0  0  0  0  0  0  0  0  0  0  0
   -4.6150   -0.5270   -1.6770 N   0  0  0  0  0  0  0  0  0  0  0  0
   -5.1780   -0.4400   -0.4510 N   0  0  0  0  0  0  0  0  0  0  0  0
   -6.4280    0.2010   -0.2510 C   0  0  0  0  0  0  0  0  0  0  0  0
   -7.5760   -0.5920   -0.2150 C   0  0  0  0  0  0  0  0  0  0  0  0
   -8.8430   -0.0810   -0.0670 C   0  0  0  0  0  0  0  0  0  0  0  0
   -8.9270    1.3120    0.0490 C   0  0  0  0  0  0  0  0  0  0  0  0
   -7.7980    2.1120    0.0160 C   0  0  0  0  0  0  0  0  0  0  0  0
   -6.5290    1.5540   -0.1360 C   0  0  0  0  0  0  0  0  0  0  0  0
   -4.3960   -1.0890    0.4060 C   0  0  0  0  0  0  0  0  0  0  0  0
   -0.6700    0.2330   -0.3410 C   0  0  0  0  0  0  0  0  0  0  0  0
    0.2040    1.0170    0.5820 C   0  0  0  0  0  0  0  0  0  0  0  0
    0.8610    0.3240    1.5600 O   0  0  0  0  0  0  0  0  0  0  0  0
  2  1  1  1
  2  3  1  0
  2 14  1  0
  2 31  1  0
  3  4  2  0
  3 13  1  0
  4  5  1  0
  5  6  2  0
  6  7  1  0
  6 12  1  0
  7  8  2  0
  8  9  1  0
  9 10  1  0
  9 11  2  0
 11 12  1  0
 12 13  2  0
 14 15  1  0
 15 16  1  0
 15 29  1  0
 16 17  1  0
 17 18  1  0
 18 19  1  0
 18 28  2  0
 19 20  2  0
 20 21  1  0
 21 22  1  0
 21 28  1  0
 22 23  2  0
 22 27  1  0
 23 24  1  0
 24 25  2  0
 25 26  1  0
 26 27  2  0
 29 30  1  0
 30 31  1  0
M  CHG  1  10   1
M  END
