
     RDKit          3D

 33 35  0  0  0  0  0  0  0  0999 V2000
   -3.7360   -3.9930   -0.4700 C   0  0  0  0  0  0  0  0  0  0  0  0
   -3.5680   -2.6800   -0.4250 C   0  0  0  0  0  0  0  0  0  0  0  0
   -4.7050   -1.7660   -0.2390 C   0  0  0  0  0  0  0  0  0  0  0  0
   -4.5150   -0.4620   -0.1020 C   0  0  0  0  0  0  0  0  0  0  0  0
   -3.1290    0.0620   -0.0860 C   0  0  0  0  0  0  0  0  0  0  0  0
   -2.9620    1.2650   -0.5050 O   0  0  0  0  0  0  0  0  0  0  0  0
   -1.9670   -0.5550    0.3490 N   0  0  0  0  0  0  0  0  0  0  0  0
   -0.6480    0.0940    0.2670 C   0  0  0  0  0  0  0  0  0  0  0  0
    0.3600   -0.8640    0.8240 C   0  0  1  0  0  0  0  0  0  0  0  0
    0.3800   -2.1420    0.0450 C   0  0  0  0  0  0  0  0  0  0  0  0
    1.6560   -2.8760    0.4190 C   0  0  0  0  0  0  0  0  0  0  0  0
    2.0720   -2.6870    2.1510 S   0  0  0  0  0  0  0  0  0  0  0  0
    3.1700   -1.2760    2.4740 C   0  0  0  0  0  0  0  0  0  0  0  0
    2.4120    0.0070    2.1460 C   0  0  0  0  0  0  0  0  0  0  0  0
    1.6880   -0.2640    0.9250 N   0  0  0  0  0  0  0  0  0  0  0  0
    2.3190    0.0690   -0.2750 C   0  0  0  0  0  0  0  0  0  0  0  0
    1.6880   -0.1630   -1.3750 O   0  0  0  0  0  0  0  0  0  0  0  0
    3.6340    0.6580   -0.4390 C   0  0  0  0  0  0  0  0  0  0  0  0
    4.5240    1.0100    0.5030 N   0  0  0  0  0  0  0  0  0  0  0  0
    5.6440    1.5300   -0.0130 C   0  0  0  0  0  0  0  0  0  0  0  0
    6.8010    2.0120    0.6720 N   0  0  0  0  0  0  0  0  0  0  0  0
    7.9430    2.5490    0.0020 C   0  0  0  0  0  0  0  0  0  0  0  0
    5.4640    1.5100   -1.3430 N   0  0  0  0  0  0  0  0  0  0  0  0
    4.2630    0.9920   -1.6360 C   0  0  0  0  0  0  0  0  0  0  0  0
    3.6750    0.7920   -2.9750 C   0  0  0  0  0  0  0  0  0  0  0  0
   -5.5870    0.5280   -0.1790 C   0  0  0  0  0  0  0  0  0  0  0  0
   -5.4560    1.9320    0.1920 C   0  0  0  0  0  0  0  0  0  0  0  0
   -6.4620    2.7360   -0.0660 O   0  0  0  0  0  0  0  0  0  0  0  0
   -4.4100    2.6000    0.8280 N   0  0  0  0  0  0  0  0  0  0  0  0
   -4.4640    4.0590    1.0900 C   0  0  0  0  0  0  0  0  0  0  0  0
   -6.8690    0.2170   -0.4550 C   0  0  0  0  0  0  0  0  0  0  0  0
   -7.3380   -1.4540   -0.7510 S   0  0  0  0  0  0  0  0  0  0  0  0
   -6.0170   -2.4930   -0.1690 C   0  0  0  0  0  0  0  0  0  0  0  0
  1  2  2  0
  2  3  1  0
  3  4  2  0
  3 33  1  0
  4  5  1  0
  4 26  1  0
  5  6  2  0
  5  7  1  0
  7  8  1  0
  9  8  1  6
  9 10  1  0
  9 15  1  0
 10 11  1  0
 11 12  1  0
 12 13  1  0
 13 14  1  0
 14 15  1  0
 15 16  1  0
 16 17  2  0
 16 18  1  0
 18 19  1  0
 18 24  2  0
 19 20  2  0
 20 21  1  0
 20 23  1  0
 21 22  1  0
 23 24  1  0
 24 25  1  0
 26 27  1  0
 26 31  2  0
 27 28  2  0
 27 29  1  0
 29 30  1  0
 31 32  1  0
 32 33  1  0
M  END
