
     RDKit          3D

 33 36  0  0  0  0  0  0  0  0999 V2000
   -5.4730   -4.6580    2.0450 C   0  0  0  0  0  0  0  0  0  0  0  0
   -5.4520   -3.3220    1.3750 C   0  0  0  0  0  0  0  0  0  0  0  0
   -4.4610   -2.5000    1.6720 C   0  0  0  0  0  0  0  0  0  0  0  0
   -4.4180   -1.2040    1.0110 C   0  0  0  0  0  0  0  0  0  0  0  0
   -3.2570   -0.5360    0.9950 C   0  0  0  0  0  0  0  0  0  0  0  0
   -2.0320   -1.0030    1.6020 C   0  0  0  0  0  0  0  0  0  0  0  0
   -0.9680   -1.1520    0.6350 O   0  0  0  0  0  0  0  0  0  0  0  0
    0.2560   -1.5910    1.1110 C   0  0  0  0  0  0  0  0  0  0  0  0
    0.3650   -1.8290    2.3360 O   0  0  0  0  0  0  0  0  0  0  0  0
    1.4350   -1.7870    0.2180 C   0  0  2  0  0  0  0  0  0  0  0  0
    2.5770   -2.2410    1.0940 C   0  0  0  0  0  0  0  0  0  0  0  0
    1.8160   -0.1760   -0.4830 S   0  0  0  0  0  0  0  0  0  0  0  0
    3.1190   -0.1490   -1.6910 C   0  0  0  0  0  0  0  0  0  0  0  0
    4.4490   -0.4230   -1.0940 C   0  0  1  0  0  0  0  0  0  0  0  0
    5.5490   -0.3930   -2.1560 C   0  0  0  0  0  0  0  0  0  0  0  0
    6.7770   -0.2860   -1.2730 C   0  0  0  0  0  0  0  0  0  0  0  0
    6.2660    0.0070    0.1280 C   0  0  0  0  0  0  0  0  0  0  0  0
    4.9180    0.5510   -0.1400 N   0  0  1  0  0  0  0  0  0  0  0  0
    5.0470    1.8710   -0.6850 C   0  0  0  0  0  0  0  0  0  0  0  0
    5.0310    2.9340    0.3960 C   0  0  0  0  0  0  0  0  0  0  0  0
    6.0660    2.7840    1.3140 O   0  0  0  0  0  0  0  0  0  0  0  0
   -3.2140    0.6940    0.2030 C   0  0  0  0  0  0  0  0  0  0  0  0
   -2.0600    1.4830    0.1990 C   0  0  0  0  0  0  0  0  0  0  0  0
   -2.0370    2.6710   -0.4980 C   0  0  0  0  0  0  0  0  0  0  0  0
   -0.7790    3.4610   -0.4600 C   0  0  0  0  0  0  0  0  0  0  0  0
   -3.1200    3.1350   -1.2120 C   0  0  0  0  0  0  0  0  0  0  0  0
   -4.2680    2.3670   -1.2200 C   0  0  0  0  0  0  0  0  0  0  0  0
   -5.4380    2.8650   -1.9890 C   0  0  0  0  0  0  0  0  0  0  0  0
   -4.2870    1.1720   -0.5180 C   0  0  0  0  0  0  0  0  0  0  0  0
   -5.4300    0.3840   -0.5240 O   0  0  0  0  0  0  0  0  0  0  0  0
   -5.6330   -0.6310    0.4260 C   0  0  1  0  0  0  0  0  0  0  0  0
   -6.6430   -1.6170    0.1200 C   0  0  0  0  0  0  0  0  0  0  0  0
   -6.5570   -2.8490    0.5660 C   0  0  0  0  0  0  0  0  0  0  0  0
  1  2  1  0
  2  3  2  0
  2 33  1  0
  3  4  1  0
  4  5  2  0
  4 31  1  0
  5  6  1  0
  5 22  1  0
  6  7  1  0
  7  8  1  0
  8  9  2  0
  8 10  1  0
 10 11  1  1
 10 12  1  0
 12 13  1  0
 14 13  1  6
 14 15  1  0
 14 18  1  0
 15 16  1  0
 16 17  1  0
 17 18  1  0
 18 19  1  6
 19 20  1  0
 20 21  1  0
 22 23  2  0
 22 29  1  0
 23 24  1  0
 24 25  1  0
 24 26  2  0
 26 27  1  0
 27 28  1  0
 27 29  2  0
 29 30  1  0
 31 30  1  6
 31 32  1  0
 32 33  2  0
M  CHG  1  18   1
M  END
