
     RDKit          3D

 33 36  0  0  0  0  0  0  0  0999 V2000
    5.2470   -2.3410   -2.2010 C   0  0  0  0  0  0  0  0  0  0  0  0
    5.2410   -0.9150   -2.4490 N   0  0  0  0  0  0  0  0  0  0  0  0
    3.6860   -0.2330   -2.1250 S   0  0  0  0  0  0  0  0  0  0  0  0
    3.2170    0.7080   -3.2270 O   0  0  0  0  0  0  0  0  0  0  0  0
    3.5510    0.4870   -0.5310 C   0  0  0  0  0  0  0  0  0  0  0  0
    3.8620    1.8110   -0.3240 C   0  0  0  0  0  0  0  0  0  0  0  0
    3.7500    2.3760    0.9530 C   0  0  0  0  0  0  0  0  0  0  0  0
    4.1230    3.8080    1.0330 C   0  0  0  0  0  0  0  0  0  0  0  0
    3.3270    1.6160    2.0190 C   0  0  0  0  0  0  0  0  0  0  0  0
    3.2090    2.2380    3.3610 C   0  0  0  0  0  0  0  0  0  0  0  0
    3.0050    0.2670    1.8360 C   0  0  0  0  0  0  0  0  0  0  0  0
    2.5830   -0.5560    2.9140 N   0  0  0  0  0  0  0  0  0  0  0  0
    1.6380   -1.9690    2.6980 S   0  0  2  0  0  0  0  0  0  0  0  0
    1.3760   -2.6400    4.0370 O   0  0  0  0  0  0  0  0  0  0  0  0
    2.3680   -3.0010    1.8560 O   0  0  0  0  0  0  0  0  0  0  0  0
    0.0960   -1.5660    1.9840 C   0  0  0  0  0  0  0  0  0  0  0  0
   -0.9600   -1.2160    2.8140 C   0  0  0  0  0  0  0  0  0  0  0  0
   -2.1900   -0.8960    2.2860 C   0  0  0  0  0  0  0  0  0  0  0  0
   -2.4190   -0.9110    0.9100 C   0  0  0  0  0  0  0  0  0  0  0  0
   -1.3730   -1.2570    0.0790 C   0  0  0  0  0  0  0  0  0  0  0  0
   -0.1410   -1.5770    0.6320 C   0  0  0  0  0  0  0  0  0  0  0  0
   -1.4060   -1.3300   -1.3410 N   0  0  0  0  0  0  0  0  0  0  0  0
   -2.4100   -0.9060   -2.2730 C   0  0  0  0  0  0  0  0  0  0  0  0
   -2.3210   -0.8750   -3.5390 N   0  0  0  0  0  0  0  0  0  0  0  0
   -3.5170   -0.3950   -4.1500 C   0  0  0  0  0  0  0  0  0  0  0  0
   -4.3930   -0.1150   -3.2040 C   0  0  0  0  0  0  0  0  0  0  0  0
   -3.7510   -0.4200   -1.9300 C   0  0  0  0  0  0  0  0  0  0  0  0
   -4.3020   -0.2760   -0.7250 C   0  0  0  0  0  0  0  0  0  0  0  0
   -5.6300    0.2270   -0.7870 N   0  0  0  0  0  0  0  0  0  0  0  0
   -5.8080    1.6600   -0.8310 C   0  0  0  0  0  0  0  0  0  0  0  0
   -6.8050   -0.6100   -0.8070 C   0  0  0  0  0  0  0  0  0  0  0  0
   -3.7500   -0.5520    0.5560 N   0  0  0  0  0  0  0  0  0  0  0  0
    3.1340   -0.2460    0.5480 C   0  0  0  0  0  0  0  0  0  0  0  0
  1  2  1  0
  3  2  1  6
  3  4  2  0
  3  5  1  0
  5  6  2  0
  5 33  1  0
  6  7  1  0
  7  8  1  0
  7  9  2  0
  9 10  1  0
  9 11  1  0
 11 12  1  0
 11 33  2  0
 13 12  1  1
 13 14  2  0
 13 15  2  0
 13 16  1  0
 16 17  2  0
 16 21  1  0
 17 18  1  0
 18 19  2  0
 19 20  1  0
 19 32  1  0
 20 21  2  0
 20 22  1  0
 22 23  1  0
 23 24  2  0
 23 27  1  0
 24 25  1  0
 25 26  2  0
 26 27  1  0
 27 28  2  0
 28 29  1  0
 28 32  1  0
 29 30  1  0
 29 31  1  0
M  END
