
     RDKit          3D

 33 36  0  0  0  0  0  0  0  0999 V2000
   -1.8140    1.3570   -1.6790 C   0  0  0  0  0  0  0  0  0  0  0  0
   -2.2220    0.6440   -0.4040 C   0  0  0  0  0  0  0  0  0  0  0  0
   -3.2470    0.9280    0.3510 N   0  0  0  0  0  0  0  0  0  0  0  0
   -3.6520    0.4840    1.3050 C   0  0  0  0  0  0  0  0  0  0  0  0
   -4.7010    0.4930    2.4010 C   0  0  2  0  0  0  0  0  0  0  0  0
   -4.0570    0.8440    3.7270 C   0  0  0  0  0  0  0  0  0  0  0  0
   -5.3520   -0.8720    2.5210 C   0  0  0  0  0  0  0  0  0  0  0  0
   -2.3710   -0.8930    1.5680 S   0  0  0  0  0  0  0  0  0  0  0  0
   -1.4680   -0.4700    0.1080 C   0  0  0  0  0  0  0  0  0  0  0  0
   -0.2640   -1.0750   -0.4600 C   0  0  0  0  0  0  0  0  0  0  0  0
    0.8920   -0.3980   -0.5860 N   0  0  0  0  0  0  0  0  0  0  0  0
    1.9880   -0.9620   -1.1080 C   0  0  0  0  0  0  0  0  0  0  0  0
    3.2270   -0.3250   -1.2730 N   0  0  0  0  0  0  0  0  0  0  0  0
    3.5430    1.0120   -0.9200 C   0  0  0  0  0  0  0  0  0  0  0  0
    2.6910    1.9030   -0.3300 C   0  0  0  0  0  0  0  0  0  0  0  0
    3.1060    3.2060   -0.0250 C   0  0  0  0  0  0  0  0  0  0  0  0
    4.3670    3.6460   -0.2990 C   0  0  0  0  0  0  0  0  0  0  0  0
    5.2380    2.7710   -0.8900 C   0  0  0  0  0  0  0  0  0  0  0  0
    6.5820    3.1680   -1.2090 N   0  0  0  0  0  0  0  0  0  0  0  0
    7.4860    4.0370   -0.0290 S   0  0  2  0  0  0  0  0  0  0  0  0
    8.9450    3.6950   -0.1700 O   0  0  0  0  0  0  0  0  0  0  0  0
    6.9610    3.6590    1.3250 O   0  0  0  0  0  0  0  0  0  0  0  0
    4.8280    1.4940   -1.1880 C   0  0  0  0  0  0  0  0  0  0  0  0
    1.8920   -2.2980   -1.5250 C   0  0  0  0  0  0  0  0  0  0  0  0
    2.8870   -2.8800   -2.0230 O   0  0  0  0  0  0  0  0  0  0  0  0
    0.7310   -2.9570   -1.3920 N   0  0  0  0  0  0  0  0  0  0  0  0
   -0.3690   -2.3890   -0.8670 C   0  0  0  0  0  0  0  0  0  0  0  0
   -1.6380   -3.0680   -0.7060 C   0  0  0  0  0  0  0  0  0  0  0  0
   -2.8090   -2.6650   -1.3220 C   0  0  0  0  0  0  0  0  0  0  0  0
   -3.9640   -3.3880   -1.1010 C   0  0  0  0  0  0  0  0  0  0  0  0
   -3.9650   -4.5040   -0.2770 C   0  0  0  0  0  0  0  0  0  0  0  0
   -2.8240   -4.8870    0.3150 N   0  0  0  0  0  0  0  0  0  0  0  0
   -1.7130   -4.1870    0.1000 C   0  0  0  0  0  0  0  0  0  0  0  0
  1  2  1  0
  2  3  1  0
  2  9  2  0
  3  4  2  0
  4  5  1  0
  4  8  1  0
  5  6  1  1
  5  7  1  0
  8  9  1  0
  9 10  1  0
 10 11  1  0
 10 27  2  0
 11 12  2  0
 12 13  1  0
 12 24  1  0
 13 14  1  0
 14 15  2  0
 14 23  1  0
 15 16  1  0
 16 17  2  0
 17 18  1  0
 18 19  1  0
 18 23  2  0
 20 19  1  6
 20 21  2  0
 20 22  2  0
 24 25  2  0
 24 26  1  0
 26 27  1  0
 27 28  1  0
 28 29  2  0
 28 33  1  0
 29 30  1  0
 30 31  2  0
 31 32  1  0
 32 33  2  0
M  END
