
     RDKit          3D

 33 36  0  0  0  0  0  0  0  0999 V2000
   -3.8390   -2.7090   -1.2330 C   0  0  0  0  0  0  0  0  0  0  0  0
   -3.3330   -1.2840   -1.3110 C   0  0  0  0  0  0  0  0  0  0  0  0
   -3.4300   -0.5610   -0.0310 C   0  0  0  0  0  0  0  0  0  0  0  0
   -2.3490   -0.1460    0.5780 C   0  0  0  0  0  0  0  0  0  0  0  0
   -1.0210   -0.3730    0.0370 C   0  0  0  0  0  0  0  0  0  0  0  0
   -0.1070    0.6950    0.0610 C   0  0  0  0  0  0  0  0  0  0  0  0
    1.1560    0.5220   -0.4160 C   0  0  0  0  0  0  0  0  0  0  0  0
    2.1380    1.5110   -0.4580 N   0  0  0  0  0  0  0  0  0  0  0  0
    1.9350    2.8000    0.0910 C   0  0  0  0  0  0  0  0  0  0  0  0
    0.9000    3.1730    0.6520 O   0  0  0  0  0  0  0  0  0  0  0  0
    3.0790    3.7850   -0.0200 C   0  0  0  0  0  0  0  0  0  0  0  0
    4.2190    3.5010    1.3360 S   0  0  0  0  0  0  0  0  0  0  0  0
    5.0810    1.9600    1.0810 C   0  0  0  0  0  0  0  0  0  0  0  0
    4.5780    0.7670    1.5220 C   0  0  0  0  0  0  0  0  0  0  0  0
    5.2970   -0.4170    1.3140 C   0  0  0  0  0  0  0  0  0  0  0  0
    6.5130   -0.3870    0.6650 C   0  0  0  0  0  0  0  0  0  0  0  0
    7.4260   -1.8850    0.3970 S   0  0  0  0  0  0  0  0  0  0  0  0
    7.0460   -2.6380   -1.2130 C   0  0  0  0  0  0  0  0  0  0  0  0
    7.0030    0.8420    0.2250 C   0  0  0  0  0  0  0  0  0  0  0  0
    6.3160    2.0080    0.4180 C   0  0  0  0  0  0  0  0  0  0  0  0
    1.4710   -0.7490   -0.9160 C   0  0  0  0  0  0  0  0  0  0  0  0
    2.6270   -1.0030   -1.3840 O   0  0  0  0  0  0  0  0  0  0  0  0
    0.6060   -1.7630   -0.9400 N   0  0  0  0  0  0  0  0  0  0  0  0
   -0.5970   -1.5480   -0.4690 N   0  0  0  0  0  0  0  0  0  0  0  0
   -2.5310    0.5620    1.8650 C   0  0  0  0  0  0  0  0  0  0  0  0
   -1.5100    0.9640    2.4590 O   0  0  0  0  0  0  0  0  0  0  0  0
   -3.7950    0.7880    2.4220 N   0  0  0  0  0  0  0  0  0  0  0  0
   -4.9680    0.3180    1.7250 C   0  0  0  0  0  0  0  0  0  0  0  0
   -6.2220    0.3860    2.0260 N   0  0  0  0  0  0  0  0  0  0  0  0
   -7.0350   -0.2280    1.0240 C   0  0  0  0  0  0  0  0  0  0  0  0
   -6.0700   -0.6810   -0.0260 C   0  0  1  0  0  0  0  0  0  0  0  0
   -6.3760    0.1420   -1.2750 C   0  0  0  0  0  0  0  0  0  0  0  0
   -4.7720   -0.3490    0.5060 N   0  0  0  0  0  0  0  0  0  0  0  0
  1  2  1  0
  2  3  1  0
  3  4  2  0
  3 33  1  0
  4  5  1  0
  4 25  1  0
  5  6  1  0
  5 24  2  0
  6  7  2  0
  7  8  1  0
  7 21  1  0
  8  9  1  0
  9 10  2  0
  9 11  1  0
 11 12  1  0
 12 13  1  0
 13 14  2  0
 13 20  1  0
 14 15  1  0
 15 16  2  0
 16 17  1  0
 16 19  1  0
 17 18  1  0
 19 20  2  0
 21 22  2  0
 21 23  1  0
 23 24  1  0
 25 26  2  0
 25 27  1  0
 27 28  1  0
 28 29  2  0
 28 33  1  0
 29 30  1  0
 30 31  1  0
 31 32  1  6
 31 33  1  0
M  END
