
     RDKit          3D

 30 32  0  0  0  0  0  0  0  0999 V2000
    7.5680    0.3820   -0.3920 C   0  0  0  0  0  0  0  0  0  0  0  0
    6.2650    0.3580   -0.4900 C   0  0  0  0  0  0  0  0  0  0  0  0
    5.5300    1.3320   -1.2930 C   0  0  0  0  0  0  0  0  0  0  0  0
    6.2590    2.2970   -1.9590 F   0  0  0  0  0  0  0  0  0  0  0  0
    4.2400    1.3630   -1.4310 C   0  0  0  0  0  0  0  0  0  0  0  0
    3.2910    0.4360   -0.8140 C   0  0  0  0  0  0  0  0  0  0  0  0
    1.9840    0.5350   -1.0050 C   0  0  0  0  0  0  0  0  0  0  0  0
    1.1570   -0.4040   -0.3670 N   0  0  0  0  0  0  0  0  0  0  0  0
    0.9100   -0.3810    1.0590 C   0  0  0  0  0  0  0  0  0  0  0  0
    0.2980    0.8110    1.6250 C   0  0  0  0  0  0  0  0  0  0  0  0
    0.6620    1.8990    1.0430 O   0  0  0  0  0  0  0  0  0  0  0  0
   -0.6140    0.9500    2.6900 N   0  0  0  0  0  0  0  0  0  0  0  0
   -1.7080    0.2740    3.2140 C   0  0  0  0  0  0  0  0  0  0  0  0
   -1.3690   -0.2740    4.3810 O   0  0  0  0  0  0  0  0  0  0  0  0
   -3.0390   -0.0030    2.8990 N   0  0  0  0  0  0  0  0  0  0  0  0
   -3.9300    0.5660    1.9010 C   0  0  0  0  0  0  0  0  0  0  0  0
   -5.1340    1.1240    2.0520 N   0  0  0  0  0  0  0  0  0  0  0  0
   -5.5510    1.5050    0.8680 C   0  0  0  0  0  0  0  0  0  0  0  0
   -6.7070    2.0910    0.6440 N   0  0  0  0  0  0  0  0  0  0  0  0
   -4.6560    1.2160   -0.0700 N   0  0  0  0  0  0  0  0  0  0  0  0
   -3.6030    0.6120    0.5430 C   0  0  0  0  0  0  0  0  0  0  0  0
   -2.3740    0.0950   -0.0960 C   0  0  0  0  0  0  0  0  0  0  0  0
   -1.8020    1.1220   -0.6470 O   0  0  0  0  0  0  0  0  0  0  0  0
   -1.7340   -1.1060   -0.2420 N   0  0  0  0  0  0  0  0  0  0  0  0
   -0.7760   -1.7830   -1.0770 C   0  0  0  0  0  0  0  0  0  0  0  0
   -1.2550   -2.8370   -1.8500 C   0  0  0  0  0  0  0  0  0  0  0  0
   -0.4230   -3.4960   -2.7270 C   0  0  0  0  0  0  0  0  0  0  0  0
    0.8920   -3.1200   -2.8450 C   0  0  0  0  0  0  0  0  0  0  0  0
    1.4210   -2.0920   -2.1060 C   0  0  0  0  0  0  0  0  0  0  0  0
    0.5740   -1.4510   -1.2380 C   0  0  0  0  0  0  0  0  0  0  0  0
  1  2  2  0
  2  3  1  0
  3  4  1  0
  3  5  2  3
  5  6  1  0
  6  7  2  3
  7  8  1  0
  8  9  1  0
  8 30  1  0
  9 10  1  0
 10 11  2  0
 10 12  1  0
 12 13  1  0
 13 14  2  0
 13 15  1  0
 15 16  1  0
 16 17  1  0
 16 21  2  0
 17 18  1  0
 18 19  2  0
 18 20  1  0
 20 21  1  0
 21 22  1  0
 22 23  2  0
 22 24  1  0
 24 25  1  0
 25 26  2  0
 25 30  1  0
 26 27  1  0
 27 28  2  0
 28 29  1  0
 29 30  2  0
M  CHG  1  19   1
M  END
