
     RDKit          3D

 31 33  0  0  0  0  0  0  0  0999 V2000
   -7.6280    3.0210    2.4420 N   0  0  0  0  0  0  0  0  0  0  0  0
   -6.2980    2.8110    1.9570 C   0  0  0  0  0  0  0  0  0  0  0  0
   -6.1100    1.3780    1.4980 C   0  0  0  0  0  0  0  0  0  0  0  0
   -7.0940    0.6130    1.6020 O   0  0  0  0  0  0  0  0  0  0  0  0
   -4.8640    1.0220    0.9990 N   0  0  0  0  0  0  0  0  0  0  0  0
   -4.5430   -0.2780    0.5350 C   0  0  0  0  0  0  0  0  0  0  0  0
   -5.4310   -1.3220    0.5300 C   0  0  0  0  0  0  0  0  0  0  0  0
   -5.0900   -2.6060    0.0640 C   0  0  0  0  0  0  0  0  0  0  0  0
   -6.2910   -3.9270    0.0810 S   0  0  0  0  0  0  0  0  0  0  0  0
   -7.7540   -3.3390    0.7130 O   0  0  0  0  0  0  0  0  0  0  0  0
   -3.8050   -2.7670   -0.3930 C   0  0  0  0  0  0  0  0  0  0  0  0
   -2.8870   -1.7410   -0.4020 C   0  0  0  0  0  0  0  0  0  0  0  0
   -3.2430   -0.5110    0.0540 C   0  0  0  0  0  0  0  0  0  0  0  0
   -2.3490    0.5340    0.0580 O   0  0  0  0  0  0  0  0  0  0  0  0
   -1.0400    0.4330   -0.3890 C   0  0  0  0  0  0  0  0  0  0  0  0
   -0.6670    0.6740   -1.7010 C   0  0  0  0  0  0  0  0  0  0  0  0
   -1.6290    1.0310   -2.6080 O   0  0  0  0  0  0  0  0  0  0  0  0
    0.6670    0.5500   -2.0620 C   0  0  0  0  0  0  0  0  0  0  0  0
    1.6290    0.1900   -1.1410 C   0  0  0  0  0  0  0  0  0  0  0  0
    3.0410    0.0570   -1.5160 C   0  0  0  0  0  0  0  0  0  0  0  0
    3.4430    0.2610   -2.6860 O   0  0  0  0  0  0  0  0  0  0  0  0
    3.9880   -0.3060   -0.5710 O   0  0  0  0  0  0  0  0  0  0  0  0
    5.3470   -0.4320   -0.9400 C   0  0  2  0  0  0  0  0  0  0  0  0
    5.8780   -1.8240   -0.7290 C   0  0  0  0  0  0  0  0  0  0  0  0
    7.3140   -1.5780   -0.2770 C   0  0  0  0  0  0  0  0  0  0  0  0
    7.1280   -0.3730    0.6280 C   0  0  0  0  0  0  0  0  0  0  0  0
    6.2400    0.5140   -0.1950 C   0  0  2  0  0  0  0  0  0  0  0  0
    5.3910    1.3590    0.6300 N   0  0  0  0  0  0  0  0  0  0  0  0
    1.2250   -0.0270    0.0870 O   0  0  0  0  0  0  0  0  0  0  0  0
   -0.0240    0.0780    0.4760 C   0  0  0  0  0  0  0  0  0  0  0  0
   -0.3720   -0.1420    1.6770 O   0  0  0  0  0  0  0  0  0  0  0  0
  1  2  1  0
  2  3  1  0
  3  4  2  0
  3  5  1  0
  5  6  1  0
  6  7  2  0
  6 13  1  0
  7  8  1  0
  8  9  1  0
  8 11  2  0
  9 10  1  0
 11 12  1  0
 12 13  2  0
 13 14  1  0
 14 15  1  0
 15 16  2  0
 15 30  1  0
 16 17  1  0
 16 18  1  0
 18 19  2  0
 19 20  1  0
 19 29  1  0
 20 21  2  0
 20 22  1  0
 23 22  1  1
 23 24  1  0
 23 27  1  0
 24 25  1  0
 25 26  1  0
 26 27  1  0
 27 28  1  1
 29 30  1  0
 30 31  2  0
M  CHG  2  10  -1  28   1
M  END
