
     RDKit          3D

 30 32  0  0  0  0  0  0  0  0999 V2000
   -5.6240   -3.6440    1.1250 C   0  0  0  0  0  0  0  0  0  0  0  0
   -4.7150   -2.4440    0.7800 C   0  0  0  0  0  0  0  0  0  0  0  0
   -3.5360   -2.4120    1.6890 C   0  0  0  0  0  0  0  0  0  0  0  0
   -2.5980   -1.4240    1.6090 N   0  0  0  0  0  0  0  0  0  0  0  0
   -1.6410   -1.2070    0.6180 C   0  0  1  0  0  0  0  0  0  0  0  0
   -2.2200   -0.8840   -0.7270 C   0  0  0  0  0  0  0  0  0  0  0  0
   -3.0630    0.3700   -0.5940 C   0  0  0  0  0  0  0  0  0  0  0  0
   -3.6370    0.6680   -1.9810 C   0  0  2  0  0  0  0  0  0  0  0  0
   -2.5050    0.8610   -2.8610 N   0  0  0  0  0  0  0  0  0  0  0  0
   -4.4280    1.9110   -1.9120 C   0  0  0  0  0  0  0  0  0  0  0  0
   -5.4740    1.9820   -1.2020 O   0  0  0  0  0  0  0  0  0  0  0  0
   -4.0190    3.0200   -2.6360 O   0  0  0  0  0  0  0  0  0  0  0  0
   -0.6410   -0.1310    1.0380 C   0  0  0  0  0  0  0  0  0  0  0  0
    0.4200    0.1230    0.0170 C   0  0  1  0  0  0  0  0  0  0  0  0
    1.3170    1.1130    0.4720 O   0  0  0  0  0  0  0  0  0  0  0  0
    2.4930    0.8430   -0.2520 C   0  0  1  0  0  0  0  0  0  0  0  0
    3.5750    1.6780    0.1740 N   0  0  0  0  0  0  0  0  0  0  0  0
    3.5280    2.8770    0.8060 C   0  0  0  0  0  0  0  0  0  0  0  0
    4.7630    3.3520    1.0360 N   0  0  0  0  0  0  0  0  0  0  0  0
    5.6300    2.4530    0.5480 C   0  0  0  0  0  0  0  0  0  0  0  0
    7.0120    2.3970    0.4950 C   0  0  0  0  0  0  0  0  0  0  0  0
    7.7910    3.4330    1.0280 N   0  0  0  0  0  0  0  0  0  0  0  0
    7.6290    1.3420   -0.0710 N   0  0  0  0  0  0  0  0  0  0  0  0
    6.9050    0.3210   -0.5970 C   0  0  0  0  0  0  0  0  0  0  0  0
    5.5820    0.3990   -0.5330 N   0  0  0  0  0  0  0  0  0  0  0  0
    4.8780    1.4110    0.0120 C   0  0  0  0  0  0  0  0  0  0  0  0
    2.6590   -0.6220    0.0720 C   0  0  2  0  0  0  0  0  0  0  0  0
    3.5570   -1.2730   -0.7760 O   0  0  0  0  0  0  0  0  0  0  0  0
    1.2260   -1.1100   -0.2200 C   0  0  2  0  0  0  0  0  0  0  0  0
    1.2100   -1.4000   -1.5990 O   0  0  0  0  0  0  0  0  0  0  0  0
  1  2  1  0
  2  3  1  0
  3  4  1  0
  4  5  1  0
  5  6  1  6
  5 13  1  0
  6  7  1  0
  7  8  1  0
  8  9  1  6
  8 10  1  0
 10 11  2  0
 10 12  1  0
 14 13  1  1
 14 15  1  0
 14 29  1  0
 15 16  1  0
 16 17  1  1
 16 27  1  0
 17 18  1  0
 17 26  1  0
 18 19  2  0
 19 20  1  0
 20 21  2  0
 20 26  1  0
 21 22  1  0
 21 23  1  0
 23 24  2  0
 24 25  1  0
 25 26  2  0
 27 28  1  6
 27 29  1  0
 29 30  1  6
M  END
