
     RDKit          3D

 30 32  0  0  0  0  0  0  0  0999 V2000
    1.1690    0.8980   -1.7780 O   0  0  0  0  0  0  0  0  0  0  0  0
    1.1400    0.1900   -0.7380 C   0  0  0  0  0  0  0  0  0  0  0  0
    2.3870   -0.1680   -0.1590 N   0  0  0  0  0  0  0  0  0  0  0  0
    3.6340    0.2610   -0.7380 C   0  0  0  0  0  0  0  0  0  0  0  0
    3.7850    1.0060   -1.8270 N   0  0  0  0  0  0  0  0  0  0  0  0
    5.1030    1.1890   -2.0400 C   0  0  0  0  0  0  0  0  0  0  0  0
    5.7410    0.5130   -1.0190 C   0  0  0  0  0  0  0  0  0  0  0  0
    7.2310    0.4350   -0.8420 C   0  0  0  0  0  0  0  0  0  0  0  0
    7.8150    1.7640    0.1580 S   0  0  2  0  0  0  0  0  0  0  0  0
    7.1570    1.7230    1.5140 O   0  0  0  0  0  0  0  0  0  0  0  0
    7.4610    3.0820   -0.4780 O   0  0  0  0  0  0  0  0  0  0  0  0
    9.4720    1.6200    0.3160 O   0  0  0  0  0  0  0  0  0  0  0  0
    4.8120   -0.0140   -0.2840 O   0  0  0  0  0  0  0  0  0  0  0  0
   -0.1170   -0.2510   -0.1430 C   0  0  2  0  0  0  0  0  0  0  0  0
   -0.0880   -1.7630   -0.0450 C   0  0  0  0  0  0  0  0  0  0  0  0
   -1.3130   -2.3360    0.5460 C   0  0  0  0  0  0  0  0  0  0  0  0
   -2.4060   -2.7090   -0.2090 C   0  0  0  0  0  0  0  0  0  0  0  0
   -3.5380   -3.2450    0.3940 C   0  0  0  0  0  0  0  0  0  0  0  0
   -3.6140   -3.4230    1.7530 C   0  0  0  0  0  0  0  0  0  0  0  0
   -4.7570   -3.9650    2.3660 O   0  0  0  0  0  0  0  0  0  0  0  0
   -2.5260   -3.0520    2.5140 C   0  0  0  0  0  0  0  0  0  0  0  0
   -1.3940   -2.5160    1.9080 C   0  0  0  0  0  0  0  0  0  0  0  0
   -1.2970    0.1900   -0.8050 N   0  0  0  0  0  0  0  0  0  0  0  0
   -1.5290    1.5910   -0.8280 C   0  0  1  0  0  0  0  0  0  0  0  0
   -2.7970    1.7710   -1.6790 C   0  0  0  0  0  0  0  0  0  0  0  0
   -3.9490    1.0440   -1.0770 C   0  0  0  0  0  0  0  0  0  0  0  0
   -4.1370    1.2480    0.3850 C   0  0  0  0  0  0  0  0  0  0  0  0
   -2.8890    1.3430    1.1900 C   0  0  0  0  0  0  0  0  0  0  0  0
   -1.8720    2.2040    0.4890 C   0  0  1  0  0  0  0  0  0  0  0  0
   -0.7740    2.5100    1.2720 O   0  0  0  0  0  0  0  0  0  0  0  0
  1  2  2  0
  2  3  1  0
  2 14  1  0
  3  4  1  0
  4  5  2  0
  4 13  1  0
  5  6  1  0
  6  7  2  0
  7  8  1  0
  7 13  1  0
  8  9  1  0
  9 10  2  0
  9 11  2  0
  9 12  1  1
 14 15  1  6
 14 23  1  0
 15 16  1  0
 16 17  2  0
 16 22  1  0
 17 18  1  0
 18 19  2  0
 19 20  1  0
 19 21  1  0
 21 22  2  0
 24 23  1  1
 24 25  1  0
 24 29  1  0
 25 26  1  0
 26 27  1  0
 27 28  1  0
 28 29  1  0
 29 30  1  1
M  CHG  2  12  -1  23   1
M  END
