
     RDKit          3D

 30 33  0  0  0  0  0  0  0  0999 V2000
    3.5600   -2.7640   -2.7260 C   0  0  0  0  0  0  0  0  0  0  0  0
    3.4400   -2.1350   -1.5290 C   0  0  0  0  0  0  0  0  0  0  0  0
    2.6460   -0.9310   -1.4430 C   0  0  0  0  0  0  0  0  0  0  0  0
    2.5090   -0.2330   -0.3080 C   0  0  0  0  0  0  0  0  0  0  0  0
    1.6780    0.9570   -0.3470 C   0  0  0  0  0  0  0  0  0  0  0  0
    2.1840    2.2340   -0.2490 N   0  0  0  0  0  0  0  0  0  0  0  0
    1.2120    3.1250   -0.3550 N   0  0  0  0  0  0  0  0  0  0  0  0
    1.2200    4.4750   -0.3330 C   0  0  0  0  0  0  0  0  0  0  0  0
    2.3690    5.0350   -0.1780 O   0  0  0  0  0  0  0  0  0  0  0  0
    0.1000    5.1810   -0.4640 N   0  0  0  0  0  0  0  0  0  0  0  0
   -1.0890    4.5250   -0.6300 C   0  0  0  0  0  0  0  0  0  0  0  0
   -1.0880    3.1550   -0.6550 N   0  0  0  0  0  0  0  0  0  0  0  0
    0.0390    2.4750   -0.5180 C   0  0  0  0  0  0  0  0  0  0  0  0
    0.3350    1.1020   -0.5060 C   0  0  0  0  0  0  0  0  0  0  0  0
   -0.7340    0.1260   -0.4360 C   0  0  0  0  0  0  0  0  0  0  0  0
   -0.7320   -1.0420   -1.1280 C   0  0  0  0  0  0  0  0  0  0  0  0
   -1.8000   -1.9360   -0.9570 C   0  0  0  0  0  0  0  0  0  0  0  0
   -1.7810   -3.1110   -1.6490 F   0  0  0  0  0  0  0  0  0  0  0  0
   -2.8550   -1.7080   -0.1430 C   0  0  0  0  0  0  0  0  0  0  0  0
   -3.9760   -2.5660    0.0620 N   0  0  0  0  0  0  0  0  0  0  0  0
   -2.8750   -0.4920    0.5730 C   0  0  0  0  0  0  0  0  0  0  0  0
   -4.0020   -0.2360    1.5140 C   0  0  0  0  0  0  0  0  0  0  0  0
   -5.2530   -0.0670    0.7300 N   0  0  0  0  0  0  0  0  0  0  0  0
   -1.8420    0.3630    0.4110 C   0  0  0  0  0  0  0  0  0  0  0  0
    3.1910   -0.7320    0.8330 C   0  0  0  0  0  0  0  0  0  0  0  0
    3.1340   -0.0780    2.0820 O   0  0  0  0  0  0  0  0  0  0  0  0
    4.1340   -0.4020    3.0730 C   0  0  0  0  0  0  0  0  0  0  0  0
    3.9300   -1.8180    0.8480 N   0  0  0  0  0  0  0  0  0  0  0  0
    4.0990   -2.5830   -0.3290 C   0  0  0  0  0  0  0  0  0  0  0  0
    4.8090   -3.6330   -0.3400 O   0  0  0  0  0  0  0  0  0  0  0  0
  1  2  2  0
  2  3  1  0
  2 29  1  0
  3  4  2  0
  4  5  1  0
  4 25  1  0
  5  6  2  0
  5 14  1  0
  6  7  1  0
  7  8  1  0
  7 13  1  0
  8  9  2  0
  8 10  1  0
 10 11  2  0
 11 12  1  0
 12 13  1  0
 13 14  2  0
 14 15  1  0
 15 16  2  0
 15 24  1  0
 16 17  1  0
 17 18  1  0
 17 19  2  0
 19 20  1  0
 19 21  1  0
 21 22  1  0
 21 24  2  0
 22 23  1  0
 25 26  1  0
 25 28  2  0
 26 27  1  0
 28 29  1  0
 29 30  2  0
M  CHG  1  23   1
M  END
