
     RDKit          3D

 31 33  0  0  0  0  0  0  0  0999 V2000
    7.2920   -1.7920   -0.8980 C   0  0  0  0  0  0  0  0  0  0  0  0
    6.0230   -1.3540   -0.4000 O   0  0  0  0  0  0  0  0  0  0  0  0
    5.6820   -0.0180   -0.4590 C   0  0  0  0  0  0  0  0  0  0  0  0
    6.5240    0.7700   -0.9610 O   0  0  0  0  0  0  0  0  0  0  0  0
    4.3630    0.4620    0.0550 C   0  0  1  0  0  0  0  0  0  0  0  0
    4.4460    1.9870    0.1270 C   0  0  0  0  0  0  0  0  0  0  0  0
    5.5160    2.2620    1.0040 O   0  0  0  0  0  0  0  0  0  0  0  0
    3.2240    0.1170   -0.8670 C   0  0  1  0  0  0  0  0  0  0  0  0
    3.4350    0.7390   -2.1020 O   0  0  0  0  0  0  0  0  0  0  0  0
    3.2880   -1.3810   -1.1880 C   0  0  0  0  0  0  0  0  0  0  0  0
    3.2320   -2.1420    0.0420 N   0  0  0  0  0  0  0  0  0  0  0  0
    2.3380   -1.5660    1.0300 C   0  0  0  0  0  0  0  0  0  0  0  0
    2.4780   -1.8100    2.2530 O   0  0  0  0  0  0  0  0  0  0  0  0
    1.2740   -0.6870    0.4830 C   0  0  1  0  0  0  0  0  0  0  0  0
    0.3730   -1.5130   -0.3950 C   0  0  0  0  0  0  0  0  0  0  0  0
    0.5160   -0.2260    1.5860 O   0  0  0  0  0  0  0  0  0  0  0  0
   -0.5700    0.6260    1.4360 C   0  0  0  0  0  0  0  0  0  0  0  0
   -0.8510    0.9740    0.2600 O   0  0  0  0  0  0  0  0  0  0  0  0
   -1.3330    1.0910    2.5400 N   0  0  0  0  0  0  0  0  0  0  0  0
   -2.4490    1.9760    2.3050 C   0  0  0  0  0  0  0  0  0  0  0  0
   -3.4560    1.3960    1.4660 C   0  0  0  0  0  0  0  0  0  0  0  0
   -4.5670    0.6020    1.6860 C   0  0  0  0  0  0  0  0  0  0  0  0
   -5.3290    0.2170    0.6740 C   0  0  0  0  0  0  0  0  0  0  0  0
   -5.0430    0.5900   -0.6050 C   0  0  0  0  0  0  0  0  0  0  0  0
   -3.5630    1.5730   -0.3610 S   0  0  0  0  0  0  0  0  0  0  0  0
   -5.7180    0.2940   -1.8240 C   0  0  0  0  0  0  0  0  0  0  0  0
   -6.9180   -0.4380   -1.5790 N   0  0  2  0  0  0  0  0  0  0  0  0
   -7.8140   -0.1450   -2.5490 O   0  0  0  0  0  0  0  0  0  0  0  0
   -7.5350   -0.1430   -0.3010 C   0  0  0  0  0  0  0  0  0  0  0  0
   -6.5900   -0.6580    0.7640 C   0  0  0  0  0  0  0  0  0  0  0  0
    1.8970    0.4600   -0.2840 C   0  0  0  0  0  0  0  0  0  0  0  0
  1  2  1  0
  2  3  1  0
  3  4  2  0
  3  5  1  0
  5  6  1  6
  5  8  1  0
  6  7  1  0
  8  9  1  6
  8 10  1  0
  8 31  1  0
 10 11  1  0
 11 12  1  0
 12 13  2  0
 12 14  1  0
 14 15  1  6
 14 16  1  0
 14 31  1  0
 16 17  1  0
 17 18  2  0
 17 19  1  0
 19 20  1  0
 20 21  1  0
 21 22  2  0
 21 25  1  0
 22 23  1  0
 23 24  2  0
 23 30  1  0
 24 25  1  0
 24 26  1  0
 26 27  1  0
 27 28  1  6
 27 29  1  0
 29 30  1  0
M  CHG  2  27   1  28  -1
M  END
