
     RDKit          3D

 20 20  0  0  0  0  0  0  0  0999 V2000
    5.1170   -0.2600    1.0130 C   0  0  0  0  0  0  0  0  0  0  0  0
    4.8760   -1.0240   -0.0480 C   0  0  0  0  0  0  0  0  0  0  0  0
    3.5480   -1.3600   -0.5870 C   0  0  0  0  0  0  0  0  0  0  0  0
    2.4640   -0.3870   -0.2920 C   0  0  1  0  0  0  0  0  0  0  0  0
    2.5530    0.9530   -0.8960 C   0  0  0  0  0  0  0  0  0  0  0  0
    3.7300    1.7500   -0.6070 C   0  0  0  0  0  0  0  0  0  0  0  0
    3.6310    2.8730    0.1350 C   0  0  0  0  0  0  0  0  0  0  0  0
    1.1530   -1.0630   -0.5580 C   0  0  0  0  0  0  0  0  0  0  0  0
    1.1970   -2.2120   -0.9380 O   0  0  0  0  0  0  0  0  0  0  0  0
   -0.1480   -0.3940   -0.3760 C   0  0  0  0  0  0  0  0  0  0  0  0
   -1.3060   -1.3120   -0.7150 C   0  0  0  0  0  0  0  0  0  0  0  0
   -2.6210   -0.6540   -0.5380 C   0  0  0  0  0  0  0  0  0  0  0  0
   -3.3730   -0.2230   -1.6120 C   0  0  0  0  0  0  0  0  0  0  0  0
   -4.5940    0.3820   -1.4590 C   0  0  0  0  0  0  0  0  0  0  0  0
   -5.0940    0.5700   -0.1660 C   0  0  0  0  0  0  0  0  0  0  0  0
   -6.3800    1.2070    0.0500 C   0  0  0  0  0  0  0  0  0  0  0  0
   -7.0680    1.6000   -0.9120 O   0  0  0  0  0  0  0  0  0  0  0  0
   -4.3520    0.1450    0.9060 C   0  0  0  0  0  0  0  0  0  0  0  0
   -3.1320   -0.4580    0.7230 C   0  0  0  0  0  0  0  0  0  0  0  0
   -2.3950   -0.8840    1.9440 C   0  0  0  0  0  0  0  0  0  0  0  0
  1  2  2  0
  2  3  1  0
  4  3  1  6
  4  5  1  0
  4  8  1  0
  5  6  1  0
  6  7  2  0
  8  9  2  0
  8 10  1  0
 10 11  1  0
 11 12  1  0
 12 13  2  0
 12 19  1  0
 13 14  1  0
 14 15  2  0
 15 16  1  0
 15 18  1  0
 16 17  2  0
 18 19  2  0
 19 20  1  0
M  END
