
     RDKit          3D

 10 11  0  0  0  0  0  0  0  0999 V2000
    2.4660   -0.5860   -0.1900 O   0  0  0  0  0  0  0  0  0  0  0  0
    1.3230    0.1900   -0.1340 C   0  0  0  0  0  0  0  0  0  0  0  0
    1.3430    1.5290   -0.1500 N   0  0  0  0  0  0  0  0  0  0  0  0
    0.2150    2.2480   -0.0940 C   0  0  0  0  0  0  0  0  0  0  0  0
   -0.9680    1.6350   -0.0210 N   0  0  0  0  0  0  0  0  0  0  0  0
   -1.0460    0.2870   -0.0020 C   0  0  0  0  0  0  0  0  0  0  0  0
   -2.0680   -0.5890    0.0650 N   0  0  0  0  0  0  0  0  0  0  0  0
   -1.5580   -1.8070    0.0500 N   0  0  0  0  0  0  0  0  0  0  0  0
   -0.2370   -1.7930   -0.0250 C   0  0  0  0  0  0  0  0  0  0  0  0
    0.1130   -0.4540   -0.0590 C   0  0  0  0  0  0  0  0  0  0  0  0
  1  2  1  0
  2  3  2  0
  2 10  1  0
  3  4  1  0
  4  5  2  0
  5  6  1  0
  6  7  1  0
  6 10  2  0
  7  8  1  0
  8  9  2  0
  9 10  1  0
M  END
