
     RDKit          3D

 10 11  0  0  0  0  0  0  0  0999 V2000
    1.0300    2.2910   -0.3500 O   0  0  0  0  0  0  0  0  0  0  0  0
    0.8890    1.0600   -0.1490 C   0  0  0  0  0  0  0  0  0  0  0  0
    1.9150    0.2080    0.0270 N   0  0  0  0  0  0  0  0  0  0  0  0
    1.6950   -1.1030    0.2400 C   0  0  0  0  0  0  0  0  0  0  0  0
    0.4410   -1.5870    0.2800 N   0  0  0  0  0  0  0  0  0  0  0  0
   -0.6050   -0.7610    0.1080 C   0  0  0  0  0  0  0  0  0  0  0  0
   -1.9380   -1.0070    0.1060 N   0  0  0  0  0  0  0  0  0  0  0  0
   -2.5660    0.1380   -0.1070 N   0  0  0  0  0  0  0  0  0  0  0  0
   -1.6670    1.1260   -0.2430 C   0  0  0  0  0  0  0  0  0  0  0  0
   -0.4110    0.5870   -0.1120 C   0  0  0  0  0  0  0  0  0  0  0  0
  1  2  2  0
  2  3  1  0
  2 10  1  0
  3  4  1  0
  4  5  2  0
  5  6  1  0
  6  7  1  0
  6 10  2  0
  7  8  1  0
  8  9  2  0
  9 10  1  0
M  END
