
     RDKit          3D

 20 22  0  0  0  0  0  0  0  0999 V2000
    3.5140   -3.0620   -1.0140 O   0  0  0  0  0  0  0  0  0  0  0  0
    3.1940   -1.8770   -0.3660 C   0  0  0  0  0  0  0  0  0  0  0  0
    4.0700   -1.3020    0.5170 C   0  0  0  0  0  0  0  0  0  0  0  0
    3.8050   -0.1240    1.1950 C   0  0  0  0  0  0  0  0  0  0  0  0
    2.5980    0.5110    0.9770 C   0  0  0  0  0  0  0  0  0  0  0  0
    1.7060   -0.0580    0.0890 C   0  0  0  0  0  0  0  0  0  0  0  0
    0.4300    0.6060   -0.1270 C   0  0  0  0  0  0  0  0  0  0  0  0
    0.4140    1.8270   -0.7920 C   0  0  0  0  0  0  0  0  0  0  0  0
    1.5770    2.4030   -1.2310 O   0  0  0  0  0  0  0  0  0  0  0  0
   -0.8030    2.4790   -1.0150 C   0  0  0  0  0  0  0  0  0  0  0  0
   -0.7700    3.7030   -1.6860 O   0  0  0  0  0  0  0  0  0  0  0  0
   -1.9970    1.9480   -0.5940 C   0  0  0  0  0  0  0  0  0  0  0  0
   -1.9650    0.7470    0.0570 C   0  0  0  0  0  0  0  0  0  0  0  0
   -0.7690    0.0780    0.2930 C   0  0  0  0  0  0  0  0  0  0  0  0
   -0.8310   -1.1320    0.9610 O   0  0  0  0  0  0  0  0  0  0  0  0
   -1.9560   -1.9750    0.9610 C   0  0  0  0  0  0  0  0  0  0  0  0
   -3.1050   -1.3660    0.1560 C   0  0  0  0  0  0  0  0  0  0  0  0
   -3.1840    0.0780    0.5490 C   0  0  2  0  0  0  0  0  0  0  0  0
   -4.3490    0.7120    0.1430 O   0  0  0  0  0  0  0  0  0  0  0  0
    1.9790   -1.2280   -0.5790 C   0  0  0  0  0  0  0  0  0  0  0  0
  1  2  1  0
  2  3  2  0
  2 20  1  0
  3  4  1  0
  4  5  2  0
  5  6  1  0
  6  7  1  0
  6 20  2  0
  7  8  2  0
  7 14  1  0
  8  9  1  0
  8 10  1  0
 10 11  1  0
 10 12  2  0
 12 13  1  0
 13 14  2  0
 13 18  1  0
 14 15  1  0
 15 16  1  0
 16 17  1  0
 17 18  1  0
 18 19  1  6
M  END
