
     RDKit          3D

 20 20  0  0  0  0  0  0  0  0999 V2000
    5.9120    2.0580   -0.4540 C   0  0  0  0  0  0  0  0  0  0  0  0
    4.8170    1.3550    0.0700 O   0  0  0  0  0  0  0  0  0  0  0  0
    4.7550   -0.0030    0.1910 C   0  0  0  0  0  0  0  0  0  0  0  0
    5.7340   -0.7120   -0.1870 O   0  0  0  0  0  0  0  0  0  0  0  0
    3.5670   -0.7320    0.7630 C   0  0  0  0  0  0  0  0  0  0  0  0
    2.5360    0.1320    1.0640 O   0  0  0  0  0  0  0  0  0  0  0  0
    1.9310    0.7270   -0.0200 C   0  0  0  0  0  0  0  0  0  0  0  0
    1.1060   -0.2050   -0.8590 C   0  0  0  0  0  0  0  0  0  0  0  0
    0.0070   -0.8070   -0.1960 N   0  0  2  0  0  0  0  0  0  0  0  0
   -0.5370   -0.0250    0.8970 C   0  0  0  0  0  0  0  0  0  0  0  0
   -1.4480    1.0780    0.4030 C   0  0  0  0  0  0  0  0  0  0  0  0
   -2.5550    0.6070   -0.3510 N   0  0  0  0  0  0  0  0  0  0  0  0
   -3.5450   -0.1240    0.3750 C   0  0  0  0  0  0  0  0  0  0  0  0
   -4.7440    0.7730    0.7040 C   0  0  0  0  0  0  0  0  0  0  0  0
   -4.2840    2.0480    0.9630 O   0  0  0  0  0  0  0  0  0  0  0  0
   -3.9200    2.6470   -0.2430 C   0  0  0  0  0  0  0  0  0  0  0  0
   -3.1840    1.6530   -1.1340 C   0  0  0  0  0  0  0  0  0  0  0  0
    0.2330   -2.1710    0.0900 C   0  0  1  0  0  0  0  0  0  0  0  0
   -0.7120   -2.7590    1.1170 C   0  0  0  0  0  0  0  0  0  0  0  0
    0.0020   -2.9940   -1.1860 C   0  0  0  0  0  0  0  0  0  0  0  0
  1  2  1  0
  2  3  1  0
  3  4  2  0
  3  5  1  0
  5  6  1  0
  6  7  1  0
  7  8  1  0
  9  8  1  1
  9 10  1  0
  9 18  1  0
 10 11  1  0
 11 12  1  0
 12 13  1  0
 12 17  1  0
 13 14  1  0
 14 15  1  0
 15 16  1  0
 16 17  1  0
 18 19  1  1
 18 20  1  0
M  CHG  1   9   1
M  END
