
     RDKit          3D

 19 21  0  0  0  0  0  0  0  0999 V2000
    6.2870   -0.7540   -0.5770 O   0  0  0  0  0  0  0  0  0  0  0  0
    4.8990   -0.6630   -0.3880 C   0  0  0  0  0  0  0  0  0  0  0  0
    4.0540   -1.1850   -1.3600 C   0  0  0  0  0  0  0  0  0  0  0  0
    2.6930   -1.0860   -1.1680 C   0  0  0  0  0  0  0  0  0  0  0  0
    2.1160   -0.4790   -0.0310 C   0  0  0  0  0  0  0  0  0  0  0  0
    0.7640   -0.4100    0.0900 O   0  0  0  0  0  0  0  0  0  0  0  0
    0.1000    0.2640    1.1740 C   0  0  0  0  0  0  0  0  0  0  0  0
   -1.3200    0.2660    0.6560 C   0  0  0  0  0  0  0  0  0  0  0  0
   -2.3000   -0.5670    1.0800 C   0  0  0  0  0  0  0  0  0  0  0  0
   -3.6420   -0.2970    0.6540 C   0  0  0  0  0  0  0  0  0  0  0  0
   -3.8990    0.7510   -0.1480 C   0  0  0  0  0  0  0  0  0  0  0  0
   -2.9290    1.6220   -0.5990 C   0  0  0  0  0  0  0  0  0  0  0  0
   -1.6270    1.3490   -0.1710 C   0  0  0  0  0  0  0  0  0  0  0  0
   -0.5890    2.1660   -0.5810 O   0  0  0  0  0  0  0  0  0  0  0  0
   -5.2910    0.7290   -0.3800 O   0  0  0  0  0  0  0  0  0  0  0  0
   -5.7820   -0.5140    0.0540 C   0  0  0  0  0  0  0  0  0  0  0  0
   -4.8050   -1.0320    0.9750 O   0  0  0  0  0  0  0  0  0  0  0  0
    2.9870    0.0220    0.9090 C   0  0  0  0  0  0  0  0  0  0  0  0
    4.3510   -0.0800    0.7120 C   0  0  0  0  0  0  0  0  0  0  0  0
  1  2  1  0
  2  3  2  0
  2 19  1  0
  3  4  1  0
  4  5  2  0
  5  6  1  0
  5 18  1  0
  6  7  1  0
  7  8  1  0
  8  9  2  0
  8 13  1  0
  9 10  1  0
 10 11  2  0
 10 17  1  0
 11 12  1  0
 11 15  1  0
 12 13  2  0
 13 14  1  0
 15 16  1  0
 16 17  1  0
 18 19  2  0
M  END
