
     RDKit          3D

 33 36  0  0  0  0  0  0  0  0999 V2000
   -8.7760   -1.0930    2.5570 C   0  0  0  0  0  0  0  0  0  0  0  0
   -9.1090   -0.3590    1.2570 C   0  0  2  0  0  0  0  0  0  0  0  0
   -8.5430   -1.1850    0.1470 C   0  0  0  0  0  0  0  0  0  0  0  0
   -8.3060   -0.5070   -1.1390 C   0  0  0  0  0  0  0  0  0  0  0  0
   -7.5650    0.7630   -1.1650 C   0  0  0  0  0  0  0  0  0  0  0  0
   -6.4600    0.8170   -0.1980 N   0  0  2  0  0  0  0  0  0  0  0  0
   -5.4870   -0.1770   -0.5910 C   0  0  0  0  0  0  0  0  0  0  0  0
   -4.0680    0.1700   -0.3840 C   0  0  0  0  0  0  0  0  0  0  0  0
   -3.1330   -0.2730   -1.3360 C   0  0  0  0  0  0  0  0  0  0  0  0
   -1.7900   -0.0120   -1.2020 C   0  0  0  0  0  0  0  0  0  0  0  0
   -1.3170    0.6930   -0.1290 C   0  0  0  0  0  0  0  0  0  0  0  0
   -0.0080    0.9690    0.1610 N   0  0  0  0  0  0  0  0  0  0  0  0
    1.1420    0.3650   -0.5190 C   0  0  0  0  0  0  0  0  0  0  0  0
    1.0060   -0.3810   -1.3950 O   0  0  0  0  0  0  0  0  0  0  0  0
    2.3370    0.8990    0.1390 N   0  0  0  0  0  0  0  0  0  0  0  0
    3.4900   -0.0060   -0.7850 C   0  0  0  0  0  0  0  0  0  0  0  0
    3.0740   -0.6540   -1.6190 O   0  0  0  0  0  0  0  0  0  0  0  0
    4.8220    0.2810   -0.2510 C   0  0  1  0  0  0  0  0  0  0  0  0
    4.7990   -0.2730    1.1830 C   0  0  0  0  0  0  0  0  0  0  0  0
    6.1850   -0.3120    1.7070 C   0  0  0  0  0  0  0  0  0  0  0  0
    7.2040    0.4480    0.9010 C   0  0  0  0  0  0  0  0  0  0  0  0
    7.1720   -0.0030   -0.5450 C   0  0  1  0  0  0  0  0  0  0  0  0
    7.6870    1.0510   -1.4720 C   0  0  0  0  0  0  0  0  0  0  0  0
    9.0980    1.4760   -1.1620 C   0  0  0  0  0  0  0  0  0  0  0  0
   10.0210    0.4210   -0.6990 C   0  0  0  0  0  0  0  0  0  0  0  0
    9.5450   -0.9930   -0.9170 C   0  0  0  0  0  0  0  0  0  0  0  0
    8.1150   -1.1770   -0.7040 C   0  0  0  0  0  0  0  0  0  0  0  0
    7.6570   -2.3090   -0.6510 O   0  0  0  0  0  0  0  0  0  0  0  0
    5.8580   -0.4020   -0.9580 N   0  0  0  0  0  0  0  0  0  0  0  0
   -2.2770    1.1300    0.8130 C   0  0  0  0  0  0  0  0  0  0  0  0
   -3.6100    0.8810    0.6990 C   0  0  0  0  0  0  0  0  0  0  0  0
   -6.9350    0.7650    1.1390 C   0  0  0  0  0  0  0  0  0  0  0  0
   -8.4220    0.9670    1.3160 C   0  0  0  0  0  0  0  0  0  0  0  0
  2  1  1  1
  2  3  1  0
  2 33  1  0
  3  4  1  0
  4  5  1  0
  5  6  1  0
  6  7  1  6
  6 32  1  0
  7  8  1  0
  8  9  2  0
  8 31  1  0
  9 10  1  0
 10 11  2  0
 11 12  1  0
 11 30  1  0
 12 13  1  0
 13 14  2  0
 13 15  1  0
 15 16  1  0
 16 17  2  0
 18 16  1  6
 18 19  1  0
 18 29  1  0
 19 20  1  0
 20 21  1  0
 22 21  1  1
 22 23  1  0
 22 27  1  0
 22 29  1  0
 23 24  1  0
 24 25  1  0
 25 26  1  0
 26 27  1  0
 27 28  2  0
 30 31  2  0
 32 33  1  0
M  CHG  2   6   1  29   1
M  END
