
     RDKit          3D

 31 33  0  0  0  0  0  0  0  0999 V2000
    1.0360   -1.4460   -3.2930 N   0  0  0  0  0  0  0  0  0  0  0  0
    1.6770   -1.9670   -2.1460 C   0  0  0  0  0  0  0  0  0  0  0  0
    2.8360   -2.4300   -2.3050 O   0  0  0  0  0  0  0  0  0  0  0  0
    1.0120   -1.9750   -0.7840 C   0  0  2  0  0  0  0  0  0  0  0  0
   -0.2290   -1.4080   -0.9630 O   0  0  0  0  0  0  0  0  0  0  0  0
   -1.1060   -0.5490   -0.2430 C   0  0  0  0  0  0  0  0  0  0  0  0
   -2.4900   -0.7830   -0.3410 C   0  0  0  0  0  0  0  0  0  0  0  0
   -2.8200   -1.8000   -1.1010 O   0  0  0  0  0  0  0  0  0  0  0  0
   -3.5890   -0.1410    0.2180 N   0  0  0  0  0  0  0  0  0  0  0  0
   -3.6940    1.0040    1.0720 C   0  0  0  0  0  0  0  0  0  0  0  0
   -5.1640    1.3800    1.2270 C   0  0  0  0  0  0  0  0  0  0  0  0
   -5.8530    0.5620    0.1550 C   0  0  1  0  0  0  0  0  0  0  0  0
   -5.9590    1.3860   -1.0950 C   0  0  0  0  0  0  0  0  0  0  0  0
   -6.6010    0.6950   -2.1760 N   0  0  0  0  0  0  0  0  0  0  0  0
   -4.9910   -0.6400   -0.0240 C   0  0  0  0  0  0  0  0  0  0  0  0
   -0.6080    0.4260    0.4820 C   0  0  0  0  0  0  0  0  0  0  0  0
    0.8090    0.8190    0.6970 C   0  0  0  0  0  0  0  0  0  0  0  0
    1.8300   -0.0100    0.5530 C   0  0  0  0  0  0  0  0  0  0  0  0
    3.0720    0.6340    0.8230 N   0  0  0  0  0  0  0  0  0  0  0  0
    4.1250    0.7650   -0.1030 C   0  0  0  0  0  0  0  0  0  0  0  0
    3.9340    0.2680   -1.2530 O   0  0  0  0  0  0  0  0  0  0  0  0
    5.3330    1.4210    0.2420 N   0  0  0  0  0  0  0  0  0  0  0  0
    5.6180    2.0080    1.5240 C   0  0  0  0  0  0  0  0  0  0  0  0
    6.9170    2.7280    1.3570 C   0  0  0  0  0  0  0  0  0  0  0  0
    7.3900    3.4670    2.2610 O   0  0  0  0  0  0  0  0  0  0  0  0
    7.4280    2.4180    0.0910 N   0  0  0  0  0  0  0  0  0  0  0  0
    6.4630    1.6180   -0.5970 C   0  0  0  0  0  0  0  0  0  0  0  0
    6.6300    1.1790   -1.7620 O   0  0  0  0  0  0  0  0  0  0  0  0
    1.9520   -1.4120    0.1900 C   0  0  1  0  0  0  0  0  0  0  0  0
    1.8110   -2.1970    1.5060 C   0  0  0  0  0  0  0  0  0  0  0  0
    2.0960   -3.5840    1.3550 N   0  0  0  0  0  0  0  0  0  0  0  0
  1  2  1  0
  2  3  2  0
  4  2  1  6
  4  5  1  0
  4 29  1  0
  5  6  1  0
  6  7  1  0
  6 16  2  0
  7  8  2  0
  7  9  1  0
  9 10  1  0
  9 15  1  0
 10 11  1  0
 11 12  1  0
 12 13  1  6
 12 15  1  0
 13 14  1  0
 16 17  1  0
 17 18  2  0
 18 19  1  0
 18 29  1  0
 19 20  1  0
 20 21  2  0
 20 22  1  0
 22 23  1  0
 22 27  1  0
 23 24  1  0
 24 25  2  0
 24 26  1  0
 26 27  1  0
 27 28  2  0
 29 30  1  1
 30 31  1  0
M  CHG  2  14   1  31   1
M  END
