
     RDKit          3D

 33 37  0  0  0  0  0  0  0  0999 V2000
    7.3300   -2.8250   -1.4460 C   0  0  0  0  0  0  0  0  0  0  0  0
    7.0510   -1.5400   -1.0180 O   0  0  0  0  0  0  0  0  0  0  0  0
    5.9810   -1.1630   -0.2770 C   0  0  0  0  0  0  0  0  0  0  0  0
    4.7560   -1.2810   -0.9250 C   0  0  0  0  0  0  0  0  0  0  0  0
    3.4950   -0.9370   -0.2910 C   0  0  0  0  0  0  0  0  0  0  0  0
    2.3180   -1.1470   -1.2480 C   0  0  0  0  0  0  0  0  0  0  0  0
    1.0870   -0.5000   -0.7960 N   0  0  0  0  0  0  0  0  0  0  0  0
   -0.0530   -0.9050   -0.3280 C   0  0  0  0  0  0  0  0  0  0  0  0
   -0.7840    0.1530    0.1210 C   0  0  0  0  0  0  0  0  0  0  0  0
   -2.0810    0.2080    0.8960 C   0  0  0  0  0  0  0  0  0  0  0  0
   -3.2380   -0.1850    0.4170 N   0  0  1  0  0  0  0  0  0  0  0  0
   -3.2760    0.2220   -1.0410 C   0  0  0  0  0  0  0  0  0  0  0  0
   -3.2110   -1.1170   -1.7810 C   0  0  2  0  0  0  0  0  0  0  0  0
   -4.0900   -0.9650   -2.9020 O   0  0  0  0  0  0  0  0  0  0  0  0
   -3.6800   -2.1740   -0.8590 C   0  0  1  0  0  0  0  0  0  0  0  0
   -2.6590   -3.1970   -0.4190 C   0  0  0  0  0  0  0  0  0  0  0  0
   -3.4160   -4.2620    0.2480 C   0  0  0  0  0  0  0  0  0  0  0  0
   -4.5310   -3.6080    1.1330 C   0  0  0  0  0  0  0  0  0  0  0  0
   -4.0320   -2.2310    1.6210 C   0  0  0  0  0  0  0  0  0  0  0  0
   -4.0280   -1.3110    0.4200 C   0  0  1  0  0  0  0  0  0  0  0  0
   -0.0030    1.1560   -0.1590 C   0  0  0  0  0  0  0  0  0  0  0  0
   -0.3000    2.6390   -0.0270 C   0  0  0  0  0  0  0  0  0  0  0  0
   -0.2380    3.3720   -1.1350 C   0  0  0  0  0  0  0  0  0  0  0  0
   -0.2590    4.7250   -1.1160 C   0  0  0  0  0  0  0  0  0  0  0  0
   -0.3190    5.4040    0.1250 C   0  0  0  0  0  0  0  0  0  0  0  0
   -0.4260    6.7310    0.0950 O   0  0  0  0  0  0  0  0  0  0  0  0
   -0.5890    7.6460    1.2420 C   0  0  0  0  0  0  0  0  0  0  0  0
   -0.3480    4.6040    1.2190 C   0  0  0  0  0  0  0  0  0  0  0  0
   -0.3510    3.2190    1.2730 C   0  0  0  0  0  0  0  0  0  0  0  0
    1.1390    0.8350   -0.6910 N   0  0  0  0  0  0  0  0  0  0  0  0
    3.5430   -0.4760    0.8550 C   0  0  0  0  0  0  0  0  0  0  0  0
    4.7970   -0.2150    1.6500 C   0  0  0  0  0  0  0  0  0  0  0  0
    6.0110   -0.7400    1.0130 N   0  0  0  0  0  0  0  0  0  0  0  0
  1  2  1  0
  2  3  1  0
  3  4  2  0
  3 33  1  0
  4  5  1  0
  5  6  1  0
  5 31  2  0
  6  7  1  0
  7  8  1  0
  7 30  1  0
  8  9  2  0
  9 10  1  0
  9 21  1  0
 11 10  1  6
 11 12  1  0
 11 20  1  0
 12 13  1  0
 13 14  1  6
 13 15  1  0
 15 16  1  1
 15 20  1  0
 16 17  1  0
 17 18  1  0
 18 19  1  0
 20 19  1  1
 21 22  1  0
 21 30  2  0
 22 23  2  0
 22 29  1  0
 23 24  1  0
 24 25  2  0
 25 26  1  0
 25 28  1  0
 26 27  1  0
 28 29  2  0
 31 32  1  0
 32 33  1  0
M  CHG  2  11   1  33   1
M  END
