
     RDKit          3D

 33 35  0  0  0  0  0  0  0  0999 V2000
   -7.2590   -1.9300    2.7420 C   0  0  0  0  0  0  0  0  0  0  0  0
   -5.8920   -1.6290    2.9240 O   0  0  0  0  0  0  0  0  0  0  0  0
   -5.2600   -0.8820    1.9050 C   0  0  0  0  0  0  0  0  0  0  0  0
   -5.9360   -0.4680    0.7950 C   0  0  0  0  0  0  0  0  0  0  0  0
   -5.2690    0.2600   -0.1690 C   0  0  0  0  0  0  0  0  0  0  0  0
   -3.9460    0.5910   -0.0650 C   0  0  0  0  0  0  0  0  0  0  0  0
   -3.3630    1.4490   -1.1410 C   0  0  0  0  0  0  0  0  0  0  0  0
   -3.9750    2.6480   -1.4020 N   0  0  0  0  0  0  0  0  0  0  0  0
   -3.0250    3.4060   -2.7390 S   0  0  0  0  0  0  0  0  0  0  0  0
   -1.8780    2.0210   -2.8240 C   0  0  0  0  0  0  0  0  0  0  0  0
   -0.7410    1.9590   -3.7790 C   0  0  0  0  0  0  0  0  0  0  0  0
   -2.2890    1.0920   -1.8480 C   0  0  0  0  0  0  0  0  0  0  0  0
   -1.5180   -0.1710   -1.7950 C   0  0  0  0  0  0  0  0  0  0  0  0
   -0.4650   -0.2620   -2.4550 O   0  0  0  0  0  0  0  0  0  0  0  0
   -1.9420   -1.2680   -1.0360 N   0  0  0  0  0  0  0  0  0  0  0  0
   -1.1070   -1.8570   -0.2460 C   0  0  0  0  0  0  0  0  0  0  0  0
   -1.5670   -2.9850    0.5130 N   0  0  0  0  0  0  0  0  0  0  0  0
    0.2190   -1.3460   -0.1220 N   0  0  0  0  0  0  0  0  0  0  0  0
    0.4200    0.0150    0.2140 C   0  0  0  0  0  0  0  0  0  0  0  0
    1.9330    0.2110    0.1530 C   0  0  0  0  0  0  0  0  0  0  0  0
    2.7770   -0.7090    0.6890 C   0  0  0  0  0  0  0  0  0  0  0  0
    4.1560   -0.5290    0.6310 C   0  0  0  0  0  0  0  0  0  0  0  0
    5.0280   -1.5540    1.2270 C   0  0  0  0  0  0  0  0  0  0  0  0
    4.7020    0.5840    0.0280 C   0  0  0  0  0  0  0  0  0  0  0  0
    6.1260    0.7660   -0.0310 N   0  0  0  0  0  0  0  0  0  0  0  0
    6.8630    1.4330    0.9600 C   0  0  0  0  0  0  0  0  0  0  0  0
    8.3440    1.5910    0.8410 C   0  0  0  0  0  0  0  0  0  0  0  0
    6.2550    1.9000    1.9570 O   0  0  0  0  0  0  0  0  0  0  0  0
    3.8350    1.5090   -0.5120 C   0  0  0  0  0  0  0  0  0  0  0  0
    4.4950    2.9280   -1.2810 Cl  0  0  0  0  0  0  0  0  0  0  0  0
    2.4690    1.3250   -0.4510 C   0  0  0  0  0  0  0  0  0  0  0  0
   -3.2870    0.1740    1.0400 C   0  0  0  0  0  0  0  0  0  0  0  0
   -3.9210   -0.5650    2.0430 C   0  0  0  0  0  0  0  0  0  0  0  0
  1  2  1  0
  2  3  1  0
  3  4  2  0
  3 33  1  0
  4  5  1  0
  5  6  2  0
  6  7  1  0
  6 32  1  0
  7  8  2  0
  7 12  1  0
  8  9  1  0
  9 10  1  0
 10 11  1  0
 10 12  2  0
 12 13  1  0
 13 14  2  0
 13 15  1  0
 15 16  2  3
 16 17  1  0
 16 18  1  0
 18 19  1  0
 19 20  1  0
 20 21  2  0
 20 31  1  0
 21 22  1  0
 22 23  1  0
 22 24  2  0
 24 25  1  0
 24 29  1  0
 25 26  1  0
 26 27  1  0
 26 28  2  0
 29 30  1  0
 29 31  2  0
 32 33  2  0
M  CHG  1  15   1
M  END
