
     RDKit          3D

 28 29  0  0  0  0  0  0  0  0999 V2000
   -1.2170    1.8400    2.1480 N   0  0  0  0  0  0  0  0  0  0  0  0
   -0.6940    0.9950    1.2590 C   0  0  0  0  0  0  0  0  0  0  0  0
    0.4870    1.5630    0.9590 N   0  0  0  0  0  0  0  0  0  0  0  0
    1.4010    1.0080    0.0750 C   0  0  0  0  0  0  0  0  0  0  0  0
    1.0400   -0.0520   -0.4270 O   0  0  0  0  0  0  0  0  0  0  0  0
    2.6160    1.6180   -0.2040 N   0  0  0  0  0  0  0  0  0  0  0  0
    3.4750    1.0050   -1.1270 C   0  0  1  0  0  0  0  0  0  0  0  0
    3.9230    1.8670   -2.2430 C   0  0  0  0  0  0  0  0  0  0  0  0
    5.1690    1.3320   -2.5010 O   0  0  0  0  0  0  0  0  0  0  0  0
    5.7260    1.0780   -1.3420 O   0  0  0  0  0  0  0  0  0  0  0  0
    4.7820    0.5530   -0.5210 C   0  0  1  0  0  0  0  0  0  0  0  0
    4.8930    1.1980    0.7350 O   0  0  0  0  0  0  0  0  0  0  0  0
    4.8620    0.0360    2.0210 P   0  0  0  0  0  0  0  0  0  0  0  0
    4.4400   -1.4990    1.3490 O   0  0  0  0  0  0  0  0  0  0  0  0
    6.3860   -0.0230    2.8390 O   0  0  0  0  0  0  0  0  0  0  0  0
   -1.6470   -0.0040    0.9990 N   0  0  0  0  0  0  0  0  0  0  0  0
   -2.8240    0.4540    0.3430 C   0  0  0  0  0  0  0  0  0  0  0  0
   -2.9050    1.7470    0.1770 O   0  0  0  0  0  0  0  0  0  0  0  0
   -3.8400   -0.3480   -0.1110 N   0  0  0  0  0  0  0  0  0  0  0  0
   -3.8670   -1.7700   -0.0930 C   0  0  0  0  0  0  0  0  0  0  0  0
   -4.8710   -2.2200   -1.1910 C   0  0  0  0  0  0  0  0  0  0  0  0
   -6.1580   -1.8190   -0.6950 O   0  0  0  0  0  0  0  0  0  0  0  0
   -6.2450   -0.4610   -0.3290 C   0  0  0  0  0  0  0  0  0  0  0  0
   -7.2670    0.0290    0.2300 O   0  0  0  0  0  0  0  0  0  0  0  0
   -5.0460    0.3450   -0.6480 C   0  0  0  0  0  0  0  0  0  0  0  0
   -1.4420   -1.6500    1.5510 P   0  0  0  0  0  0  0  0  0  0  0  0
   -0.2880   -2.5770    0.6630 O   0  0  0  0  0  0  0  0  0  0  0  0
   -1.2000   -1.7770    3.2630 O   0  0  0  0  0  0  0  0  0  0  0  0
  1  2  2  0
  2  3  1  0
  2 16  1  0
  3  4  1  0
  4  5  2  0
  4  6  1  0
  7  6  1  1
  7  8  1  0
  7 11  1  0
  8  9  1  0
  9 10  1  0
 10 11  1  0
 11 12  1  1
 12 13  1  0
 13 14  1  0
 13 15  1  0
 16 17  1  0
 16 26  1  0
 17 18  2  0
 17 19  1  0
 19 20  1  0
 19 25  1  0
 20 21  1  0
 21 22  1  0
 22 23  1  0
 23 24  2  0
 23 25  1  0
 26 27  1  0
 26 28  1  0
M  END
