
     RDKit          3D

 27 28  0  0  0  0  0  0  0  0999 V2000
   -3.0420   -1.3590   -4.3880 N   0  0  0  0  0  0  0  0  0  0  0  0
   -3.1420   -1.1100   -3.1470 C   0  0  0  0  0  0  0  0  0  0  0  0
   -1.9920   -0.8310   -2.3730 N   0  0  0  0  0  0  0  0  0  0  0  0
   -2.0940   -0.5760   -1.1160 C   0  0  0  0  0  0  0  0  0  0  0  0
   -0.8950   -0.2970   -0.3530 N   0  0  0  0  0  0  0  0  0  0  0  0
   -0.0310   -1.2330   -0.2020 C   0  0  0  0  0  0  0  0  0  0  0  0
   -0.1410   -2.4700   -0.6970 N   0  0  0  0  0  0  0  0  0  0  0  0
    0.8080   -3.4000   -0.4970 C   0  0  0  0  0  0  0  0  0  0  0  0
    0.6580   -4.5440   -0.9820 O   0  0  0  0  0  0  0  0  0  0  0  0
    1.9170   -3.1450    0.2090 N   0  0  0  0  0  0  0  0  0  0  0  0
    2.0850   -1.9040    0.7390 C   0  0  0  0  0  0  0  0  0  0  0  0
    1.1230   -0.9270    0.5470 C   0  0  0  0  0  0  0  0  0  0  0  0
    1.1890    0.3400    1.0320 O   0  0  0  0  0  0  0  0  0  0  0  0
    2.2120    0.9000    1.7640 C   0  0  0  0  0  0  0  0  0  0  0  0
    3.5380    1.0550    1.0890 C   0  0  0  0  0  0  0  0  0  0  0  0
    3.3670    1.8840   -0.0420 O   0  0  0  0  0  0  0  0  0  0  0  0
    4.8640    2.1120   -0.8810 P   0  0  0  0  0  0  0  0  0  0  0  0
    5.7090    3.4920   -0.2780 O   0  0  0  0  0  0  0  0  0  0  0  0
    5.8680    0.7060   -0.8140 O   0  0  0  0  0  0  0  0  0  0  0  0
   -3.4250   -0.5550   -0.4970 C   0  0  2  0  0  0  0  0  0  0  0  0
   -3.3820   -0.7020    0.8860 O   0  0  0  0  0  0  0  0  0  0  0  0
   -3.8620    0.4390    1.5380 C   0  0  0  0  0  0  0  0  0  0  0  0
   -2.8640    1.9400    1.1140 P   0  0  0  0  0  0  0  0  0  0  0  0
   -2.8010    3.0640    2.4450 O   0  0  0  0  0  0  0  0  0  0  0  0
   -3.6230    2.7470   -0.2190 O   0  0  0  0  0  0  0  0  0  0  0  0
   -4.2630   -1.4510   -1.1080 O   0  0  0  0  0  0  0  0  0  0  0  0
   -4.3510   -1.0830   -2.4250 O   0  0  0  0  0  0  0  0  0  0  0  0
  1  2  2  0
  2  3  1  0
  2 27  1  0
  3  4  2  0
  4  5  1  0
  4 20  1  0
  5  6  2  3
  6  7  1  0
  6 12  1  0
  7  8  1  0
  8  9  2  0
  8 10  1  0
 10 11  1  0
 11 12  2  0
 12 13  1  0
 13 14  1  0
 14 15  1  0
 15 16  1  0
 16 17  1  0
 17 18  1  0
 17 19  1  0
 20 21  1  1
 20 26  1  0
 21 22  1  0
 22 23  1  0
 23 24  1  0
 23 25  1  0
 26 27  1  0
M  END
