
     RDKit          3D

 23 25  0  0  0  0  0  0  0  0999 V2000
   -3.7920   -1.2650    0.3010 C   0  0  0  0  0  0  0  0  0  0  0  0
   -3.6160    0.2530    0.2760 C   0  0  2  0  0  0  0  0  0  0  0  0
   -4.6700    0.9260    0.9970 N   0  0  0  0  0  0  0  0  0  0  0  0
   -3.5300    0.6410   -1.1020 N   0  0  0  0  0  0  0  0  0  0  0  0
   -2.5430    1.4970   -1.3970 O   0  0  0  0  0  0  0  0  0  0  0  0
   -1.3150    0.8480   -1.6130 C   0  0  0  0  0  0  0  0  0  0  0  0
   -0.7710    0.5970   -0.2890 N   0  0  0  0  0  0  0  0  0  0  0  0
    0.6570    0.3830   -0.1020 C   0  0  0  0  0  0  0  0  0  0  0  0
    1.1400   -0.8580   -0.3000 C   0  0  0  0  0  0  0  0  0  0  0  0
    2.4290   -1.3270   -0.1920 C   0  0  0  0  0  0  0  0  0  0  0  0
    2.7620   -2.5700   -0.4170 O   0  0  0  0  0  0  0  0  0  0  0  0
    3.8760   -3.1780   -0.3690 C   0  0  0  0  0  0  0  0  0  0  0  0
    3.8780   -4.4390   -0.6530 O   0  0  0  0  0  0  0  0  0  0  0  0
    5.0700   -2.7210   -0.0690 O   0  0  0  0  0  0  0  0  0  0  0  0
    5.0030   -1.0800    0.2900 P   0  0  0  0  0  0  0  0  0  0  0  0
    6.6390    0.3410    0.3790 P   0  0  0  0  0  0  0  0  0  0  0  0
    6.5610    1.5860   -0.5660 O   0  0  0  0  0  0  0  0  0  0  0  0
    3.3800   -0.4850    0.1550 C   0  0  0  0  0  0  0  0  0  0  0  0
    2.9520    1.1620    0.4530 P   0  0  0  0  0  0  0  0  0  0  0  0
    4.1780    2.2630    0.9490 O   0  0  0  0  0  0  0  0  0  0  0  0
    1.3280    1.4680    0.2520 O   0  0  0  0  0  0  0  0  0  0  0  0
   -1.9390    0.5830    1.0650 P   0  0  0  0  0  0  0  0  0  0  0  0
   -2.0320    2.2030    1.7140 O   0  0  0  0  0  0  0  0  0  0  0  0
  2  1  1  6
  2  3  1  0
  2  4  1  0
  2 22  1  0
  4  5  1  0
  5  6  1  0
  6  7  1  0
  7  8  1  0
  7 22  1  0
  8  9  2  0
  8 21  1  0
  9 10  1  0
 10 11  1  0
 10 18  2  0
 11 12  1  0
 12 13  2  0
 12 14  1  0
 14 15  1  0
 15 16  1  0
 15 18  1  0
 16 17  2  0
 18 19  1  0
 19 20  1  0
 19 21  1  0
 22 23  1  0
M  END
