
     RDKit          3D

 27 28  0  0  0  0  0  0  0  0999 V2000
    3.6460   -4.9100   -1.0490 O   0  0  0  0  0  0  0  0  0  0  0  0
    2.7710   -4.0220   -0.1120 P   0  0  0  0  0  0  0  0  0  0  0  0
    2.7300   -2.1460   -0.3420 C   0  0  0  0  0  0  0  0  0  0  0  0
    1.6850   -1.8350   -1.1420 O   0  0  0  0  0  0  0  0  0  0  0  0
    1.4220   -0.5730   -1.5080 C   0  0  0  0  0  0  0  0  0  0  0  0
    1.1130    0.4370   -0.4340 C   0  0  2  0  0  0  0  0  0  0  0  0
    0.8190    1.7770   -1.0930 C   0  0  0  0  0  0  0  0  0  0  0  0
    0.8540    1.9140   -2.3410 O   0  0  0  0  0  0  0  0  0  0  0  0
    0.4930    2.9180   -0.3170 N   0  0  0  0  0  0  0  0  0  0  0  0
    0.2110    4.1820   -0.8700 C   0  0  0  0  0  0  0  0  0  0  0  0
    0.2440    4.3250   -2.1070 O   0  0  0  0  0  0  0  0  0  0  0  0
   -0.0980    5.2480   -0.0530 O   0  0  0  0  0  0  0  0  0  0  0  0
    2.3540    0.6780    0.3420 C   0  0  0  0  0  0  0  0  0  0  0  0
    3.4830    0.7600   -0.2280 O   0  0  0  0  0  0  0  0  0  0  0  0
    2.3580    0.8310    1.7480 N   0  0  0  0  0  0  0  0  0  0  0  0
    1.3760    0.1640    2.5080 C   0  0  0  0  0  0  0  0  0  0  0  0
    0.1410   -0.0820    1.7520 C   0  0  0  0  0  0  0  0  0  0  0  0
   -1.0770   -0.4650    2.2050 N   0  0  0  0  0  0  0  0  0  0  0  0
   -1.8690   -0.5630    1.1900 O   0  0  0  0  0  0  0  0  0  0  0  0
   -1.2500   -0.2670    0.0820 C   0  0  0  0  0  0  0  0  0  0  0  0
   -1.7320   -0.2570   -1.1350 N   0  0  0  0  0  0  0  0  0  0  0  0
   -3.1270   -0.6170   -1.3010 C   0  0  2  0  0  0  0  0  0  0  0  0
   -3.8800    0.1290   -0.3680 O   0  0  0  0  0  0  0  0  0  0  0  0
   -3.4160   -2.4300   -1.0270 P   0  0  0  0  0  0  0  0  0  0  0  0
   -5.1350   -2.6910   -1.0000 O   0  0  0  0  0  0  0  0  0  0  0  0
   -2.6730   -2.9910    0.4260 O   0  0  0  0  0  0  0  0  0  0  0  0
    0.0290    0.0400    0.4330 N   0  0  0  0  0  0  0  0  0  0  0  0
  1  2  2  0
  2  3  1  0
  3  4  1  0
  4  5  1  0
  6  5  1  6
  6  7  1  0
  6 13  1  0
  6 27  1  0
  7  8  2  0
  7  9  1  0
  9 10  1  0
 10 11  2  0
 10 12  1  0
 13 14  2  0
 13 15  1  0
 15 16  1  0
 16 17  1  0
 17 18  2  0
 17 27  1  0
 18 19  1  0
 19 20  1  0
 20 21  2  3
 20 27  1  0
 21 22  1  0
 22 23  1  1
 22 24  1  0
 24 25  1  0
 24 26  1  0
M  END
