
     RDKit          3D

 27 28  0  0  0  0  0  0  0  0999 V2000
   -3.6490    1.7680    1.3630 N   0  0  0  0  0  0  0  0  0  0  0  0
   -3.6690    1.0200    0.2630 C   0  0  0  0  0  0  0  0  0  0  0  0
   -3.4410    1.7840   -0.8980 N   0  0  0  0  0  0  0  0  0  0  0  0
   -3.9500    3.4670   -1.1300 P   0  0  0  0  0  0  0  0  0  0  0  0
   -4.6330    4.3230   -0.0720 O   0  0  0  0  0  0  0  0  0  0  0  0
   -3.8050   -0.3480    0.3780 N   0  0  0  0  0  0  0  0  0  0  0  0
   -5.1810   -0.7400    0.8540 C   0  0  0  0  0  0  0  0  0  0  0  0
   -5.3330   -2.1870    0.6320 C   0  0  0  0  0  0  0  0  0  0  0  0
   -5.9880   -2.9330    1.3850 O   0  0  0  0  0  0  0  0  0  0  0  0
   -4.7110   -2.7720   -0.4820 O   0  0  0  0  0  0  0  0  0  0  0  0
   -3.4830   -2.2500   -0.9690 C   0  0  0  0  0  0  0  0  0  0  0  0
   -2.9140   -1.4070    0.1670 C   0  0  1  0  0  0  0  0  0  0  0  0
   -1.5200   -1.0770   -0.0890 C   0  0  0  0  0  0  0  0  0  0  0  0
   -0.8660   -1.3810   -1.2200 N   0  0  0  0  0  0  0  0  0  0  0  0
    0.3340   -0.9880   -1.1960 O   0  0  0  0  0  0  0  0  0  0  0  0
    0.5740   -0.3900   -0.0400 C   0  0  0  0  0  0  0  0  0  0  0  0
    1.8140    0.1940    0.3710 C   0  0  2  0  0  0  0  0  0  0  0  0
    1.7750    1.5410   -0.2650 O   0  0  0  0  0  0  0  0  0  0  0  0
    2.9630   -0.3190   -0.2900 O   0  0  0  0  0  0  0  0  0  0  0  0
    4.1870   -0.1450    0.2820 C   0  0  0  0  0  0  0  0  0  0  0  0
    4.1970    0.4150    1.4330 O   0  0  0  0  0  0  0  0  0  0  0  0
    5.4890   -0.5570   -0.3690 C   0  0  0  0  0  0  0  0  0  0  0  0
    6.3990    0.0510    0.5680 O   0  0  0  0  0  0  0  0  0  0  0  0
    7.3270    1.1890   -0.2510 P   0  0  0  0  0  0  0  0  0  0  0  0
    8.7110    0.8140   -1.0640 O   0  0  0  0  0  0  0  0  0  0  0  0
    7.2700    2.7400    0.5460 O   0  0  0  0  0  0  0  0  0  0  0  0
   -0.6160   -0.4490    0.6520 N   0  0  0  0  0  0  0  0  0  0  0  0
  1  2  2  0
  2  3  1  0
  2  6  1  0
  3  4  1  0
  4  5  2  0
  6  7  1  0
  6 12  1  0
  7  8  1  0
  8  9  2  0
  8 10  1  0
 10 11  1  0
 11 12  1  0
 12 13  1  6
 13 14  2  0
 13 27  1  0
 14 15  1  0
 15 16  1  0
 16 17  1  0
 16 27  2  0
 17 18  1  6
 17 19  1  0
 19 20  1  0
 20 21  2  0
 20 22  1  0
 22 23  1  0
 23 24  1  0
 24 25  1  0
 24 26  1  0
M  END
