
     RDKit          3D

 28 29  0  0  0  0  0  0  0  0999 V2000
   -4.1690    1.3100    6.0210 O   0  0  0  0  0  0  0  0  0  0  0  0
   -3.9600    0.5530    4.6890 P   0  0  0  0  0  0  0  0  0  0  0  0
   -2.9390    1.5800    3.0490 P   0  0  0  0  0  0  0  0  0  0  0  0
   -2.4160    0.3500    1.8520 N   0  0  0  0  0  0  0  0  0  0  0  0
   -1.5840    0.6880    0.7510 C   0  0  0  0  0  0  0  0  0  0  0  0
   -1.2270    1.8890    0.6460 O   0  0  0  0  0  0  0  0  0  0  0  0
   -1.1720   -0.3620   -0.2190 C   0  0  1  0  0  0  0  0  0  0  0  0
   -2.3760   -0.7830   -1.0220 C   0  0  2  0  0  0  0  0  0  0  0  0
   -2.1030   -1.9180   -1.8540 N   0  0  0  0  0  0  0  0  0  0  0  0
   -2.9620   -3.0360   -1.8190 C   0  0  0  0  0  0  0  0  0  0  0  0
   -3.9810   -3.0480   -1.0540 O   0  0  0  0  0  0  0  0  0  0  0  0
   -2.7730   -4.1820   -2.5920 O   0  0  0  0  0  0  0  0  0  0  0  0
   -2.5390    0.3720   -1.9190 N   0  0  0  0  0  0  0  0  0  0  0  0
   -1.1860    0.7220   -2.2330 C   0  0  0  0  0  0  0  0  0  0  0  0
   -0.8790    1.3590   -3.2910 O   0  0  0  0  0  0  0  0  0  0  0  0
   -0.3290    0.2560   -1.2100 N   0  0  0  0  0  0  0  0  0  0  0  0
    1.0730    0.3760   -1.1670 C   0  0  0  0  0  0  0  0  0  0  0  0
    1.6810    0.9440   -2.1120 O   0  0  0  0  0  0  0  0  0  0  0  0
    1.8510   -0.1000   -0.1250 O   0  0  0  0  0  0  0  0  0  0  0  0
    3.2460    0.0470   -0.1330 C   0  0  1  0  0  0  0  0  0  0  0  0
    3.7020    0.9320    1.0370 C   0  0  0  0  0  0  0  0  0  0  0  0
    5.1180    1.1700    0.8510 N   0  0  0  0  0  0  0  0  0  0  0  0
    5.8610    0.3010    0.0040 C   0  0  0  0  0  0  0  0  0  0  0  0
    6.9760    0.6790   -0.4760 O   0  0  0  0  0  0  0  0  0  0  0  0
    5.3560   -0.9760   -0.3000 O   0  0  0  0  0  0  0  0  0  0  0  0
    3.9860   -1.2590    0.0290 C   0  0  0  0  0  0  0  0  0  0  0  0
   -3.9900    2.6840    2.2220 O   0  0  0  0  0  0  0  0  0  0  0  0
   -3.2970    3.6010    1.5690 O   0  0  0  0  0  0  0  0  0  0  0  0
  1  2  2  0
  2  3  1  0
  3  4  1  0
  3 27  1  0
  4  5  1  0
  5  6  2  0
  7  5  1  1
  7  8  1  0
  7 16  1  0
  8  9  1  6
  8 13  1  0
  9 10  1  0
 10 11  2  0
 10 12  1  0
 13 14  1  0
 14 15  2  0
 14 16  1  0
 16 17  1  0
 17 18  2  0
 17 19  1  0
 20 19  1  1
 20 21  1  0
 20 26  1  0
 21 22  1  0
 22 23  1  0
 23 24  2  0
 23 25  1  0
 25 26  1  0
 27 28  1  0
M  END
