
     RDKit          3D

 27 28  0  0  0  0  0  0  0  0999 V2000
    2.5930    5.7810    2.1260 O   0  0  0  0  0  0  0  0  0  0  0  0
    2.1720    4.3950    2.6680 P   0  0  0  0  0  0  0  0  0  0  0  0
    1.4130    3.2290    1.6060 O   0  0  0  0  0  0  0  0  0  0  0  0
    2.4230    2.3850    1.1360 C   0  0  0  0  0  0  0  0  0  0  0  0
    1.8380    1.3520    0.2110 C   0  0  2  0  0  0  0  0  0  0  0  0
    0.8780    0.5600    0.8020 O   0  0  0  0  0  0  0  0  0  0  0  0
   -0.4110    0.5370    0.3880 C   0  0  0  0  0  0  0  0  0  0  0  0
   -0.8500    1.2120   -0.5440 O   0  0  0  0  0  0  0  0  0  0  0  0
   -1.3410   -0.2810    1.0180 N   0  0  0  0  0  0  0  0  0  0  0  0
   -2.7200   -0.3590    0.6370 C   0  0  0  0  0  0  0  0  0  0  0  0
   -3.3070   -1.1770    1.4170 N   0  0  0  0  0  0  0  0  0  0  0  0
   -4.6100   -1.3190    1.1350 N   0  0  0  0  0  0  0  0  0  0  0  0
   -5.0070   -0.6320    0.1670 C   0  0  0  0  0  0  0  0  0  0  0  0
   -3.7410    0.0930   -0.2580 C   0  0  2  0  0  0  0  0  0  0  0  0
   -3.5520   -0.5310   -2.0380 P   0  0  0  0  0  0  0  0  0  0  0  0
   -3.2450   -2.2360   -1.9090 O   0  0  0  0  0  0  0  0  0  0  0  0
   -5.1220   -0.3260   -2.7180 O   0  0  0  0  0  0  0  0  0  0  0  0
   -6.0760   -0.8750   -1.9880 N   0  0  0  0  0  0  0  0  0  0  0  0
   -6.2020   -0.3580   -0.6330 C   0  0  2  0  0  0  0  0  0  0  0  0
   -6.5370    0.9900   -0.6980 O   0  0  0  0  0  0  0  0  0  0  0  0
    2.9290    0.5890   -0.4170 C   0  0  0  0  0  0  0  0  0  0  0  0
    3.8370    1.2270   -0.9900 O   0  0  0  0  0  0  0  0  0  0  0  0
    2.9440   -0.8270   -0.3700 N   0  0  0  0  0  0  0  0  0  0  0  0
    3.9860   -1.6250   -0.9660 C   0  0  0  0  0  0  0  0  0  0  0  0
    5.3310   -1.3060   -0.3630 C   0  0  0  0  0  0  0  0  0  0  0  0
    6.2630   -2.1310   -1.0080 O   0  0  0  0  0  0  0  0  0  0  0  0
    7.4410   -1.8500   -0.4790 O   0  0  0  0  0  0  0  0  0  0  0  0
  1  2  2  0
  2  3  1  0
  3  4  1  0
  5  4  1  1
  5  6  1  0
  5 21  1  0
  6  7  1  0
  7  8  2  0
  7  9  1  0
  9 10  1  0
 10 11  2  0
 10 14  1  0
 11 12  1  0
 12 13  2  0
 13 14  1  0
 13 19  1  0
 14 15  1  6
 15 16  1  0
 15 17  1  0
 17 18  1  0
 18 19  1  0
 19 20  1  6
 21 22  2  0
 21 23  1  0
 23 24  1  0
 24 25  1  0
 25 26  1  0
 26 27  1  0
M  END
