
     RDKit          3D

 26 27  0  0  0  0  0  0  0  0999 V2000
    4.7310   -1.0750   -0.9210 C   0  0  0  0  0  0  0  0  0  0  0  0
    3.4450   -1.1740   -0.1330 C   0  0  0  0  0  0  0  0  0  0  0  0
    2.5050   -0.2010   -0.6600 N   0  0  0  0  0  0  0  0  0  0  0  0
    1.6150   -0.5770   -1.7260 C   0  0  0  0  0  0  0  0  0  0  0  0
    0.4000   -1.0990   -1.1080 N   0  0  0  0  0  0  0  0  0  0  0  0
   -0.2100   -0.1570   -0.3080 N   0  0  0  0  0  0  0  0  0  0  0  0
   -1.6910   -0.3920   -0.4820 C   0  0  1  0  0  0  0  0  0  0  0  0
   -1.9490   -1.5730    0.3940 C   0  0  1  0  0  0  0  0  0  0  0  0
   -3.2610   -2.0010    0.3970 O   0  0  0  0  0  0  0  0  0  0  0  0
   -0.9490   -3.0150   -0.2860 P   0  0  0  0  0  0  0  0  0  0  0  0
    0.3990   -3.4330    0.3040 O   0  0  0  0  0  0  0  0  0  0  0  0
   -2.2980    0.8870   -0.1100 C   0  0  2  0  0  0  0  0  0  0  0  0
   -2.1140    1.3000    1.2960 C   0  0  0  0  0  0  0  0  0  0  0  0
   -3.1450    1.7670    1.8870 C   0  0  0  0  0  0  0  0  0  0  0  0
   -3.1210    2.2050    3.2410 O   0  0  0  0  0  0  0  0  0  0  0  0
   -4.3280    1.8630    1.2250 O   0  0  0  0  0  0  0  0  0  0  0  0
   -4.0740    1.1760   -0.3750 P   0  0  0  0  0  0  0  0  0  0  0  0
   -5.1300   -0.2850   -0.5190 C   0  0  0  0  0  0  0  0  0  0  0  0
   -5.2770   -0.8120   -1.6060 O   0  0  0  0  0  0  0  0  0  0  0  0
   -1.6890   -0.7260   -1.9090 C   0  0  0  0  0  0  0  0  0  0  0  0
   -2.4820   -0.4940   -2.8530 O   0  0  0  0  0  0  0  0  0  0  0  0
   -0.4980   -1.4520   -2.1090 O   0  0  0  0  0  0  0  0  0  0  0  0
    2.4880    1.1030   -0.1080 C   0  0  0  0  0  0  0  0  0  0  0  0
    1.6820    1.9460   -0.5560 O   0  0  0  0  0  0  0  0  0  0  0  0
    3.3300    1.4740    0.9060 O   0  0  0  0  0  0  0  0  0  0  0  0
    3.3490    2.7720    1.4930 C   0  0  0  0  0  0  0  0  0  0  0  0
  1  2  1  0
  2  3  1  0
  3  4  1  0
  3 23  1  0
  4  5  1  0
  5  6  1  0
  5 22  1  0
  7  6  1  1
  7  8  1  0
  7 12  1  0
  7 20  1  0
  8  9  1  6
  8 10  1  0
 10 11  2  0
 12 13  1  0
 12 17  1  1
 13 14  2  0
 14 15  1  0
 14 16  1  0
 16 17  1  0
 17 18  1  0
 18 19  2  0
 20 21  2  0
 20 22  1  0
 23 24  2  0
 23 25  1  0
 25 26  1  0
M  END
