
     RDKit          3D

 19 20  0  0  0  0  0  0  0  0999 V2000
   -3.9130    0.7030   -1.5320 O   0  0  0  0  0  0  0  0  0  0  0  0
   -2.7360    1.0130   -1.8710 C   0  0  0  0  0  0  0  0  0  0  0  0
   -2.6030    1.8490   -2.9990 O   0  0  0  0  0  0  0  0  0  0  0  0
   -1.6800    0.5350   -1.1460 O   0  0  0  0  0  0  0  0  0  0  0  0
   -1.7880   -0.3010   -0.0280 C   0  0  2  0  0  0  0  0  0  0  0  0
   -2.5680    0.3220    0.9790 O   0  0  0  0  0  0  0  0  0  0  0  0
   -1.7270    1.1200    1.5940 O   0  0  0  0  0  0  0  0  0  0  0  0
   -0.6510    0.3220    1.9180 C   0  0  0  0  0  0  0  0  0  0  0  0
   -0.4250   -0.4750    0.6620 C   0  0  2  0  0  0  0  0  0  0  0  0
    0.5740    0.0340   -0.2100 N   0  0  0  0  0  0  0  0  0  0  0  0
    1.8370    0.3250    0.3870 C   0  0  0  0  0  0  0  0  0  0  0  0
    2.9230    0.6160   -0.6220 C   0  0  0  0  0  0  0  0  0  0  0  0
    4.1080    0.8910    0.0870 O   0  0  0  0  0  0  0  0  0  0  0  0
    5.0770    1.1440   -0.8010 O   0  0  0  0  0  0  0  0  0  0  0  0
   -0.1520   -1.9160    1.0360 C   0  0  0  0  0  0  0  0  0  0  0  0
   -1.2670   -2.5670    1.5000 O   0  0  0  0  0  0  0  0  0  0  0  0
   -2.1430   -2.7290    0.4970 O   0  0  0  0  0  0  0  0  0  0  0  0
   -2.4160   -1.6010   -0.3010 C   0  0  0  0  0  0  0  0  0  0  0  0
   -3.2110   -1.7430   -1.2460 O   0  0  0  0  0  0  0  0  0  0  0  0
  1  2  2  0
  2  3  1  0
  2  4  1  0
  5  4  1  6
  5  6  1  0
  5  9  1  0
  5 18  1  0
  6  7  1  0
  7  8  1  0
  8  9  1  0
  9 10  1  6
  9 15  1  0
 10 11  1  0
 11 12  1  0
 12 13  1  0
 13 14  1  0
 15 16  1  0
 16 17  1  0
 17 18  1  0
 18 19  2  0
M  END
