
     RDKit          3D

 19 19  0  0  0  0  0  0  0  0999 V2000
    0.5220    1.3440   -0.2820 O   0  0  0  0  0  0  0  0  0  0  0  0
    0.9660    0.3800    0.3500 C   0  0  0  0  0  0  0  0  0  0  0  0
    0.1130   -0.5240    1.1220 C   0  0  0  0  0  0  0  0  0  0  0  0
   -1.2390   -0.5230    0.9010 O   0  0  0  0  0  0  0  0  0  0  0  0
   -1.9070   -0.3440   -0.3340 C   0  0  0  0  0  0  0  0  0  0  0  0
   -1.2320   -0.0690   -1.3330 O   0  0  0  0  0  0  0  0  0  0  0  0
   -3.3680   -0.4760   -0.4860 C   0  0  2  0  0  0  0  0  0  0  0  0
   -3.8350    0.5910   -1.4830 C   0  0  0  0  0  0  0  0  0  0  0  0
   -5.2130    0.6560   -1.5460 O   0  0  0  0  0  0  0  0  0  0  0  0
   -5.8180   -0.2680   -0.7870 O   0  0  0  0  0  0  0  0  0  0  0  0
   -5.4870   -0.2760    0.6070 C   0  0  0  0  0  0  0  0  0  0  0  0
   -6.2720   -0.3970    1.5140 O   0  0  0  0  0  0  0  0  0  0  0  0
   -4.0660   -0.1110    0.7560 N   0  0  0  0  0  0  0  0  0  0  0  0
    2.3060    0.0780    0.3720 O   0  0  0  0  0  0  0  0  0  0  0  0
    3.2760    0.7910   -0.3170 C   0  0  0  0  0  0  0  0  0  0  0  0
    4.6720    0.1800   -0.0590 C   0  0  0  0  0  0  0  0  0  0  0  0
    4.6800   -1.1750   -0.4420 O   0  0  0  0  0  0  0  0  0  0  0  0
    5.9110   -1.5960   -0.2090 O   0  0  0  0  0  0  0  0  0  0  0  0
    6.4930   -0.8460    0.7040 O   0  0  0  0  0  0  0  0  0  0  0  0
  1  2  2  0
  2  3  1  0
  2 14  1  0
  3  4  1  0
  4  5  1  0
  5  6  2  0
  7  5  1  1
  7  8  1  0
  7 13  1  0
  8  9  1  0
  9 10  1  0
 10 11  1  0
 11 12  2  0
 11 13  1  0
 14 15  1  0
 15 16  1  0
 16 17  1  0
 17 18  1  0
 18 19  1  0
M  END
