
     RDKit          3D

 26 28  0  0  0  0  0  0  0  0999 V2000
    3.1080    2.5460    1.1970 C   0  0  0  0  0  0  0  0  0  0  0  0
    3.2480    1.2650    0.4560 C   0  0  0  0  0  0  0  0  0  0  0  0
    4.3960    0.9020   -0.2050 C   0  0  0  0  0  0  0  0  0  0  0  0
    4.5150   -0.2800   -0.8690 C   0  0  0  0  0  0  0  0  0  0  0  0
    5.7720   -0.6180   -1.5750 C   0  0  0  0  0  0  0  0  0  0  0  0
    3.4150   -1.1430   -0.8650 C   0  0  0  0  0  0  0  0  0  0  0  0
    2.2300   -0.8280   -0.2130 C   0  0  0  0  0  0  0  0  0  0  0  0
    1.0920   -1.7880   -0.3160 C   0  0  0  0  0  0  0  0  0  0  0  0
   -0.1870   -1.0690   -0.5590 C   0  0  0  0  0  0  0  0  0  0  0  0
   -0.3040   -0.4960   -1.8420 C   0  0  0  0  0  0  0  0  0  0  0  0
   -1.3030    0.3430   -2.1920 C   0  0  0  0  0  0  0  0  0  0  0  0
   -1.4070    0.9450   -3.5710 C   0  0  0  0  0  0  0  0  0  0  0  0
   -2.2390    0.6370   -1.2310 C   0  0  0  0  0  0  0  0  0  0  0  0
   -3.2590    1.5240   -1.5840 C   0  0  0  0  0  0  0  0  0  0  0  0
   -4.1860    1.8440   -0.6290 C   0  0  0  0  0  0  0  0  0  0  0  0
   -4.1440    1.3350    0.6240 C   0  0  0  0  0  0  0  0  0  0  0  0
   -5.1600    1.7220    1.6340 C   0  0  0  0  0  0  0  0  0  0  0  0
   -3.1100    0.4320    0.9820 C   0  0  0  0  0  0  0  0  0  0  0  0
   -2.1670    0.0900    0.0510 C   0  0  0  0  0  0  0  0  0  0  0  0
   -1.1160   -0.8000    0.4180 C   0  0  0  0  0  0  0  0  0  0  0  0
   -1.1700   -1.5540    1.6860 C   0  0  1  0  0  0  0  0  0  0  0  0
    0.0510   -1.6410    2.5160 C   0  0  0  0  0  0  0  0  0  0  0  0
   -2.2100   -1.1180    2.5590 O   0  0  0  0  0  0  0  0  0  0  0  0
   -1.6810   -2.9630    1.3560 C   0  0  0  0  0  0  0  0  0  0  0  0
   -1.1850   -3.6950    0.5690 O   0  0  0  0  0  0  0  0  0  0  0  0
    2.1760    0.3660    0.4270 C   0  0  0  0  0  0  0  0  0  0  0  0
  1  2  1  0
  2  3  2  0
  2 26  1  0
  3  4  1  0
  4  5  1  0
  4  6  2  0
  6  7  1  0
  7  8  1  0
  7 26  2  0
  8  9  1  0
  9 10  2  0
  9 20  1  0
 10 11  1  0
 11 12  1  0
 11 13  2  0
 13 14  1  0
 13 19  1  0
 14 15  2  0
 15 16  1  0
 16 17  1  0
 16 18  2  0
 18 19  1  0
 19 20  2  0
 20 21  1  0
 21 22  1  1
 21 23  1  0
 21 24  1  0
 24 25  2  0
M  END
