
     RDKit          3D

 27 29  0  0  0  0  0  0  0  0999 V2000
   -1.0530    1.7810    2.0910 C   0  0  0  0  0  0  0  0  0  0  0  0
   -0.9720    0.6840    1.1080 C   0  0  0  0  0  0  0  0  0  0  0  0
    0.2110    0.4090    0.4810 C   0  0  0  0  0  0  0  0  0  0  0  0
    1.3250    1.2240    0.8280 C   0  0  0  0  0  0  0  0  0  0  0  0
    2.5820    1.3600    0.5120 C   0  0  0  0  0  0  0  0  0  0  0  0
    3.3490    2.4000    1.2010 N   0  0  0  0  0  0  0  0  0  0  0  0
    4.7250    2.5140    0.9150 C   0  0  0  0  0  0  0  0  0  0  0  0
    5.3810    3.4250    1.5230 O   0  0  0  0  0  0  0  0  0  0  0  0
    5.3810    1.6650   -0.0060 N   0  0  0  0  0  0  0  0  0  0  0  0
    4.6300    0.6650   -0.6690 C   0  0  0  0  0  0  0  0  0  0  0  0
    3.2980    0.5330   -0.4170 C   0  0  0  0  0  0  0  0  0  0  0  0
    2.4420   -0.4280   -1.1850 C   0  0  0  0  0  0  0  0  0  0  0  0
    2.6120   -1.7810   -0.5710 C   0  0  0  0  0  0  0  0  0  0  0  0
    4.1190   -1.9470   -0.3050 C   0  0  0  0  0  0  0  0  0  0  0  0
    4.9600   -1.6030   -1.4800 C   0  0  0  0  0  0  0  0  0  0  0  0
    5.4480   -0.1860   -1.5720 C   0  0  0  0  0  0  0  0  0  0  0  0
   -2.0410   -0.1110    0.7670 O   0  0  0  0  0  0  0  0  0  0  0  0
   -3.0290    0.3800   -0.0400 C   0  0  0  0  0  0  0  0  0  0  0  0
   -2.9800    1.6890   -0.5320 C   0  0  0  0  0  0  0  0  0  0  0  0
   -3.9980    2.1350   -1.3380 C   0  0  0  0  0  0  0  0  0  0  0  0
   -5.0440    1.2940   -1.6460 C   0  0  0  0  0  0  0  0  0  0  0  0
   -6.1060    1.7340   -2.4760 N   0  0  0  0  0  0  0  0  0  0  0  0
   -5.0420    0.0380   -1.1440 N   0  0  0  0  0  0  0  0  0  0  0  0
   -4.0800   -0.4510   -0.3550 C   0  0  0  0  0  0  0  0  0  0  0  0
   -4.1260   -1.8080    0.1560 C   0  0  0  0  0  0  0  0  0  0  0  0
   -4.5180   -1.9310    1.6040 C   0  0  0  0  0  0  0  0  0  0  0  0
   -4.5010   -3.3710    1.9130 N   0  0  0  0  0  0  0  0  0  0  0  0
  1  2  1  0
  2  3  2  3
  2 17  1  0
  3  4  1  0
  4  5  2  3
  5  6  1  0
  5 11  1  0
  6  7  1  0
  7  8  2  0
  7  9  1  0
  9 10  1  0
 10 11  2  0
 10 16  1  0
 11 12  1  0
 12 13  1  0
 13 14  1  0
 14 15  1  0
 15 16  1  0
 17 18  1  0
 18 19  2  0
 18 24  1  0
 19 20  1  0
 20 21  2  0
 21 22  1  0
 21 23  1  0
 23 24  2  0
 24 25  1  0
 25 26  1  0
 26 27  1  0
M  CHG  1  27   1
M  END
