
     RDKit          3D

 26 29  0  0  0  0  0  0  0  0999 V2000
   -0.4430   -1.7450    0.2040 O   0  0  0  0  0  0  0  0  0  0  0  0
   -0.3520   -0.5080   -0.0510 C   0  0  0  0  0  0  0  0  0  0  0  0
   -1.5730    0.3410    0.0690 C   0  0  0  0  0  0  0  0  0  0  0  0
   -2.7140   -0.5150    0.4940 C   0  0  0  0  0  0  0  0  0  0  0  0
   -3.9560    0.2240    0.6400 N   0  0  2  0  0  0  0  0  0  0  0  0
   -4.9440   -0.6730    1.1490 C   0  0  0  0  0  0  0  0  0  0  0  0
   -6.3480   -0.1770    1.0480 C   0  0  0  0  0  0  0  0  0  0  0  0
   -6.6280    0.0550   -0.4400 C   0  0  0  0  0  0  0  0  0  0  0  0
   -5.6790    1.1710   -0.8460 C   0  0  0  0  0  0  0  0  0  0  0  0
   -4.2600    0.7890   -0.6430 C   0  0  0  0  0  0  0  0  0  0  0  0
    0.8870    0.0320   -0.4380 N   0  0  0  0  0  0  0  0  0  0  0  0
    1.0550    1.4370   -0.7430 C   0  0  0  0  0  0  0  0  0  0  0  0
    2.0140    1.9890    0.3130 C   0  0  0  0  0  0  0  0  0  0  0  0
    3.2590    1.1890    0.1990 C   0  0  0  0  0  0  0  0  0  0  0  0
    4.4240    1.8240    0.5120 N   0  0  0  0  0  0  0  0  0  0  0  0
    5.6000    1.1850    0.4390 C   0  0  0  0  0  0  0  0  0  0  0  0
    6.8030    1.8290    0.7590 O   0  0  0  0  0  0  0  0  0  0  0  0
    5.6680   -0.1250    0.0490 C   0  0  0  0  0  0  0  0  0  0  0  0
    6.8780   -0.8030   -0.0320 C   0  0  0  0  0  0  0  0  0  0  0  0
    6.9330   -2.1250   -0.4280 C   0  0  0  0  0  0  0  0  0  0  0  0
    8.1290   -2.7500   -0.4940 F   0  0  0  0  0  0  0  0  0  0  0  0
    5.7410   -2.7520   -0.7410 C   0  0  0  0  0  0  0  0  0  0  0  0
    4.5340   -2.0860   -0.6630 C   0  0  0  0  0  0  0  0  0  0  0  0
    4.4890   -0.7730   -0.2700 C   0  0  0  0  0  0  0  0  0  0  0  0
    3.2820   -0.1310   -0.1990 C   0  0  0  0  0  0  0  0  0  0  0  0
    2.0410   -0.8320   -0.5400 C   0  0  0  0  0  0  0  0  0  0  0  0
  1  2  2  0
  2  3  1  0
  2 11  1  0
  3  4  1  0
  5  4  1  6
  5  6  1  0
  5 10  1  0
  6  7  1  0
  7  8  1  0
  8  9  1  0
  9 10  1  0
 11 12  1  0
 11 26  1  0
 12 13  1  0
 13 14  1  0
 14 15  2  0
 14 25  1  0
 15 16  1  0
 16 17  1  0
 16 18  2  0
 18 19  1  0
 18 24  1  0
 19 20  2  0
 20 21  1  0
 20 22  1  0
 22 23  2  0
 23 24  1  0
 24 25  2  0
 25 26  1  0
M  CHG  1   5   1
M  END
