
     RDKit          3D

 26 28  0  0  0  0  0  0  0  0999 V2000
   -3.0930   -2.6970    2.2720 C   0  0  0  0  0  0  0  0  0  0  0  0
   -2.1350   -2.0350    1.6370 C   0  0  0  0  0  0  0  0  0  0  0  0
   -1.3440   -2.6670    0.6380 C   0  0  0  0  0  0  0  0  0  0  0  0
   -1.2540   -2.5700   -0.6760 C   0  0  0  0  0  0  0  0  0  0  0  0
   -1.9010   -1.8100   -1.6700 C   0  0  0  0  0  0  0  0  0  0  0  0
   -2.4640   -0.6410   -1.8040 C   0  0  0  0  0  0  0  0  0  0  0  0
   -2.7290    0.5230   -0.9980 C   0  0  0  0  0  0  0  0  0  0  0  0
   -4.0810    0.8990   -0.8690 C   0  0  0  0  0  0  0  0  0  0  0  0
   -4.5180    1.9880   -0.1800 C   0  0  0  0  0  0  0  0  0  0  0  0
   -3.5770    2.7770    0.4300 C   0  0  0  0  0  0  0  0  0  0  0  0
   -4.0240    3.9950    1.2070 C   0  0  0  0  0  0  0  0  0  0  0  0
   -2.2590    2.4570    0.3340 C   0  0  0  0  0  0  0  0  0  0  0  0
   -1.7730    1.3430   -0.3650 C   0  0  0  0  0  0  0  0  0  0  0  0
   -0.4590    1.1170   -0.3980 O   0  0  0  0  0  0  0  0  0  0  0  0
    0.5090    0.2960    0.0890 C   0  0  0  0  0  0  0  0  0  0  0  0
    1.6290    0.0700   -0.6720 C   0  0  0  0  0  0  0  0  0  0  0  0
    2.6780   -0.7380   -0.2740 C   0  0  0  0  0  0  0  0  0  0  0  0
    3.8780   -0.9620   -1.1230 C   0  0  0  0  0  0  0  0  0  0  0  0
    4.9310    0.0760   -0.8230 C   0  0  1  0  0  0  0  0  0  0  0  0
    6.1200   -0.2020   -1.7130 C   0  0  0  0  0  0  0  0  0  0  0  0
    4.4020    1.4570   -1.2050 C   0  0  0  0  0  0  0  0  0  0  0  0
    2.6290   -1.3650    0.9480 C   0  0  0  0  0  0  0  0  0  0  0  0
    1.5110   -1.1480    1.7210 C   0  0  0  0  0  0  0  0  0  0  0  0
    0.4430   -0.3410    1.3390 C   0  0  0  0  0  0  0  0  0  0  0  0
   -0.6590   -0.1290    2.0960 O   0  0  0  0  0  0  0  0  0  0  0  0
   -1.9620   -0.6130    2.1260 C   0  0  0  0  0  0  0  0  0  0  0  0
  1  2  2  0
  2  3  1  0
  2 26  1  0
  3  4  2  0
  4  5  1  0
  5  6  2  0
  6  7  1  0
  7  8  2  0
  7 13  1  0
  8  9  1  0
  9 10  2  0
 10 11  1  0
 10 12  1  0
 12 13  2  0
 13 14  1  0
 14 15  1  0
 15 16  2  0
 15 24  1  0
 16 17  1  0
 17 18  1  0
 17 22  2  0
 18 19  1  0
 19 20  1  6
 19 21  1  0
 22 23  1  0
 23 24  2  0
 24 25  1  0
 25 26  1  0
M  END
