
     RDKit          3D

 13 14  0  0  0  0  0  0  0  0999 V2000
   -3.0050   -0.2720   -1.3450 C   0  0  0  0  0  0  0  0  0  0  0  0
   -2.2470    0.1300   -0.1190 C   0  0  0  0  0  0  0  0  0  0  0  0
   -2.8070    0.5650    1.0220 N   0  0  0  0  0  0  0  0  0  0  0  0
   -1.8000    0.8190    1.8670 C   0  0  0  0  0  0  0  0  0  0  0  0
   -0.5880    0.5460    1.2680 C   0  0  0  0  0  0  0  0  0  0  0  0
   -0.8740    0.1040   -0.0060 C   0  0  0  0  0  0  0  0  0  0  0  0
    0.0160   -0.3000   -1.0170 O   0  0  0  0  0  0  0  0  0  0  0  0
    1.3850   -0.2980   -0.8260 C   0  0  0  0  0  0  0  0  0  0  0  0
    2.0080    0.4930   -0.0560 N   0  0  0  0  0  0  0  0  0  0  0  0
    3.3800    0.3890    0.0420 C   0  0  0  0  0  0  0  0  0  0  0  0
    4.1960    1.3100    0.4150 O   0  0  0  0  0  0  0  0  0  0  0  0
    3.9330   -0.9480   -0.3340 C   0  0  0  0  0  0  0  0  0  0  0  0
    2.6310   -1.3660   -1.5770 S   0  0  0  0  0  0  0  0  0  0  0  0
  1  2  1  0
  2  3  1  0
  2  6  2  0
  3  4  1  0
  4  5  2  0
  5  6  1  0
  6  7  1  0
  7  8  1  0
  8  9  2  0
  8 13  1  0
  9 10  1  0
 10 11  2  0
 10 12  1  0
 12 13  1  0
M  END
