
     RDKit          3D

 13 14  0  0  0  0  0  0  0  0999 V2000
    0.7150    1.1180    2.1260 O   0  0  0  0  0  0  0  0  0  0  0  0
    0.6480    0.9640    0.8820 C   0  0  0  0  0  0  0  0  0  0  0  0
   -0.5780    1.3900    0.2530 N   0  0  0  0  0  0  0  0  0  0  0  0
   -1.6050    0.6430    0.2330 C   0  0  0  0  0  0  0  0  0  0  0  0
   -2.8380    0.7840   -0.2670 N   0  0  0  0  0  0  0  0  0  0  0  0
   -3.7260   -0.1300   -0.1600 C   0  0  0  0  0  0  0  0  0  0  0  0
   -3.3980   -1.3300    0.5060 C   0  0  0  0  0  0  0  0  0  0  0  0
   -1.7230   -1.0240    0.9570 S   0  0  0  0  0  0  0  0  0  0  0  0
    1.7380    0.3880    0.1070 C   0  0  0  0  0  0  0  0  0  0  0  0
    2.9210   -0.0320    0.6570 C   0  0  0  0  0  0  0  0  0  0  0  0
    3.7040   -0.5140   -0.3650 C   0  0  0  0  0  0  0  0  0  0  0  0
    2.9310   -0.3540   -1.5090 C   0  0  0  0  0  0  0  0  0  0  0  0
    1.7840    0.1790   -1.1830 O   0  0  0  0  0  0  0  0  0  0  0  0
  1  2  2  0
  2  3  1  0
  2  9  1  0
  3  4  2  3
  4  5  1  0
  4  8  1  0
  5  6  1  0
  6  7  2  0
  7  8  1  0
  9 10  2  0
  9 13  1  0
 10 11  1  0
 11 12  2  0
 12 13  1  0
M  END
