
     RDKit          3D

 13 14  0  0  0  0  0  0  0  0999 V2000
   -3.7190   -1.1880    0.3890 C   0  0  0  0  0  0  0  0  0  0  0  0
   -2.3880   -0.5520    0.2290 C   0  0  0  0  0  0  0  0  0  0  0  0
   -1.1750   -1.1940    0.1240 C   0  0  0  0  0  0  0  0  0  0  0  0
   -0.1820   -0.2420   -0.0120 C   0  0  0  0  0  0  0  0  0  0  0  0
    1.2480   -0.4600   -0.1530 C   0  0  0  0  0  0  0  0  0  0  0  0
    2.0380   -1.5090   -0.2010 N   0  0  0  0  0  0  0  0  0  0  0  0
    3.2860   -1.3410   -0.3360 N   0  0  0  0  0  0  0  0  0  0  0  0
    3.9110   -0.3140   -0.4360 C   0  0  0  0  0  0  0  0  0  0  0  0
    5.1900    0.1950   -0.5870 O   0  0  0  0  0  0  0  0  0  0  0  0
    2.4680    0.9200   -0.3270 S   0  0  0  0  0  0  0  0  0  0  0  0
   -0.8560    0.9670    0.0180 C   0  0  0  0  0  0  0  0  0  0  0  0
   -0.1920    2.2840   -0.0950 C   0  0  0  0  0  0  0  0  0  0  0  0
   -2.1280    0.7320    0.1590 O   0  0  0  0  0  0  0  0  0  0  0  0
  1  2  1  0
  2  3  2  0
  2 13  1  0
  3  4  1  0
  4  5  1  0
  4 11  2  0
  5  6  2  0
  5 10  1  0
  6  7  1  0
  7  8  2  0
  8  9  1  0
  8 10  1  0
 11 12  1  0
 11 13  1  0
M  END
