
     RDKit          3D

 13 14  0  0  0  0  0  0  0  0999 V2000
    2.8070   -2.1080    0.2530 C   0  0  0  0  0  0  0  0  0  0  0  0
    1.0370   -1.6860    0.2290 S   0  0  0  0  0  0  0  0  0  0  0  0
    0.9020    0.0670    0.0130 C   0  0  0  0  0  0  0  0  0  0  0  0
    1.9850    0.8780   -0.1050 N   0  0  0  0  0  0  0  0  0  0  0  0
    1.7970    2.2020   -0.2670 C   0  0  0  0  0  0  0  0  0  0  0  0
    0.5850    2.7710   -0.3190 N   0  0  0  0  0  0  0  0  0  0  0  0
   -0.4990    2.0160   -0.2080 C   0  0  0  0  0  0  0  0  0  0  0  0
   -1.8580    2.2550   -0.2160 C   0  0  0  0  0  0  0  0  0  0  0  0
   -2.4620    1.1110   -0.0640 O   0  0  0  0  0  0  0  0  0  0  0  0
   -1.5910    0.1250    0.0450 C   0  0  0  0  0  0  0  0  0  0  0  0
   -1.9820   -1.2800    0.2260 C   0  0  0  0  0  0  0  0  0  0  0  0
   -3.3650   -1.4400    0.2680 O   0  0  0  0  0  0  0  0  0  0  0  0
   -0.3430    0.6600   -0.0410 C   0  0  0  0  0  0  0  0  0  0  0  0
  1  2  1  0
  2  3  1  0
  3  4  2  0
  3 13  1  0
  4  5  1  0
  5  6  2  0
  6  7  1  0
  7  8  2  0
  7 13  1  0
  8  9  1  0
  9 10  1  0
 10 11  1  0
 10 13  2  0
 11 12  1  0
M  END
