
     RDKit          3D

 13 14  0  0  0  0  0  0  0  0999 V2000
   -1.0750    2.7250    0.8270 C   0  0  0  0  0  0  0  0  0  0  0  0
   -1.1140    1.3060    0.4090 C   0  0  0  0  0  0  0  0  0  0  0  0
   -2.2230    0.6170    0.2350 N   0  0  0  0  0  0  0  0  0  0  0  0
   -1.9700   -0.6020   -0.1310 N   0  0  0  0  0  0  0  0  0  0  0  0
   -2.9490   -1.6200   -0.4060 C   0  0  0  0  0  0  0  0  0  0  0  0
   -0.6080   -0.7200   -0.2010 C   0  0  0  0  0  0  0  0  0  0  0  0
    0.7620   -1.7860   -0.5510 S   0  0  0  0  0  0  0  0  0  0  0  0
    2.0400   -0.5780   -0.2290 C   0  0  0  0  0  0  0  0  0  0  0  0
    3.4700   -0.8170   -0.3360 C   0  0  0  0  0  0  0  0  0  0  0  0
    4.3340    0.0400   -0.1060 O   0  0  0  0  0  0  0  0  0  0  0  0
    3.8820   -2.0830   -0.7210 O   0  0  0  0  0  0  0  0  0  0  0  0
    1.3340    0.5080    0.1100 C   0  0  0  0  0  0  0  0  0  0  0  0
   -0.0200    0.4700    0.1340 C   0  0  0  0  0  0  0  0  0  0  0  0
  1  2  1  0
  2  3  2  0
  2 13  1  0
  3  4  1  0
  4  5  1  0
  4  6  1  0
  6  7  1  0
  6 13  2  0
  7  8  1  0
  8  9  1  0
  8 12  2  0
  9 10  2  0
  9 11  1  0
 12 13  1  0
M  END
