
     RDKit          3D

 21 22  0  0  0  0  0  0  0  0999 V2000
   -6.2680   -0.6970    1.1120 O   0  0  0  0  0  0  0  0  0  0  0  0
   -5.0520   -0.6770    0.8870 C   0  0  0  0  0  0  0  0  0  0  0  0
   -4.3730   -1.5390   -0.1170 C   0  0  0  0  0  0  0  0  0  0  0  0
   -3.4710   -0.6360   -0.9300 C   0  0  0  0  0  0  0  0  0  0  0  0
   -2.5080    0.0680   -0.0960 N   0  0  0  0  0  0  0  0  0  0  0  0
   -1.1740    0.1980   -0.5390 C   0  0  2  0  0  0  0  0  0  0  0  0
   -0.2460   -0.4640    0.3020 O   0  0  0  0  0  0  0  0  0  0  0  0
    0.9380   -0.0140   -0.2810 C   0  0  2  0  0  0  0  0  0  0  0  0
    2.1630   -0.4770    0.4860 C   0  0  0  0  0  0  0  0  0  0  0  0
    3.2510    0.0090   -0.1560 O   0  0  0  0  0  0  0  0  0  0  0  0
    4.6690   -0.4360    0.5980 P   0  0  0  0  0  0  0  0  0  0  0  0
    4.6710   -1.5570    1.8440 O   0  0  0  0  0  0  0  0  0  0  0  0
    4.8750   -1.5560   -0.4110 O   0  0  0  0  0  0  0  0  0  0  0  0
    6.0190    0.3940    0.3140 O   0  0  0  0  0  0  0  0  0  0  0  0
    0.7500    1.4870   -0.1810 C   0  0  1  0  0  0  0  0  0  0  0  0
    1.6510    2.1910   -0.9630 O   0  0  0  0  0  0  0  0  0  0  0  0
   -0.6740    1.6050   -0.6840 C   0  0  1  0  0  0  0  0  0  0  0  0
   -0.5970    2.0010   -2.0220 O   0  0  0  0  0  0  0  0  0  0  0  0
   -2.9330    0.6200    1.1650 C   0  0  0  0  0  0  0  0  0  0  0  0
   -2.1650    1.4040    1.7760 O   0  0  0  0  0  0  0  0  0  0  0  0
   -4.2160    0.2190    1.6210 N   0  0  0  0  0  0  0  0  0  0  0  0
  1  2  2  0
  2  3  1  0
  2 21  1  0
  3  4  1  0
  4  5  1  0
  6  5  1  1
  5 19  1  0
  6  7  1  0
  6 17  1  0
  7  8  1  0
  8  9  1  1
  8 15  1  0
  9 10  1  0
 10 11  1  0
 11 12  1  0
 11 13  1  0
 11 14  1  0
 15 16  1  6
 15 17  1  0
 17 18  1  6
 19 20  2  0
 19 21  1  0
M  END
