
     RDKit          3D

 13 13  0  0  0  0  0  0  0  0999 V2000
    0.2680    1.7570   -0.6790 O   0  0  0  0  0  0  0  0  0  0  0  0
    0.2590    0.6950   -0.0730 C   0  0  0  0  0  0  0  0  0  0  0  0
    1.3880    0.3870    0.8210 C   0  0  0  0  0  0  0  0  0  0  0  0
    2.6420    0.0140    0.0150 C   0  0  0  0  0  0  0  0  0  0  0  0
    3.6310   -0.2500    0.9270 O   0  0  0  0  0  0  0  0  0  0  0  0
    4.7740   -0.5890    0.3810 O   0  0  0  0  0  0  0  0  0  0  0  0
   -0.8420   -0.2860   -0.2050 C   0  0  2  0  0  0  0  0  0  0  0  0
   -1.9110    0.1820   -1.1750 C   0  0  0  0  0  0  0  0  0  0  0  0
   -3.2610    0.0240   -0.4910 C   0  0  0  0  0  0  0  0  0  0  0  0
   -3.3430   -1.2710   -0.0170 O   0  0  0  0  0  0  0  0  0  0  0  0
   -2.6340   -1.3420    1.1430 O   0  0  0  0  0  0  0  0  0  0  0  0
   -1.4430   -0.5980    1.1260 C   0  0  0  0  0  0  0  0  0  0  0  0
   -0.9670   -0.2470    2.2240 O   0  0  0  0  0  0  0  0  0  0  0  0
  1  2  2  0
  2  3  1  0
  7  2  1  1
  3  4  1  0
  4  5  1  0
  5  6  1  0
  7  8  1  0
  7 12  1  0
  8  9  1  0
  9 10  1  0
 10 11  1  0
 11 12  1  0
 12 13  2  0
M  END
