
     RDKit          3D

 13 13  0  0  0  0  0  0  0  0999 V2000
    2.8550    0.9260   -0.9800 O   0  0  0  0  0  0  0  0  0  0  0  0
    3.4580    0.3310   -0.0700 C   0  0  0  0  0  0  0  0  0  0  0  0
    4.8420    0.3510   -0.0360 O   0  0  0  0  0  0  0  0  0  0  0  0
    2.7240   -0.3620    0.9270 N   0  0  0  0  0  0  0  0  0  0  0  0
    1.2840   -0.4400    0.9740 C   0  0  0  0  0  0  0  0  0  0  0  0
    0.7240   -1.0920   -0.2570 C   0  0  0  0  0  0  0  0  0  0  0  0
   -0.6290   -1.2030   -0.2880 O   0  0  0  0  0  0  0  0  0  0  0  0
   -1.3540   -0.0610   -0.2280 C   0  0  2  0  0  0  0  0  0  0  0  0
   -2.2350   -0.1560    1.0270 C   0  0  0  0  0  0  0  0  0  0  0  0
   -2.8050    1.0550    1.3290 O   0  0  0  0  0  0  0  0  0  0  0  0
   -2.9100    1.7300    0.1830 O   0  0  0  0  0  0  0  0  0  0  0  0
   -3.2950    0.8960   -0.8570 C   0  0  0  0  0  0  0  0  0  0  0  0
   -2.2490    0.0900   -1.3050 O   0  0  0  0  0  0  0  0  0  0  0  0
  1  2  2  0
  2  3  1  0
  2  4  1  0
  4  5  1  0
  5  6  1  0
  6  7  1  0
  8  7  1  6
  8  9  1  0
  8 13  1  0
  9 10  1  0
 10 11  1  0
 11 12  1  0
 12 13  1  0
M  END
