
     RDKit          3D

 13 13  0  0  0  0  0  0  0  0999 V2000
    5.1780   -0.1020   -0.3470 O   0  0  0  0  0  0  0  0  0  0  0  0
    4.3940    0.6360    0.4590 O   0  0  0  0  0  0  0  0  0  0  0  0
    3.1880    0.9150   -0.1390 C   0  0  0  0  0  0  0  0  0  0  0  0
    2.4080   -0.4410   -0.1150 C   0  0  0  0  0  0  0  0  0  0  0  0
    1.1740   -0.1680   -0.6120 O   0  0  0  0  0  0  0  0  0  0  0  0
    0.2560   -0.5030    0.4380 C   0  0  0  0  0  0  0  0  0  0  0  0
   -0.6620    0.6350    0.6110 C   0  0  1  0  0  0  0  0  0  0  0  0
   -1.3290    1.0070   -0.5260 O   0  0  0  0  0  0  0  0  0  0  0  0
   -1.9230   -0.0370   -1.1600 C   0  0  0  0  0  0  0  0  0  0  0  0
   -3.0710   -0.6170   -0.3690 C   0  0  0  0  0  0  0  0  0  0  0  0
   -3.6180    0.3480    0.6570 C   0  0  0  0  0  0  0  0  0  0  0  0
   -2.6520    0.9370    1.4540 O   0  0  0  0  0  0  0  0  0  0  0  0
   -1.6100    0.1820    1.5990 O   0  0  0  0  0  0  0  0  0  0  0  0
  1  2  1  0
  2  3  1  0
  3  4  1  0
  4  5  1  0
  5  6  1  0
  7  6  1  6
  7  8  1  0
  7 13  1  0
  8  9  1  0
  9 10  1  0
 10 11  1  0
 11 12  1  0
 12 13  1  0
M  END
