
     RDKit          3D

 21 22  0  0  0  0  0  0  0  0999 V2000
   -5.9480    0.0030    1.6570 N   0  0  0  0  0  0  0  0  0  0  0  0
   -4.6740   -0.2610    1.0960 C   0  0  0  0  0  0  0  0  0  0  0  0
   -4.5450   -0.9730   -0.1010 C   0  0  0  0  0  0  0  0  0  0  0  0
   -3.2880   -1.2090   -0.6140 C   0  0  0  0  0  0  0  0  0  0  0  0
   -2.1680   -0.7800   -0.0060 N   0  0  0  0  0  0  0  0  0  0  0  0
   -0.8860   -1.0360   -0.5550 C   0  0  2  0  0  0  0  0  0  0  0  0
    0.1570   -0.9100    0.3290 O   0  0  0  0  0  0  0  0  0  0  0  0
    1.3140   -0.8340   -0.4200 C   0  0  2  0  0  0  0  0  0  0  0  0
    2.3300    0.1240    0.1970 C   0  0  0  0  0  0  0  0  0  0  0  0
    3.4370    0.1420   -0.5980 O   0  0  0  0  0  0  0  0  0  0  0  0
    4.5850    1.1420   -0.0160 P   0  0  0  0  0  0  0  0  0  0  0  0
    6.2100    0.7650   -0.2950 O   0  0  0  0  0  0  0  0  0  0  0  0
    4.6630    0.3770    1.3030 O   0  0  0  0  0  0  0  0  0  0  0  0
    4.1920    2.5750    0.6630 O   0  0  0  0  0  0  0  0  0  0  0  0
    0.9620   -0.2940   -1.7710 C   0  0  1  0  0  0  0  0  0  0  0  0
    1.0940   -1.2560   -2.7800 O   0  0  0  0  0  0  0  0  0  0  0  0
   -0.5220    0.0000   -1.6170 C   0  0  1  0  0  0  0  0  0  0  0  0
   -1.2120   -0.2330   -2.8020 O   0  0  0  0  0  0  0  0  0  0  0  0
   -2.3310   -0.1020    1.1370 C   0  0  0  0  0  0  0  0  0  0  0  0
   -1.2950    0.3070    1.7210 O   0  0  0  0  0  0  0  0  0  0  0  0
   -3.5330    0.1520    1.6750 N   0  0  0  0  0  0  0  0  0  0  0  0
  1  2  1  0
  2  3  1  0
  2 21  2  0
  3  4  2  0
  4  5  1  0
  6  5  1  1
  5 19  1  0
  6  7  1  0
  6 17  1  0
  7  8  1  0
  8  9  1  1
  8 15  1  0
  9 10  1  0
 10 11  1  0
 11 12  1  0
 11 13  1  0
 11 14  1  0
 15 16  1  6
 15 17  1  0
 17 18  1  6
 19 20  2  0
 19 21  1  0
M  CHG  1  21   1
M  END
