
     RDKit          3D

 10  9  0  0  0  0  0  0  0  0999 V2000
    3.4550    0.3770   -0.0690 C   0  0  0  0  0  0  0  0  0  0  0  0
    2.8670   -0.8430   -0.3300 O   0  0  0  0  0  0  0  0  0  0  0  0
    1.6390   -0.8400    0.2420 O   0  0  0  0  0  0  0  0  0  0  0  0
    0.5130   -0.4260   -0.4510 C   0  0  0  0  0  0  0  0  0  0  0  0
    0.6750   -0.0520   -1.6360 O   0  0  0  0  0  0  0  0  0  0  0  0
   -0.8270   -0.3990    0.1040 C   0  0  0  0  0  0  0  0  0  0  0  0
   -1.0620   -0.7610    1.2880 O   0  0  0  0  0  0  0  0  0  0  0  0
   -1.9620    0.0500   -0.6900 C   0  0  0  0  0  0  0  0  0  0  0  0
   -3.3400    0.1030   -0.1910 C   0  0  0  0  0  0  0  0  0  0  0  0
   -1.7550    0.4230   -1.8950 O   0  0  0  0  0  0  0  0  0  0  0  0
  1  2  1  0
  2  3  1  0
  3  4  1  0
  4  5  2  0
  4  6  1  0
  6  7  2  0
  6  8  1  0
  8  9  1  0
  8 10  2  0
M  END
