
     RDKit          3D

 10  9  0  0  0  0  0  0  0  0999 V2000
   -2.3610   -0.7300    0.8420 C   0  0  0  0  0  0  0  0  0  0  0  0
   -1.2960   -0.2230    0.2440 C   0  0  0  0  0  0  0  0  0  0  0  0
   -1.4760    0.9970   -0.5790 C   0  0  0  0  0  0  0  0  0  0  0  0
    0.0050   -0.8640    0.4070 C   0  0  0  0  0  0  0  0  0  0  0  0
    0.0700   -1.8930    1.1210 O   0  0  0  0  0  0  0  0  0  0  0  0
    1.2070   -0.3420   -0.2310 C   0  0  0  0  0  0  0  0  0  0  0  0
    1.1680    0.6980   -0.9580 O   0  0  0  0  0  0  0  0  0  0  0  0
    2.4040   -1.0020   -0.0320 O   0  0  0  0  0  0  0  0  0  0  0  0
    3.5460   -0.6080   -0.5650 O   0  0  0  0  0  0  0  0  0  0  0  0
    3.5180    0.5750   -1.0990 O   0  0  0  0  0  0  0  0  0  0  0  0
  1  2  2  0
  2  3  1  0
  2  4  1  0
  4  5  2  0
  4  6  1  0
  6  7  2  0
  6  8  1  0
  8  9  1  0
  9 10  1  0
M  END
