
     RDKit          3D

  9  8  0  0  0  0  0  0  0  0999 V2000
   -0.6190   -2.4910   -0.0840 C   0  0  0  0  0  0  0  0  0  0  0  0
   -1.0060   -1.2510    0.1180 C   0  0  0  0  0  0  0  0  0  0  0  0
   -2.2520   -0.9850    0.8350 C   0  0  0  0  0  0  0  0  0  0  0  0
   -0.1410   -0.1700   -0.4040 C   0  0  0  0  0  0  0  0  0  0  0  0
    0.9250   -0.4250   -1.0180 O   0  0  0  0  0  0  0  0  0  0  0  0
   -0.4820    1.1610   -0.2300 O   0  0  0  0  0  0  0  0  0  0  0  0
    0.2500    2.1820   -0.6740 O   0  0  0  0  0  0  0  0  0  0  0  0
    1.4260    1.7970   -1.1170 O   0  0  0  0  0  0  0  0  0  0  0  0
    2.4460    2.0990   -0.2180 C   0  0  0  0  0  0  0  0  0  0  0  0
  1  2  2  0
  2  3  1  0
  2  4  1  0
  4  5  2  0
  4  6  1  0
  6  7  1  0
  7  8  1  0
  8  9  1  0
M  END
