
     RDKit          3D

 16 15  0  0  0  0  0  0  0  0999 V2000
   -3.8660   -1.7930   -0.0420 C   0  0  0  0  0  0  0  0  0  0  0  0
   -3.4960   -0.2980    0.1300 C   0  0  0  0  0  0  0  0  0  0  0  0
   -2.4370   -0.2670   -0.8790 O   0  0  0  0  0  0  0  0  0  0  0  0
   -1.0090   -0.0800   -0.0420 P   0  0  0  0  0  0  0  0  0  0  0  0
   -0.8650   -0.8210    1.4640 O   0  0  0  0  0  0  0  0  0  0  0  0
    0.4220    0.8020   -0.7020 C   0  0  2  0  0  0  0  0  0  0  0  0
    1.3630    0.0100   -1.2000 O   0  0  0  0  0  0  0  0  0  0  0  0
    1.9930   -0.8540   -0.5680 O   0  0  0  0  0  0  0  0  0  0  0  0
    2.3610   -1.9630   -1.3510 C   0  0  0  0  0  0  0  0  0  0  0  0
    3.2370   -2.7990   -0.4500 C   0  0  0  0  0  0  0  0  0  0  0  0
    4.4260   -2.7950   -0.6930 O   0  0  0  0  0  0  0  0  0  0  0  0
    0.8360    1.7430    0.4800 C   0  0  2  0  0  0  0  0  0  0  0  0
    1.9610    2.6340    0.1250 C   0  0  0  0  0  0  0  0  0  0  0  0
    1.1420    1.0210    1.5990 O   0  0  0  0  0  0  0  0  0  0  0  0
   -0.4120    2.5770    0.6490 C   0  0  0  0  0  0  0  0  0  0  0  0
   -1.1010    2.6270    1.6120 O   0  0  0  0  0  0  0  0  0  0  0  0
  1  2  1  0
  2  3  1  0
  3  4  1  0
  4  5  1  0
  4  6  1  0
  6  7  1  1
  6 12  1  0
  7  8  1  0
  8  9  1  0
  9 10  1  0
 10 11  2  0
 12 13  1  6
 12 14  1  0
 12 15  1  0
 15 16  2  0
M  END
