
     RDKit          3D

 15 14  0  0  0  0  0  0  0  0999 V2000
   -2.7810    1.2680   -1.3400 C   0  0  0  0  0  0  0  0  0  0  0  0
   -2.2280    0.2150   -0.3290 C   0  0  1  0  0  0  0  0  0  0  0  0
   -2.6990   -1.1130   -0.8090 C   0  0  0  0  0  0  0  0  0  0  0  0
   -0.7710    0.4380   -0.3230 C   0  0  0  0  0  0  0  0  0  0  0  0
    0.1180   -0.4140    0.4940 C   0  0  1  0  0  0  0  0  0  0  0  0
    1.4230    0.0980    0.2380 O   0  0  0  0  0  0  0  0  0  0  0  0
    2.2270   -0.8740   -0.3370 C   0  0  0  0  0  0  0  0  0  0  0  0
    3.5820   -0.2350   -0.5690 C   0  0  0  0  0  0  0  0  0  0  0  0
    4.0800    0.1770    0.6630 O   0  0  0  0  0  0  0  0  0  0  0  0
    5.2480    0.7430    0.5780 O   0  0  0  0  0  0  0  0  0  0  0  0
   -0.0670   -0.2740    1.9360 C   0  0  0  0  0  0  0  0  0  0  0  0
    0.7630    0.3670    2.6720 O   0  0  0  0  0  0  0  0  0  0  0  0
   -1.1300   -0.8110    2.6360 O   0  0  0  0  0  0  0  0  0  0  0  0
   -3.0450    0.7230    1.2770 P   0  0  0  0  0  0  0  0  0  0  0  0
   -2.7990    2.1740    1.7790 O   0  0  0  0  0  0  0  0  0  0  0  0
  2  1  1  6
  2  3  1  0
  2  4  1  0
  2 14  1  0
  5  4  1  6
  5  6  1  0
  5 11  1  0
  6  7  1  0
  7  8  1  0
  8  9  1  0
  9 10  1  0
 11 12  2  0
 11 13  1  0
 14 15  2  0
M  END
