
     RDKit          3D

 23 25  0  0  0  0  0  0  0  0999 V2000
   -5.4290    1.3350    1.8760 N   0  0  0  0  0  0  0  0  0  0  0  0
   -4.1170    1.3330    1.3400 C   0  0  0  0  0  0  0  0  0  0  0  0
   -3.4930    2.4230    0.9160 N   0  0  0  0  0  0  0  0  0  0  0  0
   -2.2460    2.3650    0.4150 C   0  0  0  0  0  0  0  0  0  0  0  0
   -1.5980    1.1890    0.3320 N   0  0  0  0  0  0  0  0  0  0  0  0
   -2.1690    0.0280    0.7450 C   0  0  0  0  0  0  0  0  0  0  0  0
   -3.4500    0.1230    1.2540 C   0  0  0  0  0  0  0  0  0  0  0  0
   -3.7890   -1.1440    1.5890 N   0  0  0  0  0  0  0  0  0  0  0  0
   -2.7580   -1.9600    1.2940 C   0  0  0  0  0  0  0  0  0  0  0  0
   -1.7590   -1.2550    0.7760 N   0  0  0  0  0  0  0  0  0  0  0  0
   -0.4760   -1.7660    0.3310 C   0  0  2  0  0  0  0  0  0  0  0  0
    0.5440   -0.8630    0.5110 O   0  0  0  0  0  0  0  0  0  0  0  0
    1.4600   -1.0630   -0.5190 C   0  0  2  0  0  0  0  0  0  0  0  0
    2.3740    0.1240   -0.6890 C   0  0  0  0  0  0  0  0  0  0  0  0
    3.0610    0.3290    0.4640 O   0  0  0  0  0  0  0  0  0  0  0  0
    4.1200    1.5660    0.5250 P   0  0  0  0  0  0  0  0  0  0  0  0
    3.8730    2.9920   -0.3240 O   0  0  0  0  0  0  0  0  0  0  0  0
    5.5780    1.3880    1.2770 O   0  0  0  0  0  0  0  0  0  0  0  0
    3.4760    2.1970    1.7540 O   0  0  0  0  0  0  0  0  0  0  0  0
    0.5080   -1.1720   -1.7170 C   0  0  1  0  0  0  0  0  0  0  0  0
    1.1620   -1.6890   -2.8230 O   0  0  0  0  0  0  0  0  0  0  0  0
   -0.5080   -2.1330   -1.1350 C   0  0  1  0  0  0  0  0  0  0  0  0
   -0.0080   -3.4210   -1.3080 O   0  0  0  0  0  0  0  0  0  0  0  0
  1  2  1  0
  2  3  2  0
  2  7  1  0
  3  4  1  0
  4  5  2  0
  5  6  1  0
  6  7  2  0
  6 10  1  0
  7  8  1  0
  8  9  2  0
  9 10  1  0
 11 10  1  6
 11 12  1  0
 11 22  1  0
 12 13  1  0
 13 14  1  6
 13 20  1  0
 14 15  1  0
 15 16  1  0
 16 17  1  0
 16 18  1  0
 16 19  1  0
 20 21  1  6
 20 22  1  0
 22 23  1  1
M  END
