
     RDKit          3D

 16 15  0  0  0  0  0  0  0  0999 V2000
   -3.4170   -0.7250   -1.7830 C   0  0  0  0  0  0  0  0  0  0  0  0
   -2.1270   -0.5100   -2.2570 O   0  0  0  0  0  0  0  0  0  0  0  0
   -1.4720    0.8820   -1.5010 P   0  0  0  0  0  0  0  0  0  0  0  0
   -0.3450    1.7400   -2.4650 O   0  0  0  0  0  0  0  0  0  0  0  0
   -0.6190    0.3610    0.1170 C   0  0  2  0  0  0  0  0  0  0  0  0
    0.3670    1.3180    0.3030 O   0  0  0  0  0  0  0  0  0  0  0  0
   -0.1100    2.2340    1.0770 O   0  0  0  0  0  0  0  0  0  0  0  0
    0.5640    2.5260    2.2250 C   0  0  0  0  0  0  0  0  0  0  0  0
   -0.1740    3.5610    2.8590 O   0  0  0  0  0  0  0  0  0  0  0  0
   -0.0430   -0.9790   -0.0770 C   0  0  2  0  0  0  0  0  0  0  0  0
    0.6800   -1.0620   -1.4290 C   0  0  0  0  0  0  0  0  0  0  0  0
   -1.1700   -1.8530   -0.2350 O   0  0  0  0  0  0  0  0  0  0  0  0
    0.7820   -1.5860    0.9700 C   0  0  0  0  0  0  0  0  0  0  0  0
    2.0230   -0.9550    1.4300 C   0  0  0  0  0  0  0  0  0  0  0  0
    3.0650   -0.7700    0.3930 C   0  0  0  0  0  0  0  0  0  0  0  0
    3.2040    0.2340   -0.2720 O   0  0  0  0  0  0  0  0  0  0  0  0
  1  2  1  0
  2  3  1  0
  3  4  1  0
  3  5  1  0
  5  6  1  6
  5 10  1  0
  6  7  1  0
  7  8  1  0
  8  9  1  0
 10 11  1  6
 10 12  1  0
 10 13  1  0
 13 14  1  0
 14 15  1  0
 15 16  2  0
M  END
