
     RDKit          3D

 16 16  0  0  0  0  0  0  0  0999 V2000
   -3.4610   -0.8280   -0.3150 C   0  0  0  0  0  0  0  0  0  0  0  0
   -2.3340   -0.4020    0.3600 O   0  0  0  0  0  0  0  0  0  0  0  0
   -1.6300    0.3460   -0.4630 O   0  0  0  0  0  0  0  0  0  0  0  0
   -0.4220    0.6640    0.1540 C   0  0  1  0  0  0  0  0  0  0  0  0
   -0.6440    1.4110    1.4230 C   0  0  0  0  0  0  0  0  0  0  0  0
    0.3740    1.7570    2.0760 O   0  0  0  0  0  0  0  0  0  0  0  0
   -1.9200    1.7170    1.8730 O   0  0  0  0  0  0  0  0  0  0  0  0
    0.4140   -0.5650    0.4200 C   0  0  0  0  0  0  0  0  0  0  0  0
    1.6130   -0.4670   -0.4800 C   0  0  1  0  0  0  0  0  0  0  0  0
    2.8430   -1.1010    0.1190 C   0  0  0  0  0  0  0  0  0  0  0  0
    1.2780   -1.1990   -2.1580 P   0  0  0  0  0  0  0  0  0  0  0  0
    2.3810   -0.9810   -3.2500 O   0  0  0  0  0  0  0  0  0  0  0  0
    1.7580    0.9980   -0.6540 C   0  0  0  0  0  0  0  0  0  0  0  0
    2.8140    1.7090   -0.7350 O   0  0  0  0  0  0  0  0  0  0  0  0
    0.4070    1.5220   -0.7220 C   0  0  0  0  0  0  0  0  0  0  0  0
   -0.0200    2.5110   -1.3830 O   0  0  0  0  0  0  0  0  0  0  0  0
  1  2  1  0
  2  3  1  0
  4  3  1  6
  4  5  1  0
  4  8  1  0
  4 15  1  0
  5  6  2  0
  5  7  1  0
  8  9  1  0
  9 10  1  1
  9 11  1  0
  9 13  1  0
 11 12  2  0
 13 14  2  0
 13 15  1  0
 15 16  2  0
M  END
