
     RDKit          3D

 24 26  0  0  0  0  0  0  0  0999 V2000
    5.7650    0.0910    1.4390 N   0  0  0  0  0  0  0  0  0  0  0  0
    4.8590    0.6410    0.4920 C   0  0  0  0  0  0  0  0  0  0  0  0
    3.6220    0.1490    0.3290 N   0  0  0  0  0  0  0  0  0  0  0  0
    2.7310    0.6360   -0.5520 C   0  0  0  0  0  0  0  0  0  0  0  0
    3.1170    1.7070   -1.3350 C   0  0  0  0  0  0  0  0  0  0  0  0
    2.0880    2.0260   -2.1310 N   0  0  0  0  0  0  0  0  0  0  0  0
    1.0910    1.1750   -1.8510 C   0  0  0  0  0  0  0  0  0  0  0  0
    1.4680    0.3230   -0.8910 N   0  0  0  0  0  0  0  0  0  0  0  0
    0.6970   -0.7320   -0.3130 C   0  0  2  0  0  0  0  0  0  0  0  0
   -0.3060   -1.2080   -1.1080 O   0  0  0  0  0  0  0  0  0  0  0  0
   -1.3850   -1.5540   -0.3440 C   0  0  2  0  0  0  0  0  0  0  0  0
   -2.5330   -0.6140   -0.7330 C   0  0  0  0  0  0  0  0  0  0  0  0
   -3.6370   -0.9280    0.0120 O   0  0  0  0  0  0  0  0  0  0  0  0
   -4.9920   -0.0870   -0.2000 P   0  0  0  0  0  0  0  0  0  0  0  0
   -5.9180   -1.2910   -0.1040 O   0  0  0  0  0  0  0  0  0  0  0  0
   -5.5380    0.3120   -1.7100 O   0  0  0  0  0  0  0  0  0  0  0  0
   -5.7810    0.6100    1.1340 O   0  0  0  0  0  0  0  0  0  0  0  0
   -1.0550   -1.3100    1.0990 C   0  0  1  0  0  0  0  0  0  0  0  0
   -0.4240   -2.4410    1.6190 O   0  0  0  0  0  0  0  0  0  0  0  0
    0.0280   -0.2310    0.9550 C   0  0  1  0  0  0  0  0  0  0  0  0
    0.8640   -0.1900    2.0360 O   0  0  0  0  0  0  0  0  0  0  0  0
    4.3830    2.2220   -1.1780 C   0  0  0  0  0  0  0  0  0  0  0  0
    4.7270    3.2060   -1.9030 O   0  0  0  0  0  0  0  0  0  0  0  0
    5.2290    1.6920   -0.2800 N   0  0  0  0  0  0  0  0  0  0  0  0
  1  2  1  0
  2  3  1  0
  2 24  2  0
  3  4  1  0
  4  5  2  0
  4  8  1  0
  5  6  1  0
  5 22  1  0
  6  7  2  0
  7  8  1  0
  9  8  1  6
  9 10  1  0
  9 20  1  0
 10 11  1  0
 11 12  1  6
 11 18  1  0
 12 13  1  0
 13 14  1  0
 14 15  1  0
 14 16  1  0
 14 17  1  0
 18 19  1  6
 18 20  1  0
 20 21  1  1
 22 23  2  0
 22 24  1  0
M  CHG  1  24   1
M  END
