
     RDKit          3D

  9  8  0  0  0  0  0  0  0  0999 V2000
   -3.0210    0.7580    1.3590 O   0  0  0  0  0  0  0  0  0  0  0  0
   -2.5090    1.0580    0.2510 C   0  0  0  0  0  0  0  0  0  0  0  0
   -1.4610    0.3200   -0.2410 O   0  0  0  0  0  0  0  0  0  0  0  0
   -0.9280   -0.7760    0.4570 C   0  0  0  0  0  0  0  0  0  0  0  0
    0.1230   -1.2870   -0.3370 O   0  0  0  0  0  0  0  0  0  0  0  0
    1.0000   -0.2700   -0.4610 O   0  0  0  0  0  0  0  0  0  0  0  0
    2.2540   -0.2680    0.0900 C   0  0  0  0  0  0  0  0  0  0  0  0
    2.5990   -1.2740    0.7460 O   0  0  0  0  0  0  0  0  0  0  0  0
    3.1650    0.7660   -0.0260 O   0  0  0  0  0  0  0  0  0  0  0  0
  1  2  2  0
  2  3  1  0
  3  4  1  0
  4  5  1  0
  5  6  1  0
  6  7  1  0
  7  8  2  0
  7  9  1  0
M  END
