
     RDKit          3D

 10 10  0  0  0  0  0  0  0  0999 V2000
    4.0160    0.5550   -0.0760 O   0  0  0  0  0  0  0  0  0  0  0  0
    2.8410    0.0440   -0.3930 O   0  0  0  0  0  0  0  0  0  0  0  0
    1.9920    0.4200    0.5100 O   0  0  0  0  0  0  0  0  0  0  0  0
    0.6530    0.2860    0.0910 C   0  0  1  0  0  0  0  0  0  0  0  0
   -0.0240   -0.7650    0.9450 C   0  0  0  0  0  0  0  0  0  0  0  0
   -1.0310   -1.4350    0.2820 O   0  0  0  0  0  0  0  0  0  0  0  0
   -2.0970   -0.6660   -0.0830 C   0  0  0  0  0  0  0  0  0  0  0  0
   -1.7220    0.5970   -0.8240 C   0  0  0  0  0  0  0  0  0  0  0  0
   -1.2100    1.5500    0.0230 O   0  0  0  0  0  0  0  0  0  0  0  0
    0.0680    1.5190    0.1830 O   0  0  0  0  0  0  0  0  0  0  0  0
  1  2  1  0
  2  3  1  0
  4  3  1  1
  4  5  1  0
  4 10  1  0
  5  6  1  0
  6  7  1  0
  7  8  1  0
  8  9  1  0
  9 10  1  0
M  END
