
     RDKit          3D

 10  9  0  0  0  0  0  0  0  0999 V2000
    3.6910   -0.1810   -0.6680 O   0  0  0  0  0  0  0  0  0  0  0  0
    3.0770    0.9500   -0.1240 C   0  0  0  0  0  0  0  0  0  0  0  0
    1.5890    0.6870    0.0710 C   0  0  0  0  0  0  0  0  0  0  0  0
    1.4440   -0.3900    0.9360 O   0  0  0  0  0  0  0  0  0  0  0  0
    0.2010   -0.7050    1.1770 O   0  0  0  0  0  0  0  0  0  0  0  0
   -0.6740   -0.3750    0.1570 C   0  0  0  0  0  0  0  0  0  0  0  0
   -2.3730   -0.9030    0.6950 P   0  0  0  0  0  0  0  0  0  0  0  0
   -3.0460   -2.0580   -0.4020 O   0  0  0  0  0  0  0  0  0  0  0  0
   -3.4080    0.4530    0.9440 O   0  0  0  0  0  0  0  0  0  0  0  0
   -4.4450    0.4580    0.1640 O   0  0  0  0  0  0  0  0  0  0  0  0
  1  2  1  0
  2  3  1  0
  3  4  1  0
  4  5  1  0
  5  6  1  0
  6  7  1  0
  7  8  1  0
  7  9  1  0
  9 10  1  0
M  END
