
     RDKit          3D

 21 22  0  0  0  0  0  0  0  0999 V2000
   -5.4250    1.2290    1.4790 C   0  0  0  0  0  0  0  0  0  0  0  0
   -4.0970    1.5680    1.1080 O   0  0  0  0  0  0  0  0  0  0  0  0
   -3.1510    0.5740    0.8200 C   0  0  0  0  0  0  0  0  0  0  0  0
   -3.5480   -0.5750    0.9110 O   0  0  0  0  0  0  0  0  0  0  0  0
   -1.8080    0.9560    0.4440 C   0  0  0  0  0  0  0  0  0  0  0  0
   -1.4080    2.2510    0.3530 O   0  0  0  0  0  0  0  0  0  0  0  0
   -0.1960    2.3400    0.0100 N   0  0  0  0  0  0  0  0  0  0  0  0
    0.3270    1.1160   -0.1600 C   0  0  0  0  0  0  0  0  0  0  0  0
    1.6370    0.7560   -0.5390 N   0  0  0  0  0  0  0  0  0  0  0  0
    2.5800    0.4500    0.2710 C   0  0  0  0  0  0  0  0  0  0  0  0
    3.9010    0.0960   -0.2990 C   0  0  0  0  0  0  0  0  0  0  0  0
    4.5310    1.2870   -0.7160 O   0  0  0  0  0  0  0  0  0  0  0  0
    5.7080    1.0490   -1.2330 O   0  0  0  0  0  0  0  0  0  0  0  0
    6.3060    2.2000   -1.4150 O   0  0  0  0  0  0  0  0  0  0  0  0
   -0.7110    0.2100    0.1200 C   0  0  0  0  0  0  0  0  0  0  0  0
   -0.5940   -1.2610    0.0630 C   0  0  0  0  0  0  0  0  0  0  0  0
    0.5600   -1.7930   -0.2760 N   0  0  0  0  0  0  0  0  0  0  0  0
    0.5200   -3.1870   -0.2860 C   0  0  0  0  0  0  0  0  0  0  0  0
    1.4190   -4.0240   -0.5570 O   0  0  0  0  0  0  0  0  0  0  0  0
   -0.7490   -3.5480    0.0710 O   0  0  0  0  0  0  0  0  0  0  0  0
   -1.4860   -2.3640    0.3060 C   0  0  0  0  0  0  0  0  0  0  0  0
  1  2  1  0
  2  3  1  0
  3  4  2  0
  3  5  1  0
  5  6  1  0
  5 15  2  0
  6  7  1  0
  7  8  2  0
  8  9  1  0
  8 15  1  0
  9 10  2  3
 10 11  1  0
 11 12  1  0
 12 13  1  0
 13 14  1  0
 15 16  1  0
 16 17  2  0
 16 21  1  0
 17 18  1  0
 18 19  2  0
 18 20  1  0
 20 21  1  0
M  END
