
     RDKit          3D

 24 28  0  0  0  0  0  0  0  0999 V2000
   -6.6010    0.1070   -1.4060 O   0  0  0  0  0  0  0  0  0  0  0  0
   -5.5860    0.4640   -0.7680 C   0  0  0  0  0  0  0  0  0  0  0  0
   -5.4120    1.7020   -0.1000 N   0  0  0  0  0  0  0  0  0  0  0  0
   -4.1210    1.6590    0.4760 C   0  0  0  0  0  0  0  0  0  0  0  0
   -3.5700    2.5750    1.1660 O   0  0  0  0  0  0  0  0  0  0  0  0
   -3.5080    0.3650    0.1460 C   0  0  0  0  0  0  0  0  0  0  0  0
   -4.3920   -0.3740   -0.6130 C   0  0  0  0  0  0  0  0  0  0  0  0
   -4.0710   -1.6510   -1.0700 C   0  0  0  0  0  0  0  0  0  0  0  0
   -2.8370   -2.1670   -0.7440 C   0  0  0  0  0  0  0  0  0  0  0  0
   -1.9710   -1.4130    0.0140 C   0  0  0  0  0  0  0  0  0  0  0  0
   -2.2850   -0.1480    0.4680 C   0  0  0  0  0  0  0  0  0  0  0  0
   -1.2520    0.5500    1.2750 C   0  0  0  0  0  0  0  0  0  0  0  0
    0.0470    0.3780    0.4740 C   0  0  0  0  0  0  0  0  0  0  0  0
    0.4030   -0.9870    0.2880 N   0  0  0  0  0  0  0  0  0  0  0  0
    1.2820   -1.1820   -0.8230 C   0  0  0  0  0  0  0  0  0  0  0  0
    2.5410   -0.4260   -0.5650 C   0  0  0  0  0  0  0  0  0  0  0  0
    3.3600    0.1210   -1.4800 N   0  0  0  0  0  0  0  0  0  0  0  0
    4.3760    0.7000   -0.8230 C   0  0  0  0  0  0  0  0  0  0  0  0
    5.5490    1.4200   -0.9990 C   0  0  0  0  0  0  0  0  0  0  0  0
    6.0590    1.6620    0.2210 N   0  0  0  0  0  0  0  0  0  0  0  0
    5.2580    1.1240    1.1670 C   0  0  0  0  0  0  0  0  0  0  0  0
    4.2130    0.5270    0.5230 C   0  0  0  0  0  0  0  0  0  0  0  0
    3.0620   -0.1770    0.6480 N   0  0  0  0  0  0  0  0  0  0  0  0
   -0.6450   -1.9450    0.3770 C   0  0  0  0  0  0  0  0  0  0  0  0
  1  2  2  0
  2  3  1  0
  2  7  1  0
  3  4  1  0
  4  5  2  0
  4  6  1  0
  6  7  2  0
  6 11  1  0
  7  8  1  0
  8  9  2  0
  9 10  1  0
 10 11  2  0
 10 24  1  0
 11 12  1  0
 12 13  1  0
 13 14  1  0
 14 15  1  0
 14 24  1  0
 15 16  1  0
 16 17  1  0
 16 23  2  0
 17 18  1  0
 18 19  2  0
 18 22  1  0
 19 20  1  0
 20 21  1  0
 21 22  2  0
 22 23  1  0
M  CHG  1  23   1
M  END
