
     RDKit          3D

 28 30  0  0  0  0  0  0  0  0999 V2000
   -7.2070    0.2930   -1.4190 O   0  0  0  0  0  0  0  0  0  0  0  0
   -5.8290    0.2550   -1.1430 C   0  0  1  0  0  0  0  0  0  0  0  0
   -5.4850    1.5630   -0.4740 C   0  0  0  0  0  0  0  0  0  0  0  0
   -4.1850    1.6430   -0.0470 O   0  0  0  0  0  0  0  0  0  0  0  0
   -3.5530    0.3780   -0.1030 C   0  0  1  0  0  0  0  0  0  0  0  0
   -2.3260    0.3960    0.5150 O   0  0  0  0  0  0  0  0  0  0  0  0
   -1.2610    0.0780   -0.2910 C   0  0  1  0  0  0  0  0  0  0  0  0
   -0.2850    1.1930   -0.4950 C   0  0  0  0  0  0  0  0  0  0  0  0
    0.8630    0.6970   -1.1370 O   0  0  0  0  0  0  0  0  0  0  0  0
    1.6250   -0.0790   -0.2950 C   0  0  1  0  0  0  0  0  0  0  0  0
    2.6230    0.7130    0.2720 O   0  0  0  0  0  0  0  0  0  0  0  0
    3.8740    0.3140   -0.1040 C   0  0  1  0  0  0  0  0  0  0  0  0
    4.6560    1.3590   -0.8710 C   0  0  0  0  0  0  0  0  0  0  0  0
    5.6200    0.6930   -1.6030 O   0  0  0  0  0  0  0  0  0  0  0  0
    6.2010   -0.3670   -0.9770 C   0  0  1  0  0  0  0  0  0  0  0  0
    7.5200   -0.6070   -1.3620 O   0  0  0  0  0  0  0  0  0  0  0  0
    6.1270   -0.3310    0.5250 C   0  0  2  0  0  0  0  0  0  0  0  0
    6.6650   -1.4670    1.1100 O   0  0  0  0  0  0  0  0  0  0  0  0
    4.7590   -0.0890    1.0590 C   0  0  1  0  0  0  0  0  0  0  0  0
    4.7560    0.9820    1.9490 O   0  0  0  0  0  0  0  0  0  0  0  0
    0.7720   -0.7470    0.7510 C   0  0  1  0  0  0  0  0  0  0  0  0
    0.5790   -0.0100    1.8880 O   0  0  0  0  0  0  0  0  0  0  0  0
   -0.5310   -1.1850    0.1060 C   0  0  1  0  0  0  0  0  0  0  0  0
   -1.2370   -1.8900    1.0980 O   0  0  0  0  0  0  0  0  0  0  0  0
   -4.4470   -0.5550    0.6900 C   0  0  1  0  0  0  0  0  0  0  0  0
   -5.0580    0.1860    1.7280 O   0  0  0  0  0  0  0  0  0  0  0  0
   -5.5920   -0.9320   -0.2610 C   0  0  1  0  0  0  0  0  0  0  0  0
   -6.7120   -1.3450    0.4380 O   0  0  0  0  0  0  0  0  0  0  0  0
  2  1  1  1
  2  3  1  0
  2 27  1  0
  3  4  1  0
  4  5  1  0
  5  6  1  1
  5 25  1  0
  7  6  1  1
  7  8  1  0
  7 23  1  0
  8  9  1  0
  9 10  1  0
 10 11  1  1
 10 21  1  0
 12 11  1  1
 12 13  1  0
 12 19  1  0
 13 14  1  0
 14 15  1  0
 15 16  1  1
 15 17  1  0
 17 18  1  1
 17 19  1  0
 19 20  1  1
 21 22  1  1
 21 23  1  0
 23 24  1  1
 25 26  1  1
 25 27  1  0
 27 28  1  1
M  END
