
     RDKit          3D

 16 17  0  0  0  0  0  0  0  0999 V2000
   -4.6780   -0.0280    1.2490 C   0  0  0  0  0  0  0  0  0  0  0  0
   -3.5740    0.0950    0.2680 C   0  0  0  0  0  0  0  0  0  0  0  0
   -3.8160    0.7980   -0.8900 C   0  0  0  0  0  0  0  0  0  0  0  0
   -2.8040    0.9310   -1.8290 C   0  0  0  0  0  0  0  0  0  0  0  0
   -1.5600    0.3470   -1.5750 C   0  0  0  0  0  0  0  0  0  0  0  0
   -0.5450    0.4750   -2.5090 O   0  0  0  0  0  0  0  0  0  0  0  0
   -1.3020   -0.3590   -0.4230 C   0  0  0  0  0  0  0  0  0  0  0  0
   -0.0220   -0.9340   -0.2220 N   0  0  0  0  0  0  0  0  0  0  0  0
    1.1510   -0.1760   -0.1570 N   0  0  0  0  0  0  0  0  0  0  0  0
    1.2420    1.1610   -0.2560 C   0  0  0  0  0  0  0  0  0  0  0  0
    2.5850    1.5350   -0.1450 C   0  0  0  0  0  0  0  0  0  0  0  0
    3.3200    0.3810    0.0260 C   0  0  0  0  0  0  0  0  0  0  0  0
    4.8060    0.3190    0.1880 C   0  0  0  0  0  0  0  0  0  0  0  0
    2.4100   -0.6500    0.0140 C   0  0  0  0  0  0  0  0  0  0  0  0
    2.7830   -2.0860    0.1710 C   0  0  0  0  0  0  0  0  0  0  0  0
   -2.3380   -0.4680    0.4870 C   0  0  0  0  0  0  0  0  0  0  0  0
  1  2  1  0
  2  3  2  0
  2 16  1  0
  3  4  1  0
  4  5  2  0
  5  6  1  0
  5  7  1  0
  7  8  1  0
  7 16  2  0
  8  9  1  0
  9 10  1  0
  9 14  1  0
 10 11  2  0
 11 12  1  0
 12 13  1  0
 12 14  2  0
 14 15  1  0
M  END
