
     RDKit          3D

 16 17  0  0  0  0  0  0  0  0999 V2000
   -2.9020   -1.5310   -0.5180 C   0  0  0  0  0  0  0  0  0  0  0  0
   -2.8090   -0.1400    0.0310 C   0  0  1  0  0  0  0  0  0  0  0  0
   -3.9210    0.6810   -0.5770 C   0  0  0  0  0  0  0  0  0  0  0  0
   -3.0400   -0.1840    1.5250 C   0  0  0  0  0  0  0  0  0  0  0  0
   -1.5170    0.5160   -0.3050 C   0  0  0  0  0  0  0  0  0  0  0  0
   -1.5270    1.5740   -0.9720 O   0  0  0  0  0  0  0  0  0  0  0  0
   -0.2660   -0.0120    0.1010 N   0  0  0  0  0  0  0  0  0  0  0  0
    1.0040    0.5650   -0.1870 C   0  0  0  0  0  0  0  0  0  0  0  0
    1.3480    1.6990   -0.8800 C   0  0  0  0  0  0  0  0  0  0  0  0
    2.6660    1.8490   -0.8960 N   0  0  0  0  0  0  0  0  0  0  0  0
    3.1990    0.8240   -0.2200 C   0  0  0  0  0  0  0  0  0  0  0  0
    4.5260    0.5180    0.0510 C   0  0  0  0  0  0  0  0  0  0  0  0
    4.8840   -0.5800    0.7640 C   0  0  0  0  0  0  0  0  0  0  0  0
    3.8980   -1.4170    1.2320 C   0  0  0  0  0  0  0  0  0  0  0  0
    2.5650   -1.1190    0.9660 C   0  0  0  0  0  0  0  0  0  0  0  0
    2.2090   -0.0030    0.2420 C   0  0  0  0  0  0  0  0  0  0  0  0
  2  1  1  6
  2  3  1  0
  2  4  1  0
  2  5  1  0
  5  6  2  0
  5  7  1  0
  7  8  1  0
  8  9  2  0
  8 16  1  0
  9 10  1  0
 10 11  1  0
 11 12  2  0
 11 16  1  0
 12 13  1  0
 13 14  2  0
 14 15  1  0
 15 16  2  0
M  END
