
     RDKit          3D

 24 25  0  0  0  0  0  0  0  0999 V2000
   -5.7570   -2.5650    0.9560 C   0  0  0  0  0  0  0  0  0  0  0  0
   -5.1870   -2.2010   -0.3990 C   0  0  0  0  0  0  0  0  0  0  0  0
   -4.4540   -0.9200   -0.3010 C   0  0  0  0  0  0  0  0  0  0  0  0
   -5.1150    0.2670   -0.5180 C   0  0  0  0  0  0  0  0  0  0  0  0
   -4.4870    1.4910   -0.4410 C   0  0  0  0  0  0  0  0  0  0  0  0
   -5.1980    2.7790   -0.6750 C   0  0  0  0  0  0  0  0  0  0  0  0
   -3.1330    1.5460   -0.1340 C   0  0  0  0  0  0  0  0  0  0  0  0
   -2.4510    0.3720    0.0870 C   0  0  0  0  0  0  0  0  0  0  0  0
   -1.0060    0.4520    0.4140 C   0  0  2  0  0  0  0  0  0  0  0  0
   -0.7920    1.4510    1.3610 O   0  0  0  0  0  0  0  0  0  0  0  0
   -0.3000    0.7810   -0.8950 C   0  0  0  0  0  0  0  0  0  0  0  0
    1.1150    0.9240   -0.7690 N   0  0  0  0  0  0  0  0  0  0  0  0
    1.8960   -0.1570   -0.3170 C   0  0  0  0  0  0  0  0  0  0  0  0
    1.3940   -1.2770   -0.0100 O   0  0  0  0  0  0  0  0  0  0  0  0
    3.3470    0.0570   -0.2090 C   0  0  0  0  0  0  0  0  0  0  0  0
    4.0850    1.2020   -0.4960 C   0  0  0  0  0  0  0  0  0  0  0  0
    5.4120    1.1200   -0.3050 C   0  0  0  0  0  0  0  0  0  0  0  0
    5.9680   -0.0060    0.1340 C   0  0  0  0  0  0  0  0  0  0  0  0
    7.3340   -0.3890    0.4290 C   0  0  0  0  0  0  0  0  0  0  0  0
    8.2410    0.4520    0.2630 O   0  0  0  0  0  0  0  0  0  0  0  0
    7.6680   -1.6480    0.8840 O   0  0  0  0  0  0  0  0  0  0  0  0
    8.9830   -2.0510    1.1790 C   0  0  0  0  0  0  0  0  0  0  0  0
    4.5380   -1.0740    0.3100 S   0  0  0  0  0  0  0  0  0  0  0  0
   -3.1030   -0.8400    0.0040 C   0  0  0  0  0  0  0  0  0  0  0  0
  1  2  1  0
  2  3  1  0
  3  4  2  0
  3 24  1  0
  4  5  1  0
  5  6  1  0
  5  7  2  0
  7  8  1  0
  8  9  1  0
  8 24  2  0
  9 10  1  1
  9 11  1  0
 11 12  1  0
 12 13  1  0
 13 14  2  0
 13 15  1  0
 15 16  2  0
 15 23  1  0
 16 17  1  0
 17 18  2  0
 18 19  1  0
 18 23  1  0
 19 20  2  0
 19 21  1  0
 21 22  1  0
M  END
