
     RDKit          3D

 24 25  0  0  0  0  0  0  0  0999 V2000
    6.8000    1.0790    2.5310 C   0  0  0  0  0  0  0  0  0  0  0  0
    5.9670    1.5170    1.3830 C   0  0  0  0  0  0  0  0  0  0  0  0
    6.0840    2.5940    0.8290 O   0  0  0  0  0  0  0  0  0  0  0  0
    4.9320    0.5850    0.8860 C   0  0  0  0  0  0  0  0  0  0  0  0
    4.1580    1.1530   -0.2810 C   0  0  0  0  0  0  0  0  0  0  0  0
    3.1580    0.1320   -0.6860 C   0  0  0  0  0  0  0  0  0  0  0  0
    3.2070   -0.8800   -1.5530 C   0  0  0  0  0  0  0  0  0  0  0  0
    2.1230   -1.6680   -1.7290 C   0  0  0  0  0  0  0  0  0  0  0  0
    1.0090   -1.3950   -1.0040 C   0  0  0  0  0  0  0  0  0  0  0  0
   -0.3330   -2.0290   -0.9350 C   0  0  2  0  0  0  0  0  0  0  0  0
   -0.4830   -2.8620   -2.1870 C   0  0  0  0  0  0  0  0  0  0  0  0
   -1.3530   -1.0690   -0.9490 O   0  0  0  0  0  0  0  0  0  0  0  0
   -2.3000   -1.0680    0.0660 C   0  0  0  0  0  0  0  0  0  0  0  0
   -2.2060   -1.9470    0.9790 O   0  0  0  0  0  0  0  0  0  0  0  0
   -3.3960   -0.1280    0.1550 C   0  0  0  0  0  0  0  0  0  0  0  0
   -4.6480   -0.3410   -0.4190 C   0  0  0  0  0  0  0  0  0  0  0  0
   -5.1010   -1.5150   -1.2020 C   0  0  0  0  0  0  0  0  0  0  0  0
   -5.3850    0.7430   -0.1210 N   0  0  0  0  0  0  0  0  0  0  0  0
   -4.6530    1.6070    0.6030 C   0  0  0  0  0  0  0  0  0  0  0  0
   -5.1370    2.9270    1.1180 C   0  0  0  0  0  0  0  0  0  0  0  0
   -3.3850    1.0990    0.8030 C   0  0  0  0  0  0  0  0  0  0  0  0
   -2.2790    1.7080    1.5310 C   0  0  0  0  0  0  0  0  0  0  0  0
   -1.1670    1.1390    1.6430 O   0  0  0  0  0  0  0  0  0  0  0  0
    1.4910    0.0060   -0.0480 S   0  0  0  0  0  0  0  0  0  0  0  0
  1  2  1  0
  2  3  2  0
  2  4  1  0
  4  5  1  0
  5  6  1  0
  6  7  2  0
  6 24  1  0
  7  8  1  0
  8  9  2  0
  9 10  1  0
  9 24  1  0
 10 11  1  6
 10 12  1  0
 12 13  1  0
 13 14  2  0
 13 15  1  0
 15 16  2  0
 15 21  1  0
 16 17  1  0
 16 18  1  0
 18 19  1  0
 19 20  1  0
 19 21  2  0
 21 22  1  0
 22 23  2  0
M  END
