
     RDKit          3D

  9  9  0  0  0  0  0  0  0  0999 V2000
    2.5260   -0.6540    0.4160 C   0  0  0  0  0  0  0  0  0  0  0  0
    1.6930    0.3960   -0.2010 C   0  0  0  0  0  0  0  0  0  0  0  0
    0.3880    0.3280   -0.1220 C   0  0  0  0  0  0  0  0  0  0  0  0
   -0.1890   -0.7380    0.5440 O   0  0  0  0  0  0  0  0  0  0  0  0
   -1.4820   -1.2170    0.3430 C   0  0  0  0  0  0  0  0  0  0  0  0
   -2.5650   -0.2100    0.2030 C   0  0  0  0  0  0  0  0  0  0  0  0
   -2.1000    0.9930   -1.1100 S   0  0  0  0  0  0  0  0  0  0  0  0
   -0.4010    1.3770   -0.7390 C   0  0  0  0  0  0  0  0  0  0  0  0
    0.0910    2.5080   -0.9950 N   0  0  0  0  0  0  0  0  0  0  0  0
  1  2  1  0
  2  3  2  3
  3  4  1  0
  3  8  1  0
  4  5  1  0
  5  6  1  0
  6  7  1  0
  7  8  1  0
  8  9  2  0
M  END
