
     RDKit          3D

 25 26  0  0  0  0  0  0  0  0999 V2000
   -6.5490    2.7130    0.0390 C   0  0  0  0  0  0  0  0  0  0  0  0
   -5.5930    1.5660   -0.1530 C   0  0  0  0  0  0  0  0  0  0  0  0
   -4.2540    1.8060   -0.3740 C   0  0  0  0  0  0  0  0  0  0  0  0
   -3.3710    0.7800   -0.5590 C   0  0  0  0  0  0  0  0  0  0  0  0
   -1.9670    1.0250   -0.7670 N   0  0  0  0  0  0  0  0  0  0  0  0
   -1.1900    0.7930    0.3950 N   0  0  0  0  0  0  0  0  0  0  0  0
   -0.1180   -0.1620    0.3210 C   0  0  0  0  0  0  0  0  0  0  0  0
    0.0650   -0.6930   -0.7720 O   0  0  0  0  0  0  0  0  0  0  0  0
    0.6850   -0.4840    1.4440 N   0  0  0  0  0  0  0  0  0  0  0  0
    1.7710   -1.3820    1.5290 C   0  0  0  0  0  0  0  0  0  0  0  0
    3.0620   -1.0990    0.8800 C   0  0  0  0  0  0  0  0  0  0  0  0
    3.0070   -0.8600   -0.5810 C   0  0  0  0  0  0  0  0  0  0  0  0
    4.3650   -0.7160   -1.2440 C   0  0  0  0  0  0  0  0  0  0  0  0
    5.2430    0.3720   -0.7570 C   0  0  1  0  0  0  0  0  0  0  0  0
    4.6520    1.6350   -0.8870 O   0  0  0  0  0  0  0  0  0  0  0  0
    5.9320    0.1460    0.5430 C   0  0  0  0  0  0  0  0  0  0  0  0
    7.4230    0.3080    0.2750 C   0  0  0  0  0  0  0  0  0  0  0  0
    7.5150    0.9560   -1.0080 N   0  0  0  0  0  0  0  0  0  0  0  0
    6.4250    0.4060   -1.7680 C   0  0  0  0  0  0  0  0  0  0  0  0
   -3.8550   -0.5160   -0.5180 C   0  0  0  0  0  0  0  0  0  0  0  0
   -2.9570   -1.6030   -0.7080 N   0  0  0  0  0  0  0  0  0  0  0  0
   -5.1900   -0.7420   -0.2960 C   0  0  0  0  0  0  0  0  0  0  0  0
   -5.6180   -2.1650   -0.2570 C   0  0  0  0  0  0  0  0  0  0  0  0
   -6.0800    0.2660   -0.1110 C   0  0  0  0  0  0  0  0  0  0  0  0
   -7.5050    0.0100    0.1320 C   0  0  0  0  0  0  0  0  0  0  0  0
  1  2  1  0
  2  3  2  0
  2 24  1  0
  3  4  1  0
  4  5  1  0
  4 20  2  0
  5  6  1  0
  6  7  1  0
  7  8  2  0
  7  9  1  0
  9 10  1  0
 10 11  1  0
 11 12  1  0
 12 13  1  0
 13 14  1  0
 14 15  1  1
 14 16  1  0
 14 19  1  0
 16 17  1  0
 17 18  1  0
 18 19  1  0
 20 21  1  0
 20 22  1  0
 22 23  1  0
 22 24  2  0
 24 25  1  0
M  END
