
     RDKit          3D

  9  9  0  0  0  0  0  0  0  0999 V2000
   -0.3870    2.1560   -1.1080 C   0  0  0  0  0  0  0  0  0  0  0  0
    0.1760    1.0840   -0.6130 C   0  0  0  0  0  0  0  0  0  0  0  0
    1.5620    0.9130   -0.5630 O   0  0  0  0  0  0  0  0  0  0  0  0
    2.1570   -0.3340   -0.2500 C   0  0  0  0  0  0  0  0  0  0  0  0
    1.3980   -0.9580    0.9210 C   0  0  0  0  0  0  0  0  0  0  0  0
    0.0440   -1.1690    0.4560 N   0  0  0  0  0  0  0  0  0  0  0  0
   -0.6300   -0.0030   -0.0810 C   0  0  0  0  0  0  0  0  0  0  0  0
   -1.9420   -0.0140   -0.0500 C   0  0  0  0  0  0  0  0  0  0  0  0
   -2.8710   -1.3810    0.6170 S   0  0  0  0  0  0  0  0  0  0  0  0
  1  2  2  0
  2  3  1  0
  2  7  1  0
  3  4  1  0
  4  5  1  0
  5  6  1  0
  6  7  1  0
  7  8  2  3
  8  9  1  0
M  END
