
     RDKit          3D

 12 12  0  0  0  0  0  0  0  0999 V2000
   -0.9160    1.6210    0.0640 N   0  0  0  0  0  0  0  0  0  0  0  0
   -1.2290    0.3350   -0.4640 C   0  0  2  0  0  0  0  0  0  0  0  0
   -2.3140   -0.2630    0.3400 C   0  0  0  0  0  0  0  0  0  0  0  0
   -2.7860    0.3690    1.2990 O   0  0  0  0  0  0  0  0  0  0  0  0
   -2.8120   -1.5120    0.0450 O   0  0  0  0  0  0  0  0  0  0  0  0
   -0.1380   -0.6510   -0.5450 C   0  0  2  0  0  0  0  0  0  0  0  0
    0.5660   -1.0600    0.7020 C   0  0  0  0  0  0  0  0  0  0  0  0
    1.7480   -1.3890   -0.1820 C   0  0  0  0  0  0  0  0  0  0  0  0
    1.1700   -0.3460   -1.1480 C   0  0  2  0  0  0  0  0  0  0  0  0
    1.8160    0.9410   -0.9030 C   0  0  0  0  0  0  0  0  0  0  0  0
    2.0750    1.7270   -1.8490 O   0  0  0  0  0  0  0  0  0  0  0  0
    2.1610    1.3330    0.3730 O   0  0  0  0  0  0  0  0  0  0  0  0
  2  1  1  1
  2  3  1  0
  2  6  1  0
  3  4  2  0
  3  5  1  0
  6  7  1  1
  6  9  1  0
  7  8  1  0
  8  9  1  0
  9 10  1  1
 10 11  2  0
 10 12  1  0
M  CHG  1   1   1
M  END
