
     RDKit          3D

  9  9  0  0  0  0  0  0  0  0999 V2000
    1.2740    2.1000   -0.2320 C   0  0  0  0  0  0  0  0  0  0  0  0
    0.3330    1.1950   -0.1210 C   0  0  0  0  0  0  0  0  0  0  0  0
   -1.0290    1.5920   -0.0440 O   0  0  0  0  0  0  0  0  0  0  0  0
   -1.9800    0.6350    0.3480 C   0  0  0  0  0  0  0  0  0  0  0  0
   -1.6750   -0.6570   -0.3850 C   0  0  0  0  0  0  0  0  0  0  0  0
   -0.3840   -1.1440    0.0450 N   0  0  0  0  0  0  0  0  0  0  0  0
    0.7000   -0.2140   -0.0770 C   0  0  0  0  0  0  0  0  0  0  0  0
    1.9250   -0.6480   -0.1380 C   0  0  0  0  0  0  0  0  0  0  0  0
    2.1950   -2.4370   -0.0700 S   0  0  0  0  0  0  0  0  0  0  0  0
  1  2  2  0
  2  3  1  0
  2  7  1  0
  3  4  1  0
  4  5  1  0
  5  6  1  0
  6  7  1  0
  7  8  2  3
  8  9  1  0
M  END
