
     RDKit          3D

  9  9  0  0  0  0  0  0  0  0999 V2000
    2.6540   -0.5410    0.2230 C   0  0  0  0  0  0  0  0  0  0  0  0
    1.5240    0.2740    0.5630 O   0  0  0  0  0  0  0  0  0  0  0  0
    0.2160   -0.1410    0.2220 C   0  0  0  0  0  0  0  0  0  0  0  0
    0.0540   -1.3920    0.1410 N   0  0  0  0  0  0  0  0  0  0  0  0
   -1.0960   -2.1580   -0.1710 C   0  0  0  0  0  0  0  0  0  0  0  0
   -2.5550   -1.1490   -0.5040 S   0  0  0  0  0  0  0  0  0  0  0  0
   -2.0820    0.5610   -0.3310 C   0  0  0  0  0  0  0  0  0  0  0  0
   -0.8330    0.8430   -0.0090 C   0  0  0  0  0  0  0  0  0  0  0  0
   -0.4830    2.3030    0.1250 C   0  0  0  0  0  0  0  0  0  0  0  0
  1  2  1  0
  2  3  1  0
  3  4  2  0
  3  8  1  0
  4  5  1  0
  5  6  1  0
  6  7  1  0
  7  8  2  0
  8  9  1  0
M  END
