
     RDKit          3D

 25 25  0  0  0  0  0  0  0  0999 V2000
   -3.6500    3.1860    0.9430 C   0  0  0  0  0  0  0  0  0  0  0  0
   -2.9130    2.6360    0.0060 N   0  0  0  0  0  0  0  0  0  0  0  0
   -2.2800    1.4030    0.3390 C   0  0  0  0  0  0  0  0  0  0  0  0
   -2.9850    0.2180    0.3120 C   0  0  0  0  0  0  0  0  0  0  0  0
   -4.3190    0.4300   -0.0650 N   0  0  0  0  0  0  0  0  0  0  0  0
   -2.2960   -0.9870    0.6050 C   0  0  0  0  0  0  0  0  0  0  0  0
   -2.4480   -2.2250    0.7440 C   0  0  0  0  0  0  0  0  0  0  0  0
   -3.3850   -3.3190    0.7130 C   0  0  0  0  0  0  0  0  0  0  0  0
   -3.0400   -4.6130    0.9600 C   0  0  0  0  0  0  0  0  0  0  0  0
   -4.2210   -5.4630    0.8470 C   0  0  0  0  0  0  0  0  0  0  0  0
   -5.2650   -4.5850    0.5200 N   0  0  0  0  0  0  0  0  0  0  0  0
   -4.7810   -3.3530    0.4440 C   0  0  0  0  0  0  0  0  0  0  0  0
   -5.7430   -2.2630    0.1030 C   0  0  0  0  0  0  0  0  0  0  0  0
   -0.7850   -0.6750    0.7610 N   0  0  0  0  0  0  0  0  0  0  0  0
   -0.1100   -0.2660   -0.3880 C   0  0  0  0  0  0  0  0  0  0  0  0
   -0.7130   -0.1670   -1.5090 O   0  0  0  0  0  0  0  0  0  0  0  0
    1.2930    0.0620   -0.3550 N   0  0  0  0  0  0  0  0  0  0  0  0
    1.9630    0.4850   -1.5670 C   0  0  0  0  0  0  0  0  0  0  0  0
    3.4160    0.7680   -1.2470 C   0  0  1  0  0  0  0  0  0  0  0  0
    4.0620   -0.4930   -0.7980 C   0  0  0  0  0  0  0  0  0  0  0  0
    4.0090    1.1770   -2.4620 O   0  0  0  0  0  0  0  0  0  0  0  0
    3.4530    1.8780   -0.2530 C   0  0  0  0  0  0  0  0  0  0  0  0
    4.8070    2.3140    0.1940 C   0  0  1  0  0  0  0  0  0  0  0  0
    5.6920    2.8190   -0.9060 C   0  0  0  0  0  0  0  0  0  0  0  0
    4.5980    3.4730    1.1670 C   0  0  0  0  0  0  0  0  0  0  0  0
  1  2  2  0
  2  3  1  0
  3  4  2  3
  4  5  1  0
  4  6  1  0
  6  7  2  3
  6 14  1  0
  7  8  1  0
  8  9  2  0
  8 12  1  0
  9 10  1  0
 10 11  1  0
 11 12  2  0
 12 13  1  0
 14 15  1  0
 15 16  2  0
 15 17  1  0
 17 18  1  0
 18 19  1  0
 19 20  1  1
 19 21  1  0
 19 22  1  0
 22 23  1  0
 23 24  1  6
 23 25  1  0
M  END
