
     RDKit          3D

 25 26  0  0  0  0  0  0  0  0999 V2000
   -4.5710   -3.1420   -0.6860 C   0  0  0  0  0  0  0  0  0  0  0  0
   -4.6650   -1.6800   -0.5130 C   0  0  0  0  0  0  0  0  0  0  0  0
   -3.5490   -0.8990   -0.7500 C   0  0  0  0  0  0  0  0  0  0  0  0
   -3.5780    0.4710   -0.6080 C   0  0  0  0  0  0  0  0  0  0  0  0
   -2.4340    1.2870   -0.8390 N   0  0  0  0  0  0  0  0  0  0  0  0
   -1.6860    1.6050    0.2950 N   0  0  0  0  0  0  0  0  0  0  0  0
   -0.2980    1.2320    0.2930 C   0  0  0  0  0  0  0  0  0  0  0  0
    0.1650    0.6450   -0.7230 O   0  0  0  0  0  0  0  0  0  0  0  0
    0.4930    1.5370    1.4240 N   0  0  0  0  0  0  0  0  0  0  0  0
    1.8930    1.1790    1.4460 C   0  0  0  0  0  0  0  0  0  0  0  0
    2.6410    1.8770    0.3360 C   0  0  0  0  0  0  0  0  0  0  0  0
    4.1000    1.5170    0.3880 C   0  0  0  0  0  0  0  0  0  0  0  0
    4.2510    0.0360    0.2150 C   0  0  0  0  0  0  0  0  0  0  0  0
    5.7080   -0.3850    0.2450 C   0  0  1  0  0  0  0  0  0  0  0  0
    6.3140   -0.0600    1.4300 O   0  0  0  0  0  0  0  0  0  0  0  0
    5.7720   -1.8700    0.0290 C   0  0  0  0  0  0  0  0  0  0  0  0
    7.0220   -2.0520   -0.8110 C   0  0  0  0  0  0  0  0  0  0  0  0
    7.4570   -0.7610   -1.2510 N   0  0  0  0  0  0  0  0  0  0  0  0
    6.4140    0.2040   -0.9580 C   0  0  0  0  0  0  0  0  0  0  0  0
   -4.7360    1.1050   -0.2210 C   0  0  0  0  0  0  0  0  0  0  0  0
   -4.7940    2.5310   -0.0640 N   0  0  0  0  0  0  0  0  0  0  0  0
   -5.8760    0.3550    0.0250 C   0  0  0  0  0  0  0  0  0  0  0  0
   -7.0910    1.0640    0.4380 C   0  0  0  0  0  0  0  0  0  0  0  0
   -5.8260   -1.0330   -0.1250 C   0  0  0  0  0  0  0  0  0  0  0  0
   -7.0140   -1.8540    0.1340 C   0  0  0  0  0  0  0  0  0  0  0  0
  1  2  1  0
  2  3  2  0
  2 24  1  0
  3  4  1  0
  4  5  1  0
  4 20  2  0
  5  6  1  0
  6  7  1  0
  7  8  2  0
  7  9  1  0
  9 10  1  0
 10 11  1  0
 11 12  1  0
 12 13  1  0
 13 14  1  0
 14 15  1  1
 14 16  1  0
 14 19  1  0
 16 17  1  0
 17 18  1  0
 18 19  1  0
 20 21  1  0
 20 22  1  0
 22 23  1  0
 22 24  2  0
 24 25  1  0
M  END
