
     RDKit          3D

 25 26  0  0  0  0  0  0  0  0999 V2000
   -3.5910    2.3060   -1.2620 C   0  0  0  0  0  0  0  0  0  0  0  0
   -3.2470    1.1440   -0.3550 C   0  0  0  0  0  0  0  0  0  0  0  0
   -3.1770   -0.1810   -0.9330 C   0  0  2  0  0  0  0  0  0  0  0  0
   -4.6030   -0.5370   -1.5120 C   0  0  0  0  0  0  0  0  0  0  0  0
   -3.1260   -1.1430    0.2570 C   0  0  0  0  0  0  0  0  0  0  0  0
   -3.1070   -1.8500    1.1420 N   0  0  0  0  0  0  0  0  0  0  0  0
   -2.2390   -0.7110   -1.8850 C   0  0  1  0  0  0  0  0  0  0  0  0
   -2.2080    0.0540   -3.1610 N   0  0  0  0  0  0  0  0  0  0  0  0
   -0.9040   -1.2120   -1.6620 C   0  0  0  0  0  0  0  0  0  0  0  0
    0.0710   -0.9570   -0.8750 C   0  0  0  0  0  0  0  0  0  0  0  0
    0.2340   -0.0040    0.1620 C   0  0  0  0  0  0  0  0  0  0  0  0
    1.2730    0.1970    0.9570 C   0  0  0  0  0  0  0  0  0  0  0  0
    1.2070    1.2390    1.9480 N   0  0  0  0  0  0  0  0  0  0  0  0
    2.2900    1.5040    2.8290 C   0  0  0  0  0  0  0  0  0  0  0  0
    2.1930    2.5600    3.7900 N   0  0  0  0  0  0  0  0  0  0  0  0
    3.4240    0.7880    2.7710 C   0  0  0  0  0  0  0  0  0  0  0  0
    4.6850    0.8850    3.5870 C   0  0  0  0  0  0  0  0  0  0  0  0
    5.6920    0.2700    2.6530 C   0  0  0  0  0  0  0  0  0  0  0  0
    4.9060   -0.8520    2.0090 C   0  0  0  0  0  0  0  0  0  0  0  0
    3.5870   -0.2530    1.8370 N   0  0  0  0  0  0  0  0  0  0  0  0
    2.4930   -0.5550    0.9140 C   0  0  0  0  0  0  0  0  0  0  0  0
    2.6810   -1.4780    0.1120 O   0  0  0  0  0  0  0  0  0  0  0  0
   -0.4670   -2.2610   -2.7020 C   0  0  0  0  0  0  0  0  0  0  0  0
   -1.4620   -2.7270   -3.6660 C   0  0  0  0  0  0  0  0  0  0  0  0
    0.6860   -2.6810   -2.6940 O   0  0  0  0  0  0  0  0  0  0  0  0
  1  2  1  0
  2  3  1  0
  3  4  1  6
  3  5  1  0
  3  7  1  0
  5  6  3  0
  7  8  1  6
  7  9  1  0
  9 10  2  3
  9 23  1  0
 10 11  1  0
 11 12  2  3
 12 13  1  0
 12 21  1  0
 13 14  1  0
 14 15  1  0
 14 16  2  0
 16 17  1  0
 16 20  1  0
 17 18  1  0
 18 19  1  0
 19 20  1  0
 20 21  1  0
 21 22  2  0
 23 24  1  0
 23 25  2  0
M  END
