
     RDKit          3D

 25 26  0  0  0  0  0  0  0  0999 V2000
   -5.0470    2.1020    1.4770 C   0  0  0  0  0  0  0  0  0  0  0  0
   -5.4330    1.2080    0.2990 C   0  0  0  0  0  0  0  0  0  0  0  0
   -4.2350    1.0210   -0.6190 C   0  0  0  0  0  0  0  0  0  0  0  0
   -3.1260    0.4190    0.0330 N   0  0  0  0  0  0  0  0  0  0  0  0
   -3.2980   -0.9360    0.4100 C   0  0  0  0  0  0  0  0  0  0  0  0
   -2.8800   -1.9270   -0.6380 C   0  0  0  0  0  0  0  0  0  0  0  0
   -1.8880   -1.4320   -1.6090 C   0  0  0  0  0  0  0  0  0  0  0  0
   -1.0840   -0.2230   -1.2210 C   0  0  1  0  0  0  0  0  0  0  0  0
    0.1530   -0.5680   -0.5540 N   0  0  0  0  0  0  0  0  0  0  0  0
    0.0500   -1.2480    0.6730 C   0  0  0  0  0  0  0  0  0  0  0  0
    1.4690   -1.4920    1.2040 C   0  0  2  0  0  0  0  0  0  0  0  0
    1.2900   -2.2410    2.5130 C   0  0  0  0  0  0  0  0  0  0  0  0
    2.0720   -0.2560    1.3690 O   0  0  0  0  0  0  0  0  0  0  0  0
    3.2810    0.1850    0.8820 C   0  0  0  0  0  0  0  0  0  0  0  0
    3.6840    1.4960    1.1780 C   0  0  0  0  0  0  0  0  0  0  0  0
    4.8820    2.0020    0.7230 C   0  0  0  0  0  0  0  0  0  0  0  0
    5.7350    1.2490   -0.0390 C   0  0  0  0  0  0  0  0  0  0  0  0
    6.9690    1.7840   -0.5010 N   0  0  0  0  0  0  0  0  0  0  0  0
    5.3630   -0.0430   -0.3450 C   0  0  0  0  0  0  0  0  0  0  0  0
    6.2170   -0.8520   -1.1290 N   0  0  0  0  0  0  0  0  0  0  0  0
    4.1450   -0.5610    0.1160 C   0  0  0  0  0  0  0  0  0  0  0  0
   -0.6910    0.4580   -2.4780 C   0  0  0  0  0  0  0  0  0  0  0  0
   -1.6960    0.9230   -3.3510 N   0  0  0  0  0  0  0  0  0  0  0  0
    0.5010    0.6190   -2.7640 O   0  0  0  0  0  0  0  0  0  0  0  0
   -1.8370    0.7960   -0.4140 C   0  0  0  0  0  0  0  0  0  0  0  0
  1  2  1  0
  2  3  1  0
  3  4  1  0
  4  5  1  0
  4 25  1  0
  5  6  1  0
  6  7  1  0
  7  8  1  0
  8  9  1  1
  8 22  1  0
  8 25  1  0
  9 10  1  0
 10 11  1  0
 11 12  1  1
 11 13  1  0
 13 14  1  0
 14 15  2  0
 14 21  1  0
 15 16  1  0
 16 17  2  0
 17 18  1  0
 17 19  1  0
 19 20  1  0
 19 21  2  0
 22 23  1  0
 22 24  2  0
M  END
