
     RDKit          3D

  9  9  0  0  0  0  0  0  0  0999 V2000
    3.5090   -0.1730    0.8350 N   0  0  0  0  0  0  0  0  0  0  0  0
    2.3710   -0.1480    0.6110 C   0  0  0  0  0  0  0  0  0  0  0  0
    0.9260   -0.0950    0.3100 C   0  0  0  0  0  0  0  0  0  0  0  0
    0.2200   -1.0420    0.8580 C   0  0  0  0  0  0  0  0  0  0  0  0
   -1.2270   -1.2700    0.7580 C   0  0  0  0  0  0  0  0  0  0  0  0
   -2.0270   -0.0490   -0.2610 S   0  0  0  0  0  0  0  0  0  0  0  0
   -0.8260    1.1070   -0.8690 C   0  0  0  0  0  0  0  0  0  0  0  0
   -1.2200    2.1740   -1.7040 O   0  0  0  0  0  0  0  0  0  0  0  0
    0.4380    0.9640   -0.5360 C   0  0  0  0  0  0  0  0  0  0  0  0
  1  2  3  0
  2  3  1  0
  3  4  2  0
  3  9  1  0
  4  5  1  0
  5  6  1  0
  6  7  1  0
  7  8  1  0
  7  9  2  0
M  END
