
     RDKit          3D

 23 24  0  0  0  0  0  0  0  0999 V2000
   -1.3750    3.6030   -0.2840 N   0  0  0  0  0  0  0  0  0  0  0  0
   -0.3450    2.6480   -0.0520 C   0  0  0  0  0  0  0  0  0  0  0  0
    0.7620    2.7620   -0.6110 O   0  0  0  0  0  0  0  0  0  0  0  0
   -0.5640    1.4850    0.8670 C   0  0  1  0  0  0  0  0  0  0  0  0
   -1.7130    0.7340    0.3640 C   0  0  0  0  0  0  0  0  0  0  0  0
   -2.4720    1.3050   -0.6570 O   0  0  0  0  0  0  0  0  0  0  0  0
   -3.5690    0.3980   -0.7160 C   0  0  0  0  0  0  0  0  0  0  0  0
   -3.0990   -0.9380   -1.1530 C   0  0  0  0  0  0  0  0  0  0  0  0
   -3.2130   -2.0390   -0.2520 N   0  0  0  0  0  0  0  0  0  0  0  0
   -3.1750   -2.1800    1.1370 C   0  0  0  0  0  0  0  0  0  0  0  0
   -4.3460   -2.5150    1.6440 O   0  0  0  0  0  0  0  0  0  0  0  0
   -2.0640   -2.0110    2.0260 N   0  0  0  0  0  0  0  0  0  0  0  0
   -0.7150   -2.2470    1.8810 N   0  0  0  0  0  0  0  0  0  0  0  0
    0.2590   -1.8150    0.9610 C   0  0  0  0  0  0  0  0  0  0  0  0
    0.6350   -2.7620    0.1340 O   0  0  0  0  0  0  0  0  0  0  0  0
    0.9570   -0.5620    0.7050 C   0  0  0  0  0  0  0  0  0  0  0  0
    2.2120   -0.5940    0.1620 C   0  0  0  0  0  0  0  0  0  0  0  0
    3.0600    0.5230   -0.1620 C   0  0  1  0  0  0  0  0  0  0  0  0
    4.5120    0.1140    0.1380 C   0  0  0  0  0  0  0  0  0  0  0  0
    4.9310   -0.3700   -1.1450 N   0  0  0  0  0  0  0  0  0  0  0  0
    4.1610    0.3530   -2.1050 C   0  0  0  0  0  0  0  0  0  0  0  0
    3.0590    0.8930   -1.4990 O   0  0  0  0  0  0  0  0  0  0  0  0
    0.5690    0.7240    0.9180 O   0  0  0  0  0  0  0  0  0  0  0  0
  1  2  1  0
  2  3  2  0
  4  2  1  6
  4  5  1  0
  4 23  1  0
  5  6  1  0
  6  7  1  0
  7  8  1  0
  8  9  1  0
  9 10  1  0
 10 11  2  0
 10 12  1  0
 12 13  1  0
 13 14  1  0
 14 15  2  0
 14 16  1  0
 16 17  2  3
 16 23  1  0
 18 17  1  6
 18 19  1  0
 18 22  1  0
 19 20  1  0
 20 21  1  0
 21 22  1  0
M  END
