
     RDKit          3D

 23 24  0  0  0  0  0  0  0  0999 V2000
    7.4460   -0.3100    0.9030 C   0  0  0  0  0  0  0  0  0  0  0  0
    6.1060   -0.7670    0.8970 O   0  0  0  0  0  0  0  0  0  0  0  0
    5.0330   -0.0020    0.4830 C   0  0  0  0  0  0  0  0  0  0  0  0
    5.2790    1.1700    0.0900 O   0  0  0  0  0  0  0  0  0  0  0  0
    3.6940   -0.4700    0.4810 N   0  0  0  0  0  0  0  0  0  0  0  0
    2.5840    0.3510    0.0420 C   0  0  0  0  0  0  0  0  0  0  0  0
    1.3200   -0.4130    0.1570 C   0  0  0  0  0  0  0  0  0  0  0  0
    1.3400   -1.5910    0.5860 O   0  0  0  0  0  0  0  0  0  0  0  0
    0.0870    0.1890   -0.2190 N   0  0  0  0  0  0  0  0  0  0  0  0
   -1.1390   -0.5890   -0.0940 C   0  0  2  0  0  0  0  0  0  0  0  0
   -1.8250   -0.6320   -1.4270 C   0  0  2  0  0  0  0  0  0  0  0  0
   -1.5660    0.6990   -2.0830 C   0  0  0  0  0  0  0  0  0  0  0  0
   -0.8970    0.9520   -3.1060 O   0  0  0  0  0  0  0  0  0  0  0  0
   -2.2890    1.6130   -1.2270 N   0  0  0  0  0  0  0  0  0  0  0  0
   -3.0070    0.8090   -0.2880 C   0  0  1  0  0  0  0  0  0  0  0  0
   -3.2160   -0.4380   -1.0490 N   0  0  0  0  0  0  0  0  0  0  0  0
   -4.0800   -0.2240   -2.1760 C   0  0  0  0  0  0  0  0  0  0  0  0
   -2.0910    0.2020    0.7800 C   0  0  2  0  0  0  0  0  0  0  0  0
   -1.4110    1.2450    1.6000 C   0  0  0  0  0  0  0  0  0  0  0  0
   -0.4810    0.6510    2.4320 O   0  0  0  0  0  0  0  0  0  0  0  0
   -2.9110   -0.7250    1.5630 C   0  0  0  0  0  0  0  0  0  0  0  0
   -3.7300   -1.6560    0.8340 N   0  0  0  0  0  0  0  0  0  0  0  0
   -2.9110   -0.7230    2.8000 O   0  0  0  0  0  0  0  0  0  0  0  0
  1  2  1  0
  2  3  1  0
  3  4  2  0
  3  5  1  0
  5  6  1  0
  6  7  1  0
  7  8  2  0
  7  9  1  0
 10  9  1  6
 10 11  1  0
 10 18  1  0
 11 12  1  6
 11 16  1  0
 12 13  2  0
 12 14  1  0
 15 14  1  6
 15 16  1  0
 15 18  1  0
 16 17  1  0
 18 19  1  1
 18 21  1  0
 19 20  1  0
 21 22  1  0
 21 23  2  0
M  END
