
     RDKit          3D

 24 26  0  0  0  0  0  0  0  0999 V2000
    5.7530    0.8840   -1.9340 C   0  0  0  0  0  0  0  0  0  0  0  0
    4.8360    0.4610   -0.8210 C   0  0  0  0  0  0  0  0  0  0  0  0
    5.1560   -0.6200   -0.1480 C   0  0  0  0  0  0  0  0  0  0  0  0
    6.3120   -1.3130   -0.4930 O   0  0  0  0  0  0  0  0  0  0  0  0
    4.3780   -1.1460    0.9400 N   0  0  0  0  0  0  0  0  0  0  0  0
    3.2090   -0.4070    1.2560 C   0  0  0  0  0  0  0  0  0  0  0  0
    2.4480   -0.7880    2.2060 O   0  0  0  0  0  0  0  0  0  0  0  0
    2.8710    0.7470    0.5360 N   0  0  0  0  0  0  0  0  0  0  0  0
    1.6500    1.5070    0.8750 C   0  0  0  0  0  0  0  0  0  0  0  0
    0.4860    1.0030    0.0990 C   0  0  0  0  0  0  0  0  0  0  0  0
   -0.3930   -0.0060    0.4740 C   0  0  0  0  0  0  0  0  0  0  0  0
   -1.3170   -0.1800   -0.4890 N   0  0  0  0  0  0  0  0  0  0  0  0
   -2.4280   -1.1340   -0.5050 C   0  0  2  0  0  0  0  0  0  0  0  0
   -3.3860   -0.7520   -1.4010 O   0  0  0  0  0  0  0  0  0  0  0  0
   -4.3820   -0.0740   -0.7570 C   0  0  1  0  0  0  0  0  0  0  0  0
   -5.7490   -0.7450   -0.9290 C   0  0  0  0  0  0  0  0  0  0  0  0
   -6.6950    0.0140   -0.2410 O   0  0  0  0  0  0  0  0  0  0  0  0
   -4.0700   -0.0030    0.7000 C   0  0  2  0  0  0  0  0  0  0  0  0
   -3.4090    1.2050    0.9540 O   0  0  0  0  0  0  0  0  0  0  0  0
   -3.0920   -1.1480    0.8700 C   0  0  1  0  0  0  0  0  0  0  0  0
   -3.7560   -2.3510    1.0800 O   0  0  0  0  0  0  0  0  0  0  0  0
   -1.0240    0.6990   -1.4440 N   0  0  0  0  0  0  0  0  0  0  0  0
    0.0440    1.4070   -1.1060 N   0  0  0  0  0  0  0  0  0  0  0  0
    3.6410    1.2630   -0.5390 C   0  0  0  0  0  0  0  0  0  0  0  0
  1  2  1  0
  2  3  2  0
  2 24  1  0
  3  4  1  0
  3  5  1  0
  5  6  1  0
  6  7  2  0
  6  8  1  0
  8  9  1  0
  8 24  1  0
  9 10  1  0
 10 11  2  0
 10 23  1  0
 11 12  1  0
 13 12  1  1
 12 22  1  0
 13 14  1  0
 13 20  1  0
 14 15  1  0
 15 16  1  1
 15 18  1  0
 16 17  1  0
 18 19  1  6
 18 20  1  0
 20 21  1  6
 22 23  2  0
M  END
