
     RDKit          3D

 23 25  0  0  0  0  0  0  0  0999 V2000
    1.3630    1.6020    3.1240 N   0  0  0  0  0  0  0  0  0  0  0  0
    2.0000    1.1500    1.9430 C   0  0  0  0  0  0  0  0  0  0  0  0
    3.3270    0.9580    1.7290 N   0  0  0  0  0  0  0  0  0  0  0  0
    3.5470    0.5290    0.5040 N   0  0  0  0  0  0  0  0  0  0  0  0
    4.8780    0.2430    0.0080 C   0  0  2  0  0  0  0  0  0  0  0  0
    5.0680    0.6840   -1.4080 C   0  0  0  0  0  0  0  0  0  0  0  0
    6.2130   -0.0910   -1.8060 O   0  0  0  0  0  0  0  0  0  0  0  0
    6.2530   -1.2600   -1.0720 C   0  0  0  0  0  0  0  0  0  0  0  0
    7.1010   -2.1620   -1.2100 O   0  0  0  0  0  0  0  0  0  0  0  0
    5.1310   -1.2540   -0.1070 C   0  0  0  0  0  0  0  0  0  0  0  0
    2.3870    0.4370   -0.0890 N   0  0  0  0  0  0  0  0  0  0  0  0
    1.3990    0.8040    0.7430 C   0  0  0  0  0  0  0  0  0  0  0  0
   -0.0530    0.8490    0.4810 C   0  0  0  0  0  0  0  0  0  0  0  0
   -0.8280    1.2200    1.3810 O   0  0  0  0  0  0  0  0  0  0  0  0
   -0.5330    0.4680   -0.7890 N   0  0  0  0  0  0  0  0  0  0  0  0
   -1.9120    0.4490   -1.1960 C   0  0  0  0  0  0  0  0  0  0  0  0
   -2.8120   -0.4760   -0.4510 C   0  0  1  0  0  0  0  0  0  0  0  0
   -2.8800   -0.1720    0.8920 O   0  0  0  0  0  0  0  0  0  0  0  0
   -3.9940    0.6120    1.1220 C   0  0  0  0  0  0  0  0  0  0  0  0
   -5.0400    0.2260    0.1130 C   0  0  0  0  0  0  0  0  0  0  0  0
   -4.2140   -0.3160   -1.0090 C   0  0  2  0  0  0  0  0  0  0  0  0
   -4.7960   -1.6480   -1.4340 C   0  0  0  0  0  0  0  0  0  0  0  0
   -3.9430   -2.1710   -2.4290 O   0  0  0  0  0  0  0  0  0  0  0  0
  1  2  1  0
  2  3  2  0
  2 12  1  0
  3  4  1  0
  5  4  1  6
  4 11  1  0
  5  6  1  0
  5 10  1  0
  6  7  1  0
  7  8  1  0
  8  9  2  0
  8 10  1  0
 11 12  2  0
 12 13  1  0
 13 14  2  0
 13 15  1  0
 15 16  1  0
 17 16  1  6
 17 18  1  0
 17 21  1  0
 18 19  1  0
 19 20  1  0
 20 21  1  0
 21 22  1  1
 22 23  1  0
M  END
