
     RDKit          3D

 24 26  0  0  0  0  0  0  0  0999 V2000
    0.7950   -1.1920    0.5240 O   0  0  0  0  0  0  0  0  0  0  0  0
    0.8310   -0.1130   -0.0810 C   0  0  0  0  0  0  0  0  0  0  0  0
   -0.4410    0.4500   -0.4390 N   0  0  0  0  0  0  0  0  0  0  0  0
   -1.6960   -0.1920   -0.1180 C   0  0  0  0  0  0  0  0  0  0  0  0
   -2.8340    0.6500   -0.6280 C   0  0  0  0  0  0  0  0  0  0  0  0
   -2.5980    1.7210   -1.2230 O   0  0  0  0  0  0  0  0  0  0  0  0
   -4.1760    0.2480   -0.4450 N   0  0  0  0  0  0  0  0  0  0  0  0
   -4.5910   -0.9640    0.2230 C   0  0  0  0  0  0  0  0  0  0  0  0
   -5.8080   -0.5080    0.9910 C   0  0  2  0  0  0  0  0  0  0  0  0
   -6.7560   -1.5400    0.9130 O   0  0  0  0  0  0  0  0  0  0  0  0
   -6.3100    0.7080    0.2690 C   0  0  2  0  0  0  0  0  0  0  0  0
   -7.5800    0.5720   -0.2440 O   0  0  0  0  0  0  0  0  0  0  0  0
   -5.3390    0.9530   -0.8790 C   0  0  0  0  0  0  0  0  0  0  0  0
    2.0510    0.5160   -0.3960 N   0  0  0  0  0  0  0  0  0  0  0  0
    3.3250   -0.0160   -0.0560 C   0  0  0  0  0  0  0  0  0  0  0  0
    3.5950   -1.1810    0.6080 C   0  0  0  0  0  0  0  0  0  0  0  0
    4.9550   -1.2730    0.7040 N   0  0  0  0  0  0  0  0  0  0  0  0
    5.5420   -0.2390    0.1410 N   0  0  0  0  0  0  0  0  0  0  0  0
    6.9400   -0.0340    0.0710 C   0  0  0  0  0  0  0  0  0  0  0  0
    7.5600    0.9860   -0.4820 C   0  0  0  0  0  0  0  0  0  0  0  0
    8.9410    0.8120   -0.3400 O   0  0  0  0  0  0  0  0  0  0  0  0
    9.1730   -0.1540    0.5770 O   0  0  0  0  0  0  0  0  0  0  0  0
    8.0060   -0.9170    0.6010 C   0  0  0  0  0  0  0  0  0  0  0  0
    4.5650    0.5350   -0.3250 C   0  0  0  0  0  0  0  0  0  0  0  0
  1  2  2  0
  2  3  1  0
  2 14  1  0
  3  4  1  0
  4  5  1  0
  5  6  2  0
  5  7  1  0
  7  8  1  0
  7 13  1  0
  8  9  1  0
  9 10  1  6
  9 11  1  0
 11 12  1  6
 11 13  1  0
 14 15  1  0
 15 16  1  0
 15 24  2  0
 16 17  2  0
 17 18  1  0
 18 19  1  0
 18 24  1  0
 19 20  2  0
 19 23  1  0
 20 21  1  0
 21 22  1  0
 22 23  1  0
M  END
