
     RDKit          3D

 20 21  0  0  0  0  0  0  0  0999 V2000
   -5.4460    0.5140   -0.3540 N   0  0  0  0  0  0  0  0  0  0  0  0
   -4.1270    0.4690   -0.8590 C   0  0  0  0  0  0  0  0  0  0  0  0
   -3.7600    0.8880   -2.0050 N   0  0  0  0  0  0  0  0  0  0  0  0
   -2.4340    0.8370   -2.4880 C   0  0  0  0  0  0  0  0  0  0  0  0
   -2.1400    1.4040   -3.6000 O   0  0  0  0  0  0  0  0  0  0  0  0
   -1.3740    0.1560   -1.7640 C   0  0  1  0  0  0  0  0  0  0  0  0
   -0.1850    0.9480   -1.5810 O   0  0  0  0  0  0  0  0  0  0  0  0
    0.8030    0.3760   -0.7660 C   0  0  0  0  0  0  0  0  0  0  0  0
    2.0130    0.7170   -0.9780 O   0  0  0  0  0  0  0  0  0  0  0  0
    0.4800   -0.5520    0.2640 C   0  0  0  0  0  0  0  0  0  0  0  0
    1.3920   -1.2100    1.1680 C   0  0  0  0  0  0  0  0  0  0  0  0
    2.6330   -1.1620    1.3000 C   0  0  0  0  0  0  0  0  0  0  0  0
    3.6290   -0.4590    0.6340 N   0  0  0  0  0  0  0  0  0  0  0  0
    4.1660    0.7340    1.2840 C   0  0  0  0  0  0  0  0  0  0  0  0
    5.1440    1.3280    0.5100 O   0  0  0  0  0  0  0  0  0  0  0  0
    6.1510    0.5390    0.2800 O   0  0  0  0  0  0  0  0  0  0  0  0
   -0.8240   -0.8570    0.4220 N   0  0  0  0  0  0  0  0  0  0  0  0
   -1.8260   -0.2650   -0.4190 C   0  0  0  0  0  0  0  0  0  0  0  0
   -3.0710   -0.1360   -0.0370 C   0  0  0  0  0  0  0  0  0  0  0  0
   -3.3670   -0.6340    1.2730 N   0  0  0  0  0  0  0  0  0  0  0  0
  1  2  1  0
  2  3  2  0
  2 19  1  0
  3  4  1  0
  4  5  2  0
  4  6  1  0
  6  7  1  1
  6 18  1  0
  7  8  1  0
  8  9  2  0
  8 10  1  0
 10 11  1  0
 10 17  2  0
 11 12  2  3
 12 13  1  0
 13 14  1  0
 14 15  1  0
 15 16  1  0
 17 18  1  0
 18 19  2  0
 19 20  1  0
M  END
