
     RDKit          3D

 24 25  0  0  0  0  0  0  0  0999 V2000
   -0.5560   -2.1650    1.0110 N   0  0  0  0  0  0  0  0  0  0  0  0
   -0.5140   -0.8750    0.4750 C   0  0  0  0  0  0  0  0  0  0  0  0
    0.8030   -0.8630    0.1950 N   0  0  0  0  0  0  0  0  0  0  0  0
    1.6050    0.1340   -0.3450 C   0  0  0  0  0  0  0  0  0  0  0  0
    0.9310    1.1200   -0.5690 O   0  0  0  0  0  0  0  0  0  0  0  0
    2.9940   -0.1070   -0.5470 C   0  0  0  0  0  0  0  0  0  0  0  0
    3.8600    0.7060   -1.0230 C   0  0  0  0  0  0  0  0  0  0  0  0
    5.2630    0.2260   -1.1420 C   0  0  0  0  0  0  0  0  0  0  0  0
    5.6070   -0.9390   -0.8030 N   0  0  0  0  0  0  0  0  0  0  0  0
    6.2230    1.1400   -1.6620 N   0  0  0  0  0  0  0  0  0  0  0  0
    5.9060    2.4480   -2.0580 C   0  0  0  0  0  0  0  0  0  0  0  0
    6.8410    3.1850   -2.5100 O   0  0  0  0  0  0  0  0  0  0  0  0
    4.5950    2.9350   -1.9620 N   0  0  0  0  0  0  0  0  0  0  0  0
    3.5750    2.0690   -1.4460 C   0  0  0  0  0  0  0  0  0  0  0  0
    2.4060    2.5160   -1.3650 O   0  0  0  0  0  0  0  0  0  0  0  0
   -1.7660   -0.2550    0.4720 C   0  0  0  0  0  0  0  0  0  0  0  0
   -2.0030    0.8890    0.0530 O   0  0  0  0  0  0  0  0  0  0  0  0
   -2.8690   -0.9830    0.9890 O   0  0  0  0  0  0  0  0  0  0  0  0
   -4.1130   -0.3700    0.9860 C   0  0  2  0  0  0  0  0  0  0  0  0
   -4.7060   -0.3070    2.3640 C   0  0  0  0  0  0  0  0  0  0  0  0
   -5.7680   -1.1690    2.4430 O   0  0  0  0  0  0  0  0  0  0  0  0
   -6.2610   -1.3310    1.1590 C   0  0  0  0  0  0  0  0  0  0  0  0
   -5.1350   -1.1580    0.2050 C   0  0  1  0  0  0  0  0  0  0  0  0
   -5.5090   -0.5050   -0.9560 F   0  0  0  0  0  0  0  0  0  0  0  0
  1  2  2  0
  2  3  1  0
  2 16  1  0
  3  4  1  0
  4  5  2  0
  4  6  1  0
  6  7  2  3
  7  8  1  0
  7 14  1  0
  8  9  2  0
  8 10  1  0
 10 11  1  0
 11 12  2  0
 11 13  1  0
 13 14  1  0
 14 15  2  0
 16 17  2  0
 16 18  1  0
 19 18  1  1
 19 20  1  0
 19 23  1  0
 20 21  1  0
 21 22  1  0
 22 23  1  0
 23 24  1  6
M  END
