
     RDKit          3D

 24 25  0  0  0  0  0  0  0  0999 V2000
   -3.1880    3.6470    0.5970 C   0  0  0  0  0  0  0  0  0  0  0  0
   -2.7370    2.3770    1.0250 N   0  0  0  0  0  0  0  0  0  0  0  0
   -1.8660    1.6080    0.3690 C   0  0  0  0  0  0  0  0  0  0  0  0
   -1.3100    2.0290   -0.8500 N   0  0  0  0  0  0  0  0  0  0  0  0
    0.0300    2.1670   -1.2670 C   0  0  0  0  0  0  0  0  0  0  0  0
    0.3540    3.1130   -2.1110 O   0  0  0  0  0  0  0  0  0  0  0  0
    1.1380    1.3810   -0.8770 N   0  0  0  0  0  0  0  0  0  0  0  0
    1.3210   -0.0420   -1.0730 C   0  0  0  0  0  0  0  0  0  0  0  0
    2.2750   -0.5430   -0.0550 C   0  0  1  0  0  0  0  0  0  0  0  0
    3.6940   -0.3340   -0.6210 C   0  0  0  0  0  0  0  0  0  0  0  0
    4.5270    0.0780    0.5690 C   0  0  0  0  0  0  0  0  0  0  0  0
    3.6350    0.4590    1.5860 O   0  0  0  0  0  0  0  0  0  0  0  0
    2.3260    0.3020    1.1530 C   0  0  0  0  0  0  0  0  0  0  0  0
    1.3600    0.8340    1.7520 O   0  0  0  0  0  0  0  0  0  0  0  0
    2.1180   -1.9590    0.2530 N   0  0  0  0  0  0  0  0  0  0  0  0
    1.0740   -2.7940   -0.1430 C   0  0  0  0  0  0  0  0  0  0  0  0
    1.3650   -3.9130   -0.6790 O   0  0  0  0  0  0  0  0  0  0  0  0
   -0.3220   -2.5490   -0.0220 N   0  0  0  0  0  0  0  0  0  0  0  0
   -0.9240   -1.8970    1.1130 C   0  0  0  0  0  0  0  0  0  0  0  0
   -1.9110   -0.8920    0.5840 C   0  0  1  0  0  0  0  0  0  0  0  0
   -3.1710   -1.3430    0.9680 O   0  0  0  0  0  0  0  0  0  0  0  0
   -3.9880   -1.6130   -0.1250 C   0  0  0  0  0  0  0  0  0  0  0  0
   -5.2240   -2.0550    0.2270 F   0  0  0  0  0  0  0  0  0  0  0  0
   -1.6090    0.4130    1.0260 O   0  0  0  0  0  0  0  0  0  0  0  0
  1  2  1  0
  2  3  2  3
  3  4  1  0
  3 24  1  0
  4  5  1  0
  5  6  2  0
  5  7  1  0
  7  8  1  0
  9  8  1  6
  9 10  1  0
  9 13  1  0
  9 15  1  0
 10 11  1  0
 11 12  1  0
 12 13  1  0
 13 14  2  0
 15 16  1  0
 16 17  2  0
 16 18  1  0
 18 19  1  0
 19 20  1  0
 20 21  1  1
 20 24  1  0
 21 22  1  0
 22 23  1  0
M  END
