
     RDKit          3D

  9  9  0  0  0  0  0  0  0  0999 V2000
    2.6850    0.2600   -0.0410 N   0  0  0  0  0  0  0  0  0  0  0  0
    1.5180   -0.1940   -0.7640 C   0  0  0  0  0  0  0  0  0  0  0  0
    0.3080    0.4150   -0.1440 C   0  0  0  0  0  0  0  0  0  0  0  0
   -0.7150   -0.2220    0.4000 C   0  0  0  0  0  0  0  0  0  0  0  0
   -0.9190   -1.6720    0.5310 C   0  0  0  0  0  0  0  0  0  0  0  0
   -2.0890   -2.1020   -0.1300 O   0  0  0  0  0  0  0  0  0  0  0  0
   -1.6240    0.7220    0.8570 O   0  0  0  0  0  0  0  0  0  0  0  0
   -1.2930    1.9990    0.2910 C   0  0  0  0  0  0  0  0  0  0  0  0
    0.0580    1.7940   -0.0370 O   0  0  0  0  0  0  0  0  0  0  0  0
  1  2  1  0
  2  3  1  0
  3  4  2  0
  3  9  1  0
  4  5  1  0
  4  7  1  0
  5  6  1  0
  7  8  1  0
  8  9  1  0
M  END
