
     RDKit          3D

 22 24  0  0  0  0  0  0  0  0999 V2000
    4.9470    1.1080    2.5840 N   0  0  0  0  0  0  0  0  0  0  0  0
    3.8440    0.6930    1.8010 C   0  0  0  0  0  0  0  0  0  0  0  0
    3.2330    1.4870    0.9050 N   0  0  0  0  0  0  0  0  0  0  0  0
    2.1930    1.1150    0.1580 C   0  0  0  0  0  0  0  0  0  0  0  0
    1.5620    1.9660   -0.7810 N   0  0  0  0  0  0  0  0  0  0  0  0
    1.6890   -0.1620    0.2920 C   0  0  0  0  0  0  0  0  0  0  0  0
    0.6180   -0.5980   -0.4530 C   0  0  0  0  0  0  0  0  0  0  0  0
    0.1580   -1.8900   -0.2750 C   0  0  0  0  0  0  0  0  0  0  0  0
   -1.0010   -2.4040   -1.0620 C   0  0  0  0  0  0  0  0  0  0  0  0
   -1.6570   -1.3560   -1.7740 N   0  0  0  0  0  0  0  0  0  0  0  0
   -2.3150   -0.2600   -1.1550 C   0  0  0  0  0  0  0  0  0  0  0  0
   -2.3930   -0.1700    0.2110 C   0  0  0  0  0  0  0  0  0  0  0  0
   -3.0440    0.9020    0.8330 C   0  0  0  0  0  0  0  0  0  0  0  0
   -3.1240    0.9840    2.5740 Cl  0  0  0  0  0  0  0  0  0  0  0  0
   -3.6300    1.9040    0.0880 C   0  0  0  0  0  0  0  0  0  0  0  0
   -3.5460    1.8040   -1.2870 C   0  0  0  0  0  0  0  0  0  0  0  0
   -2.9020    0.7440   -1.8960 C   0  0  0  0  0  0  0  0  0  0  0  0
   -2.7980    0.6200   -3.6400 Cl  0  0  0  0  0  0  0  0  0  0  0  0
    0.7960   -2.6910    0.6490 C   0  0  0  0  0  0  0  0  0  0  0  0
    1.8400   -2.2590    1.3710 N   0  0  0  0  0  0  0  0  0  0  0  0
    2.3070   -0.9980    1.2120 C   0  0  0  0  0  0  0  0  0  0  0  0
    3.3650   -0.5560    1.9430 N   0  0  0  0  0  0  0  0  0  0  0  0
  1  2  1  0
  2  3  2  0
  2 22  1  0
  3  4  1  0
  4  5  1  0
  4  6  2  0
  6  7  1  0
  6 21  1  0
  7  8  2  0
  8  9  1  0
  8 19  1  0
  9 10  1  0
 10 11  1  0
 11 12  2  0
 11 17  1  0
 12 13  1  0
 13 14  1  0
 13 15  2  0
 15 16  1  0
 16 17  2  0
 17 18  1  0
 19 20  2  0
 20 21  1  0
 21 22  2  0
M  END
