
     RDKit          3D

  9  9  0  0  0  0  0  0  0  0999 V2000
   -3.3020    0.4390    0.0130 C   0  0  0  0  0  0  0  0  0  0  0  0
   -1.9140    0.5740    0.2400 O   0  0  0  0  0  0  0  0  0  0  0  0
   -0.9630   -0.2040   -0.3990 C   0  0  0  0  0  0  0  0  0  0  0  0
   -1.3750   -1.0630   -1.2140 O   0  0  0  0  0  0  0  0  0  0  0  0
    0.4840   -0.0370   -0.1370 C   0  0  0  0  0  0  0  0  0  0  0  0
    1.4310   -0.7500   -0.7170 C   0  0  0  0  0  0  0  0  0  0  0  0
    2.7130   -0.3370   -0.2440 N   0  0  0  0  0  0  0  0  0  0  0  0
    2.4170    0.4040    0.9660 C   0  0  0  0  0  0  0  0  0  0  0  0
    1.0990    0.8410    0.7100 O   0  0  0  0  0  0  0  0  0  0  0  0
  1  2  1  0
  2  3  1  0
  3  4  2  0
  3  5  1  0
  5  6  2  0
  5  9  1  0
  6  7  1  0
  7  8  1  0
  8  9  1  0
M  END
