
     RDKit          3D

  9  9  0  0  0  0  0  0  0  0999 V2000
   -1.5360   -1.1250   -0.2570 C   0  0  0  0  0  0  0  0  0  0  0  0
   -0.7850    0.1520   -0.0060 C   0  0  1  0  0  0  0  0  0  0  0  0
   -1.6250    1.3800   -0.2780 C   0  0  0  0  0  0  0  0  0  0  0  0
   -0.3010    0.2430    1.3300 O   0  0  0  0  0  0  0  0  0  0  0  0
    1.0850    0.1790    1.2750 C   0  0  0  0  0  0  0  0  0  0  0  0
    1.9460    0.5370    2.1190 O   0  0  0  0  0  0  0  0  0  0  0  0
    1.3740   -0.4330   -0.0550 C   0  0  2  0  0  0  0  0  0  0  0  0
    2.6680   -0.0890   -0.5580 N   0  0  0  0  0  0  0  0  0  0  0  0
    0.3410    0.1450   -0.8280 O   0  0  0  0  0  0  0  0  0  0  0  0
  2  1  1  1
  2  3  1  0
  2  4  1  0
  2  9  1  0
  4  5  1  0
  5  6  2  0
  5  7  1  0
  7  8  1  6
  7  9  1  0
M  END
