
     RDKit          3D

 11 11  0  0  0  0  0  0  0  0999 V2000
   -2.7690    1.2680   -0.5510 N   0  0  0  0  0  0  0  0  0  0  0  0
   -1.3700    1.0340   -0.4670 C   0  0  0  0  0  0  0  0  0  0  0  0
   -0.8260   -0.0250    0.0610 C   0  0  0  0  0  0  0  0  0  0  0  0
    0.6160   -0.1580    0.0920 C   0  0  0  0  0  0  0  0  0  0  0  0
    1.2950   -1.2440    0.6320 C   0  0  0  0  0  0  0  0  0  0  0  0
    2.6260   -0.9800    0.4620 C   0  0  0  0  0  0  0  0  0  0  0  0
    2.7150    0.2420   -0.1660 C   0  0  0  0  0  0  0  0  0  0  0  0
    1.4890    0.7370   -0.3880 N   0  0  0  0  0  0  0  0  0  0  0  0
   -1.6650   -1.0280    0.5970 N   0  0  0  0  0  0  0  0  0  0  0  0
   -1.7230   -2.1180    0.0020 O   0  0  0  0  0  0  0  0  0  0  0  0
   -2.4230   -0.8770    1.7330 O   0  0  0  0  0  0  0  0  0  0  0  0
  1  2  1  0
  2  3  2  3
  3  4  1  0
  3  9  1  0
  4  5  2  0
  4  8  1  0
  5  6  1  0
  6  7  2  0
  7  8  1  0
  9 10  2  0
  9 11  1  0
M  CHG  2   9   1  11  -1
M  END
