
     RDKit          3D

 11 12  0  0  0  0  0  0  0  0999 V2000
    3.6240   -0.5110   -0.2900 O   0  0  0  0  0  0  0  0  0  0  0  0
    2.3860   -0.3430   -0.1920 C   0  0  0  0  0  0  0  0  0  0  0  0
    1.8130    0.8340    0.1010 N   0  0  0  0  0  0  0  0  0  0  0  0
    0.4710    0.6500    0.1240 C   0  0  0  0  0  0  0  0  0  0  0  0
   -0.6410    1.4300    0.3540 C   0  0  0  0  0  0  0  0  0  0  0  0
   -1.9270    0.9420    0.3060 C   0  0  0  0  0  0  0  0  0  0  0  0
   -2.1280   -0.3660    0.0200 N   0  0  0  0  0  0  0  0  0  0  0  0
   -3.4250   -0.8770   -0.0330 O   0  0  0  0  0  0  0  0  0  0  0  0
   -1.0850   -1.1730   -0.2130 C   0  0  0  0  0  0  0  0  0  0  0  0
    0.2040   -0.6930   -0.1670 C   0  0  0  0  0  0  0  0  0  0  0  0
    1.4170   -1.2510   -0.3510 N   0  0  0  0  0  0  0  0  0  0  0  0
  1  2  2  0
  2  3  1  0
  2 11  1  0
  3  4  1  0
  4  5  2  0
  4 10  1  0
  5  6  1  0
  6  7  2  0
  7  8  1  0
  7  9  1  0
  9 10  2  0
 10 11  1  0
M  CHG  2   7   1   8  -1
M  END
