
     RDKit          3D

 11 12  0  0  0  0  0  0  0  0999 V2000
    3.2520   -1.4700   -0.4620 O   0  0  0  0  0  0  0  0  0  0  0  0
    2.2210   -0.7570   -0.3540 C   0  0  0  0  0  0  0  0  0  0  0  0
    1.1040   -1.3070    0.1310 N   0  0  0  0  0  0  0  0  0  0  0  0
   -0.0190   -0.5800    0.2610 C   0  0  0  0  0  0  0  0  0  0  0  0
   -0.0500    0.7710   -0.1060 C   0  0  0  0  0  0  0  0  0  0  0  0
    1.1300    1.2900   -0.6010 C   0  0  0  0  0  0  0  0  0  0  0  0
    1.1210    2.5220   -0.9420 O   0  0  0  0  0  0  0  0  0  0  0  0
    2.2590    0.5560   -0.7320 N   0  0  0  0  0  0  0  0  0  0  0  0
   -1.3510    1.2940    0.1340 N   0  0  0  0  0  0  0  0  0  0  0  0
   -2.2510    0.1310    0.1720 C   0  0  0  0  0  0  0  0  0  0  0  0
   -1.3760   -0.9220    0.7590 C   0  0  0  0  0  0  0  0  0  0  0  0
  1  2  2  0
  2  3  1  0
  2  8  1  0
  3  4  1  0
  4  5  2  0
  4 11  1  0
  5  6  1  0
  5  9  1  0
  6  7  2  0
  6  8  1  0
  9 10  1  0
 10 11  1  0
M  END
