
     RDKit          3D

 24 26  0  0  0  0  0  0  0  0999 V2000
    5.5940   -2.5420   -0.9490 C   0  0  0  0  0  0  0  0  0  0  0  0
    4.9250   -1.3650   -1.3550 N   0  0  0  0  0  0  0  0  0  0  0  0
    4.1620   -0.5780   -0.3970 C   0  0  0  0  0  0  0  0  0  0  0  0
    3.0150   -1.0480    0.0300 C   0  0  0  0  0  0  0  0  0  0  0  0
    2.1570   -0.3690    0.9810 C   0  0  0  0  0  0  0  0  0  0  0  0
    0.9850   -0.9120    1.3780 O   0  0  0  0  0  0  0  0  0  0  0  0
   -0.2940   -0.3720    1.3430 C   0  0  0  0  0  0  0  0  0  0  0  0
   -0.6910   -0.0370   -0.0770 C   0  0  0  0  0  0  0  0  0  0  0  0
   -2.0250    0.5300   -0.1450 N   0  0  0  0  0  0  0  0  0  0  0  0
   -2.1290    1.8550   -0.0440 C   0  0  0  0  0  0  0  0  0  0  0  0
   -1.0950    2.5840    0.1040 O   0  0  0  0  0  0  0  0  0  0  0  0
   -3.6980    2.5080   -0.1230 S   0  0  0  0  0  0  0  0  0  0  0  0
   -4.9000    1.2960   -0.3250 C   0  0  0  0  0  0  0  0  0  0  0  0
   -6.2360    1.5980   -0.4130 C   0  0  0  0  0  0  0  0  0  0  0  0
   -7.1640    0.5690   -0.5760 C   0  0  0  0  0  0  0  0  0  0  0  0
   -6.6920   -0.7030   -0.6420 C   0  0  0  0  0  0  0  0  0  0  0  0
   -5.3480   -0.9840   -0.5510 C   0  0  0  0  0  0  0  0  0  0  0  0
   -4.3800    0.0200   -0.3860 C   0  0  0  0  0  0  0  0  0  0  0  0
   -3.0560   -0.3080   -0.3020 C   0  0  0  0  0  0  0  0  0  0  0  0
   -2.8150   -1.5730   -0.3860 O   0  0  0  0  0  0  0  0  0  0  0  0
    2.5970    0.7920    1.4180 C   0  0  0  0  0  0  0  0  0  0  0  0
    1.7860    1.4570    2.3310 O   0  0  0  0  0  0  0  0  0  0  0  0
    3.8490    1.4200    1.0230 C   0  0  0  0  0  0  0  0  0  0  0  0
    4.7020    0.7090    0.0480 C   0  0  0  0  0  0  0  0  0  0  0  0
  1  2  1  0
  2  3  1  0
  3  4  2  0
  3 24  1  0
  4  5  1  0
  5  6  1  0
  5 21  2  0
  6  7  1  0
  7  8  1  0
  8  9  1  0
  9 10  1  0
  9 19  1  0
 10 11  2  0
 10 12  1  0
 12 13  1  0
 13 14  2  0
 13 18  1  0
 14 15  1  0
 15 16  2  0
 16 17  1  0
 17 18  2  0
 18 19  1  0
 19 20  2  0
 21 22  1  0
 21 23  1  0
 23 24  1  0
M  END
