
     RDKit          3D

 12 13  0  0  0  0  0  0  0  0999 V2000
   -3.6310   -0.6330   -0.0860 N   0  0  0  0  0  0  0  0  0  0  0  0
   -2.2970   -0.3650   -0.5890 C   0  0  0  0  0  0  0  0  0  0  0  0
   -1.5890    0.5040    0.3950 C   0  0  0  0  0  0  0  0  0  0  0  0
   -0.2310    0.8790    0.0510 C   0  0  0  0  0  0  0  0  0  0  0  0
    0.2110    2.1000   -0.4310 C   0  0  0  0  0  0  0  0  0  0  0  0
    1.5280    2.0220   -0.6160 N   0  0  0  0  0  0  0  0  0  0  0  0
    2.0060    0.8000   -0.2810 C   0  0  0  0  0  0  0  0  0  0  0  0
    3.2470    0.2100   -0.2800 C   0  0  0  0  0  0  0  0  0  0  0  0
    3.4020   -1.1020    0.1370 C   0  0  0  0  0  0  0  0  0  0  0  0
    2.3070   -1.8020    0.5480 C   0  0  0  0  0  0  0  0  0  0  0  0
    1.0590   -1.2240    0.5530 C   0  0  0  0  0  0  0  0  0  0  0  0
    0.8810    0.0800    0.1420 C   0  0  0  0  0  0  0  0  0  0  0  0
  1  2  1  0
  2  3  1  0
  3  4  1  0
  4  5  2  0
  4 12  1  0
  5  6  1  0
  6  7  1  0
  7  8  2  0
  7 12  1  0
  8  9  1  0
  9 10  2  0
 10 11  1  0
 11 12  2  0
M  CHG  1   1   1
M  END
