
     RDKit          3D

 24 26  0  0  0  0  0  0  0  0999 V2000
    7.3900    0.2000   -0.0430 C   0  0  0  0  0  0  0  0  0  0  0  0
    5.9680    0.6110    0.2280 C   0  0  0  0  0  0  0  0  0  0  0  0
    5.2460    0.3410   -1.0310 O   0  0  0  0  0  0  0  0  0  0  0  0
    4.0270   -0.6450   -0.6390 S   0  0  1  0  0  0  0  0  0  0  0  0
    4.0950   -1.7540   -1.7740 O   0  0  0  0  0  0  0  0  0  0  0  0
    4.4800   -1.4470    0.6410 O   0  0  0  0  0  0  0  0  0  0  0  0
    2.4400   -0.1610   -0.4670 C   0  0  0  0  0  0  0  0  0  0  0  0
    1.9850    0.4100    0.7130 C   0  0  0  0  0  0  0  0  0  0  0  0
    0.6420    0.5780    0.8650 C   0  0  0  0  0  0  0  0  0  0  0  0
    0.0720    1.1960    1.9510 C   0  0  0  0  0  0  0  0  0  0  0  0
   -1.2850    1.4560    2.1230 C   0  0  0  0  0  0  0  0  0  0  0  0
   -2.0930    1.0260    1.0860 C   0  0  0  0  0  0  0  0  0  0  0  0
   -1.5680    0.3870   -0.0280 C   0  0  0  0  0  0  0  0  0  0  0  0
   -0.2260    0.1830   -0.1570 C   0  0  0  0  0  0  0  0  0  0  0  0
    0.2210   -0.3590   -1.2960 N   0  0  0  0  0  0  0  0  0  0  0  0
    1.5330   -0.5380   -1.4770 C   0  0  0  0  0  0  0  0  0  0  0  0
    2.0080   -1.0610   -2.5680 O   0  0  0  0  0  0  0  0  0  0  0  0
   -2.3010   -0.6040   -0.8580 C   0  0  0  0  0  0  0  0  0  0  0  0
   -3.5920   -0.7390   -1.0570 C   0  0  0  0  0  0  0  0  0  0  0  0
   -3.9970   -1.8840   -1.9480 C   0  0  0  0  0  0  0  0  0  0  0  0
   -4.6610    0.0790   -0.5150 C   0  0  0  0  0  0  0  0  0  0  0  0
   -6.0110   -0.1680   -1.1320 C   0  0  0  0  0  0  0  0  0  0  0  0
   -4.6110    1.0200    0.4520 C   0  0  0  0  0  0  0  0  0  0  0  0
   -3.4490    1.4440    1.1950 N   0  0  0  0  0  0  0  0  0  0  0  0
  1  2  1  0
  2  3  1  0
  4  3  1  6
  4  5  2  0
  4  6  2  0
  4  7  1  0
  7  8  2  0
  7 16  1  0
  8  9  1  0
  9 10  2  0
  9 14  1  0
 10 11  1  0
 11 12  2  0
 12 13  1  0
 12 24  1  0
 13 14  2  0
 13 18  1  0
 14 15  1  0
 15 16  1  0
 16 17  2  0
 18 19  2  0
 19 20  1  0
 19 21  1  0
 21 22  1  0
 21 23  2  0
 23 24  1  0
M  END
