
     RDKit          3D

 18 19  0  0  0  0  0  0  0  0999 V2000
    4.6310    1.9940    1.1650 O   0  0  0  0  0  0  0  0  0  0  0  0
    4.0030    1.0450    0.5520 C   0  0  0  0  0  0  0  0  0  0  0  0
    2.5770    0.8220    0.8540 C   0  0  0  0  0  0  0  0  0  0  0  0
    2.0420   -0.2890    0.0670 C   0  0  0  0  0  0  0  0  0  0  0  0
    0.6510   -0.6520    0.2470 N   0  0  0  0  0  0  0  0  0  0  0  0
   -0.3930    0.2450   -0.0290 C   0  0  0  0  0  0  0  0  0  0  0  0
    0.0230    1.4000   -0.4440 O   0  0  0  0  0  0  0  0  0  0  0  0
   -1.8060    0.0380    0.0930 C   0  0  0  0  0  0  0  0  0  0  0  0
   -2.6000    1.1920    0.0500 C   0  0  0  0  0  0  0  0  0  0  0  0
   -1.8710    2.7980   -0.1180 Cl  0  0  0  0  0  0  0  0  0  0  0  0
   -3.9640    1.0690    0.1420 C   0  0  0  0  0  0  0  0  0  0  0  0
   -4.5910   -0.1520    0.2750 C   0  0  0  0  0  0  0  0  0  0  0  0
   -3.8350   -1.2930    0.3190 C   0  0  0  0  0  0  0  0  0  0  0  0
   -2.4380   -1.1680    0.2250 C   0  0  0  0  0  0  0  0  0  0  0  0
   -1.5160   -2.6640    0.2490 Cl  0  0  0  0  0  0  0  0  0  0  0  0
    2.7410   -0.9950   -0.7970 C   0  0  0  0  0  0  0  0  0  0  0  0
    4.1570   -0.7010   -1.0330 C   0  0  0  0  0  0  0  0  0  0  0  0
    4.6980    0.2560   -0.3830 N   0  0  0  0  0  0  0  0  0  0  0  0
  1  2  2  0
  2  3  1  0
  2 18  1  0
  3  4  1  0
  4  5  1  0
  4 16  2  0
  5  6  1  0
  6  7  2  0
  6  8  1  0
  8  9  2  0
  8 14  1  0
  9 10  1  0
  9 11  1  0
 11 12  2  0
 12 13  1  0
 13 14  2  0
 14 15  1  0
 16 17  1  0
 17 18  2  0
M  END
