
     RDKit          3D

 15 15  0  0  0  0  0  0  0  0999 V2000
    5.0810    0.6580   -1.1010 C   0  0  0  0  0  0  0  0  0  0  0  0
    4.0750    0.2030   -0.2190 O   0  0  0  0  0  0  0  0  0  0  0  0
    2.8090    0.7500   -0.3120 C   0  0  0  0  0  0  0  0  0  0  0  0
    2.6130    1.6310   -1.1840 O   0  0  0  0  0  0  0  0  0  0  0  0
    1.7110    0.3300    0.5680 C   0  0  0  0  0  0  0  0  0  0  0  0
    0.5200    0.8700    0.4520 C   0  0  0  0  0  0  0  0  0  0  0  0
   -0.5980    0.4590    1.3310 C   0  0  0  0  0  0  0  0  0  0  0  0
   -1.6940   -0.0810    0.4440 C   0  0  1  0  0  0  0  0  0  0  0  0
   -1.2870   -1.1760   -0.3090 O   0  0  0  0  0  0  0  0  0  0  0  0
   -2.8810   -0.5700    1.2870 C   0  0  0  0  0  0  0  0  0  0  0  0
   -3.9110   -0.7060    0.1660 C   0  0  0  0  0  0  0  0  0  0  0  0
   -3.8180    0.6700   -0.4580 C   0  0  0  0  0  0  0  0  0  0  0  0
   -2.3490    0.9950   -0.3770 C   0  0  0  0  0  0  0  0  0  0  0  0
    1.9210   -0.6430    1.5320 O   0  0  0  0  0  0  0  0  0  0  0  0
    2.3810   -1.9250    1.2020 C   0  0  0  0  0  0  0  0  0  0  0  0
  1  2  1  0
  2  3  1  0
  3  4  2  0
  3  5  1  0
  5  6  2  3
  5 14  1  0
  6  7  1  0
  7  8  1  0
  8  9  1  6
  8 10  1  0
  8 13  1  0
 10 11  1  0
 11 12  1  0
 12 13  1  0
 14 15  1  0
M  END
