
     RDKit          3D

 15 15  0  0  0  0  0  0  0  0999 V2000
   -3.3400    2.2490   -0.5180 C   0  0  0  0  0  0  0  0  0  0  0  0
   -2.1690    1.3720   -0.2940 C   0  0  0  0  0  0  0  0  0  0  0  0
   -2.2700    0.0860   -0.0370 C   0  0  0  0  0  0  0  0  0  0  0  0
   -3.5580   -0.6500    0.0600 C   0  0  0  0  0  0  0  0  0  0  0  0
   -3.1610   -1.9860   -0.0830 O   0  0  0  0  0  0  0  0  0  0  0  0
   -1.8170   -2.0740    0.1620 C   0  0  0  0  0  0  0  0  0  0  0  0
   -1.1040   -3.3790    0.3620 C   0  0  0  0  0  0  0  0  0  0  0  0
   -1.2280   -0.8990    0.2030 C   0  0  0  0  0  0  0  0  0  0  0  0
    0.1880   -0.6080    0.4410 C   0  0  0  0  0  0  0  0  0  0  0  0
    1.0240   -1.5420    0.6420 O   0  0  0  0  0  0  0  0  0  0  0  0
    0.6830    0.6840    0.4580 O   0  0  0  0  0  0  0  0  0  0  0  0
    2.0200    0.9950    0.6800 C   0  0  0  0  0  0  0  0  0  0  0  0
    2.9930    0.4320   -0.3030 C   0  0  0  0  0  0  0  0  0  0  0  0
    4.3860    0.9040    0.1390 C   0  0  0  0  0  0  0  0  0  0  0  0
    5.3420    0.4030   -0.7510 O   0  0  0  0  0  0  0  0  0  0  0  0
  1  2  1  0
  2  3  2  3
  3  4  1  0
  3  8  1  0
  4  5  1  0
  5  6  1  0
  6  7  1  0
  6  8  2  0
  8  9  1  0
  9 10  2  0
  9 11  1  0
 11 12  1  0
 12 13  1  0
 13 14  1  0
 14 15  1  0
M  END
