
     RDKit          3D

 15 15  0  0  0  0  0  0  0  0999 V2000
    3.9570    1.6380    0.8430 C   0  0  0  0  0  0  0  0  0  0  0  0
    3.3840    0.3330    0.7640 O   0  0  0  0  0  0  0  0  0  0  0  0
    2.0070    0.2230    0.4050 C   0  0  0  0  0  0  0  0  0  0  0  0
    1.4650    1.3050    0.2010 O   0  0  0  0  0  0  0  0  0  0  0  0
    1.3610   -1.0440    0.3050 C   0  0  0  0  0  0  0  0  0  0  0  0
    0.2120   -1.5030    0.0240 C   0  0  0  0  0  0  0  0  0  0  0  0
   -1.1220   -1.1490   -0.3530 C   0  0  0  0  0  0  0  0  0  0  0  0
   -1.4700    0.2710   -0.5600 C   0  0  2  0  0  0  0  0  0  0  0  0
   -0.7300    0.8880   -1.5630 O   0  0  0  0  0  0  0  0  0  0  0  0
   -1.5180    1.0160    0.7300 C   0  0  0  0  0  0  0  0  0  0  0  0
   -2.9680    0.9870    1.1440 C   0  0  0  0  0  0  0  0  0  0  0  0
   -3.6350    1.2640   -0.1950 C   0  0  0  0  0  0  0  0  0  0  0  0
   -2.9270    0.2950   -1.0930 C   0  0  0  0  0  0  0  0  0  0  0  0
    2.3220   -2.1260    0.6230 O   0  0  0  0  0  0  0  0  0  0  0  0
    3.2270   -2.4450   -0.4190 C   0  0  0  0  0  0  0  0  0  0  0  0
  1  2  1  0
  2  3  1  0
  3  4  2  0
  3  5  1  0
  5  6  2  3
  5 14  1  0
  6  7  1  0
  7  8  1  0
  8  9  1  6
  8 10  1  0
  8 13  1  0
 10 11  1  0
 11 12  1  0
 12 13  1  0
 14 15  1  0
M  END
