
     RDKit          3D

 15 15  0  0  0  0  0  0  0  0999 V2000
    6.4420   -0.8530   -0.0830 O   0  0  0  0  0  0  0  0  0  0  0  0
    5.1070   -0.7980    0.2820 C   0  0  0  0  0  0  0  0  0  0  0  0
    4.4630    0.5090   -0.1360 C   0  0  0  0  0  0  0  0  0  0  0  0
    2.9860    0.5070    0.2970 C   0  0  0  0  0  0  0  0  0  0  0  0
    2.3990   -0.5520   -0.3330 O   0  0  0  0  0  0  0  0  0  0  0  0
    1.0770   -0.7860   -0.0870 C   0  0  0  0  0  0  0  0  0  0  0  0
    0.1200    0.2940   -0.4360 C   0  0  2  0  0  0  0  0  0  0  0  0
    0.3580    1.4610    0.2650 O   0  0  0  0  0  0  0  0  0  0  0  0
   -1.3260   -0.1000   -0.1460 C   0  0  2  0  0  0  0  0  0  0  0  0
   -2.2560    0.8570   -0.8120 C   0  0  0  0  0  0  0  0  0  0  0  0
   -3.4380    0.1000   -1.3730 C   0  0  0  0  0  0  0  0  0  0  0  0
   -4.4440   -0.0670   -0.2900 C   0  0  0  0  0  0  0  0  0  0  0  0
   -3.9150   -0.7540    0.9370 C   0  0  0  0  0  0  0  0  0  0  0  0
   -2.8190   -0.0100    1.6270 C   0  0  0  0  0  0  0  0  0  0  0  0
   -1.5520   -0.3120    1.1820 O   0  0  0  0  0  0  0  0  0  0  0  0
  1  2  1  0
  2  3  1  0
  3  4  1  0
  4  5  1  0
  5  6  1  0
  6  7  1  0
  7  8  1  1
  7  9  1  0
  9 10  1  1
  9 15  1  0
 10 11  1  0
 11 12  1  0
 12 13  1  0
 13 14  1  0
 14 15  1  0
M  END
