
     RDKit          3D

 15 15  0  0  0  0  0  0  0  0999 V2000
    5.5970    0.7120   -0.6990 C   0  0  0  0  0  0  0  0  0  0  0  0
    4.9160   -0.4010   -0.2290 O   0  0  0  0  0  0  0  0  0  0  0  0
    3.9490   -0.0820    0.7100 C   0  0  0  0  0  0  0  0  0  0  0  0
    2.9260    0.8240    0.1420 C   0  0  0  0  0  0  0  0  0  0  0  0
    1.6490    0.5370    0.0610 C   0  0  0  0  0  0  0  0  0  0  0  0
    0.9370   -0.6710    0.4810 C   0  0  0  0  0  0  0  0  0  0  0  0
    0.2860   -1.3140   -0.5420 O   0  0  0  0  0  0  0  0  0  0  0  0
   -0.6590   -0.6130   -1.2240 C   0  0  0  0  0  0  0  0  0  0  0  0
   -1.8210   -0.1080   -0.4170 C   0  0  2  0  0  0  0  0  0  0  0  0
   -1.5130    0.7590    0.5920 O   0  0  0  0  0  0  0  0  0  0  0  0
   -2.5310   -1.3030    0.1580 C   0  0  0  0  0  0  0  0  0  0  0  0
   -3.9400   -1.0380    0.5630 C   0  0  0  0  0  0  0  0  0  0  0  0
   -4.6360   -0.2000   -0.2750 O   0  0  0  0  0  0  0  0  0  0  0  0
   -3.9940    0.9740   -0.5830 C   0  0  0  0  0  0  0  0  0  0  0  0
   -2.7480    0.6130   -1.3770 C   0  0  0  0  0  0  0  0  0  0  0  0
  1  2  1  0
  2  3  1  0
  3  4  1  0
  4  5  2  3
  5  6  1  0
  6  7  1  0
  7  8  1  0
  8  9  1  0
  9 10  1  1
  9 11  1  0
  9 15  1  0
 11 12  1  0
 12 13  1  0
 13 14  1  0
 14 15  1  0
M  END
