
     RDKit          3D

 15 14  0  0  0  0  0  0  0  0999 V2000
    0.0620   -2.2930    1.7630 C   0  0  0  0  0  0  0  0  0  0  0  0
   -1.3470   -2.0430    1.4830 C   0  0  0  0  0  0  0  0  0  0  0  0
   -1.8240   -0.9980    0.8770 C   0  0  0  0  0  0  0  0  0  0  0  0
   -3.3120   -0.8530    0.6470 C   0  0  0  0  0  0  0  0  0  0  0  0
   -1.0190    0.0890    0.3560 C   0  0  0  0  0  0  0  0  0  0  0  0
   -1.6070    1.1300   -0.2400 C   0  0  0  0  0  0  0  0  0  0  0  0
   -0.9120    2.2680   -0.7910 C   0  0  0  0  0  0  0  0  0  0  0  0
   -1.5610    3.2630   -1.3750 C   0  0  0  0  0  0  0  0  0  0  0  0
   -2.9350    3.2060   -1.4560 O   0  0  0  0  0  0  0  0  0  0  0  0
    0.3620    0.1600    0.4140 O   0  0  0  0  0  0  0  0  0  0  0  0
    1.1260   -0.2660   -0.6800 C   0  0  0  0  0  0  0  0  0  0  0  0
    2.5840   -0.0750   -0.3430 C   0  0  0  0  0  0  0  0  0  0  0  0
    2.9440    0.3950    0.7580 O   0  0  0  0  0  0  0  0  0  0  0  0
    3.5750   -0.4170   -1.2520 O   0  0  0  0  0  0  0  0  0  0  0  0
    4.9250   -0.2250   -0.9060 C   0  0  0  0  0  0  0  0  0  0  0  0
  1  2  1  0
  2  3  2  3
  3  4  1  0
  3  5  1  0
  5  6  2  3
  5 10  1  0
  6  7  1  0
  7  8  2  3
  8  9  1  0
 10 11  1  0
 11 12  1  0
 12 13  2  0
 12 14  1  0
 14 15  1  0
M  END
