
     RDKit          3D

 37 41  0  0  0  0  0  0  0  0999 V2000
   -3.0340   -1.4450    1.2320 O   0  0  0  0  0  0  0  0  0  0  0  0
   -2.2850   -0.6200    0.6190 C   0  0  0  0  0  0  0  0  0  0  0  0
   -1.0910   -1.1310   -0.0320 C   0  0  0  0  0  0  0  0  0  0  0  0
   -0.0000   -1.6370    0.8640 C   0  0  1  0  0  0  0  0  0  0  0  0
   -0.4040   -2.7850    1.7560 C   0  0  0  0  0  0  0  0  0  0  0  0
   -0.3940   -4.1070    1.0450 C   0  0  0  0  0  0  0  0  0  0  0  0
    0.8190   -4.3540    0.2160 C   0  0  0  0  0  0  0  0  0  0  0  0
    0.9640   -3.1900   -0.7880 C   0  0  0  0  0  0  0  0  0  0  0  0
    1.1270   -2.0310    0.0200 N   0  0  0  0  0  0  0  0  0  0  0  0
    2.3180   -1.2720    0.0380 C   0  0  0  0  0  0  0  0  0  0  0  0
    2.3800   -0.2330    0.8040 O   0  0  0  0  0  0  0  0  0  0  0  0
    3.4730   -1.5470   -0.7170 N   0  0  0  0  0  0  0  0  0  0  0  0
    4.6890   -0.8250   -0.7410 C   0  0  0  0  0  0  0  0  0  0  0  0
    5.7850   -1.4580   -1.3530 C   0  0  0  0  0  0  0  0  0  0  0  0
    7.0240   -0.8920   -1.4670 C   0  0  0  0  0  0  0  0  0  0  0  0
    7.2220    0.3630   -0.9590 C   0  0  0  0  0  0  0  0  0  0  0  0
    6.1710    1.0250   -0.3470 C   0  0  0  0  0  0  0  0  0  0  0  0
    6.3170    2.3280    0.1980 N   0  0  0  0  0  0  0  0  0  0  0  0
    6.7460    2.6710    1.4200 N   0  0  0  0  0  0  0  0  0  0  0  0
    6.7430    4.0230    1.5480 C   0  0  0  0  0  0  0  0  0  0  0  0
    6.3060    4.5230    0.3870 N   0  0  0  0  0  0  0  0  0  0  0  0
    6.0450    3.4800   -0.4410 C   0  0  0  0  0  0  0  0  0  0  0  0
    5.6190    3.5470   -1.6130 O   0  0  0  0  0  0  0  0  0  0  0  0
    4.9080    0.4260   -0.2410 C   0  0  0  0  0  0  0  0  0  0  0  0
   -2.7240    0.7660    0.6410 N   0  0  0  0  0  0  0  0  0  0  0  0
   -3.9510    0.9700    1.3280 C   0  0  0  0  0  0  0  0  0  0  0  0
   -5.2370    0.8760    0.6470 C   0  0  0  0  0  0  0  0  0  0  0  0
   -6.0560   -0.1150    0.9540 C   0  0  0  0  0  0  0  0  0  0  0  0
   -7.3810   -0.4430    0.4380 C   0  0  0  0  0  0  0  0  0  0  0  0
   -7.9830    0.7290   -0.7020 S   0  0  2  0  0  0  0  0  0  0  0  0
   -9.2830    1.3540   -0.2790 O   0  0  0  0  0  0  0  0  0  0  0  0
   -8.1820    0.0260   -2.0350 O   0  0  0  0  0  0  0  0  0  0  0  0
   -6.7710    1.9360   -0.9470 C   0  0  0  0  0  0  0  0  0  0  0  0
   -5.6280    1.8890   -0.3070 C   0  0  0  0  0  0  0  0  0  0  0  0
   -1.8120    1.7260    0.1020 C   0  0  2  0  0  0  0  0  0  0  0  0
   -2.0260    3.1490    0.0280 C   0  0  0  0  0  0  0  0  0  0  0  0
   -2.2310    2.3790   -1.2550 C   0  0  0  0  0  0  0  0  0  0  0  0
  1  2  2  0
  2  3  1  0
  2 25  1  0
  4  3  1  6
  4  5  1  0
  4  9  1  0
  5  6  1  0
  6  7  1  0
  7  8  1  0
  8  9  1  0
  9 10  1  0
 10 11  2  0
 10 12  1  0
 12 13  1  0
 13 14  2  0
 13 24  1  0
 14 15  1  0
 15 16  2  0
 16 17  1  0
 17 18  1  0
 17 24  2  0
 18 19  1  0
 18 22  1  0
 19 20  2  0
 20 21  1  0
 21 22  1  0
 22 23  2  0
 25 26  1  0
 35 25  1  1
 26 27  1  0
 27 28  2  0
 27 34  1  0
 28 29  1  0
 30 29  1  1
 30 31  2  0
 30 32  2  0
 30 33  1  0
 33 34  2  0
 35 36  1  0
 35 37  1  0
 36 37  1  0
M  END
