
     RDKit          3D

 37 40  0  0  0  0  0  0  0  0999 V2000
   -5.5200   -1.2470    1.7990 C   0  0  0  0  0  0  0  0  0  0  0  0
   -6.0640   -1.7750    0.8200 C   0  0  0  0  0  0  0  0  0  0  0  0
   -7.3630   -2.2310    0.7820 O   0  0  0  0  0  0  0  0  0  0  0  0
   -8.1880   -2.7920   -0.0540 C   0  0  0  0  0  0  0  0  0  0  0  0
   -7.5520   -3.0180   -1.2710 C   0  0  0  0  0  0  0  0  0  0  0  0
   -6.1510   -2.6190   -1.4590 C   0  0  0  0  0  0  0  0  0  0  0  0
   -5.3880   -2.0160   -0.5230 C   0  0  0  0  0  0  0  0  0  0  0  0
   -4.1410   -1.4180   -0.6210 N   0  0  0  0  0  0  0  0  0  0  0  0
   -3.2540   -1.4090   -1.7540 C   0  0  0  0  0  0  0  0  0  0  0  0
   -3.5440   -2.0040   -2.7970 O   0  0  0  0  0  0  0  0  0  0  0  0
   -2.0550   -0.7370   -1.5990 N   0  0  0  0  0  0  0  0  0  0  0  0
   -0.8100   -0.6000   -2.3030 C   0  0  0  0  0  0  0  0  0  0  0  0
   -0.1970    0.6330   -1.3920 C   0  0  0  0  0  0  0  0  0  0  0  0
   -0.7110    1.7890   -1.7250 N   0  0  0  0  0  0  0  0  0  0  0  0
   -0.6290    2.8300   -1.0930 C   0  0  0  0  0  0  0  0  0  0  0  0
   -1.2570    4.1470   -1.0920 C   0  0  0  0  0  0  0  0  0  0  0  0
   -0.8280    4.2680    0.7580 C   0  0  0  0  0  0  0  0  0  0  0  0
   -0.5580    4.3290    1.9120 N   0  0  0  0  0  0  0  0  0  0  0  0
   -1.4350    5.3570   -0.9880 C   0  0  0  0  0  0  0  0  0  0  0  0
   -0.1990    6.2140   -0.5760 C   0  0  0  0  0  0  0  0  0  0  0  0
   -0.2140    7.3880   -0.5450 O   0  0  0  0  0  0  0  0  0  0  0  0
    0.8720    5.4050   -0.2570 O   0  0  0  0  0  0  0  0  0  0  0  0
    2.1310    5.6610    0.1920 C   0  0  0  0  0  0  0  0  0  0  0  0
    0.4490    2.2210    0.3460 S   0  0  0  0  0  0  0  0  0  0  0  0
    0.4610    0.3400   -0.4630 C   0  0  0  0  0  0  0  0  0  0  0  0
    1.2230   -0.4890    0.4860 C   0  0  0  0  0  0  0  0  0  0  0  0
    2.5390   -0.9140    0.4090 C   0  0  0  0  0  0  0  0  0  0  0  0
    2.6820   -2.3970    1.0720 C   0  0  0  0  0  0  0  0  0  0  0  0
    3.9810   -2.6910    1.0900 C   0  0  0  0  0  0  0  0  0  0  0  0
    5.1050   -2.2160    0.7770 C   0  0  0  0  0  0  0  0  0  0  0  0
    5.0090   -0.8150    0.1490 C   0  0  0  0  0  0  0  0  0  0  0  0
    3.7050   -0.5330    0.1360 C   0  0  0  0  0  0  0  0  0  0  0  0
    6.3630   -0.4660   -0.0920 C   0  0  0  0  0  0  0  0  0  0  0  0
    6.5500    0.7020   -0.6260 O   0  0  0  0  0  0  0  0  0  0  0  0
    7.0390   -1.4370    0.3000 N   0  0  0  0  0  0  0  0  0  0  0  0
    6.4570   -2.4320    0.7900 N   0  0  0  0  0  0  0  0  0  0  0  0
    6.9880   -3.6690    1.3610 C   0  0  0  0  0  0  0  0  0  0  0  0
  1  2  2  0
  2  3  1  0
  2  7  1  0
  3  4  1  0
  4  5  2  0
  5  6  1  0
  6  7  2  0
  7  8  1  0
  8  9  1  0
  9 10  2  0
  9 11  1  0
 11 12  1  0
 12 13  1  0
 13 14  1  0
 13 25  2  0
 14 15  2  0
 15 16  1  0
 15 24  1  0
 16 17  1  0
 16 19  2  3
 17 18  3  0
 19 20  1  0
 20 21  2  0
 20 22  1  0
 22 23  1  0
 24 25  1  0
 25 26  1  0
 26 27  1  0
 27 28  2  0
 27 32  1  0
 28 29  1  0
 29 30  2  0
 30 31  1  0
 30 36  1  0
 31 32  2  0
 31 33  1  0
 33 34  2  0
 33 35  1  0
 35 36  1  0
 36 37  1  0
M  END
