
     RDKit          3D

 36 40  0  0  0  0  0  0  0  0999 V2000
   -8.7510    1.5080    0.6870 C   0  0  0  0  0  0  0  0  0  0  0  0
   -7.7350    0.3760    0.4730 C   0  0  2  0  0  0  0  0  0  0  0  0
   -8.4720   -0.6310   -0.4140 C   0  0  0  0  0  0  0  0  0  0  0  0
   -7.4590   -0.1960    1.8250 C   0  0  0  0  0  0  0  0  0  0  0  0
   -6.4360   -1.2380    1.8810 C   0  0  0  0  0  0  0  0  0  0  0  0
   -6.7470   -2.3470    2.4360 O   0  0  0  0  0  0  0  0  0  0  0  0
   -5.1020   -1.2270    1.4040 N   0  0  0  0  0  0  0  0  0  0  0  0
   -4.6160   -0.4860    0.2660 C   0  0  0  0  0  0  0  0  0  0  0  0
   -3.3250   -0.8430   -0.0750 C   0  0  0  0  0  0  0  0  0  0  0  0
   -2.6940   -0.2440   -1.1370 C   0  0  0  0  0  0  0  0  0  0  0  0
   -1.3790   -0.5280   -1.5590 N   0  0  0  0  0  0  0  0  0  0  0  0
   -0.4330   -1.2440   -0.8210 C   0  0  0  0  0  0  0  0  0  0  0  0
   -0.6790   -1.7010    0.3180 O   0  0  0  0  0  0  0  0  0  0  0  0
    0.9400   -1.4620   -1.4450 C   0  0  0  0  0  0  0  0  0  0  0  0
    1.7690   -0.3010   -1.1590 N   0  0  0  0  0  0  0  0  0  0  0  0
    1.7700    0.7580   -1.9980 C   0  0  0  0  0  0  0  0  0  0  0  0
    2.5280    1.8330   -1.7230 N   0  0  0  0  0  0  0  0  0  0  0  0
    3.2860    1.8920   -0.6440 N   0  0  0  0  0  0  0  0  0  0  0  0
    3.3240    0.8740    0.2170 C   0  0  0  0  0  0  0  0  0  0  0  0
    4.3420    0.9900    1.6570 S   0  0  0  0  0  0  0  0  0  0  0  0
    6.0010    0.4220    1.3640 C   0  0  0  0  0  0  0  0  0  0  0  0
    6.2880   -0.9130    1.5340 C   0  0  0  0  0  0  0  0  0  0  0  0
    7.5730   -1.4120    1.3250 C   0  0  0  0  0  0  0  0  0  0  0  0
    8.5790   -0.5460    0.9380 C   0  0  0  0  0  0  0  0  0  0  0  0
    8.3050    0.7910    0.7640 C   0  0  0  0  0  0  0  0  0  0  0  0
    7.0190    1.2650    0.9780 C   0  0  0  0  0  0  0  0  0  0  0  0
    9.3390    1.6230    0.3770 O   0  0  0  0  0  0  0  0  0  0  0  0
   10.4930    1.1740   -0.2640 C   0  0  0  0  0  0  0  0  0  0  0  0
   10.8760   -0.2340    0.0590 C   0  0  0  0  0  0  0  0  0  0  0  0
    9.8790   -0.9760    0.7120 O   0  0  0  0  0  0  0  0  0  0  0  0
    2.5380   -0.2440   -0.0630 C   0  0  0  0  0  0  0  0  0  0  0  0
    2.5920   -1.1860    0.7630 O   0  0  0  0  0  0  0  0  0  0  0  0
   -3.4230    0.7340   -1.8410 C   0  0  0  0  0  0  0  0  0  0  0  0
   -4.6830    1.0990   -1.5280 C   0  0  0  0  0  0  0  0  0  0  0  0
   -5.2890    0.4770   -0.4560 C   0  0  0  0  0  0  0  0  0  0  0  0
   -6.6160    0.9240   -0.2090 N   0  0  0  0  0  0  0  0  0  0  0  0
  2  1  1  1
  2  3  1  0
  2  4  1  0
  2 36  1  0
  4  5  1  0
  5  6  2  0
  5  7  1  0
  7  8  1  0
  8  9  2  0
  8 35  1  0
  9 10  1  0
 10 11  1  0
 10 33  2  0
 11 12  1  0
 12 13  2  0
 12 14  1  0
 14 15  1  0
 15 16  1  0
 15 31  1  0
 16 17  2  0
 17 18  1  0
 18 19  2  0
 19 20  1  0
 19 31  1  0
 20 21  1  0
 21 22  2  0
 21 26  1  0
 22 23  1  0
 23 24  2  0
 24 25  1  0
 24 30  1  0
 25 26  2  0
 25 27  1  0
 27 28  1  0
 28 29  1  0
 29 30  1  0
 31 32  2  0
 33 34  1  0
 34 35  2  0
 35 36  1  0
M  END
