
     RDKit          3D

 37 40  0  0  0  0  0  0  0  0999 V2000
   -7.8850   -2.4160    2.6590 C   0  0  0  0  0  0  0  0  0  0  0  0
   -7.8480   -1.5630    1.3910 C   0  0  0  0  0  0  0  0  0  0  0  0
   -6.6770   -1.0700    1.0840 C   0  0  0  0  0  0  0  0  0  0  0  0
   -5.6310   -1.3780    1.9340 N   0  0  0  0  0  0  0  0  0  0  0  0
   -4.3810   -0.9330    1.7660 C   0  0  0  0  0  0  0  0  0  0  0  0
   -3.4990   -1.3530    2.7140 N   0  0  0  0  0  0  0  0  0  0  0  0
   -2.2190   -0.9330    2.5930 C   0  0  0  0  0  0  0  0  0  0  0  0
   -1.3180   -1.2730    3.4320 O   0  0  0  0  0  0  0  0  0  0  0  0
   -1.8690   -0.1050    1.5240 C   0  0  0  0  0  0  0  0  0  0  0  0
   -0.3600    0.6630    0.9920 S   0  0  0  0  0  0  0  0  0  0  0  0
   -1.1080    1.4710   -0.4650 C   0  0  0  0  0  0  0  0  0  0  0  0
   -0.2920    2.2890   -1.3280 N   0  0  0  0  0  0  0  0  0  0  0  0
    1.0820    2.5010   -1.1130 C   0  0  0  0  0  0  0  0  0  0  0  0
    1.6080    1.9300   -0.1110 O   0  0  0  0  0  0  0  0  0  0  0  0
    1.8780    3.3180   -1.9690 N   0  0  0  0  0  0  0  0  0  0  0  0
    3.2970    3.5180   -1.7220 C   0  0  0  0  0  0  0  0  0  0  0  0
    4.0130    2.2220   -1.7660 C   0  0  0  0  0  0  0  0  0  0  0  0
    3.3640    1.1790   -1.9780 O   0  0  0  0  0  0  0  0  0  0  0  0
    5.3840    2.2220   -1.5680 O   0  0  0  0  0  0  0  0  0  0  0  0
    6.1710    1.0590   -1.5840 C   0  0  0  0  0  0  0  0  0  0  0  0
    5.7280    0.1480   -0.4660 C   0  0  0  0  0  0  0  0  0  0  0  0
    6.5250   -1.1080   -0.4390 C   0  0  0  0  0  0  0  0  0  0  0  0
    6.3420   -2.1610   -1.3000 C   0  0  0  0  0  0  0  0  0  0  0  0
    5.3280   -2.2720   -2.4100 C   0  0  0  0  0  0  0  0  0  0  0  0
    7.2580   -3.0770   -0.9430 N   0  0  0  0  0  0  0  0  0  0  0  0
    7.9540   -2.6310    0.0590 O   0  0  0  0  0  0  0  0  0  0  0  0
    7.5560   -1.4230    0.4200 C   0  0  0  0  0  0  0  0  0  0  0  0
    8.1190   -0.6160    1.5140 C   0  0  0  0  0  0  0  0  0  0  0  0
    7.2750   -0.5740    2.7550 C   0  0  0  0  0  0  0  0  0  0  0  0
   -2.2540    1.0990   -0.3670 N   0  0  0  0  0  0  0  0  0  0  0  0
   -2.7470    0.3270    0.5600 C   0  0  0  0  0  0  0  0  0  0  0  0
   -4.0690   -0.1280    0.7150 C   0  0  0  0  0  0  0  0  0  0  0  0
   -5.0580    0.2030   -0.1470 C   0  0  0  0  0  0  0  0  0  0  0  0
   -6.3870   -0.2630    0.0190 C   0  0  0  0  0  0  0  0  0  0  0  0
   -7.2520    0.0850   -0.8840 C   0  0  0  0  0  0  0  0  0  0  0  0
   -6.7430    0.9950   -1.9950 C   0  0  0  0  0  0  0  0  0  0  0  0
   -8.6520   -0.2840   -1.0190 C   0  0  0  0  0  0  0  0  0  0  0  0
  1  2  1  0
  2  3  2  3
  3  4  1  0
  3 34  1  0
  4  5  2  0
  5  6  1  0
  5 32  1  0
  6  7  1  0
  7  8  2  0
  7  9  1  0
  9 10  1  0
  9 31  2  0
 10 11  1  0
 11 12  1  0
 11 30  2  0
 12 13  1  0
 13 14  2  0
 13 15  1  0
 15 16  1  0
 16 17  1  0
 17 18  2  0
 17 19  1  0
 19 20  1  0
 20 21  1  0
 21 22  1  0
 22 23  1  0
 22 27  2  0
 23 24  1  0
 23 25  2  0
 25 26  1  0
 26 27  1  0
 27 28  1  0
 28 29  1  0
 30 31  1  0
 31 32  1  0
 32 33  2  0
 33 34  1  0
 34 35  2  3
 35 36  1  0
 35 37  1  0
M  END
