
     RDKit          3D

 37 41  0  0  0  0  0  0  0  0999 V2000
   -0.8260    6.1570    0.1360 C   0  0  0  0  0  0  0  0  0  0  0  0
   -1.8330    5.8990   -0.9420 C   0  0  0  0  0  0  0  0  0  0  0  0
   -2.2020    6.7830   -1.7440 O   0  0  0  0  0  0  0  0  0  0  0  0
   -2.4010    4.6110   -1.0760 N   0  0  0  0  0  0  0  0  0  0  0  0
   -3.3550    4.2500   -2.0500 C   0  0  0  0  0  0  0  0  0  0  0  0
   -3.7170    5.1510   -2.8480 O   0  0  0  0  0  0  0  0  0  0  0  0
   -3.8900    2.8830   -2.1130 C   0  0  0  0  0  0  0  0  0  0  0  0
   -3.2940    1.9780   -1.1090 N   0  0  0  0  0  0  0  0  0  0  0  0
   -3.8330    1.8750    0.1630 C   0  0  0  0  0  0  0  0  0  0  0  0
   -4.9150    2.4780    0.3760 O   0  0  0  0  0  0  0  0  0  0  0  0
   -3.2200    1.1170    1.2500 C   0  0  0  0  0  0  0  0  0  0  0  0
   -3.9500    1.0560    2.4800 C   0  0  0  0  0  0  0  0  0  0  0  0
   -2.8970    0.0430    3.4830 S   0  0  0  0  0  0  0  0  0  0  0  0
   -1.5930   -0.1950    2.1610 C   0  0  0  0  0  0  0  0  0  0  0  0
   -0.4520   -0.9900    2.4850 N   0  0  0  0  0  0  0  0  0  0  0  0
    0.6280   -1.1650    1.6040 C   0  0  0  0  0  0  0  0  0  0  0  0
    0.5750   -0.5650    0.5070 O   0  0  0  0  0  0  0  0  0  0  0  0
    1.8030   -2.0050    1.9050 C   0  0  0  0  0  0  0  0  0  0  0  0
    1.9040   -2.7030    3.0760 C   0  0  0  0  0  0  0  0  0  0  0  0
    3.0200   -3.4690    3.3120 C   0  0  0  0  0  0  0  0  0  0  0  0
    4.0140   -3.5310    2.3860 C   0  0  0  0  0  0  0  0  0  0  0  0
    3.9060   -2.8260    1.2080 C   0  0  0  0  0  0  0  0  0  0  0  0
    2.8020   -2.0890    1.0130 N   0  0  0  0  0  0  0  0  0  0  0  0
    5.1310   -3.0780    0.3900 C   0  0  0  0  0  0  0  0  0  0  0  0
    6.1370   -3.5010    1.4130 C   0  0  0  0  0  0  0  0  0  0  0  0
    5.2990   -4.2730    2.4000 C   0  0  0  0  0  0  0  0  0  0  0  0
   -2.1030    0.4630    1.2500 N   0  0  0  0  0  0  0  0  0  0  0  0
   -2.1970    1.2170   -1.5520 C   0  0  0  0  0  0  0  0  0  0  0  0
   -1.0240    1.6610   -2.0630 C   0  0  0  0  0  0  0  0  0  0  0  0
   -0.0800    0.7550   -2.5300 C   0  0  0  0  0  0  0  0  0  0  0  0
   -0.3060   -0.6240   -2.4880 C   0  0  0  0  0  0  0  0  0  0  0  0
   -1.4780   -1.0820   -1.9760 C   0  0  0  0  0  0  0  0  0  0  0  0
   -2.4020   -0.1720   -1.5180 C   0  0  0  0  0  0  0  0  0  0  0  0
   -1.4700   -2.5210   -2.0380 N   0  0  0  0  0  0  0  0  0  0  0  0
   -0.2510   -2.9520   -2.6080 C   0  0  0  0  0  0  0  0  0  0  0  0
    0.0260   -4.1700   -2.7800 O   0  0  0  0  0  0  0  0  0  0  0  0
    0.5320   -1.7510   -2.9180 C   0  0  0  0  0  0  0  0  0  0  0  0
  1  2  1  0
  2  3  2  0
  2  4  1  0
  4  5  1  0
  5  6  2  0
  5  7  1  0
  7  8  1  0
  8  9  1  0
  8 28  1  0
  9 10  2  0
  9 11  1  0
 11 12  2  0
 11 27  1  0
 12 13  1  0
 13 14  1  0
 14 15  1  0
 14 27  2  0
 15 16  1  0
 16 17  2  0
 16 18  1  0
 18 19  2  0
 18 23  1  0
 19 20  1  0
 20 21  2  0
 21 22  1  0
 21 26  1  0
 22 23  2  0
 22 24  1  0
 24 25  1  0
 25 26  1  0
 28 29  2  0
 28 33  1  0
 29 30  1  0
 30 31  2  0
 31 32  1  0
 31 37  1  0
 32 33  2  0
 32 34  1  0
 34 35  1  0
 35 36  2  0
 35 37  1  0
M  END
