
     RDKit          3D

 36 40  0  0  0  0  0  0  0  0999 V2000
   -8.6010    2.4160    1.1630 O   0  0  0  0  0  0  0  0  0  0  0  0
   -7.7970    3.2520    0.6990 N   0  0  0  0  0  0  0  0  0  0  0  0
   -8.1560    4.5810    0.5400 O   0  0  0  0  0  0  0  0  0  0  0  0
   -6.4950    2.8250    0.3270 C   0  0  0  0  0  0  0  0  0  0  0  0
   -5.6230    3.7580   -0.2190 C   0  0  0  0  0  0  0  0  0  0  0  0
   -4.3750    3.3290   -0.5900 C   0  0  0  0  0  0  0  0  0  0  0  0
   -3.9660    2.0030   -0.4350 C   0  0  0  0  0  0  0  0  0  0  0  0
   -4.8610    1.1090    0.1110 C   0  0  0  0  0  0  0  0  0  0  0  0
   -4.5140   -0.3000    0.3010 C   0  0  0  0  0  0  0  0  0  0  0  0
   -3.0840   -0.6040    0.2430 N   0  0  0  0  0  0  0  0  0  0  0  0
   -2.7630   -1.9810    0.3350 C   0  0  0  0  0  0  0  0  0  0  0  0
   -3.7740   -2.8900    0.5410 N   0  0  0  0  0  0  0  0  0  0  0  0
   -3.5610   -4.2000    0.6350 C   0  0  0  0  0  0  0  0  0  0  0  0
   -4.6420   -5.2190    0.8710 C   0  0  1  0  0  0  0  0  0  0  0  0
   -4.5350   -5.6770    2.1800 F   0  0  0  0  0  0  0  0  0  0  0  0
   -5.8930   -4.7150    0.6420 F   0  0  0  0  0  0  0  0  0  0  0  0
   -4.4510   -6.3070    0.0360 F   0  0  0  0  0  0  0  0  0  0  0  0
   -2.2920   -4.6180    0.5140 N   0  0  0  0  0  0  0  0  0  0  0  0
   -1.2700   -3.7710    0.3090 C   0  0  0  0  0  0  0  0  0  0  0  0
   -0.0120   -4.2360    0.1590 N   0  0  0  0  0  0  0  0  0  0  0  0
    1.0100   -3.4380   -0.0690 C   0  0  0  0  0  0  0  0  0  0  0  0
    0.8890   -2.0240   -0.1780 C   0  0  0  0  0  0  0  0  0  0  0  0
    2.1170   -1.3290   -0.5020 C   0  0  0  0  0  0  0  0  0  0  0  0
    3.0590   -1.8890   -1.4020 C   0  0  0  0  0  0  0  0  0  0  0  0
    4.1440   -1.1720   -1.4220 N   0  0  0  0  0  0  0  0  0  0  0  0
    4.0300   -0.1090   -0.5690 N   0  0  0  0  0  0  0  0  0  0  0  0
    5.1090    0.7690   -0.3360 C   0  0  1  0  0  0  0  0  0  0  0  0
    5.3880    1.8580   -1.2940 C   0  0  0  0  0  0  0  0  0  0  0  0
    6.8790    2.2150   -1.0580 C   0  0  0  0  0  0  0  0  0  0  0  0
    7.1300    2.5720    0.2940 N   0  0  0  0  0  0  0  0  0  0  0  0
    6.6620    1.6820    1.3170 C   0  0  0  0  0  0  0  0  0  0  0  0
    5.1980    1.2560    1.0930 C   0  0  0  0  0  0  0  0  0  0  0  0
    2.7900   -0.2240   -0.0280 C   0  0  0  0  0  0  0  0  0  0  0  0
   -0.3800   -1.5550   -0.0280 C   0  0  0  0  0  0  0  0  0  0  0  0
   -1.4610   -2.4010    0.2110 C   0  0  0  0  0  0  0  0  0  0  0  0
   -6.1370    1.5190    0.4970 C   0  0  0  0  0  0  0  0  0  0  0  0
  1  2  2  0
  2  3  1  0
  2  4  1  0
  4  5  2  0
  4 36  1  0
  5  6  1  0
  6  7  2  0
  7  8  1  0
  8  9  1  0
  8 36  2  0
  9 10  1  0
 10 11  1  0
 11 12  2  0
 11 35  1  0
 12 13  1  0
 13 14  1  0
 13 18  2  0
 14 15  1  1
 14 16  1  0
 14 17  1  0
 18 19  1  0
 19 20  2  0
 19 35  1  0
 20 21  1  0
 21 22  2  0
 22 23  1  0
 22 34  1  0
 23 24  1  0
 23 33  2  0
 24 25  2  0
 25 26  1  0
 27 26  1  6
 26 33  1  0
 27 28  1  0
 27 32  1  0
 28 29  1  0
 29 30  1  0
 30 31  1  0
 31 32  1  0
 34 35  2  0
M  CHG  3   2   1   3  -1  30   1
M  END
