
     RDKit          3D

 37 41  0  0  0  0  0  0  0  0999 V2000
   12.7770    0.5800    0.8000 C   0  0  0  0  0  0  0  0  0  0  0  0
   12.2990   -0.3290   -0.2960 C   0  0  0  0  0  0  0  0  0  0  0  0
   11.0210   -0.9740    0.1150 C   0  0  0  0  0  0  0  0  0  0  0  0
   10.5910   -1.9550    0.6770 N   0  0  0  0  0  0  0  0  0  0  0  0
    9.3390   -2.2040    0.8720 N   0  0  0  0  0  0  0  0  0  0  0  0
    8.4310   -1.4790    0.5130 C   0  0  0  0  0  0  0  0  0  0  0  0
    7.0240   -1.3600    0.5100 N   0  0  0  0  0  0  0  0  0  0  0  0
    6.3060   -0.2710   -0.0530 C   0  0  0  0  0  0  0  0  0  0  0  0
    6.9490    0.6690   -0.5930 O   0  0  0  0  0  0  0  0  0  0  0  0
    4.8500   -0.2030   -0.0290 C   0  0  0  0  0  0  0  0  0  0  0  0
    4.1550   -1.1160    0.4960 O   0  0  0  0  0  0  0  0  0  0  0  0
    4.1880    0.9110   -0.6030 N   0  0  0  0  0  0  0  0  0  0  0  0
    2.7670    1.0380   -0.6130 C   0  0  0  0  0  0  0  0  0  0  0  0
    2.1080   -0.1020   -1.3600 C   0  0  0  0  0  0  0  0  0  0  0  0
    0.6120    0.0890   -1.3380 C   0  0  0  0  0  0  0  0  0  0  0  0
   -0.1560    0.5330   -2.3510 N   0  0  0  0  0  0  0  0  0  0  0  0
   -1.4540    0.5900   -1.9950 C   0  0  0  0  0  0  0  0  0  0  0  0
   -2.6220    0.9660   -2.6420 C   0  0  0  0  0  0  0  0  0  0  0  0
   -3.8470    0.9290   -2.0320 C   0  0  0  0  0  0  0  0  0  0  0  0
   -3.9120    0.4970   -0.7160 C   0  0  0  0  0  0  0  0  0  0  0  0
   -2.7570    0.1180   -0.0580 C   0  0  0  0  0  0  0  0  0  0  0  0
   -1.5230    0.1610   -0.6890 C   0  0  0  0  0  0  0  0  0  0  0  0
   -0.2400   -0.1480   -0.2880 C   0  0  0  0  0  0  0  0  0  0  0  0
    0.1270   -0.6510    1.0620 C   0  0  0  0  0  0  0  0  0  0  0  0
   -5.1870    0.4320    0.0530 C   0  0  0  0  0  0  0  0  0  0  0  0
   -6.3360    0.3840   -0.7780 N   0  0  0  0  0  0  0  0  0  0  0  0
   -7.6400    0.3730   -0.2320 C   0  0  0  0  0  0  0  0  0  0  0  0
   -8.6100    0.3530   -1.0830 O   0  0  0  0  0  0  0  0  0  0  0  0
   -7.9120    0.3830    1.2020 C   0  0  1  0  0  0  0  0  0  0  0  0
   -8.8700   -0.7670    1.5210 C   0  0  0  0  0  0  0  0  0  0  0  0
   -9.2350   -0.6610    2.8390 O   0  0  0  0  0  0  0  0  0  0  0  0
   -8.1750   -0.4150    3.7080 C   0  0  0  0  0  0  0  0  0  0  0  0
   -6.8790   -0.6410    2.9550 C   0  0  0  0  0  0  0  0  0  0  0  0
   -6.7900    0.3500    1.9660 O   0  0  0  0  0  0  0  0  0  0  0  0
   -6.1800    0.3330   -2.2350 C   0  0  0  0  0  0  0  0  0  0  0  0
   -5.1310    1.3250   -2.7260 C   0  0  0  0  0  0  0  0  0  0  0  0
    9.4560   -0.1020   -0.2950 S   0  0  0  0  0  0  0  0  0  0  0  0
  1  2  1  0
  2  3  1  0
  3  4  2  0
  3 37  1  0
  4  5  1  0
  5  6  2  0
  6  7  1  0
  6 37  1  0
  7  8  1  0
  8  9  2  0
  8 10  1  0
 10 11  2  0
 10 12  1  0
 12 13  1  0
 13 14  1  0
 14 15  1  0
 15 16  1  0
 15 23  2  0
 16 17  1  0
 17 18  2  0
 17 22  1  0
 18 19  1  0
 19 20  2  0
 19 36  1  0
 20 21  1  0
 20 25  1  0
 21 22  2  0
 22 23  1  0
 23 24  1  0
 25 26  1  0
 26 27  1  0
 26 35  1  0
 27 28  2  0
 29 27  1  6
 29 30  1  0
 29 34  1  0
 30 31  1  0
 31 32  1  0
 32 33  1  0
 33 34  1  0
 35 36  1  0
M  END
