
     RDKit          3D

 29 32  0  0  0  0  0  0  0  0999 V2000
    7.1560    0.3020    1.7980 C   0  0  0  0  0  0  0  0  0  0  0  0
    6.5610    1.0440    0.6670 C   0  0  0  0  0  0  0  0  0  0  0  0
    5.4570    0.6080    0.0610 C   0  0  0  0  0  0  0  0  0  0  0  0
    4.8290   -0.6570    0.5520 C   0  0  0  0  0  0  0  0  0  0  0  0
    3.4170   -0.2430    0.9870 C   0  0  0  0  0  0  0  0  0  0  0  0
    2.7260    0.1390   -0.2830 C   0  0  0  0  0  0  0  0  0  0  0  0
    1.3990   -0.2600   -0.4650 C   0  0  0  0  0  0  0  0  0  0  0  0
    0.7130    0.0540   -1.5960 C   0  0  0  0  0  0  0  0  0  0  0  0
   -0.6530   -0.3540   -1.7750 C   0  0  0  0  0  0  0  0  0  0  0  0
   -1.2100   -0.0360   -2.8870 O   0  0  0  0  0  0  0  0  0  0  0  0
   -1.4320   -1.1090   -0.7610 C   0  0  1  0  0  0  0  0  0  0  0  0
   -0.7630   -2.4340   -0.5030 C   0  0  0  0  0  0  0  0  0  0  0  0
   -1.4910   -0.2370    0.4740 C   0  0  0  0  0  0  0  0  0  0  0  0
   -2.9060    0.2130    0.7760 C   0  0  0  0  0  0  0  0  0  0  0  0
   -3.1850    1.4260    1.2040 C   0  0  0  0  0  0  0  0  0  0  0  0
   -4.4630    2.0320    1.5290 C   0  0  0  0  0  0  0  0  0  0  0  0
   -4.5640    3.4060    0.8050 C   0  0  0  0  0  0  0  0  0  0  0  0
   -4.4650    3.1780   -0.5670 O   0  0  0  0  0  0  0  0  0  0  0  0
   -3.9350   -0.8060    0.6050 C   0  0  0  0  0  0  0  0  0  0  0  0
   -4.9590   -0.9060    1.5220 C   0  0  0  0  0  0  0  0  0  0  0  0
   -5.9030   -1.8900    1.3030 C   0  0  0  0  0  0  0  0  0  0  0  0
   -5.7780   -2.7170    0.1920 C   0  0  0  0  0  0  0  0  0  0  0  0
   -4.7520   -2.6130   -0.7190 C   0  0  0  0  0  0  0  0  0  0  0  0
   -3.8150   -1.6360   -0.5010 C   0  0  0  0  0  0  0  0  0  0  0  0
   -2.7240   -1.3870   -1.3040 O   0  0  0  0  0  0  0  0  0  0  0  0
    1.3960    0.7870   -2.5580 C   0  0  0  0  0  0  0  0  0  0  0  0
    2.6980    1.1820   -2.3870 C   0  0  0  0  0  0  0  0  0  0  0  0
    3.4130    0.8650   -1.2270 C   0  0  0  0  0  0  0  0  0  0  0  0
    4.8250    1.3090   -1.0690 C   0  0  0  0  0  0  0  0  0  0  0  0
  1  2  1  0
  2  3  2  3
  3  4  1  0
  3 29  1  0
  4  5  1  0
  5  6  1  0
  6  7  2  0
  6 28  1  0
  7  8  1  0
  8  9  1  0
  8 26  2  0
  9 10  2  0
  9 11  1  0
 11 12  1  1
 11 13  1  0
 11 25  1  0
 13 14  1  0
 14 15  2  3
 14 19  1  0
 15 16  1  0
 16 17  1  0
 17 18  1  0
 19 20  2  0
 19 24  1  0
 20 21  1  0
 21 22  2  0
 22 23  1  0
 23 24  2  0
 24 25  1  0
 26 27  1  0
 27 28  2  0
 28 29  1  0
M  CHG  1  18  -1
M  END
