
     RDKit          3D

 29 32  0  0  0  0  0  0  0  0999 V2000
   -1.1360    1.3470    0.7850 O   0  0  0  0  0  0  0  0  0  0  0  0
   -0.3670    0.3710    0.5990 C   0  0  0  0  0  0  0  0  0  0  0  0
    1.0740    0.6910    0.5020 C   0  0  0  0  0  0  0  0  0  0  0  0
    2.0350   -0.1450    0.3150 C   0  0  0  0  0  0  0  0  0  0  0  0
    3.4160    0.2680    0.2350 C   0  0  0  0  0  0  0  0  0  0  0  0
    3.8160    1.5680    0.3490 C   0  0  0  0  0  0  0  0  0  0  0  0
    5.1830    1.8650    0.2560 C   0  0  0  0  0  0  0  0  0  0  0  0
    6.1470    0.9110    0.0550 C   0  0  0  0  0  0  0  0  0  0  0  0
    5.7420   -0.4030   -0.0600 C   0  0  0  0  0  0  0  0  0  0  0  0
    4.4020   -0.6980    0.0300 C   0  0  0  0  0  0  0  0  0  0  0  0
    6.7030   -1.5070   -0.2780 C   0  0  0  0  0  0  0  0  0  0  0  0
    8.0770   -0.9690   -0.6210 C   0  0  0  0  0  0  0  0  0  0  0  0
    8.3970    0.1210    0.4010 C   0  0  0  0  0  0  0  0  0  0  0  0
    7.5700    1.3350   -0.0280 C   0  0  0  0  0  0  0  0  0  0  0  0
   -0.8930   -0.9610    0.4930 C   0  0  0  0  0  0  0  0  0  0  0  0
   -2.0350   -1.5070    0.5550 C   0  0  0  0  0  0  0  0  0  0  0  0
   -3.4230   -1.1750    0.7610 C   0  0  1  0  0  0  0  0  0  0  0  0
   -3.7370    0.0590    1.4800 C   0  0  0  0  0  0  0  0  0  0  0  0
   -4.3070    1.1480    0.5810 C   0  0  0  0  0  0  0  0  0  0  0  0
   -5.5860    0.5600    0.0510 C   0  0  0  0  0  0  0  0  0  0  0  0
   -6.7600    1.2640    0.0520 C   0  0  0  0  0  0  0  0  0  0  0  0
   -7.9460    0.7180   -0.4200 C   0  0  0  0  0  0  0  0  0  0  0  0
   -9.1710    1.5140   -0.3960 C   0  0  0  0  0  0  0  0  0  0  0  0
   -9.1450    2.6890    0.0530 O   0  0  0  0  0  0  0  0  0  0  0  0
  -10.3570    1.0090   -0.8530 O   0  0  0  0  0  0  0  0  0  0  0  0
   -7.9190   -0.5730   -0.9010 C   0  0  0  0  0  0  0  0  0  0  0  0
   -6.7460   -1.2960   -0.9100 C   0  0  0  0  0  0  0  0  0  0  0  0
   -5.5500   -0.7280   -0.4270 C   0  0  0  0  0  0  0  0  0  0  0  0
   -4.2910   -1.4780   -0.4470 C   0  0  0  0  0  0  0  0  0  0  0  0
  1  2  2  0
  2  3  1  0
  2 15  1  0
  3  4  2  3
  4  5  1  0
  5  6  2  0
  5 10  1  0
  6  7  1  0
  7  8  2  0
  8  9  1  0
  8 14  1  0
  9 10  2  0
  9 11  1  0
 11 12  1  0
 12 13  1  0
 13 14  1  0
 15 16  2  3
 17 16  1  6
 17 18  1  0
 17 29  1  0
 18 19  1  0
 19 20  1  0
 20 21  2  0
 20 28  1  0
 21 22  1  0
 22 23  1  0
 22 26  2  0
 23 24  2  0
 23 25  1  0
 26 27  1  0
 27 28  2  0
 28 29  1  0
M  CHG  1  25  -1
M  END
