
     RDKit          3D

 27 28  0  0  0  0  0  0  0  0999 V2000
   -2.7590    0.6280   -2.9600 C   0  0  0  0  0  0  0  0  0  0  0  0
   -1.6160    0.3520   -2.1490 O   0  0  0  0  0  0  0  0  0  0  0  0
   -1.7460    0.6610   -0.7720 C   0  0  0  0  0  0  0  0  0  0  0  0
   -0.7710    1.4020   -0.2670 C   0  0  0  0  0  0  0  0  0  0  0  0
   -0.6680    1.8610    1.1350 C   0  0  0  0  0  0  0  0  0  0  0  0
    0.7330    1.8390    1.6570 C   0  0  1  0  0  0  0  0  0  0  0  0
    0.8610    0.8980    2.7750 N   0  0  0  0  0  0  0  0  0  0  0  0
    1.7100    1.7110    0.6920 O   0  0  0  0  0  0  0  0  0  0  0  0
    2.2040    0.6490    0.0130 C   0  0  0  0  0  0  0  0  0  0  0  0
    3.0680    0.9090   -0.9760 C   0  0  0  0  0  0  0  0  0  0  0  0
    3.4630    2.2640   -1.3140 C   0  0  0  0  0  0  0  0  0  0  0  0
    3.0270    3.2720   -0.7100 O   0  0  0  0  0  0  0  0  0  0  0  0
    3.6460   -0.2150   -1.7550 C   0  0  0  0  0  0  0  0  0  0  0  0
    4.1370   -1.2650   -0.7800 C   0  0  0  0  0  0  0  0  0  0  0  0
    3.1080   -1.6700    0.2200 C   0  0  0  0  0  0  0  0  0  0  0  0
    1.8880   -0.7700    0.2520 C   0  0  2  0  0  0  0  0  0  0  0  0
    0.8300   -1.2990   -0.5750 N   0  0  0  0  0  0  0  0  0  0  0  0
   -0.1710   -2.2190   -0.1840 C   0  0  0  0  0  0  0  0  0  0  0  0
   -0.4170   -3.1420   -1.0680 O   0  0  0  0  0  0  0  0  0  0  0  0
   -0.9490   -2.3020    1.0140 C   0  0  0  0  0  0  0  0  0  0  0  0
   -0.6760   -3.3970    1.7230 O   0  0  0  0  0  0  0  0  0  0  0  0
   -1.9320   -1.4140    1.5290 N   0  0  0  0  0  0  0  0  0  0  0  0
   -2.9920   -0.7310    0.8890 C   0  0  0  0  0  0  0  0  0  0  0  0
   -4.3730   -0.9630    1.4300 C   0  0  0  0  0  0  0  0  0  0  0  0
   -5.4740   -0.3250    0.8330 N   0  0  0  0  0  0  0  0  0  0  0  0
   -4.5930   -1.7150    2.4080 O   0  0  0  0  0  0  0  0  0  0  0  0
   -2.8980    0.1490   -0.0920 C   0  0  0  0  0  0  0  0  0  0  0  0
  1  2  1  0
  2  3  1  0
  3  4  2  0
  3 27  1  0
  4  5  1  0
  5  6  1  0
  6  7  1  1
  6  8  1  0
  8  9  1  0
  9 10  2  0
  9 16  1  0
 10 11  1  0
 10 13  1  0
 11 12  2  0
 13 14  1  0
 14 15  1  0
 16 15  1  6
 16 17  1  0
 17 18  1  0
 18 19  2  0
 18 20  1  0
 20 21  2  0
 20 22  1  0
 22 23  1  0
 23 24  1  0
 23 27  2  0
 24 25  1  0
 24 26  2  0
M  END
