
     RDKit          3D

 27 28  0  0  0  0  0  0  0  0999 V2000
   -0.8470    2.6880    4.3180 C   0  0  0  0  0  0  0  0  0  0  0  0
   -1.0520    3.2940    2.9460 C   0  0  0  0  0  0  0  0  0  0  0  0
   -1.1710    2.2440    1.9020 C   0  0  0  0  0  0  0  0  0  0  0  0
   -1.1030    0.9550    2.1680 C   0  0  0  0  0  0  0  0  0  0  0  0
   -1.2200   -0.0800    1.1370 C   0  0  0  0  0  0  0  0  0  0  0  0
   -1.1340   -1.3680    1.5460 C   0  0  0  0  0  0  0  0  0  0  0  0
   -0.9280   -1.5580    2.9890 N   0  0  0  0  0  0  0  0  0  0  0  0
   -1.2660   -2.4980    0.7300 N   0  0  0  0  0  0  0  0  0  0  0  0
   -0.6760   -2.8780   -0.5270 C   0  0  0  0  0  0  0  0  0  0  0  0
   -1.2940   -3.3030   -1.6320 C   0  0  0  0  0  0  0  0  0  0  0  0
   -0.3330   -3.5910   -2.6970 C   0  0  0  0  0  0  0  0  0  0  0  0
    0.9390   -3.2790   -2.0370 C   0  0  0  0  0  0  0  0  0  0  0  0
    0.7450   -2.8650   -0.7870 C   0  0  0  0  0  0  0  0  0  0  0  0
    1.7600   -2.4470    0.2100 C   0  0  0  0  0  0  0  0  0  0  0  0
    2.7500   -3.2490    0.3310 O   0  0  0  0  0  0  0  0  0  0  0  0
    1.7560   -1.2970    1.0190 N   0  0  0  0  0  0  0  0  0  0  0  0
    1.6820    0.0310    0.5900 N   0  0  0  0  0  0  0  0  0  0  0  0
    1.6500    0.5080   -0.7440 C   0  0  0  0  0  0  0  0  0  0  0  0
    2.6270    1.2580   -1.1230 O   0  0  0  0  0  0  0  0  0  0  0  0
    0.6140    0.2460   -1.7620 C   0  0  2  0  0  0  0  0  0  0  0  0
    0.5570    1.4870   -2.6360 C   0  0  0  0  0  0  0  0  0  0  0  0
   -0.5350    2.0630   -2.8380 O   0  0  0  0  0  0  0  0  0  0  0  0
    1.6940    2.0090   -3.2250 O   0  0  0  0  0  0  0  0  0  0  0  0
    1.7020    3.1540   -4.0410 C   0  0  0  0  0  0  0  0  0  0  0  0
   -0.6550   -0.0260   -1.3290 O   0  0  0  0  0  0  0  0  0  0  0  0
   -1.4130    0.3060   -0.2580 C   0  0  0  0  0  0  0  0  0  0  0  0
   -2.4470    1.0580   -0.4640 O   0  0  0  0  0  0  0  0  0  0  0  0
  1  2  1  0
  2  3  1  0
  3  4  2  3
  4  5  1  0
  5  6  2  0
  5 26  1  0
  6  7  1  0
  6  8  1  0
  8  9  1  0
  9 10  2  0
  9 13  1  0
 10 11  1  0
 11 12  1  0
 12 13  2  0
 13 14  1  0
 14 15  2  0
 14 16  1  0
 16 17  1  0
 17 18  1  0
 18 19  2  0
 18 20  1  0
 20 21  1  6
 20 25  1  0
 21 22  2  0
 21 23  1  0
 23 24  1  0
 25 26  1  0
 26 27  2  0
M  END
