
     RDKit          3D

 27 29  0  0  0  0  0  0  0  0999 V2000
   -8.8400    0.4630   -0.3880 C   0  0  0  0  0  0  0  0  0  0  0  0
   -7.4390    0.2480   -0.2710 O   0  0  0  0  0  0  0  0  0  0  0  0
   -6.9040   -0.9670    0.0720 C   0  0  0  0  0  0  0  0  0  0  0  0
   -7.7440   -1.8970    0.2800 O   0  0  0  0  0  0  0  0  0  0  0  0
   -5.4830   -1.1750    0.1880 C   0  0  0  0  0  0  0  0  0  0  0  0
   -4.6330   -0.1900   -0.0350 C   0  0  0  0  0  0  0  0  0  0  0  0
   -5.0470    1.1710   -0.4120 C   0  0  0  0  0  0  0  0  0  0  0  0
   -3.9770    2.0330   -0.6330 O   0  0  0  0  0  0  0  0  0  0  0  0
   -2.6370    1.7720   -0.5050 C   0  0  0  0  0  0  0  0  0  0  0  0
   -1.7890    2.6780   -0.7250 O   0  0  0  0  0  0  0  0  0  0  0  0
   -2.2090    0.4310   -0.1110 C   0  0  0  0  0  0  0  0  0  0  0  0
   -3.1870   -0.4860    0.1070 C   0  0  0  0  0  0  0  0  0  0  0  0
   -2.5850   -1.6270    0.4530 N   0  0  0  0  0  0  0  0  0  0  0  0
   -1.2380   -1.4460    0.4570 C   0  0  0  0  0  0  0  0  0  0  0  0
   -0.2890   -2.5170    0.7970 C   0  0  0  0  0  0  0  0  0  0  0  0
   -0.9530   -0.1550    0.1060 C   0  0  0  0  0  0  0  0  0  0  0  0
    0.2840    0.6080   -0.0580 C   0  0  0  0  0  0  0  0  0  0  0  0
    1.5040   -0.0610    0.1790 N   0  0  0  0  0  0  0  0  0  0  0  0
    2.7030    0.7470    0.0020 C   0  0  0  0  0  0  0  0  0  0  0  0
    2.6210    1.9530   -0.3400 O   0  0  0  0  0  0  0  0  0  0  0  0
    3.9790    0.1960    0.2090 N   0  0  0  0  0  0  0  0  0  0  0  0
    5.2120    0.9240    0.0550 C   0  0  1  0  0  0  0  0  0  0  0  0
    6.0270    0.9330    1.3410 C   0  0  0  0  0  0  0  0  0  0  0  0
    7.2900    1.2730    0.8720 O   0  0  0  0  0  0  0  0  0  0  0  0
    7.5070    0.5450   -0.2810 C   0  0  1  0  0  0  0  0  0  0  0  0
    8.2900   -0.6290    0.0440 N   0  0  0  0  0  0  0  0  0  0  0  0
    6.1790    0.2090   -0.8820 C   0  0  0  0  0  0  0  0  0  0  0  0
  1  2  1  0
  2  3  1  0
  3  4  2  0
  3  5  1  0
  5  6  2  3
  6  7  1  0
  6 12  1  0
  7  8  1  0
  8  9  1  0
  9 10  2  0
  9 11  1  0
 11 12  2  0
 11 16  1  0
 12 13  1  0
 13 14  1  0
 14 15  1  0
 14 16  2  0
 16 17  1  0
 17 18  1  0
 18 19  1  0
 19 20  2  0
 19 21  1  0
 22 21  1  1
 22 23  1  0
 22 27  1  0
 23 24  1  0
 24 25  1  0
 25 26  1  1
 25 27  1  0
M  END
