
     RDKit          3D

 27 29  0  0  0  0  0  0  0  0999 V2000
    5.1530    1.7880    0.1060 C   0  0  0  0  0  0  0  0  0  0  0  0
    4.9430    0.7810    1.1820 C   0  0  0  0  0  0  0  0  0  0  0  0
    3.5290    0.4810    1.5620 C   0  0  0  0  0  0  0  0  0  0  0  0
    2.7330   -0.0700    0.4510 C   0  0  2  0  0  0  0  0  0  0  0  0
    3.3370   -1.3520   -0.1110 C   0  0  0  0  0  0  0  0  0  0  0  0
    2.3250    0.8800   -0.5100 N   0  0  0  0  0  0  0  0  0  0  0  0
    1.1200    0.3030   -1.1170 C   0  0  0  0  0  0  0  0  0  0  0  0
    0.8040    0.6220   -2.3140 O   0  0  0  0  0  0  0  0  0  0  0  0
    0.4790   -0.5630   -0.2550 N   0  0  0  0  0  0  0  0  0  0  0  0
   -0.7760   -1.2630   -0.1230 C   0  0  0  0  0  0  0  0  0  0  0  0
   -1.9200   -0.8520   -0.5310 C   0  0  0  0  0  0  0  0  0  0  0  0
   -1.8500    0.4650   -1.1380 N   0  0  0  0  0  0  0  0  0  0  0  0
   -2.8470    1.5190   -1.0630 C   0  0  0  0  0  0  0  0  0  0  0  0
   -2.5580    2.7250   -1.8140 C   0  0  0  0  0  0  0  0  0  0  0  0
   -1.5020    2.8190   -2.4780 O   0  0  0  0  0  0  0  0  0  0  0  0
   -3.4500    3.7740   -1.7980 O   0  0  0  0  0  0  0  0  0  0  0  0
   -3.9870    1.4930   -0.3790 C   0  0  0  0  0  0  0  0  0  0  0  0
   -4.4380    0.3150    0.4580 C   0  0  0  0  0  0  0  0  0  0  0  0
   -4.4320   -0.9110   -0.3990 C   0  0  0  0  0  0  0  0  0  0  0  0
   -3.1710   -1.6770   -0.4900 C   0  0  2  0  0  0  0  0  0  0  0  0
   -3.0730   -2.8060    0.3930 C   0  0  0  0  0  0  0  0  0  0  0  0
   -4.1210   -3.3940    0.8060 O   0  0  0  0  0  0  0  0  0  0  0  0
   -1.8430   -3.3070    0.8370 N   0  0  0  0  0  0  0  0  0  0  0  0
   -0.6760   -2.5760    0.6080 C   0  0  0  0  0  0  0  0  0  0  0  0
    0.4610   -2.9640    0.9830 O   0  0  0  0  0  0  0  0  0  0  0  0
    1.3620   -0.5200    0.9470 C   0  0  0  0  0  0  0  0  0  0  0  0
    1.0510   -0.7880    2.1010 O   0  0  0  0  0  0  0  0  0  0  0  0
  1  2  1  0
  2  3  1  0
  3  4  1  0
  4  5  1  6
  4  6  1  0
  4 26  1  0
  6  7  1  0
  7  8  2  0
  7  9  1  0
  9 10  1  0
  9 26  1  0
 10 11  2  0
 10 24  1  0
 11 12  1  0
 11 20  1  0
 12 13  1  0
 13 14  1  0
 13 17  2  0
 14 15  2  0
 14 16  1  0
 17 18  1  0
 18 19  1  0
 20 19  1  1
 20 21  1  0
 21 22  2  0
 21 23  1  0
 23 24  1  0
 24 25  2  0
 26 27  2  0
M  END
