
     RDKit          3D

 20 20  0  0  0  0  0  0  0  0999 V2000
    6.6660   -0.8520   -0.3490 C   0  0  0  0  0  0  0  0  0  0  0  0
    5.3010   -0.3430   -0.0100 C   0  0  0  0  0  0  0  0  0  0  0  0
    4.5850   -1.0230    0.7680 O   0  0  0  0  0  0  0  0  0  0  0  0
    4.7940    0.8280   -0.5090 O   0  0  0  0  0  0  0  0  0  0  0  0
    3.5360    1.3680   -0.2430 C   0  0  0  0  0  0  0  0  0  0  0  0
    2.4050    0.4640   -0.6660 C   0  0  0  0  0  0  0  0  0  0  0  0
    1.1910    1.0470   -0.3820 O   0  0  0  0  0  0  0  0  0  0  0  0
    0.0800    0.2890   -0.7330 C   0  0  2  0  0  0  0  0  0  0  0  0
   -0.4900    0.9490   -1.8660 O   0  0  0  0  0  0  0  0  0  0  0  0
   -0.9520    0.2370    0.3380 C   0  0  1  0  0  0  0  0  0  0  0  0
   -0.3090   -0.2300    1.6240 C   0  0  0  0  0  0  0  0  0  0  0  0
   -1.3640    1.5700    0.5800 O   0  0  0  0  0  0  0  0  0  0  0  0
   -2.1320   -0.6090    0.0780 C   0  0  2  0  0  0  0  0  0  0  0  0
   -1.7630   -1.9550   -0.1570 O   0  0  0  0  0  0  0  0  0  0  0  0
   -3.0320   -0.2160   -1.0250 C   0  0  0  0  0  0  0  0  0  0  0  0
   -3.8450    0.8340   -0.4580 N   0  0  0  0  0  0  0  0  0  0  0  0
   -4.2740    0.2210    0.7940 C   0  0  2  0  0  0  0  0  0  0  0  0
   -4.6460    1.2040    1.6800 O   0  0  0  0  0  0  0  0  0  0  0  0
   -3.0510   -0.5660    1.2800 C   0  0  1  0  0  0  0  0  0  0  0  0
   -3.4080   -1.8360    1.6960 O   0  0  0  0  0  0  0  0  0  0  0  0
  1  2  1  0
  2  3  2  0
  2  4  1  0
  4  5  1  0
  5  6  1  0
  6  7  1  0
  7  8  1  0
  8  9  1  6
  8 10  1  0
 10 11  1  1
 10 12  1  0
 10 13  1  0
 13 14  1  6
 13 15  1  0
 13 19  1  0
 15 16  1  0
 16 17  1  0
 17 18  1  1
 17 19  1  0
 19 20  1  6
M  END
