
     RDKit          3D

 25 26  0  0  0  0  0  0  0  0999 V2000
   -2.5300   -2.2930   -1.5580 C   0  0  0  0  0  0  0  0  0  0  0  0
   -1.8280   -1.8740   -0.3090 C   0  0  0  0  0  0  0  0  0  0  0  0
   -1.9040   -0.3550   -0.2160 C   0  0  2  0  0  0  0  0  0  0  0  0
   -1.2430    0.2270   -1.4050 C   0  0  0  0  0  0  0  0  0  0  0  0
   -1.3190    0.0340    1.0860 C   0  0  0  0  0  0  0  0  0  0  0  0
    0.0010   -0.3410    1.3740 N   0  0  0  0  0  0  0  0  0  0  0  0
    1.2510    0.0400    0.8220 C   0  0  0  0  0  0  0  0  0  0  0  0
    1.2290    0.8890   -0.0890 O   0  0  0  0  0  0  0  0  0  0  0  0
    2.4660   -0.4930    1.2580 N   0  0  0  0  0  0  0  0  0  0  0  0
    3.7340   -0.1460    0.7610 C   0  0  0  0  0  0  0  0  0  0  0  0
    4.8360   -0.9730    1.0720 C   0  0  0  0  0  0  0  0  0  0  0  0
    6.0460   -0.6510    0.6250 N   0  0  0  0  0  0  0  0  0  0  0  0
    6.3070    0.4310   -0.1200 C   0  0  0  0  0  0  0  0  0  0  0  0
    7.6320    0.7340   -0.5770 N   0  0  0  0  0  0  0  0  0  0  0  0
    8.6820   -0.1420   -0.2250 C   0  0  0  0  0  0  0  0  0  0  0  0
    8.4340   -1.1580    0.4730 O   0  0  0  0  0  0  0  0  0  0  0  0
    5.2660    1.2170   -0.4160 N   0  0  0  0  0  0  0  0  0  0  0  0
    3.9950    0.9650   -0.0010 C   0  0  0  0  0  0  0  0  0  0  0  0
   -3.3110    0.0630   -0.3080 N   0  0  0  0  0  0  0  0  0  0  0  0
   -3.4460    1.4740   -0.4930 C   0  0  0  0  0  0  0  0  0  0  0  0
   -4.9210    1.9010   -0.4290 C   0  0  0  0  0  0  0  0  0  0  0  0
   -5.2780    1.7270    0.9700 N   0  0  0  0  0  0  0  0  0  0  0  0
   -4.6190    0.6530    1.6350 C   0  0  0  0  0  0  0  0  0  0  0  0
   -4.4740    0.6300    2.8910 O   0  0  0  0  0  0  0  0  0  0  0  0
   -4.1220   -0.4250    0.7380 C   0  0  0  0  0  0  0  0  0  0  0  0
  1  2  1  0
  2  3  1  0
  3  4  1  6
  3  5  1  0
  3 19  1  0
  5  6  1  0
  6  7  1  0
  7  8  2  0
  7  9  1  0
  9 10  1  0
 10 11  2  0
 10 18  1  0
 11 12  1  0
 12 13  2  0
 13 14  1  0
 13 17  1  0
 14 15  1  0
 15 16  2  0
 17 18  2  0
 19 20  1  0
 19 25  1  0
 20 21  1  0
 21 22  1  0
 22 23  1  0
 23 24  2  0
 23 25  1  0
M  END
