
     RDKit          3D

 25 26  0  0  0  0  0  0  0  0999 V2000
    6.7360    1.7670   -1.0430 C   0  0  0  0  0  0  0  0  0  0  0  0
    5.7280    2.4460   -0.1290 C   0  0  0  0  0  0  0  0  0  0  0  0
    5.2540    1.4390    0.9030 C   0  0  0  0  0  0  0  0  0  0  0  0
    4.5110    0.2710    0.4180 C   0  0  0  0  0  0  0  0  0  0  0  0
    5.0370   -0.7880   -0.2200 N   0  0  0  0  0  0  0  0  0  0  0  0
    4.1220   -1.6290   -0.5730 N   0  0  0  0  0  0  0  0  0  0  0  0
    4.3830   -2.8630   -1.3360 C   0  0  0  0  0  0  0  0  0  0  0  0
    2.9210   -1.2100   -0.2140 C   0  0  0  0  0  0  0  0  0  0  0  0
    1.6470   -1.6490   -0.2290 N   0  0  0  0  0  0  0  0  0  0  0  0
    0.5980   -1.0490    0.2830 C   0  0  0  0  0  0  0  0  0  0  0  0
   -0.7670   -1.5180    0.5040 C   0  0  0  0  0  0  0  0  0  0  0  0
   -1.8120   -1.0540   -0.3700 N   0  0  0  0  0  0  0  0  0  0  0  0
   -3.1110   -0.9930    0.1900 C   0  0  0  0  0  0  0  0  0  0  0  0
   -3.2500   -1.2740    1.4330 O   0  0  0  0  0  0  0  0  0  0  0  0
   -4.2970   -0.6370   -0.5160 N   0  0  0  0  0  0  0  0  0  0  0  0
   -5.5410   -0.5050    0.2710 C   0  0  0  0  0  0  0  0  0  0  0  0
   -6.6780   -0.3120   -0.6940 C   0  0  0  0  0  0  0  0  0  0  0  0
   -7.9220   -0.1390   -0.0720 O   0  0  0  0  0  0  0  0  0  0  0  0
   -8.0190    1.1230    0.5200 C   0  0  0  0  0  0  0  0  0  0  0  0
   -8.0160    2.1880   -0.5050 C   0  0  0  0  0  0  0  0  0  0  0  0
   -8.0290    3.0310   -1.3340 N   0  0  0  0  0  0  0  0  0  0  0  0
    0.8620    0.1810    0.8970 N   0  0  0  0  0  0  0  0  0  0  0  0
    2.0670    0.6930    0.9630 C   0  0  0  0  0  0  0  0  0  0  0  0
    2.3350    1.7950    1.4930 O   0  0  0  0  0  0  0  0  0  0  0  0
    3.1610    0.0250    0.4230 C   0  0  0  0  0  0  0  0  0  0  0  0
  1  2  1  0
  2  3  1  0
  3  4  1  0
  4  5  2  0
  4 25  1  0
  5  6  1  0
  6  7  1  0
  6  8  1  0
  8  9  1  0
  8 25  2  0
  9 10  2  0
 10 11  1  0
 10 22  1  0
 11 12  1  0
 12 13  1  0
 13 14  2  0
 13 15  1  0
 15 16  1  0
 16 17  1  0
 17 18  1  0
 18 19  1  0
 19 20  1  0
 20 21  3  0
 22 23  1  0
 23 24  2  0
 23 25  1  0
M  END
