
     RDKit          3D

 21 23  0  0  0  0  0  0  0  0999 V2000
   -1.6550    3.0770    0.4380 O   0  0  0  0  0  0  0  0  0  0  0  0
   -1.9320    2.1170    1.1760 N   0  0  0  0  0  0  0  0  0  0  0  0
   -2.0870    2.3290    2.5050 O   0  0  0  0  0  0  0  0  0  0  0  0
   -2.0710    0.8430    0.5650 C   0  0  0  0  0  0  0  0  0  0  0  0
   -0.8990    0.2200    0.1520 C   0  0  0  0  0  0  0  0  0  0  0  0
    0.3550    0.8560    0.3050 N   0  0  0  0  0  0  0  0  0  0  0  0
    1.6290    0.3330    0.1180 C   0  0  0  0  0  0  0  0  0  0  0  0
    2.6340    1.1350   -0.4370 C   0  0  0  0  0  0  0  0  0  0  0  0
    3.9140    0.6470   -0.5940 C   0  0  0  0  0  0  0  0  0  0  0  0
    4.8940    1.4360   -1.1380 F   0  0  0  0  0  0  0  0  0  0  0  0
    4.2450   -0.6380   -0.2120 C   0  0  0  0  0  0  0  0  0  0  0  0
    3.2700   -1.4290    0.3320 C   0  0  0  0  0  0  0  0  0  0  0  0
    3.6740   -3.0770    0.8280 Cl  0  0  0  0  0  0  0  0  0  0  0  0
    1.9650   -0.9380    0.4950 C   0  0  0  0  0  0  0  0  0  0  0  0
   -1.0160   -1.0050   -0.4380 C   0  0  0  0  0  0  0  0  0  0  0  0
   -2.2790   -1.5960   -0.6090 C   0  0  0  0  0  0  0  0  0  0  0  0
   -3.4220   -0.9660   -0.1950 C   0  0  0  0  0  0  0  0  0  0  0  0
   -4.7500   -1.2650   -0.2160 N   0  0  0  0  0  0  0  0  0  0  0  0
   -5.3890   -0.2890    0.3210 O   0  0  0  0  0  0  0  0  0  0  0  0
   -4.5830    0.6560    0.7080 N   0  0  0  0  0  0  0  0  0  0  0  0
   -3.3130    0.2720    0.4010 C   0  0  0  0  0  0  0  0  0  0  0  0
  1  2  2  0
  2  3  1  0
  2  4  1  0
  4  5  2  0
  4 21  1  0
  5  6  1  0
  5 15  1  0
  6  7  1  0
  7  8  2  0
  7 14  1  0
  8  9  1  0
  9 10  1  0
  9 11  2  0
 11 12  1  0
 12 13  1  0
 12 14  2  0
 15 16  2  0
 16 17  1  0
 17 18  2  0
 17 21  1  0
 18 19  1  0
 19 20  1  0
 20 21  2  0
M  CHG  2   2   1   3  -1
M  END
