
     RDKit          3D

 25 26  0  0  0  0  0  0  0  0999 V2000
   -3.2250   -1.0610   -2.0130 C   0  0  0  0  0  0  0  0  0  0  0  0
   -3.4100   -0.8450   -0.5400 C   0  0  0  0  0  0  0  0  0  0  0  0
   -3.5010   -1.8290    0.3120 C   0  0  0  0  0  0  0  0  0  0  0  0
   -3.4150   -3.2230   -0.2280 C   0  0  0  0  0  0  0  0  0  0  0  0
   -2.3390   -3.9110    0.3290 O   0  0  0  0  0  0  0  0  0  0  0  0
   -3.6810   -1.7190    1.7820 C   0  0  0  0  0  0  0  0  0  0  0  0
   -3.7340   -0.3310    2.1410 N   0  0  0  0  0  0  0  0  0  0  0  0
   -2.5350    0.4600    2.0220 C   0  0  0  0  0  0  0  0  0  0  0  0
   -1.4590   -0.2010    1.8780 N   0  0  0  0  0  0  0  0  0  0  0  0
   -0.1960    0.3990    1.7500 C   0  0  0  0  0  0  0  0  0  0  0  0
    0.6240    0.1480    0.6910 N   0  0  0  0  0  0  0  0  0  0  0  0
    1.8310    0.6900    0.5410 C   0  0  0  0  0  0  0  0  0  0  0  0
    2.6250    0.4170   -0.5310 N   0  0  0  0  0  0  0  0  0  0  0  0
    3.8370    1.0290   -0.5800 C   0  0  0  0  0  0  0  0  0  0  0  0
    4.7270    0.7500   -1.7290 C   0  0  2  0  0  0  0  0  0  0  0  0
    4.0420    0.8950   -3.0600 C   0  0  0  0  0  0  0  0  0  0  0  0
    5.2710   -0.6700   -1.5820 C   0  0  0  0  0  0  0  0  0  0  0  0
    4.2660    1.8730    0.3730 N   0  0  0  0  0  0  0  0  0  0  0  0
    3.5480    2.1920    1.4550 C   0  0  0  0  0  0  0  0  0  0  0  0
    3.9120    2.9690    2.3570 O   0  0  0  0  0  0  0  0  0  0  0  0
    2.3020    1.6040    1.5670 C   0  0  0  0  0  0  0  0  0  0  0  0
    1.4820    1.8350    2.5950 N   0  0  0  0  0  0  0  0  0  0  0  0
    0.2990    1.2610    2.6770 N   0  0  0  0  0  0  0  0  0  0  0  0
   -2.4720    1.8160    2.0530 O   0  0  0  0  0  0  0  0  0  0  0  0
   -1.9690    2.6330    1.0360 C   0  0  0  0  0  0  0  0  0  0  0  0
  1  2  1  0
  2  3  2  3
  3  4  1  0
  3  6  1  0
  4  5  1  0
  6  7  1  0
  7  8  1  0
  8  9  2  3
  8 24  1  0
  9 10  1  0
 10 11  2  0
 10 23  1  0
 11 12  1  0
 12 13  2  0
 12 21  1  0
 13 14  1  0
 14 15  1  0
 14 18  2  0
 15 16  1  6
 15 17  1  0
 18 19  1  0
 19 20  2  0
 19 21  1  0
 21 22  2  0
 22 23  1  0
 24 25  1  0
M  END
