
     RDKit          3D

 41 42  0  0  0  0  0  0  0  0999 V2000
   -5.6470    3.6020   -3.0450 C   0  0  0  0  0  0  0  0  0  0  0  0
   -4.9390    4.0360   -1.7710 C   0  0  0  0  0  0  0  0  0  0  0  0
   -4.6680    2.8620   -0.8890 C   0  0  1  0  0  0  0  0  0  0  0  0
   -3.8790    1.9400   -1.4560 O   0  0  0  0  0  0  0  0  0  0  0  0
   -2.9550    1.0040   -1.2180 C   0  0  0  0  0  0  0  0  0  0  0  0
   -3.1700   -0.3020   -0.7890 C   0  0  0  0  0  0  0  0  0  0  0  0
   -4.5760   -0.6980   -0.4980 C   0  0  1  0  0  0  0  0  0  0  0  0
   -4.9550   -1.8540   -1.4580 C   0  0  0  0  0  0  0  0  0  0  0  0
   -6.4640   -1.8920   -1.4160 C   0  0  0  0  0  0  0  0  0  0  0  0
   -6.8730   -1.8860    0.0640 C   0  0  0  0  0  0  0  0  0  0  0  0
   -5.7420   -2.3370    0.8550 N   0  0  2  0  0  0  0  0  0  0  0  0
   -6.1610   -2.9630    2.0480 C   0  0  0  0  0  0  0  0  0  0  0  0
   -6.2870   -2.2140    3.2850 C   0  0  0  0  0  0  0  0  0  0  0  0
   -6.6720   -2.9400    4.4720 N   0  0  0  0  0  0  0  0  0  0  0  0
   -6.0830   -0.9960    3.4050 O   0  0  0  0  0  0  0  0  0  0  0  0
   -4.6710   -1.3960    0.8820 C   0  0  0  0  0  0  0  0  0  0  0  0
   -2.0840   -1.1090   -0.6080 C   0  0  0  0  0  0  0  0  0  0  0  0
   -0.7790   -0.7130   -0.8290 C   0  0  0  0  0  0  0  0  0  0  0  0
   -0.5370    0.5770   -1.2670 C   0  0  0  0  0  0  0  0  0  0  0  0
    0.7750    1.0030   -1.5160 O   0  0  0  0  0  0  0  0  0  0  0  0
    1.9310    0.3050   -1.2390 C   0  0  0  0  0  0  0  0  0  0  0  0
    3.1340    0.7950   -1.9880 C   0  0  0  0  0  0  0  0  0  0  0  0
    4.3480    0.0740   -1.6180 N   0  0  0  0  0  0  0  0  0  0  0  0
    5.0560    0.2940   -0.4380 C   0  0  0  0  0  0  0  0  0  0  0  0
    4.5340    1.2770    0.2900 O   0  0  0  0  0  0  0  0  0  0  0  0
    6.2020   -0.3330    0.0760 N   0  0  0  0  0  0  0  0  0  0  0  0
    6.7310   -1.5410   -0.4770 C   0  0  1  0  0  0  0  0  0  0  0  0
    5.7950   -2.7040   -0.4890 C   0  0  0  0  0  0  0  0  0  0  0  0
    7.4600   -1.4380   -1.7890 C   0  0  0  0  0  0  0  0  0  0  0  0
    7.8160   -2.7840   -2.1020 O   0  0  0  0  0  0  0  0  0  0  0  0
    6.9740    0.3530    1.1520 C   0  0  2  0  0  0  0  0  0  0  0  0
    8.3140    0.7240    0.6480 C   0  0  0  0  0  0  0  0  0  0  0  0
    6.8870   -0.3600    2.4480 C   0  0  1  0  0  0  0  0  0  0  0  0
    7.6780    0.3130    3.5400 C   0  0  0  0  0  0  0  0  0  0  0  0
    5.4240   -0.2950    2.9630 C   0  0  0  0  0  0  0  0  0  0  0  0
   -1.6130    1.4130   -1.4520 C   0  0  0  0  0  0  0  0  0  0  0  0
   -1.3260    2.6790   -1.8890 O   0  0  0  0  0  0  0  0  0  0  0  0
   -1.0440    3.8500   -1.2600 C   0  0  0  0  0  0  0  0  0  0  0  0
   -4.2390    3.3140    0.4930 C   0  0  0  0  0  0  0  0  0  0  0  0
   -3.3070    2.4400    1.1230 N   0  0  0  0  0  0  0  0  0  0  0  0
   -4.7010    4.3420    0.9680 O   0  0  0  0  0  0  0  0  0  0  0  0
  1  2  1  0
  3  2  1  6
  3  4  1  0
  3 39  1  0
  4  5  1  0
  5  6  2  0
  5 36  1  0
  7  6  1  6
  6 17  1  0
  7  8  1  0
  7 16  1  0
  8  9  1  0
  9 10  1  0
 10 11  1  0
 11 12  1  1
 11 16  1  0
 12 13  1  0
 13 14  1  0
 13 15  2  0
 17 18  2  0
 18 19  1  0
 19 20  1  0
 19 36  2  0
 20 21  1  0
 21 22  1  0
 22 23  1  0
 23 24  1  0
 24 25  2  0
 24 26  1  0
 26 27  1  0
 26 31  1  0
 27 28  1  6
 27 29  1  0
 29 30  1  0
 31 32  1  6
 31 33  1  0
 33 34  1  1
 33 35  1  0
 36 37  1  0
 37 38  1  0
 39 40  1  0
 39 41  2  0
M  CHG  1  11   1
M  END
