
     RDKit          3D

 41 45  0  0  0  0  0  0  0  0999 V2000
   -6.2840    3.5530    1.9300 C   0  0  0  0  0  0  0  0  0  0  0  0
   -5.8380    3.0740    0.7830 C   0  0  0  0  0  0  0  0  0  0  0  0
   -5.4040    3.9680   -0.2540 N   0  0  0  0  0  0  0  0  0  0  0  0
   -4.9060    3.5650   -1.5290 C   0  0  0  0  0  0  0  0  0  0  0  0
   -4.8600    2.1040   -1.7120 C   0  0  0  0  0  0  0  0  0  0  0  0
   -4.3310    1.6270   -3.0400 C   0  0  0  0  0  0  0  0  0  0  0  0
   -5.2370    1.2280   -0.8160 C   0  0  0  0  0  0  0  0  0  0  0  0
   -5.1630   -0.1630   -1.0660 N   0  0  0  0  0  0  0  0  0  0  0  0
   -3.9210   -0.8790   -0.9940 C   0  0  0  0  0  0  0  0  0  0  0  0
   -3.8780   -2.2480   -1.1490 C   0  0  0  0  0  0  0  0  0  0  0  0
   -2.6760   -2.9660   -1.0790 C   0  0  0  0  0  0  0  0  0  0  0  0
   -1.5020   -2.2910   -0.8510 C   0  0  0  0  0  0  0  0  0  0  0  0
   -1.5150   -0.9150   -0.6940 C   0  0  0  0  0  0  0  0  0  0  0  0
   -2.7260   -0.2310   -0.7680 C   0  0  0  0  0  0  0  0  0  0  0  0
   -0.2460   -0.2530   -0.4940 C   0  0  0  0  0  0  0  0  0  0  0  0
   -0.3110    1.0180   -0.3510 O   0  0  0  0  0  0  0  0  0  0  0  0
    1.0020   -0.9390   -0.4530 N   0  0  0  0  0  0  0  0  0  0  0  0
    2.0880   -0.2970    0.1910 C   0  0  1  0  0  0  0  0  0  0  0  0
    2.4890   -1.0900    1.4230 C   0  0  0  0  0  0  0  0  0  0  0  0
    3.3020   -0.0980   -0.6920 C   0  0  0  0  0  0  0  0  0  0  0  0
    4.2620    0.4910   -0.0450 O   0  0  0  0  0  0  0  0  0  0  0  0
    5.2010    1.0930    0.6000 C   0  0  0  0  0  0  0  0  0  0  0  0
    5.0880    2.3870    1.1620 C   0  0  0  0  0  0  0  0  0  0  0  0
    6.1500    2.9260    1.8240 C   0  0  0  0  0  0  0  0  0  0  0  0
    6.0670    4.1850    2.3800 O   0  0  0  0  0  0  0  0  0  0  0  0
    4.8660    4.9140    2.2560 C   0  0  0  0  0  0  0  0  0  0  0  0
    7.3360    2.2430    1.9610 C   0  0  0  0  0  0  0  0  0  0  0  0
    8.6660    2.9630    2.8150 Cl  0  0  0  0  0  0  0  0  0  0  0  0
    7.4830    0.9740    1.4230 C   0  0  0  0  0  0  0  0  0  0  0  0
    6.4330    0.4210    0.7600 C   0  0  0  0  0  0  0  0  0  0  0  0
    6.6180   -1.1900    0.0790 Cl  0  0  0  0  0  0  0  0  0  0  0  0
    1.0340   -2.2230   -1.1080 C   0  0  0  0  0  0  0  0  0  0  0  0
   -0.1880   -2.9810   -0.7380 C   0  0  0  0  0  0  0  0  0  0  0  0
   -0.2230   -4.2240   -0.3360 C   0  0  0  0  0  0  0  0  0  0  0  0
    0.9460   -5.0810   -0.1560 C   0  0  0  0  0  0  0  0  0  0  0  0
    2.1130   -4.8180    0.4970 C   0  0  0  0  0  0  0  0  0  0  0  0
    2.9130   -5.9640    0.3790 C   0  0  0  0  0  0  0  0  0  0  0  0
    2.1730   -6.8660   -0.3490 C   0  0  0  0  0  0  0  0  0  0  0  0
    1.0200   -6.3250   -0.6530 O   0  0  0  0  0  0  0  0  0  0  0  0
   -5.7520    1.6570    0.4920 C   0  0  0  0  0  0  0  0  0  0  0  0
   -6.1130    0.7470    1.3660 C   0  0  0  0  0  0  0  0  0  0  0  0
  1  2  2  0
  2  3  1  0
  2 40  1  0
  3  4  1  0
  4  5  1  0
  5  6  1  0
  5  7  2  0
  7  8  1  0
  7 40  1  0
  8  9  1  0
  9 10  2  0
  9 14  1  0
 10 11  1  0
 11 12  2  0
 12 13  1  0
 12 33  1  0
 13 14  2  0
 13 15  1  0
 15 16  2  0
 15 17  1  0
 17 18  1  0
 17 32  1  0
 18 19  1  1
 18 20  1  0
 20 21  1  0
 21 22  1  0
 22 23  2  0
 22 30  1  0
 23 24  1  0
 24 25  1  0
 24 27  2  0
 25 26  1  0
 27 28  1  0
 27 29  1  0
 29 30  2  0
 30 31  1  0
 32 33  1  0
 33 34  2  3
 34 35  1  0
 35 36  2  0
 35 39  1  0
 36 37  1  0
 37 38  2  0
 38 39  1  0
 40 41  2  0
M  END
