
     RDKit          3D

 41 45  0  0  0  0  0  0  0  0999 V2000
   -1.9960   -4.4490   -0.7800 C   0  0  0  0  0  0  0  0  0  0  0  0
   -3.3190   -3.7430   -0.7140 C   0  0  0  0  0  0  0  0  0  0  0  0
   -3.3470   -2.5820    0.0620 O   0  0  0  0  0  0  0  0  0  0  0  0
   -2.5990   -1.4540   -0.1070 C   0  0  0  0  0  0  0  0  0  0  0  0
   -3.0730   -0.4640   -0.9540 C   0  0  0  0  0  0  0  0  0  0  0  0
   -4.2960   -0.6170   -1.6220 O   0  0  0  0  0  0  0  0  0  0  0  0
   -5.4850   -0.7920   -0.9230 C   0  0  0  0  0  0  0  0  0  0  0  0
   -6.2430   -1.9240   -1.1050 C   0  0  0  0  0  0  0  0  0  0  0  0
   -7.4310   -2.1380   -0.4290 C   0  0  0  0  0  0  0  0  0  0  0  0
   -7.8780   -1.1950    0.4560 C   0  0  0  0  0  0  0  0  0  0  0  0
   -7.1350   -0.0390    0.6630 C   0  0  0  0  0  0  0  0  0  0  0  0
   -5.9540    0.1450   -0.0270 C   0  0  0  0  0  0  0  0  0  0  0  0
   -5.0600    1.6160    0.2730 Cl  0  0  0  0  0  0  0  0  0  0  0  0
   -2.3170    0.6670   -1.1190 C   0  0  0  0  0  0  0  0  0  0  0  0
   -1.0910    0.8990   -0.4940 C   0  0  0  0  0  0  0  0  0  0  0  0
   -0.3600    2.1270   -0.7000 C   0  0  0  0  0  0  0  0  0  0  0  0
   -0.3500    3.0910    0.1770 C   0  0  0  0  0  0  0  0  0  0  0  0
   -1.2710    2.8600    1.6500 Cl  0  0  0  0  0  0  0  0  0  0  0  0
    0.3720    4.3390   -0.0060 C   0  0  0  0  0  0  0  0  0  0  0  0
    0.3280    5.2090    0.8940 O   0  0  0  0  0  0  0  0  0  0  0  0
    1.1430    4.6540   -1.1550 N   0  0  0  0  0  0  0  0  0  0  0  0
    1.8350    5.9480   -1.2440 C   0  0  0  0  0  0  0  0  0  0  0  0
   -0.6450   -0.1090    0.3400 C   0  0  0  0  0  0  0  0  0  0  0  0
   -1.4000   -1.2800    0.5360 C   0  0  0  0  0  0  0  0  0  0  0  0
   -1.1090   -2.3740    1.4760 C   0  0  0  0  0  0  0  0  0  0  0  0
   -0.0130   -2.6800    2.1480 C   0  0  0  0  0  0  0  0  0  0  0  0
    0.1350   -3.7860    3.0440 N   0  0  0  0  0  0  0  0  0  0  0  0
    1.3220   -3.7840    3.5430 C   0  0  0  0  0  0  0  0  0  0  0  0
    2.0820   -2.6360    2.9960 C   0  0  0  0  0  0  0  0  0  0  0  0
    1.2740   -1.9910    2.1680 C   0  0  0  0  0  0  0  0  0  0  0  0
    1.6340   -0.7930    1.3590 C   0  0  0  0  0  0  0  0  0  0  0  0
    2.8830   -0.6260    1.1880 C   0  0  0  0  0  0  0  0  0  0  0  0
    3.6830    0.3790    0.4700 C   0  0  0  0  0  0  0  0  0  0  0  0
    2.9790    1.3200   -0.4070 C   0  0  0  0  0  0  0  0  0  0  0  0
    4.9800    0.3180    0.5260 C   0  0  0  0  0  0  0  0  0  0  0  0
    6.1080    1.0500    0.0190 C   0  0  1  0  0  0  0  0  0  0  0  0
    6.7960    0.3700   -1.1850 C   0  0  0  0  0  0  0  0  0  0  0  0
    6.2830    1.5170   -2.0050 C   0  0  0  0  0  0  0  0  0  0  0  0
    6.1570    1.7190   -3.1990 O   0  0  0  0  0  0  0  0  0  0  0  0
    5.9970    2.2930   -0.7770 C   0  0  0  0  0  0  0  0  0  0  0  0
    0.6530    0.1400    0.8790 N   0  0  0  0  0  0  0  0  0  0  0  0
  1  2  1  0
  2  3  1  0
  3  4  1  0
  4  5  2  0
  4 24  1  0
  5  6  1  0
  5 14  1  0
  6  7  1  0
  7  8  2  0
  7 12  1  0
  8  9  1  0
  9 10  2  0
 10 11  1  0
 11 12  2  0
 12 13  1  0
 14 15  2  0
 15 16  1  0
 15 23  1  0
 16 17  2  3
 17 18  1  0
 17 19  1  0
 19 20  2  0
 19 21  1  0
 21 22  1  0
 23 24  2  0
 23 41  1  0
 24 25  1  0
 25 26  2  0
 26 27  1  0
 26 30  1  0
 27 28  2  0
 28 29  1  0
 29 30  2  0
 30 31  1  0
 31 32  2  3
 31 41  1  0
 32 33  1  0
 33 34  1  0
 33 35  2  3
 36 35  1  6
 36 37  1  0
 36 40  1  0
 37 38  1  0
 38 39  2  0
 38 40  1  0
M  END
