
     RDKit          3D

 41 45  0  0  0  0  0  0  0  0999 V2000
    3.3190    2.0670    1.8780 C   0  0  0  0  0  0  0  0  0  0  0  0
    4.7680    1.8250    2.1200 C   0  0  0  0  0  0  0  0  0  0  0  0
    5.1350    0.4200    2.4910 C   0  0  0  0  0  0  0  0  0  0  0  0
    4.8050   -0.6230    1.4860 C   0  0  2  0  0  0  0  0  0  0  0  0
    5.4350   -0.4130    0.2370 O   0  0  0  0  0  0  0  0  0  0  0  0
    6.4230   -1.2150   -0.2910 C   0  0  0  0  0  0  0  0  0  0  0  0
    6.7930   -2.2070    0.3850 O   0  0  0  0  0  0  0  0  0  0  0  0
    7.0550   -0.9770   -1.5800 C   0  0  0  0  0  0  0  0  0  0  0  0
    8.0380   -1.8180   -2.0520 C   0  0  0  0  0  0  0  0  0  0  0  0
    8.6430   -1.5990   -3.2760 C   0  0  0  0  0  0  0  0  0  0  0  0
    8.2920   -0.5320   -4.0770 C   0  0  0  0  0  0  0  0  0  0  0  0
    9.0670   -0.2730   -5.6160 Cl  0  0  0  0  0  0  0  0  0  0  0  0
    7.2970    0.3140   -3.5930 C   0  0  0  0  0  0  0  0  0  0  0  0
    6.7010    0.0910   -2.3790 C   0  0  0  0  0  0  0  0  0  0  0  0
    3.4050   -1.0120    1.3590 C   0  0  0  0  0  0  0  0  0  0  0  0
    2.9390   -1.1320    0.1740 O   0  0  0  0  0  0  0  0  0  0  0  0
    2.5030   -1.2770    2.4000 N   0  0  0  0  0  0  0  0  0  0  0  0
    1.1370   -1.6770    2.2450 C   0  0  0  0  0  0  0  0  0  0  0  0
    0.2900   -0.7220    1.5010 C   0  0  0  0  0  0  0  0  0  0  0  0
    0.7580    0.3370    1.0540 O   0  0  0  0  0  0  0  0  0  0  0  0
   -1.1130   -0.9940    1.2710 N   0  0  0  0  0  0  0  0  0  0  0  0
   -1.8960   -0.0330    0.5440 C   0  0  0  0  0  0  0  0  0  0  0  0
   -1.3170    1.0920    0.1030 N   0  0  0  0  0  0  0  0  0  0  0  0
   -2.0340    1.9980   -0.5690 C   0  0  0  0  0  0  0  0  0  0  0  0
   -1.4170    3.1780   -0.9940 C   0  0  0  0  0  0  0  0  0  0  0  0
   -2.1040    4.1590   -1.6620 C   0  0  0  0  0  0  0  0  0  0  0  0
   -1.2430    5.6190   -2.1670 Cl  0  0  0  0  0  0  0  0  0  0  0  0
   -3.4300    3.9890   -1.9230 C   0  0  0  0  0  0  0  0  0  0  0  0
   -4.0900    2.8130   -1.5120 C   0  0  0  0  0  0  0  0  0  0  0  0
   -3.3930    1.8600   -0.8610 C   0  0  0  0  0  0  0  0  0  0  0  0
   -4.0090    0.7070   -0.4210 C   0  0  0  0  0  0  0  0  0  0  0  0
   -5.3510    0.4850   -0.6790 C   0  0  0  0  0  0  0  0  0  0  0  0
   -5.8760   -0.7040   -0.1860 C   0  0  0  0  0  0  0  0  0  0  0  0
   -5.1470   -1.6260    0.5070 C   0  0  0  0  0  0  0  0  0  0  0  0
   -5.8000   -2.8970    1.0070 C   0  0  0  0  0  0  0  0  0  0  0  0
   -6.6480   -2.6530    2.2110 C   0  0  0  0  0  0  0  0  0  0  0  0
   -3.8330   -1.3720    0.7310 C   0  0  0  0  0  0  0  0  0  0  0  0
   -3.2340   -0.2200    0.2820 C   0  0  0  0  0  0  0  0  0  0  0  0
   -7.3500   -0.7970   -0.4710 C   0  0  0  0  0  0  0  0  0  0  0  0
   -7.4640   -0.0010   -1.7230 C   0  0  0  0  0  0  0  0  0  0  0  0
   -6.4250    1.1220   -1.4430 C   0  0  0  0  0  0  0  0  0  0  0  0
  1  2  1  0
  2  3  1  0
  4  3  1  1
  4  5  1  0
  4 15  1  0
  5  6  1  0
  6  7  2  0
  6  8  1  0
  8  9  2  0
  8 14  1  0
  9 10  1  0
 10 11  2  0
 11 12  1  0
 11 13  1  0
 13 14  2  0
 15 16  2  0
 15 17  1  0
 17 18  1  0
 18 19  1  0
 19 20  2  0
 19 21  1  0
 21 22  1  0
 22 23  2  0
 22 38  1  0
 23 24  1  0
 24 25  2  0
 24 30  1  0
 25 26  1  0
 26 27  1  0
 26 28  2  0
 28 29  1  0
 29 30  2  0
 30 31  1  0
 31 32  2  0
 31 38  1  0
 32 33  1  0
 32 41  1  0
 33 34  2  0
 33 39  1  0
 34 35  1  0
 34 37  1  0
 35 36  1  0
 37 38  2  0
 39 40  1  0
 40 41  1  0
M  END
