
     RDKit          3D

 41 42  0  0  0  0  0  0  0  0999 V2000
   -0.7130   -4.2760   -2.5160 C   0  0  0  0  0  0  0  0  0  0  0  0
   -1.5300   -4.9550   -1.4860 C   0  0  0  0  0  0  0  0  0  0  0  0
   -2.0740   -6.1780   -1.7980 C   0  0  0  0  0  0  0  0  0  0  0  0
   -2.8450   -6.9000   -0.9070 C   0  0  0  0  0  0  0  0  0  0  0  0
   -3.4020   -8.1680   -1.2430 N   0  0  0  0  0  0  0  0  0  0  0  0
   -3.0310   -6.3010    0.3240 C   0  0  0  0  0  0  0  0  0  0  0  0
   -2.5010   -5.0860    0.6590 C   0  0  0  0  0  0  0  0  0  0  0  0
   -1.7370   -4.3940   -0.2530 C   0  0  0  0  0  0  0  0  0  0  0  0
   -1.1480   -3.0870    0.0990 C   0  0  0  0  0  0  0  0  0  0  0  0
   -0.0190   -3.1580    0.6370 O   0  0  0  0  0  0  0  0  0  0  0  0
   -1.8110   -1.8430   -0.1520 N   0  0  0  0  0  0  0  0  0  0  0  0
   -3.0700   -1.8290   -0.7710 C   0  0  0  0  0  0  0  0  0  0  0  0
   -4.3200   -2.0220   -0.0360 C   0  0  1  0  0  0  0  0  0  0  0  0
   -4.7650   -1.1090    1.0290 C   0  0  0  0  0  0  0  0  0  0  0  0
   -5.3610   -1.9480   -1.0390 O   0  0  0  0  0  0  0  0  0  0  0  0
   -1.0260   -0.6480    0.2360 C   0  0  2  0  0  0  0  0  0  0  0  0
   -0.9410   -0.6220    1.7080 C   0  0  0  0  0  0  0  0  0  0  0  0
   -1.7290    0.5520   -0.3540 C   0  0  0  0  0  0  0  0  0  0  0  0
   -1.1130    1.8160   -0.1190 N   0  0  0  0  0  0  0  0  0  0  0  0
   -1.8860    2.8080   -0.8570 C   0  0  1  0  0  0  0  0  0  0  0  0
   -1.3190    2.9510   -2.2710 C   0  0  0  0  0  0  0  0  0  0  0  0
   -3.3140    2.3480   -1.0400 C   0  0  0  0  0  0  0  0  0  0  0  0
   -1.9340    4.1500   -0.1970 C   0  0  0  0  0  0  0  0  0  0  0  0
   -0.5800    4.7900   -0.0000 C   0  0  1  0  0  0  0  0  0  0  0  0
   -0.8220    6.1300    0.6690 C   0  0  0  0  0  0  0  0  0  0  0  0
    0.1850    4.0430    0.9260 O   0  0  0  0  0  0  0  0  0  0  0  0
    0.2970   -0.7020   -0.4660 C   0  0  0  0  0  0  0  0  0  0  0  0
    0.2900   -1.3450   -1.5970 O   0  0  0  0  0  0  0  0  0  0  0  0
    1.5190   -0.1680   -0.0830 N   0  0  0  0  0  0  0  0  0  0  0  0
    2.6350   -0.3250   -1.0420 C   0  0  0  0  0  0  0  0  0  0  0  0
    3.3020    1.0550   -1.1930 C   0  0  0  0  0  0  0  0  0  0  0  0
    3.9940    1.2220    0.0930 N   0  0  0  0  0  0  0  0  0  0  0  0
    5.3940    1.6220    0.0580 C   0  0  2  0  0  0  0  0  0  0  0  0
    6.1590    0.4050    0.5220 C   0  0  0  0  0  0  0  0  0  0  0  0
    7.5100    0.5060    0.5470 O   0  0  0  0  0  0  0  0  0  0  0  0
    5.6520    2.8590    0.8220 C   0  0  0  0  0  0  0  0  0  0  0  0
    7.1020    3.2540    0.7610 C   0  0  0  0  0  0  0  0  0  0  0  0
    7.2930    4.4740    1.4860 O   0  0  0  0  0  0  0  0  0  0  0  0
    3.2550    0.9600    1.2460 C   0  0  0  0  0  0  0  0  0  0  0  0
    3.8030    1.1320    2.3720 O   0  0  0  0  0  0  0  0  0  0  0  0
    1.8410    0.4850    1.1390 C   0  0  0  0  0  0  0  0  0  0  0  0
  1  2  1  0
  2  3  2  0
  2  8  1  0
  3  4  1  0
  4  5  1  0
  4  6  2  0
  6  7  1  0
  7  8  2  0
  8  9  1  0
  9 10  2  0
  9 11  1  0
 11 12  1  0
 11 16  1  0
 12 13  1  0
 13 14  1  1
 13 15  1  0
 16 17  1  1
 16 18  1  0
 16 27  1  0
 18 19  1  0
 19 20  1  0
 20 21  1  6
 20 22  1  0
 20 23  1  0
 23 24  1  0
 24 25  1  1
 24 26  1  0
 27 28  2  0
 27 29  1  0
 29 30  1  0
 29 41  1  0
 30 31  1  0
 31 32  1  0
 32 33  1  0
 32 39  1  0
 33 34  1  1
 33 36  1  0
 34 35  1  0
 36 37  1  0
 37 38  1  0
 39 40  2  0
 39 41  1  0
M  CHG  1  19   1
M  END
