
     RDKit          3D

 23 25  0  0  0  0  0  0  0  0999 V2000
   -1.7960    1.1470    0.4530 O   0  0  0  0  0  0  0  0  0  0  0  0
   -2.5400    0.1980    0.0120 C   0  0  0  0  0  0  0  0  0  0  0  0
   -1.9620   -1.0240   -0.3740 N   0  0  0  0  0  0  0  0  0  0  0  0
   -0.5830   -1.2730   -0.2950 C   0  0  0  0  0  0  0  0  0  0  0  0
   -0.1900   -2.6170   -0.3730 C   0  0  0  0  0  0  0  0  0  0  0  0
    1.1340   -2.9840   -0.3260 C   0  0  0  0  0  0  0  0  0  0  0  0
    2.0390   -2.0230   -0.2040 N   0  0  0  0  0  0  0  0  0  0  0  0
    1.7620   -0.7180   -0.1230 C   0  0  0  0  0  0  0  0  0  0  0  0
    2.7570    0.2920    0.0080 N   0  0  0  0  0  0  0  0  0  0  0  0
    4.1450   -0.0100    0.0630 C   0  0  0  0  0  0  0  0  0  0  0  0
    4.4660   -1.2240   -0.0090 O   0  0  0  0  0  0  0  0  0  0  0  0
    5.1970    1.0410    0.2000 C   0  0  2  0  0  0  0  0  0  0  0  0
    6.5560    0.8060   -0.3300 C   0  0  0  0  0  0  0  0  0  0  0  0
    6.3470    0.6360    1.1340 C   0  0  0  0  0  0  0  0  0  0  0  0
    0.4040   -0.3570   -0.1720 C   0  0  0  0  0  0  0  0  0  0  0  0
   -3.9580    0.5270   -0.0390 C   0  0  0  0  0  0  0  0  0  0  0  0
   -4.2930    1.8850   -0.1020 C   0  0  0  0  0  0  0  0  0  0  0  0
   -3.0220    3.0910   -0.1590 Cl  0  0  0  0  0  0  0  0  0  0  0  0
   -5.6120    2.2470   -0.1200 C   0  0  0  0  0  0  0  0  0  0  0  0
   -6.6240    1.3190   -0.0800 C   0  0  0  0  0  0  0  0  0  0  0  0
   -6.3190   -0.0180   -0.0170 C   0  0  0  0  0  0  0  0  0  0  0  0
   -4.9730   -0.3900    0.0030 C   0  0  0  0  0  0  0  0  0  0  0  0
   -4.6820   -2.1150    0.1410 Cl  0  0  0  0  0  0  0  0  0  0  0  0
  1  2  2  0
  2  3  1  0
  2 16  1  0
  3  4  1  0
  4  5  2  0
  4 15  1  0
  5  6  1  0
  6  7  2  0
  7  8  1  0
  8  9  1  0
  8 15  2  0
  9 10  1  0
 10 11  2  0
 12 10  1  6
 12 13  1  0
 12 14  1  0
 13 14  1  0
 16 17  2  0
 16 22  1  0
 17 18  1  0
 17 19  1  0
 19 20  2  0
 20 21  1  0
 21 22  2  0
 22 23  1  0
M  END
