
     RDKit          3D

 17 19  0  0  0  0  0  0  0  0999 V2000
    0.2070    0.2490   -1.2700 N   0  0  0  0  0  0  0  0  0  0  0  0
    0.1550    0.0160    0.1390 C   0  0  0  0  0  0  0  0  0  0  0  0
   -1.0600   -0.1360    0.7990 C   0  0  0  0  0  0  0  0  0  0  0  0
   -2.2880   -0.0530    0.0250 C   0  0  0  0  0  0  0  0  0  0  0  0
   -3.3820   -0.8820    0.0900 C   0  0  0  0  0  0  0  0  0  0  0  0
   -4.3420   -0.4450   -0.8260 C   0  0  0  0  0  0  0  0  0  0  0  0
   -3.8120    0.6270   -1.4190 N   0  0  0  0  0  0  0  0  0  0  0  0
   -2.5760    0.8910   -0.9300 C   0  0  0  0  0  0  0  0  0  0  0  0
   -1.0530   -0.3600    2.1630 C   0  0  0  0  0  0  0  0  0  0  0  0
    0.1330   -0.4310    2.8570 C   0  0  0  0  0  0  0  0  0  0  0  0
    1.3170   -0.2770    2.1730 C   0  0  0  0  0  0  0  0  0  0  0  0
    1.3620   -0.0480    0.7920 C   0  0  0  0  0  0  0  0  0  0  0  0
    2.6340    0.1040    0.1420 C   0  0  0  0  0  0  0  0  0  0  0  0
    3.6810    0.8740    0.6100 C   0  0  0  0  0  0  0  0  0  0  0  0
    4.6960    0.7820   -0.2420 N   0  0  0  0  0  0  0  0  0  0  0  0
    4.3400   -0.0090   -1.2240 N   0  0  0  0  0  0  0  0  0  0  0  0
    3.0830   -0.4460   -1.0270 C   0  0  0  0  0  0  0  0  0  0  0  0
  1  2  1  0
  2  3  2  0
  2 12  1  0
  3  4  1  0
  3  9  1  0
  4  5  1  0
  4  8  2  0
  5  6  2  0
  6  7  1  0
  7  8  1  0
  9 10  2  0
 10 11  1  0
 11 12  2  0
 12 13  1  0
 13 14  1  0
 13 17  2  0
 14 15  2  0
 15 16  1  0
 16 17  1  0
M  END
