
     RDKit          3D

 18 20  0  0  0  0  0  0  0  0999 V2000
    3.8170    0.8360   -0.8820 C   0  0  0  0  0  0  0  0  0  0  0  0
    3.1780   -0.1590   -0.3200 C   0  0  0  0  0  0  0  0  0  0  0  0
    3.7670   -1.4490   -0.0730 N   0  0  0  0  0  0  0  0  0  0  0  0
    2.7510   -2.2440    0.5330 C   0  0  0  0  0  0  0  0  0  0  0  0
    1.5580   -1.3550    0.6350 C   0  0  0  0  0  0  0  0  0  0  0  0
    1.7740   -0.1590    0.1520 C   0  0  0  0  0  0  0  0  0  0  0  0
    0.8840    0.9400    0.0110 N   0  0  0  0  0  0  0  0  0  0  0  0
    1.3540    2.2180   -0.1150 N   0  0  0  0  0  0  0  0  0  0  0  0
    0.3770    3.0840   -0.2090 C   0  0  0  0  0  0  0  0  0  0  0  0
   -0.7890    2.3610   -0.1460 C   0  0  0  0  0  0  0  0  0  0  0  0
   -2.0920    2.9150   -0.2250 N   0  0  0  0  0  0  0  0  0  0  0  0
   -0.4450    0.9980   -0.0100 C   0  0  0  0  0  0  0  0  0  0  0  0
   -1.4740   -0.0090    0.1010 C   0  0  0  0  0  0  0  0  0  0  0  0
   -2.7050    0.3280    0.6870 C   0  0  0  0  0  0  0  0  0  0  0  0
   -3.7620   -0.5520    0.7060 C   0  0  0  0  0  0  0  0  0  0  0  0
   -3.6750   -1.7930    0.1600 C   0  0  0  0  0  0  0  0  0  0  0  0
   -2.4990   -2.1610   -0.4200 C   0  0  0  0  0  0  0  0  0  0  0  0
   -1.4400   -1.2750   -0.4380 C   0  0  0  0  0  0  0  0  0  0  0  0
  1  2  2  0
  2  3  1  0
  2  6  1  0
  3  4  1  0
  4  5  1  0
  5  6  2  0
  6  7  1  0
  7  8  1  0
  7 12  1  0
  8  9  2  0
  9 10  1  0
 10 11  1  0
 10 12  2  0
 12 13  1  0
 13 14  2  0
 13 18  1  0
 14 15  1  0
 15 16  2  0
 16 17  1  0
 17 18  2  0
M  END
