
     RDKit          3D

 18 20  0  0  0  0  0  0  0  0999 V2000
    2.4770    2.7950    0.9150 C   0  0  0  0  0  0  0  0  0  0  0  0
    2.6300    1.3360    0.6150 C   0  0  0  0  0  0  0  0  0  0  0  0
    1.4480    0.5980    0.4690 C   0  0  0  0  0  0  0  0  0  0  0  0
    1.4820   -0.7440    0.1930 C   0  0  0  0  0  0  0  0  0  0  0  0
    0.3350   -1.5460    0.0030 N   0  0  0  0  0  0  0  0  0  0  0  0
   -1.0060   -1.1280   -0.0500 C   0  0  0  0  0  0  0  0  0  0  0  0
   -1.9360   -1.9830    0.5540 C   0  0  0  0  0  0  0  0  0  0  0  0
   -3.2680   -1.6720    0.5190 C   0  0  0  0  0  0  0  0  0  0  0  0
   -3.7290   -0.5320   -0.0990 C   0  0  0  0  0  0  0  0  0  0  0  0
   -4.9550   -0.0210   -0.2630 N   0  0  0  0  0  0  0  0  0  0  0  0
   -4.8770    1.1260   -0.9450 C   0  0  0  0  0  0  0  0  0  0  0  0
   -3.5400    1.3720   -1.2370 C   0  0  0  0  0  0  0  0  0  0  0  0
   -2.8380    0.3170   -0.6960 C   0  0  0  0  0  0  0  0  0  0  0  0
   -1.4870    0.0030   -0.6610 C   0  0  0  0  0  0  0  0  0  0  0  0
    2.7340   -1.2820    0.0770 N   0  0  0  0  0  0  0  0  0  0  0  0
    3.8540   -0.5700    0.2190 C   0  0  0  0  0  0  0  0  0  0  0  0
    5.1640   -1.2910    0.0650 C   0  0  0  0  0  0  0  0  0  0  0  0
    3.8170    0.7470    0.4890 N   0  0  0  0  0  0  0  0  0  0  0  0
  1  2  1  0
  2  3  2  0
  2 18  1  0
  3  4  1  0
  4  5  1  0
  4 15  2  0
  5  6  1  0
  6  7  2  0
  6 14  1  0
  7  8  1  0
  8  9  2  0
  9 10  1  0
  9 13  1  0
 10 11  1  0
 11 12  2  0
 12 13  1  0
 13 14  2  0
 15 16  1  0
 16 17  1  0
 16 18  2  0
M  END
