
     RDKit          3D

 18 20  0  0  0  0  0  0  0  0999 V2000
    4.7880   -1.2440   -0.4400 C   0  0  0  0  0  0  0  0  0  0  0  0
    4.7950    0.2260   -0.2240 C   0  0  0  0  0  0  0  0  0  0  0  0
    5.9810    0.9550   -0.4240 N   0  0  0  0  0  0  0  0  0  0  0  0
    3.6760    0.8030    0.1520 C   0  0  0  0  0  0  0  0  0  0  0  0
    2.4490    0.0400    0.3600 C   0  0  0  0  0  0  0  0  0  0  0  0
    2.3060   -1.1950    0.8720 N   0  0  0  0  0  0  0  0  0  0  0  0
    1.0260   -1.5240    0.8910 N   0  0  0  0  0  0  0  0  0  0  0  0
    0.2890   -0.5000    0.3830 C   0  0  0  0  0  0  0  0  0  0  0  0
   -1.1570   -0.4620    0.2290 C   0  0  0  0  0  0  0  0  0  0  0  0
   -1.9350   -1.5320    0.6150 C   0  0  0  0  0  0  0  0  0  0  0  0
   -3.3160   -1.4880    0.4640 C   0  0  0  0  0  0  0  0  0  0  0  0
   -3.9420   -0.3800   -0.0730 C   0  0  0  0  0  0  0  0  0  0  0  0
   -3.1830    0.6840   -0.4580 C   0  0  0  0  0  0  0  0  0  0  0  0
   -1.8010    0.6280   -0.3020 C   0  0  0  0  0  0  0  0  0  0  0  0
   -4.0590    1.7260   -0.9910 C   0  0  0  0  0  0  0  0  0  0  0  0
   -5.3020    1.3310   -0.9400 C   0  0  0  0  0  0  0  0  0  0  0  0
   -5.3570   -0.0270   -0.3600 C   0  0  0  0  0  0  0  0  0  0  0  0
    1.1910    0.4450    0.0670 N   0  0  0  0  0  0  0  0  0  0  0  0
  1  2  1  0
  2  3  1  0
  2  4  2  3
  4  5  1  0
  5  6  2  0
  5 18  1  0
  6  7  1  0
  7  8  2  0
  8  9  1  0
  8 18  1  0
  9 10  2  0
  9 14  1  0
 10 11  1  0
 11 12  2  0
 12 13  1  0
 12 17  1  0
 13 14  2  0
 13 15  1  0
 15 16  2  0
 16 17  1  0
M  END
