
     RDKit          3D

 18 20  0  0  0  0  0  0  0  0999 V2000
   -1.9660    0.5590    2.4210 C   0  0  0  0  0  0  0  0  0  0  0  0
   -1.7520    0.3260    1.1370 C   0  0  0  0  0  0  0  0  0  0  0  0
   -0.4630    0.1290    0.7430 N   0  0  0  0  0  0  0  0  0  0  0  0
   -0.1470   -0.1100   -0.5300 C   0  0  0  0  0  0  0  0  0  0  0  0
    1.1740   -0.3470   -0.9330 N   0  0  0  0  0  0  0  0  0  0  0  0
    2.3430   -0.2930   -0.1630 C   0  0  0  0  0  0  0  0  0  0  0  0
    2.6070    0.6830    0.7500 C   0  0  0  0  0  0  0  0  0  0  0  0
    3.7860    0.6430    1.5030 C   0  0  0  0  0  0  0  0  0  0  0  0
    4.6900   -0.3810    1.3280 C   0  0  0  0  0  0  0  0  0  0  0  0
    4.4260   -1.3330    0.4310 N   0  0  0  0  0  0  0  0  0  0  0  0
    3.2940   -1.3000   -0.2950 C   0  0  0  0  0  0  0  0  0  0  0  0
   -1.1750   -0.1570   -1.4580 C   0  0  0  0  0  0  0  0  0  0  0  0
   -1.2060   -0.3770   -2.8220 C   0  0  0  0  0  0  0  0  0  0  0  0
   -2.5250   -0.3080   -3.2270 C   0  0  0  0  0  0  0  0  0  0  0  0
   -3.3260   -0.0510   -2.1580 N   0  0  0  0  0  0  0  0  0  0  0  0
   -2.5390    0.0490   -1.0550 C   0  0  0  0  0  0  0  0  0  0  0  0
   -2.8220    0.2980    0.2890 C   0  0  0  0  0  0  0  0  0  0  0  0
   -4.0840    0.4830    0.6310 C   0  0  0  0  0  0  0  0  0  0  0  0
  1  2  2  0
  2  3  1  0
  2 17  1  0
  3  4  1  0
  4  5  1  0
  4 12  2  0
  5  6  1  0
  6  7  2  0
  6 11  1  0
  7  8  1  0
  8  9  2  0
  9 10  1  0
 10 11  2  0
 12 13  1  0
 12 16  1  0
 13 14  2  0
 14 15  1  0
 15 16  2  0
 16 17  1  0
 17 18  2  0
M  END
