
     RDKit          3D

 18 20  0  0  0  0  0  0  0  0999 V2000
    5.2820    0.3020   -0.2700 N   0  0  0  0  0  0  0  0  0  0  0  0
    4.0400   -0.3830   -0.1450 C   0  0  0  0  0  0  0  0  0  0  0  0
    4.0530   -1.7480   -0.0120 C   0  0  0  0  0  0  0  0  0  0  0  0
    2.8180   -2.3690    0.1060 C   0  0  0  0  0  0  0  0  0  0  0  0
    1.6860   -1.6440    0.0880 N   0  0  0  0  0  0  0  0  0  0  0  0
    1.6120   -0.3220   -0.0380 C   0  0  0  0  0  0  0  0  0  0  0  0
    0.4410    0.4300   -0.0570 N   0  0  0  0  0  0  0  0  0  0  0  0
   -0.8970   -0.0140    0.0490 C   0  0  0  0  0  0  0  0  0  0  0  0
   -1.2130   -1.3480    0.1940 C   0  0  0  0  0  0  0  0  0  0  0  0
   -2.5330   -1.8040    0.3000 C   0  0  0  0  0  0  0  0  0  0  0  0
   -3.5720   -0.9170    0.2620 C   0  0  0  0  0  0  0  0  0  0  0  0
   -3.2880    0.4230    0.1170 C   0  0  0  0  0  0  0  0  0  0  0  0
   -4.3490    1.2960    0.0810 C   0  0  0  0  0  0  0  0  0  0  0  0
   -4.1000    2.6340   -0.0620 C   0  0  0  0  0  0  0  0  0  0  0  0
   -2.8460    3.0750   -0.1630 N   0  0  0  0  0  0  0  0  0  0  0  0
   -1.8030    2.2230   -0.1280 C   0  0  0  0  0  0  0  0  0  0  0  0
   -1.9660    0.8720    0.0120 C   0  0  0  0  0  0  0  0  0  0  0  0
    2.8550    0.3210   -0.1590 C   0  0  0  0  0  0  0  0  0  0  0  0
  1  2  1  0
  2  3  2  0
  2 18  1  0
  3  4  1  0
  4  5  2  0
  5  6  1  0
  6  7  1  0
  6 18  2  0
  7  8  1  0
  8  9  2  0
  8 17  1  0
  9 10  1  0
 10 11  2  0
 11 12  1  0
 12 13  2  0
 12 17  1  0
 13 14  1  0
 14 15  2  0
 15 16  1  0
 16 17  2  0
M  END
