
     RDKit          3D

 18 19  0  0  0  0  0  0  0  0999 V2000
   -0.9610   -1.0570    1.4350 C   0  0  0  0  0  0  0  0  0  0  0  0
   -1.4280   -0.4530    0.1660 C   0  0  2  0  0  0  0  0  0  0  0  0
   -0.4720   -0.5050   -0.9410 C   0  0  0  0  0  0  0  0  0  0  0  0
   -1.0110   -0.7300   -2.1190 O   0  0  0  0  0  0  0  0  0  0  0  0
    0.9060   -0.3650   -1.0070 N   0  0  0  0  0  0  0  0  0  0  0  0
    1.6070   -0.5200   -2.3120 C   0  0  0  0  0  0  0  0  0  0  0  0
    2.6690   -1.5810   -2.2310 C   0  0  0  0  0  0  0  0  0  0  0  0
    3.4200   -1.5520   -1.0110 N   0  0  0  0  0  0  0  0  0  0  0  0
    3.0750   -0.6900    0.0910 C   0  0  0  0  0  0  0  0  0  0  0  0
    3.7260   -0.3080    1.1710 C   0  0  0  0  0  0  0  0  0  0  0  0
    2.8510    0.5970    1.9470 C   0  0  0  0  0  0  0  0  0  0  0  0
    1.6040    0.6950    1.1590 C   0  0  0  0  0  0  0  0  0  0  0  0
    1.7420   -0.0720    0.0760 C   0  0  0  0  0  0  0  0  0  0  0  0
   -2.3250    0.7220    0.2270 C   0  0  2  0  0  0  0  0  0  0  0  0
   -3.6290    0.3760    0.9780 C   0  0  0  0  0  0  0  0  0  0  0  0
   -2.8120    0.9620   -1.2200 C   0  0  0  0  0  0  0  0  0  0  0  0
   -1.8410    1.9930    0.7790 C   0  0  0  0  0  0  0  0  0  0  0  0
   -3.2100    3.1640    0.6850 Cl  0  0  0  0  0  0  0  0  0  0  0  0
  2  1  1  1
  2  3  1  0
  2 14  1  0
  3  4  2  0
  3  5  1  0
  5  6  1  0
  5 13  1  0
  6  7  1  0
  7  8  1  0
  8  9  1  0
  9 10  2  0
  9 13  1  0
 10 11  1  0
 11 12  1  0
 12 13  2  0
 14 15  1  1
 14 16  1  0
 14 17  1  0
 17 18  1  0
M  END
