
     RDKit          3D

 18 19  0  0  0  0  0  0  0  0999 V2000
   -3.5100   -1.6150    1.6550 C   0  0  0  0  0  0  0  0  0  0  0  0
   -3.5490   -0.3510    0.8880 C   0  0  0  0  0  0  0  0  0  0  0  0
   -2.4830    0.2500    0.4200 C   0  0  0  0  0  0  0  0  0  0  0  0
   -1.1580   -0.3660    0.6610 C   0  0  0  0  0  0  0  0  0  0  0  0
   -1.0610   -1.0700    1.6700 O   0  0  0  0  0  0  0  0  0  0  0  0
    0.0360   -0.2430   -0.1450 N   0  0  0  0  0  0  0  0  0  0  0  0
    1.2600   -0.7470    0.4130 C   0  0  1  0  0  0  0  0  0  0  0  0
    1.9160   -1.8020   -0.4450 C   0  0  0  0  0  0  0  0  0  0  0  0
    3.2820   -1.9220    0.2300 C   0  0  0  0  0  0  0  0  0  0  0  0
    3.6270   -0.4940    0.5720 C   0  0  1  0  0  0  0  0  0  0  0  0
    4.5690   -0.0080   -0.4140 N   0  0  0  0  0  0  0  0  0  0  0  0
    2.3450    0.2990    0.5070 C   0  0  0  0  0  0  0  0  0  0  0  0
    0.0560    0.3580   -1.4770 C   0  0  0  0  0  0  0  0  0  0  0  0
   -0.4650    1.7490   -1.4510 C   0  0  0  0  0  0  0  0  0  0  0  0
   -1.9670    1.8800   -1.6090 C   0  0  0  0  0  0  0  0  0  0  0  0
   -2.6550    1.4910   -0.3250 C   0  0  0  0  0  0  0  0  0  0  0  0
   -3.4520    2.3750    0.1940 C   0  0  0  0  0  0  0  0  0  0  0  0
   -4.2810    2.1350    1.6950 Cl  0  0  0  0  0  0  0  0  0  0  0  0
  1  2  1  0
  2  3  2  3
  3  4  1  0
  3 16  1  0
  4  5  2  0
  4  6  1  0
  7  6  1  6
  6 13  1  0
  7  8  1  0
  7 12  1  0
  8  9  1  0
  9 10  1  0
 10 11  1  6
 10 12  1  0
 13 14  1  0
 14 15  1  0
 15 16  1  0
 16 17  2  3
 17 18  1  0
M  END
