
     RDKit          3D

 18 19  0  0  0  0  0  0  0  0999 V2000
   -5.0680    0.0190   -1.2510 C   0  0  0  0  0  0  0  0  0  0  0  0
   -4.5430   -0.3550   -0.1010 C   0  0  0  0  0  0  0  0  0  0  0  0
   -5.4260   -0.8560    0.9710 C   0  0  0  0  0  0  0  0  0  0  0  0
   -3.1410   -0.2730    0.1020 N   0  0  0  0  0  0  0  0  0  0  0  0
   -2.3960   -1.3830    0.7030 C   0  0  0  0  0  0  0  0  0  0  0  0
   -1.0330   -0.7800    1.0720 C   0  0  0  0  0  0  0  0  0  0  0  0
   -0.4210   -0.4240   -0.1640 N   0  0  0  0  0  0  0  0  0  0  0  0
    1.0080   -0.3450   -0.1690 C   0  0  0  0  0  0  0  0  0  0  0  0
    1.5620    0.7730    0.6200 C   0  0  0  0  0  0  0  0  0  0  0  0
    3.0360    0.9260    0.6580 C   0  0  2  0  0  0  0  0  0  0  0  0
    3.3050    2.0610    1.4720 O   0  0  0  0  0  0  0  0  0  0  0  0
    3.7160    1.1500   -0.6310 C   0  0  0  0  0  0  0  0  0  0  0  0
    4.1930   -0.1880   -1.1230 C   0  0  0  0  0  0  0  0  0  0  0  0
    4.2810   -1.0390    0.1250 C   0  0  0  0  0  0  0  0  0  0  0  0
    3.7950   -0.2050    1.2770 C   0  0  1  0  0  0  0  0  0  0  0  0
    5.2680    0.4850    2.0360 Cl  0  0  0  0  0  0  0  0  0  0  0  0
   -1.0860    0.5860   -0.9170 C   0  0  0  0  0  0  0  0  0  0  0  0
   -2.4260    0.9350   -0.2990 C   0  0  0  0  0  0  0  0  0  0  0  0
  1  2  2  0
  2  3  1  0
  2  4  1  0
  4  5  1  0
  4 18  1  0
  5  6  1  0
  6  7  1  0
  7  8  1  0
  7 17  1  0
  8  9  1  0
  9 10  1  0
 10 11  1  1
 10 12  1  0
 10 15  1  0
 12 13  1  0
 13 14  1  0
 14 15  1  0
 15 16  1  6
 17 18  1  0
M  END
