
     RDKit          3D

 18 19  0  0  0  0  0  0  0  0999 V2000
    4.3950   -1.6060   -0.9600 C   0  0  0  0  0  0  0  0  0  0  0  0
    2.8770   -1.3920   -0.8230 C   0  0  0  0  0  0  0  0  0  0  0  0
    2.6840    0.0920   -0.6530 C   0  0  0  0  0  0  0  0  0  0  0  0
    1.4040    0.5020   -0.5120 O   0  0  0  0  0  0  0  0  0  0  0  0
    0.6610    0.0430    0.5300 C   0  0  1  0  0  0  0  0  0  0  0  0
    0.3110    1.1600    1.5200 C   0  0  0  0  0  0  0  0  0  0  0  0
   -0.9210    1.8680    1.0830 C   0  0  0  0  0  0  0  0  0  0  0  0
   -1.5550    2.6710    1.9130 C   0  0  0  0  0  0  0  0  0  0  0  0
   -0.9350    2.9020    3.5400 Cl  0  0  0  0  0  0  0  0  0  0  0  0
   -1.4290    1.6850   -0.2640 C   0  0  0  0  0  0  0  0  0  0  0  0
   -1.9180    2.6660   -0.9900 C   0  0  0  0  0  0  0  0  0  0  0  0
   -1.9630    3.9730   -0.4610 N   0  0  0  0  0  0  0  0  0  0  0  0
   -1.3710    0.3440   -0.7930 N   0  0  0  0  0  0  0  0  0  0  0  0
   -0.5900   -0.5950    0.0080 C   0  0  2  0  0  0  0  0  0  0  0  0
   -1.5310   -1.0520    1.1120 C   0  0  0  0  0  0  0  0  0  0  0  0
   -2.5650   -1.8060    0.3020 C   0  0  0  0  0  0  0  0  0  0  0  0
   -1.7180   -2.5880   -0.6680 C   0  0  0  0  0  0  0  0  0  0  0  0
   -0.3510   -1.8760   -0.7140 C   0  0  0  0  0  0  0  0  0  0  0  0
  1  2  1  0
  2  3  1  0
  3  4  1  0
  5  4  1  6
  5  6  1  0
  5 14  1  0
  6  7  1  0
  7  8  2  3
  7 10  1  0
  8  9  1  0
 10 11  2  3
 10 13  1  0
 11 12  1  0
 13 14  1  0
 14 15  1  1
 14 18  1  0
 15 16  1  0
 16 17  1  0
 17 18  1  0
M  END
