
     RDKit          3D

 21 23  0  0  0  0  0  0  0  0999 V2000
    2.9590   -0.3360   -0.5280 N   0  0  0  0  0  0  0  0  0  0  0  0
    2.1820    0.3120    0.0860 C   0  0  0  0  0  0  0  0  0  0  0  0
    1.2350    1.0700    0.8240 C   0  0  0  0  0  0  0  0  0  0  0  0
   -0.0500    0.9500    0.6080 C   0  0  0  0  0  0  0  0  0  0  0  0
   -0.7090    0.0830   -0.3530 C   0  0  0  0  0  0  0  0  0  0  0  0
   -1.6760    0.5930   -1.2320 C   0  0  0  0  0  0  0  0  0  0  0  0
   -2.3450   -0.1870   -2.1470 C   0  0  0  0  0  0  0  0  0  0  0  0
   -3.3730    0.4220   -3.0620 C   0  0  0  0  0  0  0  0  0  0  0  0
   -2.7970    1.1660   -4.0580 O   0  0  0  0  0  0  0  0  0  0  0  0
   -2.0480   -1.5220   -2.1950 C   0  0  0  0  0  0  0  0  0  0  0  0
   -1.0880   -2.0590   -1.3300 C   0  0  0  0  0  0  0  0  0  0  0  0
   -0.4240   -1.2640   -0.4160 C   0  0  0  0  0  0  0  0  0  0  0  0
    0.5030   -1.8990    0.3950 O   0  0  0  0  0  0  0  0  0  0  0  0
    1.1780   -3.0910   -0.0290 C   0  0  0  0  0  0  0  0  0  0  0  0
    0.0500   -4.0450   -0.4330 C   0  0  0  0  0  0  0  0  0  0  0  0
   -0.7870   -3.4150   -1.3790 O   0  0  0  0  0  0  0  0  0  0  0  0
    1.7070    2.0000    1.8330 C   0  0  0  0  0  0  0  0  0  0  0  0
    0.9650    2.8280    2.6450 C   0  0  0  0  0  0  0  0  0  0  0  0
    1.8800    3.5030    3.4210 C   0  0  0  0  0  0  0  0  0  0  0  0
    3.1270    3.1350    3.1300 N   0  0  0  0  0  0  0  0  0  0  0  0
    3.0190    2.2160    2.1580 C   0  0  0  0  0  0  0  0  0  0  0  0
  1  2  3  0
  2  3  1  0
  3  4  2  3
  3 17  1  0
  4  5  1  0
  5  6  2  0
  5 12  1  0
  6  7  1  0
  7  8  1  0
  7 10  2  0
  8  9  1  0
 10 11  1  0
 11 12  2  0
 11 16  1  0
 12 13  1  0
 13 14  1  0
 14 15  1  0
 15 16  1  0
 17 18  1  0
 17 21  2  0
 18 19  2  0
 19 20  1  0
 20 21  1  0
M  END
