
     RDKit          3D

 25 27  0  0  0  0  0  0  0  0999 V2000
   -8.1520    3.1590   -0.4480 N   0  0  0  0  0  0  0  0  0  0  0  0
   -7.0770    2.7380   -0.4850 C   0  0  0  0  0  0  0  0  0  0  0  0
   -5.7430    2.2160   -0.5550 C   0  0  0  0  0  0  0  0  0  0  0  0
   -5.0140    2.4020   -1.6880 C   0  0  0  0  0  0  0  0  0  0  0  0
   -3.6960    1.9120   -1.8140 C   0  0  0  0  0  0  0  0  0  0  0  0
   -2.8620    2.1580   -3.3340 Cl  0  0  0  0  0  0  0  0  0  0  0  0
   -3.0880    1.2300   -0.8060 C   0  0  0  0  0  0  0  0  0  0  0  0
   -1.7220    0.7250   -0.8030 C   0  0  0  0  0  0  0  0  0  0  0  0
   -1.4900   -0.1970    0.0690 O   0  0  0  0  0  0  0  0  0  0  0  0
   -0.6540    1.1090   -1.6050 N   0  0  0  0  0  0  0  0  0  0  0  0
    0.6540    0.5770   -1.5530 C   0  0  0  0  0  0  0  0  0  0  0  0
    1.5090    0.7930   -2.6540 C   0  0  0  0  0  0  0  0  0  0  0  0
    2.7910    0.3270   -2.6660 C   0  0  0  0  0  0  0  0  0  0  0  0
    3.2380   -0.3460   -1.6090 N   0  0  0  0  0  0  0  0  0  0  0  0
    2.4940   -0.6070   -0.4980 C   0  0  0  0  0  0  0  0  0  0  0  0
    3.1210   -1.3290    0.5220 N   0  0  0  0  0  0  0  0  0  0  0  0
    2.5860   -1.7330    1.7680 C   0  0  0  0  0  0  0  0  0  0  0  0
    1.4070   -1.4290    2.0380 O   0  0  0  0  0  0  0  0  0  0  0  0
    3.3970   -2.5080    2.7580 C   0  0  1  0  0  0  0  0  0  0  0  0
    4.4160   -3.4800    2.3010 C   0  0  0  0  0  0  0  0  0  0  0  0
    4.8900   -2.1850    2.8460 C   0  0  0  0  0  0  0  0  0  0  0  0
    1.1950   -0.1240   -0.5080 C   0  0  0  0  0  0  0  0  0  0  0  0
   -3.8710    1.0540    0.3530 C   0  0  0  0  0  0  0  0  0  0  0  0
   -3.1660    0.1880    1.6980 Cl  0  0  0  0  0  0  0  0  0  0  0  0
   -5.1520    1.5280    0.4780 C   0  0  0  0  0  0  0  0  0  0  0  0
  1  2  3  0
  2  3  1  0
  3  4  2  0
  3 25  1  0
  4  5  1  0
  5  6  1  0
  5  7  2  0
  7  8  1  0
  7 23  1  0
  8  9  2  0
  8 10  1  0
 10 11  1  0
 11 12  2  0
 11 22  1  0
 12 13  1  0
 13 14  2  0
 14 15  1  0
 15 16  1  0
 15 22  2  0
 16 17  1  0
 17 18  2  0
 19 17  1  6
 19 20  1  0
 19 21  1  0
 20 21  1  0
 23 24  1  0
 23 25  2  0
M  END
