
     RDKit          3D

 27 29  0  0  0  0  0  0  0  0999 V2000
    1.5140   -3.7140   -0.6820 C   0  0  0  0  0  0  0  0  0  0  0  0
    1.4820   -2.3880   -1.3780 C   0  0  2  0  0  0  0  0  0  0  0  0
    2.4070   -1.4520   -0.5890 C   0  0  0  0  0  0  0  0  0  0  0  0
    2.4370   -0.1200   -1.2040 C   0  0  0  0  0  0  0  0  0  0  0  0
    1.7810    0.0990   -2.2000 O   0  0  0  0  0  0  0  0  0  0  0  0
    3.2660    0.9510   -0.6100 C   0  0  0  0  0  0  0  0  0  0  0  0
    3.9480    0.4550    0.5570 N   0  0  0  0  0  0  0  0  0  0  0  0
    4.9020    1.4110    1.0720 C   0  0  1  0  0  0  0  0  0  0  0  0
    6.0440    0.6940    1.7920 C   0  0  0  0  0  0  0  0  0  0  0  0
    7.0080    1.5490    1.0000 C   0  0  0  0  0  0  0  0  0  0  0  0
    5.9070    1.7770   -0.0160 C   0  0  0  0  0  0  0  0  0  0  0  0
    0.1280   -1.7770   -1.3290 C   0  0  0  0  0  0  0  0  0  0  0  0
   -0.4930   -1.5150   -2.3860 O   0  0  0  0  0  0  0  0  0  0  0  0
   -0.4580   -1.4930   -0.1300 O   0  0  0  0  0  0  0  0  0  0  0  0
   -1.7150   -0.9250    0.0190 C   0  0  0  0  0  0  0  0  0  0  0  0
   -2.8370   -1.7080    0.1120 C   0  0  0  0  0  0  0  0  0  0  0  0
   -4.1260   -1.1900    0.2620 C   0  0  0  0  0  0  0  0  0  0  0  0
   -4.3090    0.1540    0.3220 C   0  0  0  0  0  0  0  0  0  0  0  0
   -5.6600    0.7280    0.4800 C   0  0  0  0  0  0  0  0  0  0  0  0
   -6.7790   -0.0590    0.5730 C   0  0  0  0  0  0  0  0  0  0  0  0
   -8.0740    0.4410    0.7230 C   0  0  0  0  0  0  0  0  0  0  0  0
   -9.4480   -0.6380    0.8340 Cl  0  0  0  0  0  0  0  0  0  0  0  0
   -8.2460    1.8010    0.7820 C   0  0  0  0  0  0  0  0  0  0  0  0
   -7.1150    2.5730    0.6870 C   0  0  0  0  0  0  0  0  0  0  0  0
   -5.8640    2.0540    0.5410 N   0  0  0  0  0  0  0  0  0  0  0  0
   -3.1920    0.9610    0.2300 C   0  0  0  0  0  0  0  0  0  0  0  0
   -1.8990    0.4350    0.0790 C   0  0  0  0  0  0  0  0  0  0  0  0
  2  1  1  1
  2  3  1  0
  2 12  1  0
  3  4  1  0
  4  5  2  0
  4  6  1  0
  6  7  1  0
  8  7  1  6
  8  9  1  0
  8 11  1  0
  9 10  1  0
 10 11  1  0
 12 13  2  0
 12 14  1  0
 14 15  1  0
 15 16  2  0
 15 27  1  0
 16 17  1  0
 17 18  2  0
 18 19  1  0
 18 26  1  0
 19 20  2  0
 19 25  1  0
 20 21  1  0
 21 22  1  0
 21 23  2  0
 23 24  1  0
 24 25  2  0
 26 27  2  0
M  CHG  2   7   1  25   1
M  END
