
     RDKit          3D

 26 27  0  0  0  0  0  0  0  0999 V2000
   -9.4200    1.1820    0.4800 C   0  0  0  0  0  0  0  0  0  0  0  0
   -8.0060    1.0000    0.9940 C   0  0  0  0  0  0  0  0  0  0  0  0
   -7.1640    0.4870   -0.1440 C   0  0  1  0  0  0  0  0  0  0  0  0
   -7.1840    1.4980   -1.2930 C   0  0  0  0  0  0  0  0  0  0  0  0
   -5.8100    0.3150    0.2240 O   0  0  0  0  0  0  0  0  0  0  0  0
   -5.2070   -0.9400    0.0860 C   0  0  0  0  0  0  0  0  0  0  0  0
   -5.9310   -1.8610   -0.3710 O   0  0  0  0  0  0  0  0  0  0  0  0
   -3.8150   -1.1580    0.4550 C   0  0  0  0  0  0  0  0  0  0  0  0
   -3.0830   -0.1810    0.9280 C   0  0  0  0  0  0  0  0  0  0  0  0
   -1.6680   -0.3190    1.3240 C   0  0  0  0  0  0  0  0  0  0  0  0
   -0.7620    0.5990    0.5230 C   0  0  0  0  0  0  0  0  0  0  0  0
    0.5980    0.4060    0.9660 N   0  0  0  0  0  0  0  0  0  0  0  0
    1.4890    0.0900   -0.1400 C   0  0  2  0  0  0  0  0  0  0  0  0
    1.7420   -1.4000   -0.1340 C   0  0  0  0  0  0  0  0  0  0  0  0
    2.8670   -1.6890    0.8230 C   0  0  0  0  0  0  0  0  0  0  0  0
    4.2040   -1.1870    0.2530 C   0  0  0  0  0  0  0  0  0  0  0  0
    3.8950   -0.0250   -0.6150 C   0  0  2  0  0  0  0  0  0  0  0  0
    5.0320    0.7660   -1.0160 N   0  0  2  0  0  0  0  0  0  0  0  0
    6.1040   -0.0190   -1.5280 C   0  0  0  0  0  0  0  0  0  0  0  0
    7.1180   -0.4790   -0.5540 C   0  0  0  0  0  0  0  0  0  0  0  0
    7.4990    0.5120    0.4960 C   0  0  0  0  0  0  0  0  0  0  0  0
    6.3880    1.3930    0.9590 C   0  0  0  0  0  0  0  0  0  0  0  0
    5.4040    1.7780   -0.0760 C   0  0  0  0  0  0  0  0  0  0  0  0
    2.8300    0.8240    0.0100 C   0  0  0  0  0  0  0  0  0  0  0  0
   -3.3020   -2.4550    0.2780 O   0  0  0  0  0  0  0  0  0  0  0  0
   -3.1000   -2.9570   -1.0360 C   0  0  0  0  0  0  0  0  0  0  0  0
  1  2  1  0
  2  3  1  0
  3  4  1  6
  3  5  1  0
  5  6  1  0
  6  7  2  0
  6  8  1  0
  8  9  2  3
  8 25  1  0
  9 10  1  0
 10 11  1  0
 11 12  1  0
 13 12  1  1
 13 14  1  0
 13 24  1  0
 14 15  1  0
 15 16  1  0
 17 16  1  1
 17 18  1  0
 17 24  1  0
 18 19  1  1
 18 23  1  0
 19 20  1  0
 20 21  1  0
 21 22  1  0
 22 23  1  0
 25 26  1  0
M  CHG  2  12   1  18   1
M  END
