
     RDKit          3D

 26 28  0  0  0  0  0  0  0  0999 V2000
   -3.0400    0.5970    1.5890 O   0  0  0  0  0  0  0  0  0  0  0  0
   -3.1680   -0.0270    0.4910 C   0  0  0  0  0  0  0  0  0  0  0  0
   -1.9820   -0.2520   -0.3060 C   0  0  0  0  0  0  0  0  0  0  0  0
   -0.8060    0.1310    0.0130 C   0  0  0  0  0  0  0  0  0  0  0  0
   -0.3990    0.8440    1.1860 C   0  0  0  0  0  0  0  0  0  0  0  0
    0.9130    1.1560    1.3410 C   0  0  0  0  0  0  0  0  0  0  0  0
    1.5050    1.8470    2.4080 N   0  0  0  0  0  0  0  0  0  0  0  0
    2.7810    2.0360    2.2110 C   0  0  0  0  0  0  0  0  0  0  0  0
    3.1530    1.4840    0.9940 N   0  0  0  0  0  0  0  0  0  0  0  0
    4.3920    1.4180    0.2480 C   0  0  0  0  0  0  0  0  0  0  0  0
    4.6070    0.0020   -0.1530 C   0  0  0  0  0  0  0  0  0  0  0  0
    5.5610   -0.3790   -0.9310 C   0  0  0  0  0  0  0  0  0  0  0  0
    6.5930    0.4340   -1.5560 C   0  0  0  0  0  0  0  0  0  0  0  0
    6.5180    2.1290   -1.1660 Cl  0  0  0  0  0  0  0  0  0  0  0  0
    3.6780   -1.0130    0.4050 C   0  0  0  0  0  0  0  0  0  0  0  0
    4.0750   -2.1870    0.8530 C   0  0  0  0  0  0  0  0  0  0  0  0
    3.1550   -3.0590    1.3440 F   0  0  0  0  0  0  0  0  0  0  0  0
    5.7290   -2.6590    0.8840 Cl  0  0  0  0  0  0  0  0  0  0  0  0
    2.2880   -0.6250    0.4700 N   0  0  0  0  0  0  0  0  0  0  0  0
    1.9950    0.8200    0.4000 C   0  0  1  0  0  0  0  0  0  0  0  0
   -4.4500   -0.4810    0.0760 N   0  0  0  0  0  0  0  0  0  0  0  0
   -5.5860   -0.2380    0.8890 C   0  0  0  0  0  0  0  0  0  0  0  0
   -6.6330    0.4620    0.0240 C   0  0  0  0  0  0  0  0  0  0  0  0
   -6.6950   -0.0300   -1.2530 O   0  0  0  0  0  0  0  0  0  0  0  0
   -6.0810   -1.2390   -1.4620 C   0  0  0  0  0  0  0  0  0  0  0  0
   -4.5800   -1.1770   -1.1550 C   0  0  0  0  0  0  0  0  0  0  0  0
  1  2  2  0
  2  3  1  0
  2 21  1  0
  3  4  2  3
  4  5  1  0
  5  6  2  3
  6  7  1  0
  6 20  1  0
  7  8  2  0
  8  9  1  0
  9 10  1  0
  9 20  1  0
 10 11  1  0
 11 12  2  3
 11 15  1  0
 12 13  1  0
 13 14  1  0
 15 16  2  3
 15 19  1  0
 16 17  1  0
 16 18  1  0
 20 19  1  1
 21 22  1  0
 21 26  1  0
 22 23  1  0
 23 24  1  0
 24 25  1  0
 25 26  1  0
M  END
