
     RDKit          3D

 26 28  0  0  0  0  0  0  0  0999 V2000
   -1.5990    2.9070   -0.3860 C   0  0  0  0  0  0  0  0  0  0  0  0
   -2.6710    1.8490   -0.4370 C   0  0  0  0  0  0  0  0  0  0  0  0
   -3.9200    2.0930   -0.5580 N   0  0  0  0  0  0  0  0  0  0  0  0
   -4.6440    0.8830   -0.5710 C   0  0  2  0  0  0  0  0  0  0  0  0
   -5.7030    0.7770    0.4960 C   0  0  0  0  0  0  0  0  0  0  0  0
   -3.6050   -0.1670   -0.4380 C   0  0  0  0  0  0  0  0  0  0  0  0
   -2.4240    0.4030   -0.3560 C   0  0  0  0  0  0  0  0  0  0  0  0
   -1.1360   -0.2170   -0.2080 N   0  0  0  0  0  0  0  0  0  0  0  0
   -0.0080    0.4910   -0.1820 N   0  0  0  0  0  0  0  0  0  0  0  0
    1.0720   -0.2960   -0.0380 C   0  0  0  0  0  0  0  0  0  0  0  0
    2.4740    0.0940    0.0330 C   0  0  0  0  0  0  0  0  0  0  0  0
    3.3440   -0.7840    0.1690 O   0  0  0  0  0  0  0  0  0  0  0  0
    2.8270    1.4440   -0.0500 N   0  0  0  0  0  0  0  0  0  0  0  0
    4.1870    1.9400    0.0100 C   0  0  2  0  0  0  0  0  0  0  0  0
    4.3860    2.9170    1.1390 C   0  0  0  0  0  0  0  0  0  0  0  0
    4.4710    2.6360   -1.2960 C   0  0  2  0  0  0  0  0  0  0  0  0
    4.3160    1.6990   -2.2990 F   0  0  0  0  0  0  0  0  0  0  0  0
    6.1050    3.3480   -1.3160 Cl  0  0  0  0  0  0  0  0  0  0  0  0
    3.2270    3.9030   -1.5340 Cl  0  0  0  0  0  0  0  0  0  0  0  0
    0.6030   -1.5870    0.0310 C   0  0  0  0  0  0  0  0  0  0  0  0
   -0.7730   -1.4950   -0.0760 C   0  0  0  0  0  0  0  0  0  0  0  0
   -1.6220   -2.7130   -0.0210 C   0  0  0  0  0  0  0  0  0  0  0  0
   -0.8630   -3.9830    0.2510 C   0  0  0  0  0  0  0  0  0  0  0  0
    0.4230   -3.9840   -0.5090 C   0  0  0  0  0  0  0  0  0  0  0  0
    1.2980   -2.9150    0.1740 C   0  0  2  0  0  0  0  0  0  0  0  0
    1.4770   -3.2730    1.4880 O   0  0  0  0  0  0  0  0  0  0  0  0
  1  2  1  0
  2  3  2  0
  2  7  1  0
  3  4  1  0
  4  5  1  1
  4  6  1  0
  6  7  2  0
  7  8  1  0
  8  9  1  0
  8 21  1  0
  9 10  2  0
 10 11  1  0
 10 20  1  0
 11 12  2  0
 11 13  1  0
 13 14  1  0
 14 15  1  1
 14 16  1  0
 16 17  1  6
 16 18  1  0
 16 19  1  0
 20 21  2  0
 20 25  1  0
 21 22  1  0
 22 23  1  0
 23 24  1  0
 24 25  1  0
 25 26  1  1
M  END
