
     RDKit          3D

 25 26  0  0  0  0  0  0  0  0999 V2000
    7.7700    1.4640   -1.9150 C   0  0  0  0  0  0  0  0  0  0  0  0
    6.5390    0.9430   -1.4200 O   0  0  0  0  0  0  0  0  0  0  0  0
    5.4200    1.7370   -1.2470 C   0  0  0  0  0  0  0  0  0  0  0  0
    5.4680    2.9550   -1.5270 O   0  0  0  0  0  0  0  0  0  0  0  0
    4.1760    1.1690   -0.7380 C   0  0  0  0  0  0  0  0  0  0  0  0
    2.9890    1.8800   -0.5120 C   0  0  0  0  0  0  0  0  0  0  0  0
    2.0450    1.0190   -0.0380 N   0  0  0  0  0  0  0  0  0  0  0  0
    2.5630   -0.2200    0.0540 C   0  0  0  0  0  0  0  0  0  0  0  0
    1.8620   -1.4370    0.5260 C   0  0  0  0  0  0  0  0  0  0  0  0
    0.7440   -1.4490    0.8850 N   0  0  0  0  0  0  0  0  0  0  0  0
   -0.5010   -1.2500    1.2420 C   0  0  0  0  0  0  0  0  0  0  0  0
   -1.4710   -0.7240    0.5590 C   0  0  0  0  0  0  0  0  0  0  0  0
   -1.0990   -0.2690   -0.8040 C   0  0  0  0  0  0  0  0  0  0  0  0
   -0.8080    0.0640   -1.8660 N   0  0  0  0  0  0  0  0  0  0  0  0
   -2.8790   -0.7300    0.8360 C   0  0  0  0  0  0  0  0  0  0  0  0
   -3.6510    0.0770    0.0350 C   0  0  0  0  0  0  0  0  0  0  0  0
   -5.0780    0.1940    0.1830 C   0  0  0  0  0  0  0  0  0  0  0  0
   -5.9170    1.0710   -0.6820 C   0  0  0  0  0  0  0  0  0  0  0  0
   -5.6450   -0.5060    1.1190 C   0  0  0  0  0  0  0  0  0  0  0  0
   -4.9750   -1.3700    1.9880 N   0  0  0  0  0  0  0  0  0  0  0  0
   -3.5020   -1.5250    1.8650 C   0  0  0  0  0  0  0  0  0  0  0  0
   -3.0320   -2.6140    2.4270 C   0  0  0  0  0  0  0  0  0  0  0  0
   -1.6010   -3.5550    2.2140 Cl  0  0  0  0  0  0  0  0  0  0  0  0
   -4.0480   -3.2580    3.7800 Cl  0  0  0  0  0  0  0  0  0  0  0  0
    3.8690   -0.1230   -0.3750 C   0  0  0  0  0  0  0  0  0  0  0  0
  1  2  1  0
  2  3  1  0
  3  4  2  0
  3  5  1  0
  5  6  2  0
  5 25  1  0
  6  7  1  0
  7  8  1  0
  8  9  1  0
  8 25  2  0
  9 10  2  3
 10 11  1  0
 11 12  2  3
 12 13  1  0
 12 15  1  0
 13 14  3  0
 15 16  2  0
 15 21  1  0
 16 17  1  0
 17 18  1  0
 17 19  2  0
 19 20  1  0
 20 21  1  0
 21 22  2  3
 22 23  1  0
 22 24  1  0
M  END
