
     RDKit          3D

 26 28  0  0  0  0  0  0  0  0999 V2000
   -5.4060    1.3710   -1.3880 C   0  0  0  0  0  0  0  0  0  0  0  0
   -5.0710    0.6240   -0.1750 C   0  0  0  0  0  0  0  0  0  0  0  0
   -3.7770    0.2320    0.0720 C   0  0  0  0  0  0  0  0  0  0  0  0
   -2.6900    0.5220   -0.8220 N   0  0  0  0  0  0  0  0  0  0  0  0
   -1.3470    0.1060   -0.5500 C   0  0  0  0  0  0  0  0  0  0  0  0
   -0.4540    0.5630   -1.6740 C   0  0  0  0  0  0  0  0  0  0  0  0
    0.8950    0.1240   -1.3610 N   0  0  0  0  0  0  0  0  0  0  0  0
    1.3400   -1.0710   -1.7680 C   0  0  0  0  0  0  0  0  0  0  0  0
    0.5640   -1.8340   -2.4410 O   0  0  0  0  0  0  0  0  0  0  0  0
    2.5670   -1.5150   -1.5040 N   0  0  0  0  0  0  0  0  0  0  0  0
    3.4230   -0.7340   -0.7910 C   0  0  0  0  0  0  0  0  0  0  0  0
    2.9890    0.4930   -0.3650 C   0  0  0  0  0  0  0  0  0  0  0  0
    1.6950    0.9250   -0.6610 C   0  0  0  0  0  0  0  0  0  0  0  0
    1.3480    2.0610   -0.2440 O   0  0  0  0  0  0  0  0  0  0  0  0
    3.8910    1.3420    0.3990 C   0  0  0  0  0  0  0  0  0  0  0  0
    5.1030    0.9190    0.6670 C   0  0  0  0  0  0  0  0  0  0  0  0
    6.1450    1.9880    1.5920 Cl  0  0  0  0  0  0  0  0  0  0  0  0
    5.6650   -0.3830    0.2540 C   0  0  1  0  0  0  0  0  0  0  0  0
    6.0390   -1.2050    1.4940 C   0  0  0  0  0  0  0  0  0  0  0  0
    4.7360   -1.1840   -0.4970 N   0  0  0  0  0  0  0  0  0  0  0  0
   -3.4960   -0.4670    1.2190 C   0  0  0  0  0  0  0  0  0  0  0  0
   -4.4870   -0.7930    2.1440 C   0  0  0  0  0  0  0  0  0  0  0  0
   -5.7730   -0.3930    1.8800 C   0  0  0  0  0  0  0  0  0  0  0  0
   -7.0760   -0.7670    3.0000 Cl  0  0  0  0  0  0  0  0  0  0  0  0
   -6.0670    0.3120    0.7280 C   0  0  0  0  0  0  0  0  0  0  0  0
   -7.3500    0.7040    0.4760 F   0  0  0  0  0  0  0  0  0  0  0  0
  1  2  1  0
  2  3  2  0
  2 25  1  0
  3  4  1  0
  3 21  1  0
  4  5  1  0
  5  6  1  0
  6  7  1  0
  7  8  1  0
  7 13  1  0
  8  9  2  0
  8 10  1  0
 10 11  1  0
 11 12  2  0
 11 20  1  0
 12 13  1  0
 12 15  1  0
 13 14  2  0
 15 16  2  0
 16 17  1  0
 16 18  1  0
 18 19  1  1
 18 20  1  0
 21 22  2  0
 22 23  1  0
 23 24  1  0
 23 25  2  0
 25 26  1  0
M  END
