
     RDKit          3D

 26 27  0  0  0  0  0  0  0  0999 V2000
   -5.1230    0.8630    2.4890 C   0  0  0  0  0  0  0  0  0  0  0  0
   -3.8190    1.1190    2.4060 C   0  0  0  0  0  0  0  0  0  0  0  0
   -3.2940    2.3380    3.0300 C   0  0  0  0  0  0  0  0  0  0  0  0
   -2.9770    0.1270    1.7390 C   0  0  0  0  0  0  0  0  0  0  0  0
   -2.4460    0.6320    0.4260 C   0  0  2  0  0  0  0  0  0  0  0  0
   -1.6370   -0.4450   -0.1180 N   0  0  0  0  0  0  0  0  0  0  0  0
   -0.4000   -0.4270   -0.3450 C   0  0  0  0  0  0  0  0  0  0  0  0
    0.1600   -1.6270   -0.8780 N   0  0  0  0  0  0  0  0  0  0  0  0
    0.1020   -1.8800   -2.3000 C   0  0  0  0  0  0  0  0  0  0  0  0
   -0.3860   -3.3160   -2.4980 C   0  0  0  0  0  0  0  0  0  0  0  0
    0.3670   -4.2200   -1.7870 O   0  0  0  0  0  0  0  0  0  0  0  0
    1.3820   -3.6480   -1.0170 C   0  0  0  0  0  0  0  0  0  0  0  0
    0.7720   -2.6460   -0.0460 C   0  0  0  0  0  0  0  0  0  0  0  0
    0.4390    0.7820   -0.1280 C   0  0  0  0  0  0  0  0  0  0  0  0
    1.6980    0.7640   -0.4590 C   0  0  0  0  0  0  0  0  0  0  0  0
    2.8210    1.6130   -0.4280 C   0  0  0  0  0  0  0  0  0  0  0  0
    2.9480    2.8570    0.3330 C   0  0  0  0  0  0  0  0  0  0  0  0
    3.9900    3.6280    0.2510 N   0  0  0  0  0  0  0  0  0  0  0  0
    3.9940    1.2120   -0.9870 C   0  0  0  0  0  0  0  0  0  0  0  0
    4.1530   -0.0860   -1.6370 C   0  0  2  0  0  0  0  0  0  0  0  0
    3.2570   -0.3200   -2.6560 F   0  0  0  0  0  0  0  0  0  0  0  0
    4.1260   -1.3950   -0.4500 Cl  0  0  0  0  0  0  0  0  0  0  0  0
    5.8100   -0.1200   -2.4130 Cl  0  0  0  0  0  0  0  0  0  0  0  0
   -0.2970    1.9290    0.3530 C   0  0  0  0  0  0  0  0  0  0  0  0
    0.2060    3.0280    0.5910 O   0  0  0  0  0  0  0  0  0  0  0  0
   -1.7290    1.8230    0.5770 N   0  0  0  0  0  0  0  0  0  0  0  0
  1  2  2  0
  2  3  1  0
  2  4  1  0
  5  4  1  1
  5  6  1  0
  5 26  1  0
  6  7  2  0
  7  8  1  0
  7 14  1  0
  8  9  1  0
  8 13  1  0
  9 10  1  0
 10 11  1  0
 11 12  1  0
 12 13  1  0
 14 15  2  3
 14 24  1  0
 15 16  1  0
 16 17  1  0
 16 19  2  3
 17 18  2  0
 19 20  1  0
 20 21  1  6
 20 22  1  0
 20 23  1  0
 24 25  2  0
 24 26  1  0
M  END
