
     RDKit          3D

 24 27  0  0  0  0  0  0  0  0999 V2000
   -4.3130    0.0740    0.5360 C   0  0  0  0  0  0  0  0  0  0  0  0
   -3.0990    0.9830    0.3710 C   0  0  1  0  0  0  0  0  0  0  0  0
   -3.3160    1.9730   -0.7410 C   0  0  0  0  0  0  0  0  0  0  0  0
   -2.8920    1.6750    1.7130 C   0  0  0  0  0  0  0  0  0  0  0  0
   -1.9270    0.1820    0.0880 N   0  0  0  0  0  0  0  0  0  0  0  0
   -0.7420    0.3940    0.6500 N   0  0  0  0  0  0  0  0  0  0  0  0
    0.1660   -0.4890    0.2290 C   0  0  0  0  0  0  0  0  0  0  0  0
    1.5820   -0.6190    0.5710 C   0  0  0  0  0  0  0  0  0  0  0  0
    2.0360   -1.7990    1.1690 C   0  0  0  0  0  0  0  0  0  0  0  0
    3.3650   -1.9210    1.5000 C   0  0  0  0  0  0  0  0  0  0  0  0
    4.2550   -0.9020    1.2530 C   0  0  0  0  0  0  0  0  0  0  0  0
    3.7910    0.2590    0.6630 C   0  0  0  0  0  0  0  0  0  0  0  0
    4.6510    1.3180    0.3860 C   0  0  0  0  0  0  0  0  0  0  0  0
    4.1900    2.4720   -0.2070 C   0  0  0  0  0  0  0  0  0  0  0  0
    2.8660    2.6260   -0.5520 C   0  0  0  0  0  0  0  0  0  0  0  0
    2.0030    1.5990   -0.2890 C   0  0  0  0  0  0  0  0  0  0  0  0
    2.4580    0.4210    0.3140 C   0  0  0  0  0  0  0  0  0  0  0  0
   -0.5290   -1.3070   -0.6690 C   0  0  0  0  0  0  0  0  0  0  0  0
   -0.1610   -2.3830   -1.4380 C   0  0  0  0  0  0  0  0  0  0  0  0
    1.1830   -2.8210   -1.3640 N   0  0  0  0  0  0  0  0  0  0  0  0
   -1.0660   -2.9960   -2.2470 N   0  0  0  0  0  0  0  0  0  0  0  0
   -2.3300   -2.5390   -2.2890 C   0  0  0  0  0  0  0  0  0  0  0  0
   -2.7280   -1.4700   -1.5360 N   0  0  0  0  0  0  0  0  0  0  0  0
   -1.8350   -0.8690   -0.7410 C   0  0  0  0  0  0  0  0  0  0  0  0
  2  1  1  1
  2  3  1  0
  2  4  1  0
  2  5  1  0
  5  6  1  0
  5 24  1  0
  6  7  2  0
  7  8  1  0
  7 18  1  0
  8  9  2  0
  8 17  1  0
  9 10  1  0
 10 11  2  0
 11 12  1  0
 12 13  2  0
 12 17  1  0
 13 14  1  0
 14 15  2  0
 15 16  1  0
 16 17  2  0
 18 19  2  0
 18 24  1  0
 19 20  1  0
 19 21  1  0
 21 22  2  0
 22 23  1  0
 23 24  2  0
M  END
