
     RDKit          3D

 24 27  0  0  0  0  0  0  0  0999 V2000
   -3.9720    3.3680   -0.6060 C   0  0  0  0  0  0  0  0  0  0  0  0
   -3.1010    2.1870   -0.7620 C   0  0  0  0  0  0  0  0  0  0  0  0
   -1.8500    2.3900   -1.1970 C   0  0  0  0  0  0  0  0  0  0  0  0
   -0.8160    1.3800   -1.4260 C   0  0  0  0  0  0  0  0  0  0  0  0
   -0.7770    0.0980   -1.1030 C   0  0  0  0  0  0  0  0  0  0  0  0
    0.3480   -0.6750   -1.4390 N   0  0  0  0  0  0  0  0  0  0  0  0
    1.6310   -0.5230   -0.9150 C   0  0  0  0  0  0  0  0  0  0  0  0
    2.6550   -1.3410   -1.3210 C   0  0  0  0  0  0  0  0  0  0  0  0
    3.9470   -1.2120   -0.8150 C   0  0  0  0  0  0  0  0  0  0  0  0
    4.2140   -0.2430    0.1160 C   0  0  0  0  0  0  0  0  0  0  0  0
    5.5440   -0.1170    0.6320 N   0  0  0  0  0  0  0  0  0  0  0  0
    6.4330    0.8440    0.4370 C   0  0  0  0  0  0  0  0  0  0  0  0
    7.5390    0.5280    1.1260 N   0  0  0  0  0  0  0  0  0  0  0  0
    7.3300   -0.6370    1.7510 C   0  0  0  0  0  0  0  0  0  0  0  0
    6.0960   -1.0090    1.4290 N   0  0  0  0  0  0  0  0  0  0  0  0
    3.2020    0.5930    0.5420 C   0  0  0  0  0  0  0  0  0  0  0  0
    1.9140    0.4450    0.0200 C   0  0  0  0  0  0  0  0  0  0  0  0
   -1.8240   -0.6630   -0.3960 C   0  0  0  0  0  0  0  0  0  0  0  0
   -3.0660   -0.3130   -0.1060 C   0  0  0  0  0  0  0  0  0  0  0  0
   -3.6790    0.9360   -0.4330 N   0  0  0  0  0  0  0  0  0  0  0  0
   -3.7950   -1.3810    0.6170 C   0  0  2  0  0  0  0  0  0  0  0  0
   -4.6360   -0.8320    1.7460 C   0  0  0  0  0  0  0  0  0  0  0  0
   -2.6970   -2.2830    1.0900 C   0  0  0  0  0  0  0  0  0  0  0  0
   -1.5460   -2.0260    0.1050 C   0  0  0  0  0  0  0  0  0  0  0  0
  1  2  1  0
  2  3  2  0
  2 20  1  0
  3  4  1  0
  4  5  2  0
  5  6  1  0
  5 18  1  0
  6  7  1  0
  7  8  2  0
  7 17  1  0
  8  9  1  0
  9 10  2  0
 10 11  1  0
 10 16  1  0
 11 12  1  0
 11 15  1  0
 12 13  2  0
 13 14  1  0
 14 15  2  0
 16 17  2  0
 18 19  2  0
 18 24  1  0
 19 20  1  0
 19 21  1  0
 21 22  1  1
 21 23  1  0
 23 24  1  0
M  END
