
     RDKit          3D

 15 15  0  0  0  0  0  0  0  0999 V2000
    4.6100   -0.2940    0.6170 C   0  0  0  0  0  0  0  0  0  0  0  0
    3.9910    0.9270    0.0250 C   0  0  0  0  0  0  0  0  0  0  0  0
    2.7640    0.9290   -0.4520 C   0  0  0  0  0  0  0  0  0  0  0  0
    1.9150   -0.2430   -0.4420 C   0  0  0  0  0  0  0  0  0  0  0  0
    0.6680   -0.2010   -0.9370 C   0  0  0  0  0  0  0  0  0  0  0  0
   -0.1450   -1.4270   -0.8980 C   0  0  1  0  0  0  0  0  0  0  0  0
    0.6140   -2.5000   -0.3730 O   0  0  0  0  0  0  0  0  0  0  0  0
   -1.3050   -1.2300    0.0710 C   0  0  2  0  0  0  0  0  0  0  0  0
   -2.0540   -2.4190    0.1390 O   0  0  0  0  0  0  0  0  0  0  0  0
   -2.2690   -0.1700   -0.3980 C   0  0  0  0  0  0  0  0  0  0  0  0
   -3.3570   -0.0870    0.5740 N   0  0  0  0  0  0  0  0  0  0  0  0
   -4.0370    1.1900    0.5120 C   0  0  0  0  0  0  0  0  0  0  0  0
    0.2550    1.0030   -1.4450 O   0  0  0  0  0  0  0  0  0  0  0  0
    0.8010    2.2230   -1.0160 C   0  0  0  0  0  0  0  0  0  0  0  0
    2.2290    2.0930   -0.9950 O   0  0  0  0  0  0  0  0  0  0  0  0
  1  2  1  0
  2  3  2  3
  3  4  1  0
  3 15  1  0
  4  5  2  0
  5  6  1  0
  5 13  1  0
  6  7  1  1
  6  8  1  0
  8  9  1  6
  8 10  1  0
 10 11  1  0
 11 12  1  0
 13 14  1  0
 14 15  1  0
M  CHG  1  11   1
M  END
