
     RDKit          3D

 24 27  0  0  0  0  0  0  0  0999 V2000
    6.0970    0.9410   -0.3650 C   0  0  0  0  0  0  0  0  0  0  0  0
    4.6790    0.5390   -0.1720 C   0  0  0  0  0  0  0  0  0  0  0  0
    3.8040    1.3840    0.4800 C   0  0  0  0  0  0  0  0  0  0  0  0
    2.4840    1.0270    0.6680 C   0  0  0  0  0  0  0  0  0  0  0  0
    1.6080    1.8780    1.3230 C   0  0  0  0  0  0  0  0  0  0  0  0
    0.2970    1.5000    1.4990 C   0  0  0  0  0  0  0  0  0  0  0  0
   -0.0840    0.2660    1.0020 C   0  0  0  0  0  0  0  0  0  0  0  0
   -1.4290   -0.1590    1.1700 N   0  0  0  0  0  0  0  0  0  0  0  0
   -2.3690    0.5810    1.9210 C   0  0  0  0  0  0  0  0  0  0  0  0
   -3.1970    1.5530    1.1270 C   0  0  0  0  0  0  0  0  0  0  0  0
   -3.4230    1.1350   -0.2950 C   0  0  2  0  0  0  0  0  0  0  0  0
   -4.4460    1.9760   -0.8610 N   0  0  0  0  0  0  0  0  0  0  0  0
   -3.8470   -0.2870   -0.3340 C   0  0  0  0  0  0  0  0  0  0  0  0
   -5.1200   -0.4460   -0.7530 N   0  0  0  0  0  0  0  0  0  0  0  0
   -5.6770   -1.6540   -0.8530 N   0  0  0  0  0  0  0  0  0  0  0  0
   -5.0010   -2.7750   -0.5430 C   0  0  0  0  0  0  0  0  0  0  0  0
   -3.6920   -2.6580   -0.1090 C   0  0  0  0  0  0  0  0  0  0  0  0
   -3.1290   -1.4130   -0.0100 C   0  0  0  0  0  0  0  0  0  0  0  0
   -1.7080   -1.4270    0.4720 C   0  0  0  0  0  0  0  0  0  0  0  0
    0.7970   -0.5400    0.3670 N   0  0  0  0  0  0  0  0  0  0  0  0
    2.0810   -0.2000    0.1810 C   0  0  0  0  0  0  0  0  0  0  0  0
    2.9700   -1.0560   -0.4810 C   0  0  0  0  0  0  0  0  0  0  0  0
    4.2860   -0.6880   -0.6630 C   0  0  0  0  0  0  0  0  0  0  0  0
    5.2460   -1.5950   -1.3680 C   0  0  0  0  0  0  0  0  0  0  0  0
  1  2  1  0
  2  3  2  0
  2 23  1  0
  3  4  1  0
  4  5  2  0
  4 21  1  0
  5  6  1  0
  6  7  2  0
  7  8  1  0
  7 20  1  0
  8  9  1  0
  8 19  1  0
  9 10  1  0
 10 11  1  0
 11 12  1  1
 11 13  1  0
 13 14  2  0
 13 18  1  0
 14 15  1  0
 15 16  2  0
 16 17  1  0
 17 18  2  0
 18 19  1  0
 20 21  2  0
 21 22  1  0
 22 23  2  0
 23 24  1  0
M  END
