
     RDKit          3D

 24 27  0  0  0  0  0  0  0  0999 V2000
   -5.0880    3.7900   -0.0600 C   0  0  0  0  0  0  0  0  0  0  0  0
   -3.6130    3.5770   -0.1880 C   0  0  0  0  0  0  0  0  0  0  0  0
   -3.1170    2.3580   -0.1690 C   0  0  0  0  0  0  0  0  0  0  0  0
   -4.0260    1.2460   -0.0230 N   0  0  0  0  0  0  0  0  0  0  0  0
   -3.5200   -0.0730    0.0000 C   0  0  0  0  0  0  0  0  0  0  0  0
   -2.2200   -0.2980   -0.1110 C   0  0  0  0  0  0  0  0  0  0  0  0
   -1.7220   -1.6810   -0.0830 C   0  0  0  0  0  0  0  0  0  0  0  0
   -2.4450   -2.5710    0.7720 N   0  0  0  0  0  0  0  0  0  0  0  0
   -2.1130   -3.9380    0.3420 C   0  0  0  0  0  0  0  0  0  0  0  0
   -3.8340   -2.3620    0.8980 C   0  0  0  0  0  0  0  0  0  0  0  0
   -4.4120   -1.2250    0.1450 C   0  0  0  0  0  0  0  0  0  0  0  0
   -1.2520    0.7790   -0.2610 C   0  0  0  0  0  0  0  0  0  0  0  0
    0.0650    0.5430   -0.3720 N   0  0  0  0  0  0  0  0  0  0  0  0
    0.9890    1.5090   -0.5120 C   0  0  0  0  0  0  0  0  0  0  0  0
    2.3780    1.2300   -0.6280 N   0  0  0  0  0  0  0  0  0  0  0  0
    2.8810   -0.1110   -0.6040 C   0  0  0  0  0  0  0  0  0  0  0  0
    4.3850   -0.1210   -0.7450 C   0  0  2  0  0  0  0  0  0  0  0  0
    4.9190   -1.5290   -0.7200 C   0  0  0  0  0  0  0  0  0  0  0  0
    6.3410   -1.3620   -0.2860 C   0  0  0  0  0  0  0  0  0  0  0  0
    6.2510   -0.3030    0.7810 C   0  0  0  0  0  0  0  0  0  0  0  0
    5.0440    0.5310    0.4500 C   0  0  0  0  0  0  0  0  0  0  0  0
    0.5350    2.7700   -0.5370 N   0  0  0  0  0  0  0  0  0  0  0  0
   -0.7660    3.1210   -0.4330 C   0  0  0  0  0  0  0  0  0  0  0  0
   -1.6800    2.0890   -0.2910 C   0  0  0  0  0  0  0  0  0  0  0  0
  1  2  1  0
  2  3  2  3
  3  4  1  0
  3 24  1  0
  4  5  1  0
  5  6  2  0
  5 11  1  0
  6  7  1  0
  6 12  1  0
  7  8  1  0
  8  9  1  0
  8 10  1  0
 10 11  1  0
 12 13  2  0
 12 24  1  0
 13 14  1  0
 14 15  1  0
 14 22  2  0
 15 16  1  0
 17 16  1  1
 17 18  1  0
 17 21  1  0
 18 19  1  0
 19 20  1  0
 20 21  1  0
 22 23  1  0
 23 24  2  0
M  END
