
     RDKit          3D

 15 15  0  0  0  0  0  0  0  0999 V2000
   -5.1820    0.7020    0.7450 C   0  0  0  0  0  0  0  0  0  0  0  0
   -4.1600    0.6710   -0.3330 C   0  0  0  0  0  0  0  0  0  0  0  0
   -4.4400    1.0490   -1.5040 O   0  0  0  0  0  0  0  0  0  0  0  0
   -2.8410    0.2220   -0.0840 N   0  0  0  0  0  0  0  0  0  0  0  0
   -1.7950    0.2000   -1.0350 C   0  0  0  0  0  0  0  0  0  0  0  0
   -2.0380    0.5570   -2.2050 O   0  0  0  0  0  0  0  0  0  0  0  0
   -0.4420   -0.2340   -0.6300 C   0  0  0  0  0  0  0  0  0  0  0  0
   -0.0320   -0.6460    0.6350 C   0  0  0  0  0  0  0  0  0  0  0  0
    1.2560   -0.9700    0.7770 C   0  0  0  0  0  0  0  0  0  0  0  0
    2.0890   -0.8890   -0.2760 C   0  0  0  0  0  0  0  0  0  0  0  0
    3.5550   -1.1150   -0.3900 C   0  0  0  0  0  0  0  0  0  0  0  0
    4.1630    0.1370   -0.8790 C   0  0  0  0  0  0  0  0  0  0  0  0
    4.8950    0.9730   -0.0350 N   0  0  0  0  0  0  0  0  0  0  0  0
    4.0010    0.4440   -2.0990 O   0  0  0  0  0  0  0  0  0  0  0  0
    1.0170   -0.3200   -1.5850 S   0  0  0  0  0  0  0  0  0  0  0  0
  1  2  1  0
  2  3  2  0
  2  4  1  0
  4  5  1  0
  5  6  2  0
  5  7  1  0
  7  8  2  0
  7 15  1  0
  8  9  1  0
  9 10  2  0
 10 11  1  0
 10 15  1  0
 11 12  1  0
 12 13  1  0
 12 14  2  0
M  END
