
     RDKit          3D

 25 28  0  0  0  0  0  0  0  0999 V2000
   -2.3290    2.5330    0.8860 C   0  0  0  0  0  0  0  0  0  0  0  0
   -2.8670    1.2590    0.2610 C   0  0  1  0  0  0  0  0  0  0  0  0
   -4.1180    0.8820    1.0410 C   0  0  0  0  0  0  0  0  0  0  0  0
   -3.2870    1.5470   -1.1530 C   0  0  0  0  0  0  0  0  0  0  0  0
   -1.8980    0.1780    0.3670 N   0  0  0  0  0  0  0  0  0  0  0  0
   -0.7390    0.1540    0.9810 N   0  0  0  0  0  0  0  0  0  0  0  0
   -0.1180   -1.0330    0.8420 C   0  0  0  0  0  0  0  0  0  0  0  0
    1.2360   -1.3070    1.3420 C   0  0  0  0  0  0  0  0  0  0  0  0
    2.3080   -0.8830    0.3620 C   0  0  0  0  0  0  0  0  0  0  0  0
    2.8640   -1.7840   -0.5170 C   0  0  0  0  0  0  0  0  0  0  0  0
    3.8010   -1.4010   -1.4770 C   0  0  0  0  0  0  0  0  0  0  0  0
    4.1860   -0.1050   -1.5570 C   0  0  0  0  0  0  0  0  0  0  0  0
    3.6610    0.8670   -0.6890 C   0  0  0  0  0  0  0  0  0  0  0  0
    4.0790    2.1720   -0.7750 C   0  0  0  0  0  0  0  0  0  0  0  0
    3.5750    3.0980    0.0900 C   0  0  0  0  0  0  0  0  0  0  0  0
    2.6600    2.6980    1.0260 C   0  0  0  0  0  0  0  0  0  0  0  0
    2.2270    1.3650    1.1210 C   0  0  0  0  0  0  0  0  0  0  0  0
    2.7250    0.4300    0.2560 C   0  0  0  0  0  0  0  0  0  0  0  0
   -0.9670   -1.8000    0.0850 C   0  0  0  0  0  0  0  0  0  0  0  0
   -0.9490   -3.0810   -0.3780 C   0  0  0  0  0  0  0  0  0  0  0  0
    0.1460   -3.9250   -0.0570 N   0  0  0  0  0  0  0  0  0  0  0  0
   -1.9880   -3.5970   -1.1120 N   0  0  0  0  0  0  0  0  0  0  0  0
   -3.0430   -2.8170   -1.3740 C   0  0  0  0  0  0  0  0  0  0  0  0
   -3.0820   -1.5720   -0.9320 N   0  0  0  0  0  0  0  0  0  0  0  0
   -2.0770   -1.0200   -0.2020 C   0  0  0  0  0  0  0  0  0  0  0  0
  2  1  1  1
  2  3  1  0
  2  4  1  0
  2  5  1  0
  5  6  1  0
  5 25  1  0
  6  7  2  0
  7  8  1  0
  7 19  1  0
  8  9  1  0
  9 10  2  0
  9 18  1  0
 10 11  1  0
 11 12  2  0
 12 13  1  0
 13 14  2  0
 13 18  1  0
 14 15  1  0
 15 16  2  0
 16 17  1  0
 17 18  2  0
 19 20  2  0
 19 25  1  0
 20 21  1  0
 20 22  1  0
 22 23  2  0
 23 24  1  0
 24 25  2  0
M  END
