
     RDKit          3D

 12 12  0  0  0  0  0  0  0  0999 V2000
   -1.2270    0.4000   -2.1440 N   0  0  0  0  0  0  0  0  0  0  0  0
   -1.2560    0.4420   -0.7000 C   0  0  1  0  0  0  0  0  0  0  0  0
   -2.5810   -0.1050   -0.2040 C   0  0  0  0  0  0  0  0  0  0  0  0
   -2.7430    0.3080    1.0980 O   0  0  0  0  0  0  0  0  0  0  0  0
   -1.5730    0.5950    1.7490 C   0  0  0  0  0  0  0  0  0  0  0  0
   -0.4480   -0.3720    1.4260 C   0  0  0  0  0  0  0  0  0  0  0  0
   -0.1990   -0.4350   -0.0720 C   0  0  1  0  0  0  0  0  0  0  0  0
   -0.3070   -1.7560   -0.4780 O   0  0  0  0  0  0  0  0  0  0  0  0
    1.1990    0.0520   -0.3340 C   0  0  0  0  0  0  0  0  0  0  0  0
    2.0640   -0.7600    0.3980 O   0  0  0  0  0  0  0  0  0  0  0  0
    3.3940   -0.3830    0.2180 C   0  0  0  0  0  0  0  0  0  0  0  0
    3.6130    0.9140    0.6200 O   0  0  0  0  0  0  0  0  0  0  0  0
  2  1  1  6
  2  3  1  0
  2  7  1  0
  3  4  1  0
  4  5  1  0
  5  6  1  0
  6  7  1  0
  7  8  1  6
  7  9  1  0
  9 10  1  0
 10 11  1  0
 11 12  1  0
M  CHG  1   1   1
M  END
