
     RDKit          3D

 16 17  0  0  0  0  0  0  0  0999 V2000
    1.2950   -2.2970   -0.9460 O   0  0  0  0  0  0  0  0  0  0  0  0
    0.3630   -1.6080   -0.4050 C   0  0  0  0  0  0  0  0  0  0  0  0
    0.7140   -0.3530    0.0950 N   0  0  0  0  0  0  0  0  0  0  0  0
    2.0280    0.2150    0.0280 C   0  0  0  0  0  0  0  0  0  0  0  0
    3.2100   -0.2420   -0.4880 C   0  0  0  0  0  0  0  0  0  0  0  0
    4.2960    0.5460   -0.3930 C   0  0  0  0  0  0  0  0  0  0  0  0
    4.1750    1.7280    0.1950 C   0  0  0  0  0  0  0  0  0  0  0  0
    5.4270    3.0320    0.4910 Cl  0  0  0  0  0  0  0  0  0  0  0  0
    2.4620    1.8000    0.6640 S   0  0  0  0  0  0  0  0  0  0  0  0
   -1.2310   -2.3490   -0.3810 S   0  0  0  0  0  0  0  0  0  0  0  0
   -2.5660   -1.2050   -0.1800 C   0  0  0  0  0  0  0  0  0  0  0  0
   -2.5980    0.1600   -0.2970 C   0  0  0  0  0  0  0  0  0  0  0  0
   -3.8890    0.6070   -0.0020 C   0  0  0  0  0  0  0  0  0  0  0  0
   -4.2620    1.9400   -0.0260 O   0  0  0  0  0  0  0  0  0  0  0  0
   -4.5830   -0.4890    0.2780 N   0  0  0  0  0  0  0  0  0  0  0  0
   -3.8370   -1.5650    0.1830 N   0  0  0  0  0  0  0  0  0  0  0  0
  1  2  2  0
  2  3  1  0
  2 10  1  0
  3  4  1  0
  4  5  2  0
  4  9  1  0
  5  6  1  0
  6  7  2  0
  7  8  1  0
  7  9  1  0
 10 11  1  0
 11 12  2  0
 11 16  1  0
 12 13  1  0
 13 14  1  0
 13 15  2  0
 15 16  1  0
M  END
