
     RDKit          3D

 15 16  0  0  0  0  0  0  0  0999 V2000
    3.6960    3.2740    1.5360 O   0  0  0  0  0  0  0  0  0  0  0  0
    3.3240    2.1940    1.0650 C   0  0  0  0  0  0  0  0  0  0  0  0
    3.7020    1.5760   -0.1350 N   0  0  0  0  0  0  0  0  0  0  0  0
    3.0280    0.4190   -0.4890 C   0  0  0  0  0  0  0  0  0  0  0  0
    3.2500   -0.2690   -1.5520 O   0  0  0  0  0  0  0  0  0  0  0  0
    1.9960   -0.0270    0.4320 C   0  0  0  0  0  0  0  0  0  0  0  0
    1.1300   -1.0240    0.2930 C   0  0  0  0  0  0  0  0  0  0  0  0
   -0.0220   -1.3180    1.6180 S   0  0  0  0  0  0  0  0  0  0  0  0
   -1.5950   -1.9070    0.9390 C   0  0  0  0  0  0  0  0  0  0  0  0
   -2.2350   -0.8440    0.1440 C   0  0  0  0  0  0  0  0  0  0  0  0
   -3.1110    0.1190    0.5540 C   0  0  0  0  0  0  0  0  0  0  0  0
   -3.4340    0.8850   -0.5430 C   0  0  0  0  0  0  0  0  0  0  0  0
   -2.7600    0.3850   -1.5900 N   0  0  0  0  0  0  0  0  0  0  0  0
   -2.0530   -0.6340   -1.1860 N   0  0  0  0  0  0  0  0  0  0  0  0
    2.1550    1.0910    1.8280 S   0  0  0  0  0  0  0  0  0  0  0  0
  1  2  2  0
  2  3  1  0
  2 15  1  0
  3  4  1  0
  4  5  2  0
  4  6  1  0
  6  7  2  3
  6 15  1  0
  7  8  1  0
  8  9  1  0
  9 10  1  0
 10 11  2  0
 10 14  1  0
 11 12  1  0
 12 13  2  0
 13 14  1  0
M  END
