
     RDKit          3D

 16 17  0  0  0  0  0  0  0  0999 V2000
   -4.3440    0.8190   -0.6570 N   0  0  0  0  0  0  0  0  0  0  0  0
   -3.1990    0.0490   -0.3560 C   0  0  0  0  0  0  0  0  0  0  0  0
   -3.3060   -1.2670   -0.0340 N   0  0  0  0  0  0  0  0  0  0  0  0
   -2.2520   -2.0390    0.2590 C   0  0  0  0  0  0  0  0  0  0  0  0
   -0.9930   -1.4260    0.2210 C   0  0  0  0  0  0  0  0  0  0  0  0
   -0.8650   -0.1080   -0.1000 C   0  0  0  0  0  0  0  0  0  0  0  0
    0.5000    0.5400   -0.1360 C   0  0  0  0  0  0  0  0  0  0  0  0
    0.5510    1.8980   -0.4740 C   0  0  0  0  0  0  0  0  0  0  0  0
    2.3370    2.2480   -0.3960 S   0  0  0  0  0  0  0  0  0  0  0  0
    2.8470    0.5600    0.0770 C   0  0  0  0  0  0  0  0  0  0  0  0
    4.4660    0.0220    0.3630 S   0  0  1  0  0  0  0  0  0  0  0  0
    5.0310    0.8360    1.5060 O   0  0  0  0  0  0  0  0  0  0  0  0
    4.5270   -1.4230    0.7070 O   0  0  0  0  0  0  0  0  0  0  0  0
    5.6520    0.2720   -1.3320 Cl  0  0  0  0  0  0  0  0  0  0  0  0
    1.6170   -0.1090    0.1320 C   0  0  0  0  0  0  0  0  0  0  0  0
   -1.9630    0.5850   -0.3760 N   0  0  0  0  0  0  0  0  0  0  0  0
  1  2  1  0
  2  3  2  0
  2 16  1  0
  3  4  1  0
  4  5  2  0
  5  6  1  0
  6  7  1  0
  6 16  2  0
  7  8  2  0
  7 15  1  0
  8  9  1  0
  9 10  1  0
 10 11  1  0
 10 15  2  0
 11 12  2  0
 11 13  2  0
 11 14  1  6
M  END
