
     RDKit          3D

 16 17  0  0  0  0  0  0  0  0999 V2000
    2.7300    0.4720   -2.3610 O   0  0  0  0  0  0  0  0  0  0  0  0
    2.6000   -0.0130   -1.1770 C   0  0  0  0  0  0  0  0  0  0  0  0
    3.6440   -0.5620   -0.4540 N   0  0  0  0  0  0  0  0  0  0  0  0
    3.3470   -1.0540    0.8310 C   0  0  0  0  0  0  0  0  0  0  0  0
    4.3310   -1.5510    2.0160 S   0  0  0  0  0  0  0  0  0  0  0  0
    1.5630   -1.0290    0.9310 S   0  0  0  0  0  0  0  0  0  0  0  0
    1.3050   -0.0090   -0.5180 C   0  0  0  0  0  0  0  0  0  0  0  0
    0.1800    0.5450   -0.8490 C   0  0  0  0  0  0  0  0  0  0  0  0
   -1.0730    0.5180   -0.1520 C   0  0  0  0  0  0  0  0  0  0  0  0
   -1.2050    0.7910    1.1830 C   0  0  0  0  0  0  0  0  0  0  0  0
    0.1630    1.2800    2.1350 Cl  0  0  0  0  0  0  0  0  0  0  0  0
   -2.3880    0.7340    1.8310 N   0  0  0  0  0  0  0  0  0  0  0  0
   -3.5010    0.3980    1.1700 C   0  0  0  0  0  0  0  0  0  0  0  0
   -3.4080    0.1240   -0.1440 N   0  0  0  0  0  0  0  0  0  0  0  0
   -2.2550    0.1690   -0.8220 C   0  0  0  0  0  0  0  0  0  0  0  0
   -2.1510   -0.0830   -2.0450 O   0  0  0  0  0  0  0  0  0  0  0  0
  1  2  2  0
  2  3  1  0
  2  7  1  0
  3  4  1  0
  4  5  2  0
  4  6  1  0
  6  7  1  0
  7  8  2  3
  8  9  1  0
  9 10  2  0
  9 15  1  0
 10 11  1  0
 10 12  1  0
 12 13  2  0
 13 14  1  0
 14 15  1  0
 15 16  2  0
M  END
