
     RDKit          3D

 12 13  0  0  0  0  0  0  0  0999 V2000
   -0.3550    2.2820    0.2220 C   0  0  0  0  0  0  0  0  0  0  0  0
    0.3930    1.0740   -0.1210 C   0  0  0  0  0  0  0  0  0  0  0  0
    1.7230    1.1530   -0.5740 C   0  0  0  0  0  0  0  0  0  0  0  0
    2.2000   -0.1030   -0.8090 C   0  0  0  0  0  0  0  0  0  0  0  0
    3.4870   -0.4960   -1.2730 N   0  0  0  0  0  0  0  0  0  0  0  0
    1.1960   -0.9340   -0.5110 N   0  0  0  0  0  0  0  0  0  0  0  0
    0.1080   -0.2460   -0.0980 C   0  0  0  0  0  0  0  0  0  0  0  0
   -1.2100   -0.8590    0.2870 C   0  0  0  0  0  0  0  0  0  0  0  0
   -2.3500   -0.2310    0.5460 C   0  0  0  0  0  0  0  0  0  0  0  0
   -3.4900   -0.8570    0.8660 C   0  0  0  0  0  0  0  0  0  0  0  0
   -2.9390   -2.6340    0.8100 S   0  0  0  0  0  0  0  0  0  0  0  0
   -1.2720   -2.2330    0.3680 N   0  0  0  0  0  0  0  0  0  0  0  0
  1  2  1  0
  2  3  1  0
  2  7  2  0
  3  4  2  0
  4  5  1  0
  4  6  1  0
  6  7  1  0
  7  8  1  0
  8  9  1  0
  8 12  2  0
  9 10  2  0
 10 11  1  0
 11 12  1  0
M  CHG  1  12   1
M  END
