
     RDKit          3D

 12 12  0  0  0  0  0  0  0  0999 V2000
   -4.9000    0.8560   -0.0130 C   0  0  0  0  0  0  0  0  0  0  0  0
   -3.4070    0.9350    0.2620 C   0  0  0  0  0  0  0  0  0  0  0  0
   -2.5690   -0.5700   -0.2960 S   0  0  0  0  0  0  0  0  0  0  0  0
   -0.8400   -0.4330    0.0660 C   0  0  0  0  0  0  0  0  0  0  0  0
   -0.3950    0.6130    0.6250 N   0  0  0  0  0  0  0  0  0  0  0  0
    0.9700    0.7700    0.9350 C   0  0  0  0  0  0  0  0  0  0  0  0
    1.8240    0.1820   -0.0170 N   0  0  0  0  0  0  0  0  0  0  0  0
    3.2080    0.1030    0.2880 C   0  0  0  0  0  0  0  0  0  0  0  0
    3.7870    1.5160    0.2780 C   0  0  0  0  0  0  0  0  0  0  0  0
    1.3050   -0.7720   -0.9190 C   0  0  0  0  0  0  0  0  0  0  0  0
    0.1460   -1.5020   -0.2650 C   0  0  2  0  0  0  0  0  0  0  0  0
   -0.4020   -2.4940   -1.1540 N   0  0  0  0  0  0  0  0  0  0  0  0
  1  2  1  0
  2  3  1  0
  3  4  1  0
  4  5  2  0
  4 11  1  0
  5  6  1  0
  6  7  1  0
  7  8  1  0
  7 10  1  0
  8  9  1  0
 10 11  1  0
 11 12  1  6
M  CHG  1  12   1
M  END
