
     RDKit          3D

 12 13  0  0  0  0  0  0  0  0999 V2000
    3.1250   -1.3090    1.2910 N   0  0  0  0  0  0  0  0  0  0  0  0
    2.0630   -0.7420    0.5020 C   0  0  0  0  0  0  0  0  0  0  0  0
    0.8850   -0.7570    1.0240 N   0  0  0  0  0  0  0  0  0  0  0  0
   -0.3820   -0.2790    0.5110 C   0  0  0  0  0  0  0  0  0  0  0  0
   -1.3830   -1.0150    0.9060 C   0  0  0  0  0  0  0  0  0  0  0  0
   -2.7710   -0.7730    0.5470 C   0  0  0  0  0  0  0  0  0  0  0  0
   -2.9290    0.3750   -0.2890 N   0  0  0  0  0  0  0  0  0  0  0  0
   -1.8210    1.1470   -0.6960 C   0  0  0  0  0  0  0  0  0  0  0  0
   -0.5740    0.8840   -0.3450 C   0  0  0  0  0  0  0  0  0  0  0  0
    0.3090    1.8870   -0.9420 C   0  0  0  0  0  0  0  0  0  0  0  0
    2.0450    1.5300   -0.8920 S   0  0  0  0  0  0  0  0  0  0  0  0
    2.4540   -0.2140   -0.8130 C   0  0  0  0  0  0  0  0  0  0  0  0
  1  2  1  0
  2  3  2  0
  2 12  1  0
  3  4  1  0
  4  5  2  0
  4  9  1  0
  5  6  1  0
  6  7  1  0
  7  8  1  0
  8  9  2  0
  9 10  1  0
 10 11  1  0
 11 12  1  0
M  END
