
     RDKit          3D

 12 12  0  0  0  0  0  0  0  0999 V2000
    2.3220   -2.0620    0.6260 C   0  0  0  0  0  0  0  0  0  0  0  0
    2.5790   -0.8330    0.2110 C   0  0  0  0  0  0  0  0  0  0  0  0
    1.5410    0.0930   -0.3010 C   0  0  0  0  0  0  0  0  0  0  0  0
    0.2280   -0.4220   -0.2940 N   0  0  0  0  0  0  0  0  0  0  0  0
   -0.3810   -0.6250    0.9630 C   0  0  0  0  0  0  0  0  0  0  0  0
   -1.3080    0.5400    1.2280 C   0  0  0  0  0  0  0  0  0  0  0  0
   -2.2740    0.7980    0.1320 C   0  0  2  0  0  0  0  0  0  0  0  0
   -3.5460    0.0940    0.3850 N   0  0  0  0  0  0  0  0  0  0  0  0
   -1.7960    0.5930   -1.2560 C   0  0  0  0  0  0  0  0  0  0  0  0
   -0.5840   -0.2560   -1.4240 C   0  0  0  0  0  0  0  0  0  0  0  0
    4.2690   -0.2490    0.2700 S   0  0  0  0  0  0  0  0  0  0  0  0
    4.3950    1.4060   -0.3240 N   0  0  0  0  0  0  0  0  0  0  0  0
  1  2  2  0
  2  3  1  0
  2 11  1  0
  3  4  1  0
  4  5  1  0
  4 10  1  0
  5  6  1  0
  6  7  1  0
  7  8  1  1
  7  9  1  0
  9 10  1  0
 11 12  1  0
M  CHG  1   8   1
M  END
