
     RDKit          3D

 12 12  0  0  0  0  0  0  0  0999 V2000
    4.0370   -0.8380    0.2890 C   0  0  0  0  0  0  0  0  0  0  0  0
    2.8100   -0.0440    0.7190 C   0  0  0  0  0  0  0  0  0  0  0  0
    2.2570    0.7270   -0.4550 C   0  0  0  0  0  0  0  0  0  0  0  0
    1.1080    1.4920   -0.1010 N   0  0  0  0  0  0  0  0  0  0  0  0
   -0.1500    0.9460    0.2580 C   0  0  0  0  0  0  0  0  0  0  0  0
   -1.0760    0.9490   -0.6580 C   0  0  0  0  0  0  0  0  0  0  0  0
   -2.4370    0.4650   -0.5810 C   0  0  0  0  0  0  0  0  0  0  0  0
   -3.0270   -0.3880    0.2230 C   0  0  0  0  0  0  0  0  0  0  0  0
   -4.4250   -0.6530    0.0240 N   0  0  0  0  0  0  0  0  0  0  0  0
   -2.4500   -1.1070    1.2930 N   0  0  0  0  0  0  0  0  0  0  0  0
   -1.4190   -0.9480    2.0130 C   0  0  0  0  0  0  0  0  0  0  0  0
   -0.2060    0.3540    1.9390 S   0  0  0  0  0  0  0  0  0  0  0  0
  1  2  1  0
  2  3  1  0
  3  4  1  0
  4  5  1  0
  5  6  2  0
  5 12  1  0
  6  7  1  0
  7  8  2  0
  8  9  1  0
  8 10  1  0
 10 11  2  0
 11 12  1  0
M  CHG  1   9   1
M  END
