
     RDKit          3D

 16 15  0  0  0  0  0  0  0  0999 V2000
   -3.7040    1.6810    0.2770 C   0  0  0  0  0  0  0  0  0  0  0  0
   -3.7160    0.7820   -0.9270 C   0  0  0  0  0  0  0  0  0  0  0  0
   -3.6340   -0.6750   -0.5700 C   0  0  0  0  0  0  0  0  0  0  0  0
   -2.3500   -0.9740    0.1980 C   0  0  1  0  0  0  0  0  0  0  0  0
   -2.2850   -2.4440    0.5500 C   0  0  0  0  0  0  0  0  0  0  0  0
   -1.1370   -0.6130   -0.6070 C   0  0  0  0  0  0  0  0  0  0  0  0
    0.0810   -0.8970    0.1700 C   0  0  0  0  0  0  0  0  0  0  0  0
   -0.0720   -1.3740    1.7230 S   0  0  0  0  0  0  0  0  0  0  0  0
    1.3680   -0.7600   -0.4080 O   0  0  0  0  0  0  0  0  0  0  0  0
    2.1050    0.3610    0.0500 C   0  0  2  0  0  0  0  0  0  0  0  0
    2.2950    0.2440    1.5230 C   0  0  0  0  0  0  0  0  0  0  0  0
    1.2990    1.4740   -0.1820 F   0  0  0  0  0  0  0  0  0  0  0  0
    3.3740    0.5690   -0.7150 C   0  0  2  0  0  0  0  0  0  0  0  0
    4.3190   -0.5940   -0.6380 C   0  0  0  0  0  0  0  0  0  0  0  0
    4.0500    1.8070   -0.1530 C   0  0  0  0  0  0  0  0  0  0  0  0
    3.0840    0.8090   -2.0370 F   0  0  0  0  0  0  0  0  0  0  0  0
  1  2  1  0
  2  3  1  0
  3  4  1  0
  4  5  1  6
  4  6  1  0
  6  7  1  0
  7  8  2  0
  7  9  1  0
  9 10  1  0
 10 11  1  1
 10 12  1  0
 10 13  1  0
 13 14  1  6
 13 15  1  0
 13 16  1  0
M  END
