
     RDKit          3D

 15 15  0  0  0  0  0  0  0  0999 V2000
   -4.4660    0.3400    0.7170 C   0  0  0  0  0  0  0  0  0  0  0  0
   -3.2410   -0.2620    0.0800 C   0  0  2  0  0  0  0  0  0  0  0  0
   -2.2140   -0.6880    1.1090 C   0  0  0  0  0  0  0  0  0  0  0  0
   -0.9980   -0.9220    0.2280 C   0  0  2  0  0  0  0  0  0  0  0  0
    0.2600   -0.5740    0.9580 C   0  0  0  0  0  0  0  0  0  0  0  0
    1.5080   -0.7840    0.1530 C   0  0  0  0  0  0  0  0  0  0  0  0
    2.7080   -0.4050    0.9810 C   0  0  0  0  0  0  0  0  0  0  0  0
    4.0130   -0.5960    0.2440 C   0  0  0  0  0  0  0  0  0  0  0  0
    4.0560    0.2530   -1.0050 C   0  0  1  0  0  0  0  0  0  0  0  0
    3.9200    1.5980   -0.6310 O   0  0  0  0  0  0  0  0  0  0  0  0
    5.6420    0.0240   -1.8720 S   0  0  0  0  0  0  0  0  0  0  0  0
    6.9280    0.6470   -0.9110 F   0  0  0  0  0  0  0  0  0  0  0  0
   -1.1680   -0.0080   -0.9650 C   0  0  0  0  0  0  0  0  0  0  0  0
   -2.4480    0.7520   -0.7090 C   0  0  1  0  0  0  0  0  0  0  0  0
   -3.1510    1.1570   -1.9760 C   0  0  0  0  0  0  0  0  0  0  0  0
  2  1  1  1
  2  3  1  0
  2 14  1  0
  3  4  1  0
  4  5  1  1
  4 13  1  0
  5  6  1  0
  6  7  1  0
  7  8  1  0
  8  9  1  0
  9 10  1  1
  9 11  1  0
 11 12  1  0
 13 14  1  0
 14 15  1  6
M  END
