
     RDKit          3D

 15 14  0  0  0  0  0  0  0  0999 V2000
   -5.4250   -0.5160   -0.2400 C   0  0  0  0  0  0  0  0  0  0  0  0
   -4.0180    0.0380    0.0710 C   0  0  0  0  0  0  0  0  0  0  0  0
   -3.0800   -0.5890   -0.9090 C   0  0  0  0  0  0  0  0  0  0  0  0
   -1.6570   -0.1940   -0.8220 C   0  0  0  0  0  0  0  0  0  0  0  0
   -0.9260   -0.4590    0.4310 C   0  0  2  0  0  0  0  0  0  0  0  0
   -1.4080    0.1730    1.6770 C   0  0  0  0  0  0  0  0  0  0  0  0
    0.5310    0.0280    0.2140 C   0  0  1  0  0  0  0  0  0  0  0  0
    0.5080    1.5030   -0.0900 C   0  0  0  0  0  0  0  0  0  0  0  0
    1.0910   -0.1320    1.4910 F   0  0  0  0  0  0  0  0  0  0  0  0
    1.1880   -0.7580   -0.6910 O   0  0  0  0  0  0  0  0  0  0  0  0
    2.4130   -0.7860   -1.2380 C   0  0  0  0  0  0  0  0  0  0  0  0
    2.4860   -0.7900   -2.8970 S   0  0  0  0  0  0  0  0  0  0  0  0
    3.6990   -0.8120   -0.5310 C   0  0  0  0  0  0  0  0  0  0  0  0
    4.1050    0.4840    0.0800 C   0  0  0  0  0  0  0  0  0  0  0  0
    5.4490    0.2990    0.7630 C   0  0  0  0  0  0  0  0  0  0  0  0
  1  2  1  0
  2  3  1  0
  3  4  1  0
  4  5  1  0
  5  6  1  1
  5  7  1  0
  7  8  1  6
  7  9  1  0
  7 10  1  0
 10 11  1  0
 11 12  2  0
 11 13  1  0
 13 14  1  0
 14 15  1  0
M  END
