
     RDKit          3D

 17 16  0  0  0  0  0  0  0  0999 V2000
   -6.0290    1.9120    0.1080 C   0  0  0  0  0  0  0  0  0  0  0  0
   -5.3250    0.6190   -0.2970 C   0  0  0  0  0  0  0  0  0  0  0  0
   -4.8630   -0.0370    0.9730 C   0  0  0  0  0  0  0  0  0  0  0  0
   -4.1420   -1.3390    0.7370 C   0  0  0  0  0  0  0  0  0  0  0  0
   -2.9060   -1.1660   -0.1170 C   0  0  0  0  0  0  0  0  0  0  0  0
   -1.9110   -0.2340    0.5130 C   0  0  0  0  0  0  0  0  0  0  0  0
   -0.6890   -0.0530   -0.3520 C   0  0  0  0  0  0  0  0  0  0  0  0
   -0.0270   -1.3800   -0.5540 C   0  0  0  0  0  0  0  0  0  0  0  0
    1.2240   -1.3220   -1.4020 C   0  0  0  0  0  0  0  0  0  0  0  0
    2.2430   -0.4200   -0.7420 C   0  0  0  0  0  0  0  0  0  0  0  0
    3.5010   -0.3920   -1.6250 C   0  0  0  0  0  0  0  0  0  0  0  0
    4.5260    0.5200   -0.9540 C   0  0  0  0  0  0  0  0  0  0  0  0
    4.8120   -0.0160    0.3150 O   0  0  0  0  0  0  0  0  0  0  0  0
    5.9340    0.9740    1.0620 S   0  0  2  0  0  0  0  0  0  0  0  0
    7.0570    1.3590   -0.0770 O   0  0  0  0  0  0  0  0  0  0  0  0
    6.5450    0.1700    2.2880 O   0  0  0  0  0  0  0  0  0  0  0  0
    5.1830    2.2940    1.5550 O   0  0  0  0  0  0  0  0  0  0  0  0
  1  2  1  0
  2  3  1  0
  3  4  1  0
  4  5  1  0
  5  6  1  0
  6  7  1  0
  7  8  1  0
  8  9  1  0
  9 10  1  0
 10 11  1  0
 11 12  1  0
 12 13  1  0
 13 14  1  0
 14 15  1  6
 14 16  1  0
 14 17  1  0
M  END
