
     RDKit          3D

 17 17  0  0  0  0  0  0  0  0999 V2000
    5.3280   -0.0030    0.2320 C   0  0  0  0  0  0  0  0  0  0  0  0
    3.8600   -0.3040    0.0140 C   0  0  0  0  0  0  0  0  0  0  0  0
    3.0690    0.6380    0.8620 C   0  0  0  0  0  0  0  0  0  0  0  0
    1.5740    0.4320    0.7280 C   0  0  0  0  0  0  0  0  0  0  0  0
    1.0900    0.6290   -0.6670 C   0  0  0  0  0  0  0  0  0  0  0  0
   -0.4000    0.4210   -0.7370 C   0  0  0  0  0  0  0  0  0  0  0  0
   -0.8330   -0.9310   -0.3240 C   0  0  0  0  0  0  0  0  0  0  0  0
   -2.3000   -1.1840   -0.3920 C   0  0  2  0  0  0  0  0  0  0  0  0
   -2.9140   -1.0340   -1.7420 C   0  0  0  0  0  0  0  0  0  0  0  0
   -3.0110   -0.3440    0.6540 C   0  0  0  0  0  0  0  0  0  0  0  0
   -3.5800   -0.8470    1.7180 C   0  0  0  0  0  0  0  0  0  0  0  0
   -3.6500   -2.1250    2.0840 F   0  0  0  0  0  0  0  0  0  0  0  0
   -4.2770    0.5420    2.5890 S   0  0  0  0  0  0  0  0  0  0  0  0
   -4.1530    1.6670    1.1210 C   0  0  1  0  0  0  0  0  0  0  0  0
   -5.3140    1.5680    0.3820 F   0  0  0  0  0  0  0  0  0  0  0  0
   -3.8490    2.9330    1.5060 F   0  0  0  0  0  0  0  0  0  0  0  0
   -3.0740    1.0120    0.5040 O   0  0  0  0  0  0  0  0  0  0  0  0
  1  2  1  0
  2  3  1  0
  3  4  1  0
  4  5  1  0
  5  6  1  0
  6  7  1  0
  7  8  1  0
  8  9  1  6
  8 10  1  0
 10 11  2  0
 10 17  1  0
 11 12  1  0
 11 13  1  0
 13 14  1  0
 14 15  1  6
 14 16  1  0
 14 17  1  0
M  END
