
     RDKit          3D

 15 15  0  0  0  0  0  0  0  0999 V2000
   -3.9720    1.7010    0.5500 C   0  0  0  0  0  0  0  0  0  0  0  0
   -2.5440    2.0950    0.6190 C   0  0  0  0  0  0  0  0  0  0  0  0
   -1.5350    1.2090    0.0320 C   0  0  0  0  0  0  0  0  0  0  0  0
   -1.2970   -0.1530    0.5510 C   0  0  1  0  0  0  0  0  0  0  0  0
   -2.4740   -1.0640    0.4580 C   0  0  0  0  0  0  0  0  0  0  0  0
   -2.4880   -1.5270   -0.9970 C   0  0  0  0  0  0  0  0  0  0  0  0
   -1.0030   -1.7680   -1.2200 C   0  0  0  0  0  0  0  0  0  0  0  0
   -0.2380   -0.8510   -0.3260 C   0  0  2  0  0  0  0  0  0  0  0  0
    0.7060   -1.4870    0.4730 O   0  0  0  0  0  0  0  0  0  0  0  0
    1.9340   -0.9430    0.2320 C   0  0  2  0  0  0  0  0  0  0  0  0
    2.9730   -1.9740   -0.1660 C   0  0  0  0  0  0  0  0  0  0  0  0
    2.4930   -2.5770   -1.3320 F   0  0  0  0  0  0  0  0  0  0  0  0
    2.6120   -0.0850    1.7060 S   0  0  0  0  0  0  0  0  0  0  0  0
    4.2220    0.5910    1.2110 C   0  0  0  0  0  0  0  0  0  0  0  0
    4.0490    1.6770    0.1570 C   0  0  0  0  0  0  0  0  0  0  0  0
  1  2  1  0
  2  3  1  0
  4  3  1  6
  4  5  1  0
  4  8  1  0
  5  6  1  0
  6  7  1  0
  7  8  1  0
  8  9  1  1
  9 10  1  0
 10 11  1  1
 10 13  1  0
 11 12  1  0
 13 14  1  0
 14 15  1  0
M  END
