
     RDKit          3D

 13 13  0  0  0  0  0  0  0  0999 V2000
    4.0620    0.2860   -0.6680 N   0  0  0  0  0  0  0  0  0  0  0  0
    3.0900   -0.4560    0.0830 C   0  0  0  0  0  0  0  0  0  0  0  0
    1.8290    0.3850    0.1770 C   0  0  1  0  0  0  0  0  0  0  0  0
    1.3760    0.6300   -1.0970 O   0  0  0  0  0  0  0  0  0  0  0  0
    0.7780   -0.3250    1.0430 C   0  0  1  0  0  0  0  0  0  0  0  0
   -0.3110    0.5950    1.3780 C   0  0  0  0  0  0  0  0  0  0  0  0
   -1.6220    0.2390    0.9120 N   0  0  0  0  0  0  0  0  0  0  0  0
   -2.0530    1.0590   -0.1730 C   0  0  0  0  0  0  0  0  0  0  0  0
   -3.4240    0.7070   -0.6770 C   0  0  0  0  0  0  0  0  0  0  0  0
   -4.3740    0.8430    0.3400 O   0  0  0  0  0  0  0  0  0  0  0  0
   -1.7960   -1.1740    0.7270 C   0  0  0  0  0  0  0  0  0  0  0  0
   -0.6950   -1.6100   -0.2330 C   0  0  0  0  0  0  0  0  0  0  0  0
    0.4880   -1.5030    0.4390 O   0  0  0  0  0  0  0  0  0  0  0  0
  1  2  1  0
  2  3  1  0
  3  4  1  6
  3  5  1  0
  5  6  1  6
  5 13  1  0
  6  7  1  0
  7  8  1  0
  7 11  1  0
  8  9  1  0
  9 10  1  0
 11 12  1  0
 12 13  1  0
M  CHG  1   1   1
M  END
