
     RDKit          3D

 22 22  0  0  0  0  0  0  0  0999 V2000
    0.7470    0.4280   -1.9490 C   0  0  0  0  0  0  0  0  0  0  0  0
    0.4450    0.5330   -0.4690 C   0  0  1  0  0  0  0  0  0  0  0  0
    1.7580    0.2940    0.2400 C   0  0  0  0  0  0  0  0  0  0  0  0
    2.2530    1.1660    0.9900 O   0  0  0  0  0  0  0  0  0  0  0  0
    2.4310   -0.8910    0.0690 O   0  0  0  0  0  0  0  0  0  0  0  0
    3.6340   -1.2430    0.6460 C   0  0  0  0  0  0  0  0  0  0  0  0
    4.8220   -0.4020    0.2990 C   0  0  1  0  0  0  0  0  0  0  0  0
    5.0020   -0.4540   -1.0930 O   0  0  0  0  0  0  0  0  0  0  0  0
    4.7940    0.8890    0.7460 O   0  0  0  0  0  0  0  0  0  0  0  0
    0.0130    1.7740   -0.1180 O   0  0  0  0  0  0  0  0  0  0  0  0
   -1.0250    1.8200    0.7770 C   0  0  2  0  0  0  0  0  0  0  0  0
   -0.7370    1.3490    2.0330 O   0  0  0  0  0  0  0  0  0  0  0  0
   -2.2360    1.1770    0.1450 C   0  0  2  0  0  0  0  0  0  0  0  0
   -2.5530    1.9690   -1.1070 C   0  0  0  0  0  0  0  0  0  0  0  0
   -3.2890    1.3060    1.0400 O   0  0  0  0  0  0  0  0  0  0  0  0
   -1.9200   -0.2550   -0.1460 C   0  0  1  0  0  0  0  0  0  0  0  0
   -2.6520   -1.0930    0.9130 C   0  0  0  0  0  0  0  0  0  0  0  0
   -2.4440   -2.4380    0.7590 O   0  0  0  0  0  0  0  0  0  0  0  0
   -2.5380   -0.6940   -1.4820 C   0  0  0  0  0  0  0  0  0  0  0  0
   -2.2370   -2.0290   -1.7420 O   0  0  0  0  0  0  0  0  0  0  0  0
   -0.4700   -0.5910   -0.0710 C   0  0  2  0  0  0  0  0  0  0  0  0
   -0.0810   -1.0560    1.1850 O   0  0  0  0  0  0  0  0  0  0  0  0
  2  1  1  6
  2  3  1  0
  2 10  1  0
  2 21  1  0
  3  4  2  0
  3  5  1  0
  5  6  1  0
  6  7  1  0
  7  8  1  6
  7  9  1  0
 10 11  1  0
 11 12  1  1
 11 13  1  0
 13 14  1  6
 13 15  1  0
 13 16  1  0
 16 17  1  1
 16 19  1  0
 16 21  1  0
 17 18  1  0
 19 20  1  0
 21 22  1  1
M  END
