
     RDKit          3D

 22 22  0  0  0  0  0  0  0  0999 V2000
    6.3860    1.3460   -0.0940 C   0  0  0  0  0  0  0  0  0  0  0  0
    5.1640    1.0830    0.5260 O   0  0  0  0  0  0  0  0  0  0  0  0
    3.9950    0.9540   -0.2430 C   0  0  0  0  0  0  0  0  0  0  0  0
    3.9950    1.0670   -1.4840 O   0  0  0  0  0  0  0  0  0  0  0  0
    2.8330    0.6910    0.4950 O   0  0  0  0  0  0  0  0  0  0  0  0
    1.5830    0.5410   -0.1870 C   0  0  0  0  0  0  0  0  0  0  0  0
    0.5250    0.2680    0.8550 C   0  0  1  0  0  0  0  0  0  0  0  0
    0.8840   -0.9050    1.5200 O   0  0  0  0  0  0  0  0  0  0  0  0
    0.4680    1.2810    1.7840 O   0  0  0  0  0  0  0  0  0  0  0  0
   -0.8020    0.0060    0.1710 C   0  0  1  0  0  0  0  0  0  0  0  0
   -0.5910   -1.1770   -0.7000 C   0  0  0  0  0  0  0  0  0  0  0  0
   -0.7170   -1.2170   -1.9290 O   0  0  0  0  0  0  0  0  0  0  0  0
   -0.2080   -2.3720   -0.0610 O   0  0  0  0  0  0  0  0  0  0  0  0
    0.0180   -3.5560   -0.8040 C   0  0  0  0  0  0  0  0  0  0  0  0
   -1.8550   -0.3690    1.1840 C   0  0  0  0  0  0  0  0  0  0  0  0
   -3.0620   -0.8660    0.4160 C   0  0  1  0  0  0  0  0  0  0  0  0
   -4.0350   -1.3860    1.2470 O   0  0  0  0  0  0  0  0  0  0  0  0
   -3.6300    0.2870   -0.3850 C   0  0  1  0  0  0  0  0  0  0  0  0
   -4.0540    1.2760    0.4910 O   0  0  0  0  0  0  0  0  0  0  0  0
   -2.5870    0.8430   -1.3020 C   0  0  0  0  0  0  0  0  0  0  0  0
   -1.2750    1.1620   -0.6350 C   0  0  1  0  0  0  0  0  0  0  0  0
   -1.4480    2.3250    0.0940 O   0  0  0  0  0  0  0  0  0  0  0  0
  1  2  1  0
  2  3  1  0
  3  4  2  0
  3  5  1  0
  5  6  1  0
  6  7  1  0
  7  8  1  1
  7  9  1  0
  7 10  1  0
 10 11  1  6
 10 15  1  0
 10 21  1  0
 11 12  2  0
 11 13  1  0
 13 14  1  0
 15 16  1  0
 16 17  1  1
 16 18  1  0
 18 19  1  1
 18 20  1  0
 20 21  1  0
 21 22  1  1
M  END
