
     RDKit          3D

 24 26  0  0  0  0  0  0  0  0999 V2000
   -5.3920   -1.5990   -1.5620 C   0  0  0  0  0  0  0  0  0  0  0  0
   -4.8560   -0.1740   -1.6890 C   0  0  0  0  0  0  0  0  0  0  0  0
   -4.5850    0.3340   -0.2910 C   0  0  0  0  0  0  0  0  0  0  0  0
   -5.6490    0.7110    0.4690 C   0  0  0  0  0  0  0  0  0  0  0  0
   -7.2880    0.5770   -0.2460 Cl  0  0  0  0  0  0  0  0  0  0  0  0
   -5.5280    1.1870    1.7510 C   0  0  0  0  0  0  0  0  0  0  0  0
   -4.2230    1.2720    2.2640 C   0  0  0  0  0  0  0  0  0  0  0  0
   -3.1760    0.8980    1.5100 C   0  0  0  0  0  0  0  0  0  0  0  0
   -1.3800    0.8310    1.7300 S   0  0  0  0  0  0  0  0  0  0  0  0
   -1.0120    0.1480    0.0070 C   0  0  0  0  0  0  0  0  0  0  0  0
    0.3100   -0.1030   -0.3580 N   0  0  0  0  0  0  0  0  0  0  0  0
    1.3890    0.1450    0.5540 C   0  0  0  0  0  0  0  0  0  0  0  0
    2.7220   -0.1750    0.0610 C   0  0  0  0  0  0  0  0  0  0  0  0
    3.0120   -0.8080   -1.1220 C   0  0  0  0  0  0  0  0  0  0  0  0
    4.3310   -1.0750   -1.5190 C   0  0  0  0  0  0  0  0  0  0  0  0
    5.3370   -0.6950   -0.7100 N   0  0  0  0  0  0  0  0  0  0  0  0
    5.1140   -0.0790    0.4460 C   0  0  0  0  0  0  0  0  0  0  0  0
    6.2080    0.3160    1.2970 N   0  0  0  0  0  0  0  0  0  0  0  0
    7.5530    0.0670    0.9400 C   0  0  0  0  0  0  0  0  0  0  0  0
    7.8380   -0.5070   -0.1320 O   0  0  0  0  0  0  0  0  0  0  0  0
    8.6250    0.4440    1.7530 O   0  0  0  0  0  0  0  0  0  0  0  0
    3.8300    0.1840    0.8400 C   0  0  0  0  0  0  0  0  0  0  0  0
   -2.1730    0.0920   -0.3960 N   0  0  0  0  0  0  0  0  0  0  0  0
   -3.2680    0.4030    0.1830 C   0  0  0  0  0  0  0  0  0  0  0  0
  1  2  1  0
  2  3  1  0
  3  4  2  0
  3 24  1  0
  4  5  1  0
  4  6  1  0
  6  7  2  0
  7  8  1  0
  8  9  1  0
  8 24  2  0
  9 10  1  0
 10 11  1  0
 10 23  2  0
 11 12  1  0
 12 13  1  0
 13 14  2  0
 13 22  1  0
 14 15  1  0
 15 16  2  0
 16 17  1  0
 17 18  1  0
 17 22  2  0
 18 19  1  0
 19 20  2  0
 19 21  1  0
 23 24  1  0
M  END
