
     RDKit          3D

 23 25  0  0  0  0  0  0  0  0999 V2000
   -2.0800    0.2830   -3.0480 O   0  0  0  0  0  0  0  0  0  0  0  0
   -1.6810    0.1370   -1.8890 C   0  0  0  0  0  0  0  0  0  0  0  0
   -0.2950    0.2430   -1.7020 C   0  0  0  0  0  0  0  0  0  0  0  0
    0.5390    0.4960   -2.7730 O   0  0  0  0  0  0  0  0  0  0  0  0
    0.1720    0.0860   -0.4300 C   0  0  0  0  0  0  0  0  0  0  0  0
    1.5790    0.1650   -0.0610 C   0  0  0  0  0  0  0  0  0  0  0  0
    1.9570   -0.0100    1.2650 C   0  0  0  0  0  0  0  0  0  0  0  0
    3.2390    0.0400    1.7400 C   0  0  0  0  0  0  0  0  0  0  0  0
    3.5290   -0.1460    3.0780 O   0  0  0  0  0  0  0  0  0  0  0  0
    4.2500    0.2810    0.8520 C   0  0  0  0  0  0  0  0  0  0  0  0
    5.5610    0.3450    1.2590 O   0  0  0  0  0  0  0  0  0  0  0  0
    3.9450    0.4680   -0.5040 C   0  0  0  0  0  0  0  0  0  0  0  0
    4.9700    0.7130   -1.4050 O   0  0  0  0  0  0  0  0  0  0  0  0
    2.6100    0.4050   -0.9300 C   0  0  0  0  0  0  0  0  0  0  0  0
   -0.6930   -0.1580    0.5650 O   0  0  0  0  0  0  0  0  0  0  0  0
   -1.9690   -0.2600    0.4140 C   0  0  0  0  0  0  0  0  0  0  0  0
   -2.7920   -0.5120    1.4890 C   0  0  0  0  0  0  0  0  0  0  0  0
   -4.1710   -0.6220    1.3310 C   0  0  0  0  0  0  0  0  0  0  0  0
   -4.9480   -0.8770    2.4490 O   0  0  0  0  0  0  0  0  0  0  0  0
   -4.7300   -0.4800    0.0940 C   0  0  0  0  0  0  0  0  0  0  0  0
   -3.9120   -0.2240   -1.0030 C   0  0  0  0  0  0  0  0  0  0  0  0
   -4.4960   -0.0880   -2.2100 O   0  0  0  0  0  0  0  0  0  0  0  0
   -2.5450   -0.1140   -0.8480 C   0  0  0  0  0  0  0  0  0  0  0  0
  1  2  2  0
  2  3  1  0
  2 23  1  0
  3  4  1  0
  3  5  2  0
  5  6  1  0
  5 15  1  0
  6  7  2  0
  6 14  1  0
  7  8  1  0
  8  9  1  0
  8 10  2  0
 10 11  1  0
 10 12  1  0
 12 13  1  0
 12 14  2  0
 15 16  1  0
 16 17  2  0
 16 23  1  0
 17 18  1  0
 18 19  1  0
 18 20  2  0
 20 21  1  0
 21 22  1  0
 21 23  2  0
M  END
