
     RDKit          3D

 39 42  0  0  0  0  0  0  0  0999 V2000
    2.6100   -3.5480    1.2330 O   0  0  0  0  0  0  0  0  0  0  0  0
    2.8300   -2.9960   -0.1920 P   0  0  0  0  0  0  0  0  0  0  0  0
    3.3060   -1.2390   -0.5140 C   0  0  0  0  0  0  0  0  0  0  0  0
    2.3230   -0.2940   -0.9000 C   0  0  0  0  0  0  0  0  0  0  0  0
    1.0400   -0.2930   -0.9600 C   0  0  0  0  0  0  0  0  0  0  0  0
    0.1200   -1.3170   -0.6200 C   0  0  0  0  0  0  0  0  0  0  0  0
   -1.2140   -1.1710   -0.7740 C   0  0  0  0  0  0  0  0  0  0  0  0
   -1.6940    0.0850   -1.3200 C   0  0  0  0  0  0  0  0  0  0  0  0
   -2.5770    0.1970   -2.3190 C   0  0  0  0  0  0  0  0  0  0  0  0
   -3.1930   -0.9140   -3.0180 C   0  0  0  0  0  0  0  0  0  0  0  0
   -4.5710   -0.9100   -3.1130 O   0  0  0  0  0  0  0  0  0  0  0  0
   -5.5490   -0.0490   -2.8010 C   0  0  0  0  0  0  0  0  0  0  0  0
   -6.0520    0.8700   -3.5550 O   0  0  0  0  0  0  0  0  0  0  0  0
   -6.1910   -0.0790   -1.4600 C   0  0  0  0  0  0  0  0  0  0  0  0
   -5.5330   -0.8350   -0.4690 N   0  0  0  0  0  0  0  0  0  0  0  0
   -5.0610   -0.2270    0.7120 C   0  0  1  0  0  0  0  0  0  0  0  0
   -4.8490    1.2410    0.5080 C   0  0  0  0  0  0  0  0  0  0  0  0
   -5.7600    2.2810    0.6200 C   0  0  0  0  0  0  0  0  0  0  0  0
   -5.0940    3.4640    0.3380 C   0  0  0  0  0  0  0  0  0  0  0  0
   -3.7950    3.0890    0.0650 C   0  0  0  0  0  0  0  0  0  0  0  0
   -3.7400    1.8060    0.1850 O   0  0  0  0  0  0  0  0  0  0  0  0
   -6.0760   -0.3440    1.8620 C   0  0  0  0  0  0  0  0  0  0  0  0
   -5.6220    0.4150    3.0560 C   0  0  0  0  0  0  0  0  0  0  0  0
   -4.2590    0.7120    3.0900 O   0  0  0  0  0  0  0  0  0  0  0  0
   -3.5530   -0.4500    3.4730 C   0  0  0  0  0  0  0  0  0  0  0  0
   -3.7640   -1.5390    2.4440 C   0  0  0  0  0  0  0  0  0  0  0  0
   -3.7440   -0.8900    1.0690 C   0  0  1  0  0  0  0  0  0  0  0  0
   -3.4370   -1.9800    0.1380 N   0  0  0  0  0  0  0  0  0  0  0  0
   -2.1080   -2.2360   -0.3410 C   0  0  0  0  0  0  0  0  0  0  0  0
   -1.7210   -3.4300   -0.3820 O   0  0  0  0  0  0  0  0  0  0  0  0
    4.5950   -0.9910   -0.5230 C   0  0  0  0  0  0  0  0  0  0  0  0
    5.1830    0.3510   -0.7460 C   0  0  0  0  0  0  0  0  0  0  0  0
    6.4530    0.4620   -0.8080 C   0  0  0  0  0  0  0  0  0  0  0  0
    7.8410    0.6520   -0.8860 C   0  0  2  0  0  0  0  0  0  0  0  0
    8.6150   -0.4880   -0.2080 C   0  0  0  0  0  0  0  0  0  0  0  0
   10.1050   -0.2200   -0.1930 C   0  0  0  0  0  0  0  0  0  0  0  0
   10.4810    1.2110   -0.0190 C   0  0  0  0  0  0  0  0  0  0  0  0
    9.5350    2.0990   -0.8080 C   0  0  0  0  0  0  0  0  0  0  0  0
    8.2530    1.8650   -0.2670 O   0  0  0  0  0  0  0  0  0  0  0  0
  1  2  2  0
  2  3  1  0
  3  4  1  0
  3 31  2  3
  4  5  2  3
  5  6  1  0
  6  7  2  3
  7  8  1  0
  7 29  1  0
  8  9  2  0
  9 10  1  0
 10 11  1  0
 11 12  1  0
 12 13  2  0
 12 14  1  0
 14 15  1  0
 15 16  1  0
 16 17  1  6
 16 22  1  0
 16 27  1  0
 17 18  2  0
 17 21  1  0
 18 19  1  0
 19 20  2  0
 20 21  1  0
 22 23  1  0
 23 24  1  0
 24 25  1  0
 25 26  1  0
 27 26  1  1
 27 28  1  0
 28 29  1  0
 29 30  2  0
 31 32  1  0
 32 33  2  3
 34 33  1  1
 34 35  1  0
 34 39  1  0
 35 36  1  0
 36 37  1  0
 37 38  1  0
 38 39  1  0
M  END
