
     RDKit          3D

 39 40  0  0  0  0  0  0  0  0999 V2000
    0.5590    5.3330    0.6960 O   0  0  0  0  0  0  0  0  0  0  0  0
    0.0370    4.1810    0.4630 C   0  0  0  0  0  0  0  0  0  0  0  0
    0.9350    3.0220    0.6590 C   0  0  0  0  0  0  0  0  0  0  0  0
    1.3320    2.3570   -0.4680 O   0  0  0  0  0  0  0  0  0  0  0  0
    2.0730    1.2470   -0.1510 C   0  0  2  0  0  0  0  0  0  0  0  0
    3.5430    1.6200   -0.4930 C   0  0  0  0  0  0  0  0  0  0  0  0
    4.2880    0.3970   -0.5050 O   0  0  0  0  0  0  0  0  0  0  0  0
    5.4290    0.3220    0.2050 C   0  0  0  0  0  0  0  0  0  0  0  0
    5.8020    1.2990    0.9270 O   0  0  0  0  0  0  0  0  0  0  0  0
    6.2900   -0.9080    0.1210 C   0  0  0  0  0  0  0  0  0  0  0  0
    7.2310   -0.6090    1.1340 O   0  0  0  0  0  0  0  0  0  0  0  0
    8.3800   -0.7130    0.6770 O   0  0  0  0  0  0  0  0  0  0  0  0
    8.8680   -1.5670   -0.0710 O   0  0  0  0  0  0  0  0  0  0  0  0
   10.2070   -1.5960    0.1870 O   0  0  0  0  0  0  0  0  0  0  0  0
    1.8210   -0.0860   -0.7330 C   0  0  0  0  0  0  0  0  0  0  0  0
    2.1000   -0.1150   -1.9980 O   0  0  0  0  0  0  0  0  0  0  0  0
    1.3340   -1.1940   -0.1010 O   0  0  0  0  0  0  0  0  0  0  0  0
   -0.0080   -1.6110    0.1360 C   0  0  2  0  0  0  0  0  0  0  0  0
   -0.4610   -2.7330   -0.6850 C   0  0  0  0  0  0  0  0  0  0  0  0
   -1.4340   -3.6510   -0.0260 C   0  0  0  0  0  0  0  0  0  0  0  0
   -2.5280   -3.9360   -1.0670 C   0  0  0  0  0  0  0  0  0  0  0  0
   -3.6080   -4.5240   -0.3920 O   0  0  0  0  0  0  0  0  0  0  0  0
   -4.4350   -3.8750    0.4990 C   0  0  0  0  0  0  0  0  0  0  0  0
   -4.7720   -4.5180    1.5630 O   0  0  0  0  0  0  0  0  0  0  0  0
   -4.8870   -2.4720    0.3630 C   0  0  0  0  0  0  0  0  0  0  0  0
   -4.2630   -1.6150    1.2370 O   0  0  0  0  0  0  0  0  0  0  0  0
   -4.0420   -0.2690    1.0890 C   0  0  0  0  0  0  0  0  0  0  0  0
   -4.0060    0.3270    2.2510 O   0  0  0  0  0  0  0  0  0  0  0  0
   -3.8790    0.5290   -0.0660 N   0  0  0  0  0  0  0  0  0  0  0  0
   -4.2960    1.9100    0.0350 C   0  0  0  0  0  0  0  0  0  0  0  0
   -3.3460    2.8950   -0.6040 C   0  0  1  0  0  0  0  0  0  0  0  0
   -3.8490    4.1520   -0.3100 O   0  0  0  0  0  0  0  0  0  0  0  0
   -1.9370    2.8660   -0.1880 C   0  0  0  0  0  0  0  0  0  0  0  0
   -1.3360    4.1810    0.1460 N   0  0  0  0  0  0  0  0  0  0  0  0
   -3.1150    0.0130   -1.2000 C   0  0  0  0  0  0  0  0  0  0  0  0
   -3.5130   -0.4980   -2.2820 O   0  0  0  0  0  0  0  0  0  0  0  0
   -1.6610    0.0400   -1.0580 N   0  0  0  0  0  0  0  0  0  0  0  0
   -0.8450   -0.3250   -0.0140 C   0  0  0  0  0  0  0  0  0  0  0  0
   -0.5250    0.2550    1.0930 O   0  0  0  0  0  0  0  0  0  0  0  0
  1  2  2  0
  2  3  1  0
  2 34  1  0
  3  4  1  0
  4  5  1  0
  5  6  1  6
  5 15  1  0
  6  7  1  0
  7  8  1  0
  8  9  2  0
  8 10  1  0
 10 11  1  0
 11 12  1  0
 12 13  1  0
 13 14  1  0
 15 16  2  0
 15 17  1  0
 17 18  1  0
 18 19  1  6
 18 38  1  0
 19 20  1  0
 20 21  1  0
 21 22  1  0
 22 23  1  0
 23 24  2  0
 23 25  1  0
 25 26  1  0
 26 27  1  0
 27 28  2  0
 27 29  1  0
 29 30  1  0
 29 35  1  0
 30 31  1  0
 31 32  1  1
 31 33  1  0
 33 34  1  0
 35 36  2  0
 35 37  1  0
 37 38  1  0
 38 39  2  0
M  END
