
     RDKit          3D

 39 42  0  0  0  0  0  0  0  0999 V2000
   -3.3180   -2.5620   -2.0500 O   0  0  0  0  0  0  0  0  0  0  0  0
   -3.2060   -1.3820   -1.5290 C   0  0  0  0  0  0  0  0  0  0  0  0
   -4.3690   -0.8790   -0.8620 N   0  0  0  0  0  0  0  0  0  0  0  0
   -4.9490    0.4300   -1.0880 C   0  0  0  0  0  0  0  0  0  0  0  0
   -5.5900    1.0330    0.1180 C   0  0  0  0  0  0  0  0  0  0  0  0
   -4.7530    1.6890    0.9810 O   0  0  0  0  0  0  0  0  0  0  0  0
   -4.5460    3.0340    0.6800 C   0  0  0  0  0  0  0  0  0  0  0  0
   -3.0240    3.2320    0.7670 C   0  0  0  0  0  0  0  0  0  0  0  0
   -2.4670    2.1230    0.2010 O   0  0  0  0  0  0  0  0  0  0  0  0
   -1.1530    1.8690    0.4690 C   0  0  0  0  0  0  0  0  0  0  0  0
   -0.5960    1.0170   -0.6140 C   0  0  1  0  0  0  0  0  0  0  0  0
    0.7910    1.0190   -0.6650 O   0  0  0  0  0  0  0  0  0  0  0  0
    1.3820    0.0770    0.1400 C   0  0  1  0  0  0  0  0  0  0  0  0
    1.0720   -1.2280   -0.2280 O   0  0  0  0  0  0  0  0  0  0  0  0
    0.1310   -1.1840   -1.2170 C   0  0  0  0  0  0  0  0  0  0  0  0
   -1.0680   -0.4160   -0.6310 C   0  0  2  0  0  0  0  0  0  0  0  0
   -2.0900   -0.6140   -1.5750 O   0  0  0  0  0  0  0  0  0  0  0  0
   -1.4000   -0.9150    0.7320 C   0  0  0  0  0  0  0  0  0  0  0  0
   -2.3880   -0.2750    1.2660 O   0  0  0  0  0  0  0  0  0  0  0  0
   -0.7580   -1.9580    1.4230 N   0  0  0  0  0  0  0  0  0  0  0  0
   -0.6270   -3.3360    1.0570 C   0  0  0  0  0  0  0  0  0  0  0  0
    0.6940   -3.9550    1.4560 C   0  0  0  0  0  0  0  0  0  0  0  0
    1.5060   -4.2320    0.3460 O   0  0  0  0  0  0  0  0  0  0  0  0
    2.8440   -4.2150    0.6490 C   0  0  0  0  0  0  0  0  0  0  0  0
    3.5480   -2.9310    0.1990 C   0  0  0  0  0  0  0  0  0  0  0  0
    3.2600   -1.9580    1.1580 O   0  0  0  0  0  0  0  0  0  0  0  0
    3.4700   -0.6150    1.1020 C   0  0  0  0  0  0  0  0  0  0  0  0
    4.1640   -0.0200    1.9710 O   0  0  0  0  0  0  0  0  0  0  0  0
    2.8880    0.2040    0.0100 C   0  0  1  0  0  0  0  0  0  0  0  0
    3.3620   -0.1360   -1.2610 O   0  0  0  0  0  0  0  0  0  0  0  0
    4.2780    0.8150   -1.7140 C   0  0  0  0  0  0  0  0  0  0  0  0
    5.0440    0.7430   -2.7250 O   0  0  0  0  0  0  0  0  0  0  0  0
    4.2440    1.9460   -0.8470 N   0  0  0  0  0  0  0  0  0  0  0  0
    4.9850    3.0880   -0.9430 O   0  0  0  0  0  0  0  0  0  0  0  0
    5.7270    3.2390    0.1450 O   0  0  0  0  0  0  0  0  0  0  0  0
    5.8420    4.5040    0.4540 O   0  0  0  0  0  0  0  0  0  0  0  0
    5.3010    5.2560   -0.4590 O   0  0  0  0  0  0  0  0  0  0  0  0
    3.2740    1.6460    0.1490 C   0  0  0  0  0  0  0  0  0  0  0  0
    2.8170    2.4380    0.9940 O   0  0  0  0  0  0  0  0  0  0  0  0
  1  2  2  0
  2  3  1  0
  2 17  1  0
  3  4  1  0
  4  5  1  0
  5  6  1  0
  6  7  1  0
  7  8  1  0
  8  9  1  0
  9 10  1  0
 11 10  1  1
 11 12  1  0
 11 16  1  0
 12 13  1  0
 13 14  1  6
 13 29  1  0
 14 15  1  0
 16 15  1  6
 16 17  1  0
 16 18  1  0
 18 19  2  0
 18 20  1  0
 20 21  1  0
 21 22  1  0
 22 23  1  0
 23 24  1  0
 24 25  1  0
 25 26  1  0
 26 27  1  0
 27 28  2  0
 27 29  1  0
 29 30  1  6
 29 38  1  0
 30 31  1  0
 31 32  2  0
 31 33  1  0
 33 34  1  0
 33 38  1  0
 34 35  1  0
 35 36  1  0
 36 37  1  0
 38 39  2  0
M  END
