
     RDKit          3D

 39 39  0  0  0  0  0  0  0  0999 V2000
   -4.6940    5.3200    0.2090 N   0  0  0  0  0  0  0  0  0  0  0  0
   -3.5670    4.4600    0.2440 C   0  0  0  0  0  0  0  0  0  0  0  0
   -2.4050    4.9830    0.2940 O   0  0  0  0  0  0  0  0  0  0  0  0
   -3.7330    3.0490    0.2240 N   0  0  0  0  0  0  0  0  0  0  0  0
   -2.6010    2.1810    0.2590 C   0  0  0  0  0  0  0  0  0  0  0  0
   -1.4400    2.6500    0.3080 O   0  0  0  0  0  0  0  0  0  0  0  0
   -2.7790    0.7140    0.2370 C   0  0  2  0  0  0  0  0  0  0  0  0
   -3.5340    0.2670   -0.9650 C   0  0  0  0  0  0  0  0  0  0  0  0
   -4.6880    0.6840   -1.2210 O   0  0  0  0  0  0  0  0  0  0  0  0
   -2.9500   -0.6370   -1.8310 O   0  0  0  0  0  0  0  0  0  0  0  0
   -3.6020   -1.1120   -2.9970 C   0  0  0  0  0  0  0  0  0  0  0  0
   -4.8510   -1.8000   -2.6090 C   0  0  0  0  0  0  0  0  0  0  0  0
   -5.1820   -1.8930   -1.4020 O   0  0  0  0  0  0  0  0  0  0  0  0
   -5.7140   -2.3720   -3.5340 O   0  0  0  0  0  0  0  0  0  0  0  0
   -3.6420    0.3660    1.4290 C   0  0  0  0  0  0  0  0  0  0  0  0
   -3.4170   -0.9100    1.9030 O   0  0  0  0  0  0  0  0  0  0  0  0
   -2.1700   -0.9110    2.4960 C   0  0  1  0  0  0  0  0  0  0  0  0
   -1.7950   -2.1360    3.2480 C   0  0  0  0  0  0  0  0  0  0  0  0
   -2.5930   -2.4790    4.3180 O   0  0  0  0  0  0  0  0  0  0  0  0
   -3.9080   -2.8170    4.2300 C   0  0  0  0  0  0  0  0  0  0  0  0
   -4.5030   -2.8470    3.1300 O   0  0  0  0  0  0  0  0  0  0  0  0
   -4.6590   -3.1480    5.3630 O   0  0  0  0  0  0  0  0  0  0  0  0
   -1.1890   -0.7850    1.3580 C   0  0  0  0  0  0  0  0  0  0  0  0
   -0.1120   -1.4150    1.3290 O   0  0  0  0  0  0  0  0  0  0  0  0
   -1.5000    0.0800    0.2770 N   0  0  0  0  0  0  0  0  0  0  0  0
   -0.5310    0.3100   -0.7610 C   0  0  0  0  0  0  0  0  0  0  0  0
   -0.8210    1.0790   -1.7130 O   0  0  0  0  0  0  0  0  0  0  0  0
    0.7050   -0.2770   -0.7600 O   0  0  0  0  0  0  0  0  0  0  0  0
    1.6770   -0.0600   -1.7800 C   0  0  0  0  0  0  0  0  0  0  0  0
    2.9030   -0.8810   -1.4190 C   0  0  0  0  0  0  0  0  0  0  0  0
    3.4020   -0.4010   -0.0740 C   0  0  0  0  0  0  0  0  0  0  0  0
    4.5150   -1.0720    0.3630 O   0  0  0  0  0  0  0  0  0  0  0  0
    5.6070   -0.9770   -0.4630 C   0  0  0  0  0  0  0  0  0  0  0  0
    6.0770    0.4420   -0.6680 C   0  0  0  0  0  0  0  0  0  0  0  0
    6.4680    1.0880    0.6160 C   0  0  0  0  0  0  0  0  0  0  0  0
    7.5050    0.3900    1.2370 O   0  0  0  0  0  0  0  0  0  0  0  0
    8.7560    0.1650    0.7270 C   0  0  0  0  0  0  0  0  0  0  0  0
    9.0500    0.6110   -0.4070 O   0  0  0  0  0  0  0  0  0  0  0  0
    9.6900   -0.5430    1.4440 O   0  0  0  0  0  0  0  0  0  0  0  0
  1  2  1  0
  2  3  2  0
  2  4  1  0
  4  5  1  0
  5  6  2  0
  7  5  1  6
  7  8  1  0
  7 15  1  0
  7 25  1  0
  8  9  2  0
  8 10  1  0
 10 11  1  0
 11 12  1  0
 12 13  2  0
 12 14  1  0
 15 16  1  0
 16 17  1  0
 17 18  1  6
 17 23  1  0
 18 19  1  0
 19 20  1  0
 20 21  2  0
 20 22  1  0
 23 24  2  0
 23 25  1  0
 25 26  1  0
 26 27  2  0
 26 28  1  0
 28 29  1  0
 29 30  1  0
 30 31  1  0
 31 32  1  0
 32 33  1  0
 33 34  1  0
 34 35  1  0
 35 36  1  0
 36 37  1  0
 37 38  2  0
 37 39  1  0
M  END
