
     RDKit          3D

 39 41  0  0  0  0  0  0  0  0999 V2000
    5.1120   -2.5310   -0.5370 C   0  0  0  0  0  0  0  0  0  0  0  0
    4.2420   -1.4140   -0.1370 N   0  0  0  0  0  0  0  0  0  0  0  0
    4.7930   -0.3250    0.5940 C   0  0  0  0  0  0  0  0  0  0  0  0
    6.0140   -0.3250    0.8920 O   0  0  0  0  0  0  0  0  0  0  0  0
    3.9160    0.6940    0.9390 O   0  0  0  0  0  0  0  0  0  0  0  0
    2.8420    1.0100    0.0390 C   0  0  0  0  0  0  0  0  0  0  0  0
    1.9690   -0.2090   -0.1350 C   0  0  2  0  0  0  0  0  0  0  0  0
    1.1160   -0.1460   -1.2180 O   0  0  0  0  0  0  0  0  0  0  0  0
    1.2250    0.7270   -2.2950 C   0  0  0  0  0  0  0  0  0  0  0  0
    1.5070    0.4380   -3.4790 O   0  0  0  0  0  0  0  0  0  0  0  0
    0.9810    2.1020   -1.9720 N   0  0  0  0  0  0  0  0  0  0  0  0
   -0.1080    2.3930   -1.0160 C   0  0  2  0  0  0  0  0  0  0  0  0
   -1.4500    2.1190   -1.6950 C   0  0  0  0  0  0  0  0  0  0  0  0
   -2.0430    0.9680   -1.3610 O   0  0  0  0  0  0  0  0  0  0  0  0
   -2.4870    0.0970   -0.4820 C   0  0  0  0  0  0  0  0  0  0  0  0
   -3.4890    0.4030    0.2820 O   0  0  0  0  0  0  0  0  0  0  0  0
   -1.9930   -1.2550   -0.2230 C   0  0  1  0  0  0  0  0  0  0  0  0
   -3.1830   -2.1620    0.1850 C   0  0  0  0  0  0  0  0  0  0  0  0
   -2.8480   -3.4820    0.2000 O   0  0  0  0  0  0  0  0  0  0  0  0
   -3.8410   -4.2560    0.5420 O   0  0  0  0  0  0  0  0  0  0  0  0
   -3.4680   -5.5010    0.6670 O   0  0  0  0  0  0  0  0  0  0  0  0
   -1.5600   -1.6760   -1.5150 O   0  0  0  0  0  0  0  0  0  0  0  0
   -2.3350   -1.7440   -2.6260 C   0  0  0  0  0  0  0  0  0  0  0  0
   -3.5240   -1.4000   -2.5070 O   0  0  0  0  0  0  0  0  0  0  0  0
   -1.8930   -2.1660   -3.8720 O   0  0  0  0  0  0  0  0  0  0  0  0
   -0.9050   -1.5750    0.6900 C   0  0  0  0  0  0  0  0  0  0  0  0
   -0.8760   -2.8900    0.6970 O   0  0  0  0  0  0  0  0  0  0  0  0
   -0.0250   -0.6900    1.4420 N   0  0  0  0  0  0  0  0  0  0  0  0
   -0.7610    0.0730    2.4860 C   0  0  0  0  0  0  0  0  0  0  0  0
   -0.3640    1.4680    2.7350 C   0  0  0  0  0  0  0  0  0  0  0  0
   -1.3910    2.5220    2.7080 C   0  0  0  0  0  0  0  0  0  0  0  0
   -1.5880    3.3120    1.4810 C   0  0  0  0  0  0  0  0  0  0  0  0
   -0.4240    3.8630    0.9020 O   0  0  0  0  0  0  0  0  0  0  0  0
   -0.0080    3.6960   -0.3840 C   0  0  0  0  0  0  0  0  0  0  0  0
    0.4680    4.6400   -1.0580 O   0  0  0  0  0  0  0  0  0  0  0  0
    1.3740   -0.5410    1.1990 C   0  0  0  0  0  0  0  0  0  0  0  0
    2.4240   -0.6420    1.9750 O   0  0  0  0  0  0  0  0  0  0  0  0
    2.8780   -1.3790   -0.4510 C   0  0  0  0  0  0  0  0  0  0  0  0
    2.3900   -2.3900   -1.0320 O   0  0  0  0  0  0  0  0  0  0  0  0
  1  2  1  0
  2  3  1  0
  2 38  1  0
  3  4  2  0
  3  5  1  0
  5  6  1  0
  7  6  1  1
  7  8  1  0
  7 36  1  0
  7 38  1  0
  8  9  1  0
  9 10  2  0
  9 11  1  0
 12 11  1  6
 12 13  1  0
 12 34  1  0
 13 14  1  0
 14 15  1  0
 15 16  2  0
 15 17  1  0
 17 18  1  1
 17 22  1  0
 17 26  1  0
 18 19  1  0
 19 20  1  0
 20 21  1  0
 22 23  1  0
 23 24  2  0
 23 25  1  0
 26 27  2  0
 26 28  1  0
 28 29  1  0
 28 36  1  0
 29 30  1  0
 30 31  1  0
 31 32  1  0
 32 33  1  0
 33 34  1  0
 34 35  2  0
 36 37  2  0
 38 39  2  0
M  END
