
     RDKit          3D

 39 40  0  0  0  0  0  0  0  0999 V2000
   -5.9050    3.6460    0.0400 O   0  0  0  0  0  0  0  0  0  0  0  0
   -5.7290    2.3570    0.0130 C   0  0  0  0  0  0  0  0  0  0  0  0
   -5.7540    1.7570    1.3450 C   0  0  0  0  0  0  0  0  0  0  0  0
   -6.3860    0.5350    1.4680 O   0  0  0  0  0  0  0  0  0  0  0  0
   -5.7310   -0.2940    2.3770 C   0  0  0  0  0  0  0  0  0  0  0  0
   -5.4710   -1.6450    1.7980 C   0  0  0  0  0  0  0  0  0  0  0  0
   -4.2190   -1.7790    1.0890 N   0  0  0  0  0  0  0  0  0  0  0  0
   -4.1820   -2.6380   -0.1060 C   0  0  0  0  0  0  0  0  0  0  0  0
   -5.2700   -2.2400   -1.0430 C   0  0  0  0  0  0  0  0  0  0  0  0
   -5.3960   -0.8750   -1.0260 O   0  0  0  0  0  0  0  0  0  0  0  0
   -4.6130   -0.3340   -2.0380 C   0  0  0  0  0  0  0  0  0  0  0  0
   -4.4630    1.1840   -1.9180 C   0  0  2  0  0  0  0  0  0  0  0  0
   -3.0850    1.6070   -1.5850 C   0  0  0  0  0  0  0  0  0  0  0  0
   -2.7070    1.8530   -0.2110 C   0  0  0  0  0  0  0  0  0  0  0  0
   -2.8880    3.0020    0.2600 O   0  0  0  0  0  0  0  0  0  0  0  0
   -2.1650    0.9290    0.6180 O   0  0  0  0  0  0  0  0  0  0  0  0
   -2.0700   -0.4350    0.6450 C   0  0  1  0  0  0  0  0  0  0  0  0
   -0.7010   -0.7720    1.2590 C   0  0  0  0  0  0  0  0  0  0  0  0
    0.3360   -0.2080    0.4480 O   0  0  0  0  0  0  0  0  0  0  0  0
    1.6740   -0.3590    0.7740 C   0  0  0  0  0  0  0  0  0  0  0  0
    1.9250   -1.0170    1.8220 O   0  0  0  0  0  0  0  0  0  0  0  0
    2.7390    0.1640    0.0270 N   0  0  0  0  0  0  0  0  0  0  0  0
    4.1180    0.0030    0.3740 C   0  0  0  0  0  0  0  0  0  0  0  0
    4.3740   -0.6440    1.4130 O   0  0  0  0  0  0  0  0  0  0  0  0
    5.1570    0.5100   -0.3530 O   0  0  0  0  0  0  0  0  0  0  0  0
    6.5250    0.3690   -0.0370 C   0  0  2  0  0  0  0  0  0  0  0  0
    6.8510    0.9770    1.3290 C   0  0  0  0  0  0  0  0  0  0  0  0
    6.5580    2.3200    1.3700 O   0  0  0  0  0  0  0  0  0  0  0  0
    7.2860    1.2280   -1.0520 C   0  0  0  0  0  0  0  0  0  0  0  0
    8.6700    1.1270   -0.7830 O   0  0  0  0  0  0  0  0  0  0  0  0
    9.3450    1.8520   -1.6360 O   0  0  0  0  0  0  0  0  0  0  0  0
    9.3550    3.1180   -1.2450 O   0  0  0  0  0  0  0  0  0  0  0  0
    6.9350   -1.0640   -0.1180 C   0  0  0  0  0  0  0  0  0  0  0  0
    6.7060   -1.5060   -1.4170 O   0  0  0  0  0  0  0  0  0  0  0  0
    7.0570   -2.7790   -1.5390 O   0  0  0  0  0  0  0  0  0  0  0  0
    6.6550   -3.4370   -0.4700 O   0  0  0  0  0  0  0  0  0  0  0  0
   -3.0600   -1.1080    1.5390 C   0  0  0  0  0  0  0  0  0  0  0  0
   -2.8420   -1.0720    2.7990 O   0  0  0  0  0  0  0  0  0  0  0  0
   -5.5570    1.8150   -1.2550 N   0  0  0  0  0  0  0  0  0  0  0  0
  1  2  2  0
  2  3  1  0
  2 39  1  0
  3  4  1  0
  4  5  1  0
  5  6  1  0
  6  7  1  0
  7  8  1  0
  7 37  1  0
  8  9  1  0
  9 10  1  0
 10 11  1  0
 11 12  1  0
 12 13  1  1
 12 39  1  0
 13 14  1  0
 14 15  2  0
 14 16  1  0
 16 17  1  0
 17 18  1  1
 17 37  1  0
 18 19  1  0
 19 20  1  0
 20 21  2  0
 20 22  1  0
 22 23  1  0
 23 24  2  0
 23 25  1  0
 25 26  1  0
 26 27  1  1
 26 29  1  0
 26 33  1  0
 27 28  1  0
 29 30  1  0
 30 31  1  0
 31 32  1  0
 33 34  1  0
 34 35  1  0
 35 36  1  0
 37 38  2  0
M  END
