
     RDKit          3D

 30 31  0  0  0  0  0  0  0  0999 V2000
    7.2120   -2.0330   -0.2800 C   0  0  0  0  0  0  0  0  0  0  0  0
    6.8770   -2.4580   -1.6890 C   0  0  0  0  0  0  0  0  0  0  0  0
    6.5220   -1.3030   -2.4230 O   0  0  0  0  0  0  0  0  0  0  0  0
    5.4650   -0.4830   -2.1140 C   0  0  0  0  0  0  0  0  0  0  0  0
    4.7610   -0.7720   -1.1180 O   0  0  0  0  0  0  0  0  0  0  0  0
    5.1060    0.6780   -2.8480 N   0  0  0  0  0  0  0  0  0  0  0  0
    3.9610    1.5020   -2.4550 C   0  0  0  0  0  0  0  0  0  0  0  0
    4.2400    1.9810   -1.0750 C   0  0  0  0  0  0  0  0  0  0  0  0
    3.4710    1.7150   -0.0470 C   0  0  0  0  0  0  0  0  0  0  0  0
    2.2230    0.9240   -0.0300 C   0  0  0  0  0  0  0  0  0  0  0  0
    1.0760    1.7530    0.4760 C   0  0  0  0  0  0  0  0  0  0  0  0
    1.2590    2.9280    0.8430 O   0  0  0  0  0  0  0  0  0  0  0  0
   -0.1930    1.0810    0.4930 N   0  0  0  0  0  0  0  0  0  0  0  0
   -1.3120    1.8220    0.9680 C   0  0  0  0  0  0  0  0  0  0  0  0
   -2.5820    1.0730    0.9500 C   0  0  0  0  0  0  0  0  0  0  0  0
   -2.7790   -0.2080    0.5240 C   0  0  0  0  0  0  0  0  0  0  0  0
   -4.0320   -0.7970    0.5510 C   0  0  0  0  0  0  0  0  0  0  0  0
   -4.2290   -2.0930    0.1170 C   0  0  0  0  0  0  0  0  0  0  0  0
   -5.5020   -2.6780    0.1480 C   0  0  0  0  0  0  0  0  0  0  0  0
   -5.6470   -3.9690   -0.2950 O   0  0  0  0  0  0  0  0  0  0  0  0
   -6.8270   -4.7160   -0.3380 C   0  0  0  0  0  0  0  0  0  0  0  0
   -6.5530   -1.9400    0.6170 C   0  0  0  0  0  0  0  0  0  0  0  0
   -6.4050   -0.6380    1.0630 C   0  0  0  0  0  0  0  0  0  0  0  0
   -7.5890    0.1140    1.5610 C   0  0  0  0  0  0  0  0  0  0  0  0
   -5.1440   -0.1130    1.0140 C   0  0  0  0  0  0  0  0  0  0  0  0
   -4.9360    1.1490    1.4310 N   0  0  0  0  0  0  0  0  0  0  0  0
   -3.7310    1.7430    1.4140 C   0  0  0  0  0  0  0  0  0  0  0  0
   -3.6070    2.9240    1.8180 O   0  0  0  0  0  0  0  0  0  0  0  0
    5.7200    2.9910   -0.7650 S   0  0  0  0  0  0  0  0  0  0  0  0
    5.8390    3.4360    0.9680 C   0  0  0  0  0  0  0  0  0  0  0  0
  1  2  1  0
  2  3  1  0
  3  4  1  0
  4  5  2  0
  4  6  1  0
  6  7  1  0
  7  8  1  0
  8  9  2  3
  8 29  1  0
  9 10  1  0
 10 11  1  0
 11 12  2  0
 11 13  1  0
 13 14  1  0
 14 15  1  0
 15 16  2  0
 15 27  1  0
 16 17  1  0
 17 18  2  0
 17 25  1  0
 18 19  1  0
 19 20  1  0
 19 22  2  0
 20 21  1  0
 22 23  1  0
 23 24  1  0
 23 25  2  0
 25 26  1  0
 26 27  1  0
 27 28  2  0
 29 30  1  0
M  END
