
     RDKit          3D

 30 31  0  0  0  0  0  0  0  0999 V2000
    9.6330    1.0150    0.6810 C   0  0  0  0  0  0  0  0  0  0  0  0
    9.0550   -0.3500    1.0420 C   0  0  0  0  0  0  0  0  0  0  0  0
    7.6280   -0.3550    0.7850 C   0  0  0  0  0  0  0  0  0  0  0  0
    6.6380    0.9940    0.1410 S   0  0  0  0  0  0  0  0  0  0  0  0
    5.0980    0.2040    0.1320 C   0  0  0  0  0  0  0  0  0  0  0  0
    3.8230    0.7460   -0.2870 C   0  0  0  0  0  0  0  0  0  0  0  0
    3.7310    1.9330   -0.7110 O   0  0  0  0  0  0  0  0  0  0  0  0
    2.6840   -0.0410   -0.2240 N   0  0  0  0  0  0  0  0  0  0  0  0
    1.3590    0.2970   -0.5860 C   0  0  0  0  0  0  0  0  0  0  0  0
    0.3150   -0.5830   -0.2830 C   0  0  0  0  0  0  0  0  0  0  0  0
   -0.9990   -0.2980   -0.6270 C   0  0  0  0  0  0  0  0  0  0  0  0
   -1.3710    0.8430   -1.2750 C   0  0  0  0  0  0  0  0  0  0  0  0
   -2.6880    1.1950   -1.6540 N   0  0  0  0  0  0  0  0  0  0  0  0
   -3.8400    0.4270   -1.4270 C   0  0  0  0  0  0  0  0  0  0  0  0
   -3.7970   -0.6660   -0.8550 O   0  0  0  0  0  0  0  0  0  0  0  0
   -5.1430    0.8660   -1.8480 N   0  0  0  0  0  0  0  0  0  0  0  0
   -6.3110    0.0450   -1.5970 C   0  0  0  0  0  0  0  0  0  0  0  0
   -6.5050   -0.1900   -0.1430 C   0  0  0  0  0  0  0  0  0  0  0  0
   -5.7430    0.2710    0.7400 O   0  0  0  0  0  0  0  0  0  0  0  0
   -7.5830   -0.9600    0.2530 O   0  0  0  0  0  0  0  0  0  0  0  0
   -7.8040   -1.2100    1.6490 C   0  0  1  0  0  0  0  0  0  0  0  0
   -9.1920   -0.6940    1.9620 C   0  0  0  0  0  0  0  0  0  0  0  0
   -7.7280   -2.7200    1.8210 C   0  0  0  0  0  0  0  0  0  0  0  0
   -0.3250    1.7250   -1.5780 C   0  0  0  0  0  0  0  0  0  0  0  0
   -0.6450    2.8890   -2.2320 O   0  0  0  0  0  0  0  0  0  0  0  0
    0.2650    3.8760   -2.6100 C   0  0  0  0  0  0  0  0  0  0  0  0
    0.9800    1.4400   -1.2370 C   0  0  0  0  0  0  0  0  0  0  0  0
    5.4060   -1.0900    0.6320 C   0  0  0  0  0  0  0  0  0  0  0  0
    6.6700   -1.3310    0.9450 C   0  0  0  0  0  0  0  0  0  0  0  0
    7.1310   -2.6830    1.4930 C   0  0  0  0  0  0  0  0  0  0  0  0
  1  2  1  0
  2  3  1  0
  3  4  1  0
  3 29  2  0
  4  5  1  0
  5  6  1  0
  5 28  2  0
  6  7  2  0
  6  8  1  0
  8  9  1  0
  9 10  2  0
  9 27  1  0
 10 11  1  0
 11 12  2  0
 12 13  1  0
 12 24  1  0
 13 14  1  0
 14 15  2  0
 14 16  1  0
 16 17  1  0
 17 18  1  0
 18 19  2  0
 18 20  1  0
 20 21  1  0
 21 22  1  6
 21 23  1  0
 24 25  1  0
 24 27  2  0
 25 26  1  0
 28 29  1  0
 29 30  1  0
M  END
