
     RDKit          3D

 30 31  0  0  0  0  0  0  0  0999 V2000
    4.3930    3.5030   -1.5000 C   0  0  0  0  0  0  0  0  0  0  0  0
    5.2550    2.2440   -0.5640 S   0  0  0  0  0  0  0  0  0  0  0  0
    4.6760    2.0390    1.1220 C   0  0  0  0  0  0  0  0  0  0  0  0
    3.3420    1.5190    1.2210 N   0  0  0  0  0  0  0  0  0  0  0  0
    3.0250    0.2290    0.7340 C   0  0  0  0  0  0  0  0  0  0  0  0
    4.0330   -0.5350    0.1950 C   0  0  0  0  0  0  0  0  0  0  0  0
    3.7290   -1.7970   -0.2820 C   0  0  0  0  0  0  0  0  0  0  0  0
    2.4420   -2.2590   -0.2100 C   0  0  0  0  0  0  0  0  0  0  0  0
    1.3990   -1.5260    0.3230 C   0  0  0  0  0  0  0  0  0  0  0  0
    0.0390   -2.0370    0.4030 C   0  0  0  0  0  0  0  0  0  0  0  0
   -0.9760   -1.5090   -0.3280 C   0  0  0  0  0  0  0  0  0  0  0  0
   -0.8950   -0.4330   -1.2830 C   0  0  0  0  0  0  0  0  0  0  0  0
   -1.7120    0.7770   -1.0020 C   0  0  0  0  0  0  0  0  0  0  0  0
   -1.6690    1.7350   -1.8020 O   0  0  0  0  0  0  0  0  0  0  0  0
   -2.5100    0.8710    0.1050 O   0  0  0  0  0  0  0  0  0  0  0  0
   -3.3170    1.9520    0.4580 C   0  0  2  0  0  0  0  0  0  0  0  0
   -4.0020    1.5790    1.7690 C   0  0  0  0  0  0  0  0  0  0  0  0
   -4.4190    2.2100   -0.5540 C   0  0  0  0  0  0  0  0  0  0  0  0
   -2.5660    3.2540    0.5990 C   0  0  0  0  0  0  0  0  0  0  0  0
   -0.1800   -0.4320   -2.3760 C   0  0  0  0  0  0  0  0  0  0  0  0
    0.6820   -1.5520   -2.8450 C   0  0  0  0  0  0  0  0  0  0  0  0
   -0.2280    0.7350   -3.1900 O   0  0  0  0  0  0  0  0  0  0  0  0
   -2.2330   -2.0530   -0.1660 N   0  0  0  0  0  0  0  0  0  0  0  0
   -2.4570   -3.0660    0.6770 C   0  0  0  0  0  0  0  0  0  0  0  0
   -3.6250   -3.5600    0.8180 O   0  0  0  0  0  0  0  0  0  0  0  0
   -1.4750   -3.6180    1.4210 N   0  0  0  0  0  0  0  0  0  0  0  0
   -1.7870   -4.7140    2.3160 C   0  0  0  0  0  0  0  0  0  0  0  0
   -0.2580   -3.0950    1.2680 C   0  0  0  0  0  0  0  0  0  0  0  0
    0.6980   -3.5590    1.9250 O   0  0  0  0  0  0  0  0  0  0  0  0
    1.7290   -0.2720    0.7910 C   0  0  0  0  0  0  0  0  0  0  0  0
  1  2  1  0
  2  3  1  0
  3  4  1  0
  4  5  1  0
  5  6  2  0
  5 30  1  0
  6  7  1  0
  7  8  2  0
  8  9  1  0
  9 10  1  0
  9 30  2  0
 10 11  2  0
 10 28  1  0
 11 12  1  0
 11 23  1  0
 12 13  1  0
 12 20  2  3
 13 14  2  0
 13 15  1  0
 15 16  1  0
 16 17  1  1
 16 18  1  0
 16 19  1  0
 20 21  1  0
 20 22  1  0
 23 24  1  0
 24 25  2  0
 24 26  1  0
 26 27  1  0
 26 28  1  0
 28 29  2  0
M  END
