
     RDKit          3D

 30 31  0  0  0  0  0  0  0  0999 V2000
   -6.2300    4.2320    1.6630 C   0  0  0  0  0  0  0  0  0  0  0  0
   -6.1980    3.0930    0.6630 C   0  0  0  0  0  0  0  0  0  0  0  0
   -5.1450    2.2310    1.0480 O   0  0  0  0  0  0  0  0  0  0  0  0
   -4.8260    1.0880    0.3630 C   0  0  0  0  0  0  0  0  0  0  0  0
   -5.4990    0.6610   -0.7720 C   0  0  0  0  0  0  0  0  0  0  0  0
   -5.1990   -0.4780   -1.4730 C   0  0  0  0  0  0  0  0  0  0  0  0
   -4.1570   -1.2520   -1.0180 C   0  0  0  0  0  0  0  0  0  0  0  0
   -3.4540   -0.8500    0.1190 C   0  0  0  0  0  0  0  0  0  0  0  0
   -3.7960    0.3010    0.7890 C   0  0  0  0  0  0  0  0  0  0  0  0
   -2.3060   -1.6920    0.5380 C   0  0  0  0  0  0  0  0  0  0  0  0
   -1.1730   -1.1200    0.8530 C   0  0  0  0  0  0  0  0  0  0  0  0
   -0.9620    0.3860    0.7930 C   0  0  0  0  0  0  0  0  0  0  0  0
    0.2180    0.7380   -0.0020 N   0  0  0  0  0  0  0  0  0  0  0  0
    1.5270    0.4500    0.4240 C   0  0  0  0  0  0  0  0  0  0  0  0
    1.8500   -0.0740    1.5030 O   0  0  0  0  0  0  0  0  0  0  0  0
    2.6640    0.7680   -0.4240 N   0  0  0  0  0  0  0  0  0  0  0  0
    4.0160    0.4900   -0.0230 C   0  0  2  0  0  0  0  0  0  0  0  0
    4.1060   -1.0210    0.2030 C   0  0  0  0  0  0  0  0  0  0  0  0
    4.3860    1.1510    1.2800 C   0  0  0  0  0  0  0  0  0  0  0  0
    4.9420    0.8230   -1.1390 C   0  0  0  0  0  0  0  0  0  0  0  0
    6.3590    0.6040   -0.8900 C   0  0  0  0  0  0  0  0  0  0  0  0
    6.7930    0.1770    0.2010 O   0  0  0  0  0  0  0  0  0  0  0  0
    7.2690    0.8760   -1.8940 O   0  0  0  0  0  0  0  0  0  0  0  0
    8.6510    0.7060   -1.7750 C   0  0  0  0  0  0  0  0  0  0  0  0
    0.2130   -2.0060    1.4350 S   0  0  0  0  0  0  0  0  0  0  0  0
    0.3790   -3.6940    0.9450 C   0  0  0  0  0  0  0  0  0  0  0  0
   -2.6120   -3.1520    0.4250 C   0  0  0  0  0  0  0  0  0  0  0  0
   -2.8120   -3.3350   -1.0590 C   0  0  0  0  0  0  0  0  0  0  0  0
   -2.1650   -4.1220   -1.7480 O   0  0  0  0  0  0  0  0  0  0  0  0
   -3.8400   -2.5030   -1.6230 N   0  0  0  0  0  0  0  0  0  0  0  0
  1  2  1  0
  2  3  1  0
  3  4  1  0
  4  5  2  0
  4  9  1  0
  5  6  1  0
  6  7  2  0
  7  8  1  0
  7 30  1  0
  8  9  2  0
  8 10  1  0
 10 11  2  3
 10 27  1  0
 11 12  1  0
 11 25  1  0
 12 13  1  0
 13 14  1  0
 14 15  2  0
 14 16  1  0
 16 17  1  0
 17 18  1  1
 17 19  1  0
 17 20  1  0
 20 21  1  0
 21 22  2  0
 21 23  1  0
 23 24  1  0
 25 26  1  0
 27 28  1  0
 28 29  2  0
 28 30  1  0
M  END
