
     RDKit          3D

 30 31  0  0  0  0  0  0  0  0999 V2000
    6.1920    4.4800   -0.1930 C   0  0  0  0  0  0  0  0  0  0  0  0
    5.2040    4.3500    0.9210 C   0  0  0  0  0  0  0  0  0  0  0  0
    4.2180    3.3740    0.7010 O   0  0  0  0  0  0  0  0  0  0  0  0
    4.4920    2.0630    0.5100 C   0  0  0  0  0  0  0  0  0  0  0  0
    5.7240    1.7190    0.5360 O   0  0  0  0  0  0  0  0  0  0  0  0
    3.4820    1.0240    0.2810 C   0  0  0  0  0  0  0  0  0  0  0  0
    3.8470   -0.6580    0.0770 S   0  0  0  0  0  0  0  0  0  0  0  0
    2.1380   -1.1970   -0.1100 C   0  0  0  0  0  0  0  0  0  0  0  0
    1.7990   -2.5860   -0.3140 N   0  0  0  0  0  0  0  0  0  0  0  0
    2.8590   -3.5560   -0.3810 C   0  0  0  0  0  0  0  0  0  0  0  0
    4.0430   -3.1900   -0.2630 O   0  0  0  0  0  0  0  0  0  0  0  0
    2.5420   -4.9700   -0.5880 C   0  0  0  0  0  0  0  0  0  0  0  0
    3.5950   -5.8290   -0.6170 O   0  0  0  0  0  0  0  0  0  0  0  0
    4.3730   -5.9230    0.5000 C   0  0  0  0  0  0  0  0  0  0  0  0
    1.4180   -0.0560   -0.0020 C   0  0  0  0  0  0  0  0  0  0  0  0
   -0.0640   -0.1880   -0.1460 C   0  0  0  0  0  0  0  0  0  0  0  0
   -0.5310   -1.3040   -0.5540 O   0  0  0  0  0  0  0  0  0  0  0  0
   -0.9810    0.8120    0.1400 N   0  0  0  0  0  0  0  0  0  0  0  0
   -2.3990    0.5970   -0.0370 C   0  0  0  0  0  0  0  0  0  0  0  0
   -3.0260   -0.6040    0.0260 C   0  0  0  0  0  0  0  0  0  0  0  0
   -4.4090   -0.7320   -0.1910 C   0  0  0  0  0  0  0  0  0  0  0  0
   -5.0430   -2.0530   -0.1140 C   0  0  0  0  0  0  0  0  0  0  0  0
   -5.5020   -2.3180    1.3070 C   0  0  0  0  0  0  0  0  0  0  0  0
   -5.1010    0.4150   -0.4700 C   0  0  0  0  0  0  0  0  0  0  0  0
   -4.5180    1.6670   -0.5460 C   0  0  0  0  0  0  0  0  0  0  0  0
   -5.2580    2.8360   -0.8360 N   0  0  0  0  0  0  0  0  0  0  0  0
   -6.6790    2.7880   -1.0700 C   0  0  0  0  0  0  0  0  0  0  0  0
   -3.1640    1.7350   -0.3260 C   0  0  0  0  0  0  0  0  0  0  0  0
    2.0920    1.0950    0.1950 C   0  0  0  0  0  0  0  0  0  0  0  0
    1.4900    2.5030    0.2190 C   0  0  0  0  0  0  0  0  0  0  0  0
  1  2  1  0
  2  3  1  0
  3  4  1  0
  4  5  2  0
  4  6  1  0
  6  7  1  0
  6 29  2  0
  7  8  1  0
  8  9  1  0
  8 15  2  0
  9 10  1  0
 10 11  2  0
 10 12  1  0
 12 13  1  0
 13 14  1  0
 15 16  1  0
 15 29  1  0
 16 17  2  0
 16 18  1  0
 18 19  1  0
 19 20  2  0
 19 28  1  0
 20 21  1  0
 21 22  1  0
 21 24  2  0
 22 23  1  0
 24 25  1  0
 25 26  1  0
 25 28  2  0
 26 27  1  0
 29 30  1  0
M  END
