
     RDKit          3D

 16 18  0  0  0  0  0  0  0  0999 V2000
   -4.6180    0.3410   -0.0620 C   0  0  0  0  0  0  0  0  0  0  0  0
   -4.4450   -1.0200   -0.2160 C   0  0  0  0  0  0  0  0  0  0  0  0
   -3.1990   -1.5170   -0.2000 N   0  0  0  0  0  0  0  0  0  0  0  0
   -2.0940   -0.7270   -0.0390 C   0  0  0  0  0  0  0  0  0  0  0  0
   -0.8790   -1.2740   -0.0310 N   0  0  0  0  0  0  0  0  0  0  0  0
    0.2130   -0.4970    0.1280 C   0  0  0  0  0  0  0  0  0  0  0  0
    1.4650   -1.1300    0.1280 N   0  0  0  0  0  0  0  0  0  0  0  0
    2.7090   -0.5010    0.2790 C   0  0  0  0  0  0  0  0  0  0  0  0
    3.0370    0.7890    0.4540 N   0  0  0  0  0  0  0  0  0  0  0  0
    4.3710    0.8930    0.5470 C   0  0  0  0  0  0  0  0  0  0  0  0
    4.9200   -0.3650    0.4280 C   0  0  0  0  0  0  0  0  0  0  0  0
    3.8870   -1.2010    0.2650 N   0  0  0  0  0  0  0  0  0  0  0  0
    0.1030    0.8560    0.2850 C   0  0  0  0  0  0  0  0  0  0  0  0
   -1.1600    1.4520    0.2800 C   0  0  0  0  0  0  0  0  0  0  0  0
   -2.2430    0.6220    0.1150 C   0  0  0  0  0  0  0  0  0  0  0  0
   -3.5200    1.1710    0.1040 C   0  0  0  0  0  0  0  0  0  0  0  0
  1  2  2  0
  1 16  1  0
  2  3  1  0
  3  4  2  0
  4  5  1  0
  4 15  1  0
  5  6  2  0
  6  7  1  0
  6 13  1  0
  7  8  1  0
  8  9  2  0
  8 12  1  0
  9 10  1  0
 10 11  2  0
 11 12  1  0
 13 14  2  0
 14 15  1  0
 15 16  2  0
M  END
