
     RDKit          3D

 17 19  0  0  0  0  0  0  0  0999 V2000
   -4.5110   -1.9830   -0.0560 F   0  0  0  0  0  0  0  0  0  0  0  0
   -3.9060   -0.7510    0.0230 C   0  0  0  0  0  0  0  0  0  0  0  0
   -4.7080    0.3640    0.1260 C   0  0  0  0  0  0  0  0  0  0  0  0
   -4.1190    1.5700    0.2040 N   0  0  0  0  0  0  0  0  0  0  0  0
   -2.7950    1.6610    0.1800 C   0  0  0  0  0  0  0  0  0  0  0  0
   -1.9210    0.5690    0.0780 C   0  0  0  0  0  0  0  0  0  0  0  0
   -0.5250    0.7760    0.0620 N   0  0  0  0  0  0  0  0  0  0  0  0
    0.4120   -0.2720   -0.0390 C   0  0  0  0  0  0  0  0  0  0  0  0
    0.3000   -1.5970   -0.1360 N   0  0  0  0  0  0  0  0  0  0  0  0
    1.4670   -2.2060   -0.2090 N   0  0  0  0  0  0  0  0  0  0  0  0
    2.4540   -1.2740   -0.1610 C   0  0  0  0  0  0  0  0  0  0  0  0
    3.8060   -1.3670   -0.1990 N   0  0  0  0  0  0  0  0  0  0  0  0
    4.5740   -0.2700   -0.1330 C   0  0  0  0  0  0  0  0  0  0  0  0
    3.9460    0.9510   -0.0270 C   0  0  0  0  0  0  0  0  0  0  0  0
    2.5780    1.0690    0.0130 C   0  0  0  0  0  0  0  0  0  0  0  0
    1.8090   -0.0700   -0.0550 C   0  0  0  0  0  0  0  0  0  0  0  0
   -2.5190   -0.6620   -0.0020 C   0  0  0  0  0  0  0  0  0  0  0  0
  1  2  1  0
  2  3  2  0
  2 17  1  0
  3  4  1  0
  4  5  2  0
  5  6  1  0
  6  7  1  0
  6 17  2  0
  7  8  1  0
  8  9  2  0
  8 16  1  0
  9 10  1  0
 10 11  1  0
 11 12  2  0
 11 16  1  0
 12 13  1  0
 13 14  2  0
 14 15  1  0
 15 16  2  0
M  END
