
     RDKit          3D

 16 18  0  0  0  0  0  0  0  0999 V2000
    4.4020    0.9030    1.0090 C   0  0  0  0  0  0  0  0  0  0  0  0
    3.8040    0.4210   -0.1350 C   0  0  0  0  0  0  0  0  0  0  0  0
    2.9130   -0.5460    0.2350 C   0  0  0  0  0  0  0  0  0  0  0  0
    2.0390   -1.3480   -0.6240 C   0  0  0  0  0  0  0  0  0  0  0  0
    0.7490   -0.6740   -0.8090 N   0  0  0  0  0  0  0  0  0  0  0  0
    0.4420    0.1960   -1.7780 C   0  0  0  0  0  0  0  0  0  0  0  0
   -0.8430    0.6380   -1.6630 C   0  0  0  0  0  0  0  0  0  0  0  0
   -1.3780   -0.0040   -0.5400 C   0  0  0  0  0  0  0  0  0  0  0  0
   -2.7280    0.1500   -0.0150 C   0  0  0  0  0  0  0  0  0  0  0  0
   -3.7180    0.9510   -0.5260 C   0  0  0  0  0  0  0  0  0  0  0  0
   -4.8650    0.8130    0.2680 C   0  0  0  0  0  0  0  0  0  0  0  0
   -4.5110   -0.0710    1.2290 N   0  0  0  0  0  0  0  0  0  0  0  0
   -3.2440   -0.4550    1.0500 N   0  0  0  0  0  0  0  0  0  0  0  0
   -0.3550   -0.7930   -0.0620 C   0  0  0  0  0  0  0  0  0  0  0  0
    2.9690   -0.6480    1.5690 N   0  0  0  0  0  0  0  0  0  0  0  0
    3.8510    0.2120    2.0140 N   0  0  0  0  0  0  0  0  0  0  0  0
  1  2  1  0
  1 16  2  0
  2  3  2  0
  3  4  1  0
  3 15  1  0
  4  5  1  0
  5  6  1  0
  5 14  1  0
  6  7  2  0
  7  8  1  0
  8  9  1  0
  8 14  2  0
  9 10  1  0
  9 13  2  0
 10 11  2  0
 11 12  1  0
 12 13  1  0
 15 16  1  0
M  END
