
     RDKit          3D

 17 19  0  0  0  0  0  0  0  0999 V2000
   -3.2330   -2.7570    1.1150 F   0  0  0  0  0  0  0  0  0  0  0  0
   -3.2750   -1.4220    0.8100 C   0  0  0  0  0  0  0  0  0  0  0  0
   -4.4640   -0.8010    0.8610 N   0  0  0  0  0  0  0  0  0  0  0  0
   -4.5970    0.5060    0.5780 C   0  0  0  0  0  0  0  0  0  0  0  0
   -3.4820    1.2000    0.2330 C   0  0  0  0  0  0  0  0  0  0  0  0
   -2.2250    0.5740    0.1730 C   0  0  0  0  0  0  0  0  0  0  0  0
   -2.0970   -0.7510    0.4610 C   0  0  0  0  0  0  0  0  0  0  0  0
   -0.9080   -1.5010    0.4400 N   0  0  0  0  0  0  0  0  0  0  0  0
    0.3900   -1.0320    0.1180 C   0  0  0  0  0  0  0  0  0  0  0  0
    1.4450   -1.8990    0.1460 N   0  0  0  0  0  0  0  0  0  0  0  0
    2.7000   -1.5320   -0.1450 C   0  0  0  0  0  0  0  0  0  0  0  0
    2.9970   -0.2330   -0.4970 C   0  0  0  0  0  0  0  0  0  0  0  0
    4.1720    0.4250   -0.8430 C   0  0  0  0  0  0  0  0  0  0  0  0
    3.7960    1.7290   -1.0850 C   0  0  0  0  0  0  0  0  0  0  0  0
    2.4710    1.8370   -0.8920 N   0  0  0  0  0  0  0  0  0  0  0  0
    1.9390    0.6520   -0.5290 C   0  0  0  0  0  0  0  0  0  0  0  0
    0.7020    0.2220   -0.2260 N   0  0  0  0  0  0  0  0  0  0  0  0
  1  2  1  0
  2  3  2  0
  2  7  1  0
  3  4  1  0
  4  5  2  0
  5  6  1  0
  6  7  2  0
  7  8  1  0
  8  9  1  0
  9 10  2  0
  9 17  1  0
 10 11  1  0
 11 12  2  0
 12 13  1  0
 12 16  1  0
 13 14  2  0
 14 15  1  0
 15 16  1  0
 16 17  2  0
M  END
