
     RDKit          3D

 17 19  0  0  0  0  0  0  0  0999 V2000
   -5.0060   -0.5430   -0.2910 F   0  0  0  0  0  0  0  0  0  0  0  0
   -3.7090   -0.1480   -0.1550 C   0  0  1  0  0  0  0  0  0  0  0  0
   -3.3580   -0.0210    1.3330 C   0  0  0  0  0  0  0  0  0  0  0  0
   -2.0180    0.6790    1.3360 C   0  0  0  0  0  0  0  0  0  0  0  0
   -0.9920   -0.2520    0.8090 C   0  0  2  0  0  0  0  0  0  0  0  0
    0.2350    0.4840    0.5960 N   0  0  0  0  0  0  0  0  0  0  0  0
    1.3990   -0.1620    0.0920 C   0  0  0  0  0  0  0  0  0  0  0  0
    1.4590   -1.4640   -0.2210 N   0  0  0  0  0  0  0  0  0  0  0  0
    2.6810   -1.7710   -0.6670 N   0  0  0  0  0  0  0  0  0  0  0  0
    3.4660   -0.6820   -0.6640 C   0  0  0  0  0  0  0  0  0  0  0  0
    4.7510   -0.4240   -1.0020 N   0  0  0  0  0  0  0  0  0  0  0  0
    5.2220    0.8070   -0.8700 N   0  0  0  0  0  0  0  0  0  0  0  0
    4.4910    1.8420   -0.4110 C   0  0  0  0  0  0  0  0  0  0  0  0
    3.1550    1.6540   -0.0410 C   0  0  0  0  0  0  0  0  0  0  0  0
    2.6120    0.3930   -0.1580 C   0  0  0  0  0  0  0  0  0  0  0  0
   -1.3460   -0.9660   -0.4480 C   0  0  0  0  0  0  0  0  0  0  0  0
   -2.7750   -1.1390   -0.7450 C   0  0  0  0  0  0  0  0  0  0  0  0
  2  1  1  1
  2  3  1  0
  2 17  1  0
  3  4  1  0
  4  5  1  0
  5  6  1  6
  5 16  1  0
  6  7  1  0
  7  8  2  0
  7 15  1  0
  8  9  1  0
  9 10  2  0
 10 11  1  0
 10 15  1  0
 11 12  1  0
 12 13  2  0
 13 14  1  0
 14 15  2  0
 16 17  1  0
M  END
