
     RDKit          3D

 33 36  0  0  0  0  0  0  0  0999 V2000
    2.8270    0.1900   -0.9620 O   0  0  0  0  0  0  0  0  0  0  0  0
    2.6630    0.0960    0.2800 C   0  0  0  0  0  0  0  0  0  0  0  0
    3.6100   -0.6110    1.0350 N   0  0  0  0  0  0  0  0  0  0  0  0
    4.7650   -1.2540    0.6830 N   0  0  0  0  0  0  0  0  0  0  0  0
    5.2540   -1.5330   -0.6120 C   0  0  0  0  0  0  0  0  0  0  0  0
    4.6090   -1.1900   -1.6090 O   0  0  0  0  0  0  0  0  0  0  0  0
    6.5530   -2.2360   -0.7780 C   0  0  0  0  0  0  0  0  0  0  0  0
    7.2570   -2.8300    0.1350 O   0  0  0  0  0  0  0  0  0  0  0  0
    8.3580   -3.3340   -0.4050 C   0  0  0  0  0  0  0  0  0  0  0  0
    8.3870   -3.0580   -1.7630 C   0  0  0  0  0  0  0  0  0  0  0  0
    7.1970   -2.3410   -1.9790 C   0  0  0  0  0  0  0  0  0  0  0  0
    6.7230   -1.7330   -3.5470 Cl  0  0  0  0  0  0  0  0  0  0  0  0
    1.4850    0.7370    0.9120 C   0  0  0  0  0  0  0  0  0  0  0  0
    1.3040    0.5930    2.1700 O   0  0  0  0  0  0  0  0  0  0  0  0
    0.6090    1.4890    0.1090 N   0  0  0  0  0  0  0  0  0  0  0  0
   -0.5550    2.1600    0.7200 C   0  0  2  0  0  0  0  0  0  0  0  0
   -1.7500    2.1550   -0.1610 C   0  0  0  0  0  0  0  0  0  0  0  0
   -2.3050    0.8430   -0.5730 C   0  0  0  0  0  0  0  0  0  0  0  0
   -2.7270   -0.0290    0.5850 C   0  0  0  0  0  0  0  0  0  0  0  0
   -3.3310   -1.2670    0.1090 N   0  0  0  0  0  0  0  0  0  0  0  0
   -2.7420   -2.4200   -0.2150 C   0  0  0  0  0  0  0  0  0  0  0  0
   -3.7070   -3.3440   -0.6390 C   0  0  0  0  0  0  0  0  0  0  0  0
   -4.9270   -2.6850   -0.5570 C   0  0  0  0  0  0  0  0  0  0  0  0
   -6.2290   -3.0840   -0.8360 C   0  0  0  0  0  0  0  0  0  0  0  0
   -7.2570   -2.1900   -0.6430 C   0  0  0  0  0  0  0  0  0  0  0  0
   -7.0080   -0.9230   -0.1860 C   0  0  0  0  0  0  0  0  0  0  0  0
   -5.6930   -0.5530    0.0850 C   0  0  0  0  0  0  0  0  0  0  0  0
   -4.6640   -1.4310   -0.1010 C   0  0  0  0  0  0  0  0  0  0  0  0
   -0.1690    3.6160    0.8690 C   0  0  0  0  0  0  0  0  0  0  0  0
   -0.2280    4.4690    1.8910 C   0  0  0  0  0  0  0  0  0  0  0  0
    0.1810    5.7310    1.7590 C   0  0  0  0  0  0  0  0  0  0  0  0
    0.6710    6.0850    0.4790 C   0  0  0  0  0  0  0  0  0  0  0  0
    0.5070    4.5840   -0.4330 S   0  0  0  0  0  0  0  0  0  0  0  0
  1  2  2  0
  2  3  1  0
  2 13  1  0
  3  4  1  0
  4  5  1  0
  5  6  2  0
  5  7  1  0
  7  8  1  0
  7 11  2  0
  8  9  1  0
  9 10  2  0
 10 11  1  0
 11 12  1  0
 13 14  2  0
 13 15  1  0
 15 16  1  0
 16 17  1  6
 16 29  1  0
 17 18  1  0
 18 19  1  0
 19 20  1  0
 20 21  1  0
 20 28  1  0
 21 22  2  0
 22 23  1  0
 23 24  2  0
 23 28  1  0
 24 25  1  0
 25 26  2  0
 26 27  1  0
 27 28  2  0
 29 30  2  0
 29 33  1  0
 30 31  1  0
 31 32  2  0
 32 33  1  0
M  END
