
     RDKit          3D

 33 36  0  0  0  0  0  0  0  0999 V2000
    4.5660   -4.3770   -1.0820 C   0  0  0  0  0  0  0  0  0  0  0  0
    3.8360   -3.0520   -1.1820 C   0  0  0  0  0  0  0  0  0  0  0  0
    3.5050   -2.5140    0.2080 C   0  0  0  0  0  0  0  0  0  0  0  0
    2.8030   -1.2330   -0.0090 C   0  0  0  0  0  0  0  0  0  0  0  0
    3.3230   -0.1130    0.4410 C   0  0  0  0  0  0  0  0  0  0  0  0
    4.5560   -0.0100    1.1500 N   0  0  0  0  0  0  0  0  0  0  0  0
    5.0320    1.2530    1.5980 C   0  0  0  0  0  0  0  0  0  0  0  0
    6.1190    1.5880    2.2590 C   0  0  0  0  0  0  0  0  0  0  0  0
    6.1240    3.0580    2.4710 C   0  0  0  0  0  0  0  0  0  0  0  0
    4.9100    3.4890    1.8470 N   0  0  0  0  0  0  0  0  0  0  0  0
    4.2760    2.4730    1.3450 C   0  0  0  0  0  0  0  0  0  0  0  0
    3.0260    2.2970    0.6150 C   0  0  0  0  0  0  0  0  0  0  0  0
    2.0530    3.7070    0.2660 Cl  0  0  0  0  0  0  0  0  0  0  0  0
    2.5760    1.1270    0.1950 C   0  0  0  0  0  0  0  0  0  0  0  0
    1.3430    1.0070   -0.5150 N   0  0  0  0  0  0  0  0  0  0  0  0
    0.8380   -0.2370   -0.9740 C   0  0  0  0  0  0  0  0  0  0  0  0
   -0.4020   -0.3500   -1.6860 N   0  0  0  0  0  0  0  0  0  0  0  0
   -0.6510   -1.5740   -2.4250 C   0  0  0  0  0  0  0  0  0  0  0  0
   -1.4040    0.6650   -1.7100 C   0  0  0  0  0  0  0  0  0  0  0  0
   -2.6820    0.2510   -0.9620 C   0  0  1  0  0  0  0  0  0  0  0  0
   -2.3010   -0.0080    0.3860 N   0  0  0  0  0  0  0  0  0  0  0  0
   -3.2630   -0.7760    1.1350 C   0  0  2  0  0  0  0  0  0  0  0  0
   -2.5210   -1.4200    2.2960 C   0  0  0  0  0  0  0  0  0  0  0  0
   -3.9000   -1.8700    0.3310 C   0  0  0  0  0  0  0  0  0  0  0  0
   -4.3670    0.0680    1.7220 C   0  0  0  0  0  0  0  0  0  0  0  0
   -3.5860    1.4500   -1.0960 C   0  0  0  0  0  0  0  0  0  0  0  0
   -3.2680    2.6240   -0.4570 C   0  0  0  0  0  0  0  0  0  0  0  0
   -4.1000    3.7380   -0.5730 C   0  0  0  0  0  0  0  0  0  0  0  0
   -5.2540    3.6860   -1.3260 C   0  0  0  0  0  0  0  0  0  0  0  0
   -6.0750    4.7810   -1.4420 F   0  0  0  0  0  0  0  0  0  0  0  0
   -5.5370    2.4930   -1.9490 C   0  0  0  0  0  0  0  0  0  0  0  0
   -4.7310    1.3930   -1.8440 C   0  0  0  0  0  0  0  0  0  0  0  0
    1.5430   -1.2670   -0.7220 N   0  0  0  0  0  0  0  0  0  0  0  0
  1  2  1  0
  2  3  1  0
  3  4  1  0
  4  5  2  0
  4 33  1  0
  5  6  1  0
  5 14  1  0
  6  7  1  0
  7  8  2  0
  7 11  1  0
  8  9  1  0
  9 10  1  0
 10 11  2  0
 11 12  1  0
 12 13  1  0
 12 14  2  0
 14 15  1  0
 15 16  1  0
 16 17  1  0
 16 33  2  0
 17 18  1  0
 17 19  1  0
 20 19  1  6
 20 21  1  0
 20 26  1  0
 21 22  1  0
 22 23  1  1
 22 24  1  0
 22 25  1  0
 26 27  2  0
 26 32  1  0
 27 28  1  0
 28 29  2  0
 29 30  1  0
 29 31  1  0
 31 32  2  0
M  CHG  2  21   1  33   1
M  END
