
     RDKit          3D

 32 36  0  0  0  0  0  0  0  0999 V2000
    8.4130    1.6810    0.3110 N   0  0  0  0  0  0  0  0  0  0  0  0
    7.7540    0.3900    0.0590 C   0  0  0  0  0  0  0  0  0  0  0  0
    6.6070    0.3260    1.0580 C   0  0  0  0  0  0  0  0  0  0  0  0
    5.8480   -0.8760    0.9570 N   0  0  0  0  0  0  0  0  0  0  0  0
    4.7920   -0.8840    1.9160 C   0  0  0  0  0  0  0  0  0  0  0  0
    3.7310    0.1180    1.5960 C   0  0  0  0  0  0  0  0  0  0  0  0
    3.1430   -0.1300    0.2130 C   0  0  1  0  0  0  0  0  0  0  0  0
    4.2550   -0.2590   -0.8040 C   0  0  0  0  0  0  0  0  0  0  0  0
    5.3420   -1.1970   -0.3350 C   0  0  0  0  0  0  0  0  0  0  0  0
    2.2900   -1.3450    0.3050 C   0  0  0  0  0  0  0  0  0  0  0  0
    0.8390   -0.9250    0.4030 C   0  0  0  0  0  0  0  0  0  0  0  0
    0.5140   -0.3390   -0.8750 N   0  0  0  0  0  0  0  0  0  0  0  0
   -0.6000   -0.8050   -1.5950 C   0  0  0  0  0  0  0  0  0  0  0  0
   -0.5790   -1.8290   -2.4980 N   0  0  0  0  0  0  0  0  0  0  0  0
   -1.7670   -2.0280   -3.0030 N   0  0  0  0  0  0  0  0  0  0  0  0
   -2.6490   -1.1540   -2.4730 C   0  0  0  0  0  0  0  0  0  0  0  0
   -1.9140   -0.3910   -1.5930 C   0  0  0  0  0  0  0  0  0  0  0  0
   -2.4520    0.7200   -0.7610 C   0  0  0  0  0  0  0  0  0  0  0  0
   -3.8490    0.9350   -0.9540 N   0  0  0  0  0  0  0  0  0  0  0  0
   -4.6020    0.0640   -0.0700 C   0  0  1  0  0  0  0  0  0  0  0  0
   -4.0870    0.0330    1.3240 C   0  0  0  0  0  0  0  0  0  0  0  0
   -5.1120   -0.3240    2.3710 C   0  0  0  0  0  0  0  0  0  0  0  0
   -6.1990   -1.1980    1.7240 C   0  0  0  0  0  0  0  0  0  0  0  0
   -6.8850   -0.2620    0.7690 C   0  0  0  0  0  0  0  0  0  0  0  0
   -8.2440   -0.0500    0.7920 C   0  0  0  0  0  0  0  0  0  0  0  0
   -8.7620    0.8500   -0.1430 C   0  0  0  0  0  0  0  0  0  0  0  0
   -7.9360    1.4910   -1.0450 C   0  0  0  0  0  0  0  0  0  0  0  0
   -8.4670    2.3650   -1.9480 F   0  0  0  0  0  0  0  0  0  0  0  0
   -6.5690    1.2690   -1.0590 C   0  0  0  0  0  0  0  0  0  0  0  0
   -6.0490    0.3690   -0.1240 C   0  0  0  0  0  0  0  0  0  0  0  0
    1.3670    0.7180   -1.3610 C   0  0  0  0  0  0  0  0  0  0  0  0
    2.3130    1.0570   -0.2040 C   0  0  0  0  0  0  0  0  0  0  0  0
  1  2  1  0
  2  3  1  0
  3  4  1  0
  4  5  1  0
  4  9  1  0
  5  6  1  0
  7  6  1  1
  7  8  1  0
  7 10  1  0
  7 32  1  0
  8  9  1  0
 10 11  1  0
 11 12  1  0
 12 13  1  0
 12 31  1  0
 13 14  1  0
 13 17  2  0
 14 15  1  0
 15 16  2  0
 16 17  1  0
 17 18  1  0
 18 19  1  0
 20 19  1  6
 20 21  1  0
 20 30  1  0
 21 22  1  0
 22 23  1  0
 23 24  1  0
 24 25  2  0
 24 30  1  0
 25 26  1  0
 26 27  2  0
 27 28  1  0
 27 29  1  0
 29 30  2  0
 31 32  1  0
M  CHG  2   1   1  19   1
M  END
