
     RDKit          3D

 12 13  0  0  0  0  0  0  0  0999 V2000
   -2.5890    1.7330   -0.3310 C   0  0  0  0  0  0  0  0  0  0  0  0
   -1.9950    0.3870   -0.1380 C   0  0  0  0  0  0  0  0  0  0  0  0
   -2.8740   -0.6850   -0.0650 C   0  0  0  0  0  0  0  0  0  0  0  0
   -2.3270   -1.9390    0.1150 C   0  0  0  0  0  0  0  0  0  0  0  0
   -0.9600   -2.0470    0.2110 C   0  0  0  0  0  0  0  0  0  0  0  0
   -0.1160   -0.9620    0.1350 C   0  0  0  0  0  0  0  0  0  0  0  0
    1.3370   -1.2240    0.2550 C   0  0  0  0  0  0  0  0  0  0  0  0
    2.1090    0.0090    0.1570 N   0  0  0  0  0  0  0  0  0  0  0  0
    2.1650    1.2030    0.8830 C   0  0  0  0  0  0  0  0  0  0  0  0
    3.0870    1.6850    0.1110 C   0  0  0  0  0  0  0  0  0  0  0  0
    3.1200    0.4970   -0.7160 C   0  0  0  0  0  0  0  0  0  0  0  0
   -0.6610    0.2380   -0.0390 N   0  0  0  0  0  0  0  0  0  0  0  0
  1  2  1  0
  2  3  2  0
  2 12  1  0
  3  4  1  0
  4  5  2  0
  5  6  1  0
  6  7  1  0
  6 12  2  0
  7  8  1  0
  8  9  1  0
  8 11  1  0
  9 10  2  0
 10 11  1  0
M  END
