
     RDKit          3D

 12 13  0  0  0  0  0  0  0  0999 V2000
   -2.0340    2.2430   -0.4830 C   0  0  0  0  0  0  0  0  0  0  0  0
   -2.1630    0.9520   -0.5520 C   0  0  0  0  0  0  0  0  0  0  0  0
   -1.2080   -0.0420   -0.2270 N   0  0  0  0  0  0  0  0  0  0  0  0
   -1.5390   -1.3640   -0.0390 C   0  0  0  0  0  0  0  0  0  0  0  0
   -2.9250   -1.9340   -0.1320 C   0  0  0  0  0  0  0  0  0  0  0  0
   -0.4030   -2.0020    0.2330 N   0  0  0  0  0  0  0  0  0  0  0  0
    0.6520   -1.1580    0.2320 C   0  0  0  0  0  0  0  0  0  0  0  0
    0.1330    0.0840   -0.0620 C   0  0  0  0  0  0  0  0  0  0  0  0
    0.9890    1.2890   -0.1710 C   0  0  0  0  0  0  0  0  0  0  0  0
    2.4760    0.9390   -0.2070 C   0  0  0  0  0  0  0  0  0  0  0  0
    2.6820   -0.0470    0.9540 C   0  0  0  0  0  0  0  0  0  0  0  0
    2.1030   -1.3440    0.4680 C   0  0  0  0  0  0  0  0  0  0  0  0
  1  2  2  0
  2  3  1  0
  3  4  1  0
  3  8  1  0
  4  5  1  0
  4  6  2  0
  6  7  1  0
  7  8  2  0
  7 12  1  0
  8  9  1  0
  9 10  1  0
 10 11  1  0
 11 12  1  0
M  END
