
     RDKit          3D

 15 15  0  0  0  0  0  0  0  0999 V2000
    1.9460   -0.9780   -1.2150 N   0  0  0  0  0  0  0  0  0  0  0  0
    1.2480   -0.7380    0.0590 C   0  0  2  0  0  0  0  0  0  0  0  0
    2.1870   -0.8310    1.1080 O   0  0  0  0  0  0  0  0  0  0  0  0
    3.1320    0.0720    0.9360 O   0  0  0  0  0  0  0  0  0  0  0  0
    0.3200   -1.7270    0.2030 O   0  0  0  0  0  0  0  0  0  0  0  0
   -0.7940   -1.4130    0.7510 O   0  0  0  0  0  0  0  0  0  0  0  0
   -1.7210   -0.8720   -0.1740 C   0  0  1  0  0  0  0  0  0  0  0  0
   -1.6140   -1.5410   -1.3740 F   0  0  0  0  0  0  0  0  0  0  0  0
   -3.4230   -0.8110    0.4930 P   0  0  0  0  0  0  0  0  0  0  0  0
   -4.4750   -1.8300   -0.0810 O   0  0  0  0  0  0  0  0  0  0  0  0
   -1.0220    0.8550   -0.4610 P   0  0  0  0  0  0  0  0  0  0  0  0
   -1.7910    1.9940    0.5980 O   0  0  0  0  0  0  0  0  0  0  0  0
   -1.7280    3.1890    0.0570 O   0  0  0  0  0  0  0  0  0  0  0  0
    0.7230    0.6280    0.0100 C   0  0  0  0  0  0  0  0  0  0  0  0
    1.4100    1.5740    0.2700 O   0  0  0  0  0  0  0  0  0  0  0  0
  2  1  1  6
  2  3  1  0
  2  5  1  0
  2 14  1  0
  3  4  1  0
  5  6  1  0
  6  7  1  0
  7  8  1  6
  7  9  1  0
  7 11  1  0
  9 10  2  0
 11 12  1  0
 11 14  1  0
 12 13  1  0
 14 15  2  0
M  END
