
     RDKit          3D

 15 16  0  0  0  0  0  0  0  0999 V2000
   -1.9700   -2.9510   -0.1240 O   0  0  0  0  0  0  0  0  0  0  0  0
   -2.4420   -1.3110   -0.4280 P   0  0  0  0  0  0  0  0  0  0  0  0
   -3.9860   -0.9280    0.1930 O   0  0  0  0  0  0  0  0  0  0  0  0
   -1.1240   -0.1390   -0.0010 C   0  0  2  0  0  0  0  0  0  0  0  0
    0.1170   -0.6980    0.0420 O   0  0  0  0  0  0  0  0  0  0  0  0
    1.0760    0.1170    0.3440 O   0  0  0  0  0  0  0  0  0  0  0  0
    2.1070   -0.6420    0.8420 N   0  0  0  0  0  0  0  0  0  0  0  0
    3.2020   -0.5080   -0.1300 C   0  0  0  0  0  0  0  0  0  0  0  0
    3.6510    0.8510    0.1820 N   0  0  0  0  0  0  0  0  0  0  0  0
    3.0800    1.1560    1.3690 O   0  0  0  0  0  0  0  0  0  0  0  0
    2.6250    0.0550    1.8840 O   0  0  0  0  0  0  0  0  0  0  0  0
   -1.4150    0.7170    1.0500 O   0  0  0  0  0  0  0  0  0  0  0  0
   -2.3880    1.5180    0.6940 O   0  0  0  0  0  0  0  0  0  0  0  0
   -2.2480    2.3600   -0.2600 C   0  0  0  0  0  0  0  0  0  0  0  0
   -1.1000    1.3550   -1.3230 P   0  0  0  0  0  0  0  0  0  0  0  0
  1  2  1  0
  2  3  1  0
  2  4  1  0
  4  5  1  1
  4 12  1  0
  4 15  1  0
  5  6  1  0
  6  7  1  0
  7  8  1  0
  7 11  1  0
  8  9  1  0
  9 10  1  0
 10 11  1  0
 12 13  1  0
 13 14  1  0
 14 15  2  0
M  END
