
     RDKit          3D

 16 16  0  0  0  0  0  0  0  0999 V2000
   -2.2330   -1.9590   -1.0580 N   0  0  0  0  0  0  0  0  0  0  0  0
   -1.3200   -0.3930   -1.1640 P   0  0  0  0  0  0  0  0  0  0  0  0
   -2.3340    0.8070   -0.3710 O   0  0  0  0  0  0  0  0  0  0  0  0
   -2.2470    0.9600    0.9990 C   0  0  0  0  0  0  0  0  0  0  0  0
   -2.9960    1.8350    1.5660 N   0  0  0  0  0  0  0  0  0  0  0  0
   -3.8350    2.5770    0.8490 F   0  0  0  0  0  0  0  0  0  0  0  0
   -1.3930    0.2180    1.8010 O   0  0  0  0  0  0  0  0  0  0  0  0
   -0.5390   -0.7460    1.3460 C   0  0  0  0  0  0  0  0  0  0  0  0
   -0.2960   -1.7640    2.0130 O   0  0  0  0  0  0  0  0  0  0  0  0
    0.1210   -0.5820    0.0220 C   0  0  1  0  0  0  0  0  0  0  0  0
    0.8570   -1.6840   -0.3040 O   0  0  0  0  0  0  0  0  0  0  0  0
    1.0980    0.9800    0.1110 P   0  0  0  0  0  0  0  0  0  0  0  0
    1.1810    1.8220   -1.3700 O   0  0  0  0  0  0  0  0  0  0  0  0
    2.5940    0.7480    0.8870 O   0  0  0  0  0  0  0  0  0  0  0  0
    3.3310   -0.2020    0.3950 O   0  0  0  0  0  0  0  0  0  0  0  0
    4.6010    0.1210    0.4280 O   0  0  0  0  0  0  0  0  0  0  0  0
  1  2  1  0
  2  3  1  0
  2 10  1  0
  3  4  1  0
  4  5  2  3
  4  7  1  0
  5  6  1  0
  7  8  1  0
  8  9  2  0
  8 10  1  0
 10 11  1  6
 10 12  1  0
 12 13  1  0
 12 14  1  0
 14 15  1  0
 15 16  1  0
M  END
