
     RDKit          3D

 16 16  0  0  0  0  0  0  0  0999 V2000
   -2.6910    2.2350    0.1960 C   0  0  0  0  0  0  0  0  0  0  0  0
   -2.6480    0.8570   -0.7030 P   0  0  0  0  0  0  0  0  0  0  0  0
   -2.1800   -0.7390    0.0750 C   0  0  1  0  0  0  0  0  0  0  0  0
   -2.9530   -1.7540   -0.4650 O   0  0  0  0  0  0  0  0  0  0  0  0
   -0.7180   -1.0710   -0.1110 C   0  0  1  0  0  0  0  0  0  0  0  0
   -0.4550   -2.3270    0.5750 N   0  0  0  0  0  0  0  0  0  0  0  0
   -0.5040   -1.3150   -1.4760 O   0  0  0  0  0  0  0  0  0  0  0  0
   -0.8060   -0.2700   -2.2070 F   0  0  0  0  0  0  0  0  0  0  0  0
    0.1020   -0.0470    0.3070 O   0  0  0  0  0  0  0  0  0  0  0  0
    1.3470   -0.3590    0.1360 O   0  0  0  0  0  0  0  0  0  0  0  0
    2.2020    0.6500    0.2570 N   0  0  0  0  0  0  0  0  0  0  0  0
    3.2010    0.4260    1.1210 O   0  0  0  0  0  0  0  0  0  0  0  0
    4.3800    0.6990    0.6320 O   0  0  0  0  0  0  0  0  0  0  0  0
    4.5460    1.9780    0.3700 O   0  0  0  0  0  0  0  0  0  0  0  0
    4.2890    2.1970   -0.9170 O   0  0  0  0  0  0  0  0  0  0  0  0
    2.9170    1.1710   -1.3010 P   0  0  0  0  0  0  0  0  0  0  0  0
  1  2  2  0
  2  3  1  0
  3  4  1  6
  3  5  1  0
  5  6  1  1
  5  7  1  0
  5  9  1  0
  7  8  1  0
  9 10  1  0
 10 11  1  0
 11 12  1  0
 11 16  1  0
 12 13  1  0
 13 14  1  0
 14 15  1  0
 15 16  1  0
M  END
