
     RDKit          3D

 20 20  0  0  0  0  0  0  0  0999 V2000
   -3.8040    1.2040   -1.6450 C   0  0  0  0  0  0  0  0  0  0  0  0
   -2.3370    1.4190   -1.3880 C   0  0  0  0  0  0  0  0  0  0  0  0
   -1.8720    0.6640   -0.1320 C   0  0  2  0  0  0  0  0  0  0  0  0
   -2.6460    1.1580    1.0680 C   0  0  0  0  0  0  0  0  0  0  0  0
   -0.4030    0.9300   -0.0010 C   0  0  0  0  0  0  0  0  0  0  0  0
    0.3650   -0.1290    0.7160 C   0  0  2  0  0  0  0  0  0  0  0  0
    0.2480    0.1100    2.0920 O   0  0  0  0  0  0  0  0  0  0  0  0
    1.8370   -0.0100    0.3830 C   0  0  0  0  0  0  0  0  0  0  0  0
    2.3480    1.3060    0.7040 N   0  0  0  0  0  0  0  0  0  0  0  0
    2.7870    2.0100   -0.4870 C   0  0  0  0  0  0  0  0  0  0  0  0
    3.9320    2.9230   -0.0760 C   0  0  0  0  0  0  0  0  0  0  0  0
    4.3480    3.5980   -1.2340 O   0  0  0  0  0  0  0  0  0  0  0  0
   -0.1510   -1.5260    0.4860 C   0  0  2  0  0  0  0  0  0  0  0  0
    0.2670   -2.1240   -0.7720 C   0  0  0  0  0  0  0  0  0  0  0  0
   -0.0160   -1.6170   -2.0330 O   0  0  0  0  0  0  0  0  0  0  0  0
    0.9590   -3.2130   -0.7560 N   0  0  0  0  0  0  0  0  0  0  0  0
    1.3360   -3.8670    0.4940 C   0  0  0  0  0  0  0  0  0  0  0  0
   -1.6630   -1.4680    0.6430 C   0  0  2  0  0  0  0  0  0  0  0  0
   -2.2810   -2.8520    0.6040 C   0  0  0  0  0  0  0  0  0  0  0  0
   -2.1800   -0.6690   -0.3570 O   0  0  0  0  0  0  0  0  0  0  0  0
  1  2  1  0
  2  3  1  0
  3  4  1  1
  3  5  1  0
  3 20  1  0
  5  6  1  0
  6  7  1  1
  6  8  1  0
  6 13  1  0
  8  9  1  0
  9 10  1  0
 10 11  1  0
 11 12  1  0
 13 14  1  6
 13 18  1  0
 14 15  1  0
 14 16  2  3
 16 17  1  0
 18 19  1  6
 18 20  1  0
M  CHG  1   9   1
M  END
