
     RDKit          3D

 20 20  0  0  0  0  0  0  0  0999 V2000
   -2.3610   -2.1300   -1.2510 C   0  0  0  0  0  0  0  0  0  0  0  0
   -1.7710   -1.2390   -0.1460 C   0  0  2  0  0  0  0  0  0  0  0  0
   -0.6580   -2.0150    0.4800 C   0  0  0  0  0  0  0  0  0  0  0  0
   -2.8690   -1.0860    0.8790 C   0  0  0  0  0  0  0  0  0  0  0  0
   -1.3680    0.0370   -0.7950 C   0  0  1  0  0  0  0  0  0  0  0  0
   -2.5510    0.6350   -1.3840 N   0  0  0  0  0  0  0  0  0  0  0  0
   -0.5780    0.9730    0.0380 C   0  0  2  0  0  0  0  0  0  0  0  0
    0.5280    0.3510    0.5640 O   0  0  0  0  0  0  0  0  0  0  0  0
    1.7220    0.9140    0.0980 C   0  0  0  0  0  0  0  0  0  0  0  0
    2.9120    0.2010    0.7010 C   0  0  1  0  0  0  0  0  0  0  0  0
    2.8700   -1.2820    0.4020 C   0  0  0  0  0  0  0  0  0  0  0  0
    4.2470   -1.9060    0.4850 C   0  0  0  0  0  0  0  0  0  0  0  0
    5.2580   -1.1320   -0.3360 C   0  0  0  0  0  0  0  0  0  0  0  0
    4.6150    0.1480   -0.8770 C   0  0  0  0  0  0  0  0  0  0  0  0
    4.0520    0.8040    0.2050 O   0  0  0  0  0  0  0  0  0  0  0  0
   -1.3540    1.6770    1.0800 C   0  0  0  0  0  0  0  0  0  0  0  0
   -0.9320    1.6280    2.2640 O   0  0  0  0  0  0  0  0  0  0  0  0
   -2.5080    2.3860    0.8530 O   0  0  0  0  0  0  0  0  0  0  0  0
   -3.1890    3.0310    1.9070 C   0  0  0  0  0  0  0  0  0  0  0  0
   -4.3650    3.6900    1.3460 N   0  0  0  0  0  0  0  0  0  0  0  0
  2  1  1  6
  2  3  1  0
  2  4  1  0
  2  5  1  0
  5  6  1  1
  5  7  1  0
  7  8  1  1
  7 16  1  0
  8  9  1  0
 10  9  1  6
 10 11  1  0
 10 15  1  0
 11 12  1  0
 12 13  1  0
 13 14  1  0
 14 15  1  0
 16 17  2  0
 16 18  1  0
 18 19  1  0
 19 20  1  0
M  CHG  1   6   1
M  END
