
     RDKit          3D

 20 20  0  0  0  0  0  0  0  0999 V2000
    2.8800    2.8700   -0.8880 C   0  0  0  0  0  0  0  0  0  0  0  0
    3.1610    2.1530    0.3910 C   0  0  0  0  0  0  0  0  0  0  0  0
    2.3220    1.0390    0.6130 O   0  0  0  0  0  0  0  0  0  0  0  0
    2.2360   -0.0510   -0.2180 C   0  0  0  0  0  0  0  0  0  0  0  0
    2.9620   -0.0480   -1.2490 O   0  0  0  0  0  0  0  0  0  0  0  0
    1.3610   -1.2000    0.0230 C   0  0  2  0  0  0  0  0  0  0  0  0
   -0.0810   -0.8490    0.0880 C   0  0  0  0  0  0  0  0  0  0  0  0
   -0.8400   -1.3710   -0.7410 O   0  0  0  0  0  0  0  0  0  0  0  0
   -0.6120    0.0410    1.0410 N   0  0  0  0  0  0  0  0  0  0  0  0
   -1.9490    0.4860    1.2230 C   0  0  0  0  0  0  0  0  0  0  0  0
   -2.6220    1.2950    0.2000 C   0  0  1  0  0  0  0  0  0  0  0  0
   -4.0420    1.6120    0.7870 C   0  0  0  0  0  0  0  0  0  0  0  0
   -1.9960    2.5930   -0.0130 N   0  0  0  0  0  0  0  0  0  0  0  0
   -2.9170    0.7210   -1.1380 C   0  0  0  0  0  0  0  0  0  0  0  0
   -3.8190   -0.4960   -1.1170 C   0  0  0  0  0  0  0  0  0  0  0  0
    1.6920   -1.9290    1.3090 C   0  0  0  0  0  0  0  0  0  0  0  0
    2.8470   -2.8240    0.9230 C   0  0  0  0  0  0  0  0  0  0  0  0
    2.6140   -3.2060   -0.5140 C   0  0  1  0  0  0  0  0  0  0  0  0
    2.1410   -4.5010   -0.6390 O   0  0  0  0  0  0  0  0  0  0  0  0
    1.5450   -2.2660   -1.0140 C   0  0  0  0  0  0  0  0  0  0  0  0
  1  2  1  0
  2  3  1  0
  3  4  1  0
  4  5  2  0
  6  4  1  6
  6  7  1  0
  6 16  1  0
  6 20  1  0
  7  8  2  0
  7  9  1  0
  9 10  1  0
 10 11  1  0
 11 12  1  1
 11 13  1  0
 11 14  1  0
 14 15  1  0
 16 17  1  0
 17 18  1  0
 18 19  1  1
 18 20  1  0
M  CHG  1  13   1
M  END
