
     RDKit          3D

 20 20  0  0  0  0  0  0  0  0999 V2000
   -4.6650    2.7110    1.3460 C   0  0  0  0  0  0  0  0  0  0  0  0
   -3.7010    1.8120    0.5890 C   0  0  0  0  0  0  0  0  0  0  0  0
   -4.1520    0.3740    0.6450 C   0  0  0  0  0  0  0  0  0  0  0  0
   -3.2020   -0.4830   -0.1070 C   0  0  2  0  0  0  0  0  0  0  0  0
   -3.6030   -1.9500   -0.0980 C   0  0  0  0  0  0  0  0  0  0  0  0
   -2.8570   -2.6260   -1.1120 N   0  0  0  0  0  0  0  0  0  0  0  0
   -1.4290   -2.5440   -0.9380 C   0  0  0  0  0  0  0  0  0  0  0  0
   -0.9530   -1.1240   -0.7030 C   0  0  2  0  0  0  0  0  0  0  0  0
   -1.1520   -0.2460   -1.9210 C   0  0  0  0  0  0  0  0  0  0  0  0
    0.4110   -1.2300   -0.3570 O   0  0  0  0  0  0  0  0  0  0  0  0
    1.2570   -0.1870   -0.0680 C   0  0  0  0  0  0  0  0  0  0  0  0
    0.7830    0.9810   -0.1140 O   0  0  0  0  0  0  0  0  0  0  0  0
    2.6400   -0.3940    0.2790 N   0  0  0  0  0  0  0  0  0  0  0  0
    3.4420    0.7770    0.5660 C   0  0  0  0  0  0  0  0  0  0  0  0
    4.8690    0.4020    0.9130 C   0  0  2  0  0  0  0  0  0  0  0  0
    5.5530   -0.2860   -0.2480 C   0  0  0  0  0  0  0  0  0  0  0  0
    4.9540   -0.4140    2.0180 O   0  0  0  0  0  0  0  0  0  0  0  0
    5.6070    1.7280    1.1390 C   0  0  0  0  0  0  0  0  0  0  0  0
    5.4680    2.4800   -0.0170 O   0  0  0  0  0  0  0  0  0  0  0  0
   -1.7810   -0.4710    0.4160 C   0  0  0  0  0  0  0  0  0  0  0  0
  1  2  1  0
  2  3  1  0
  4  3  1  1
  4  5  1  0
  4 20  1  0
  5  6  1  0
  6  7  1  0
  7  8  1  0
  8  9  1  6
  8 10  1  0
  8 20  1  0
 10 11  1  0
 11 12  2  0
 11 13  1  0
 13 14  1  0
 14 15  1  0
 15 16  1  6
 15 17  1  0
 15 18  1  0
 18 19  1  0
M  CHG  1   6   1
M  END
