
     RDKit          3D

 20 21  0  0  0  0  0  0  0  0999 V2000
    2.1340    4.1830    0.5270 C   0  0  0  0  0  0  0  0  0  0  0  0
    2.1380    2.7980    0.3900 O   0  0  0  0  0  0  0  0  0  0  0  0
    0.8540    2.2670    0.3920 C   0  0  0  0  0  0  0  0  0  0  0  0
    0.9730    0.7630    0.2370 C   0  0  2  0  0  0  0  0  0  0  0  0
    2.0320    0.4240   -0.7980 C   0  0  0  0  0  0  0  0  0  0  0  0
    2.1080   -1.0660   -0.9300 C   0  0  0  0  0  0  0  0  0  0  0  0
    2.4750   -1.6940    0.3710 C   0  0  0  0  0  0  0  0  0  0  0  0
    3.7950   -1.2680    0.9060 C   0  0  0  0  0  0  0  0  0  0  0  0
    4.8540   -1.5570    0.0480 O   0  0  0  0  0  0  0  0  0  0  0  0
   -0.1410    0.0320    0.2100 O   0  0  0  0  0  0  0  0  0  0  0  0
   -1.2970   -0.1960   -0.4120 C   0  0  0  0  0  0  0  0  0  0  0  0
   -2.1770   -0.9750    0.1970 C   0  0  0  0  0  0  0  0  0  0  0  0
   -2.7480   -1.8690    1.2690 C   0  0  1  0  0  0  0  0  0  0  0  0
   -3.4460   -1.1460    2.2790 N   0  0  0  0  0  0  0  0  0  0  0  0
   -3.7710   -2.3640    0.1970 C   0  0  0  0  0  0  0  0  0  0  0  0
   -3.5900   -0.9750   -0.3420 C   0  0  2  0  0  0  0  0  0  0  0  0
   -3.7010   -0.7660   -1.6870 O   0  0  0  0  0  0  0  0  0  0  0  0
   -2.7970    0.0640   -2.3140 C   0  0  0  0  0  0  0  0  0  0  0  0
   -1.6500    0.3360   -1.7140 C   0  0  0  0  0  0  0  0  0  0  0  0
   -0.7920    1.2000   -2.4670 N   0  0  0  0  0  0  0  0  0  0  0  0
  1  2  1  0
  2  3  1  0
  4  3  1  6
  4  5  1  0
  4 10  1  0
  5  6  1  0
  6  7  1  0
  7  8  1  0
  8  9  1  0
 10 11  1  0
 11 12  2  0
 11 19  1  0
 12 13  1  0
 12 16  1  0
 13 14  1  1
 13 15  1  0
 16 15  1  6
 16 17  1  0
 17 18  1  0
 18 19  2  0
 19 20  1  0
M  CHG  1  14   1
M  END
