
     RDKit          3D

 20 21  0  0  0  0  0  0  0  0999 V2000
    4.4120    1.4260    0.2430 C   0  0  0  0  0  0  0  0  0  0  0  0
    2.9800    1.4890    0.6910 C   0  0  0  0  0  0  0  0  0  0  0  0
    2.2720    0.3350    0.3830 O   0  0  0  0  0  0  0  0  0  0  0  0
    2.2370    0.0780   -0.9730 C   0  0  0  0  0  0  0  0  0  0  0  0
    1.4460   -1.1940   -1.2020 C   0  0  1  0  0  0  0  0  0  0  0  0
    2.1890   -2.2400   -0.4640 N   0  0  0  0  0  0  0  0  0  0  0  0
    0.0310   -1.1190   -0.6860 C   0  0  1  0  0  0  0  0  0  0  0  0
   -0.4710   -2.5840   -0.7350 C   0  0  0  0  0  0  0  0  0  0  0  0
    0.0050   -0.7700    0.6540 O   0  0  0  0  0  0  0  0  0  0  0  0
   -1.2930   -0.8360    1.1360 C   0  0  1  0  0  0  0  0  0  0  0  0
   -1.4070   -0.5430    2.5850 C   0  0  0  0  0  0  0  0  0  0  0  0
   -2.8050    0.0250    2.7060 C   0  0  0  0  0  0  0  0  0  0  0  0
   -2.9810    0.7140    1.3880 C   0  0  0  0  0  0  0  0  0  0  0  0
   -2.1110    0.2150    0.4950 C   0  0  0  0  0  0  0  0  0  0  0  0
   -1.8470    0.4970   -0.9040 C   0  0  0  0  0  0  0  0  0  0  0  0
   -2.4860    1.4240   -1.5690 C   0  0  0  0  0  0  0  0  0  0  0  0
   -3.4900    2.2560   -1.0440 N   0  0  0  0  0  0  0  0  0  0  0  0
   -3.2060    3.4880   -0.5920 O   0  0  0  0  0  0  0  0  0  0  0  0
   -0.8060   -0.3110   -1.5940 C   0  0  1  0  0  0  0  0  0  0  0  0
   -0.1250    0.5270   -2.4680 O   0  0  0  0  0  0  0  0  0  0  0  0
  1  2  1  0
  2  3  1  0
  3  4  1  0
  4  5  1  0
  5  6  1  1
  5  7  1  0
  7  8  1  1
  7  9  1  0
  7 19  1  0
  9 10  1  0
 10 11  1  1
 10 14  1  0
 11 12  1  0
 12 13  1  0
 13 14  2  0
 14 15  1  0
 15 16  2  3
 15 19  1  0
 16 17  1  0
 17 18  1  0
 19 20  1  1
M  CHG  1   6   1
M  END
