
     RDKit          3D

 32 35  0  0  0  0  0  0  0  0999 V2000
    8.1470    1.2180   -0.4660 C   0  0  0  0  0  0  0  0  0  0  0  0
    6.9860    0.5530   -0.6000 C   0  0  0  0  0  0  0  0  0  0  0  0
    6.7620   -0.1030   -1.9040 C   0  0  0  0  0  0  0  0  0  0  0  0
    5.4510   -0.7220   -2.0440 C   0  0  0  0  0  0  0  0  0  0  0  0
    4.3090   -0.7110   -1.3810 C   0  0  0  0  0  0  0  0  0  0  0  0
    3.1310   -1.5020   -1.8430 C   0  0  0  0  0  0  0  0  0  0  0  0
    2.0320   -0.5900   -1.5290 N   0  0  0  0  0  0  0  0  0  0  0  0
    0.6600   -0.7400   -1.9410 C   0  0  0  0  0  0  0  0  0  0  0  0
    0.3600   -1.7610   -2.6270 O   0  0  0  0  0  0  0  0  0  0  0  0
   -0.3130    0.3020   -1.5370 C   0  0  0  0  0  0  0  0  0  0  0  0
   -1.4980   -0.3980   -0.8940 C   0  0  1  0  0  0  0  0  0  0  0  0
   -2.1810   -1.3500   -1.8500 C   0  0  0  0  0  0  0  0  0  0  0  0
   -1.3430   -0.8210    0.5370 C   0  0  0  0  0  0  0  0  0  0  0  0
   -2.2900    0.2950    0.1930 C   0  0  1  0  0  0  0  0  0  0  0  0
   -1.8000    1.6740    0.5980 C   0  0  0  0  0  0  0  0  0  0  0  0
   -3.7510    0.0290    0.3930 C   0  0  1  0  0  0  0  0  0  0  0  0
   -4.0560   -1.3400    0.9550 C   0  0  1  0  0  0  0  0  0  0  0  0
   -3.4580   -1.4070    2.3580 C   0  0  0  0  0  0  0  0  0  0  0  0
   -5.5320   -1.5700    1.1190 C   0  0  0  0  0  0  0  0  0  0  0  0
   -6.3690   -0.5120    0.4790 C   0  0  0  0  0  0  0  0  0  0  0  0
   -5.9890    0.8910    0.7640 C   0  0  2  0  0  0  0  0  0  0  0  0
   -6.2770    1.8250   -0.3960 C   0  0  0  0  0  0  0  0  0  0  0  0
   -7.7350    1.8430   -0.7570 C   0  0  0  0  0  0  0  0  0  0  0  0
   -4.5110    1.0600    1.1370 C   0  0  2  0  0  0  0  0  0  0  0  0
   -4.2010    2.3830    0.7480 O   0  0  0  0  0  0  0  0  0  0  0  0
    2.5060    0.5180   -0.7050 C   0  0  0  0  0  0  0  0  0  0  0  0
    3.8280   -0.0590   -0.1720 C   0  0  1  0  0  0  0  0  0  0  0  0
    3.4050   -1.1970    0.7780 C   0  0  0  0  0  0  0  0  0  0  0  0
    4.6510    0.9020    0.5430 C   0  0  0  0  0  0  0  0  0  0  0  0
    6.1110    0.5690    0.5530 C   0  0  0  0  0  0  0  0  0  0  0  0
    6.6300    0.2320    1.7180 C   0  0  0  0  0  0  0  0  0  0  0  0
    8.0250   -0.1640    1.9200 C   0  0  0  0  0  0  0  0  0  0  0  0
  1  2  2  0
  2  3  1  0
  2 30  1  0
  3  4  1  0
  4  5  2  0
  5  6  1  0
  5 27  1  0
  6  7  1  0
  7  8  1  0
  7 26  1  0
  8  9  2  0
  8 10  1  0
 10 11  1  0
 11 12  1  6
 11 13  1  0
 11 14  1  0
 13 14  1  0
 14 15  1  1
 14 16  1  0
 16 17  1  1
 16 24  1  0
 17 18  1  1
 17 19  1  0
 19 20  1  0
 20 21  1  0
 21 22  1  6
 21 24  1  0
 22 23  1  0
 24 25  1  6
 26 27  1  0
 27 28  1  1
 27 29  1  0
 29 30  1  0
 30 31  2  3
 31 32  1  0
M  END
