
     RDKit          3D

 32 36  0  0  0  0  0  0  0  0999 V2000
    8.2820    0.8530   -1.1880 C   0  0  0  0  0  0  0  0  0  0  0  0
    7.4570    1.9290   -0.5640 C   0  0  0  0  0  0  0  0  0  0  0  0
    6.1410    1.4660   -0.0300 C   0  0  2  0  0  0  0  0  0  0  0  0
    6.2550    0.4060    1.0460 C   0  0  0  0  0  0  0  0  0  0  0  0
    4.8320   -0.0860    1.0800 C   0  0  0  0  0  0  0  0  0  0  0  0
    4.0890   -0.6570    2.0910 C   0  0  0  0  0  0  0  0  0  0  0  0
    2.7630   -1.0270    1.8440 C   0  0  0  0  0  0  0  0  0  0  0  0
    2.1700   -0.8370    0.6100 C   0  0  0  0  0  0  0  0  0  0  0  0
    2.9560   -0.2630   -0.3610 C   0  0  0  0  0  0  0  0  0  0  0  0
    4.2680    0.1170   -0.1620 C   0  0  0  0  0  0  0  0  0  0  0  0
    5.2860    0.7440   -1.0560 C   0  0  0  0  0  0  0  0  0  0  0  0
    0.7820   -1.2500    0.4340 C   0  0  1  0  0  0  0  0  0  0  0  0
    0.5730   -2.5510    1.2110 C   0  0  0  0  0  0  0  0  0  0  0  0
    0.9470   -2.4280    2.6490 C   0  0  0  0  0  0  0  0  0  0  0  0
    2.0430   -1.5980    2.8830 O   0  0  0  0  0  0  0  0  0  0  0  0
   -0.0820   -0.1970    1.0960 C   0  0  0  0  0  0  0  0  0  0  0  0
   -0.3230    0.7160   -0.1160 C   0  0  0  0  0  0  0  0  0  0  0  0
   -0.7140   -0.2020   -1.2010 C   0  0  2  0  0  0  0  0  0  0  0  0
   -0.2650    0.3320   -2.5820 C   0  0  0  0  0  0  0  0  0  0  0  0
   -2.0480   -0.7880   -1.2370 C   0  0  0  0  0  0  0  0  0  0  0  0
   -3.3060   -0.0270   -1.3280 C   0  0  2  0  0  0  0  0  0  0  0  0
   -3.4110    0.8610   -2.5650 C   0  0  0  0  0  0  0  0  0  0  0  0
   -3.5770    0.8060   -0.1570 C   0  0  0  0  0  0  0  0  0  0  0  0
   -4.9610    0.9520    0.3620 C   0  0  1  0  0  0  0  0  0  0  0  0
   -4.8970    2.1080    1.3830 C   0  0  0  0  0  0  0  0  0  0  0  0
   -6.0280    1.3130   -0.5810 C   0  0  0  0  0  0  0  0  0  0  0  0
   -5.2730   -0.2640    1.2190 C   0  0  0  0  0  0  0  0  0  0  0  0
   -5.9540   -1.2490    0.3430 C   0  0  0  0  0  0  0  0  0  0  0  0
   -5.2210   -1.7550   -0.7520 N   0  0  0  0  0  0  0  0  0  0  0  0
   -4.3380   -1.0910   -1.6000 C   0  0  0  0  0  0  0  0  0  0  0  0
   -4.3780   -1.4100   -2.8160 O   0  0  0  0  0  0  0  0  0  0  0  0
    0.2560   -1.3760   -0.9260 C   0  0  0  0  0  0  0  0  0  0  0  0
  1  2  1  0
  3  2  1  6
  3  4  1  0
  3 11  1  0
  4  5  1  0
  5  6  2  0
  5 10  1  0
  6  7  1  0
  7  8  2  0
  7 15  1  0
  8  9  1  0
  8 12  1  0
  9 10  2  0
 10 11  1  0
 12 13  1  1
 12 16  1  0
 12 32  1  0
 13 14  1  0
 14 15  1  0
 16 17  1  0
 17 18  1  0
 18 19  1  6
 18 20  1  0
 18 32  1  0
 20 21  1  0
 21 22  1  6
 21 23  1  0
 21 30  1  0
 23 24  1  0
 24 25  1  1
 24 26  1  0
 24 27  1  0
 27 28  1  0
 28 29  1  0
 29 30  1  0
 30 31  2  0
M  END
