
     RDKit          3D

 32 36  0  0  0  0  0  0  0  0999 V2000
   -2.7920    4.6810   -2.0700 C   0  0  0  0  0  0  0  0  0  0  0  0
   -3.1300    3.6490   -1.0250 C   0  0  0  0  0  0  0  0  0  0  0  0
   -2.1590    2.5040   -1.0420 C   0  0  1  0  0  0  0  0  0  0  0  0
   -0.7480    2.9540   -0.7750 C   0  0  0  0  0  0  0  0  0  0  0  0
    0.1420    1.9020   -0.1650 C   0  0  0  0  0  0  0  0  0  0  0  0
   -0.3640    0.5090   -0.3870 C   0  0  0  0  0  0  0  0  0  0  0  0
   -1.7670    0.3020   -0.3250 C   0  0  0  0  0  0  0  0  0  0  0  0
   -2.3070   -0.8790   -0.5730 C   0  0  0  0  0  0  0  0  0  0  0  0
   -1.4140   -1.9400   -0.9050 C   0  0  0  0  0  0  0  0  0  0  0  0
   -0.0560   -1.7570   -0.9670 C   0  0  0  0  0  0  0  0  0  0  0  0
    0.9190   -2.8230   -1.2870 C   0  0  0  0  0  0  0  0  0  0  0  0
    0.5070   -0.4900   -0.7000 C   0  0  0  0  0  0  0  0  0  0  0  0
    1.9620   -0.3300   -0.7000 C   0  0  0  0  0  0  0  0  0  0  0  0
    2.6320   -0.9390   -1.6130 O   0  0  0  0  0  0  0  0  0  0  0  0
    2.7010    0.4350    0.2270 N   0  0  0  0  0  0  0  0  0  0  0  0
    4.1410    0.5170    0.1050 C   0  0  1  0  0  0  0  0  0  0  0  0
    4.6390    1.9200   -0.0440 C   0  0  0  0  0  0  0  0  0  0  0  0
    6.0840    1.8430   -0.5240 C   0  0  0  0  0  0  0  0  0  0  0  0
    6.6230    0.6390   -0.0380 O   0  0  0  0  0  0  0  0  0  0  0  0
    6.2650    0.4270    1.2920 C   0  0  0  0  0  0  0  0  0  0  0  0
    4.8450   -0.1010    1.2910 C   0  0  2  0  0  0  0  0  0  0  0  0
    4.9400   -1.6030    1.0050 C   0  0  0  0  0  0  0  0  0  0  0  0
    5.6380   -2.2370    2.1730 C   0  0  0  0  0  0  0  0  0  0  0  0
   -2.0650   -3.2480   -1.1790 C   0  0  0  0  0  0  0  0  0  0  0  0
   -3.0490   -3.5950   -0.0750 C   0  0  0  0  0  0  0  0  0  0  0  0
   -3.8480   -2.4370    0.3820 C   0  0  1  0  0  0  0  0  0  0  0  0
   -3.6740   -2.0130    1.7950 C   0  0  0  0  0  0  0  0  0  0  0  0
   -4.4830   -0.7810    2.0590 C   0  0  0  0  0  0  0  0  0  0  0  0
   -5.4370   -0.3830    0.9900 C   0  0  0  0  0  0  0  0  0  0  0  0
   -4.8460   -0.4220   -0.4210 C   0  0  0  0  0  0  0  0  0  0  0  0
   -3.6740   -1.2220   -0.5760 C   0  0  1  0  0  0  0  0  0  0  0  0
   -2.5100    1.4690    0.0430 C   0  0  0  0  0  0  0  0  0  0  0  0
  1  2  1  0
  3  2  1  1
  3  4  1  0
  3 32  1  0
  4  5  1  0
  5  6  1  0
  6  7  2  0
  6 12  1  0
  7  8  1  0
  7 32  1  0
  8  9  2  0
  8 31  1  0
  9 10  1  0
  9 24  1  0
 10 11  1  0
 10 12  2  0
 12 13  1  0
 13 14  2  0
 13 15  1  0
 16 15  1  1
 16 17  1  0
 16 21  1  0
 17 18  1  0
 18 19  1  0
 19 20  1  0
 20 21  1  0
 21 22  1  6
 22 23  1  0
 24 25  1  0
 26 25  1  6
 26 27  1  0
 26 31  1  0
 27 28  1  0
 28 29  1  0
 29 30  1  0
 31 30  1  1
M  END
