
     RDKit          3D

 32 34  0  0  0  0  0  0  0  0999 V2000
    7.6570   -0.9880   -0.7460 C   0  0  0  0  0  0  0  0  0  0  0  0
    6.2160   -1.1430   -0.3400 C   0  0  0  0  0  0  0  0  0  0  0  0
    5.8320   -2.1580    0.5110 C   0  0  0  0  0  0  0  0  0  0  0  0
    4.4800   -2.2480    0.8500 C   0  0  0  0  0  0  0  0  0  0  0  0
    3.5400   -1.3670    0.3660 C   0  0  0  0  0  0  0  0  0  0  0  0
    3.9620   -0.3660   -0.4820 C   0  0  0  0  0  0  0  0  0  0  0  0
    3.0160    0.6290   -1.0520 C   0  0  0  0  0  0  0  0  0  0  0  0
    1.7010    0.3750   -0.5960 O   0  0  0  0  0  0  0  0  0  0  0  0
    0.6780    1.2150   -1.0320 C   0  0  0  0  0  0  0  0  0  0  0  0
    0.9300    2.2600   -1.8800 C   0  0  0  0  0  0  0  0  0  0  0  0
   -0.0840    3.0900   -2.3110 C   0  0  0  0  0  0  0  0  0  0  0  0
   -1.3700    2.8710   -1.8860 C   0  0  0  0  0  0  0  0  0  0  0  0
   -2.3800    3.6700   -2.2940 F   0  0  0  0  0  0  0  0  0  0  0  0
   -1.6650    1.8030   -1.0130 C   0  0  0  0  0  0  0  0  0  0  0  0
   -3.0110    1.6440   -0.6230 N   0  0  0  0  0  0  0  0  0  0  0  0
   -3.4930    0.6310    0.2470 C   0  0  0  0  0  0  0  0  0  0  0  0
   -2.7280   -0.2220    0.7460 O   0  0  0  0  0  0  0  0  0  0  0  0
   -4.8760    0.5420    0.5920 N   0  0  0  0  0  0  0  0  0  0  0  0
   -5.4790   -0.4070    1.4370 C   0  0  0  0  0  0  0  0  0  0  0  0
   -4.8460   -1.4050    2.0730 N   0  0  0  0  0  0  0  0  0  0  0  0
   -5.5680   -2.2450    2.8580 C   0  0  0  0  0  0  0  0  0  0  0  0
   -4.9530   -3.1750    3.4460 O   0  0  0  0  0  0  0  0  0  0  0  0
   -6.9140   -2.1280    3.0380 C   0  0  0  0  0  0  0  0  0  0  0  0
   -7.6240   -2.9830    3.8330 F   0  0  0  0  0  0  0  0  0  0  0  0
   -7.5970   -1.1160    2.4020 C   0  0  0  0  0  0  0  0  0  0  0  0
   -9.3310   -0.9270    2.6040 Cl  0  0  0  0  0  0  0  0  0  0  0  0
   -6.8680   -0.2720    1.6110 C   0  0  0  0  0  0  0  0  0  0  0  0
   -7.5380    0.7350    0.9760 F   0  0  0  0  0  0  0  0  0  0  0  0
   -0.6320    1.0010   -0.6070 C   0  0  0  0  0  0  0  0  0  0  0  0
    5.3020   -0.2410   -0.8450 C   0  0  0  0  0  0  0  0  0  0  0  0
    5.7220    0.8190   -1.7380 C   0  0  0  0  0  0  0  0  0  0  0  0
    6.0590    1.6740   -2.4330 N   0  0  0  0  0  0  0  0  0  0  0  0
  1  2  1  0
  2  3  2  0
  2 30  1  0
  3  4  1  0
  4  5  2  0
  5  6  1  0
  6  7  1  0
  6 30  2  0
  7  8  1  0
  8  9  1  0
  9 10  2  0
  9 29  1  0
 10 11  1  0
 11 12  2  0
 12 13  1  0
 12 14  1  0
 14 15  1  0
 14 29  2  0
 15 16  1  0
 16 17  2  0
 16 18  1  0
 18 19  1  0
 19 20  1  0
 19 27  2  0
 20 21  1  0
 21 22  2  0
 21 23  1  0
 23 24  1  0
 23 25  2  0
 25 26  1  0
 25 27  1  0
 27 28  1  0
 30 31  1  0
 31 32  3  0
M  END
