
     RDKit          3D

 33 35  0  0  0  0  0  0  0  0999 V2000
   -1.5020    3.4200   -2.5780 C   0  0  0  0  0  0  0  0  0  0  0  0
   -1.0810    3.1630   -1.1530 C   0  0  0  0  0  0  0  0  0  0  0  0
   -2.1190    2.4070   -0.4140 C   0  0  0  0  0  0  0  0  0  0  0  0
   -3.2240    2.0230   -0.9780 C   0  0  0  0  0  0  0  0  0  0  0  0
   -4.3610    1.2820   -0.4480 C   0  0  0  0  0  0  0  0  0  0  0  0
   -4.5800    0.0860    0.0090 C   0  0  0  0  0  0  0  0  0  0  0  0
   -6.0390   -0.1570    0.4500 C   0  0  0  0  0  0  0  0  0  0  0  0
   -3.8170   -1.0900    0.2070 N   0  0  0  0  0  0  0  0  0  0  0  0
   -4.0340   -1.8640    1.4770 C   0  0  0  0  0  0  0  0  0  0  0  0
   -4.7400   -3.1680    1.1940 C   0  0  0  0  0  0  0  0  0  0  0  0
   -4.0670   -4.0320    0.3720 O   0  0  0  0  0  0  0  0  0  0  0  0
   -2.8470   -1.7810   -0.5800 C   0  0  0  0  0  0  0  0  0  0  0  0
   -1.8820   -1.2270   -1.4800 C   0  0  1  0  0  0  0  0  0  0  0  0
   -2.2300   -0.4340   -2.5290 O   0  0  0  0  0  0  0  0  0  0  0  0
   -0.5780   -0.7880   -0.7630 C   0  0  0  0  0  0  0  0  0  0  0  0
   -0.5430   -1.0980    0.6060 N   0  0  0  0  0  0  0  0  0  0  0  0
    0.4750   -1.9590    1.1000 C   0  0  0  0  0  0  0  0  0  0  0  0
    1.8340   -1.5260    1.3340 C   0  0  0  0  0  0  0  0  0  0  0  0
    2.7310   -1.0190    0.3280 C   0  0  0  0  0  0  0  0  0  0  0  0
    2.6400   -0.7730   -0.9490 N   0  0  0  0  0  0  0  0  0  0  0  0
    3.7820   -0.3280   -1.4390 N   0  0  0  0  0  0  0  0  0  0  0  0
    4.6580   -0.2840   -0.4310 C   0  0  0  0  0  0  0  0  0  0  0  0
    6.0530    0.1410   -0.5560 C   0  0  0  0  0  0  0  0  0  0  0  0
    6.5790    0.5390   -1.7660 C   0  0  0  0  0  0  0  0  0  0  0  0
    7.8820    0.9260   -1.8990 C   0  0  0  0  0  0  0  0  0  0  0  0
    8.7280    0.9300   -0.8010 C   0  0  0  0  0  0  0  0  0  0  0  0
   10.4400    1.4200   -0.9260 S   0  0  0  0  0  0  0  0  0  0  0  0
    8.2170    0.5360    0.4120 C   0  0  0  0  0  0  0  0  0  0  0  0
    6.8890    0.1440    0.5380 C   0  0  0  0  0  0  0  0  0  0  0  0
    4.0370   -0.7000    0.6530 N   0  0  0  0  0  0  0  0  0  0  0  0
   -0.8600   -0.0530    1.5360 C   0  0  0  0  0  0  0  0  0  0  0  0
   -0.4960    1.3400    1.1750 C   0  0  0  0  0  0  0  0  0  0  0  0
   -1.7770    2.1440    1.0370 C   0  0  0  0  0  0  0  0  0  0  0  0
  1  2  1  0
  2  3  1  0
  3  4  2  0
  3 33  1  0
  4  5  1  0
  5  6  2  0
  6  7  1  0
  6  8  1  0
  8  9  1  0
  8 12  1  0
  9 10  1  0
 10 11  1  0
 12 13  1  0
 13 14  1  1
 13 15  1  0
 15 16  1  0
 16 17  1  0
 16 31  1  0
 17 18  1  0
 18 19  1  0
 19 20  2  0
 19 30  1  0
 20 21  1  0
 21 22  1  0
 22 23  1  0
 22 30  2  0
 23 24  2  0
 23 29  1  0
 24 25  1  0
 25 26  2  0
 26 27  1  0
 26 28  1  0
 28 29  2  0
 31 32  1  0
 32 33  1  0
M  END
