
     RDKit          3D

 33 35  0  0  0  0  0  0  0  0999 V2000
   -1.3350    5.8630    1.1370 C   0  0  0  0  0  0  0  0  0  0  0  0
   -1.0930    5.1600   -0.1730 C   0  0  0  0  0  0  0  0  0  0  0  0
   -0.7840    3.6900    0.0650 C   0  0  2  0  0  0  0  0  0  0  0  0
    0.4510    3.6080    0.9240 C   0  0  0  0  0  0  0  0  0  0  0  0
   -0.6800    3.0440   -1.2030 N   0  0  0  0  0  0  0  0  0  0  0  0
   -0.3610    1.5350   -1.0710 C   0  0  0  0  0  0  0  0  0  0  0  0
   -1.3570    0.8790   -0.6090 C   0  0  0  0  0  0  0  0  0  0  0  0
   -1.8600   -0.4250   -0.2190 C   0  0  0  0  0  0  0  0  0  0  0  0
   -2.1570   -0.5970    1.1680 C   0  0  0  0  0  0  0  0  0  0  0  0
   -2.6730   -1.7320    1.7150 C   0  0  0  0  0  0  0  0  0  0  0  0
   -2.9590   -1.8490    3.1660 C   0  0  0  0  0  0  0  0  0  0  0  0
   -2.9460   -2.8120    0.9230 C   0  0  0  0  0  0  0  0  0  0  0  0
   -3.5090   -4.0720    1.4860 C   0  0  0  0  0  0  0  0  0  0  0  0
   -2.6750   -2.6890   -0.4210 C   0  0  0  0  0  0  0  0  0  0  0  0
   -2.1520   -1.5360   -0.9600 C   0  0  0  0  0  0  0  0  0  0  0  0
   -1.8530   -1.6710   -2.7240 S   0  0  1  0  0  0  0  0  0  0  0  0
   -1.9260   -3.0780   -3.1910 O   0  0  0  0  0  0  0  0  0  0  0  0
   -2.7730   -0.8550   -3.5170 O   0  0  0  0  0  0  0  0  0  0  0  0
   -0.1630   -1.2200   -2.9390 N   0  0  0  0  0  0  0  0  0  0  0  0
    0.6300   -2.3060   -3.3950 C   0  0  0  0  0  0  0  0  0  0  0  0
    1.4160   -2.8380   -2.2020 C   0  0  2  0  0  0  0  0  0  0  0  0
    0.6480   -4.0830   -1.8350 C   0  0  0  0  0  0  0  0  0  0  0  0
    0.3210   -3.9540   -0.6240 N   0  0  0  0  0  0  0  0  0  0  0  0
    0.7670   -2.7730   -0.0820 N   0  0  0  0  0  0  0  0  0  0  0  0
    1.4360   -2.0610   -0.9810 C   0  0  0  0  0  0  0  0  0  0  0  0
    2.1150   -0.7650   -0.6500 C   0  0  0  0  0  0  0  0  0  0  0  0
    2.9040   -0.8040    0.4250 C   0  0  0  0  0  0  0  0  0  0  0  0
    3.7050    0.2270    1.0260 C   0  0  0  0  0  0  0  0  0  0  0  0
    3.8020    1.5950    0.5080 C   0  0  0  0  0  0  0  0  0  0  0  0
    4.4270   -0.0440    2.1230 C   0  0  0  0  0  0  0  0  0  0  0  0
    4.4330   -1.3210    2.7190 N   0  0  0  0  0  0  0  0  0  0  0  0
    1.9800    0.4780   -1.3770 C   0  0  0  0  0  0  0  0  0  0  0  0
    0.9930    1.3380   -1.5110 C   0  0  0  0  0  0  0  0  0  0  0  0
  1  2  1  0
  2  3  1  0
  3  4  1  6
  3  5  1  0
  5  6  1  0
  6  7  2  0
  6 33  1  0
  7  8  1  0
  8  9  2  0
  8 15  1  0
  9 10  1  0
 10 11  1  0
 10 12  2  0
 12 13  1  0
 12 14  1  0
 14 15  2  0
 15 16  1  0
 16 17  2  0
 16 18  2  0
 16 19  1  1
 19 20  1  0
 21 20  1  6
 21 22  1  0
 21 25  1  0
 22 23  2  0
 23 24  1  0
 24 25  2  0
 25 26  1  0
 26 27  2  3
 26 32  1  0
 27 28  1  0
 28 29  1  0
 28 30  2  3
 30 31  1  0
 32 33  2  0
M  END
