
     RDKit          3D

 33 35  0  0  0  0  0  0  0  0999 V2000
    4.8500    5.6890    1.1400 C   0  0  0  0  0  0  0  0  0  0  0  0
    4.3750    4.4370    0.8890 C   0  0  0  0  0  0  0  0  0  0  0  0
    5.1060    3.6650   -0.0240 N   0  0  0  0  0  0  0  0  0  0  0  0
    3.1920    4.0110    1.5630 C   0  0  0  0  0  0  0  0  0  0  0  0
    2.6010    2.8710    1.4520 C   0  0  0  0  0  0  0  0  0  0  0  0
    3.0280    1.7940    0.6150 C   0  0  0  0  0  0  0  0  0  0  0  0
    2.3400    0.6330    0.5850 C   0  0  0  0  0  0  0  0  0  0  0  0
    2.8410   -0.4510   -0.3220 C   0  0  0  0  0  0  0  0  0  0  0  0
    3.2050   -1.6020    0.4130 N   0  0  0  0  0  0  0  0  0  0  0  0
    3.7220   -2.6900   -0.3520 C   0  0  2  0  0  0  0  0  0  0  0  0
    5.0170   -2.3210   -1.0690 C   0  0  0  0  0  0  0  0  0  0  0  0
    2.7110   -3.2590   -1.3120 C   0  0  1  0  0  0  0  0  0  0  0  0
    3.1240   -4.4120   -2.1810 C   0  0  0  0  0  0  0  0  0  0  0  0
    2.1550   -4.6100   -1.0480 C   0  0  0  0  0  0  0  0  0  0  0  0
    0.9100    0.4740    1.5470 S   0  0  2  0  0  0  0  0  0  0  0  0
    1.1930    0.8260    3.1090 C   0  0  0  0  0  0  0  0  0  0  0  0
    0.6050   -1.0360    1.7460 O   0  0  0  0  0  0  0  0  0  0  0  0
   -0.4240    1.2400    0.9700 N   0  0  0  0  0  0  0  0  0  0  0  0
   -1.4440    0.9510    0.3510 C   0  0  0  0  0  0  0  0  0  0  0  0
   -2.4440    1.9790    0.0130 N   0  0  0  0  0  0  0  0  0  0  0  0
   -2.3400    3.3760    0.3360 C   0  0  0  0  0  0  0  0  0  0  0  0
   -1.6400    4.1640   -0.7520 C   0  0  0  0  0  0  0  0  0  0  0  0
   -3.4720    1.3030   -0.6730 C   0  0  0  0  0  0  0  0  0  0  0  0
   -4.2850    1.7560   -1.5060 O   0  0  0  0  0  0  0  0  0  0  0  0
   -3.4040   -0.1230   -0.1950 C   0  0  1  0  0  0  0  0  0  0  0  0
   -3.9270   -0.2830    1.1740 C   0  0  0  0  0  0  0  0  0  0  0  0
   -4.8300   -1.4130    1.4640 C   0  0  0  0  0  0  0  0  0  0  0  0
   -5.2160   -2.2980    0.3390 C   0  0  1  0  0  0  0  0  0  0  0  0
   -6.5180   -1.7870   -0.2700 C   0  0  0  0  0  0  0  0  0  0  0  0
   -4.2150   -2.4130   -0.7650 C   0  0  0  0  0  0  0  0  0  0  0  0
   -3.9310   -1.0160   -1.2500 C   0  0  0  0  0  0  0  0  0  0  0  0
   -1.9320   -0.2730   -0.1580 N   0  0  0  0  0  0  0  0  0  0  0  0
   -1.1970   -1.4450   -0.5850 C   0  0  0  0  0  0  0  0  0  0  0  0
  1  2  2  0
  2  3  1  0
  2  4  1  0
  4  5  2  3
  5  6  1  0
  6  7  2  3
  7  8  1  0
  7 15  1  0
  8  9  1  0
  9 10  1  0
 10 11  1  6
 10 12  1  0
 12 13  1  6
 12 14  1  0
 13 14  1  0
 15 16  2  0
 15 17  2  0
 15 18  1  6
 18 19  2  3
 19 20  1  0
 19 32  1  0
 20 21  1  0
 20 23  1  0
 21 22  1  0
 23 24  2  0
 23 25  1  0
 25 26  1  1
 25 31  1  0
 25 32  1  0
 26 27  1  0
 27 28  1  0
 28 29  1  6
 28 30  1  0
 30 31  1  0
 32 33  1  0
M  END
