
     RDKit          3D

 33 35  0  0  0  0  0  0  0  0999 V2000
    4.4420   -6.1450   -2.2440 C   0  0  0  0  0  0  0  0  0  0  0  0
    4.6520   -4.8550   -2.3880 C   0  0  0  0  0  0  0  0  0  0  0  0
    4.8940   -4.3120   -3.7010 N   0  0  0  0  0  0  0  0  0  0  0  0
    4.9020   -2.9240   -4.0390 C   0  0  0  0  0  0  0  0  0  0  0  0
    5.3290   -2.6140   -5.2290 C   0  0  0  0  0  0  0  0  0  0  0  0
    5.7700   -3.6800   -6.1530 C   0  0  0  0  0  0  0  0  0  0  0  0
    4.4870   -1.8340   -3.1910 N   0  0  0  0  0  0  0  0  0  0  0  0
    3.7850   -1.8890   -1.9500 C   0  0  0  0  0  0  0  0  0  0  0  0
    2.8920   -0.7130   -1.6430 C   0  0  0  0  0  0  0  0  0  0  0  0
    2.1430   -1.0910   -0.4020 C   0  0  0  0  0  0  0  0  0  0  0  0
    1.1890   -0.0530   -0.0520 N   0  0  0  0  0  0  0  0  0  0  0  0
    0.1400    0.3210   -0.9090 C   0  0  0  0  0  0  0  0  0  0  0  0
    0.0990   -0.3190   -2.0250 O   0  0  0  0  0  0  0  0  0  0  0  0
   -0.8680    1.3330   -0.6440 C   0  0  0  0  0  0  0  0  0  0  0  0
   -1.1420    2.1590    0.4080 C   0  0  0  0  0  0  0  0  0  0  0  0
   -2.1940    2.9820    0.3390 C   0  0  0  0  0  0  0  0  0  0  0  0
   -2.5750    3.9040    1.4600 C   0  0  0  0  0  0  0  0  0  0  0  0
   -2.2340    5.1290    1.4310 O   0  0  0  0  0  0  0  0  0  0  0  0
   -3.3110    3.4350    2.5530 N   0  0  0  0  0  0  0  0  0  0  0  0
   -3.7340    4.3210    3.6060 C   0  0  0  0  0  0  0  0  0  0  0  0
   -5.2200    4.2600    3.7690 C   0  0  1  0  0  0  0  0  0  0  0  0
   -5.8310    5.4360    3.0020 C   0  0  0  0  0  0  0  0  0  0  0  0
   -5.8100    3.0130    3.1970 C   0  0  0  0  0  0  0  0  0  0  0  0
   -4.9280    1.8020    3.3890 C   0  0  1  0  0  0  0  0  0  0  0  0
   -5.5990    0.6080    2.7680 C   0  0  0  0  0  0  0  0  0  0  0  0
   -3.6010    2.0050    2.6800 C   0  0  0  0  0  0  0  0  0  0  0  0
   -2.9920    2.9960   -0.7770 C   0  0  0  0  0  0  0  0  0  0  0  0
   -4.1610    3.7520   -1.1440 C   0  0  0  0  0  0  0  0  0  0  0  0
   -2.1770    1.7420   -1.8040 S   0  0  0  0  0  0  0  0  0  0  0  0
    3.7990   -2.8460   -1.0610 N   0  0  0  0  0  0  0  0  0  0  0  0
    4.5620   -4.0920   -1.1520 C   0  0  0  0  0  0  0  0  0  0  0  0
    5.2110   -4.5120   -0.1150 C   0  0  0  0  0  0  0  0  0  0  0  0
    6.0770   -5.6950    0.0190 C   0  0  0  0  0  0  0  0  0  0  0  0
  1  2  2  0
  2  3  1  0
  2 31  1  0
  3  4  1  0
  4  5  2  3
  4  7  1  0
  5  6  1  0
  7  8  1  0
  8  9  1  0
  8 30  2  0
  9 10  1  0
 10 11  1  0
 11 12  1  0
 12 13  2  0
 12 14  1  0
 14 15  2  0
 14 29  1  0
 15 16  1  0
 16 17  1  0
 16 27  2  0
 17 18  2  0
 17 19  1  0
 19 20  1  0
 19 26  1  0
 20 21  1  0
 21 22  1  6
 21 23  1  0
 23 24  1  0
 24 25  1  6
 24 26  1  0
 27 28  1  0
 27 29  1  0
 30 31  1  0
 31 32  2  3
 32 33  1  0
M  END
