
     RDKit          3D

 32 34  0  0  0  0  0  0  0  0999 V2000
    2.6980    3.1700   -0.8070 C   0  0  0  0  0  0  0  0  0  0  0  0
    3.5090    2.0360   -0.2810 C   0  0  0  0  0  0  0  0  0  0  0  0
    4.8270    2.0290   -0.0610 N   0  0  0  0  0  0  0  0  0  0  0  0
    5.1980    0.8470    0.4070 N   0  0  0  0  0  0  0  0  0  0  0  0
    6.5510    0.4660    0.7560 C   0  0  0  0  0  0  0  0  0  0  0  0
    4.0720    0.0690    0.4900 C   0  0  0  0  0  0  0  0  0  0  0  0
    4.0400   -1.3310    1.0030 C   0  0  0  0  0  0  0  0  0  0  0  0
    2.9760    0.7760    0.0640 C   0  0  0  0  0  0  0  0  0  0  0  0
    1.5690    0.4670   -0.0390 C   0  0  0  0  0  0  0  0  0  0  0  0
    0.7550    1.4390   -0.1590 O   0  0  0  0  0  0  0  0  0  0  0  0
    1.0140   -0.8100   -0.0230 N   0  0  0  0  0  0  0  0  0  0  0  0
   -0.3520   -1.1740   -0.1100 C   0  0  0  0  0  0  0  0  0  0  0  0
   -0.6390   -2.5160   -0.3630 C   0  0  0  0  0  0  0  0  0  0  0  0
   -1.9440   -2.9810   -0.4580 C   0  0  0  0  0  0  0  0  0  0  0  0
   -2.1870   -4.3580   -0.7160 N   0  0  0  0  0  0  0  0  0  0  0  0
   -1.0870   -5.2860   -0.8900 C   0  0  2  0  0  0  0  0  0  0  0  0
   -0.3370   -4.9050   -1.9750 F   0  0  0  0  0  0  0  0  0  0  0  0
   -1.5810   -6.5700   -1.1660 F   0  0  0  0  0  0  0  0  0  0  0  0
   -0.3230   -5.3490    0.2800 F   0  0  0  0  0  0  0  0  0  0  0  0
   -2.9970   -2.1150   -0.3000 C   0  0  0  0  0  0  0  0  0  0  0  0
   -4.2960   -2.5290   -0.3850 O   0  0  0  0  0  0  0  0  0  0  0  0
   -2.7580   -0.7590   -0.0440 C   0  0  0  0  0  0  0  0  0  0  0  0
   -3.8910    0.1240    0.1720 C   0  0  0  0  0  0  0  0  0  0  0  0
   -5.0240   -0.4260    0.3840 O   0  0  0  0  0  0  0  0  0  0  0  0
   -3.8400    1.5580    0.1690 C   0  0  0  0  0  0  0  0  0  0  0  0
   -2.9720    2.2670   -0.6000 C   0  0  0  0  0  0  0  0  0  0  0  0
   -2.9060    3.6610   -0.5490 C   0  0  0  0  0  0  0  0  0  0  0  0
   -3.7430    4.3370    0.3000 C   0  0  0  0  0  0  0  0  0  0  0  0
   -3.6860    6.0910    0.3900 Cl  0  0  0  0  0  0  0  0  0  0  0  0
   -4.6310    3.6440    1.0870 C   0  0  0  0  0  0  0  0  0  0  0  0
   -4.6850    2.2700    1.0270 C   0  0  0  0  0  0  0  0  0  0  0  0
   -1.4350   -0.3570    0.0390 C   0  0  0  0  0  0  0  0  0  0  0  0
  1  2  1  0
  2  3  2  0
  2  8  1  0
  3  4  1  0
  4  5  1  0
  4  6  1  0
  6  7  1  0
  6  8  2  0
  8  9  1  0
  9 10  2  0
  9 11  1  0
 11 12  1  0
 12 13  2  0
 12 32  1  0
 13 14  1  0
 14 15  1  0
 14 20  2  0
 15 16  1  0
 16 17  1  6
 16 18  1  0
 16 19  1  0
 20 21  1  0
 20 22  1  0
 22 23  1  0
 22 32  2  0
 23 24  2  0
 23 25  1  0
 25 26  2  0
 25 31  1  0
 26 27  1  0
 27 28  2  0
 28 29  1  0
 28 30  1  0
 30 31  2  0
M  END
