
     RDKit          3D

 32 35  0  0  0  0  0  0  0  0999 V2000
   -9.5060    0.3930    1.6630 C   0  0  0  0  0  0  0  0  0  0  0  0
   -8.3740    0.3940    0.6860 C   0  0  0  0  0  0  0  0  0  0  0  0
   -7.0710    0.3460    1.3020 N   0  0  0  0  0  0  0  0  0  0  0  0
   -6.7710   -0.8920    1.9540 C   0  0  0  0  0  0  0  0  0  0  0  0
   -5.9800   -1.8520    1.1200 C   0  0  0  0  0  0  0  0  0  0  0  0
   -6.0650   -1.6270   -0.3580 C   0  0  0  0  0  0  0  0  0  0  0  0
   -5.8890   -0.2040   -0.7700 C   0  0  2  0  0  0  0  0  0  0  0  0
   -4.5610    0.0400   -1.3900 C   0  0  0  0  0  0  0  0  0  0  0  0
   -3.3680   -0.2000   -0.8110 N   0  0  0  0  0  0  0  0  0  0  0  0
   -2.3820    0.1300   -1.6340 C   0  0  0  0  0  0  0  0  0  0  0  0
   -0.9500    0.0180   -1.3830 C   0  0  0  0  0  0  0  0  0  0  0  0
   -0.0050    0.3950   -2.3050 C   0  0  0  0  0  0  0  0  0  0  0  0
    1.3650    0.2670   -2.0270 C   0  0  0  0  0  0  0  0  0  0  0  0
    1.8370   -0.2330   -0.8430 C   0  0  0  0  0  0  0  0  0  0  0  0
    3.1980   -0.3830   -0.5130 N   0  0  0  0  0  0  0  0  0  0  0  0
    4.3190   -0.0550   -1.2770 C   0  0  0  0  0  0  0  0  0  0  0  0
    4.1720    0.4410   -2.4080 O   0  0  0  0  0  0  0  0  0  0  0  0
    5.6630   -0.2720   -0.7980 N   0  0  0  0  0  0  0  0  0  0  0  0
    6.2460    0.5860   -0.0140 C   0  0  0  0  0  0  0  0  0  0  0  0
    5.5270    1.7970    0.3910 C   0  0  0  0  0  0  0  0  0  0  0  0
    7.5930    0.2900    0.4210 C   0  0  0  0  0  0  0  0  0  0  0  0
    8.3330   -0.8530    0.0630 C   0  0  0  0  0  0  0  0  0  0  0  0
    9.5660   -0.7930    0.6620 C   0  0  0  0  0  0  0  0  0  0  0  0
   10.6510   -1.8300    0.5260 C   0  0  0  0  0  0  0  0  0  0  0  0
    9.5970    0.3050    1.3440 O   0  0  0  0  0  0  0  0  0  0  0  0
    8.4490    0.9830    1.2320 C   0  0  0  0  0  0  0  0  0  0  0  0
    8.1780    2.2850    1.9010 C   0  0  0  0  0  0  0  0  0  0  0  0
    0.8480   -0.6080    0.0760 C   0  0  0  0  0  0  0  0  0  0  0  0
   -0.4940   -0.4860   -0.1880 C   0  0  0  0  0  0  0  0  0  0  0  0
   -2.9480    0.5880   -2.7620 N   0  0  0  0  0  0  0  0  0  0  0  0
   -4.2810    0.5330   -2.6110 N   0  0  0  0  0  0  0  0  0  0  0  0
   -6.0280    0.7620    0.3880 C   0  0  0  0  0  0  0  0  0  0  0  0
  1  2  1  0
  2  3  1  0
  3  4  1  0
  3 32  1  0
  4  5  1  0
  5  6  1  0
  6  7  1  0
  7  8  1  1
  7 32  1  0
  8  9  2  0
  8 31  1  0
  9 10  1  0
 10 11  1  0
 10 30  2  0
 11 12  2  0
 11 29  1  0
 12 13  1  0
 13 14  2  0
 14 15  1  0
 14 28  1  0
 15 16  1  0
 16 17  2  0
 16 18  1  0
 18 19  2  3
 19 20  1  0
 19 21  1  0
 21 22  1  0
 21 26  2  0
 22 23  2  0
 23 24  1  0
 23 25  1  0
 25 26  1  0
 26 27  1  0
 28 29  2  0
 30 31  1  0
M  END
