
     RDKit          3D

 32 35  0  0  0  0  0  0  0  0999 V2000
    4.3170   -2.9430   -1.9700 C   0  0  0  0  0  0  0  0  0  0  0  0
    4.9220   -1.7620   -1.3320 C   0  0  0  0  0  0  0  0  0  0  0  0
    6.1200   -1.2240   -1.4530 N   0  0  0  0  0  0  0  0  0  0  0  0
    6.3060   -0.1510   -0.7110 N   0  0  0  0  0  0  0  0  0  0  0  0
    7.4660    0.7000   -0.5930 C   0  0  0  0  0  0  0  0  0  0  0  0
    7.6190    1.4030    0.5880 C   0  0  0  0  0  0  0  0  0  0  0  0
    8.7410    2.2230    0.7740 C   0  0  0  0  0  0  0  0  0  0  0  0
    9.6080    2.2470   -0.2740 C   0  0  0  0  0  0  0  0  0  0  0  0
   11.0560    3.2500   -0.0990 Cl  0  0  0  0  0  0  0  0  0  0  0  0
    9.4690    1.5810   -1.3950 N   0  0  0  0  0  0  0  0  0  0  0  0
    8.3800    0.8030   -1.5460 N   0  0  0  0  0  0  0  0  0  0  0  0
    5.1500    0.0150   -0.0640 C   0  0  0  0  0  0  0  0  0  0  0  0
    4.2500   -0.9570   -0.4130 C   0  0  0  0  0  0  0  0  0  0  0  0
    2.8440   -1.0640   -0.0190 C   0  0  0  0  0  0  0  0  0  0  0  0
    2.4010   -0.1620    0.9920 N   0  0  0  0  0  0  0  0  0  0  0  0
    1.3820    0.7400    0.4560 C   0  0  0  0  0  0  0  0  0  0  0  0
    0.0400    0.2410    0.7190 C   0  0  0  0  0  0  0  0  0  0  0  0
   -0.6580    0.4330    1.8690 C   0  0  0  0  0  0  0  0  0  0  0  0
   -1.9370   -0.0750    1.9710 C   0  0  0  0  0  0  0  0  0  0  0  0
   -2.4850   -0.7580    0.9220 C   0  0  0  0  0  0  0  0  0  0  0  0
   -3.7950   -1.3020    0.8910 N   0  0  0  0  0  0  0  0  0  0  0  0
   -4.6650   -0.6390   -0.0600 C   0  0  2  0  0  0  0  0  0  0  0  0
   -4.9920   -1.6570   -1.1570 C   0  0  0  0  0  0  0  0  0  0  0  0
   -4.1720    0.6140   -0.6740 C   0  0  0  0  0  0  0  0  0  0  0  0
   -4.5670    1.8510    0.1330 C   0  0  0  0  0  0  0  0  0  0  0  0
   -6.0390    2.0860    0.0180 C   0  0  0  0  0  0  0  0  0  0  0  0
   -6.7080    0.7340   -0.2120 C   0  0  0  0  0  0  0  0  0  0  0  0
   -5.9970   -0.2920    0.6270 C   0  0  1  0  0  0  0  0  0  0  0  0
   -6.6950   -1.4920    0.7040 O   0  0  0  0  0  0  0  0  0  0  0  0
   -5.7000    0.1740    1.9150 O   0  0  0  0  0  0  0  0  0  0  0  0
   -1.7580   -0.9290   -0.1990 N   0  0  0  0  0  0  0  0  0  0  0  0
   -0.5370   -0.4720   -0.3570 C   0  0  0  0  0  0  0  0  0  0  0  0
  1  2  1  0
  2  3  2  0
  2 13  1  0
  3  4  1  0
  4  5  1  0
  4 12  1  0
  5  6  2  0
  5 11  1  0
  6  7  1  0
  7  8  2  0
  8  9  1  0
  8 10  1  0
 10 11  2  0
 12 13  2  0
 13 14  1  0
 14 15  1  0
 15 16  1  0
 16 17  1  0
 17 18  2  0
 17 32  1  0
 18 19  1  0
 19 20  2  0
 20 21  1  0
 20 31  1  0
 21 22  1  0
 22 23  1  6
 22 24  1  0
 22 28  1  0
 24 25  1  0
 25 26  1  0
 26 27  1  0
 27 28  1  0
 28 29  1  1
 28 30  1  0
 31 32  2  0
M  CHG  1  21   1
M  END
