
     RDKit          3D

 33 37  0  0  0  0  0  0  0  0999 V2000
   -2.3320    4.1650   -0.9330 C   0  0  0  0  0  0  0  0  0  0  0  0
   -1.8300    2.8330   -0.6000 N   0  0  0  0  0  0  0  0  0  0  0  0
   -1.0160    2.6510    0.3940 C   0  0  0  0  0  0  0  0  0  0  0  0
   -0.6120    3.7740    1.1680 N   0  0  0  0  0  0  0  0  0  0  0  0
   -0.5580    1.3390    0.6820 N   0  0  0  0  0  0  0  0  0  0  0  0
   -0.4770    0.2460   -0.2590 C   0  0  1  0  0  0  0  0  0  0  0  0
    0.9330    0.0680   -0.6010 C   0  0  0  0  0  0  0  0  0  0  0  0
    2.0630   -0.1240    0.1050 C   0  0  0  0  0  0  0  0  0  0  0  0
    3.2420   -0.2300   -0.5200 C   0  0  0  0  0  0  0  0  0  0  0  0
    4.4950   -0.6220    0.2040 C   0  0  0  0  0  0  0  0  0  0  0  0
    4.4150   -1.6020    1.1520 C   0  0  0  0  0  0  0  0  0  0  0  0
    5.4840   -1.9170    1.9940 C   0  0  0  0  0  0  0  0  0  0  0  0
    6.6240   -1.1780    1.8170 C   0  0  0  0  0  0  0  0  0  0  0  0
    6.7450   -0.1690    0.8700 C   0  0  0  0  0  0  0  0  0  0  0  0
    7.8620    0.6750    0.8730 C   0  0  0  0  0  0  0  0  0  0  0  0
    8.8390    1.4020    0.8870 N   0  0  0  0  0  0  0  0  0  0  0  0
    5.6470    0.0920    0.0560 C   0  0  0  0  0  0  0  0  0  0  0  0
    3.2940   -0.1320   -1.8870 C   0  0  0  0  0  0  0  0  0  0  0  0
    1.5120    0.1180   -2.2630 S   0  0  0  0  0  0  0  0  0  0  0  0
   -1.1430   -0.9810    0.3380 C   0  0  0  0  0  0  0  0  0  0  0  0
   -2.3830   -1.1280   -0.3710 N   0  0  0  0  0  0  0  0  0  0  0  0
   -3.6870   -1.5120    0.0120 C   0  0  0  0  0  0  0  0  0  0  0  0
   -4.7390   -0.6620   -0.2170 N   0  0  0  0  0  0  0  0  0  0  0  0
   -6.0040   -0.9570    0.1010 C   0  0  0  0  0  0  0  0  0  0  0  0
   -6.3320   -2.1740    0.6980 C   0  0  0  0  0  0  0  0  0  0  0  0
   -5.3100   -3.0510    0.9440 C   0  0  0  0  0  0  0  0  0  0  0  0
   -3.9920   -2.7110    0.5990 C   0  0  0  0  0  0  0  0  0  0  0  0
   -2.9650   -3.6500    0.9120 C   0  0  0  0  0  0  0  0  0  0  0  0
   -2.1450   -4.3940    1.1420 N   0  0  0  0  0  0  0  0  0  0  0  0
   -2.0530   -0.7480   -1.7550 C   0  0  0  0  0  0  0  0  0  0  0  0
   -1.3110    0.5410   -1.4910 C   0  0  1  0  0  0  0  0  0  0  0  0
   -2.2080    1.6910   -1.3530 C   0  0  0  0  0  0  0  0  0  0  0  0
   -3.3370    1.6820   -1.9030 O   0  0  0  0  0  0  0  0  0  0  0  0
  1  2  1  0
  2  3  2  0
  2 32  1  0
  3  4  1  0
  3  5  1  0
  5  6  1  0
  6  7  1  6
  6 20  1  0
  6 31  1  0
  7  8  2  0
  7 19  1  0
  8  9  1  0
  9 10  1  0
  9 18  2  0
 10 11  2  0
 10 17  1  0
 11 12  1  0
 12 13  2  0
 13 14  1  0
 14 15  1  0
 14 17  2  0
 15 16  3  0
 18 19  1  0
 20 21  1  0
 21 22  1  0
 21 30  1  0
 22 23  2  0
 22 27  1  0
 23 24  1  0
 24 25  2  0
 25 26  1  0
 26 27  2  0
 27 28  1  0
 28 29  3  0
 31 30  1  1
 31 32  1  0
 32 33  2  0
M  CHG  1   2   1
M  END
