
     RDKit          3D

 32 35  0  0  0  0  0  0  0  0999 V2000
   -2.8880    4.3880    1.0940 C   0  0  0  0  0  0  0  0  0  0  0  0
   -3.5140    3.4680    0.3570 C   0  0  0  0  0  0  0  0  0  0  0  0
   -3.7550    2.1210    0.8430 C   0  0  0  0  0  0  0  0  0  0  0  0
   -3.2400    1.0230    0.0490 N   0  0  0  0  0  0  0  0  0  0  0  0
   -3.9150    0.2930   -0.9620 C   0  0  0  0  0  0  0  0  0  0  0  0
   -4.9780   -0.6470   -0.6030 C   0  0  0  0  0  0  0  0  0  0  0  0
   -5.0740   -1.9990   -0.6870 C   0  0  0  0  0  0  0  0  0  0  0  0
   -3.9920   -3.0100   -0.8870 C   0  0  0  0  0  0  0  0  0  0  0  0
   -6.3690   -2.3590   -0.5160 N   0  0  0  0  0  0  0  0  0  0  0  0
   -7.0690   -1.2970   -0.3360 O   0  0  0  0  0  0  0  0  0  0  0  0
   -6.2980   -0.2200   -0.3790 C   0  0  0  0  0  0  0  0  0  0  0  0
   -6.8390    1.1270   -0.2280 C   0  0  0  0  0  0  0  0  0  0  0  0
   -1.9170    0.5630    0.4370 C   0  0  0  0  0  0  0  0  0  0  0  0
   -1.4310    1.1320    1.4870 O   0  0  0  0  0  0  0  0  0  0  0  0
   -1.1580   -0.4050   -0.2390 N   0  0  0  0  0  0  0  0  0  0  0  0
    0.1720   -0.6820    0.2700 C   0  0  2  0  0  0  0  0  0  0  0  0
    1.1480    0.1750   -0.5740 C   0  0  0  0  0  0  0  0  0  0  0  0
    2.2670    0.5990    0.3700 C   0  0  0  0  0  0  0  0  0  0  0  0
    3.3050   -0.4160    0.2580 C   0  0  0  0  0  0  0  0  0  0  0  0
    4.7190   -0.0290    0.1720 C   0  0  0  0  0  0  0  0  0  0  0  0
    5.6710   -1.0320    0.0540 C   0  0  0  0  0  0  0  0  0  0  0  0
    6.9980   -0.6920   -0.0580 C   0  0  0  0  0  0  0  0  0  0  0  0
    7.4590    0.6290   -0.0620 C   0  0  0  0  0  0  0  0  0  0  0  0
    8.9070    0.9070   -0.2060 C   0  0  0  0  0  0  0  0  0  0  0  0
    6.5080    1.6040    0.0560 C   0  0  0  0  0  0  0  0  0  0  0  0
    5.1520    1.2620    0.1740 C   0  0  0  0  0  0  0  0  0  0  0  0
    3.0930   -1.6780    0.1800 N   0  0  0  0  0  0  0  0  0  0  0  0
    1.9430   -2.4900    0.1750 C   0  0  0  0  0  0  0  0  0  0  0  0
    1.9130   -3.8320    0.1190 N   0  0  0  0  0  0  0  0  0  0  0  0
    0.6720   -4.2500    0.1120 N   0  0  0  0  0  0  0  0  0  0  0  0
   -0.1870   -3.1860    0.1660 C   0  0  0  0  0  0  0  0  0  0  0  0
    0.6140   -2.0660    0.2060 C   0  0  0  0  0  0  0  0  0  0  0  0
  1  2  2  0
  2  3  1  0
  3  4  1  0
  4  5  1  0
  4 13  1  0
  5  6  1  0
  6  7  1  0
  6 11  2  0
  7  8  1  0
  7  9  2  0
  9 10  1  0
 10 11  1  0
 11 12  1  0
 13 14  2  0
 13 15  1  0
 16 15  1  6
 16 17  1  0
 16 32  1  0
 17 18  1  0
 18 19  1  0
 19 20  1  0
 19 27  2  0
 20 21  2  0
 20 26  1  0
 21 22  1  0
 22 23  2  0
 23 24  1  0
 23 25  1  0
 25 26  2  0
 27 28  1  0
 28 29  1  0
 28 32  2  0
 29 30  1  0
 30 31  2  0
 31 32  1  0
M  END
