
     RDKit          3D

 32 35  0  0  0  0  0  0  0  0999 V2000
   -3.3490    2.7740   -0.9640 C   0  0  0  0  0  0  0  0  0  0  0  0
   -3.5060    1.7030   -1.6940 C   0  0  0  0  0  0  0  0  0  0  0  0
   -3.0470    0.3600   -1.3100 C   0  0  0  0  0  0  0  0  0  0  0  0
   -3.2900   -0.6390   -2.1560 C   0  0  0  0  0  0  0  0  0  0  0  0
   -2.8560   -2.0050   -1.8600 C   0  0  0  0  0  0  0  0  0  0  0  0
   -2.4510    0.1940    0.0060 C   0  0  0  0  0  0  0  0  0  0  0  0
   -1.3410    0.9660    0.2980 N   0  0  0  0  0  0  0  0  0  0  0  0
   -0.6750    0.8820    1.4440 C   0  0  0  0  0  0  0  0  0  0  0  0
    0.5400    1.7010    1.7710 C   0  0  2  0  0  0  0  0  0  0  0  0
    0.2270    3.1380    2.0460 C   0  0  0  0  0  0  0  0  0  0  0  0
    0.2760    3.7400    0.6810 C   0  0  0  0  0  0  0  0  0  0  0  0
    1.3370    2.9150   -0.0680 C   0  0  0  0  0  0  0  0  0  0  0  0
    1.4740    1.7180    0.6800 N   0  0  0  0  0  0  0  0  0  0  0  0
    2.3720    0.6480    0.4300 C   0  0  0  0  0  0  0  0  0  0  0  0
    2.3550   -0.3550    1.2390 O   0  0  0  0  0  0  0  0  0  0  0  0
    3.3270    0.5640   -0.6630 C   0  0  0  0  0  0  0  0  0  0  0  0
    3.5930    1.3930   -1.6680 N   0  0  0  0  0  0  0  0  0  0  0  0
    4.5550    0.9300   -2.4490 N   0  0  0  0  0  0  0  0  0  0  0  0
    4.9580   -0.2480   -1.9650 C   0  0  0  0  0  0  0  0  0  0  0  0
    4.2090   -0.5100   -0.8440 C   0  0  0  0  0  0  0  0  0  0  0  0
    4.5000   -1.7810   -0.1440 C   0  0  0  0  0  0  0  0  0  0  0  0
    6.0100   -1.9190   -0.0290 C   0  0  0  0  0  0  0  0  0  0  0  0
    6.7210   -1.8910   -1.3380 C   0  0  0  0  0  0  0  0  0  0  0  0
    6.0020   -1.2020   -2.4460 C   0  0  0  0  0  0  0  0  0  0  0  0
   -1.1350   -0.0090    2.3370 N   0  0  0  0  0  0  0  0  0  0  0  0
   -2.2020   -0.7820    2.1210 C   0  0  0  0  0  0  0  0  0  0  0  0
   -2.6200   -1.6120    2.9680 O   0  0  0  0  0  0  0  0  0  0  0  0
   -2.9320   -0.7020    0.9020 C   0  0  0  0  0  0  0  0  0  0  0  0
   -4.2200   -1.3900    0.8820 C   0  0  0  0  0  0  0  0  0  0  0  0
   -5.3510   -1.0030    0.0210 C   0  0  0  0  0  0  0  0  0  0  0  0
   -4.4620   -2.3190    1.7730 N   0  0  0  0  0  0  0  0  0  0  0  0
   -5.7040   -3.0090    1.7840 C   0  0  0  0  0  0  0  0  0  0  0  0
  1  2  2  0
  2  3  1  0
  3  4  2  3
  3  6  1  0
  4  5  1  0
  6  7  1  0
  6 28  2  0
  7  8  2  0
  9  8  1  6
  8 25  1  0
  9 10  1  0
  9 13  1  0
 10 11  1  0
 11 12  1  0
 12 13  1  0
 13 14  1  0
 14 15  2  0
 14 16  1  0
 16 17  1  0
 16 20  2  0
 17 18  1  0
 18 19  2  0
 19 20  1  0
 19 24  1  0
 20 21  1  0
 21 22  1  0
 22 23  1  0
 23 24  1  0
 25 26  1  0
 26 27  2  0
 26 28  1  0
 28 29  1  0
 29 30  1  0
 29 31  2  3
 31 32  1  0
M  END
