
     RDKit          3D

 32 35  0  0  0  0  0  0  0  0999 V2000
   -5.3980    1.7440   -2.2340 C   0  0  0  0  0  0  0  0  0  0  0  0
   -5.8740    1.6560   -1.0050 C   0  0  0  0  0  0  0  0  0  0  0  0
   -5.0070    1.3520    0.0970 C   0  0  0  0  0  0  0  0  0  0  0  0
   -5.5390    1.2760    1.3460 C   0  0  0  0  0  0  0  0  0  0  0  0
   -4.6340    0.9690    2.4470 C   0  0  0  0  0  0  0  0  0  0  0  0
   -4.0300   -0.1370    2.7910 C   0  0  0  0  0  0  0  0  0  0  0  0
   -3.9180   -1.4640    2.3880 C   0  0  0  0  0  0  0  0  0  0  0  0
   -3.5420   -2.4080    1.5690 C   0  0  0  0  0  0  0  0  0  0  0  0
   -3.9380   -3.8010    2.0640 N   0  0  0  0  0  0  0  0  0  0  0  0
   -3.5660   -4.6800    1.3020 C   0  0  0  0  0  0  0  0  0  0  0  0
   -2.8880   -4.0550    0.2160 C   0  0  0  0  0  0  0  0  0  0  0  0
   -2.8660   -2.6500    0.3660 C   0  0  0  0  0  0  0  0  0  0  0  0
   -2.1560   -1.9380   -0.7040 C   0  0  0  0  0  0  0  0  0  0  0  0
   -1.3350   -1.0330   -1.0260 C   0  0  0  0  0  0  0  0  0  0  0  0
   -0.8740   -0.6930   -2.4970 C   0  0  0  0  0  0  0  0  0  0  0  0
    0.6390   -0.6510   -2.2210 C   0  0  0  0  0  0  0  0  0  0  0  0
    0.7520   -0.1520   -0.8380 N   0  0  0  0  0  0  0  0  0  0  0  0
    1.9670    0.1150   -0.1940 C   0  0  0  0  0  0  0  0  0  0  0  0
    2.0520    0.5290    0.9960 O   0  0  0  0  0  0  0  0  0  0  0  0
    3.2410   -0.0980   -0.9560 C   0  0  0  0  0  0  0  0  0  0  0  0
    4.3780    0.2330   -0.1390 N   0  0  0  0  0  0  0  0  0  0  0  0
    4.4040    1.6580    0.0980 C   0  0  0  0  0  0  0  0  0  0  0  0
    5.6440    2.2630   -0.5150 C   0  0  0  0  0  0  0  0  0  0  0  0
    6.8090    1.7110   -0.0090 O   0  0  0  0  0  0  0  0  0  0  0  0
    6.8120    0.3350    0.0250 C   0  0  1  0  0  0  0  0  0  0  0  0
    6.8390   -0.1270    1.4710 C   0  0  0  0  0  0  0  0  0  0  0  0
    5.6020   -0.2370   -0.7060 C   0  0  0  0  0  0  0  0  0  0  0  0
   -0.5790    0.0300   -0.3480 C   0  0  0  0  0  0  0  0  0  0  0  0
   -1.0670    1.0100    0.3830 C   0  0  0  0  0  0  0  0  0  0  0  0
   -0.1680    1.9500    0.9790 N   0  0  0  0  0  0  0  0  0  0  0  0
   -2.5070    1.2930    0.5720 C   0  0  0  0  0  0  0  0  0  0  0  0
   -3.5630    1.0720   -0.1110 C   0  0  0  0  0  0  0  0  0  0  0  0
  1  2  2  0
  2  3  1  0
  3  4  2  0
  3 32  1  0
  4  5  1  0
  5  6  2  0
  6  7  1  0
  7  8  2  0
  8  9  1  0
  8 12  1  0
  9 10  2  0
 10 11  1  0
 11 12  2  0
 12 13  1  0
 13 14  2  0
 14 15  1  0
 14 28  1  0
 15 16  1  0
 16 17  1  0
 17 18  1  0
 17 28  1  0
 18 19  2  0
 18 20  1  0
 20 21  1  0
 21 22  1  0
 21 27  1  0
 22 23  1  0
 23 24  1  0
 24 25  1  0
 25 26  1  1
 25 27  1  0
 28 29  2  0
 29 30  1  0
 29 31  1  0
 31 32  2  0
M  END
