
     RDKit          3D

 32 37  0  0  0  0  0  0  0  0999 V2000
   -8.5200    1.8140    0.2290 C   0  0  0  0  0  0  0  0  0  0  0  0
   -7.8010    0.9730   -0.7260 N   0  0  0  0  0  0  0  0  0  0  0  0
   -7.7320   -0.3880   -0.1930 C   0  0  0  0  0  0  0  0  0  0  0  0
   -6.2640   -0.7410   -0.1100 C   0  0  0  0  0  0  0  0  0  0  0  0
   -5.2450    0.1820   -0.3900 C   0  0  0  0  0  0  0  0  0  0  0  0
   -4.0400   -0.3920   -0.1010 C   0  0  0  0  0  0  0  0  0  0  0  0
   -2.7240    0.0680   -0.1670 C   0  0  0  0  0  0  0  0  0  0  0  0
   -1.6680   -0.6930    0.2040 C   0  0  0  0  0  0  0  0  0  0  0  0
   -1.9830   -1.9700    0.6600 C   0  0  0  0  0  0  0  0  0  0  0  0
   -3.2750   -2.4640    0.7410 C   0  0  0  0  0  0  0  0  0  0  0  0
   -4.3200   -1.6450    0.3460 C   0  0  0  0  0  0  0  0  0  0  0  0
   -5.6670   -1.8380    0.3340 N   0  0  0  0  0  0  0  0  0  0  0  0
   -0.2770   -0.2160    0.0910 C   0  0  1  0  0  0  0  0  0  0  0  0
    0.1810    0.2800    1.4070 C   0  0  0  0  0  0  0  0  0  0  0  0
    1.1520   -0.5360    2.1870 C   0  0  0  0  0  0  0  0  0  0  0  0
    1.7150   -1.7240    1.4490 C   0  0  0  0  0  0  0  0  0  0  0  0
    1.9330   -1.3580    0.1140 N   0  0  0  0  0  0  0  0  0  0  0  0
    2.7370   -0.2670   -0.2340 C   0  0  0  0  0  0  0  0  0  0  0  0
    4.1770   -0.2400    0.0280 C   0  0  0  0  0  0  0  0  0  0  0  0
    4.7420   -0.5720    1.2100 C   0  0  0  0  0  0  0  0  0  0  0  0
    6.1390   -0.4550    1.3770 C   0  0  0  0  0  0  0  0  0  0  0  0
    6.9540   -0.0080    0.3550 C   0  0  0  0  0  0  0  0  0  0  0  0
    6.3810    0.3300   -0.8500 C   0  0  0  0  0  0  0  0  0  0  0  0
    5.0400    0.2100   -0.9900 C   0  0  0  0  0  0  0  0  0  0  0  0
    7.2540    0.7810   -1.8560 O   0  0  0  0  0  0  0  0  0  0  0  0
    8.3790    1.6020   -1.4840 C   0  0  0  0  0  0  0  0  0  0  0  0
    9.1190    0.9620   -0.3230 C   0  0  0  0  0  0  0  0  0  0  0  0
    8.3150    0.1270    0.4670 O   0  0  0  0  0  0  0  0  0  0  0  0
    0.6050   -1.3260   -0.4850 C   0  0  0  0  0  0  0  0  0  0  0  0
   -0.1810    0.8850   -0.9570 C   0  0  0  0  0  0  0  0  0  0  0  0
   -1.4480    1.4170   -1.5010 C   0  0  0  0  0  0  0  0  0  0  0  0
   -2.5730    1.4210   -0.6310 N   0  0  0  0  0  0  0  0  0  0  0  0
  1  2  1  0
  2  3  1  0
  3  4  1  0
  4  5  2  0
  4 12  1  0
  5  6  1  0
  6  7  2  0
  6 11  1  0
  7  8  1  0
  7 32  1  0
  8  9  2  0
  8 13  1  0
  9 10  1  0
 10 11  2  0
 11 12  1  0
 13 14  1  1
 13 29  1  0
 13 30  1  0
 14 15  1  0
 15 16  1  0
 16 17  1  0
 17 18  1  0
 17 29  1  0
 18 19  1  0
 19 20  2  0
 19 24  1  0
 20 21  1  0
 21 22  2  0
 22 23  1  0
 22 28  1  0
 23 24  2  0
 23 25  1  0
 25 26  1  0
 26 27  1  0
 27 28  1  0
 30 31  1  0
 31 32  1  0
M  CHG  1  32   1
M  END
