
     RDKit          3D

 33 35  0  0  0  0  0  0  0  0999 V2000
   -2.8610   -1.2460    4.2680 C   0  0  0  0  0  0  0  0  0  0  0  0
   -2.7950   -1.0450    2.8410 N   0  0  0  0  0  0  0  0  0  0  0  0
   -3.0620    0.2170    2.2590 C   0  0  0  0  0  0  0  0  0  0  0  0
   -3.3700    1.2190    2.9660 O   0  0  0  0  0  0  0  0  0  0  0  0
   -3.0020    0.4220    0.8830 O   0  0  0  0  0  0  0  0  0  0  0  0
   -3.2670    1.6760    0.2940 C   0  0  2  0  0  0  0  0  0  0  0  0
   -4.3100    1.5170   -0.7820 C   0  0  0  0  0  0  0  0  0  0  0  0
   -5.5970    0.9870   -0.3300 C   0  0  0  0  0  0  0  0  0  0  0  0
   -6.7200    1.6800   -0.4500 C   0  0  0  0  0  0  0  0  0  0  0  0
   -8.0290    1.1910   -0.0130 C   0  0  0  0  0  0  0  0  0  0  0  0
   -8.0390   -0.0860    0.5270 O   0  0  0  0  0  0  0  0  0  0  0  0
   -6.8840   -0.8280    0.6620 C   0  0  0  0  0  0  0  0  0  0  0  0
   -5.7160   -0.3330    0.2600 C   0  0  0  0  0  0  0  0  0  0  0  0
   -2.0310    2.1400   -0.4440 C   0  0  0  0  0  0  0  0  0  0  0  0
   -2.0950    3.2340   -1.0230 O   0  0  0  0  0  0  0  0  0  0  0  0
   -0.8420    1.3860   -0.4900 N   0  0  0  0  0  0  0  0  0  0  0  0
    0.3570    1.7140   -1.1390 C   0  0  0  0  0  0  0  0  0  0  0  0
    0.6290    2.8410   -1.8680 C   0  0  0  0  0  0  0  0  0  0  0  0
    1.8660    3.0810   -2.4820 C   0  0  0  0  0  0  0  0  0  0  0  0
    2.8780    2.1580   -2.3650 C   0  0  0  0  0  0  0  0  0  0  0  0
    4.1460    2.0640   -2.8070 N   0  0  0  0  0  0  0  0  0  0  0  0
    4.7020    0.8960   -2.3770 C   0  0  0  0  0  0  0  0  0  0  0  0
    6.0750    0.4790   -2.6800 C   0  0  0  0  0  0  0  0  0  0  0  0
    3.7570    0.2250   -1.6370 C   0  0  0  0  0  0  0  0  0  0  0  0
    3.9400   -1.0660   -0.9950 C   0  0  0  0  0  0  0  0  0  0  0  0
    3.6530   -2.0900   -1.6660 O   0  0  0  0  0  0  0  0  0  0  0  0
    4.4010   -1.2410    0.2810 O   0  0  0  0  0  0  0  0  0  0  0  0
    4.5920   -2.4630    0.9330 C   0  0  2  0  0  0  0  0  0  0  0  0
    5.5610   -3.3740    0.2640 C   0  0  0  0  0  0  0  0  0  0  0  0
    3.2510   -3.1610    1.1960 C   0  0  0  0  0  0  0  0  0  0  0  0
    5.1470   -2.1360    2.3250 C   0  0  0  0  0  0  0  0  0  0  0  0
    2.6350    1.0120   -1.6370 C   0  0  0  0  0  0  0  0  0  0  0  0
    1.4110    0.8060   -1.0460 C   0  0  0  0  0  0  0  0  0  0  0  0
  1  2  1  0
  2  3  1  0
  3  4  2  0
  3  5  1  0
  5  6  1  0
  6  7  1  6
  6 14  1  0
  7  8  1  0
  8  9  2  0
  8 13  1  0
  9 10  1  0
 10 11  1  0
 11 12  1  0
 12 13  2  0
 14 15  2  0
 14 16  1  0
 16 17  1  0
 17 18  2  0
 17 33  1  0
 18 19  1  0
 19 20  2  0
 20 21  1  0
 20 32  1  0
 21 22  1  0
 22 23  1  0
 22 24  2  0
 24 25  1  0
 24 32  1  0
 25 26  2  0
 25 27  1  0
 27 28  1  0
 28 29  1  6
 28 30  1  0
 28 31  1  0
 32 33  2  0
M  END
