
     RDKit          3D

 33 35  0  0  0  0  0  0  0  0999 V2000
    7.5970    2.9280   -2.8150 C   0  0  0  0  0  0  0  0  0  0  0  0
    7.5910    1.9150   -1.8280 O   0  0  0  0  0  0  0  0  0  0  0  0
    6.3640    1.3860   -1.3210 C   0  0  0  0  0  0  0  0  0  0  0  0
    5.3680    1.8890   -1.8180 O   0  0  0  0  0  0  0  0  0  0  0  0
    6.4070    0.3540   -0.3150 C   0  0  0  0  0  0  0  0  0  0  0  0
    7.6730   -0.1160    0.0940 C   0  0  0  0  0  0  0  0  0  0  0  0
    7.8020   -1.1140    1.0240 C   0  0  0  0  0  0  0  0  0  0  0  0
    9.1330   -1.6240    1.4680 C   0  0  0  0  0  0  0  0  0  0  0  0
    6.6960   -1.6950    1.5920 C   0  0  0  0  0  0  0  0  0  0  0  0
    5.4540   -1.2520    1.2090 C   0  0  0  0  0  0  0  0  0  0  0  0
    5.3140   -0.2430    0.2700 C   0  0  0  0  0  0  0  0  0  0  0  0
    4.0210    0.2160   -0.0600 N   0  0  0  0  0  0  0  0  0  0  0  0
    2.7820   -0.3580    0.2770 C   0  0  0  0  0  0  0  0  0  0  0  0
    2.7080   -1.4010    0.9330 O   0  0  0  0  0  0  0  0  0  0  0  0
    1.5410    0.2710   -0.1420 N   0  0  0  0  0  0  0  0  0  0  0  0
    0.2930   -0.3590    0.2310 C   0  0  0  0  0  0  0  0  0  0  0  0
   -0.8970    0.4230   -0.2840 C   0  0  2  0  0  0  0  0  0  0  0  0
   -0.8080    1.7020    0.2940 O   0  0  0  0  0  0  0  0  0  0  0  0
   -2.1780   -0.1630    0.1240 C   0  0  0  0  0  0  0  0  0  0  0  0
   -2.2910   -1.4740    0.5690 C   0  0  0  0  0  0  0  0  0  0  0  0
   -3.5490   -1.9110    0.9260 C   0  0  0  0  0  0  0  0  0  0  0  0
   -4.6620   -1.1030    0.8530 C   0  0  0  0  0  0  0  0  0  0  0  0
   -5.9090   -1.5730    1.2180 O   0  0  0  0  0  0  0  0  0  0  0  0
   -6.1870   -2.8580    1.6840 C   0  0  0  0  0  0  0  0  0  0  0  0
   -4.5460    0.1970    0.4110 C   0  0  0  0  0  0  0  0  0  0  0  0
   -5.6450    1.0520    0.3210 O   0  0  0  0  0  0  0  0  0  0  0  0
   -6.7360    0.7680   -0.4860 C   0  0  0  0  0  0  0  0  0  0  0  0
   -6.9850   -0.3040   -1.3110 C   0  0  0  0  0  0  0  0  0  0  0  0
   -8.2350   -0.1180   -1.9110 C   0  0  0  0  0  0  0  0  0  0  0  0
   -8.7360    1.0370   -1.4630 N   0  0  0  0  0  0  0  0  0  0  0  0
   -7.8410    1.5820   -0.6020 C   0  0  0  0  0  0  0  0  0  0  0  0
   -8.0370    2.8620    0.1010 C   0  0  0  0  0  0  0  0  0  0  0  0
   -3.2990    0.6490    0.0520 C   0  0  0  0  0  0  0  0  0  0  0  0
  1  2  1  0
  2  3  1  0
  3  4  2  0
  3  5  1  0
  5  6  2  0
  5 11  1  0
  6  7  1  0
  7  8  1  0
  7  9  2  0
  9 10  1  0
 10 11  2  0
 11 12  1  0
 12 13  1  0
 13 14  2  0
 13 15  1  0
 15 16  1  0
 16 17  1  0
 17 18  1  1
 17 19  1  0
 19 20  2  0
 19 33  1  0
 20 21  1  0
 21 22  2  0
 22 23  1  0
 22 25  1  0
 23 24  1  0
 25 26  1  0
 25 33  2  0
 26 27  1  0
 27 28  1  0
 27 31  2  0
 28 29  2  0
 29 30  1  0
 30 31  1  0
 31 32  1  0
M  END
