
     RDKit          3D

 17 18  0  0  0  0  0  0  0  0999 V2000
    5.3950   -0.3890   -1.1590 N   0  0  0  0  0  0  0  0  0  0  0  0
    4.0710   -0.0610   -0.7280 C   0  0  0  0  0  0  0  0  0  0  0  0
    3.2080   -0.9340   -0.4350 O   0  0  0  0  0  0  0  0  0  0  0  0
    3.6890    1.3750   -0.6150 C   0  0  0  0  0  0  0  0  0  0  0  0
    2.6640    1.7360    0.8090 S   0  0  0  0  0  0  0  0  0  0  0  0
    1.0530    0.9780    0.6470 C   0  0  0  0  0  0  0  0  0  0  0  0
   -0.0530    1.5540    0.1130 N   0  0  0  0  0  0  0  0  0  0  0  0
   -1.1010    0.7040    0.1560 C   0  0  0  0  0  0  0  0  0  0  0  0
   -2.4240    0.8190   -0.2490 C   0  0  0  0  0  0  0  0  0  0  0  0
   -3.3330   -0.2370   -0.0810 C   0  0  0  0  0  0  0  0  0  0  0  0
   -4.7040   -0.0630   -0.5270 C   0  0  0  0  0  0  0  0  0  0  0  0
   -5.0280    1.0420   -1.0720 O   0  0  0  0  0  0  0  0  0  0  0  0
   -5.7070   -1.0110   -0.4090 O   0  0  0  0  0  0  0  0  0  0  0  0
   -2.8440   -1.3830    0.5050 C   0  0  0  0  0  0  0  0  0  0  0  0
   -1.5110   -1.4840    0.9080 C   0  0  0  0  0  0  0  0  0  0  0  0
   -0.6280   -0.4450    0.7400 C   0  0  0  0  0  0  0  0  0  0  0  0
    0.6700   -0.2510    1.0230 N   0  0  0  0  0  0  0  0  0  0  0  0
  1  2  1  0
  2  3  2  0
  2  4  1  0
  4  5  1  0
  5  6  1  0
  6  7  2  0
  6 17  1  0
  7  8  1  0
  8  9  2  0
  8 16  1  0
  9 10  1  0
 10 11  1  0
 10 14  2  0
 11 12  2  0
 11 13  1  0
 14 15  1  0
 15 16  2  0
 16 17  1  0
M  END
