
     RDKit          3D

 17 18  0  0  0  0  0  0  0  0999 V2000
   -6.2950    0.0970    0.1130 N   0  0  0  0  0  0  0  0  0  0  0  0
   -4.8520    0.1580    0.1000 C   0  0  0  0  0  0  0  0  0  0  0  0
   -3.9350    0.8750    0.2560 N   0  0  0  0  0  0  0  0  0  0  0  0
   -2.6480    0.6130    0.1670 C   0  0  0  0  0  0  0  0  0  0  0  0
   -1.5650    1.4810    0.3580 C   0  0  0  0  0  0  0  0  0  0  0  0
   -0.2840    0.9970    0.2150 C   0  0  0  0  0  0  0  0  0  0  0  0
    0.0320   -0.2950   -0.1070 C   0  0  0  0  0  0  0  0  0  0  0  0
    1.3640   -0.8350   -0.2640 C   0  0  0  0  0  0  0  0  0  0  0  0
    1.5570   -2.0630   -0.5680 O   0  0  0  0  0  0  0  0  0  0  0  0
    2.5670   -0.0820   -0.1040 N   0  0  0  0  0  0  0  0  0  0  0  0
    3.8760   -0.6810   -0.2760 C   0  0  0  0  0  0  0  0  0  0  0  0
    4.8950    0.3550   -0.0430 C   0  0  0  0  0  0  0  0  0  0  0  0
    4.5700    1.5210    0.2480 O   0  0  0  0  0  0  0  0  0  0  0  0
    6.2270    0.0140   -0.1520 O   0  0  0  0  0  0  0  0  0  0  0  0
   -1.0450   -1.1520   -0.2940 C   0  0  0  0  0  0  0  0  0  0  0  0
   -2.3290   -0.6730   -0.1520 C   0  0  0  0  0  0  0  0  0  0  0  0
   -3.9260   -1.4430   -0.3090 S   0  0  0  0  0  0  0  0  0  0  0  0
  1  2  1  0
  2  3  2  0
  2 17  1  0
  3  4  1  0
  4  5  2  0
  4 16  1  0
  5  6  1  0
  6  7  2  0
  7  8  1  0
  7 15  1  0
  8  9  2  0
  8 10  1  0
 10 11  1  0
 11 12  1  0
 12 13  2  0
 12 14  1  0
 15 16  2  0
 16 17  1  0
M  END
