
     RDKit          3D

 17 18  0  0  0  0  0  0  0  0999 V2000
    0.3030   -1.3330    0.6260 O   0  0  0  0  0  0  0  0  0  0  0  0
    0.6000   -0.1520    0.3440 C   0  0  0  0  0  0  0  0  0  0  0  0
    1.9800    0.2000    0.4620 N   0  0  0  0  0  0  0  0  0  0  0  0
    2.9430   -0.7710    0.8820 C   0  0  0  0  0  0  0  0  0  0  0  0
    4.3040   -0.1470    0.9160 C   0  0  0  0  0  0  0  0  0  0  0  0
    4.6750    0.3370   -0.4520 C   0  0  0  0  0  0  0  0  0  0  0  0
    4.6980   -0.6950   -1.3920 O   0  0  0  0  0  0  0  0  0  0  0  0
   -0.3930    0.7400   -0.0590 N   0  0  0  0  0  0  0  0  0  0  0  0
   -1.7720    0.5000   -0.2020 C   0  0  0  0  0  0  0  0  0  0  0  0
   -2.6090    1.4920   -0.7340 C   0  0  0  0  0  0  0  0  0  0  0  0
   -3.9560    1.3290   -0.8960 C   0  0  0  0  0  0  0  0  0  0  0  0
   -4.5760    0.1320   -0.5280 C   0  0  0  0  0  0  0  0  0  0  0  0
   -3.7480   -0.8320   -0.0070 C   0  0  0  0  0  0  0  0  0  0  0  0
   -2.3870   -0.6750    0.1590 C   0  0  0  0  0  0  0  0  0  0  0  0
   -4.9150   -2.1780    0.3450 S   0  0  0  0  0  0  0  0  0  0  0  0
   -6.3210   -1.1380    0.3230 O   0  0  0  0  0  0  0  0  0  0  0  0
   -5.9260   -0.2550   -0.6130 N   0  0  0  0  0  0  0  0  0  0  0  0
  1  2  2  0
  2  3  1  0
  2  8  1  0
  3  4  1  0
  4  5  1  0
  5  6  1  0
  6  7  1  0
  8  9  1  0
  9 10  2  0
  9 14  1  0
 10 11  1  0
 11 12  2  0
 12 13  1  0
 12 17  1  0
 13 14  2  0
 13 15  1  0
 15 16  1  0
 16 17  1  0
M  END
