
     RDKit          3D

 14 13  0  0  0  0  0  0  0  0999 V2000
   -3.2250   -1.5660   -0.5960 C   0  0  0  0  0  0  0  0  0  0  0  0
   -3.1520   -0.1780    0.0030 C   0  0  1  0  0  0  0  0  0  0  0  0
   -3.2450   -0.3080    1.3820 O   0  0  0  0  0  0  0  0  0  0  0  0
   -4.2750    0.2860    1.8990 O   0  0  0  0  0  0  0  0  0  0  0  0
   -1.8710    0.4450   -0.4090 C   0  0  0  0  0  0  0  0  0  0  0  0
   -1.6520    0.6240   -1.6230 O   0  0  0  0  0  0  0  0  0  0  0  0
   -0.9200    0.8310    0.5280 O   0  0  0  0  0  0  0  0  0  0  0  0
    0.2460    1.3990    0.1450 O   0  0  0  0  0  0  0  0  0  0  0  0
    1.3860    0.6230    0.0740 C   0  0  0  0  0  0  0  0  0  0  0  0
    1.2950   -0.5940    0.3700 O   0  0  0  0  0  0  0  0  0  0  0  0
    2.6500    1.1480   -0.3200 N   0  0  0  0  0  0  0  0  0  0  0  0
    3.8110    0.2870   -0.3770 C   0  0  0  0  0  0  0  0  0  0  0  0
    4.9190    1.0210   -0.7850 O   0  0  0  0  0  0  0  0  0  0  0  0
    5.9870    0.2840   -0.8490 O   0  0  0  0  0  0  0  0  0  0  0  0
  2  1  1  6
  2  3  1  0
  2  5  1  0
  3  4  1  0
  5  6  2  0
  5  7  1  0
  7  8  1  0
  8  9  1  0
  9 10  2  0
  9 11  1  0
 11 12  1  0
 12 13  1  0
 13 14  1  0
M  END
