
     RDKit          3D

 14 13  0  0  0  0  0  0  0  0999 V2000
   -3.3330    1.4690   -0.0320 O   0  0  0  0  0  0  0  0  0  0  0  0
   -4.3310    0.7860    0.2360 C   0  0  0  0  0  0  0  0  0  0  0  0
   -4.4200   -0.5390   -0.2930 O   0  0  0  0  0  0  0  0  0  0  0  0
   -3.2100   -0.7210   -1.0800 O   0  0  0  0  0  0  0  0  0  0  0  0
   -2.2810   -0.8930   -0.1010 C   0  0  0  0  0  0  0  0  0  0  0  0
   -0.8430   -0.8840   -0.2380 C   0  0  0  0  0  0  0  0  0  0  0  0
   -0.0990   -1.4990   -0.9700 O   0  0  0  0  0  0  0  0  0  0  0  0
   -0.1340    0.0880    0.6880 N   0  0  0  0  0  0  0  0  0  0  0  0
    1.1440    0.1770    0.6100 O   0  0  0  0  0  0  0  0  0  0  0  0
    2.1610    0.8250    0.0240 C   0  0  0  0  0  0  0  0  0  0  0  0
    1.8960    1.7650   -0.8130 O   0  0  0  0  0  0  0  0  0  0  0  0
    3.5170    0.3650    0.3760 C   0  0  0  0  0  0  0  0  0  0  0  0
    4.3950    0.9170   -0.5850 O   0  0  0  0  0  0  0  0  0  0  0  0
    5.0020   -0.2660   -1.0750 O   0  0  0  0  0  0  0  0  0  0  0  0
  1  2  2  0
  2  3  1  0
  3  4  1  0
  4  5  1  0
  5  6  1  0
  6  7  2  0
  6  8  1  0
  8  9  1  0
  9 10  1  0
 10 11  2  0
 10 12  1  0
 12 13  1  0
 13 14  1  0
M  END
