
     RDKit          3D

 23 24  0  0  0  0  0  0  0  0999 V2000
   -3.5760   -3.8540    1.6070 N   0  0  0  0  0  0  0  0  0  0  0  0
   -2.4090   -3.0680    1.2570 C   0  0  0  0  0  0  0  0  0  0  0  0
   -1.3300   -3.6430    1.5020 O   0  0  0  0  0  0  0  0  0  0  0  0
   -2.5560   -1.7640    0.6880 C   0  0  0  0  0  0  0  0  0  0  0  0
   -1.7050   -0.8990    0.3060 C   0  0  0  0  0  0  0  0  0  0  0  0
   -2.1900    0.3550   -0.2390 N   0  0  0  0  0  0  0  0  0  0  0  0
   -3.3300    1.0380    0.3340 C   0  0  0  0  0  0  0  0  0  0  0  0
   -3.0150    2.5290    0.2990 C   0  0  0  0  0  0  0  0  0  0  0  0
   -2.7690    2.9890   -0.9740 O   0  0  0  0  0  0  0  0  0  0  0  0
   -2.5540    2.0080   -1.9120 C   0  0  0  0  0  0  0  0  0  0  0  0
   -1.5490    0.9750   -1.3840 C   0  0  0  0  0  0  0  0  0  0  0  0
   -0.3030   -1.0200    0.3510 N   0  0  0  0  0  0  0  0  0  0  0  0
    0.3690   -2.0290    0.7870 O   0  0  0  0  0  0  0  0  0  0  0  0
    1.6000   -1.8020    0.6810 O   0  0  0  0  0  0  0  0  0  0  0  0
    1.7480   -0.6270    0.1670 N   0  0  0  0  0  0  0  0  0  0  0  0
    3.0120   -0.0250   -0.1030 C   0  0  0  0  0  0  0  0  0  0  0  0
    3.0510    1.1350   -0.6100 O   0  0  0  0  0  0  0  0  0  0  0  0
    4.1940   -0.6600    0.1680 O   0  0  0  0  0  0  0  0  0  0  0  0
    5.4470   -0.0320   -0.1140 C   0  0  0  0  0  0  0  0  0  0  0  0
    5.5680    1.1500    0.5920 O   0  0  0  0  0  0  0  0  0  0  0  0
    6.7430    1.6670    0.2810 O   0  0  0  0  0  0  0  0  0  0  0  0
    7.6210    1.4820    1.2320 O   0  0  0  0  0  0  0  0  0  0  0  0
    0.5860   -0.1320   -0.0420 O   0  0  0  0  0  0  0  0  0  0  0  0
  1  2  1  0
  2  3  2  0
  2  4  1  0
  4  5  2  3
  5  6  1  0
  5 12  1  0
  6  7  1  0
  6 11  1  0
  7  8  1  0
  8  9  1  0
  9 10  1  0
 10 11  1  0
 12 13  1  0
 12 23  1  0
 13 14  1  0
 14 15  1  0
 15 16  1  0
 15 23  1  0
 16 17  2  0
 16 18  1  0
 18 19  1  0
 19 20  1  0
 20 21  1  0
 21 22  1  0
M  END
