
     RDKit          3D

 14 14  0  0  0  0  0  0  0  0999 V2000
   -1.6530   -0.4950   -1.2240 O   0  0  0  0  0  0  0  0  0  0  0  0
   -1.3870   -0.1800   -0.1040 C   0  0  0  0  0  0  0  0  0  0  0  0
   -2.4660   -0.0630    0.9470 C   0  0  0  0  0  0  0  0  0  0  0  0
   -3.5510   -0.7340    0.2570 O   0  0  0  0  0  0  0  0  0  0  0  0
   -4.5430    0.1230    0.0160 O   0  0  0  0  0  0  0  0  0  0  0  0
   -0.0400    0.0590    0.3240 N   0  0  0  0  0  0  0  0  0  0  0  0
    0.9400   -0.0170   -0.7090 C   0  0  0  0  0  0  0  0  0  0  0  0
    2.2270    0.1220   -0.6390 C   0  0  0  0  0  0  0  0  0  0  0  0
    2.9480    0.4020    0.5940 C   0  0  0  0  0  0  0  0  0  0  0  0
    2.3080    0.6120    1.6910 O   0  0  0  0  0  0  0  0  0  0  0  0
    4.3590    0.4470    0.7100 O   0  0  0  0  0  0  0  0  0  0  0  0
    2.7560   -0.0470   -1.9280 O   0  0  0  0  0  0  0  0  0  0  0  0
    1.7350    0.1970   -2.7940 O   0  0  0  0  0  0  0  0  0  0  0  0
    0.6520   -0.2500   -2.0980 O   0  0  0  0  0  0  0  0  0  0  0  0
  1  2  2  0
  2  3  1  0
  2  6  1  0
  3  4  1  0
  4  5  1  0
  6  7  1  0
  7  8  2  0
  7 14  1  0
  8  9  1  0
  8 12  1  0
  9 10  2  0
  9 11  1  0
 12 13  1  0
 13 14  1  0
M  END
