
     RDKit          3D

 25 28  0  0  0  0  0  0  0  0999 V2000
    0.9520   -0.2500    0.9440 O   0  0  0  0  0  0  0  0  0  0  0  0
    0.4960   -0.6950   -0.1020 C   0  0  0  0  0  0  0  0  0  0  0  0
   -0.5520   -1.6920   -0.0750 N   0  0  0  0  0  0  0  0  0  0  0  0
   -1.7490   -1.2280    0.0660 C   0  0  0  0  0  0  0  0  0  0  0  0
   -2.8570   -1.9940    0.1140 N   0  0  0  0  0  0  0  0  0  0  0  0
   -3.9500   -1.2170    0.2690 C   0  0  0  0  0  0  0  0  0  0  0  0
   -5.2970   -1.4690    0.3750 C   0  0  0  0  0  0  0  0  0  0  0  0
   -6.1770   -0.4160    0.5290 C   0  0  0  0  0  0  0  0  0  0  0  0
   -5.7320    0.8920    0.5800 C   0  0  0  0  0  0  0  0  0  0  0  0
   -4.3950    1.1490    0.4760 C   0  0  0  0  0  0  0  0  0  0  0  0
   -3.5110    0.0780    0.3200 C   0  0  0  0  0  0  0  0  0  0  0  0
   -2.1810    0.0400    0.1940 N   0  0  0  0  0  0  0  0  0  0  0  0
   -6.8960    1.7980    0.7470 C   0  0  0  0  0  0  0  0  0  0  0  0
   -8.0020    0.9560    0.1090 C   0  0  0  0  0  0  0  0  0  0  0  0
   -7.6590   -0.4280    0.6610 C   0  0  0  0  0  0  0  0  0  0  0  0
    0.9370   -0.2900   -1.3020 O   0  0  0  0  0  0  0  0  0  0  0  0
    1.8810    0.5950   -1.6830 C   0  0  0  0  0  0  0  0  0  0  0  0
    3.3110    0.2730   -1.2600 C   0  0  0  0  0  0  0  0  0  0  0  0
    3.4030    0.2420    0.1540 N   0  0  0  0  0  0  0  0  0  0  0  0
    4.6950    0.0790    0.6850 C   0  0  0  0  0  0  0  0  0  0  0  0
    5.4270   -1.1760    0.4970 C   0  0  1  0  0  0  0  0  0  0  0  0
    6.1150   -1.2910   -0.8360 C   0  0  0  0  0  0  0  0  0  0  0  0
    7.1300   -0.1410   -0.7560 C   0  0  0  0  0  0  0  0  0  0  0  0
    7.3500   -0.0420    0.7110 C   0  0  0  0  0  0  0  0  0  0  0  0
    6.6100   -1.0520    1.3060 O   0  0  0  0  0  0  0  0  0  0  0  0
  1  2  2  0
  2  3  1  0
  2 16  1  0
  3  4  2  3
  4  5  1  0
  4 12  1  0
  5  6  1  0
  6  7  2  0
  6 11  1  0
  7  8  1  0
  8  9  2  0
  8 15  1  0
  9 10  1  0
  9 13  1  0
 10 11  2  0
 11 12  1  0
 13 14  1  0
 14 15  1  0
 16 17  1  0
 17 18  1  0
 18 19  1  0
 19 20  1  0
 21 20  1  6
 21 22  1  0
 21 25  1  0
 22 23  1  0
 23 24  1  0
 24 25  1  0
M  END
