
     RDKit          3D

 26 28  0  0  0  0  0  0  0  0999 V2000
   -5.1530    2.4430   -2.7910 C   0  0  0  0  0  0  0  0  0  0  0  0
   -5.4250    1.3510   -2.1020 C   0  0  0  0  0  0  0  0  0  0  0  0
   -5.2970    1.3030   -0.7090 N   0  0  0  0  0  0  0  0  0  0  0  0
   -4.4830    0.3520   -0.0100 C   0  0  0  0  0  0  0  0  0  0  0  0
   -3.1730    0.3280   -0.1340 C   0  0  0  0  0  0  0  0  0  0  0  0
   -2.2640   -0.6180    0.5510 C   0  0  2  0  0  0  0  0  0  0  0  0
   -1.3140    0.1490    1.4340 C   0  0  0  0  0  0  0  0  0  0  0  0
    0.0370    0.3810    0.8030 C   0  0  0  0  0  0  0  0  0  0  0  0
    0.6010   -0.7900    0.2200 N   0  0  0  0  0  0  0  0  0  0  0  0
    1.9870   -0.8300   -0.0730 C   0  0  0  0  0  0  0  0  0  0  0  0
    2.5360   -1.8560   -0.5940 O   0  0  0  0  0  0  0  0  0  0  0  0
    2.8560    0.2650    0.1920 N   0  0  0  0  0  0  0  0  0  0  0  0
    4.2470    0.2220   -0.1040 C   0  0  0  0  0  0  0  0  0  0  0  0
    4.9350    1.0130   -0.9140 C   0  0  0  0  0  0  0  0  0  0  0  0
    6.3470    0.5820   -0.8970 C   0  0  0  0  0  0  0  0  0  0  0  0
    7.4460    1.2080   -1.6710 C   0  0  0  0  0  0  0  0  0  0  0  0
    6.4790   -0.4530   -0.0820 C   0  0  0  0  0  0  0  0  0  0  0  0
    5.1640   -0.7610    0.4820 C   0  0  0  0  0  0  0  0  0  0  0  0
    4.8720   -1.6720    1.2960 O   0  0  0  0  0  0  0  0  0  0  0  0
   -0.2080   -1.9370   -0.0780 C   0  0  0  0  0  0  0  0  0  0  0  0
   -1.5620   -1.4410   -0.5060 C   0  0  0  0  0  0  0  0  0  0  0  0
   -2.9770   -1.5800    1.4270 C   0  0  0  0  0  0  0  0  0  0  0  0
   -2.2370   -2.4140    2.0380 O   0  0  0  0  0  0  0  0  0  0  0  0
   -4.3780   -1.5740    1.5750 N   0  0  0  0  0  0  0  0  0  0  0  0
   -5.1400   -0.6140    0.8630 C   0  0  0  0  0  0  0  0  0  0  0  0
   -6.4120   -0.6100    0.9990 O   0  0  0  0  0  0  0  0  0  0  0  0
  1  2  2  0
  2  3  1  0
  3  4  1  0
  4  5  2  0
  4 25  1  0
  5  6  1  0
  6  7  1  1
  6 21  1  0
  6 22  1  0
  7  8  1  0
  8  9  1  0
  9 10  1  0
  9 20  1  0
 10 11  2  0
 10 12  1  0
 12 13  1  0
 13 14  2  0
 13 18  1  0
 14 15  1  0
 15 16  1  0
 15 17  2  0
 17 18  1  0
 18 19  2  0
 20 21  1  0
 22 23  2  0
 22 24  1  0
 24 25  1  0
 25 26  2  0
M  END
