
     RDKit          3D

 26 29  0  0  0  0  0  0  0  0999 V2000
   -4.5810    3.2900    0.2350 C   0  0  0  0  0  0  0  0  0  0  0  0
   -4.0740    1.9740    0.1540 O   0  0  0  0  0  0  0  0  0  0  0  0
   -2.8330    1.8980    0.5900 C   0  0  0  0  0  0  0  0  0  0  0  0
   -1.9640    0.7530    0.6750 C   0  0  0  0  0  0  0  0  0  0  0  0
   -2.3380   -0.4310    0.2960 C   0  0  0  0  0  0  0  0  0  0  0  0
   -3.6620   -0.6950   -0.2500 C   0  0  0  0  0  0  0  0  0  0  0  0
   -3.8310   -1.9740   -0.5570 N   0  0  0  0  0  0  0  0  0  0  0  0
   -4.9910   -2.4900   -1.0900 N   0  0  0  0  0  0  0  0  0  0  0  0
   -6.0800   -1.5960   -1.3290 C   0  0  0  0  0  0  0  0  0  0  0  0
   -7.2370   -1.9860   -1.5690 O   0  0  0  0  0  0  0  0  0  0  0  0
   -5.8040   -0.1190   -1.2870 C   0  0  0  0  0  0  0  0  0  0  0  0
   -4.6940    0.1450   -0.4750 O   0  0  0  0  0  0  0  0  0  0  0  0
   -1.4630   -1.6370    0.3970 C   0  0  0  0  0  0  0  0  0  0  0  0
   -0.1950   -1.7740    0.5210 N   0  0  0  0  0  0  0  0  0  0  0  0
    0.8070   -0.7360    0.6050 C   0  0  0  0  0  0  0  0  0  0  0  0
    2.0800   -1.1430    0.3330 C   0  0  0  0  0  0  0  0  0  0  0  0
    3.1710   -0.3080    0.3680 C   0  0  0  0  0  0  0  0  0  0  0  0
    4.5450   -0.7600    0.0710 C   0  0  2  0  0  0  0  0  0  0  0  0
    5.4170    0.4390   -0.3210 C   0  0  0  0  0  0  0  0  0  0  0  0
    6.6290   -0.2930   -0.8980 C   0  0  0  0  0  0  0  0  0  0  0  0
    6.0690   -1.6270   -1.3450 C   0  0  0  0  0  0  0  0  0  0  0  0
    4.6420   -1.5880   -1.0850 N   0  0  0  0  0  0  0  0  0  0  0  0
    2.9280    1.0060    0.7010 C   0  0  0  0  0  0  0  0  0  0  0  0
    1.6450    1.4630    0.9850 C   0  0  0  0  0  0  0  0  0  0  0  0
    0.5650    0.5900    0.9400 C   0  0  0  0  0  0  0  0  0  0  0  0
   -0.6560    1.1120    1.2300 O   0  0  0  0  0  0  0  0  0  0  0  0
  1  2  1  0
  2  3  1  0
  3  4  1  0
  4  5  2  0
  4 26  1  0
  5  6  1  0
  5 13  1  0
  6  7  2  0
  6 12  1  0
  7  8  1  0
  8  9  1  0
  9 10  2  0
  9 11  1  0
 11 12  1  0
 13 14  2  0
 14 15  1  0
 15 16  2  0
 15 25  1  0
 16 17  1  0
 18 17  1  6
 17 23  2  0
 18 19  1  0
 18 22  1  0
 19 20  1  0
 20 21  1  0
 21 22  1  0
 23 24  1  0
 24 25  2  0
 25 26  1  0
M  END
