
     RDKit          3D

  9  8  0  0  0  0  0  0  0  0999 V2000
   -1.5080   -0.9800    0.6790 C   0  0  0  0  0  0  0  0  0  0  0  0
   -0.8460   -0.0080   -0.2450 C   0  0  1  0  0  0  0  0  0  0  0  0
   -1.9120    0.9970   -0.6870 C   0  0  0  0  0  0  0  0  0  0  0  0
    0.2450    0.7990    0.4210 C   0  0  0  0  0  0  0  0  0  0  0  0
    1.3300   -0.0590    0.9580 C   0  0  0  0  0  0  0  0  0  0  0  0
    1.2390   -0.6210    2.0680 O   0  0  0  0  0  0  0  0  0  0  0  0
    2.5220   -0.2390    0.1590 C   0  0  0  0  0  0  0  0  0  0  0  0
    2.6280    0.3160   -0.9600 O   0  0  0  0  0  0  0  0  0  0  0  0
    3.5360   -1.0440    0.6750 O   0  0  0  0  0  0  0  0  0  0  0  0
  2  1  1  1
  2  3  1  0
  2  4  1  0
  4  5  1  0
  5  6  2  0
  5  7  1  0
  7  8  2  0
  7  9  1  0
M  END
