
     RDKit          3D

 26 29  0  0  0  0  0  0  0  0999 V2000
    0.5960    4.5130   -0.3180 C   0  0  0  0  0  0  0  0  0  0  0  0
   -0.7810    4.3640    0.2900 C   0  0  0  0  0  0  0  0  0  0  0  0
   -1.3230    3.1220   -0.0440 O   0  0  0  0  0  0  0  0  0  0  0  0
   -0.7990    1.8890    0.2610 C   0  0  0  0  0  0  0  0  0  0  0  0
    0.3720    1.7510    0.9640 C   0  0  0  0  0  0  0  0  0  0  0  0
    0.9040    0.5200    1.2740 C   0  0  0  0  0  0  0  0  0  0  0  0
    2.0820    0.4060    1.9810 C   0  0  0  0  0  0  0  0  0  0  0  0
    2.5640   -0.8640    2.2600 C   0  0  0  0  0  0  0  0  0  0  0  0
    3.7360   -1.0530    2.9630 C   0  0  0  0  0  0  0  0  0  0  0  0
    4.4120   -0.0820    3.3770 O   0  0  0  0  0  0  0  0  0  0  0  0
    4.1670   -2.3130    3.2120 N   0  0  0  0  0  0  0  0  0  0  0  0
    3.4510   -3.3650    2.7740 C   0  0  0  0  0  0  0  0  0  0  0  0
    3.8710   -4.5330    3.0160 O   0  0  0  0  0  0  0  0  0  0  0  0
    2.3000   -3.2070    2.0830 N   0  0  0  0  0  0  0  0  0  0  0  0
    1.8420   -1.9630    1.8180 C   0  0  0  0  0  0  0  0  0  0  0  0
    0.6970   -1.7950    1.1310 N   0  0  0  0  0  0  0  0  0  0  0  0
    0.1950   -0.5770    0.8390 C   0  0  0  0  0  0  0  0  0  0  0  0
   -1.0030   -0.4570    0.1200 C   0  0  0  0  0  0  0  0  0  0  0  0
   -1.5170    0.7690   -0.1790 C   0  0  0  0  0  0  0  0  0  0  0  0
   -2.6670    0.9270   -0.8720 O   0  0  0  0  0  0  0  0  0  0  0  0
   -3.5080   -0.0070   -1.4070 C   0  0  0  0  0  0  0  0  0  0  0  0
   -2.9180   -0.8790   -2.4570 C   0  0  0  0  0  0  0  0  0  0  0  0
   -2.7690   -2.1890   -2.5190 C   0  0  0  0  0  0  0  0  0  0  0  0
   -2.1150   -2.5420   -3.8000 C   0  0  0  0  0  0  0  0  0  0  0  0
   -1.9240   -1.2190   -4.4400 C   0  0  0  0  0  0  0  0  0  0  0  0
   -2.3850   -0.3050   -3.6630 N   0  0  0  0  0  0  0  0  0  0  0  0
  1  2  1  0
  2  3  1  0
  3  4  1  0
  4  5  2  0
  4 19  1  0
  5  6  1  0
  6  7  2  0
  6 17  1  0
  7  8  1  0
  8  9  1  0
  8 15  2  0
  9 10  2  0
  9 11  1  0
 11 12  1  0
 12 13  2  0
 12 14  1  0
 14 15  1  0
 15 16  1  0
 16 17  2  0
 17 18  1  0
 18 19  2  0
 19 20  1  0
 20 21  1  0
 21 22  1  0
 22 23  2  0
 22 26  1  0
 23 24  1  0
 24 25  1  0
 25 26  2  0
M  END
