
     RDKit          3D

 26 28  0  0  0  0  0  0  0  0999 V2000
   -0.9330    4.7330    1.7980 C   0  0  0  0  0  0  0  0  0  0  0  0
   -1.4180    3.9130    0.8860 C   0  0  0  0  0  0  0  0  0  0  0  0
   -2.5790    3.0610    1.2220 C   0  0  0  0  0  0  0  0  0  0  0  0
   -2.2320    1.6530    1.0830 N   0  0  0  0  0  0  0  0  0  0  0  0
   -1.7990    1.0890   -0.1450 C   0  0  0  0  0  0  0  0  0  0  0  0
   -1.7110    1.8280   -1.1550 O   0  0  0  0  0  0  0  0  0  0  0  0
   -1.4430   -0.3440   -0.2990 C   0  0  1  0  0  0  0  0  0  0  0  0
   -2.6100   -1.1490    0.1710 C   0  0  0  0  0  0  0  0  0  0  0  0
   -2.4070   -2.6070    0.0800 C   0  0  0  0  0  0  0  0  0  0  0  0
   -1.3550   -3.2470   -0.3510 C   0  0  0  0  0  0  0  0  0  0  0  0
   -1.5720   -4.7350   -0.2710 C   0  0  0  0  0  0  0  0  0  0  0  0
   -2.9420   -4.8030    0.2850 C   0  0  0  0  0  0  0  0  0  0  0  0
   -3.4040   -3.5930    0.4800 C   0  0  0  0  0  0  0  0  0  0  0  0
   -1.0430   -0.6320   -1.6430 N   0  0  0  0  0  0  0  0  0  0  0  0
    0.3260   -0.1860   -1.7320 C   0  0  0  0  0  0  0  0  0  0  0  0
    0.9190    0.1380   -2.8060 O   0  0  0  0  0  0  0  0  0  0  0  0
    0.8620   -0.1810   -0.4150 N   0  0  0  0  0  0  0  0  0  0  0  0
    2.2090    0.2020   -0.0490 C   0  0  2  0  0  0  0  0  0  0  0  0
    2.5570    1.5890   -0.4920 C   0  0  0  0  0  0  0  0  0  0  0  0
    4.0330    1.7330   -0.8280 C   0  0  0  0  0  0  0  0  0  0  0  0
    4.8830    0.7660   -0.0210 C   0  0  0  0  0  0  0  0  0  0  0  0
    4.5280   -0.5720   -0.4850 N   0  0  0  0  0  0  0  0  0  0  0  0
    3.1310   -0.8200   -0.6610 C   0  0  0  0  0  0  0  0  0  0  0  0
    2.7040   -1.8200   -1.2830 O   0  0  0  0  0  0  0  0  0  0  0  0
   -0.1980   -0.6280    0.4570 C   0  0  0  0  0  0  0  0  0  0  0  0
   -0.0280   -1.1360    1.5900 O   0  0  0  0  0  0  0  0  0  0  0  0
  1  2  2  0
  2  3  1  0
  3  4  1  0
  4  5  1  0
  5  6  2  0
  5  7  1  0
  7  8  1  1
  7 14  1  0
  7 25  1  0
  8  9  1  0
  9 10  2  0
  9 13  1  0
 10 11  1  0
 11 12  1  0
 12 13  2  0
 14 15  1  0
 15 16  2  0
 15 17  1  0
 18 17  1  6
 17 25  1  0
 18 19  1  0
 18 23  1  0
 19 20  1  0
 20 21  1  0
 21 22  1  0
 22 23  1  0
 23 24  2  0
 25 26  2  0
M  END
