
     RDKit          3D

 26 29  0  0  0  0  0  0  0  0999 V2000
    3.5910    1.4280   -0.7310 O   0  0  0  0  0  0  0  0  0  0  0  0
    3.2160    0.9570    0.3590 C   0  0  0  0  0  0  0  0  0  0  0  0
    4.1290    1.0670    1.4650 N   0  0  0  0  0  0  0  0  0  0  0  0
    5.3660    1.6540    1.3830 N   0  0  0  0  0  0  0  0  0  0  0  0
    6.4290    0.8100    0.9290 C   0  0  1  0  0  0  0  0  0  0  0  0
    6.7860   -0.4080    1.6830 C   0  0  0  0  0  0  0  0  0  0  0  0
    6.1520   -0.5210    0.3280 C   0  0  0  0  0  0  0  0  0  0  0  0
    1.9550    0.3500    0.4870 N   0  0  0  0  0  0  0  0  0  0  0  0
    0.9880    0.1840   -0.5370 C   0  0  0  0  0  0  0  0  0  0  0  0
    1.3040    0.2920   -1.8660 C   0  0  0  0  0  0  0  0  0  0  0  0
    0.3020    0.1470   -2.8410 C   0  0  0  0  0  0  0  0  0  0  0  0
   -0.9880   -0.1030   -2.4400 C   0  0  0  0  0  0  0  0  0  0  0  0
   -1.3300   -0.2160   -1.1100 C   0  0  0  0  0  0  0  0  0  0  0  0
   -2.6760   -0.4740   -0.6930 N   0  0  0  0  0  0  0  0  0  0  0  0
   -3.4050   -1.4650   -1.2660 C   0  0  0  0  0  0  0  0  0  0  0  0
   -2.7950   -2.1240   -2.1750 O   0  0  0  0  0  0  0  0  0  0  0  0
   -4.6430   -1.7360   -0.9210 O   0  0  0  0  0  0  0  0  0  0  0  0
   -5.2810   -1.0670    0.0110 C   0  0  0  0  0  0  0  0  0  0  0  0
   -6.5920   -1.3980    0.3350 C   0  0  0  0  0  0  0  0  0  0  0  0
   -7.2390   -0.6780    1.3180 C   0  0  0  0  0  0  0  0  0  0  0  0
   -6.5460    0.3570    1.9500 C   0  0  0  0  0  0  0  0  0  0  0  0
   -5.2450    0.6730    1.6170 C   0  0  0  0  0  0  0  0  0  0  0  0
   -4.5980   -0.0450    0.6350 C   0  0  0  0  0  0  0  0  0  0  0  0
   -3.2830    0.2430    0.2690 C   0  0  0  0  0  0  0  0  0  0  0  0
   -2.6740    1.1730    0.8430 O   0  0  0  0  0  0  0  0  0  0  0  0
   -0.3500   -0.0740   -0.1680 C   0  0  0  0  0  0  0  0  0  0  0  0
  1  2  2  0
  2  3  1  0
  2  8  1  0
  3  4  1  0
  5  4  1  1
  5  6  1  0
  5  7  1  0
  6  7  1  0
  8  9  1  0
  9 10  2  0
  9 26  1  0
 10 11  1  0
 11 12  2  0
 12 13  1  0
 13 14  1  0
 13 26  2  0
 14 15  1  0
 14 24  1  0
 15 16  2  0
 15 17  1  0
 17 18  1  0
 18 19  2  0
 18 23  1  0
 19 20  1  0
 20 21  2  0
 21 22  1  0
 22 23  2  0
 23 24  1  0
 24 25  2  0
M  END
