
     RDKit          3D

 14 15  0  0  0  0  0  0  0  0999 V2000
    4.0570    0.9830   -0.1100 C   0  0  0  0  0  0  0  0  0  0  0  0
    2.5440    1.0780   -0.1160 C   0  0  0  0  0  0  0  0  0  0  0  0
    2.0130   -0.1920    0.0780 O   0  0  0  0  0  0  0  0  0  0  0  0
    0.6180   -0.3770    0.1140 C   0  0  0  0  0  0  0  0  0  0  0  0
   -0.2550    0.6810   -0.0410 C   0  0  0  0  0  0  0  0  0  0  0  0
   -1.6210    0.4660   -0.0010 C   0  0  0  0  0  0  0  0  0  0  0  0
   -2.6850    1.3440   -0.1280 C   0  0  0  0  0  0  0  0  0  0  0  0
   -3.8010    0.6060   -0.0110 N   0  0  0  0  0  0  0  0  0  0  0  0
   -3.4970   -0.6660    0.1800 N   0  0  0  0  0  0  0  0  0  0  0  0
   -4.3800   -1.7250    0.3450 O   0  0  0  0  0  0  0  0  0  0  0  0
   -2.1590   -0.7930    0.1920 C   0  0  0  0  0  0  0  0  0  0  0  0
   -1.2940   -1.8560    0.3480 C   0  0  0  0  0  0  0  0  0  0  0  0
    0.0660   -1.6240    0.3050 C   0  0  0  0  0  0  0  0  0  0  0  0
    0.9390   -2.6920    0.4620 O   0  0  0  0  0  0  0  0  0  0  0  0
  1  2  1  0
  2  3  1  0
  3  4  1  0
  4  5  2  0
  4 13  1  0
  5  6  1  0
  6  7  2  0
  6 11  1  0
  7  8  1  0
  8  9  1  0
  9 10  1  0
  9 11  2  0
 11 12  1  0
 12 13  2  0
 13 14  1  0
M  CHG  2   9   1  10  -1
M  END
