
     RDKit          3D

 14 16  0  0  0  0  0  0  0  0999 V2000
    2.9250    1.7690    0.4360 O   0  0  0  0  0  0  0  0  0  0  0  0
    2.1040    0.8640    0.2710 C   0  0  0  0  0  0  0  0  0  0  0  0
    2.3740   -0.5680    0.1450 N   0  0  0  0  0  0  0  0  0  0  0  0
    1.1080   -1.2270   -0.0330 C   0  0  0  0  0  0  0  0  0  0  0  0
    0.3790   -2.3410   -0.2110 C   0  0  0  0  0  0  0  0  0  0  0  0
   -1.0640   -1.9780   -0.2970 C   0  0  0  0  0  0  0  0  0  0  0  0
   -2.0680   -2.6850   -0.4570 O   0  0  0  0  0  0  0  0  0  0  0  0
   -1.1320   -0.5250   -0.1520 C   0  0  0  0  0  0  0  0  0  0  0  0
    0.1620   -0.1540   -0.0020 C   0  0  0  0  0  0  0  0  0  0  0  0
    0.6700    1.0820    0.1700 C   0  0  0  0  0  0  0  0  0  0  0  0
   -0.2670    2.1120    0.1970 C   0  0  0  0  0  0  0  0  0  0  0  0
   -1.6040    1.7690    0.0460 C   0  0  0  0  0  0  0  0  0  0  0  0
   -2.0470    0.4820   -0.1260 N   0  0  0  0  0  0  0  0  0  0  0  0
   -3.3360    0.1210   -0.2740 O   0  0  0  0  0  0  0  0  0  0  0  0
  1  2  2  0
  2  3  1  0
  2 10  1  0
  3  4  1  0
  4  5  2  0
  4  9  1  0
  5  6  1  0
  6  7  2  0
  6  8  1  0
  8  9  2  0
  8 13  1  0
  9 10  1  0
 10 11  2  0
 11 12  1  0
 12 13  2  0
 13 14  1  0
M  CHG  2  13   1  14  -1
M  END
