
     RDKit          3D

 14 15  0  0  0  0  0  0  0  0999 V2000
    3.4580    0.4500   -0.0160 C   0  0  0  0  0  0  0  0  0  0  0  0
    2.4870   -0.6150    0.0890 N   0  0  0  0  0  0  0  0  0  0  0  0
    1.0740   -0.3540    0.0500 C   0  0  0  0  0  0  0  0  0  0  0  0
    0.5850    0.9280   -0.0890 C   0  0  0  0  0  0  0  0  0  0  0  0
   -0.7810    1.1490   -0.1230 C   0  0  0  0  0  0  0  0  0  0  0  0
   -1.2800    2.4730   -0.2670 N   0  0  0  0  0  0  0  0  0  0  0  0
   -0.6510    3.4870    0.1140 O   0  0  0  0  0  0  0  0  0  0  0  0
   -2.5070    2.6800   -0.8490 O   0  0  0  0  0  0  0  0  0  0  0  0
   -1.7010    0.1240   -0.0220 C   0  0  0  0  0  0  0  0  0  0  0  0
   -3.0090    0.0640   -0.0260 O   0  0  0  0  0  0  0  0  0  0  0  0
   -3.4370   -1.1670    0.1010 C   0  0  0  0  0  0  0  0  0  0  0  0
   -2.3180   -1.9730    0.1950 C   0  0  0  0  0  0  0  0  0  0  0  0
   -1.2100   -1.1570    0.1170 C   0  0  0  0  0  0  0  0  0  0  0  0
    0.1520   -1.3750    0.1510 C   0  0  0  0  0  0  0  0  0  0  0  0
  1  2  1  0
  2  3  1  0
  3  4  2  0
  3 14  1  0
  4  5  1  0
  5  6  1  0
  5  9  2  0
  6  7  2  0
  6  8  1  0
  9 10  1  0
  9 13  1  0
 10 11  1  0
 11 12  2  0
 12 13  1  0
 13 14  2  0
M  CHG  2   6   1   8  -1
M  END
