
     RDKit          3D

  9  8  0  0  0  0  0  0  0  0999 V2000
   -1.7650    1.8190    0.6140 C   0  0  0  0  0  0  0  0  0  0  0  0
   -1.1640    0.7800    0.0950 C   0  0  0  0  0  0  0  0  0  0  0  0
   -1.8580   -0.0720   -0.8930 C   0  0  0  0  0  0  0  0  0  0  0  0
   -1.2100   -0.1250   -2.1200 O   0  0  0  0  0  0  0  0  0  0  0  0
    0.1810    0.4660    0.4880 C   0  0  0  0  0  0  0  0  0  0  0  0
    0.9810    1.4810    1.6510 Cl  0  0  0  0  0  0  0  0  0  0  0  0
    0.8090   -0.5690   -0.0160 C   0  0  0  0  0  0  0  0  0  0  0  0
    2.1980   -0.8730    0.4050 C   0  0  0  0  0  0  0  0  0  0  0  0
    3.0740   -0.8470   -0.6860 O   0  0  0  0  0  0  0  0  0  0  0  0
  1  2  2  0
  2  3  1  0
  2  5  1  0
  3  4  1  0
  5  6  1  0
  5  7  2  3
  7  8  1  0
  8  9  1  0
M  END
