
     RDKit          3D

  9  8  0  0  0  0  0  0  0  0999 V2000
   -1.9120    1.2650    0.4520 C   0  0  0  0  0  0  0  0  0  0  0  0
   -1.0920    0.2840   -0.3530 C   0  0  2  0  0  0  0  0  0  0  0  0
   -1.6410   -1.1060   -0.1180 C   0  0  0  0  0  0  0  0  0  0  0  0
    0.3400    0.4090    0.0980 C   0  0  0  0  0  0  0  0  0  0  0  0
    1.2670   -0.5300   -0.6410 C   0  0  1  0  0  0  0  0  0  0  0  0
    1.2540   -0.2240   -2.3780 Cl  0  0  0  0  0  0  0  0  0  0  0  0
    2.6170   -0.3120   -0.1030 C   0  0  0  0  0  0  0  0  0  0  0  0
    3.5340    0.0610   -0.8490 O   0  0  0  0  0  0  0  0  0  0  0  0
    2.8570   -0.5250    1.2300 O   0  0  0  0  0  0  0  0  0  0  0  0
  2  1  1  1
  2  3  1  0
  2  4  1  0
  4  5  1  0
  5  6  1  6
  5  7  1  0
  7  8  2  0
  7  9  1  0
M  END
