
     RDKit          3D

  9  8  0  0  0  0  0  0  0  0999 V2000
    3.7440   -1.1830    0.5390 O   0  0  0  0  0  0  0  0  0  0  0  0
    2.4850   -0.8350    0.9720 C   0  0  0  0  0  0  0  0  0  0  0  0
    1.5890   -0.4490    0.1140 C   0  0  0  0  0  0  0  0  0  0  0  0
    0.2660   -0.0880    0.5990 C   0  0  0  0  0  0  0  0  0  0  0  0
   -0.7340    0.3150   -0.1320 C   0  0  0  0  0  0  0  0  0  0  0  0
   -2.0290    0.6420    0.5700 C   0  0  0  0  0  0  0  0  0  0  0  0
   -2.9790   -0.2120    0.0320 O   0  0  0  0  0  0  0  0  0  0  0  0
   -0.6670    0.4670   -1.5970 C   0  0  0  0  0  0  0  0  0  0  0  0
   -1.0020    2.1740   -2.0540 Cl  0  0  0  0  0  0  0  0  0  0  0  0
  1  2  1  0
  2  3  2  3
  3  4  1  0
  4  5  2  3
  5  6  1  0
  5  8  1  0
  6  7  1  0
  8  9  1  0
M  END
