
     RDKit          3D

  9  8  0  0  0  0  0  0  0  0999 V2000
   -0.5930   -2.6220   -0.2430 C   0  0  0  0  0  0  0  0  0  0  0  0
   -1.1420   -1.4930   -0.6150 C   0  0  0  0  0  0  0  0  0  0  0  0
   -0.6550   -0.2490   -0.0760 C   0  0  0  0  0  0  0  0  0  0  0  0
   -1.2140    0.8840   -0.4570 C   0  0  0  0  0  0  0  0  0  0  0  0
   -0.7560    2.2020    0.0630 C   0  0  0  0  0  0  0  0  0  0  0  0
   -0.2150    3.1800   -1.3010 Cl  0  0  0  0  0  0  0  0  0  0  0  0
    0.3930   -0.2380    0.8350 O   0  0  0  0  0  0  0  0  0  0  0  0
    1.7010   -0.0450    0.3380 C   0  0  0  0  0  0  0  0  0  0  0  0
    2.6650   -0.0490    1.3090 O   0  0  0  0  0  0  0  0  0  0  0  0
  1  2  2  0
  2  3  1  0
  3  4  2  3
  3  7  1  0
  4  5  1  0
  5  6  1  0
  7  8  1  0
  8  9  1  0
M  END
