
     RDKit          3D

  9  8  0  0  0  0  0  0  0  0999 V2000
   -0.0320   -1.8580   -0.1790 C   0  0  0  0  0  0  0  0  0  0  0  0
   -0.3770   -0.6230    0.1070 C   0  0  0  0  0  0  0  0  0  0  0  0
    0.5390    0.4520    0.4880 C   0  0  0  0  0  0  0  0  0  0  0  0
    1.8700    0.1980    0.5400 O   0  0  0  0  0  0  0  0  0  0  0  0
    2.5580    0.0190   -0.6150 C   0  0  0  0  0  0  0  0  0  0  0  0
   -1.8180   -0.3420    0.0200 C   0  0  0  0  0  0  0  0  0  0  0  0
   -2.9450   -1.6300   -0.4380 Cl  0  0  0  0  0  0  0  0  0  0  0  0
   -2.3520    0.8210    0.2610 C   0  0  0  0  0  0  0  0  0  0  0  0
   -1.6190    1.9060    0.6220 O   0  0  0  0  0  0  0  0  0  0  0  0
  1  2  2  0
  2  3  1  0
  2  6  1  0
  3  4  1  0
  4  5  1  0
  6  7  1  0
  6  8  2  3
  8  9  1  0
M  END
