
     RDKit          3D

 23 25  0  0  0  0  0  0  0  0999 V2000
   -5.6720    1.1170    0.5490 C   0  0  0  0  0  0  0  0  0  0  0  0
   -5.5070   -0.3680    0.5300 C   0  0  1  0  0  0  0  0  0  0  0  0
   -5.8580   -0.8690   -0.8540 C   0  0  0  0  0  0  0  0  0  0  0  0
   -4.6960   -0.9600   -1.7910 C   0  0  0  0  0  0  0  0  0  0  0  0
   -3.4580    0.3150   -1.5600 S   0  0  0  0  0  0  0  0  0  0  0  0
   -1.9260   -0.3620   -0.8670 C   0  0  0  0  0  0  0  0  0  0  0  0
   -1.8240   -0.1750    0.6060 C   0  0  1  0  0  0  0  0  0  0  0  0
   -0.8510    0.8550    0.9140 N   0  0  0  0  0  0  0  0  0  0  0  0
    0.5260    0.7260    0.6590 C   0  0  0  0  0  0  0  0  0  0  0  0
    1.3590    1.7900    0.9990 C   0  0  0  0  0  0  0  0  0  0  0  0
    2.7280    1.6760    0.7720 C   0  0  0  0  0  0  0  0  0  0  0  0
    3.2150    0.5190    0.2200 C   0  0  0  0  0  0  0  0  0  0  0  0
    4.5980    0.3390   -0.0300 N   0  0  0  0  0  0  0  0  0  0  0  0
    4.9940   -0.9200   -0.6710 C   0  0  0  0  0  0  0  0  0  0  0  0
    6.4600   -1.0140   -0.9340 C   0  0  0  0  0  0  0  0  0  0  0  0
    7.2150   -0.5380    0.2060 N   0  0  0  0  0  0  0  0  0  0  0  0
    6.7830    0.6320    0.9000 C   0  0  0  0  0  0  0  0  0  0  0  0
    7.3660    1.0360    1.9170 O   0  0  0  0  0  0  0  0  0  0  0  0
    5.5840    1.3340    0.3190 C   0  0  0  0  0  0  0  0  0  0  0  0
    2.3180   -0.5060   -0.0950 C   0  0  0  0  0  0  0  0  0  0  0  0
    0.9880   -0.3950    0.1260 N   0  0  0  0  0  0  0  0  0  0  0  0
   -3.1470    0.0960    1.2870 C   0  0  0  0  0  0  0  0  0  0  0  0
   -4.2000   -0.8980    0.9390 C   0  0  0  0  0  0  0  0  0  0  0  0
  2  1  1  6
  2  3  1  0
  2 23  1  0
  3  4  1  0
  4  5  1  0
  5  6  1  0
  6  7  1  0
  7  8  1  6
  7 22  1  0
  8  9  1  0
  9 10  2  0
  9 21  1  0
 10 11  1  0
 11 12  2  0
 12 13  1  0
 12 20  1  0
 13 14  1  0
 13 19  1  0
 14 15  1  0
 15 16  1  0
 16 17  1  0
 17 18  2  0
 17 19  1  0
 20 21  2  0
 22 23  1  0
M  CHG  1  21   1
M  END
