
     RDKit          3D

 23 25  0  0  0  0  0  0  0  0999 V2000
   -5.6090    0.6890   -1.8130 C   0  0  0  0  0  0  0  0  0  0  0  0
   -4.8630    0.8530   -0.5040 C   0  0  1  0  0  0  0  0  0  0  0  0
   -5.8330    1.1850    0.6200 C   0  0  0  0  0  0  0  0  0  0  0  0
   -4.1260   -0.3620   -0.1230 C   0  0  0  0  0  0  0  0  0  0  0  0
   -2.8250   -0.5060    0.0290 C   0  0  0  0  0  0  0  0  0  0  0  0
   -2.2130   -1.8120    0.4230 C   0  0  0  0  0  0  0  0  0  0  0  0
   -0.7860   -1.6150    0.9000 C   0  0  0  0  0  0  0  0  0  0  0  0
   -0.0060   -0.8950   -0.1870 C   0  0  0  0  0  0  0  0  0  0  0  0
   -0.6120    0.1600   -0.6560 C   0  0  0  0  0  0  0  0  0  0  0  0
    0.2890    1.0490   -1.9610 S   0  0  0  0  0  0  0  0  0  0  0  0
    1.9920    0.7510   -1.5340 C   0  0  0  0  0  0  0  0  0  0  0  0
    2.3080   -0.6620   -1.1670 C   0  0  1  0  0  0  0  0  0  0  0  0
    3.5140   -0.6040   -0.2910 C   0  0  0  0  0  0  0  0  0  0  0  0
    3.4260   -1.0420    0.8690 O   0  0  0  0  0  0  0  0  0  0  0  0
    4.7520   -0.0740   -0.7210 N   0  0  0  0  0  0  0  0  0  0  0  0
    5.9200    0.0010    0.0740 C   0  0  0  0  0  0  0  0  0  0  0  0
    6.1100   -0.3980    1.3710 C   0  0  0  0  0  0  0  0  0  0  0  0
    7.4060   -0.1230    1.7080 N   0  0  0  0  0  0  0  0  0  0  0  0
    8.0300    0.4280    0.6830 N   0  0  0  0  0  0  0  0  0  0  0  0
    7.1280    0.5130   -0.3380 C   0  0  0  0  0  0  0  0  0  0  0  0
    1.2710   -1.4680   -0.5430 C   0  0  0  0  0  0  0  0  0  0  0  0
   -1.9300    0.6480   -0.1910 C   0  0  2  0  0  0  0  0  0  0  0  0
   -1.8310    1.3520    1.0770 N   0  0  0  0  0  0  0  0  0  0  0  0
  2  1  1  6
  2  3  1  0
  2  4  1  0
  4  5  2  3
  5  6  1  0
  5 22  1  0
  6  7  1  0
  7  8  1  0
  8  9  2  0
  8 21  1  0
  9 10  1  0
  9 22  1  0
 10 11  1  0
 11 12  1  0
 12 13  1  1
 12 21  1  0
 13 14  2  0
 13 15  1  0
 15 16  1  0
 16 17  1  0
 16 20  2  0
 17 18  2  0
 18 19  1  0
 19 20  1  0
 22 23  1  1
M  CHG  1  23   1
M  END
