
     RDKit          3D

 23 25  0  0  0  0  0  0  0  0999 V2000
   -5.6530   -0.9490   -0.3060 C   0  0  0  0  0  0  0  0  0  0  0  0
   -4.2580   -0.5790   -0.3510 N   0  0  0  0  0  0  0  0  0  0  0  0
   -3.8430    0.6540   -0.1220 C   0  0  0  0  0  0  0  0  0  0  0  0
   -4.7920    1.6710    0.1460 N   0  0  0  0  0  0  0  0  0  0  0  0
   -2.5010    0.9580   -0.0470 N   0  0  0  0  0  0  0  0  0  0  0  0
   -1.5700   -0.0940    0.3320 C   0  0  2  0  0  0  0  0  0  0  0  0
   -1.9620   -0.6990    1.6220 C   0  0  0  0  0  0  0  0  0  0  0  0
   -0.1840    0.3680    0.4740 C   0  0  0  0  0  0  0  0  0  0  0  0
    1.0180   -0.1210    0.3460 C   0  0  0  0  0  0  0  0  0  0  0  0
    2.1300    0.6550    0.4520 C   0  0  0  0  0  0  0  0  0  0  0  0
    3.5000    0.2170    0.3810 C   0  0  0  0  0  0  0  0  0  0  0  0
    3.8960   -1.0250   -0.1850 C   0  0  0  0  0  0  0  0  0  0  0  0
    5.1850   -1.3690   -0.4250 C   0  0  0  0  0  0  0  0  0  0  0  0
    6.2450   -0.5290   -0.1470 C   0  0  0  0  0  0  0  0  0  0  0  0
    5.8850    0.7300    0.4280 C   0  0  0  0  0  0  0  0  0  0  0  0
    6.8700    1.7050    0.5970 C   0  0  0  0  0  0  0  0  0  0  0  0
    7.7980    2.5990    0.7540 N   0  0  0  0  0  0  0  0  0  0  0  0
    4.6000    1.0080    0.6440 C   0  0  0  0  0  0  0  0  0  0  0  0
    1.8420    2.0210    0.7290 C   0  0  0  0  0  0  0  0  0  0  0  0
    0.0740    2.0940    0.8090 S   0  0  0  0  0  0  0  0  0  0  0  0
   -1.8000   -1.1380   -0.7240 C   0  0  0  0  0  0  0  0  0  0  0  0
   -3.2300   -1.5350   -0.6750 C   0  0  0  0  0  0  0  0  0  0  0  0
   -3.6090   -2.7190   -0.9070 O   0  0  0  0  0  0  0  0  0  0  0  0
  1  2  1  0
  2  3  2  0
  2 22  1  0
  3  4  1  0
  3  5  1  0
  5  6  1  0
  6  7  1  1
  6  8  1  0
  6 21  1  0
  8  9  2  0
  8 20  1  0
  9 10  1  0
 10 11  1  0
 10 19  2  0
 11 12  2  0
 11 18  1  0
 12 13  1  0
 13 14  2  0
 14 15  1  0
 15 16  1  0
 15 18  2  0
 16 17  3  0
 19 20  1  0
 21 22  1  0
 22 23  2  0
M  CHG  1   2   1
M  END
