
     RDKit          3D

 23 25  0  0  0  0  0  0  0  0999 V2000
    6.0350    1.9290    0.0630 C   0  0  0  0  0  0  0  0  0  0  0  0
    5.0520    2.2150    1.1840 C   0  0  0  0  0  0  0  0  0  0  0  0
    4.4150    0.7130    1.9260 S   0  0  0  0  0  0  0  0  0  0  0  0
    3.4050   -0.2410    0.8090 C   0  0  0  0  0  0  0  0  0  0  0  0
    2.0490   -0.0740    0.6910 C   0  0  0  0  0  0  0  0  0  0  0  0
    1.2730   -0.8180   -0.1750 C   0  0  0  0  0  0  0  0  0  0  0  0
   -0.1090   -0.6150   -0.2650 N   0  0  0  0  0  0  0  0  0  0  0  0
   -1.0290   -1.4900   -0.1140 C   0  0  0  0  0  0  0  0  0  0  0  0
   -0.8490   -2.8150    0.1690 C   0  0  0  0  0  0  0  0  0  0  0  0
   -2.0950   -3.3850    0.2460 C   0  0  0  0  0  0  0  0  0  0  0  0
   -2.9920   -2.4140    0.0130 N   0  0  0  0  0  0  0  0  0  0  0  0
   -2.3440   -1.2800   -0.2020 N   0  0  0  0  0  0  0  0  0  0  0  0
   -3.0020   -0.0310   -0.4850 C   0  0  0  0  0  0  0  0  0  0  0  0
   -2.4020    0.9560   -1.2400 C   0  0  0  0  0  0  0  0  0  0  0  0
   -3.1080    2.1250   -1.4610 C   0  0  0  0  0  0  0  0  0  0  0  0
   -4.3410    2.3540   -0.9850 N   0  0  0  0  0  0  0  0  0  0  0  0
   -4.9420    1.4190   -0.2550 C   0  0  0  0  0  0  0  0  0  0  0  0
   -6.3260    1.6140    0.3090 C   0  0  0  0  0  0  0  0  0  0  0  0
   -4.2690    0.2360   -0.0110 C   0  0  0  0  0  0  0  0  0  0  0  0
    1.8840   -1.7690   -0.9580 C   0  0  0  0  0  0  0  0  0  0  0  0
    3.2540   -1.9690   -0.8690 C   0  0  0  0  0  0  0  0  0  0  0  0
    4.0020   -1.1970    0.0190 C   0  0  0  0  0  0  0  0  0  0  0  0
    5.3890   -1.3750    0.1320 O   0  0  0  0  0  0  0  0  0  0  0  0
  1  2  1  0
  2  3  1  0
  3  4  1  0
  4  5  2  0
  4 22  1  0
  5  6  1  0
  6  7  1  0
  6 20  2  0
  7  8  2  3
  8  9  1  0
  8 12  1  0
  9 10  2  0
 10 11  1  0
 11 12  1  0
 12 13  1  0
 13 14  2  0
 13 19  1  0
 14 15  1  0
 15 16  2  0
 16 17  1  0
 17 18  1  0
 17 19  2  0
 20 21  1  0
 21 22  2  0
 22 23  1  0
M  CHG  1  16   1
M  END
