
     RDKit          3D

 23 25  0  0  0  0  0  0  0  0999 V2000
   -4.5370   -1.3120   -0.0960 C   0  0  0  0  0  0  0  0  0  0  0  0
   -3.1880   -2.0040   -0.3370 C   0  0  2  0  0  0  0  0  0  0  0  0
   -3.1830   -3.2920    0.4610 C   0  0  0  0  0  0  0  0  0  0  0  0
   -2.0470   -1.1710    0.0580 C   0  0  0  0  0  0  0  0  0  0  0  0
   -1.4370   -0.3490   -0.9020 N   0  0  0  0  0  0  0  0  0  0  0  0
   -0.3620    0.4900   -0.3510 C   0  0  0  0  0  0  0  0  0  0  0  0
   -0.5460    1.6810   -0.1390 N   0  0  0  0  0  0  0  0  0  0  0  0
    0.1480    2.7810    0.3450 C   0  0  0  0  0  0  0  0  0  0  0  0
    0.2250    3.2570    1.5940 C   0  0  0  0  0  0  0  0  0  0  0  0
    1.0780    4.4560    1.6600 C   0  0  0  0  0  0  0  0  0  0  0  0
    1.4880    4.6260    0.2890 N   0  0  0  0  0  0  0  0  0  0  0  0
    0.9820    3.7070   -0.4530 C   0  0  0  0  0  0  0  0  0  0  0  0
    0.8650   -0.2280   -0.1060 C   0  0  0  0  0  0  0  0  0  0  0  0
    0.9520   -1.4920   -0.3660 O   0  0  0  0  0  0  0  0  0  0  0  0
    2.0500    0.3300    0.4180 N   0  0  0  0  0  0  0  0  0  0  0  0
    3.2270   -0.4860    0.6240 C   0  0  0  0  0  0  0  0  0  0  0  0
    3.8220   -0.6840    1.7780 C   0  0  0  0  0  0  0  0  0  0  0  0
    4.9730   -1.5740    1.5300 C   0  0  0  0  0  0  0  0  0  0  0  0
    4.9120   -1.8260    0.0740 C   0  0  0  0  0  0  0  0  0  0  0  0
    3.8870   -1.1860   -0.4470 C   0  0  0  0  0  0  0  0  0  0  0  0
   -1.6420   -0.1640   -2.2810 C   0  0  0  0  0  0  0  0  0  0  0  0
   -2.8710   -0.7280   -2.8800 C   0  0  0  0  0  0  0  0  0  0  0  0
   -3.1500   -2.3780   -2.1310 S   0  0  0  0  0  0  0  0  0  0  0  0
  2  1  1  6
  2  3  1  0
  2  4  1  0
  2 23  1  0
  4  5  1  0
  5  6  1  0
  5 21  1  0
  6  7  2  3
  6 13  1  0
  7  8  1  0
  8  9  2  0
  8 12  1  0
  9 10  1  0
 10 11  1  0
 11 12  2  0
 13 14  2  0
 13 15  1  0
 15 16  1  0
 16 17  2  0
 16 20  1  0
 17 18  1  0
 18 19  1  0
 19 20  2  0
 21 22  1  0
 22 23  1  0
M  CHG  1  11   1
M  END
