
     RDKit          3D

 30 32  0  0  0  0  0  0  0  0999 V2000
    9.9980   -1.2280    1.4260 C   0  0  0  0  0  0  0  0  0  0  0  0
    8.7620   -1.9900    1.0520 C   0  0  0  0  0  0  0  0  0  0  0  0
    7.7020   -1.0650    0.4990 C   0  0  0  0  0  0  0  0  0  0  0  0
    7.9830    0.1540    0.4300 O   0  0  0  0  0  0  0  0  0  0  0  0
    6.4310   -1.6300    0.0830 C   0  0  0  0  0  0  0  0  0  0  0  0
    5.4480   -0.9080   -0.4070 C   0  0  0  0  0  0  0  0  0  0  0  0
    5.4020    0.5480   -0.6350 C   0  0  0  0  0  0  0  0  0  0  0  0
    3.9010    0.8480   -0.5130 C   0  0  0  0  0  0  0  0  0  0  0  0
    3.3010   -0.3850   -1.1010 C   0  0  2  0  0  0  0  0  0  0  0  0
    1.9790   -0.7540   -0.5320 C   0  0  0  0  0  0  0  0  0  0  0  0
    1.0270    0.3430   -0.8370 N   0  0  0  0  0  0  0  0  0  0  0  0
   -0.3420    0.2140   -0.3810 C   0  0  0  0  0  0  0  0  0  0  0  0
   -0.5050   -0.8530    0.2250 O   0  0  0  0  0  0  0  0  0  0  0  0
   -1.3100    1.2600   -0.6530 C   0  0  0  0  0  0  0  0  0  0  0  0
   -2.5830    1.2710   -0.3000 C   0  0  0  0  0  0  0  0  0  0  0  0
   -3.1310    0.1430    0.4560 C   0  0  0  0  0  0  0  0  0  0  0  0
   -2.3060   -0.8020    0.7530 O   0  0  0  0  0  0  0  0  0  0  0  0
   -4.4480   -0.0460    0.9050 N   0  0  0  0  0  0  0  0  0  0  0  0
   -4.7080   -1.2910    1.6770 C   0  0  0  0  0  0  0  0  0  0  0  0
   -5.6990   -2.1560    0.9320 C   0  0  0  0  0  0  0  0  0  0  0  0
   -6.8280   -1.3710    0.4590 N   0  0  0  0  0  0  0  0  0  0  0  0
   -8.0740   -2.0250    0.8090 C   0  0  0  0  0  0  0  0  0  0  0  0
   -6.8600   -0.0700    1.0960 C   0  0  0  0  0  0  0  0  0  0  0  0
   -5.6030    0.7610    0.7280 C   0  0  0  0  0  0  0  0  0  0  0  0
   -3.5400    2.3650   -0.7050 C   0  0  0  0  0  0  0  0  0  0  0  0
   -2.9560    3.6270   -1.1850 C   0  0  0  0  0  0  0  0  0  0  0  0
   -1.5500    3.5380   -1.5630 C   0  0  0  0  0  0  0  0  0  0  0  0
   -0.6860    5.0130   -2.4590 Br  0  0  0  0  0  0  0  0  0  0  0  0
   -0.8260    2.4970   -1.3260 C   0  0  0  0  0  0  0  0  0  0  0  0
    4.2170   -1.4210   -0.8170 O   0  0  0  0  0  0  0  0  0  0  0  0
  1  2  1  0
  2  3  1  0
  3  4  2  0
  3  5  1  0
  5  6  2  3
  6  7  1  0
  6 30  1  0
  7  8  1  0
  8  9  1  0
  9 10  1  1
  9 30  1  0
 10 11  1  0
 11 12  1  0
 12 13  2  0
 12 14  1  0
 14 15  2  0
 14 29  1  0
 15 16  1  0
 15 25  1  0
 16 17  2  0
 16 18  1  0
 18 19  1  0
 18 24  1  0
 19 20  1  0
 20 21  1  0
 21 22  1  0
 21 23  1  0
 23 24  1  0
 25 26  1  0
 26 27  1  0
 27 28  1  0
 27 29  2  0
M  END
