
     RDKit          3D

 31 33  0  0  0  0  0  0  0  0999 V2000
   -4.2960    3.4330   -0.7400 N   0  0  0  0  0  0  0  0  0  0  0  0
   -5.1790    2.4610   -0.2350 C   0  0  0  0  0  0  0  0  0  0  0  0
   -6.3100    2.7830    0.1340 O   0  0  0  0  0  0  0  0  0  0  0  0
   -4.8060    1.0480   -0.1240 C   0  0  0  0  0  0  0  0  0  0  0  0
   -5.5150   -0.0350    0.3350 C   0  0  0  0  0  0  0  0  0  0  0  0
   -4.9470   -1.2440    0.3370 C   0  0  0  0  0  0  0  0  0  0  0  0
   -5.6770   -2.4430    0.8240 C   0  0  0  0  0  0  0  0  0  0  0  0
   -7.0200   -2.3580    1.3150 N   0  0  0  0  0  0  0  0  0  0  0  0
   -5.1460   -3.5610    0.8230 O   0  0  0  0  0  0  0  0  0  0  0  0
   -3.6400   -1.3520   -0.1360 C   0  0  0  0  0  0  0  0  0  0  0  0
   -2.7070   -2.4000   -0.3010 C   0  0  0  0  0  0  0  0  0  0  0  0
   -2.9090   -3.5720   -0.0170 O   0  0  0  0  0  0  0  0  0  0  0  0
   -1.3990   -2.0930   -0.8490 N   0  0  0  0  0  0  0  0  0  0  0  0
   -0.5540   -1.4770   -0.1330 C   0  0  0  0  0  0  0  0  0  0  0  0
   -0.8830   -1.0880    1.1930 N   0  0  0  0  0  0  0  0  0  0  0  0
    0.7250   -1.1810   -0.6770 N   0  0  0  0  0  0  0  0  0  0  0  0
    0.9360   -1.1300   -2.1310 C   0  0  0  0  0  0  0  0  0  0  0  0
    2.3340   -1.4490   -2.4710 C   0  0  0  0  0  0  0  0  0  0  0  0
    2.7120   -1.2040   -3.6060 O   0  0  0  0  0  0  0  0  0  0  0  0
    3.3180   -2.0450   -1.5420 C   0  0  0  0  0  0  0  0  0  0  0  0
    2.8680   -2.0500   -0.1120 C   0  0  0  0  0  0  0  0  0  0  0  0
    1.8900   -0.9130    0.1390 C   0  0  1  0  0  0  0  0  0  0  0  0
    2.4910    0.4060   -0.1710 C   0  0  0  0  0  0  0  0  0  0  0  0
    1.9380    1.1010   -1.0680 O   0  0  0  0  0  0  0  0  0  0  0  0
    3.5980    0.9170    0.4450 O   0  0  0  0  0  0  0  0  0  0  0  0
    4.1600    2.1920    0.1290 C   0  0  1  0  0  0  0  0  0  0  0  0
    4.2840    3.0400    1.2760 N   0  0  0  0  0  0  0  0  0  0  0  0
    5.7300    3.3020    1.2940 C   0  0  0  0  0  0  0  0  0  0  0  0
    6.0660    3.2410   -0.0710 O   0  0  0  0  0  0  0  0  0  0  0  0
    5.4890    2.0520   -0.4290 N   0  0  0  0  0  0  0  0  0  0  0  0
   -3.2730    0.3300   -0.5740 S   0  0  0  0  0  0  0  0  0  0  0  0
  1  2  1  0
  2  3  2  0
  2  4  1  0
  4  5  2  0
  4 31  1  0
  5  6  1  0
  6  7  1  0
  6 10  2  0
  7  8  1  0
  7  9  2  0
 10 11  1  0
 10 31  1  0
 11 12  2  0
 11 13  1  0
 13 14  2  3
 14 15  1  0
 14 16  1  0
 16 17  1  0
 16 22  1  0
 17 18  1  0
 18 19  2  0
 18 20  1  0
 20 21  1  0
 21 22  1  0
 22 23  1  6
 23 24  2  0
 23 25  1  0
 26 25  1  1
 26 27  1  0
 26 30  1  0
 27 28  1  0
 28 29  1  0
 29 30  1  0
M  CHG  1  30   1
M  END
