
     RDKit          3D

 31 33  0  0  0  0  0  0  0  0999 V2000
    4.8390    2.5280    0.8070 N   0  0  0  0  0  0  0  0  0  0  0  0
    4.3550    1.2220    1.0910 C   0  0  0  0  0  0  0  0  0  0  0  0
    4.6790    0.7250    2.1880 O   0  0  0  0  0  0  0  0  0  0  0  0
    3.5220    0.5300    0.1180 C   0  0  0  0  0  0  0  0  0  0  0  0
    2.9640   -0.8140    0.5930 C   0  0  2  0  0  0  0  0  0  0  0  0
    2.0880   -0.5880    1.7620 C   0  0  0  0  0  0  0  0  0  0  0  0
    0.6930    0.4600    1.3760 S   0  0  0  0  0  0  0  0  0  0  0  0
   -0.7370   -0.3210    0.7350 C   0  0  0  0  0  0  0  0  0  0  0  0
   -1.0510   -1.5890    0.9160 C   0  0  0  0  0  0  0  0  0  0  0  0
   -2.2460   -2.2310    0.3850 C   0  0  0  0  0  0  0  0  0  0  0  0
   -2.5100   -3.5030    0.6030 C   0  0  0  0  0  0  0  0  0  0  0  0
   -3.6930   -4.0410    0.0490 N   0  0  0  0  0  0  0  0  0  0  0  0
   -4.5950   -3.2750   -0.7250 C   0  0  0  0  0  0  0  0  0  0  0  0
   -5.6420   -3.8320   -1.2070 O   0  0  0  0  0  0  0  0  0  0  0  0
   -4.3510   -1.8520   -0.9850 C   0  0  0  0  0  0  0  0  0  0  0  0
   -3.1210   -1.4110   -0.3730 N   0  0  0  0  0  0  0  0  0  0  0  0
   -2.7750   -0.0350   -0.5620 C   0  0  0  0  0  0  0  0  0  0  0  0
   -1.6900    0.4770   -0.0620 C   0  0  0  0  0  0  0  0  0  0  0  0
   -1.4080    1.8870   -0.2960 C   0  0  0  0  0  0  0  0  0  0  0  0
   -0.3220    2.3790    0.2100 O   0  0  0  0  0  0  0  0  0  0  0  0
   -2.1970    2.7930   -1.0200 N   0  0  0  0  0  0  0  0  0  0  0  0
   -1.8400    4.1520   -1.1980 N   0  0  0  0  0  0  0  0  0  0  0  0
   -2.7610    5.1550   -0.8170 C   0  0  0  0  0  0  0  0  0  0  0  0
   -3.8710    4.7950   -0.3270 O   0  0  0  0  0  0  0  0  0  0  0  0
   -2.4810    6.5220   -0.9640 O   0  0  0  0  0  0  0  0  0  0  0  0
    4.1000   -1.6830    0.9690 N   0  0  0  0  0  0  0  0  0  0  0  0
    4.5440   -2.2730   -0.2410 C   0  0  0  0  0  0  0  0  0  0  0  0
    5.6640   -2.8100   -0.4910 O   0  0  0  0  0  0  0  0  0  0  0  0
    3.5100   -2.1790   -1.1920 N   0  0  0  0  0  0  0  0  0  0  0  0
    2.3940   -1.5040   -0.5350 C   0  0  0  0  0  0  0  0  0  0  0  0
    1.2270   -1.5980   -0.9850 O   0  0  0  0  0  0  0  0  0  0  0  0
  1  2  1  0
  2  3  2  0
  2  4  1  0
  5  4  1  6
  5  6  1  0
  5 26  1  0
  5 30  1  0
  6  7  1  0
  7  8  1  0
  8  9  2  0
  8 18  1  0
  9 10  1  0
 10 11  2  0
 10 16  1  0
 11 12  1  0
 12 13  1  0
 13 14  2  0
 13 15  1  0
 15 16  1  0
 16 17  1  0
 17 18  2  0
 18 19  1  0
 19 20  2  0
 19 21  1  0
 21 22  1  0
 22 23  1  0
 23 24  2  0
 23 25  1  0
 26 27  1  0
 27 28  2  0
 27 29  1  0
 29 30  1  0
 30 31  2  0
M  END
