
     RDKit          3D

 30 32  0  0  0  0  0  0  0  0999 V2000
   -6.4250   -2.7960    1.3190 C   0  0  0  0  0  0  0  0  0  0  0  0
   -5.5100   -2.1090    0.6620 C   0  0  0  0  0  0  0  0  0  0  0  0
   -4.3250   -2.7100    0.1560 N   0  0  0  0  0  0  0  0  0  0  0  0
   -3.3890   -1.9070   -0.5420 C   0  0  0  0  0  0  0  0  0  0  0  0
   -2.6820   -2.4110   -1.4650 O   0  0  0  0  0  0  0  0  0  0  0  0
   -3.2660   -0.4780   -0.1600 C   0  0  1  0  0  0  0  0  0  0  0  0
   -2.3500    0.2850   -1.0380 C   0  0  0  0  0  0  0  0  0  0  0  0
   -0.9650   -0.0560   -1.1830 C   0  0  0  0  0  0  0  0  0  0  0  0
   -0.4250    0.4600   -2.2730 O   0  0  0  0  0  0  0  0  0  0  0  0
   -0.0780   -0.8020   -0.4290 N   0  0  0  0  0  0  0  0  0  0  0  0
   -0.3110   -1.4940    0.7850 C   0  0  0  0  0  0  0  0  0  0  0  0
    0.5520   -0.7730    1.8540 C   0  0  0  0  0  0  0  0  0  0  0  0
    1.9850   -1.0360    1.4480 C   0  0  0  0  0  0  0  0  0  0  0  0
    2.1980   -0.2410    0.1510 C   0  0  1  0  0  0  0  0  0  0  0  0
    3.5400   -0.2980   -0.1100 O   0  0  0  0  0  0  0  0  0  0  0  0
    4.1640    0.9250   -0.1590 C   0  0  2  0  0  0  0  0  0  0  0  0
    4.7870    1.1120   -1.5090 C   0  0  0  0  0  0  0  0  0  0  0  0
    6.2270    1.5710   -1.4390 C   0  0  0  0  0  0  0  0  0  0  0  0
    7.0360    0.5180   -0.7190 C   0  0  0  0  0  0  0  0  0  0  0  0
    6.4690    0.3170    0.6540 C   0  0  0  0  0  0  0  0  0  0  0  0
    5.2210    1.0940    0.9060 C   0  0  0  0  0  0  0  0  0  0  0  0
    1.3530   -0.9240   -0.8980 C   0  0  0  0  0  0  0  0  0  0  0  0
   -4.6550    0.0440   -0.2990 N   0  0  0  0  0  0  0  0  0  0  0  0
   -4.9340    1.1890   -1.0940 C   0  0  0  0  0  0  0  0  0  0  0  0
   -5.2690    1.0410   -2.3620 C   0  0  0  0  0  0  0  0  0  0  0  0
   -4.8550    2.5230   -0.5150 C   0  0  0  0  0  0  0  0  0  0  0  0
   -4.5280    2.7040    0.7350 C   0  0  0  0  0  0  0  0  0  0  0  0
   -4.4130    4.4250    1.5230 Br  0  0  0  0  0  0  0  0  0  0  0  0
   -5.6520   -0.6680    0.4060 C   0  0  0  0  0  0  0  0  0  0  0  0
   -6.6780   -0.0330    0.8130 O   0  0  0  0  0  0  0  0  0  0  0  0
  1  2  2  0
  2  3  1  0
  2 29  1  0
  3  4  1  0
  4  5  2  0
  4  6  1  0
  6  7  1  6
  6 23  1  0
  7  8  1  0
  8  9  2  0
  8 10  1  0
 10 11  1  0
 10 22  1  0
 11 12  1  0
 12 13  1  0
 13 14  1  0
 14 15  1  6
 14 22  1  0
 16 15  1  6
 16 17  1  0
 16 21  1  0
 17 18  1  0
 18 19  1  0
 19 20  1  0
 20 21  1  0
 23 24  1  0
 23 29  1  0
 24 25  2  0
 24 26  1  0
 26 27  2  3
 27 28  1  0
 29 30  2  0
M  END
