
     RDKit          3D

 30 32  0  0  0  0  0  0  0  0999 V2000
    6.1320   -2.1010    1.7040 C   0  0  0  0  0  0  0  0  0  0  0  0
    5.9340   -1.0890    0.8890 C   0  0  0  0  0  0  0  0  0  0  0  0
    6.6600    0.1580    1.1950 C   0  0  0  0  0  0  0  0  0  0  0  0
    5.7500    1.1320    1.5430 O   0  0  0  0  0  0  0  0  0  0  0  0
    4.7870    1.3760    0.5540 C   0  0  2  0  0  0  0  0  0  0  0  0
    4.3920    2.8350    0.6840 C   0  0  0  0  0  0  0  0  0  0  0  0
    3.0610    3.2850   -0.6390 Br  0  0  0  0  0  0  0  0  0  0  0  0
    3.5400    0.5370    0.7700 C   0  0  0  0  0  0  0  0  0  0  0  0
    3.7140   -0.7100    0.0640 N   0  0  0  0  0  0  0  0  0  0  0  0
    2.5900   -1.4250   -0.4120 C   0  0  0  0  0  0  0  0  0  0  0  0
    2.8110   -2.5430   -0.9970 O   0  0  0  0  0  0  0  0  0  0  0  0
    1.1890   -1.0150   -0.3080 C   0  0  2  0  0  0  0  0  0  0  0  0
    0.3180   -2.2680   -0.3820 C   0  0  0  0  0  0  0  0  0  0  0  0
   -0.7470   -2.0880   -1.4340 C   0  0  0  0  0  0  0  0  0  0  0  0
   -1.4130   -0.7770   -1.1540 N   0  0  0  0  0  0  0  0  0  0  0  0
   -2.7510   -0.7960   -0.8040 C   0  0  0  0  0  0  0  0  0  0  0  0
   -3.3100   -1.9840   -0.7920 O   0  0  0  0  0  0  0  0  0  0  0  0
   -3.6330    0.3340   -0.4390 C   0  0  2  0  0  0  0  0  0  0  0  0
   -3.3260    0.8280    0.9420 C   0  0  0  0  0  0  0  0  0  0  0  0
   -3.4120   -0.1440    2.0450 C   0  0  0  0  0  0  0  0  0  0  0  0
   -4.6830   -0.8070    2.3730 C   0  0  0  0  0  0  0  0  0  0  0  0
   -5.0610   -0.0940   -0.6170 C   0  0  0  0  0  0  0  0  0  0  0  0
   -6.0730    0.9860   -0.4230 C   0  0  0  0  0  0  0  0  0  0  0  0
   -5.7460    2.1430   -1.3450 C   0  0  0  0  0  0  0  0  0  0  0  0
   -6.6040    2.7460   -2.0050 O   0  0  0  0  0  0  0  0  0  0  0  0
   -4.3740    2.4790   -1.3900 N   0  0  0  0  0  0  0  0  0  0  0  0
   -3.3590    1.4630   -1.4320 C   0  0  0  0  0  0  0  0  0  0  0  0
   -0.5730    0.3540   -1.3090 C   0  0  0  0  0  0  0  0  0  0  0  0
    0.8810   -0.1490   -1.5370 C   0  0  0  0  0  0  0  0  0  0  0  0
    5.0050   -1.3450   -0.2270 C   0  0  0  0  0  0  0  0  0  0  0  0
  1  2  2  0
  2  3  1  0
  2 30  1  0
  3  4  1  0
  4  5  1  0
  5  6  1  1
  5  8  1  0
  6  7  1  0
  8  9  1  0
  9 10  1  0
  9 30  1  0
 10 11  2  0
 12 10  1  6
 12 13  1  0
 12 29  1  0
 13 14  1  0
 14 15  1  0
 15 16  1  0
 15 28  1  0
 16 17  2  0
 16 18  1  0
 18 19  1  1
 18 22  1  0
 18 27  1  0
 19 20  1  0
 20 21  1  0
 22 23  1  0
 23 24  1  0
 24 25  2  0
 24 26  1  0
 26 27  1  0
 28 29  1  0
M  END
