
     RDKit          3D

 31 32  0  0  0  0  0  0  0  0999 V2000
   10.0640    0.8960    0.9560 N   0  0  0  0  0  0  0  0  0  0  0  0
   10.6300    0.4010   -0.2410 C   0  0  0  0  0  0  0  0  0  0  0  0
   11.8820    0.2170   -0.3030 O   0  0  0  0  0  0  0  0  0  0  0  0
    9.7400    0.1100   -1.3970 C   0  0  0  0  0  0  0  0  0  0  0  0
    8.3810    0.3940   -1.0690 N   0  0  0  0  0  0  0  0  0  0  0  0
    7.7470   -0.2820   -0.0140 C   0  0  0  0  0  0  0  0  0  0  0  0
    8.3890   -1.1500    0.6460 O   0  0  0  0  0  0  0  0  0  0  0  0
    6.3590   -0.0240    0.3620 C   0  0  0  0  0  0  0  0  0  0  0  0
    5.7290    0.8460   -0.3090 O   0  0  0  0  0  0  0  0  0  0  0  0
    5.7430   -0.7140    1.4250 N   0  0  0  0  0  0  0  0  0  0  0  0
    4.4160   -0.4740    1.7910 N   0  0  0  0  0  0  0  0  0  0  0  0
    3.3780   -0.6960    0.8300 C   0  0  0  0  0  0  0  0  0  0  0  0
    3.7150   -1.1060   -0.3270 O   0  0  0  0  0  0  0  0  0  0  0  0
    2.0170   -0.4850    1.1070 N   0  0  0  0  0  0  0  0  0  0  0  0
    1.0690   -0.7330    0.0910 N   0  0  0  0  0  0  0  0  0  0  0  0
   -0.2700   -0.8080    0.6290 C   0  0  0  0  0  0  0  0  0  0  0  0
   -1.2060   -0.2590   -0.4130 C   0  0  1  0  0  0  0  0  0  0  0  0
   -1.2870   -1.1200   -1.6520 C   0  0  0  0  0  0  0  0  0  0  0  0
   -2.6260   -0.6740   -2.2540 C   0  0  0  0  0  0  0  0  0  0  0  0
   -3.1960    0.1280   -1.1040 C   0  0  1  0  0  0  0  0  0  0  0  0
   -4.6460    0.1690   -1.0840 C   0  0  0  0  0  0  0  0  0  0  0  0
   -5.2060    0.6000   -2.1520 O   0  0  0  0  0  0  0  0  0  0  0  0
   -5.5010   -0.2180   -0.0040 N   0  0  0  0  0  0  0  0  0  0  0  0
   -4.9190   -0.7520    1.2000 C   0  0  0  0  0  0  0  0  0  0  0  0
   -6.3740   -1.5350    2.0160 S   0  0  0  0  0  0  0  0  0  0  0  0
   -7.6180   -0.5370    1.1510 C   0  0  0  0  0  0  0  0  0  0  0  0
   -6.9050   -0.0890   -0.0620 C   0  0  1  0  0  0  0  0  0  0  0  0
   -7.1960    1.4250   -0.1660 C   0  0  0  0  0  0  0  0  0  0  0  0
   -8.6700    1.6940   -0.2470 C   0  0  0  0  0  0  0  0  0  0  0  0
   -8.8700    3.0840   -0.3410 O   0  0  0  0  0  0  0  0  0  0  0  0
   -2.5520   -0.2880    0.0240 O   0  0  0  0  0  0  0  0  0  0  0  0
  1  2  1  0
  2  3  2  0
  2  4  1  0
  4  5  1  0
  5  6  1  0
  6  7  2  0
  6  8  1  0
  8  9  2  0
  8 10  1  0
 10 11  1  0
 11 12  1  0
 12 13  2  0
 12 14  1  0
 14 15  1  0
 15 16  1  0
 17 16  1  1
 17 18  1  0
 17 31  1  0
 18 19  1  0
 19 20  1  0
 20 21  1  1
 20 31  1  0
 21 22  2  0
 21 23  1  0
 23 24  1  0
 23 27  1  0
 24 25  1  0
 25 26  1  0
 26 27  1  0
 27 28  1  1
 28 29  1  0
 29 30  1  0
M  CHG  1  15   1
M  END
