
     RDKit          3D

 41 43  0  0  0  0  0  0  0  0999 V2000
   -8.1940    3.5950    2.7880 C   0  0  0  0  0  0  0  0  0  0  0  0
   -7.8410    3.6230    1.3100 C   0  0  0  0  0  0  0  0  0  0  0  0
   -6.5830    2.9540    1.0170 C   0  0  0  0  0  0  0  0  0  0  0  0
   -6.3470    1.8870    0.2610 C   0  0  0  0  0  0  0  0  0  0  0  0
   -7.4560    1.2250   -0.4130 C   0  0  0  0  0  0  0  0  0  0  0  0
   -7.8340   -0.1530   -0.0460 C   0  0  2  0  0  0  0  0  0  0  0  0
   -6.8020   -1.2100   -0.2510 C   0  0  0  0  0  0  0  0  0  0  0  0
   -7.4790   -2.6040   -0.2500 C   0  0  0  0  0  0  0  0  0  0  0  0
   -8.6950   -2.5080    0.6200 C   0  0  0  0  0  0  0  0  0  0  0  0
   -9.7010   -1.5780    0.0030 C   0  0  0  0  0  0  0  0  0  0  0  0
   -9.0340   -0.5780   -0.7990 N   0  0  0  0  0  0  0  0  0  0  0  0
   -4.9500    1.4920    0.1310 C   0  0  0  0  0  0  0  0  0  0  0  0
   -4.5270    0.5490   -0.5760 O   0  0  0  0  0  0  0  0  0  0  0  0
   -3.8430    2.2220    0.8730 C   0  0  1  0  0  0  0  0  0  0  0  0
   -3.9870    1.9240    2.3310 C   0  0  0  0  0  0  0  0  0  0  0  0
   -2.5390    1.7110    0.4010 N   0  0  0  0  0  0  0  0  0  0  0  0
   -1.6600    2.5490   -0.3310 C   0  0  0  0  0  0  0  0  0  0  0  0
   -2.0790    3.7540   -0.5390 O   0  0  0  0  0  0  0  0  0  0  0  0
   -0.3400    2.1650   -0.8610 C   0  0  0  0  0  0  0  0  0  0  0  0
    0.0560    0.8140   -0.5750 N   0  0  0  0  0  0  0  0  0  0  0  0
    1.3000    0.2870   -1.0460 C   0  0  0  0  0  0  0  0  0  0  0  0
    2.0190    1.0550   -1.7310 O   0  0  0  0  0  0  0  0  0  0  0  0
    1.7530   -1.0160   -0.7890 N   0  0  0  0  0  0  0  0  0  0  0  0
    3.0100   -1.4970   -1.3010 C   0  0  2  0  0  0  0  0  0  0  0  0
    2.8550   -2.8360   -1.9770 C   0  0  0  0  0  0  0  0  0  0  0  0
    4.1560   -3.1540   -2.6880 C   0  0  0  0  0  0  0  0  0  0  0  0
    5.3220   -3.1620   -1.7400 C   0  0  0  0  0  0  0  0  0  0  0  0
    5.3860   -1.8250   -1.0220 C   0  0  2  0  0  0  0  0  0  0  0  0
    6.4910   -1.6610   -0.2210 O   0  0  0  0  0  0  0  0  0  0  0  0
    7.4350   -0.6740   -0.2590 C   0  0  0  0  0  0  0  0  0  0  0  0
    7.3650    0.3390   -1.1680 C   0  0  0  0  0  0  0  0  0  0  0  0
    8.3640    1.3230   -1.1570 C   0  0  0  0  0  0  0  0  0  0  0  0
    9.3820    1.2470   -0.2380 C   0  0  0  0  0  0  0  0  0  0  0  0
   10.3580    2.2210   -0.2370 O   0  0  0  0  0  0  0  0  0  0  0  0
   10.3120    3.2730   -1.1620 C   0  0  0  0  0  0  0  0  0  0  0  0
    9.4270    0.2170    0.6650 C   0  0  0  0  0  0  0  0  0  0  0  0
    8.4560   -0.7580    0.6700 C   0  0  0  0  0  0  0  0  0  0  0  0
    8.5180   -1.8300    1.6100 N   0  0  0  0  0  0  0  0  0  0  0  0
    8.6290   -3.1800    1.1140 C   0  0  0  0  0  0  0  0  0  0  0  0
    8.4690   -1.5950    3.0300 C   0  0  0  0  0  0  0  0  0  0  0  0
    4.0690   -1.6770   -0.2250 C   0  0  0  0  0  0  0  0  0  0  0  0
  1  2  1  0
  2  3  1  0
  3  4  2  3
  4  5  1  0
  4 12  1  0
  6  5  1  6
  6  7  1  0
  6 11  1  0
  7  8  1  0
  8  9  1  0
  9 10  1  0
 10 11  1  0
 12 13  2  0
 12 14  1  0
 14 15  1  1
 14 16  1  0
 16 17  1  0
 17 18  2  0
 17 19  1  0
 19 20  1  0
 20 21  1  0
 21 22  2  0
 21 23  1  0
 24 23  1  1
 24 25  1  0
 24 41  1  0
 25 26  1  0
 26 27  1  0
 27 28  1  0
 28 29  1  1
 28 41  1  0
 29 30  1  0
 30 31  2  0
 30 37  1  0
 31 32  1  0
 32 33  2  0
 33 34  1  0
 33 36  1  0
 34 35  1  0
 36 37  2  0
 37 38  1  0
 38 39  1  0
 38 40  1  0
M  CHG  1  11   1
M  END
