
     RDKit          3D

 41 43  0  0  0  0  0  0  0  0999 V2000
   -4.9630   -2.2730    0.1700 C   0  0  0  0  0  0  0  0  0  0  0  0
   -5.3660   -1.8240    1.5220 C   0  0  0  0  0  0  0  0  0  0  0  0
   -6.6550   -1.0780    1.6260 C   0  0  2  0  0  0  0  0  0  0  0  0
   -7.8310   -1.8630    1.1490 C   0  0  0  0  0  0  0  0  0  0  0  0
   -7.7690   -2.2810   -0.1570 O   0  0  0  0  0  0  0  0  0  0  0  0
   -6.6660    0.3820    1.4140 C   0  0  0  0  0  0  0  0  0  0  0  0
   -6.2360    0.9610    0.1820 N   0  0  0  0  0  0  0  0  0  0  0  0
   -4.8550    1.2350    0.0490 C   0  0  0  0  0  0  0  0  0  0  0  0
   -4.0700    1.0510    1.0770 O   0  0  0  0  0  0  0  0  0  0  0  0
   -4.2440    1.7200   -1.1990 C   0  0  0  0  0  0  0  0  0  0  0  0
   -2.7980    1.9320   -1.0120 N   0  0  0  0  0  0  0  0  0  0  0  0
   -2.0000    0.8240   -0.6680 C   0  0  0  0  0  0  0  0  0  0  0  0
   -2.5220   -0.3430   -0.5250 O   0  0  0  0  0  0  0  0  0  0  0  0
   -0.6070    0.9220   -0.4650 N   0  0  0  0  0  0  0  0  0  0  0  0
    0.1880    2.1080   -0.5570 C   0  0  0  0  0  0  0  0  0  0  0  0
    1.4780    1.6200   -1.1880 C   0  0  0  0  0  0  0  0  0  0  0  0
    1.4200    0.1240   -1.1140 C   0  0  1  0  0  0  0  0  0  0  0  0
    2.6370   -0.4760   -0.5680 N   0  0  0  0  0  0  0  0  0  0  0  0
    3.3550   -1.1630   -1.5870 C   0  0  0  0  0  0  0  0  0  0  0  0
    4.8010   -0.8290   -1.6110 C   0  0  1  0  0  0  0  0  0  0  0  0
    4.9910    0.5630   -1.7620 O   0  0  0  0  0  0  0  0  0  0  0  0
    5.6390   -1.3450   -0.5150 C   0  0  0  0  0  0  0  0  0  0  0  0
    5.2990   -0.9070    0.8780 C   0  0  0  0  0  0  0  0  0  0  0  0
    6.3110   -1.5240    1.7490 N   0  0  0  0  0  0  0  0  0  0  0  0
    7.6520   -1.1340    1.6540 C   0  0  0  0  0  0  0  0  0  0  0  0
    8.0320   -0.0030    0.9820 C   0  0  0  0  0  0  0  0  0  0  0  0
    9.3630    0.3980    0.8520 C   0  0  0  0  0  0  0  0  0  0  0  0
    9.7580    1.6260    0.1150 C   0  0  0  0  0  0  0  0  0  0  0  0
   10.3670   -0.3650    1.4210 C   0  0  0  0  0  0  0  0  0  0  0  0
   11.8010    0.0070    1.3160 C   0  0  0  0  0  0  0  0  0  0  0  0
    9.9860   -1.5030    2.0980 C   0  0  0  0  0  0  0  0  0  0  0  0
   11.0390   -2.3600    2.7280 C   0  0  0  0  0  0  0  0  0  0  0  0
    8.6790   -1.8970    2.2260 C   0  0  0  0  0  0  0  0  0  0  0  0
    0.2740   -0.1660   -0.1300 C   0  0  0  0  0  0  0  0  0  0  0  0
   -7.1480    1.3770   -0.8560 C   0  0  2  0  0  0  0  0  0  0  0  0
   -7.0400    2.9170   -0.9750 C   0  0  0  0  0  0  0  0  0  0  0  0
   -8.6140    1.1660   -0.5240 C   0  0  0  0  0  0  0  0  0  0  0  0
   -9.5030    1.7810   -1.5900 C   0  0  0  0  0  0  0  0  0  0  0  0
   -9.0190    1.5330   -2.8580 O   0  0  0  0  0  0  0  0  0  0  0  0
   -8.1970    0.4180   -2.8770 C   0  0  0  0  0  0  0  0  0  0  0  0
   -6.8670    0.7280   -2.1810 C   0  0  0  0  0  0  0  0  0  0  0  0
  1  2  1  0
  3  2  1  6
  3  4  1  0
  3  6  1  0
  4  5  1  0
  6  7  1  0
  7  8  1  0
  7 35  1  0
  8  9  2  0
  8 10  1  0
 10 11  1  0
 11 12  1  0
 12 13  2  0
 12 14  1  0
 14 15  1  0
 14 34  1  0
 15 16  1  0
 16 17  1  0
 17 18  1  1
 17 34  1  0
 18 19  1  0
 19 20  1  0
 20 21  1  1
 20 22  1  0
 22 23  1  0
 23 24  1  0
 24 25  1  0
 25 26  2  0
 25 33  1  0
 26 27  1  0
 27 28  1  0
 27 29  2  0
 29 30  1  0
 29 31  1  0
 31 32  1  0
 31 33  2  0
 35 36  1  6
 35 37  1  0
 35 41  1  0
 37 38  1  0
 38 39  1  0
 39 40  1  0
 40 41  1  0
M  CHG  1  18   1
M  END
