
     RDKit          3D

 41 43  0  0  0  0  0  0  0  0999 V2000
   -6.6360    2.1720   -3.4420 C   0  0  0  0  0  0  0  0  0  0  0  0
   -6.0560    2.2750   -2.0980 N   0  0  0  0  0  0  0  0  0  0  0  0
   -6.5720    1.5230   -1.0580 C   0  0  0  0  0  0  0  0  0  0  0  0
   -6.0750    0.6380   -0.2740 C   0  0  0  0  0  0  0  0  0  0  0  0
   -7.0360    0.0760    0.7420 C   0  0  0  0  0  0  0  0  0  0  0  0
   -6.6800   -0.7420    1.6890 C   0  0  0  0  0  0  0  0  0  0  0  0
   -7.6070   -1.3090    2.6870 C   0  0  0  0  0  0  0  0  0  0  0  0
   -8.9620   -1.0720    2.4640 O   0  0  0  0  0  0  0  0  0  0  0  0
   -9.3590   -0.2130    1.4850 C   0  0  0  0  0  0  0  0  0  0  0  0
   -8.4820    0.3490    0.6490 C   0  0  0  0  0  0  0  0  0  0  0  0
   -4.6810    0.0220   -0.3270 C   0  0  1  0  0  0  0  0  0  0  0  0
   -4.9340   -1.4550   -0.5870 C   0  0  0  0  0  0  0  0  0  0  0  0
   -3.8620   -2.0950   -1.4520 C   0  0  0  0  0  0  0  0  0  0  0  0
   -2.5240   -2.0000   -0.6930 C   0  0  0  0  0  0  0  0  0  0  0  0
   -1.7840   -0.8460   -1.1710 C   0  0  2  0  0  0  0  0  0  0  0  0
   -0.9260   -0.0950   -0.2950 N   0  0  1  0  0  0  0  0  0  0  0  0
   -0.5710   -0.6290    0.9590 C   0  0  0  0  0  0  0  0  0  0  0  0
   -0.2190    0.4210    1.9930 C   0  0  0  0  0  0  0  0  0  0  0  0
   -1.2590    1.3100    2.2540 O   0  0  0  0  0  0  0  0  0  0  0  0
    0.2100    0.3100   -1.1090 C   0  0  0  0  0  0  0  0  0  0  0  0
    1.4690   -0.3940   -0.9000 C   0  0  1  0  0  0  0  0  0  0  0  0
    1.5240   -1.7570   -1.0900 O   0  0  0  0  0  0  0  0  0  0  0  0
    2.4950    0.1880   -1.8970 C   0  0  0  0  0  0  0  0  0  0  0  0
    3.8340   -0.3530   -1.5260 N   0  0  0  0  0  0  0  0  0  0  0  0
    4.2320   -1.5930   -2.1100 C   0  0  0  0  0  0  0  0  0  0  0  0
    4.6340    0.3720   -0.6340 C   0  0  0  0  0  0  0  0  0  0  0  0
    4.1490    1.5210   -0.1980 O   0  0  0  0  0  0  0  0  0  0  0  0
    5.9020    0.0960   -0.1000 N   0  0  0  0  0  0  0  0  0  0  0  0
    6.7050   -1.0830   -0.2790 C   0  0  0  0  0  0  0  0  0  0  0  0
    6.4600   -2.1560    0.7570 C   0  0  0  0  0  0  0  0  0  0  0  0
    6.7520   -1.6510    2.0470 O   0  0  0  0  0  0  0  0  0  0  0  0
    6.5070   -2.6920    2.9480 C   0  0  0  0  0  0  0  0  0  0  0  0
    6.4570    1.1300    0.7650 C   0  0  0  0  0  0  0  0  0  0  0  0
    5.8370    1.5170    1.9140 C   0  0  0  0  0  0  0  0  0  0  0  0
    6.3790    2.5160    2.7120 C   0  0  0  0  0  0  0  0  0  0  0  0
    7.5730    3.1000    2.2920 C   0  0  0  0  0  0  0  0  0  0  0  0
    8.2010    4.1470    3.0560 N   0  0  0  0  0  0  0  0  0  0  0  0
    8.1760    2.6860    1.1260 C   0  0  0  0  0  0  0  0  0  0  0  0
    7.6260    1.7030    0.3560 C   0  0  0  0  0  0  0  0  0  0  0  0
   -2.6440    0.0980   -1.9410 C   0  0  0  0  0  0  0  0  0  0  0  0
   -3.8850    0.6430   -1.4080 C   0  0  0  0  0  0  0  0  0  0  0  0
  1  2  1  0
  2  3  1  0
  3  4  2  3
  4  5  1  0
 11  4  1  6
  5  6  2  0
  5 10  1  0
  6  7  1  0
  7  8  1  0
  8  9  1  0
  9 10  2  0
 11 12  1  0
 11 41  1  0
 12 13  1  0
 13 14  1  0
 15 14  1  1
 15 16  1  0
 15 40  1  0
 16 17  1  1
 16 20  1  0
 17 18  1  0
 18 19  1  0
 20 21  1  0
 21 22  1  6
 21 23  1  0
 23 24  1  0
 24 25  1  0
 24 26  1  0
 26 27  2  0
 26 28  1  0
 28 29  1  0
 28 33  1  0
 29 30  1  0
 30 31  1  0
 31 32  1  0
 33 34  2  0
 33 39  1  0
 34 35  1  0
 35 36  2  0
 36 37  1  0
 36 38  1  0
 38 39  2  0
 40 41  1  0
M  CHG  1  16   1
M  END
