
     RDKit          3D

 41 42  0  0  0  0  0  0  0  0999 V2000
    7.8890   -4.0400    0.7000 C   0  0  0  0  0  0  0  0  0  0  0  0
    7.7160   -2.5590    0.9630 C   0  0  0  0  0  0  0  0  0  0  0  0
    7.3820   -1.8130   -0.2040 N   0  0  1  0  0  0  0  0  0  0  0  0
    7.8620   -2.4910   -1.4230 C   0  0  0  0  0  0  0  0  0  0  0  0
    8.3310   -1.4440   -2.4120 C   0  0  0  0  0  0  0  0  0  0  0  0
    7.3050   -0.5670   -2.7640 O   0  0  0  0  0  0  0  0  0  0  0  0
    6.0540   -1.3500   -0.3530 C   0  0  0  0  0  0  0  0  0  0  0  0
    5.0410   -1.7680    0.6720 C   0  0  2  0  0  0  0  0  0  0  0  0
    4.7850   -3.2580    0.5790 C   0  0  0  0  0  0  0  0  0  0  0  0
    3.8130   -1.1580    0.2570 O   0  0  0  0  0  0  0  0  0  0  0  0
    3.0920   -0.2500    0.9820 C   0  0  0  0  0  0  0  0  0  0  0  0
    3.4170    0.2520    2.2190 C   0  0  0  0  0  0  0  0  0  0  0  0
    2.5900    1.1690    2.8400 C   0  0  0  0  0  0  0  0  0  0  0  0
    1.4270    1.6270    2.2850 C   0  0  0  0  0  0  0  0  0  0  0  0
    0.6040    2.5960    3.0350 C   0  0  2  0  0  0  0  0  0  0  0  0
    1.2990    3.1030    4.2750 C   0  0  0  0  0  0  0  0  0  0  0  0
   -0.7070    1.9910    3.4450 C   0  0  0  0  0  0  0  0  0  0  0  0
   -1.7240    2.7910    4.1750 C   0  0  0  0  0  0  0  0  0  0  0  0
   -1.0000    0.8190    3.2000 O   0  0  0  0  0  0  0  0  0  0  0  0
    1.0700    1.1310    1.0210 C   0  0  0  0  0  0  0  0  0  0  0  0
   -0.1240    1.6470    0.4950 N   0  0  0  0  0  0  0  0  0  0  0  0
   -0.7160    1.2360   -0.7120 C   0  0  0  0  0  0  0  0  0  0  0  0
   -0.2300    0.3560   -1.4380 O   0  0  0  0  0  0  0  0  0  0  0  0
   -1.9250    1.8390   -1.1370 N   0  0  0  0  0  0  0  0  0  0  0  0
   -2.4450    2.9620   -0.3430 C   0  0  0  0  0  0  0  0  0  0  0  0
   -2.6710    1.3370   -2.2570 C   0  0  0  0  0  0  0  0  0  0  0  0
   -3.8250    0.4640   -1.8820 C   0  0  0  0  0  0  0  0  0  0  0  0
   -5.0080    0.8910   -2.2760 C   0  0  0  0  0  0  0  0  0  0  0  0
   -6.3060    0.2940   -2.0910 C   0  0  0  0  0  0  0  0  0  0  0  0
   -6.6550   -0.9740   -2.5190 C   0  0  0  0  0  0  0  0  0  0  0  0
   -7.8910   -1.5190   -2.3110 C   0  0  0  0  0  0  0  0  0  0  0  0
   -8.2770   -2.8890   -2.7690 C   0  0  0  0  0  0  0  0  0  0  0  0
   -8.8330   -0.7650   -1.6420 C   0  0  0  0  0  0  0  0  0  0  0  0
   -8.4920    0.5110   -1.2080 C   0  0  0  0  0  0  0  0  0  0  0  0
   -7.2580    1.0560   -1.4150 C   0  0  0  0  0  0  0  0  0  0  0  0
   -6.9360    2.3610   -0.9650 N   0  0  0  0  0  0  0  0  0  0  0  0
   -7.9050    3.1560   -0.2670 C   0  0  0  0  0  0  0  0  0  0  0  0
   -3.6390   -0.6970   -1.0710 C   0  0  0  0  0  0  0  0  0  0  0  0
   -4.7610   -1.4690   -0.5900 N   0  0  0  0  0  0  0  0  0  0  0  0
   -2.5350   -1.1700   -0.6950 O   0  0  0  0  0  0  0  0  0  0  0  0
    1.9010    0.2180    0.4110 C   0  0  0  0  0  0  0  0  0  0  0  0
  1  2  1  0
  3  2  1  1
  3  4  1  0
  3  7  1  0
  4  5  1  0
  5  6  1  0
  7  8  1  0
  8  9  1  6
  8 10  1  0
 10 11  1  0
 11 12  2  0
 11 41  1  0
 12 13  1  0
 13 14  2  0
 14 15  1  0
 14 20  1  0
 15 16  1  1
 15 17  1  0
 17 18  1  0
 17 19  2  0
 20 21  1  0
 20 41  2  0
 21 22  1  0
 22 23  2  0
 22 24  1  0
 24 25  1  0
 24 26  1  0
 26 27  1  0
 27 28  2  3
 27 38  1  0
 28 29  1  0
 29 30  2  0
 29 35  1  0
 30 31  1  0
 31 32  1  0
 31 33  2  0
 33 34  1  0
 34 35  2  0
 35 36  1  0
 36 37  1  0
 38 39  1  0
 38 40  2  0
M  CHG  1   3   1
M  END
