
     RDKit          3D

 41 43  0  0  0  0  0  0  0  0999 V2000
   -6.4690   -3.4860   -1.0030 C   0  0  0  0  0  0  0  0  0  0  0  0
   -7.1880   -2.3350   -0.3280 C   0  0  0  0  0  0  0  0  0  0  0  0
   -7.7870   -1.3650   -1.2850 C   0  0  2  0  0  0  0  0  0  0  0  0
   -8.7750   -2.0320   -2.2470 C   0  0  0  0  0  0  0  0  0  0  0  0
   -9.8150   -2.6180   -1.5280 O   0  0  0  0  0  0  0  0  0  0  0  0
   -6.8730   -0.3990   -1.9120 C   0  0  0  0  0  0  0  0  0  0  0  0
   -6.1850    0.5270   -1.0560 N   0  0  0  0  0  0  0  0  0  0  0  0
   -4.8660    0.3690   -0.6070 C   0  0  0  0  0  0  0  0  0  0  0  0
   -4.3130    1.1970    0.1990 O   0  0  0  0  0  0  0  0  0  0  0  0
   -4.0340   -0.7530   -1.0440 C   0  0  0  0  0  0  0  0  0  0  0  0
   -2.6910   -0.7020   -0.4860 N   0  0  0  0  0  0  0  0  0  0  0  0
   -2.4150   -0.7200    0.9070 C   0  0  0  0  0  0  0  0  0  0  0  0
   -3.4080   -0.7840    1.6760 O   0  0  0  0  0  0  0  0  0  0  0  0
   -1.0980   -0.6700    1.4090 N   0  0  0  0  0  0  0  0  0  0  0  0
   -0.7360   -0.6850    2.7960 C   0  0  0  0  0  0  0  0  0  0  0  0
    0.6050    0.0310    2.8410 C   0  0  0  0  0  0  0  0  0  0  0  0
    0.8650    0.5000    1.4330 C   0  0  1  0  0  0  0  0  0  0  0  0
    2.2420    0.5660    1.0590 N   0  0  0  0  0  0  0  0  0  0  0  0
    3.1340   -0.0780    1.9700 C   0  0  0  0  0  0  0  0  0  0  0  0
    4.5760    0.1880    1.5140 C   0  0  1  0  0  0  0  0  0  0  0  0
    5.3760   -0.4570    2.4330 O   0  0  0  0  0  0  0  0  0  0  0  0
    4.8000   -0.2460    0.1120 C   0  0  0  0  0  0  0  0  0  0  0  0
    6.2150    0.0220   -0.3100 C   0  0  0  0  0  0  0  0  0  0  0  0
    7.2270   -0.6590    0.4180 N   0  0  0  0  0  0  0  0  0  0  0  0
    8.6080   -0.4390    0.1510 C   0  0  0  0  0  0  0  0  0  0  0  0
    8.9630    0.4450   -0.8250 C   0  0  0  0  0  0  0  0  0  0  0  0
   10.2960    0.6760   -1.1050 C   0  0  0  0  0  0  0  0  0  0  0  0
   10.7090    1.6410   -2.1700 C   0  0  0  0  0  0  0  0  0  0  0  0
   11.3090    0.0300   -0.4170 C   0  0  0  0  0  0  0  0  0  0  0  0
   12.7280    0.3020   -0.7430 C   0  0  0  0  0  0  0  0  0  0  0  0
   10.9460   -0.8630    0.5700 C   0  0  0  0  0  0  0  0  0  0  0  0
   12.0010   -1.5760    1.3320 C   0  0  0  0  0  0  0  0  0  0  0  0
    9.6070   -1.0870    0.8420 C   0  0  0  0  0  0  0  0  0  0  0  0
    0.1230   -0.6000    0.6560 C   0  0  0  0  0  0  0  0  0  0  0  0
   -6.8760    1.7260   -0.5720 C   0  0  2  0  0  0  0  0  0  0  0  0
   -6.0480    2.9510   -0.8970 C   0  0  0  0  0  0  0  0  0  0  0  0
   -7.0710    1.6730    0.9140 C   0  0  0  0  0  0  0  0  0  0  0  0
   -7.8010    2.9220    1.3910 C   0  0  0  0  0  0  0  0  0  0  0  0
   -8.8770    3.2500    0.6030 O   0  0  0  0  0  0  0  0  0  0  0  0
   -9.2750    2.1440   -0.1420 C   0  0  0  0  0  0  0  0  0  0  0  0
   -8.2120    1.9510   -1.2290 C   0  0  0  0  0  0  0  0  0  0  0  0
  1  2  1  0
  3  2  1  6
  3  4  1  0
  3  6  1  0
  4  5  1  0
  6  7  1  0
  7  8  1  0
  7 35  1  0
  8  9  2  0
  8 10  1  0
 10 11  1  0
 11 12  1  0
 12 13  2  0
 12 14  1  0
 14 15  1  0
 14 34  1  0
 15 16  1  0
 16 17  1  0
 17 18  1  6
 17 34  1  0
 18 19  1  0
 19 20  1  0
 20 21  1  1
 20 22  1  0
 22 23  1  0
 23 24  1  0
 24 25  1  0
 25 26  2  0
 25 33  1  0
 26 27  1  0
 27 28  1  0
 27 29  2  0
 29 30  1  0
 29 31  1  0
 31 32  1  0
 31 33  2  0
 35 36  1  1
 35 37  1  0
 35 41  1  0
 37 38  1  0
 38 39  1  0
 39 40  1  0
 40 41  1  0
M  CHG  1  18   1
M  END
