
     RDKit          3D

 41 42  0  0  0  0  0  0  0  0999 V2000
   10.6510   -1.8430   -1.9870 C   0  0  0  0  0  0  0  0  0  0  0  0
   10.4430   -1.0600   -0.9460 C   0  0  0  0  0  0  0  0  0  0  0  0
    9.2170   -1.1280   -0.0790 C   0  0  0  0  0  0  0  0  0  0  0  0
    8.5080    0.1330   -0.0910 N   0  0  0  0  0  0  0  0  0  0  0  0
    8.8640    1.1280    0.8960 C   0  0  0  0  0  0  0  0  0  0  0  0
    7.4910    0.3450   -1.0580 C   0  0  0  0  0  0  0  0  0  0  0  0
    7.1890   -0.5580   -1.8790 O   0  0  0  0  0  0  0  0  0  0  0  0
    6.7680    1.5540   -1.1590 N   0  0  0  0  0  0  0  0  0  0  0  0
    5.7140    1.8230   -2.1180 C   0  0  0  0  0  0  0  0  0  0  0  0
    4.4470    1.1900   -1.7380 C   0  0  0  0  0  0  0  0  0  0  0  0
    3.9270    0.1670   -2.4900 C   0  0  0  0  0  0  0  0  0  0  0  0
    2.7410   -0.4350   -2.1240 C   0  0  0  0  0  0  0  0  0  0  0  0
    2.0730    0.0190   -0.9660 C   0  0  0  0  0  0  0  0  0  0  0  0
    2.5500    1.0380   -0.1770 C   0  0  0  0  0  0  0  0  0  0  0  0
    2.0150    1.5290    1.0500 C   0  0  0  0  0  0  0  0  0  0  0  0
    2.5120    2.6950    1.4160 O   0  0  0  0  0  0  0  0  0  0  0  0
    1.0840    1.0370    1.9390 N   0  0  0  0  0  0  0  0  0  0  0  0
    0.7790    1.9300    3.0940 C   0  0  0  0  0  0  0  0  0  0  0  0
    0.6660    1.2470    4.3880 C   0  0  0  0  0  0  0  0  0  0  0  0
    0.5180   -0.2200    4.4190 C   0  0  0  0  0  0  0  0  0  0  0  0
    0.9190   -0.9440    3.1930 C   0  0  0  0  0  0  0  0  0  0  0  0
    0.4210   -0.2290    1.9260 C   0  0  1  0  0  0  0  0  0  0  0  0
   -1.0660    0.0660    2.0550 C   0  0  1  0  0  0  0  0  0  0  0  0
   -1.3920    0.8420    0.9580 O   0  0  0  0  0  0  0  0  0  0  0  0
   -1.9310   -1.1460    2.1100 C   0  0  0  0  0  0  0  0  0  0  0  0
   -3.3640   -0.7150    2.2510 C   0  0  1  0  0  0  0  0  0  0  0  0
   -3.6380    0.1230    3.4510 C   0  0  0  0  0  0  0  0  0  0  0  0
   -3.9300   -0.1170    1.0010 C   0  0  0  0  0  0  0  0  0  0  0  0
   -3.9810    1.1180    0.9220 O   0  0  0  0  0  0  0  0  0  0  0  0
   -4.3860   -0.9350   -0.0430 N   0  0  0  0  0  0  0  0  0  0  0  0
   -4.9870   -0.4990   -1.3090 C   0  0  2  0  0  0  0  0  0  0  0  0
   -5.0200   -1.8340   -2.1230 C   0  0  0  0  0  0  0  0  0  0  0  0
   -4.0680    0.3470   -2.0740 C   0  0  0  0  0  0  0  0  0  0  0  0
   -4.4110    0.8930   -3.3930 C   0  0  0  0  0  0  0  0  0  0  0  0
   -2.9780    0.6110   -1.6080 O   0  0  0  0  0  0  0  0  0  0  0  0
   -6.3690   -0.0090   -1.1070 C   0  0  1  0  0  0  0  0  0  0  0  0
   -6.5450    1.1710   -0.1690 C   0  0  0  0  0  0  0  0  0  0  0  0
   -7.2580    0.2210   -2.2670 C   0  0  0  0  0  0  0  0  0  0  0  0
   -7.6640   -0.8710   -3.1610 C   0  0  0  0  0  0  0  0  0  0  0  0
   -8.4380   -1.9250   -2.4980 N   0  0  0  0  0  0  0  0  0  0  0  0
    3.7750    1.6090   -0.6170 C   0  0  0  0  0  0  0  0  0  0  0  0
  1  2  2  0
  2  3  1  0
  3  4  1  0
  4  5  1  0
  4  6  1  0
  6  7  2  0
  6  8  1  0
  8  9  1  0
  9 10  1  0
 10 11  2  0
 10 41  1  0
 11 12  1  0
 12 13  2  0
 13 14  1  0
 14 15  1  0
 14 41  2  0
 15 16  2  0
 15 17  1  0
 17 18  1  0
 17 22  1  0
 18 19  1  0
 19 20  1  0
 20 21  1  0
 22 21  1  1
 22 23  1  0
 23 24  1  6
 23 25  1  0
 25 26  1  0
 26 27  1  1
 26 28  1  0
 28 29  2  0
 28 30  1  0
 30 31  1  0
 31 32  1  6
 31 33  1  0
 31 36  1  0
 33 34  1  0
 33 35  2  0
 36 37  1  6
 36 38  1  0
 38 39  1  0
 39 40  1  0
M  CHG  1  40   1
M  END
