
     RDKit          3D

 41 43  0  0  0  0  0  0  0  0999 V2000
   -5.6820    3.1350   -1.6790 C   0  0  0  0  0  0  0  0  0  0  0  0
   -5.0480    1.8310   -2.1420 C   0  0  0  0  0  0  0  0  0  0  0  0
   -4.5940    1.0320   -1.0190 N   0  0  0  0  0  0  0  0  0  0  0  0
   -3.1830    1.0480   -0.8260 C   0  0  1  0  0  0  0  0  0  0  0  0
   -2.8760    0.9980    0.6240 C   0  0  0  0  0  0  0  0  0  0  0  0
   -2.0990    1.9520    1.1260 C   0  0  0  0  0  0  0  0  0  0  0  0
   -1.6210    2.1940    2.4430 N   0  0  0  0  0  0  0  0  0  0  0  0
   -2.2560    1.8840    3.6800 C   0  0  0  0  0  0  0  0  0  0  0  0
   -3.0720    0.7110    3.6910 N   0  0  0  0  0  0  0  0  0  0  0  0
   -3.5000   -0.1880    2.6860 C   0  0  0  0  0  0  0  0  0  0  0  0
   -3.4140   -0.0600    1.4150 N   0  0  0  0  0  0  0  0  0  0  0  0
   -2.4240   -0.0050   -1.6260 C   0  0  1  0  0  0  0  0  0  0  0  0
   -1.0410    0.1490   -1.2810 O   0  0  0  0  0  0  0  0  0  0  0  0
   -0.0370    0.5960   -2.0800 C   0  0  0  0  0  0  0  0  0  0  0  0
   -0.1940    0.9930   -3.3820 C   0  0  0  0  0  0  0  0  0  0  0  0
    0.9000    1.4280   -4.0890 C   0  0  0  0  0  0  0  0  0  0  0  0
    2.1620    1.4800   -3.5290 C   0  0  0  0  0  0  0  0  0  0  0  0
    2.3000    1.0760   -2.2140 C   0  0  0  0  0  0  0  0  0  0  0  0
    1.2310    0.6370   -1.4820 C   0  0  0  0  0  0  0  0  0  0  0  0
    1.3980    0.2330   -0.1570 O   0  0  0  0  0  0  0  0  0  0  0  0
    2.7040    0.3030    0.3850 C   0  0  0  0  0  0  0  0  0  0  0  0
    2.7500   -0.1770    1.8100 C   0  0  0  0  0  0  0  0  0  0  0  0
    4.1760   -0.0620    2.3030 C   0  0  1  0  0  0  0  0  0  0  0  0
    4.1720   -0.5710    3.7250 C   0  0  0  0  0  0  0  0  0  0  0  0
    4.9760   -0.7250    1.4380 O   0  0  0  0  0  0  0  0  0  0  0  0
    6.3120   -0.5410    1.4690 C   0  0  2  0  0  0  0  0  0  0  0  0
    6.7430   -0.0950    0.0620 C   0  0  0  0  0  0  0  0  0  0  0  0
    6.9750   -1.9130    1.6610 C   0  0  0  0  0  0  0  0  0  0  0  0
    6.8830    0.3970    2.4500 C   0  0  0  0  0  0  0  0  0  0  0  0
    5.9430    1.4270    2.9990 C   0  0  0  0  0  0  0  0  0  0  0  0
    4.6020    1.4120    2.2870 C   0  0  2  0  0  0  0  0  0  0  0  0
    3.6210    2.2950    2.9830 C   0  0  0  0  0  0  0  0  0  0  0  0
   -2.9070   -1.3340   -1.2390 C   0  0  0  0  0  0  0  0  0  0  0  0
   -2.2970   -1.8200   -0.1970 O   0  0  0  0  0  0  0  0  0  0  0  0
   -3.9160   -2.1140   -1.8480 N   0  0  0  0  0  0  0  0  0  0  0  0
   -4.5110   -1.7140   -3.0980 C   0  0  0  0  0  0  0  0  0  0  0  0
   -3.7490   -2.4070   -4.2340 C   0  0  0  0  0  0  0  0  0  0  0  0
   -2.4370   -2.0320   -4.1920 O   0  0  0  0  0  0  0  0  0  0  0  0
   -4.4000   -3.3440   -1.2330 C   0  0  2  0  0  0  0  0  0  0  0  0
   -5.0770   -3.0490    0.0970 C   0  0  0  0  0  0  0  0  0  0  0  0
   -3.3380   -4.3620   -0.9960 C   0  0  0  0  0  0  0  0  0  0  0  0
  1  2  1  0
  2  3  1  0
  4  3  1  1
  4  5  1  0
  4 12  1  0
  5  6  2  0
  5 11  1  0
  6  7  1  0
  7  8  1  0
  8  9  1  0
  9 10  1  0
 10 11  2  0
 12 13  1  1
 12 33  1  0
 13 14  1  0
 14 15  2  0
 14 19  1  0
 15 16  1  0
 16 17  2  0
 17 18  1  0
 18 19  2  0
 19 20  1  0
 20 21  1  0
 21 22  1  0
 22 23  1  0
 23 24  1  1
 23 25  1  0
 23 31  1  0
 25 26  1  0
 26 27  1  6
 26 28  1  0
 26 29  1  0
 29 30  1  0
 30 31  1  0
 31 32  1  1
 33 34  2  0
 33 35  1  0
 35 36  1  0
 35 39  1  0
 36 37  1  0
 37 38  1  0
 39 40  1  1
 39 41  1  0
M  CHG  1   3   1
M  END
