
     RDKit          3D

 41 42  0  0  0  0  0  0  0  0999 V2000
    9.2810    2.2860    2.3940 C   0  0  0  0  0  0  0  0  0  0  0  0
   10.4550    2.1040    1.5200 C   0  0  0  0  0  0  0  0  0  0  0  0
   10.4670    1.1500    0.5660 C   0  0  0  0  0  0  0  0  0  0  0  0
    9.2940    0.3310    0.4430 C   0  0  0  0  0  0  0  0  0  0  0  0
    9.0660   -0.6750   -0.4010 C   0  0  0  0  0  0  0  0  0  0  0  0
   10.0620   -1.0630   -1.3450 C   0  0  0  0  0  0  0  0  0  0  0  0
    9.9610   -2.1250   -2.2550 N   0  0  0  0  0  0  0  0  0  0  0  0
   11.1860   -0.4380   -1.4440 O   0  0  0  0  0  0  0  0  0  0  0  0
    7.7820   -1.3490   -0.2930 C   0  0  0  0  0  0  0  0  0  0  0  0
    6.9570   -1.1270    0.7970 C   0  0  0  0  0  0  0  0  0  0  0  0
    5.6730   -1.6580    0.8970 C   0  0  0  0  0  0  0  0  0  0  0  0
    5.1880   -2.4430   -0.1190 C   0  0  0  0  0  0  0  0  0  0  0  0
    3.8780   -2.8710   -0.1240 N   0  0  0  0  0  0  0  0  0  0  0  0
    2.8210   -1.8360    0.2650 C   0  0  0  0  0  0  0  0  0  0  0  0
    3.2500   -0.7840    0.5460 O   0  0  0  0  0  0  0  0  0  0  0  0
    1.5900   -2.4770    0.1620 N   0  0  0  0  0  0  0  0  0  0  0  0
    0.6110   -1.0970    0.6430 C   0  0  0  0  0  0  0  0  0  0  0  0
    1.2590   -0.1650    0.8460 O   0  0  0  0  0  0  0  0  0  0  0  0
   -0.7890   -1.5030    0.6630 C   0  0  1  0  0  0  0  0  0  0  0  0
   -0.9970   -2.7670    1.4840 C   0  0  0  0  0  0  0  0  0  0  0  0
   -1.5920   -0.4020    1.2810 C   0  0  0  0  0  0  0  0  0  0  0  0
   -1.5740    0.8790    0.5580 C   0  0  0  0  0  0  0  0  0  0  0  0
   -0.5540    1.6110    0.6630 O   0  0  0  0  0  0  0  0  0  0  0  0
   -2.7020    1.2500   -0.2230 N   0  0  0  0  0  0  0  0  0  0  0  0
   -2.6550    2.5790   -0.7870 C   0  0  0  0  0  0  0  0  0  0  0  0
   -3.1830    3.6740    0.0860 C   0  0  2  0  0  0  0  0  0  0  0  0
   -3.0850    5.0270   -0.6430 C   0  0  0  0  0  0  0  0  0  0  0  0
   -2.3300    3.8660    1.3410 C   0  0  0  0  0  0  0  0  0  0  0  0
   -2.9390    4.9300    2.0490 O   0  0  0  0  0  0  0  0  0  0  0  0
   -3.7180    0.2920   -0.4750 C   0  0  2  0  0  0  0  0  0  0  0  0
   -4.0440    0.0250   -1.8810 C   0  0  0  0  0  0  0  0  0  0  0  0
   -5.4390   -0.2510   -2.2760 C   0  0  0  0  0  0  0  0  0  0  0  0
   -6.5080    0.6020   -1.7270 C   0  0  0  0  0  0  0  0  0  0  0  0
   -7.0430    0.0950   -0.4810 N   0  0  1  0  0  0  0  0  0  0  0  0
   -8.2470   -0.6180   -0.6340 C   0  0  0  0  0  0  0  0  0  0  0  0
   -8.4830   -1.7880    0.2320 C   0  0  0  0  0  0  0  0  0  0  0  0
   -7.5260   -2.9060    0.0410 C   0  0  0  0  0  0  0  0  0  0  0  0
   -5.9730   -0.4800    0.2650 C   0  0  0  0  0  0  0  0  0  0  0  0
   -4.9240    0.6360    0.3990 C   0  0  0  0  0  0  0  0  0  0  0  0
    5.9870   -2.6870   -1.2130 C   0  0  0  0  0  0  0  0  0  0  0  0
    7.2570   -2.1490   -1.2960 C   0  0  0  0  0  0  0  0  0  0  0  0
  1  2  1  0
  2  3  2  3
  3  4  1  0
  4  5  2  3
  5  6  1  0
  5  9  1  0
  6  7  1  0
  6  8  2  0
  9 10  2  0
  9 41  1  0
 10 11  1  0
 11 12  2  0
 12 13  1  0
 12 40  1  0
 13 14  1  0
 14 15  2  0
 14 16  1  0
 16 17  1  0
 17 18  2  0
 17 19  1  0
 19 20  1  1
 19 21  1  0
 21 22  1  0
 22 23  2  0
 22 24  1  0
 24 25  1  0
 30 24  1  6
 25 26  1  0
 26 27  1  6
 26 28  1  0
 28 29  1  0
 30 31  1  0
 30 39  1  0
 31 32  1  0
 32 33  1  0
 33 34  1  0
 34 35  1  6
 34 38  1  0
 35 36  1  0
 36 37  1  0
 38 39  1  0
 40 41  2  0
M  CHG  1  34   1
M  END
