
     RDKit          3D

 41 43  0  0  0  0  0  0  0  0999 V2000
    8.6430    2.4120   -0.3030 C   0  0  0  0  0  0  0  0  0  0  0  0
    9.5070    1.4800   -0.0260 C   0  0  0  0  0  0  0  0  0  0  0  0
   10.2990    0.7240   -0.9850 C   0  0  0  0  0  0  0  0  0  0  0  0
    9.7790    0.6160   -2.3620 C   0  0  0  0  0  0  0  0  0  0  0  0
    8.5630   -0.1790   -2.6110 C   0  0  2  0  0  0  0  0  0  0  0  0
    8.2110   -0.1640   -4.1220 C   0  0  0  0  0  0  0  0  0  0  0  0
    7.3520    0.1850   -1.9490 N   0  0  0  0  0  0  0  0  0  0  0  0
    6.6100   -0.8500   -1.2600 C   0  0  0  0  0  0  0  0  0  0  0  0
    7.0360   -2.0290   -1.2740 O   0  0  0  0  0  0  0  0  0  0  0  0
    5.3560   -0.5030   -0.5520 C   0  0  0  0  0  0  0  0  0  0  0  0
    4.7280   -1.6770    0.0130 N   0  0  0  0  0  0  0  0  0  0  0  0
    5.4010   -2.3230    1.0560 C   0  0  0  0  0  0  0  0  0  0  0  0
    3.3320   -1.7100   -0.1020 C   0  0  0  0  0  0  0  0  0  0  0  0
    2.5420   -0.7100    0.7130 C   0  0  1  0  0  0  0  0  0  0  0  0
    1.0720   -0.9660    0.3470 C   0  0  0  0  0  0  0  0  0  0  0  0
    0.2100   -0.1070    1.1190 N   0  0  0  0  0  0  0  0  0  0  0  0
   -1.2050    0.0270    0.8650 C   0  0  0  0  0  0  0  0  0  0  0  0
   -1.7860   -0.5370   -0.0800 O   0  0  0  0  0  0  0  0  0  0  0  0
   -2.0160    0.8850    1.7890 C   0  0  0  0  0  0  0  0  0  0  0  0
   -3.4130    0.8780    1.4190 N   0  0  0  0  0  0  0  0  0  0  0  0
   -4.1720   -0.3440    1.5010 C   0  0  0  0  0  0  0  0  0  0  0  0
   -3.5780   -1.4980    1.9400 C   0  0  0  0  0  0  0  0  0  0  0  0
   -4.2850   -2.6730    1.9980 C   0  0  0  0  0  0  0  0  0  0  0  0
   -5.5930   -2.6720    1.6080 C   0  0  0  0  0  0  0  0  0  0  0  0
   -6.1880   -1.4830    1.1620 C   0  0  0  0  0  0  0  0  0  0  0  0
   -5.5250   -0.2870    1.0880 C   0  0  0  0  0  0  0  0  0  0  0  0
   -6.0830    0.9910    0.6720 C   0  0  0  0  0  0  0  0  0  0  0  0
   -7.4310    1.1220    0.2770 N   0  0  2  0  0  0  0  0  0  0  0  0
   -8.4410    0.6560    1.1670 C   0  0  0  0  0  0  0  0  0  0  0  0
   -9.6370    0.0020    0.5620 C   0  0  0  0  0  0  0  0  0  0  0  0
   -9.4410   -0.7560   -0.6980 C   0  0  0  0  0  0  0  0  0  0  0  0
   -8.2210   -0.4290   -1.4890 C   0  0  0  0  0  0  0  0  0  0  0  0
   -7.7350    0.9480   -1.1140 C   0  0  2  0  0  0  0  0  0  0  0  0
   -6.6560    1.4310   -2.0410 C   0  0  0  0  0  0  0  0  0  0  0  0
   -6.3240    2.8500   -1.9400 C   0  0  0  0  0  0  0  0  0  0  0  0
   -6.8790    3.6700   -1.1920 O   0  0  0  0  0  0  0  0  0  0  0  0
   -5.2940    3.3540   -2.7470 O   0  0  0  0  0  0  0  0  0  0  0  0
    0.8220    0.6690    2.1930 C   0  0  0  0  0  0  0  0  0  0  0  0
    1.6780   -0.2560    3.0250 C   0  0  0  0  0  0  0  0  0  0  0  0
    2.7700   -0.8900    2.1920 C   0  0  2  0  0  0  0  0  0  0  0  0
    3.9470   -0.2040    2.5250 O   0  0  0  0  0  0  0  0  0  0  0  0
  1  2  2  0
  2  3  1  0
  3  4  1  0
  4  5  1  0
  5  6  1  6
  5  7  1  0
  7  8  1  0
  8  9  2  0
  8 10  1  0
 10 11  1  0
 11 12  1  0
 11 13  1  0
 14 13  1  6
 14 15  1  0
 14 40  1  0
 15 16  1  0
 16 17  1  0
 16 38  1  0
 17 18  2  0
 17 19  1  0
 19 20  1  0
 20 21  1  0
 21 22  2  0
 21 26  1  0
 22 23  1  0
 23 24  2  0
 24 25  1  0
 25 26  2  0
 26 27  1  0
 28 27  1  1
 28 29  1  0
 28 33  1  0
 29 30  1  0
 30 31  1  0
 31 32  1  0
 32 33  1  0
 33 34  1  6
 34 35  1  0
 35 36  2  0
 35 37  1  0
 38 39  1  0
 39 40  1  0
 40 41  1  1
M  CHG  1  28   1
M  END
