
     RDKit          3D

 41 43  0  0  0  0  0  0  0  0999 V2000
   -0.1080    2.0740   -3.8330 C   0  0  0  0  0  0  0  0  0  0  0  0
   -0.8910    0.9960   -3.0900 C   0  0  0  0  0  0  0  0  0  0  0  0
   -0.4510    1.0400   -1.7240 N   0  0  0  0  0  0  0  0  0  0  0  0
   -1.5350    0.9380   -0.7520 C   0  0  1  0  0  0  0  0  0  0  0  0
   -2.3210    2.1230   -0.5610 C   0  0  0  0  0  0  0  0  0  0  0  0
   -2.7040    2.4390    0.6910 C   0  0  0  0  0  0  0  0  0  0  0  0
   -3.4570    3.5130    1.1600 N   0  0  0  0  0  0  0  0  0  0  0  0
   -3.7620    4.7990    0.6270 C   0  0  0  0  0  0  0  0  0  0  0  0
   -3.8390    4.8500   -0.8300 N   0  0  0  0  0  0  0  0  0  0  0  0
   -3.2710    4.0160   -1.7980 C   0  0  0  0  0  0  0  0  0  0  0  0
   -2.6380    2.8840   -1.7280 N   0  0  0  0  0  0  0  0  0  0  0  0
   -2.1320   -0.4250   -0.7920 C   0  0  1  0  0  0  0  0  0  0  0  0
   -1.0690   -1.2760   -0.4470 O   0  0  0  0  0  0  0  0  0  0  0  0
   -0.7280   -2.5240   -0.6830 C   0  0  0  0  0  0  0  0  0  0  0  0
   -1.4750   -3.4650   -1.3130 C   0  0  0  0  0  0  0  0  0  0  0  0
   -1.0220   -4.7740   -1.5190 C   0  0  0  0  0  0  0  0  0  0  0  0
    0.2140   -5.1490   -1.0820 C   0  0  0  0  0  0  0  0  0  0  0  0
    1.0030   -4.2140   -0.4350 C   0  0  0  0  0  0  0  0  0  0  0  0
    0.5580   -2.9380   -0.2360 C   0  0  0  0  0  0  0  0  0  0  0  0
    1.2810   -1.9690    0.3860 O   0  0  0  0  0  0  0  0  0  0  0  0
    2.5870   -2.1870    0.8620 C   0  0  0  0  0  0  0  0  0  0  0  0
    3.0550   -0.8860    1.4840 C   0  0  0  0  0  0  0  0  0  0  0  0
    4.4910   -0.9390    1.9850 C   0  0  1  0  0  0  0  0  0  0  0  0
    4.5360   -2.0540    3.0290 C   0  0  0  0  0  0  0  0  0  0  0  0
    5.2590   -1.1920    0.9030 O   0  0  0  0  0  0  0  0  0  0  0  0
    6.3830   -0.4940    0.6460 C   0  0  2  0  0  0  0  0  0  0  0  0
    6.5210   -0.4620   -0.8940 C   0  0  0  0  0  0  0  0  0  0  0  0
    7.6480   -1.2080    1.1300 C   0  0  0  0  0  0  0  0  0  0  0  0
    6.4570    0.9240    1.0810 C   0  0  0  0  0  0  0  0  0  0  0  0
    5.1980    1.4530    1.6810 C   0  0  0  0  0  0  0  0  0  0  0  0
    4.7040    0.4080    2.6540 C   0  0  2  0  0  0  0  0  0  0  0  0
    5.5970    0.3430    3.8590 C   0  0  0  0  0  0  0  0  0  0  0  0
   -3.2700   -0.5440    0.1730 C   0  0  0  0  0  0  0  0  0  0  0  0
   -3.1000   -1.0550    1.2930 O   0  0  0  0  0  0  0  0  0  0  0  0
   -4.5980   -0.0840   -0.1550 N   0  0  0  0  0  0  0  0  0  0  0  0
   -5.6050   -0.2050    0.8750 C   0  0  0  0  0  0  0  0  0  0  0  0
   -6.3120   -1.5220    0.8560 C   0  0  0  0  0  0  0  0  0  0  0  0
   -7.2910   -1.5970    1.8740 O   0  0  0  0  0  0  0  0  0  0  0  0
   -4.9370    0.4750   -1.4360 C   0  0  1  0  0  0  0  0  0  0  0  0
   -5.8730   -0.4800   -2.1770 C   0  0  0  0  0  0  0  0  0  0  0  0
   -5.6850    1.7670   -1.3200 C   0  0  0  0  0  0  0  0  0  0  0  0
  1  2  1  0
  2  3  1  0
  4  3  1  6
  4  5  1  0
  4 12  1  0
  5  6  2  0
  5 11  1  0
  6  7  1  0
  7  8  1  0
  8  9  1  0
  9 10  1  0
 10 11  2  0
 12 13  1  1
 12 33  1  0
 13 14  1  0
 14 15  2  0
 14 19  1  0
 15 16  1  0
 16 17  2  0
 17 18  1  0
 18 19  2  0
 19 20  1  0
 20 21  1  0
 21 22  1  0
 22 23  1  0
 23 24  1  1
 23 25  1  0
 23 31  1  0
 25 26  1  0
 26 27  1  6
 26 28  1  0
 26 29  1  0
 29 30  1  0
 30 31  1  0
 31 32  1  1
 33 34  2  0
 33 35  1  0
 35 36  1  0
 35 39  1  0
 36 37  1  0
 37 38  1  0
 39 40  1  1
 39 41  1  0
M  CHG  1   3   1
M  END
