
     RDKit          3D

 41 43  0  0  0  0  0  0  0  0999 V2000
   -5.1790   -3.6160    0.4990 C   0  0  0  0  0  0  0  0  0  0  0  0
   -4.5870   -2.2600    0.6930 C   0  0  0  0  0  0  0  0  0  0  0  0
   -5.3690   -1.1980   -0.0470 C   0  0  2  0  0  0  0  0  0  0  0  0
   -5.4080   -1.4360   -1.4870 C   0  0  0  0  0  0  0  0  0  0  0  0
   -6.0800   -2.6980   -1.6740 O   0  0  0  0  0  0  0  0  0  0  0  0
   -5.2320    0.1570    0.5340 C   0  0  0  0  0  0  0  0  0  0  0  0
   -5.8720    1.2330   -0.1260 N   0  0  0  0  0  0  0  0  0  0  0  0
   -5.2070    2.1640   -0.9390 C   0  0  0  0  0  0  0  0  0  0  0  0
   -6.0510    2.9550   -1.6670 O   0  0  0  0  0  0  0  0  0  0  0  0
   -3.8690    2.5310   -1.2010 C   0  0  0  0  0  0  0  0  0  0  0  0
   -2.6610    2.0220   -0.7150 N   0  0  0  0  0  0  0  0  0  0  0  0
   -1.9930    0.7900   -0.9490 C   0  0  0  0  0  0  0  0  0  0  0  0
   -2.5780    0.0160   -1.7480 O   0  0  0  0  0  0  0  0  0  0  0  0
   -0.7620    0.4330   -0.3450 N   0  0  0  0  0  0  0  0  0  0  0  0
    0.0440    1.1870    0.5710 C   0  0  0  0  0  0  0  0  0  0  0  0
    1.4000    1.0710   -0.1590 C   0  0  0  0  0  0  0  0  0  0  0  0
    1.3970   -0.3460   -0.5670 C   0  0  1  0  0  0  0  0  0  0  0  0
    2.2140   -1.2730    0.1270 N   0  0  0  0  0  0  0  0  0  0  0  0
    2.6010   -0.9910    1.4580 C   0  0  0  0  0  0  0  0  0  0  0  0
    4.0250   -1.3880    1.7090 C   0  0  1  0  0  0  0  0  0  0  0  0
    4.2700   -2.7430    1.4340 O   0  0  0  0  0  0  0  0  0  0  0  0
    5.0780   -0.4490    1.2870 C   0  0  0  0  0  0  0  0  0  0  0  0
    5.1240   -0.1210   -0.1680 C   0  0  0  0  0  0  0  0  0  0  0  0
    6.2490    0.7750   -0.4020 N   0  0  0  0  0  0  0  0  0  0  0  0
    7.5600    0.2970   -0.2600 C   0  0  0  0  0  0  0  0  0  0  0  0
    8.6580    1.1530   -0.2480 C   0  0  0  0  0  0  0  0  0  0  0  0
    9.9310    0.6630   -0.1280 C   0  0  0  0  0  0  0  0  0  0  0  0
   11.0370    1.6760   -0.1290 C   0  0  0  0  0  0  0  0  0  0  0  0
   10.2080   -0.6780   -0.0140 C   0  0  0  0  0  0  0  0  0  0  0  0
   11.6060   -1.1670    0.1110 C   0  0  0  0  0  0  0  0  0  0  0  0
    9.1310   -1.5320   -0.0250 C   0  0  0  0  0  0  0  0  0  0  0  0
    9.3610   -2.9840    0.0980 C   0  0  0  0  0  0  0  0  0  0  0  0
    7.8240   -1.0490   -0.1470 C   0  0  0  0  0  0  0  0  0  0  0  0
   -0.0730   -0.8100   -0.5590 C   0  0  0  0  0  0  0  0  0  0  0  0
   -7.3390    1.4060    0.0870 C   0  0  1  0  0  0  0  0  0  0  0  0
   -7.9410    0.3900    0.9940 C   0  0  0  0  0  0  0  0  0  0  0  0
   -7.5750    2.7600    0.7450 C   0  0  0  0  0  0  0  0  0  0  0  0
   -9.0190    3.1020    0.7830 C   0  0  0  0  0  0  0  0  0  0  0  0
   -9.7960    2.6940   -0.2600 O   0  0  0  0  0  0  0  0  0  0  0  0
   -9.0990    2.3880   -1.4240 C   0  0  0  0  0  0  0  0  0  0  0  0
   -8.0880    1.3170   -1.2250 C   0  0  0  0  0  0  0  0  0  0  0  0
  1  2  1  0
  3  2  1  6
  3  4  1  0
  3  6  1  0
  4  5  1  0
  6  7  1  0
  7  8  1  0
  7 35  1  0
  8  9  2  0
  8 10  1  0
 10 11  1  0
 11 12  1  0
 12 13  2  0
 12 14  1  0
 14 15  1  0
 14 34  1  0
 15 16  1  0
 16 17  1  0
 17 18  1  1
 17 34  1  0
 18 19  1  0
 19 20  1  0
 20 21  1  6
 20 22  1  0
 22 23  1  0
 23 24  1  0
 24 25  1  0
 25 26  2  0
 25 33  1  0
 26 27  1  0
 27 28  1  0
 27 29  2  0
 29 30  1  0
 29 31  1  0
 31 32  1  0
 31 33  2  0
 35 36  1  1
 35 37  1  0
 35 41  1  0
 37 38  1  0
 38 39  1  0
 39 40  1  0
 40 41  1  0
M  CHG  1  18   1
M  END
