
     RDKit          3D

 42 46  0  0  0  0  0  0  0  0999 V2000
   -9.6450    2.1750    1.0520 C   0  0  0  0  0  0  0  0  0  0  0  0
   -8.3740    2.6900    1.4040 O   0  0  0  0  0  0  0  0  0  0  0  0
   -7.2780    1.8480    1.2760 C   0  0  0  0  0  0  0  0  0  0  0  0
   -6.0110    2.3110    1.6100 C   0  0  0  0  0  0  0  0  0  0  0  0
   -4.9180    1.4810    1.4860 C   0  0  0  0  0  0  0  0  0  0  0  0
   -5.0340    0.1840    1.0340 C   0  0  0  0  0  0  0  0  0  0  0  0
   -3.5820   -0.7770    0.9370 S   0  0  1  0  0  0  0  0  0  0  0  0
   -2.7790   -0.4330    2.1570 O   0  0  0  0  0  0  0  0  0  0  0  0
   -4.0100   -2.2260    0.9640 O   0  0  0  0  0  0  0  0  0  0  0  0
   -2.7880   -0.4820   -0.5180 N   0  0  0  0  0  0  0  0  0  0  0  0
   -3.6350   -0.8500   -1.6310 C   0  0  0  0  0  0  0  0  0  0  0  0
   -4.3510    0.3110   -2.2580 C   0  0  2  0  0  0  0  0  0  0  0  0
   -5.2070   -0.1980   -3.4030 C   0  0  0  0  0  0  0  0  0  0  0  0
   -3.3820    1.3140   -2.8600 C   0  0  0  0  0  0  0  0  0  0  0  0
   -1.5220   -1.1290   -0.6900 C   0  0  0  0  0  0  0  0  0  0  0  0
   -0.3460   -0.3610   -0.1920 C   0  0  1  0  0  0  0  0  0  0  0  0
   -0.3740   -0.0670    1.1620 O   0  0  0  0  0  0  0  0  0  0  0  0
    0.9160   -1.1480   -0.4690 C   0  0  2  0  0  0  0  0  0  0  0  0
    1.0000   -2.4580    0.2670 C   0  0  0  0  0  0  0  0  0  0  0  0
    0.9840   -2.3480    1.7330 C   0  0  0  0  0  0  0  0  0  0  0  0
    2.2000   -2.1540    2.4000 C   0  0  0  0  0  0  0  0  0  0  0  0
    2.2500   -2.0560    3.7740 C   0  0  0  0  0  0  0  0  0  0  0  0
    1.1100   -2.1450    4.5390 C   0  0  0  0  0  0  0  0  0  0  0  0
   -0.0870   -2.3340    3.9140 C   0  0  0  0  0  0  0  0  0  0  0  0
   -0.1290   -2.4320    2.5230 C   0  0  0  0  0  0  0  0  0  0  0  0
    2.1000   -0.3710   -0.1400 N   0  0  0  0  0  0  0  0  0  0  0  0
    3.0130   -0.0450   -1.1660 C   0  0  0  0  0  0  0  0  0  0  0  0
    2.7960   -0.4270   -2.3560 O   0  0  0  0  0  0  0  0  0  0  0  0
    4.1690    0.6890   -0.9580 O   0  0  0  0  0  0  0  0  0  0  0  0
    5.0930    1.0280   -1.9580 C   0  0  1  0  0  0  0  0  0  0  0  0
    5.3070    2.5260   -2.0570 C   0  0  0  0  0  0  0  0  0  0  0  0
    6.5820    2.5930   -2.6190 O   0  0  0  0  0  0  0  0  0  0  0  0
    7.3040    1.7930   -1.7170 C   0  0  1  0  0  0  0  0  0  0  0  0
    7.2300    2.3910   -0.4830 O   0  0  0  0  0  0  0  0  0  0  0  0
    6.9460    1.4580    0.4680 C   0  0  2  0  0  0  0  0  0  0  0  0
    8.0080    1.2990    1.3060 O   0  0  0  0  0  0  0  0  0  0  0  0
    8.5360    0.0510    1.1780 C   0  0  0  0  0  0  0  0  0  0  0  0
    7.9310   -0.6070   -0.0360 C   0  0  0  0  0  0  0  0  0  0  0  0
    6.6330    0.1510   -0.1870 C   0  0  2  0  0  0  0  0  0  0  0  0
    6.4830    0.5260   -1.6420 C   0  0  1  0  0  0  0  0  0  0  0  0
   -6.2860   -0.2850    0.7000 C   0  0  0  0  0  0  0  0  0  0  0  0
   -7.3860    0.5490    0.8240 C   0  0  0  0  0  0  0  0  0  0  0  0
  1  2  1  0
  2  3  1  0
  3  4  2  0
  3 42  1  0
  4  5  1  0
  5  6  2  0
  6  7  1  0
  6 41  1  0
  7  8  2  0
  7  9  2  0
  7 10  1  6
 10 11  1  0
 10 15  1  0
 11 12  1  0
 12 13  1  6
 12 14  1  0
 15 16  1  0
 16 17  1  1
 16 18  1  0
 18 19  1  1
 18 26  1  0
 19 20  1  0
 20 21  2  0
 20 25  1  0
 21 22  1  0
 22 23  2  0
 23 24  1  0
 24 25  2  0
 26 27  1  0
 27 28  2  0
 27 29  1  0
 30 29  1  1
 30 31  1  0
 40 30  1  1
 31 32  1  0
 33 32  1  6
 33 34  1  0
 33 40  1  0
 35 34  1  6
 35 36  1  0
 35 39  1  0
 36 37  1  0
 37 38  1  0
 39 38  1  6
 39 40  1  0
 41 42  2  0
M  END
