
     RDKit          3D

 32 33  0  0  0  0  0  0  0  0999 V2000
    4.6020    2.8850   -2.4810 C   0  0  0  0  0  0  0  0  0  0  0  0
    4.9760    1.7790   -1.6690 O   0  0  0  0  0  0  0  0  0  0  0  0
    6.1130    1.7440   -0.9100 C   0  0  0  0  0  0  0  0  0  0  0  0
    6.8520    2.7930   -0.9670 O   0  0  0  0  0  0  0  0  0  0  0  0
    6.5510    0.6490   -0.0650 C   0  0  0  0  0  0  0  0  0  0  0  0
    5.8290   -0.4350    0.0380 C   0  0  0  0  0  0  0  0  0  0  0  0
    4.3040   -0.5770   -0.8470 S   0  0  0  0  0  0  0  0  0  0  0  0
    2.9070    0.2090    0.0020 C   0  0  0  0  0  0  0  0  0  0  0  0
    2.6010   -0.5480    1.2740 C   0  0  0  0  0  0  0  0  0  0  0  0
    1.5010    0.0660    1.9600 N   0  0  0  0  0  0  0  0  0  0  0  0
    0.2300    0.1700    1.3610 C   0  0  0  0  0  0  0  0  0  0  0  0
    0.0320   -0.2810    0.2080 O   0  0  0  0  0  0  0  0  0  0  0  0
   -0.8720    0.7930    2.0460 N   0  0  0  0  0  0  0  0  0  0  0  0
   -2.1110    0.8470    1.3530 C   0  0  0  0  0  0  0  0  0  0  0  0
   -2.6880    2.0170    1.0790 C   0  0  0  0  0  0  0  0  0  0  0  0
   -3.9510    2.1510    0.3750 C   0  0  0  0  0  0  0  0  0  0  0  0
   -4.4270    3.2730    0.1560 O   0  0  0  0  0  0  0  0  0  0  0  0
   -4.6220    0.9060   -0.0560 C   0  0  0  0  0  0  0  0  0  0  0  0
   -5.7730    0.9270   -0.7010 C   0  0  0  0  0  0  0  0  0  0  0  0
   -6.3800    2.2880   -0.9820 C   0  0  0  0  0  0  0  0  0  0  0  0
   -6.4630   -0.2920   -1.1410 C   0  0  2  0  0  0  0  0  0  0  0  0
   -8.1430   -0.3010   -0.5110 Cl  0  0  0  0  0  0  0  0  0  0  0  0
   -5.7790   -1.5430   -0.8110 C   0  0  0  0  0  0  0  0  0  0  0  0
   -6.4110   -2.8720   -1.2240 C   0  0  0  0  0  0  0  0  0  0  0  0
   -4.6350   -1.5590   -0.1690 C   0  0  0  0  0  0  0  0  0  0  0  0
   -3.9140   -3.1300    0.1680 Cl  0  0  0  0  0  0  0  0  0  0  0  0
   -3.9560   -0.3520    0.2640 C   0  0  0  0  0  0  0  0  0  0  0  0
   -2.8040   -0.3660    0.9110 C   0  0  0  0  0  0  0  0  0  0  0  0
    6.2950   -1.5490    0.8480 C   0  0  0  0  0  0  0  0  0  0  0  0
    7.4000   -1.5120    1.4740 O   0  0  0  0  0  0  0  0  0  0  0  0
    5.5640   -2.7260    0.9920 O   0  0  0  0  0  0  0  0  0  0  0  0
    6.0370   -3.8110    1.7910 C   0  0  0  0  0  0  0  0  0  0  0  0
  1  2  1  0
  2  3  1  0
  3  4  2  0
  3  5  1  0
  5  6  2  3
  6  7  1  0
  6 29  1  0
  7  8  1  0
  8  9  1  0
  9 10  1  0
 10 11  1  0
 11 12  2  0
 11 13  1  0
 13 14  1  0
 14 15  2  0
 14 28  1  0
 15 16  1  0
 16 17  2  0
 16 18  1  0
 18 19  2  0
 18 27  1  0
 19 20  1  0
 19 21  1  0
 21 22  1  1
 21 23  1  0
 23 24  1  0
 23 25  2  0
 25 26  1  0
 25 27  1  0
 27 28  2  0
 29 30  2  0
 29 31  1  0
 31 32  1  0
M  END
