
     RDKit          3D

 32 33  0  0  0  0  0  0  0  0999 V2000
    9.4840   -1.4580   -0.8710 C   0  0  0  0  0  0  0  0  0  0  0  0
    9.4260    0.0610   -0.9400 C   0  0  0  0  0  0  0  0  0  0  0  0
    8.6870    0.5770    0.1320 O   0  0  0  0  0  0  0  0  0  0  0  0
    7.3470    0.3670    0.3850 C   0  0  0  0  0  0  0  0  0  0  0  0
    6.6700   -0.3350   -0.3920 O   0  0  0  0  0  0  0  0  0  0  0  0
    6.7430    0.9820    1.5720 C   0  0  0  0  0  0  0  0  0  0  0  0
    5.1240    1.6590    1.2110 S   0  0  0  0  0  0  0  0  0  0  0  0
    3.9230    0.4430    0.7730 C   0  0  0  0  0  0  0  0  0  0  0  0
    4.2570   -0.7190    0.5110 O   0  0  0  0  0  0  0  0  0  0  0  0
    2.5310    0.7920    0.7110 N   0  0  0  0  0  0  0  0  0  0  0  0
    1.4960   -0.0940    0.3800 C   0  0  0  0  0  0  0  0  0  0  0  0
    1.7920   -1.2650    0.0530 O   0  0  0  0  0  0  0  0  0  0  0  0
    0.0650    0.2880    0.4050 C   0  0  0  0  0  0  0  0  0  0  0  0
   -0.8920   -0.5460    0.0820 C   0  0  0  0  0  0  0  0  0  0  0  0
   -2.3070   -0.1840    0.1060 C   0  0  0  0  0  0  0  0  0  0  0  0
   -3.4080   -0.8830   -0.1860 C   0  0  0  0  0  0  0  0  0  0  0  0
   -3.3880   -2.2380   -0.6180 N   0  0  0  0  0  0  0  0  0  0  0  0
   -4.5040   -3.0220   -0.9440 C   0  0  0  0  0  0  0  0  0  0  0  0
   -5.6510   -2.5230   -0.8500 O   0  0  0  0  0  0  0  0  0  0  0  0
   -4.4020   -4.4400   -1.4080 C   0  0  0  0  0  0  0  0  0  0  0  0
   -5.8430   -4.9330   -1.5850 C   0  0  2  0  0  0  0  0  0  0  0  0
   -6.7170   -4.8430   -0.0410 Cl  0  0  0  0  0  0  0  0  0  0  0  0
   -5.9390   -6.5440   -2.2670 Cl  0  0  0  0  0  0  0  0  0  0  0  0
   -4.4950    0.0250    0.0340 C   0  0  0  0  0  0  0  0  0  0  0  0
   -5.7230   -0.1920   -0.1090 O   0  0  0  0  0  0  0  0  0  0  0  0
   -3.9700    1.3490    0.4850 C   0  0  0  0  0  0  0  0  0  0  0  0
   -4.8430    2.5050    0.7980 C   0  0  1  0  0  0  0  0  0  0  0  0
   -4.1990    3.5960    1.5530 C   0  0  0  0  0  0  0  0  0  0  0  0
   -5.6400    2.9330   -0.4120 C   0  0  0  0  0  0  0  0  0  0  0  0
   -2.6520    1.1730    0.5110 C   0  0  0  0  0  0  0  0  0  0  0  0
   -1.5820    2.1440    0.8320 C   0  0  0  0  0  0  0  0  0  0  0  0
   -0.1920    1.6780    0.8360 C   0  0  0  0  0  0  0  0  0  0  0  0
  1  2  1  0
  2  3  1  0
  3  4  1  0
  4  5  2  0
  4  6  1  0
  6  7  1  0
  7  8  1  0
  8  9  2  0
  8 10  1  0
 10 11  1  0
 11 12  2  0
 11 13  1  0
 13 14  2  0
 13 32  1  0
 14 15  1  0
 15 16  2  0
 15 30  1  0
 16 17  1  0
 16 24  1  0
 17 18  1  0
 18 19  2  0
 18 20  1  0
 20 21  1  0
 21 22  1  1
 21 23  1  0
 24 25  2  0
 24 26  1  0
 26 27  1  0
 26 30  2  0
 27 28  1  6
 27 29  1  0
 30 31  1  0
 31 32  1  0
M  END
