
     RDKit          3D

 32 34  0  0  0  0  0  0  0  0999 V2000
    3.9530    3.2920   -0.3090 C   0  0  0  0  0  0  0  0  0  0  0  0
    4.1140    1.8390   -0.0200 C   0  0  0  0  0  0  0  0  0  0  0  0
    4.9070    1.0920   -1.0560 C   0  0  1  0  0  0  0  0  0  0  0  0
    6.1840    1.5430   -1.2280 O   0  0  0  0  0  0  0  0  0  0  0  0
    4.9540   -0.3730   -0.6150 C   0  0  0  0  0  0  0  0  0  0  0  0
    3.5970   -0.7730   -0.4550 O   0  0  0  0  0  0  0  0  0  0  0  0
    3.3370   -2.0650   -0.0580 C   0  0  0  0  0  0  0  0  0  0  0  0
    4.3400   -2.9730    0.1880 C   0  0  0  0  0  0  0  0  0  0  0  0
    4.0730   -4.2610    0.5850 C   0  0  0  0  0  0  0  0  0  0  0  0
    5.3690   -5.3790    0.8860 Cl  0  0  0  0  0  0  0  0  0  0  0  0
    2.7750   -4.6480    0.7390 C   0  0  0  0  0  0  0  0  0  0  0  0
    2.3530   -6.2890    1.2460 Cl  0  0  0  0  0  0  0  0  0  0  0  0
    1.7370   -3.7450    0.4950 C   0  0  0  0  0  0  0  0  0  0  0  0
    2.0020   -2.4520    0.0970 C   0  0  0  0  0  0  0  0  0  0  0  0
    1.0080   -1.5030   -0.1620 N   0  0  0  0  0  0  0  0  0  0  0  0
   -0.3650   -1.7320   -0.0530 C   0  0  0  0  0  0  0  0  0  0  0  0
   -0.8450   -2.8140    0.2870 O   0  0  0  0  0  0  0  0  0  0  0  0
   -1.3430   -0.6290   -0.3590 C   0  0  0  0  0  0  0  0  0  0  0  0
   -2.7780   -1.1090   -0.1730 C   0  0  0  0  0  0  0  0  0  0  0  0
   -3.6860    0.0110   -0.4790 C   0  0  0  0  0  0  0  0  0  0  0  0
   -4.4690    0.5810    0.4580 C   0  0  0  0  0  0  0  0  0  0  0  0
   -4.5210    0.1820    1.8510 C   0  0  0  0  0  0  0  0  0  0  0  0
   -3.9230   -0.6940    2.4930 O   0  0  0  0  0  0  0  0  0  0  0  0
   -5.7300    1.2940    2.5630 S   0  0  0  0  0  0  0  0  0  0  0  0
   -6.0820    2.1800    1.0580 C   0  0  0  0  0  0  0  0  0  0  0  0
   -7.0690    3.3190    0.9350 C   0  0  0  0  0  0  0  0  0  0  0  0
   -5.3350    1.6600    0.1060 C   0  0  0  0  0  0  0  0  0  0  0  0
   -5.3390    2.1220   -1.3160 C   0  0  0  0  0  0  0  0  0  0  0  0
   -6.0880    3.0780   -1.6920 O   0  0  0  0  0  0  0  0  0  0  0  0
   -4.5150    1.5150   -2.2860 N   0  0  0  0  0  0  0  0  0  0  0  0
   -3.6820    0.4540   -1.8780 C   0  0  0  0  0  0  0  0  0  0  0  0
   -2.9620   -0.0640   -2.7710 O   0  0  0  0  0  0  0  0  0  0  0  0
  1  2  1  0
  2  3  1  0
  3  4  1  1
  3  5  1  0
  5  6  1  0
  6  7  1  0
  7  8  2  0
  7 14  1  0
  8  9  1  0
  9 10  1  0
  9 11  2  0
 11 12  1  0
 11 13  1  0
 13 14  2  0
 14 15  1  0
 15 16  1  0
 16 17  2  0
 16 18  1  0
 18 19  1  0
 19 20  1  0
 20 21  2  0
 20 31  1  0
 21 22  1  0
 21 27  1  0
 22 23  2  0
 22 24  1  0
 24 25  1  0
 25 26  1  0
 25 27  2  0
 27 28  1  0
 28 29  2  0
 28 30  1  0
 30 31  1  0
 31 32  2  0
M  END
