
     RDKit          3D

 35 37  0  0  0  0  0  0  0  0999 V2000
   -6.6930   -1.5220    1.9390 C   0  0  0  0  0  0  0  0  0  0  0  0
   -7.3690   -0.3950    1.7360 C   0  0  0  0  0  0  0  0  0  0  0  0
   -6.6760    0.6770    0.9420 C   0  0  2  0  0  0  0  0  0  0  0  0
   -7.5900    1.2050   -0.1340 C   0  0  0  0  0  0  0  0  0  0  0  0
   -7.8900    0.2400   -1.2280 C   0  0  0  0  0  0  0  0  0  0  0  0
   -6.9150   -0.8040   -1.3210 N   0  0  0  0  0  0  0  0  0  0  0  0
   -5.5950   -0.6340   -0.8600 C   0  0  0  0  0  0  0  0  0  0  0  0
   -4.5290   -1.1790   -1.4990 C   0  0  0  0  0  0  0  0  0  0  0  0
   -4.7250   -1.9990   -2.7160 C   0  0  0  0  0  0  0  0  0  0  0  0
   -5.0240   -1.0460   -3.8410 C   0  0  0  0  0  0  0  0  0  0  0  0
   -3.2410   -0.9610   -0.9840 C   0  0  0  0  0  0  0  0  0  0  0  0
   -3.0750   -0.2110    0.1460 C   0  0  0  0  0  0  0  0  0  0  0  0
   -1.7900   -0.0050    0.7120 N   0  0  0  0  0  0  0  0  0  0  0  0
   -0.6700   -0.8320    0.5760 C   0  0  0  0  0  0  0  0  0  0  0  0
   -0.7840   -1.8980   -0.1320 O   0  0  0  0  0  0  0  0  0  0  0  0
    0.6250   -0.5480    1.1980 C   0  0  0  0  0  0  0  0  0  0  0  0
    0.6890    0.6480    1.9770 N   0  0  0  0  0  0  0  0  0  0  0  0
    1.0550    1.7980    1.1970 C   0  0  0  0  0  0  0  0  0  0  0  0
    2.4980    1.8890    0.9470 C   0  0  0  0  0  0  0  0  0  0  0  0
    3.0010    2.8620    0.2770 O   0  0  0  0  0  0  0  0  0  0  0  0
    3.4500    0.9480    1.4040 N   0  0  0  0  0  0  0  0  0  0  0  0
    4.8220    1.0840    1.1510 N   0  0  0  0  0  0  0  0  0  0  0  0
    5.3760    1.0680   -0.1470 C   0  0  0  0  0  0  0  0  0  0  0  0
    4.5850    0.9190   -1.1390 O   0  0  0  0  0  0  0  0  0  0  0  0
    6.7950    1.2130   -0.3890 C   0  0  0  0  0  0  0  0  0  0  0  0
    7.3190    1.1970   -1.5920 C   0  0  0  0  0  0  0  0  0  0  0  0
    9.1050    1.3880   -1.7550 S   0  0  0  0  0  0  0  0  0  0  0  0
    9.8290    0.4790   -0.3940 C   0  0  0  0  0  0  0  0  0  0  0  0
   10.1380   -0.8440   -0.5930 C   0  0  0  0  0  0  0  0  0  0  0  0
   10.7090   -1.5530    0.4630 C   0  0  0  0  0  0  0  0  0  0  0  0
   10.9260   -0.8710    1.6420 C   0  0  0  0  0  0  0  0  0  0  0  0
   10.6090    0.4400    1.8040 C   0  0  0  0  0  0  0  0  0  0  0  0
   10.0610    1.0890    0.7690 N   0  0  0  0  0  0  0  0  0  0  0  0
   -4.1960    0.3430    0.7910 C   0  0  0  0  0  0  0  0  0  0  0  0
   -5.4470    0.1400    0.3030 C   0  0  0  0  0  0  0  0  0  0  0  0
  1  2  2  0
  3  2  1  6
  3  4  1  0
  3 35  1  0
  4  5  1  0
  5  6  1  0
  6  7  1  0
  7  8  2  0
  7 35  1  0
  8  9  1  0
  8 11  1  0
  9 10  1  0
 11 12  2  0
 12 13  1  0
 12 34  1  0
 13 14  1  0
 14 15  2  0
 14 16  1  0
 16 17  1  0
 17 18  1  0
 18 19  1  0
 19 20  2  0
 19 21  1  0
 21 22  1  0
 22 23  1  0
 23 24  2  0
 23 25  1  0
 25 26  2  3
 26 27  1  0
 27 28  1  0
 28 29  2  0
 28 33  1  0
 29 30  1  0
 30 31  2  0
 31 32  1  0
 32 33  2  0
 34 35  2  0
M  CHG  1  17   1
M  END
