
     RDKit          3D

 35 40  0  0  0  0  0  0  0  0999 V2000
   -4.5640   -2.7880   -0.7700 C   0  0  0  0  0  0  0  0  0  0  0  0
   -3.5040   -2.4720   -0.0680 C   0  0  0  0  0  0  0  0  0  0  0  0
   -3.2430   -3.2550    1.0890 O   0  0  0  0  0  0  0  0  0  0  0  0
   -2.5600   -2.6680    2.1890 C   0  0  0  0  0  0  0  0  0  0  0  0
   -1.4080   -1.7620    1.6940 C   0  0  0  0  0  0  0  0  0  0  0  0
   -2.0830   -0.6840    0.8430 C   0  0  1  0  0  0  0  0  0  0  0  0
   -1.3700    0.5690    0.7160 C   0  0  2  0  0  0  0  0  0  0  0  0
   -2.2560    1.6360    0.0710 C   0  0  0  0  0  0  0  0  0  0  0  0
   -1.7120    2.9920    0.3520 C   0  0  0  0  0  0  0  0  0  0  0  0
   -2.4810    3.9260    0.4920 O   0  0  0  0  0  0  0  0  0  0  0  0
   -0.3000    3.0900    0.4340 N   0  0  0  0  0  0  0  0  0  0  0  0
    0.3020    4.3830    0.4800 C   0  0  0  0  0  0  0  0  0  0  0  0
   -0.3510    5.4200    1.0990 C   0  0  0  0  0  0  0  0  0  0  0  0
    0.2660    6.6720    0.9680 C   0  0  0  0  0  0  0  0  0  0  0  0
    1.4460    6.8210    0.2590 C   0  0  0  0  0  0  0  0  0  0  0  0
    2.0610    5.7600   -0.3390 C   0  0  0  0  0  0  0  0  0  0  0  0
    1.4940    4.5270   -0.2330 C   0  0  0  0  0  0  0  0  0  0  0  0
    2.1270    3.3290   -0.7390 C   0  0  0  0  0  0  0  0  0  0  0  0
    1.6660    2.0950   -0.5570 C   0  0  0  0  0  0  0  0  0  0  0  0
    2.0090    0.7760   -0.9120 N   0  0  0  0  0  0  0  0  0  0  0  0
    0.9620   -0.0770   -0.4440 C   0  0  0  0  0  0  0  0  0  0  0  0
    0.9360   -1.3340   -0.6050 N   0  0  0  0  0  0  0  0  0  0  0  0
    1.9460   -2.0580   -1.2720 C   0  0  0  0  0  0  0  0  0  0  0  0
    2.1190   -1.8880   -2.5080 O   0  0  0  0  0  0  0  0  0  0  0  0
    2.8040   -3.0040   -0.5750 C   0  0  0  0  0  0  0  0  0  0  0  0
    2.6780   -3.2490    0.7850 C   0  0  0  0  0  0  0  0  0  0  0  0
    3.4920   -4.1450    1.4360 C   0  0  0  0  0  0  0  0  0  0  0  0
    4.4510   -4.8100    0.7180 C   0  0  0  0  0  0  0  0  0  0  0  0
    4.6040   -4.5940   -0.6220 C   0  0  0  0  0  0  0  0  0  0  0  0
    3.7810   -3.6950   -1.2550 C   0  0  0  0  0  0  0  0  0  0  0  0
   -0.0560    0.6720    0.2160 N   0  0  0  0  0  0  0  0  0  0  0  0
    0.5680    1.9660    0.4360 C   0  0  2  0  0  0  0  0  0  0  0  0
   -2.5640   -1.3930   -0.3630 C   0  0  0  0  0  0  0  0  0  0  0  0
   -2.2050   -1.2100   -1.5960 C   0  0  0  0  0  0  0  0  0  0  0  0
   -2.6550   -2.0010   -2.7630 C   0  0  0  0  0  0  0  0  0  0  0  0
  1  2  2  0
  2  3  1  0
  2 33  1  0
  3  4  1  0
  4  5  1  0
  6  5  1  6
  6  7  1  0
  6 33  1  0
  7  8  1  6
  7 31  1  0
  8  9  1  0
  9 10  2  0
  9 11  1  0
 11 12  1  0
 32 11  1  6
 12 13  2  0
 12 17  1  0
 13 14  1  0
 14 15  2  0
 15 16  1  0
 16 17  2  0
 17 18  1  0
 18 19  2  0
 19 20  1  0
 19 32  1  0
 20 21  1  0
 21 22  2  3
 21 31  1  0
 22 23  1  0
 23 24  2  0
 23 25  1  0
 25 26  2  0
 25 30  1  0
 26 27  1  0
 27 28  2  0
 28 29  1  0
 29 30  2  0
 31 32  1  0
 33 34  2  3
 34 35  1  0
M  END
