
     RDKit          3D

 35 37  0  0  0  0  0  0  0  0999 V2000
   -4.2490    0.8790   -1.9740 C   0  0  0  0  0  0  0  0  0  0  0  0
   -3.3160    0.4910   -0.8650 C   0  0  1  0  0  0  0  0  0  0  0  0
   -2.9060    1.7650   -0.1300 C   0  0  0  0  0  0  0  0  0  0  0  0
   -4.0440    2.5000    0.4570 C   0  0  0  0  0  0  0  0  0  0  0  0
   -4.4870    2.2470    1.7560 C   0  0  0  0  0  0  0  0  0  0  0  0
   -5.5470    2.9570    2.2610 C   0  0  0  0  0  0  0  0  0  0  0  0
   -6.1940    3.8970    1.5660 N   0  0  0  0  0  0  0  0  0  0  0  0
   -5.8020    4.1660    0.3290 C   0  0  0  0  0  0  0  0  0  0  0  0
   -4.7380    3.4760   -0.2240 C   0  0  0  0  0  0  0  0  0  0  0  0
   -3.8470   -0.4340    0.0810 N   0  0  0  0  0  0  0  0  0  0  0  0
   -3.7470   -1.8180   -0.2370 C   0  0  2  0  0  0  0  0  0  0  0  0
   -4.2630   -2.1760   -1.6080 C   0  0  0  0  0  0  0  0  0  0  0  0
   -4.7030   -2.5440    0.7330 C   0  0  0  0  0  0  0  0  0  0  0  0
   -2.3770   -2.3840   -0.1060 C   0  0  0  0  0  0  0  0  0  0  0  0
   -2.1570   -3.5800   -0.4350 O   0  0  0  0  0  0  0  0  0  0  0  0
   -1.2540   -1.6550    0.3790 N   0  0  0  0  0  0  0  0  0  0  0  0
    0.0420   -2.2780    0.4800 C   0  0  0  0  0  0  0  0  0  0  0  0
    1.1190   -1.5710    0.9420 C   0  0  0  0  0  0  0  0  0  0  0  0
    2.3890   -2.1250    1.0640 C   0  0  0  0  0  0  0  0  0  0  0  0
    3.4960   -1.3230    1.5630 C   0  0  0  0  0  0  0  0  0  0  0  0
    3.3050   -0.1150    1.8440 O   0  0  0  0  0  0  0  0  0  0  0  0
    4.7910   -1.8620    1.7430 N   0  0  0  0  0  0  0  0  0  0  0  0
    5.9010   -1.0800    2.2250 C   0  0  0  0  0  0  0  0  0  0  0  0
    6.2410    0.0010    1.2840 C   0  0  0  0  0  0  0  0  0  0  0  0
    7.1730    0.8200    1.6040 O   0  0  0  0  0  0  0  0  0  0  0  0
    5.6070    0.1840    0.0600 N   0  0  0  0  0  0  0  0  0  0  0  0
    5.9740    1.2770   -0.8400 C   0  0  0  0  0  0  0  0  0  0  0  0
    6.4060    0.9590   -2.0160 C   0  0  0  0  0  0  0  0  0  0  0  0
    6.8420    1.8120   -3.1190 C   0  0  0  0  0  0  0  0  0  0  0  0
    6.7090    3.5460   -2.6870 S   0  0  0  0  0  0  0  0  0  0  0  0
    6.0990    3.6930   -1.0400 C   0  0  0  0  0  0  0  0  0  0  0  0
    5.8160    2.6180   -0.3400 C   0  0  0  0  0  0  0  0  0  0  0  0
    2.5070   -3.4400    0.6910 C   0  0  0  0  0  0  0  0  0  0  0  0
    1.4250   -4.1850    0.2160 C   0  0  0  0  0  0  0  0  0  0  0  0
    0.2280   -3.5600    0.1320 N   0  0  0  0  0  0  0  0  0  0  0  0
  2  1  1  6
  2  3  1  0
  2 10  1  0
  3  4  1  0
  4  5  2  0
  4  9  1  0
  5  6  1  0
  6  7  2  0
  7  8  1  0
  8  9  2  0
 10 11  1  0
 11 12  1  6
 11 13  1  0
 11 14  1  0
 14 15  2  0
 14 16  1  0
 16 17  1  0
 17 18  2  0
 17 35  1  0
 18 19  1  0
 19 20  1  0
 19 33  2  0
 20 21  2  0
 20 22  1  0
 22 23  1  0
 23 24  1  0
 24 25  2  0
 24 26  1  0
 26 27  1  0
 27 28  2  0
 27 32  1  0
 28 29  1  0
 29 30  1  0
 30 31  1  0
 31 32  2  0
 33 34  1  0
 34 35  2  0
M  CHG  1  10   1
M  END
