
     RDKit          3D

 35 39  0  0  0  0  0  0  0  0999 V2000
   -1.0320   -0.3100   -3.6800 C   0  0  0  0  0  0  0  0  0  0  0  0
   -0.2610   -0.7980   -2.4820 C   0  0  0  0  0  0  0  0  0  0  0  0
   -0.9350   -0.4150   -1.1730 C   0  0  0  0  0  0  0  0  0  0  0  0
   -2.1390    0.1350   -1.1740 C   0  0  0  0  0  0  0  0  0  0  0  0
   -3.0900    0.6310   -0.2090 C   0  0  0  0  0  0  0  0  0  0  0  0
   -3.8480   -0.3230    0.5220 C   0  0  0  0  0  0  0  0  0  0  0  0
   -3.7490   -1.8150    0.2620 C   0  0  0  0  0  0  0  0  0  0  0  0
   -4.7800   -0.0340    1.4610 C   0  0  0  0  0  0  0  0  0  0  0  0
   -5.0450    1.2610    1.7560 C   0  0  0  0  0  0  0  0  0  0  0  0
   -4.3680    2.2160    1.0980 C   0  0  0  0  0  0  0  0  0  0  0  0
   -3.3710    1.9920    0.0950 C   0  0  0  0  0  0  0  0  0  0  0  0
   -2.8870    3.1910   -0.5530 C   0  0  0  0  0  0  0  0  0  0  0  0
   -3.8590    3.8000   -1.2430 O   0  0  0  0  0  0  0  0  0  0  0  0
   -1.6780    3.9030   -0.6630 N   0  0  0  0  0  0  0  0  0  0  0  0
   -0.3890    3.2660   -0.9080 C   0  0  0  0  0  0  0  0  0  0  0  0
    0.1990    2.8340   -2.0470 C   0  0  0  0  0  0  0  0  0  0  0  0
    1.4000    2.1400   -1.9750 C   0  0  0  0  0  0  0  0  0  0  0  0
    2.1160    1.8100   -0.8510 C   0  0  0  0  0  0  0  0  0  0  0  0
    3.2110    0.9150   -0.5300 C   0  0  0  0  0  0  0  0  0  0  0  0
    4.3420    0.6430   -1.5920 C   0  0  0  0  0  0  0  0  0  0  0  0
    3.4490    0.6150    0.8410 C   0  0  0  0  0  0  0  0  0  0  0  0
    2.7580    1.1600    1.8660 C   0  0  0  0  0  0  0  0  0  0  0  0
    2.8280    1.0850    3.2310 O   0  0  0  0  0  0  0  0  0  0  0  0
    1.7800    1.9870    1.5560 N   0  0  0  0  0  0  0  0  0  0  0  0
    1.4760    2.2790    0.3020 C   0  0  0  0  0  0  0  0  0  0  0  0
    0.3090    2.9520    0.1740 N   0  0  0  0  0  0  0  0  0  0  0  0
    3.9220   -0.8360    1.2960 C   0  0  0  0  0  0  0  0  0  0  0  0
    5.0920   -1.2250    1.5940 O   0  0  0  0  0  0  0  0  0  0  0  0
    2.9670   -1.8910    1.4060 N   0  0  0  0  0  0  0  0  0  0  0  0
    3.1020   -3.0770    2.3500 C   0  0  0  0  0  0  0  0  0  0  0  0
    1.7580   -3.2910    2.8760 C   0  0  0  0  0  0  0  0  0  0  0  0
    0.8890   -2.2730    2.1740 C   0  0  0  0  0  0  0  0  0  0  0  0
    1.7060   -2.2230    0.8590 C   0  0  1  0  0  0  0  0  0  0  0  0
    1.0430   -1.6460   -0.2710 C   0  0  0  0  0  0  0  0  0  0  0  0
   -0.1570   -0.8370    0.0540 C   0  0  0  0  0  0  0  0  0  0  0  0
  1  2  1  0
  2  3  1  0
  3  4  2  0
  3 35  1  0
  4  5  1  0
  5  6  2  0
  5 11  1  0
  6  7  1  0
  6  8  1  0
  8  9  2  0
  9 10  1  0
 10 11  2  0
 11 12  1  0
 12 13  2  0
 12 14  1  0
 14 15  1  0
 15 16  2  0
 15 26  1  0
 16 17  1  0
 17 18  2  0
 18 19  1  0
 18 25  1  0
 19 20  1  0
 19 21  2  0
 21 22  1  0
 21 27  1  0
 22 23  2  0
 22 24  1  0
 24 25  1  0
 25 26  2  0
 27 28  2  0
 27 29  1  0
 29 30  1  0
 29 33  1  0
 30 31  1  0
 31 32  1  0
 33 32  1  1
 33 34  1  0
 34 35  1  0
M  END
