
     RDKit          3D

 15 16  0  0  0  0  0  0  0  0999 V2000
    4.6500    0.7360   -0.7860 C   0  0  0  0  0  0  0  0  0  0  0  0
    3.8050    1.8240   -0.1460 C   0  0  0  0  0  0  0  0  0  0  0  0
    2.7050    1.1970    0.5270 O   0  0  0  0  0  0  0  0  0  0  0  0
    1.7920    0.4210   -0.1470 C   0  0  0  0  0  0  0  0  0  0  0  0
    1.9200    0.2520   -1.3990 O   0  0  0  0  0  0  0  0  0  0  0  0
    0.6850   -0.2240    0.4670 N   0  0  0  0  0  0  0  0  0  0  0  0
   -0.2690   -1.0420   -0.2780 C   0  0  1  0  0  0  0  0  0  0  0  0
   -0.1590   -2.4470    0.2610 C   0  0  0  0  0  0  0  0  0  0  0  0
   -1.2040   -2.1530    1.7660 S   0  0  0  0  0  0  0  0  0  0  0  0
   -2.3120   -1.0090    0.9110 C   0  0  0  0  0  0  0  0  0  0  0  0
   -1.6510   -0.5390   -0.1150 C   0  0  0  0  0  0  0  0  0  0  0  0
   -2.3090    0.4040   -0.9690 N   0  0  0  0  0  0  0  0  0  0  0  0
   -3.6360    0.8590   -0.8080 C   0  0  0  0  0  0  0  0  0  0  0  0
   -4.2940    0.2830    0.3630 C   0  0  0  0  0  0  0  0  0  0  0  0
   -3.6640   -0.5700    1.1340 C   0  0  0  0  0  0  0  0  0  0  0  0
  1  2  1  0
  2  3  1  0
  3  4  1  0
  4  5  2  0
  4  6  1  0
  7  6  1  1
  7  8  1  0
  7 11  1  0
  8  9  1  0
  9 10  1  0
 10 11  2  0
 10 15  1  0
 11 12  1  0
 12 13  1  0
 13 14  1  0
 14 15  2  0
M  END
