
     RDKit          3D

 16 17  0  0  0  0  0  0  0  0999 V2000
    4.9440   -1.8040    0.9820 C   0  0  0  0  0  0  0  0  0  0  0  0
    3.8460   -1.5950    0.0530 N   0  0  0  0  0  0  0  0  0  0  0  0
    2.8250   -0.6910    0.4620 C   0  0  0  0  0  0  0  0  0  0  0  0
    2.7850    0.1720    1.3650 N   0  0  0  0  0  0  0  0  0  0  0  0
    1.6640    0.9360    1.5680 C   0  0  0  0  0  0  0  0  0  0  0  0
    1.5360    1.8280    2.4540 O   0  0  0  0  0  0  0  0  0  0  0  0
    0.5430    0.6430    0.6400 C   0  0  0  0  0  0  0  0  0  0  0  0
   -0.6220    1.2060    0.6140 C   0  0  0  0  0  0  0  0  0  0  0  0
   -0.9270    2.2050    1.5300 F   0  0  0  0  0  0  0  0  0  0  0  0
   -1.6490    0.8400   -0.3550 C   0  0  0  0  0  0  0  0  0  0  0  0
   -2.8200    1.4800   -0.2910 C   0  0  0  0  0  0  0  0  0  0  0  0
   -3.8960    1.1600   -1.2350 C   0  0  0  0  0  0  0  0  0  0  0  0
   -3.6600   -0.3050   -1.6440 C   0  0  0  0  0  0  0  0  0  0  0  0
   -2.4210   -0.4060   -2.2280 O   0  0  0  0  0  0  0  0  0  0  0  0
   -1.3810   -0.1910   -1.3600 C   0  0  0  0  0  0  0  0  0  0  0  0
    1.2230   -0.6410   -0.3630 S   0  0  0  0  0  0  0  0  0  0  0  0
  1  2  1  0
  2  3  1  0
  3  4  2  0
  3 16  1  0
  4  5  1  0
  5  6  2  0
  5  7  1  0
  7  8  2  3
  7 16  1  0
  8  9  1  0
  8 10  1  0
 10 11  2  0
 10 15  1  0
 11 12  1  0
 12 13  1  0
 13 14  1  0
 14 15  1  0
M  END
