
     RDKit          3D

 15 16  0  0  0  0  0  0  0  0999 V2000
   -2.7700    1.4720   -0.2240 C   0  0  0  0  0  0  0  0  0  0  0  0
   -2.2600    0.0500   -0.0690 C   0  0  1  0  0  0  0  0  0  0  0  0
   -2.7830   -0.5520    1.2310 C   0  0  0  0  0  0  0  0  0  0  0  0
   -2.7390   -0.8100   -1.1880 C   0  0  0  0  0  0  0  0  0  0  0  0
   -0.7770    0.1200    0.0310 C   0  0  0  0  0  0  0  0  0  0  0  0
    0.0230   -0.4370   -0.7690 N   0  0  0  0  0  0  0  0  0  0  0  0
    1.4720   -0.3580   -0.6580 C   0  0  0  0  0  0  0  0  0  0  0  0
    1.9760    0.3120    0.3040 C   0  0  0  0  0  0  0  0  0  0  0  0
    1.1310    1.0330    1.3400 C   0  0  0  0  0  0  0  0  0  0  0  0
   -0.2460    0.8740    1.1130 N   0  0  0  0  0  0  0  0  0  0  0  0
    3.4890    0.3590    0.3580 C   0  0  0  0  0  0  0  0  0  0  0  0
    3.8690   -1.1010   -0.5830 S   0  0  1  0  0  0  0  0  0  0  0  0
    5.1000   -0.9560   -1.3940 O   0  0  0  0  0  0  0  0  0  0  0  0
    3.8540   -2.2860    0.3070 O   0  0  0  0  0  0  0  0  0  0  0  0
    2.3910   -1.0280   -1.6130 C   0  0  0  0  0  0  0  0  0  0  0  0
  2  1  1  6
  2  3  1  0
  2  4  1  0
  2  5  1  0
  5  6  2  0
  5 10  1  0
  6  7  1  0
  7  8  2  0
  7 15  1  0
  8  9  1  0
  8 11  1  0
  9 10  1  0
 12 11  1  1
 12 13  2  0
 12 14  2  0
 12 15  1  0
M  END
