
     RDKit          3D

 16 17  0  0  0  0  0  0  0  0999 V2000
    4.4310    1.5090    0.3190 O   0  0  0  0  0  0  0  0  0  0  0  0
    3.4380    0.7090    0.2130 C   0  0  0  0  0  0  0  0  0  0  0  0
    3.7770   -0.6180    0.1150 C   0  0  0  0  0  0  0  0  0  0  0  0
    2.8810   -1.6590   -0.0070 C   0  0  0  0  0  0  0  0  0  0  0  0
    1.2360   -1.1370   -0.0270 S   0  0  0  0  0  0  0  0  0  0  0  0
    1.0860    0.5390    0.1080 C   0  0  0  0  0  0  0  0  0  0  0  0
   -0.0470    1.1130    0.1120 N   0  0  0  0  0  0  0  0  0  0  0  0
   -1.2970    0.5000    0.0120 C   0  0  0  0  0  0  0  0  0  0  0  0
   -1.8160    0.1650   -1.1520 C   0  0  0  0  0  0  0  0  0  0  0  0
   -3.1450   -0.4830   -1.1960 C   0  0  0  0  0  0  0  0  0  0  0  0
   -3.8420   -0.7420   -0.1120 C   0  0  0  0  0  0  0  0  0  0  0  0
   -3.3310   -0.4050    1.1340 O   0  0  0  0  0  0  0  0  0  0  0  0
   -2.0650    0.2140    1.2110 C   0  0  0  0  0  0  0  0  0  0  0  0
   -1.5740    0.5370    2.3860 C   0  0  0  0  0  0  0  0  0  0  0  0
   -0.3660    1.1280    2.4620 F   0  0  0  0  0  0  0  0  0  0  0  0
    2.2210    1.2310    0.2100 N   0  0  0  0  0  0  0  0  0  0  0  0
  1  2  2  0
  2  3  1  0
  2 16  1  0
  3  4  2  0
  4  5  1  0
  5  6  1  0
  6  7  2  3
  6 16  1  0
  7  8  1  0
  8  9  2  0
  8 13  1  0
  9 10  1  0
 10 11  2  0
 11 12  1  0
 12 13  1  0
 13 14  2  3
 14 15  1  0
M  END
