
     RDKit          3D

 16 17  0  0  0  0  0  0  0  0999 V2000
    2.7140    1.7110   -1.0670 C   0  0  0  0  0  0  0  0  0  0  0  0
    1.4310    1.2570   -0.4320 C   0  0  0  0  0  0  0  0  0  0  0  0
    1.2680   -0.2300   -0.6020 C   0  0  1  0  0  0  0  0  0  0  0  0
    2.4530   -0.8880    0.0770 C   0  0  0  0  0  0  0  0  0  0  0  0
    1.9300   -2.0000    0.9250 C   0  0  0  0  0  0  0  0  0  0  0  0
    0.4270   -1.9350    0.8390 C   0  0  0  0  0  0  0  0  0  0  0  0
    0.1180   -0.7550    0.0660 N   0  0  0  0  0  0  0  0  0  0  0  0
   -1.2120   -0.2050    0.0060 C   0  0  0  0  0  0  0  0  0  0  0  0
   -2.0210   -0.5240   -0.9900 C   0  0  0  0  0  0  0  0  0  0  0  0
   -3.6450    0.0960   -1.1400 S   0  0  1  0  0  0  0  0  0  0  0  0
   -3.8690    0.7940   -2.4400 O   0  0  0  0  0  0  0  0  0  0  0  0
   -4.5800   -1.0790   -0.9660 O   0  0  0  0  0  0  0  0  0  0  0  0
   -3.8670    1.1250    0.2180 N   0  0  0  0  0  0  0  0  0  0  0  0
   -2.8050    1.2770    1.1360 C   0  0  0  0  0  0  0  0  0  0  0  0
   -1.6230    0.7010    1.0640 C   0  0  0  0  0  0  0  0  0  0  0  0
   -0.7260    0.9940    2.0820 F   0  0  0  0  0  0  0  0  0  0  0  0
  1  2  1  0
  3  2  1  1
  3  4  1  0
  3  7  1  0
  4  5  1  0
  5  6  1  0
  6  7  1  0
  7  8  1  0
  8  9  2  0
  8 15  1  0
  9 10  1  0
 10 11  2  0
 10 12  2  0
 10 13  1  1
 13 14  1  0
 14 15  2  0
 15 16  1  0
M  END
