
     RDKit          3D

 32 36  0  0  0  0  0  0  0  0999 V2000
    9.0870    0.1730    0.3380 C   0  0  0  0  0  0  0  0  0  0  0  0
    7.6060    0.3620    0.4890 C   0  0  0  0  0  0  0  0  0  0  0  0
    7.0200    1.5980    0.3410 C   0  0  0  0  0  0  0  0  0  0  0  0
    5.6460    1.7400    0.4870 C   0  0  0  0  0  0  0  0  0  0  0  0
    4.8280    0.6740    0.7790 C   0  0  0  0  0  0  0  0  0  0  0  0
    3.4050    0.8820    0.9190 N   0  0  0  0  0  0  0  0  0  0  0  0
    2.8070    1.6830    1.7700 N   0  0  0  0  0  0  0  0  0  0  0  0
    1.4810    1.6080    1.6030 C   0  0  0  0  0  0  0  0  0  0  0  0
    1.2600    0.7340    0.6190 N   0  0  0  0  0  0  0  0  0  0  0  0
    2.4380    0.2740    0.1840 C   0  0  0  0  0  0  0  0  0  0  0  0
    2.6960   -0.6770   -0.8420 N   0  0  0  0  0  0  0  0  0  0  0  0
    1.7250   -1.3390   -1.6620 C   0  0  0  0  0  0  0  0  0  0  0  0
    0.9340   -0.4830   -2.5820 C   0  0  0  0  0  0  0  0  0  0  0  0
    0.0820    0.5050   -2.0220 N   0  0  0  0  0  0  0  0  0  0  0  0
   -1.1710    0.2510   -1.3860 C   0  0  0  0  0  0  0  0  0  0  0  0
   -1.7110   -1.0120   -1.2790 C   0  0  0  0  0  0  0  0  0  0  0  0
   -2.9200   -1.2460   -0.6520 C   0  0  0  0  0  0  0  0  0  0  0  0
   -3.6510   -0.2040   -0.0970 C   0  0  0  0  0  0  0  0  0  0  0  0
   -4.8720   -0.3160    0.5540 C   0  0  0  0  0  0  0  0  0  0  0  0
   -5.4910    0.8290    1.0640 C   0  0  0  0  0  0  0  0  0  0  0  0
   -4.9010    2.0620    0.9250 C   0  0  0  0  0  0  0  0  0  0  0  0
   -3.6950    2.1960    0.2860 C   0  0  0  0  0  0  0  0  0  0  0  0
   -3.0310    3.5370    0.1230 C   0  0  0  0  0  0  0  0  0  0  0  0
   -3.8470    4.5740    0.7240 N   0  0  0  0  0  0  0  0  0  0  0  0
   -3.0840    1.0550   -0.2190 C   0  0  0  0  0  0  0  0  0  0  0  0
   -1.8880    1.2480   -0.8440 N   0  0  0  0  0  0  0  0  0  0  0  0
   -5.7600   -1.4500    0.8730 C   0  0  0  0  0  0  0  0  0  0  0  0
   -5.4190   -2.7400    0.2250 C   0  0  0  0  0  0  0  0  0  0  0  0
   -3.9930   -3.1770    0.4710 C   0  0  0  0  0  0  0  0  0  0  0  0
   -3.1940   -2.7030   -0.7220 C   0  0  0  0  0  0  0  0  0  0  0  0
    5.4060   -0.5680    0.9280 C   0  0  0  0  0  0  0  0  0  0  0  0
    6.7870   -0.7080    0.7810 C   0  0  0  0  0  0  0  0  0  0  0  0
  1  2  1  0
  2  3  2  0
  2 32  1  0
  3  4  1  0
  4  5  2  0
  5  6  1  0
  5 31  1  0
  6  7  1  0
  6 10  1  0
  7  8  2  0
  8  9  1  0
  9 10  2  0
 10 11  1  0
 11 12  1  0
 12 13  1  0
 13 14  1  0
 14 15  1  0
 15 16  2  0
 15 26  1  0
 16 17  1  0
 17 18  2  0
 17 30  1  0
 18 19  1  0
 18 25  1  0
 19 20  2  0
 19 27  1  0
 20 21  1  0
 21 22  2  0
 22 23  1  0
 22 25  1  0
 23 24  1  0
 25 26  2  0
 27 28  1  0
 28 29  1  0
 29 30  1  0
 31 32  2  0
M  CHG  1  24   1
M  END
