
     RDKit          3D

 32 36  0  0  0  0  0  0  0  0999 V2000
   -8.6830   -1.2310    1.0750 C   0  0  0  0  0  0  0  0  0  0  0  0
   -7.5030   -0.3510    1.0770 C   0  0  0  0  0  0  0  0  0  0  0  0
   -6.5860   -0.4640    0.1450 C   0  0  0  0  0  0  0  0  0  0  0  0
   -6.7120   -1.4660   -0.9170 C   0  0  0  0  0  0  0  0  0  0  0  0
   -5.3990   -1.9780   -1.4130 C   0  0  0  0  0  0  0  0  0  0  0  0
   -4.3220   -1.0360   -1.3350 N   0  0  0  0  0  0  0  0  0  0  0  0
   -4.3000    0.0370   -0.6520 C   0  0  0  0  0  0  0  0  0  0  0  0
   -3.0790    0.9190   -0.6850 C   0  0  2  0  0  0  0  0  0  0  0  0
   -3.5220    2.1830   -1.2140 N   0  0  0  0  0  0  0  0  0  0  0  0
   -2.0380    0.3370   -1.5890 C   0  0  0  0  0  0  0  0  0  0  0  0
   -0.7000    0.9980   -1.4060 C   0  0  0  0  0  0  0  0  0  0  0  0
   -0.2390    0.8650   -0.0800 N   0  0  0  0  0  0  0  0  0  0  0  0
    1.0820    0.3820    0.1180 C   0  0  0  0  0  0  0  0  0  0  0  0
    2.1500    1.3450   -0.3550 C   0  0  0  0  0  0  0  0  0  0  0  0
    3.4820    0.8050   -0.1150 N   0  0  0  0  0  0  0  0  0  0  0  0
    4.2270    0.0420   -0.8960 N   0  0  0  0  0  0  0  0  0  0  0  0
    5.3970   -0.2430   -0.3030 C   0  0  0  0  0  0  0  0  0  0  0  0
    6.4980   -1.0500   -0.8090 C   0  0  0  0  0  0  0  0  0  0  0  0
    6.4300   -1.6540   -2.0450 C   0  0  0  0  0  0  0  0  0  0  0  0
    7.4710   -2.4320   -2.5400 C   0  0  0  0  0  0  0  0  0  0  0  0
    8.6080   -2.6090   -1.7820 C   0  0  0  0  0  0  0  0  0  0  0  0
    8.6490   -1.9920   -0.5490 C   0  0  0  0  0  0  0  0  0  0  0  0
    7.6220   -1.2470   -0.1020 N   0  0  0  0  0  0  0  0  0  0  0  0
    5.3430    0.3940    0.9170 C   0  0  0  0  0  0  0  0  0  0  0  0
    6.2230    0.4920    1.9860 C   0  0  0  0  0  0  0  0  0  0  0  0
    5.9130    1.2130    3.1170 C   0  0  0  0  0  0  0  0  0  0  0  0
    4.7050    1.8690    3.2250 C   0  0  0  0  0  0  0  0  0  0  0  0
    3.8190    1.7860    2.1790 C   0  0  0  0  0  0  0  0  0  0  0  0
    4.1380    1.0650    1.0570 C   0  0  0  0  0  0  0  0  0  0  0  0
   -1.1970    0.4320    0.8710 C   0  0  0  0  0  0  0  0  0  0  0  0
   -2.5400    1.1330    0.7120 C   0  0  0  0  0  0  0  0  0  0  0  0
   -5.4300    0.3790    0.1230 N   0  0  0  0  0  0  0  0  0  0  0  0
  1  2  1  0
  2  3  2  3
  3  4  1  0
  3 32  1  0
  4  5  1  0
  5  6  1  0
  6  7  2  0
  7  8  1  0
  7 32  1  0
  8  9  1  6
  8 10  1  0
  8 31  1  0
 10 11  1  0
 11 12  1  0
 12 13  1  0
 12 30  1  0
 13 14  1  0
 14 15  1  0
 15 16  1  0
 15 29  1  0
 16 17  2  0
 17 18  1  0
 17 24  1  0
 18 19  2  0
 18 23  1  0
 19 20  1  0
 20 21  2  0
 21 22  1  0
 22 23  2  0
 24 25  2  0
 24 29  1  0
 25 26  1  0
 26 27  2  0
 27 28  1  0
 28 29  2  0
 30 31  1  0
M  CHG  1   9   1
M  END
