
     RDKit          3D

 33 34  0  0  0  0  0  0  0  0999 V2000
    6.1710   -1.4940   -2.3980 C   0  0  0  0  0  0  0  0  0  0  0  0
    5.2410   -1.7010   -1.2050 C   0  0  0  0  0  0  0  0  0  0  0  0
    4.0910   -2.1140   -1.4280 C   0  0  0  0  0  0  0  0  0  0  0  0
    2.9840   -2.5730   -2.1960 C   0  0  0  0  0  0  0  0  0  0  0  0
    3.2750   -1.4330   -0.0530 C   0  0  0  0  0  0  0  0  0  0  0  0
    3.9160   -0.9590    0.8570 C   0  0  0  0  0  0  0  0  0  0  0  0
    4.7350   -0.3190    2.0410 N   0  0  0  0  0  0  0  0  0  0  0  0
    2.0130   -1.4880   -0.2600 C   0  0  0  0  0  0  0  0  0  0  0  0
    0.9330   -1.1170    0.6870 C   0  0  0  0  0  0  0  0  0  0  0  0
   -0.3300   -0.8640    0.1310 C   0  0  0  0  0  0  0  0  0  0  0  0
   -0.3500   -0.8500   -1.3760 C   0  0  0  0  0  0  0  0  0  0  0  0
   -0.8970    0.5410   -1.7020 N   0  0  0  0  0  0  0  0  0  0  0  0
   -0.1100    1.6930   -1.3850 C   0  0  2  0  0  0  0  0  0  0  0  0
    1.3570    1.6730   -1.3520 C   0  0  0  0  0  0  0  0  0  0  0  0
   -0.5100    2.2420    0.0480 C   0  0  0  0  0  0  0  0  0  0  0  0
   -0.5400    2.9270   -2.2540 C   0  0  0  0  0  0  0  0  0  0  0  0
   -1.4640   -0.4040    0.8490 C   0  0  0  0  0  0  0  0  0  0  0  0
   -2.5530   -0.5040    0.2430 C   0  0  0  0  0  0  0  0  0  0  0  0
   -3.8070   -0.5860   -0.3770 C   0  0  0  0  0  0  0  0  0  0  0  0
   -4.8840   -0.2180    0.1170 O   0  0  0  0  0  0  0  0  0  0  0  0
   -3.9160   -1.1090   -1.7580 N   0  0  0  0  0  0  0  0  0  0  0  0
   -5.1130   -1.3700   -2.4800 C   0  0  0  0  0  0  0  0  0  0  0  0
   -5.9990   -0.1720   -2.5400 C   0  0  0  0  0  0  0  0  0  0  0  0
   -1.3690   -0.0450    2.3210 C   0  0  0  0  0  0  0  0  0  0  0  0
    0.0050   -0.2700    2.8050 C   0  0  0  0  0  0  0  0  0  0  0  0
    0.1070    0.2960    4.0140 C   0  0  0  0  0  0  0  0  0  0  0  0
    1.4380    0.2330    4.6390 O   0  0  0  0  0  0  0  0  0  0  0  0
    1.5150    0.9390    5.9050 C   0  0  0  0  0  0  0  0  0  0  0  0
   -0.8330    0.9220    4.7080 C   0  0  0  0  0  0  0  0  0  0  0  0
   -2.1500    1.0950    4.2080 N   0  0  0  0  0  0  0  0  0  0  0  0
   -2.3250    0.5100    2.8770 C   0  0  0  0  0  0  0  0  0  0  0  0
   -3.5220    0.6750    2.5050 O   0  0  0  0  0  0  0  0  0  0  0  0
    0.9660   -0.7590    1.9950 N   0  0  0  0  0  0  0  0  0  0  0  0
  1  2  1  0
  2  3  2  3
  3  4  1  0
  3  5  1  0
  5  6  1  0
  5  8  2  3
  6  7  3  0
  8  9  1  0
  9 10  2  0
  9 33  1  0
 10 11  1  0
 10 17  1  0
 11 12  1  0
 12 13  1  0
 13 14  1  1
 13 15  1  0
 13 16  1  0
 17 18  2  3
 17 24  1  0
 18 19  1  0
 19 20  2  0
 19 21  1  0
 21 22  1  0
 22 23  1  0
 24 25  2  0
 24 31  1  0
 25 26  1  0
 25 33  1  0
 26 27  1  0
 26 29  2  0
 27 28  1  0
 29 30  1  0
 30 31  1  0
 31 32  2  0
M  CHG  1  12   1
M  END
