
     RDKit          3D

 38 42  0  0  0  0  0  0  0  0999 V2000
    9.4250   -0.7490   -0.9680 C   0  0  0  0  0  0  0  0  0  0  0  0
    8.0590   -0.6330   -1.5960 C   0  0  0  0  0  0  0  0  0  0  0  0
    6.9960   -0.3420   -0.5890 C   0  0  0  0  0  0  0  0  0  0  0  0
    5.7350   -0.2280   -1.0400 N   0  0  0  0  0  0  0  0  0  0  0  0
    4.7340    0.0340   -0.1790 C   0  0  0  0  0  0  0  0  0  0  0  0
    5.0720    0.1730    1.1410 C   0  0  0  0  0  0  0  0  0  0  0  0
    6.4090    0.0420    1.5520 C   0  0  0  0  0  0  0  0  0  0  0  0
    6.7220    0.1700    2.7750 O   0  0  0  0  0  0  0  0  0  0  0  0
    7.3300   -0.2110    0.6730 O   0  0  0  0  0  0  0  0  0  0  0  0
    4.0690    0.4650    2.2120 C   0  0  0  0  0  0  0  0  0  0  0  0
    2.6630    0.2330    1.6190 C   0  0  0  0  0  0  0  0  0  0  0  0
    2.6400    0.9480    0.3840 N   0  0  2  0  0  0  0  0  0  0  0  0
    1.4390    1.5810    0.0070 C   0  0  0  0  0  0  0  0  0  0  0  0
    0.2300    0.7540   -0.1900 C   0  0  0  0  0  0  0  0  0  0  0  0
    0.0370   -0.5530   -0.0800 N   0  0  0  0  0  0  0  0  0  0  0  0
   -1.2660   -0.8570   -0.3630 C   0  0  0  0  0  0  0  0  0  0  0  0
   -1.8530   -2.2460   -0.3490 C   0  0  2  0  0  0  0  0  0  0  0  0
   -2.6010   -2.5790   -1.5890 C   0  0  0  0  0  0  0  0  0  0  0  0
   -3.9360   -3.1480   -1.2210 C   0  0  0  0  0  0  0  0  0  0  0  0
   -4.7590   -2.0830   -0.4380 C   0  0  0  0  0  0  0  0  0  0  0  0
   -3.9430   -1.5080    0.6080 N   0  0  0  0  0  0  0  0  0  0  0  0
   -4.0730   -0.4030    1.3870 C   0  0  0  0  0  0  0  0  0  0  0  0
   -3.0300   -0.2280    2.2020 O   0  0  0  0  0  0  0  0  0  0  0  0
   -5.0440    0.6220    1.5550 C   0  0  0  0  0  0  0  0  0  0  0  0
   -4.8140    1.7160    2.3610 O   0  0  0  0  0  0  0  0  0  0  0  0
   -5.8200    2.4980    2.3600 C   0  0  0  0  0  0  0  0  0  0  0  0
   -6.7930    1.9910    1.5620 C   0  0  0  0  0  0  0  0  0  0  0  0
   -6.2900    0.7820    1.0450 C   0  0  0  0  0  0  0  0  0  0  0  0
   -7.1210   -0.0570    0.1630 C   0  0  0  0  0  0  0  0  0  0  0  0
   -2.7370   -2.3870    0.8550 C   0  0  0  0  0  0  0  0  0  0  0  0
   -1.8300    0.2960   -0.6390 N   0  0  0  0  0  0  0  0  0  0  0  0
   -1.0070    1.3410   -0.5640 C   0  0  0  0  0  0  0  0  0  0  0  0
   -1.2240    2.7540   -0.7830 C   0  0  0  0  0  0  0  0  0  0  0  0
   -2.3370    3.3190   -1.1420 C   0  0  0  0  0  0  0  0  0  0  0  0
   -3.6130    2.7360   -1.4120 C   0  0  0  0  0  0  0  0  0  0  0  0
   -3.8760    1.5240   -1.3430 O   0  0  0  0  0  0  0  0  0  0  0  0
   -4.9890    3.7610   -1.8920 Cl  0  0  0  0  0  0  0  0  0  0  0  0
    3.3220    0.1690   -0.6150 C   0  0  0  0  0  0  0  0  0  0  0  0
  1  2  1  0
  2  3  1  0
  3  4  2  0
  3  9  1  0
  4  5  1  0
  5  6  2  0
  5 38  1  0
  6  7  1  0
  6 10  1  0
  7  8  2  0
  7  9  1  0
 10 11  1  0
 11 12  1  0
 12 13  1  6
 12 38  1  0
 13 14  1  0
 14 15  1  0
 14 32  2  0
 15 16  1  0
 17 16  1  6
 16 31  2  0
 17 18  1  0
 17 30  1  0
 18 19  1  0
 19 20  1  0
 20 21  1  0
 21 22  1  0
 21 30  1  0
 22 23  2  0
 22 24  1  0
 24 25  1  0
 24 28  2  0
 25 26  1  0
 26 27  2  0
 27 28  1  0
 28 29  1  0
 31 32  1  0
 32 33  1  0
 33 34  2  3
 34 35  1  0
 35 36  2  0
 35 37  1  0
M  CHG  2   4   1  12   1
M  END
