
     RDKit          3D

 38 42  0  0  0  0  0  0  0  0999 V2000
   -7.5730   -0.0830   -0.7280 C   0  0  0  0  0  0  0  0  0  0  0  0
   -6.1720    0.1950   -1.1910 C   0  0  0  0  0  0  0  0  0  0  0  0
   -5.9390    0.7860   -2.4230 C   0  0  0  0  0  0  0  0  0  0  0  0
   -4.6310    1.0280   -2.8130 C   0  0  0  0  0  0  0  0  0  0  0  0
   -3.5950    0.6690   -1.9580 C   0  0  0  0  0  0  0  0  0  0  0  0
   -3.8230    0.0830   -0.7390 C   0  0  0  0  0  0  0  0  0  0  0  0
   -2.7650   -0.2910    0.2200 C   0  0  0  0  0  0  0  0  0  0  0  0
   -1.4960   -0.0460   -0.3190 O   0  0  0  0  0  0  0  0  0  0  0  0
   -0.9330   -0.6390   -1.4160 C   0  0  0  0  0  0  0  0  0  0  0  0
   -1.6020   -1.5240   -2.0290 O   0  0  0  0  0  0  0  0  0  0  0  0
    0.4320   -0.2960   -1.9300 C   0  0  0  0  0  0  0  0  0  0  0  0
    1.0390    0.6820   -1.1260 O   0  0  0  0  0  0  0  0  0  0  0  0
    2.2840    1.2200   -1.3410 C   0  0  0  0  0  0  0  0  0  0  0  0
    2.9550    0.8380   -2.3170 O   0  0  0  0  0  0  0  0  0  0  0  0
    2.7430    2.2440   -0.3610 C   0  0  0  0  0  0  0  0  0  0  0  0
    4.0220    2.7120   -0.7040 N   0  0  1  0  0  0  0  0  0  0  0  0
    4.1840    4.1190   -0.2680 C   0  0  0  0  0  0  0  0  0  0  0  0
    5.1530    1.9580   -0.3870 C   0  0  0  0  0  0  0  0  0  0  0  0
    6.4370    2.3750   -0.6980 N   0  0  0  0  0  0  0  0  0  0  0  0
    7.3040    1.5070   -0.3060 N   0  0  0  0  0  0  0  0  0  0  0  0
    6.6740    0.4920    0.2700 C   0  0  0  0  0  0  0  0  0  0  0  0
    5.3380    0.7760    0.2180 N   0  0  0  0  0  0  0  0  0  0  0  0
    4.6790   -0.3080    0.8320 C   0  0  0  0  0  0  0  0  0  0  0  0
    3.4570   -0.4900    1.0150 O   0  0  0  0  0  0  0  0  0  0  0  0
    5.6960   -1.2920    1.2720 C   0  0  0  0  0  0  0  0  0  0  0  0
    5.6120   -2.5070    1.9110 C   0  0  0  0  0  0  0  0  0  0  0  0
    6.7520   -3.2240    2.2010 C   0  0  0  0  0  0  0  0  0  0  0  0
    7.9960   -2.7220    1.8500 C   0  0  0  0  0  0  0  0  0  0  0  0
    8.0770   -1.5040    1.2100 C   0  0  0  0  0  0  0  0  0  0  0  0
    6.9160   -0.7800    0.9170 C   0  0  0  0  0  0  0  0  0  0  0  0
   -5.1490   -0.1600   -0.3460 C   0  0  0  0  0  0  0  0  0  0  0  0
   -5.4040   -0.7680    0.9360 C   0  0  0  0  0  0  0  0  0  0  0  0
   -5.7110   -2.1190    0.9960 C   0  0  0  0  0  0  0  0  0  0  0  0
   -5.9630   -2.7770    2.1760 C   0  0  0  0  0  0  0  0  0  0  0  0
   -5.9110   -2.0800    3.3470 N   0  0  0  0  0  0  0  0  0  0  0  0
   -5.6160   -0.7800    3.2890 C   0  0  0  0  0  0  0  0  0  0  0  0
   -5.5530    0.1030    4.8190 Cl  0  0  0  0  0  0  0  0  0  0  0  0
   -5.3600   -0.0930    2.1290 C   0  0  0  0  0  0  0  0  0  0  0  0
  1  2  1  0
  2  3  2  0
  2 31  1  0
  3  4  1  0
  4  5  2  0
  5  6  1  0
  6  7  1  0
  6 31  2  0
  7  8  1  0
  8  9  1  0
  9 10  2  0
  9 11  1  0
 11 12  1  0
 12 13  1  0
 13 14  2  0
 13 15  1  0
 15 16  1  0
 16 17  1  1
 16 18  1  0
 18 19  2  0
 18 22  1  0
 19 20  1  0
 20 21  2  0
 21 22  1  0
 21 30  1  0
 22 23  1  0
 23 24  2  0
 23 25  1  0
 25 26  2  0
 25 30  1  0
 26 27  1  0
 27 28  2  0
 28 29  1  0
 29 30  2  0
 31 32  1  0
 32 33  2  0
 32 38  1  0
 33 34  1  0
 34 35  2  0
 35 36  1  0
 36 37  1  0
 36 38  2  0
M  CHG  2  16   1  35   1
M  END
