
     RDKit          3D

 37 40  0  0  0  0  0  0  0  0999 V2000
   -2.7300   -2.6230    2.8560 C   0  0  0  0  0  0  0  0  0  0  0  0
   -3.7830   -2.7900    2.1140 C   0  0  0  0  0  0  0  0  0  0  0  0
   -4.2980   -1.7170    1.2540 C   0  0  0  0  0  0  0  0  0  0  0  0
   -3.9340   -0.4600    0.9910 C   0  0  0  0  0  0  0  0  0  0  0  0
   -4.5970    0.3200    0.1430 C   0  0  0  0  0  0  0  0  0  0  0  0
   -4.2640    1.7540   -0.1930 C   0  0  0  0  0  0  0  0  0  0  0  0
   -3.0750    2.1840    0.4780 N   0  0  0  0  0  0  0  0  0  0  0  0
   -1.8100    1.5930    0.1810 C   0  0  0  0  0  0  0  0  0  0  0  0
   -1.7870    0.7050   -0.6950 O   0  0  0  0  0  0  0  0  0  0  0  0
   -0.6120    1.9730    0.8320 N   0  0  0  0  0  0  0  0  0  0  0  0
    0.6870    1.3850    0.5520 C   0  0  2  0  0  0  0  0  0  0  0  0
    0.5780   -0.0870    0.8830 C   0  0  0  0  0  0  0  0  0  0  0  0
    1.8740   -0.7890    0.6300 C   0  0  0  0  0  0  0  0  0  0  0  0
    1.9710   -2.0240    0.8430 O   0  0  0  0  0  0  0  0  0  0  0  0
    3.0130   -0.1510    0.1610 O   0  0  0  0  0  0  0  0  0  0  0  0
    4.1900   -0.8460   -0.0570 C   0  0  0  0  0  0  0  0  0  0  0  0
    5.1730   -1.0200    0.8930 C   0  0  0  0  0  0  0  0  0  0  0  0
    6.3150   -1.7300    0.5800 C   0  0  0  0  0  0  0  0  0  0  0  0
    6.4930   -2.2740   -0.6790 C   0  0  0  0  0  0  0  0  0  0  0  0
    7.6600   -2.9970   -0.9910 O   0  0  0  0  0  0  0  0  0  0  0  0
    8.6640   -3.1780   -0.0270 C   0  0  0  0  0  0  0  0  0  0  0  0
    5.5200   -2.1080   -1.6370 C   0  0  0  0  0  0  0  0  0  0  0  0
    5.7990   -2.8690   -3.3520 Br  0  0  0  0  0  0  0  0  0  0  0  0
    4.3850   -1.3950   -1.3050 C   0  0  0  0  0  0  0  0  0  0  0  0
    1.6930    2.0500    1.3830 C   0  0  0  0  0  0  0  0  0  0  0  0
    2.5710    2.9800    0.6710 C   0  0  0  0  0  0  0  0  0  0  0  0
    2.2930    2.7110   -1.0610 S   0  0  1  0  0  0  0  0  0  0  0  0
    1.7970    3.9500   -1.7430 O   0  0  0  0  0  0  0  0  0  0  0  0
    3.4860    2.2170   -1.7800 O   0  0  0  0  0  0  0  0  0  0  0  0
    1.0130    1.4890   -0.9000 C   0  0  0  0  0  0  0  0  0  0  0  0
   -5.7590   -0.3270   -0.4730 C   0  0  0  0  0  0  0  0  0  0  0  0
   -6.6530    0.2920   -1.4290 C   0  0  0  0  0  0  0  0  0  0  0  0
   -7.7510   -0.2990   -2.0210 C   0  0  0  0  0  0  0  0  0  0  0  0
   -8.3130    0.6370   -2.8580 C   0  0  0  0  0  0  0  0  0  0  0  0
   -7.5110    1.7500   -2.7210 C   0  0  0  0  0  0  0  0  0  0  0  0
   -6.5580    1.5090   -1.8820 O   0  0  0  0  0  0  0  0  0  0  0  0
   -5.7930   -1.9350    0.1950 S   0  0  0  0  0  0  0  0  0  0  0  0
  1  2  2  0
  2  3  1  0
  3  4  2  0
  3 37  1  0
  4  5  1  0
  5  6  1  0
  5 31  2  0
  6  7  1  0
  7  8  1  0
  8  9  2  0
  8 10  1  0
 10 11  1  0
 11 12  1  1
 11 25  1  0
 11 30  1  0
 12 13  1  0
 13 14  2  0
 13 15  1  0
 15 16  1  0
 16 17  2  0
 16 24  1  0
 17 18  1  0
 18 19  2  0
 19 20  1  0
 19 22  1  0
 20 21  1  0
 22 23  1  0
 22 24  2  0
 25 26  1  0
 27 26  1  1
 27 28  2  0
 27 29  2  0
 27 30  1  0
 31 32  1  0
 31 37  1  0
 32 33  2  0
 32 36  1  0
 33 34  1  0
 34 35  2  0
 35 36  1  0
M  END
