
     RDKit          3D

 26 29  0  0  0  0  0  0  0  0999 V2000
    5.2950   -3.2790   -1.6140 C   0  0  0  0  0  0  0  0  0  0  0  0
    4.6180   -2.0980   -1.0490 C   0  0  0  0  0  0  0  0  0  0  0  0
    5.3530   -1.0810   -0.5560 N   0  0  0  0  0  0  0  0  0  0  0  0
    4.7840    0.0170   -0.0310 C   0  0  0  0  0  0  0  0  0  0  0  0
    5.5710    1.1230    0.5050 C   0  0  0  0  0  0  0  0  0  0  0  0
    6.9500    1.1180    0.5090 C   0  0  0  0  0  0  0  0  0  0  0  0
    7.6720    2.1840    1.0260 C   0  0  0  0  0  0  0  0  0  0  0  0
    7.0260    3.2840    1.5520 C   0  0  0  0  0  0  0  0  0  0  0  0
    5.6810    3.2600    1.5340 N   0  0  0  0  0  0  0  0  0  0  0  0
    4.9580    2.2370    1.0380 C   0  0  0  0  0  0  0  0  0  0  0  0
    3.4510    0.0840   -0.0050 N   0  0  0  0  0  0  0  0  0  0  0  0
    2.6570   -0.9100   -0.4870 C   0  0  0  0  0  0  0  0  0  0  0  0
    1.2370   -0.8070   -0.4440 N   0  0  0  0  0  0  0  0  0  0  0  0
    0.3570   -1.8440   -0.9470 C   0  0  0  0  0  0  0  0  0  0  0  0
   -1.0270   -1.2530   -0.8780 C   0  0  0  0  0  0  0  0  0  0  0  0
   -0.9140   -0.3220    0.3060 C   0  0  2  0  0  0  0  0  0  0  0  0
   -1.9810    0.6530    0.3260 N   0  0  0  0  0  0  0  0  0  0  0  0
   -3.2380   -0.0610    0.2840 C   0  0  2  0  0  0  0  0  0  0  0  0
   -3.9230    0.0960   -1.0680 C   0  0  0  0  0  0  0  0  0  0  0  0
   -5.2030    0.8320   -0.8240 C   0  0  0  0  0  0  0  0  0  0  0  0
   -5.5810    0.4050    0.5950 C   0  0  1  0  0  0  0  0  0  0  0  0
   -6.5650    1.4130    1.1450 C   0  0  0  0  0  0  0  0  0  0  0  0
   -6.1220   -0.9900    0.5590 C   0  0  0  0  0  0  0  0  0  0  0  0
   -4.2320    0.4910    1.2840 C   0  0  0  0  0  0  0  0  0  0  0  0
    0.4430    0.2960    0.0840 C   0  0  0  0  0  0  0  0  0  0  0  0
    3.2790   -1.9810   -0.9990 N   0  0  0  0  0  0  0  0  0  0  0  0
  1  2  1  0
  2  3  2  0
  2 26  1  0
  3  4  1  0
  4  5  1  0
  4 11  2  0
  5  6  2  0
  5 10  1  0
  6  7  1  0
  7  8  2  0
  8  9  1  0
  9 10  2  0
 11 12  1  0
 12 13  1  0
 12 26  2  0
 13 14  1  0
 13 25  1  0
 14 15  1  0
 15 16  1  0
 16 17  1  6
 16 25  1  0
 18 17  1  6
 18 19  1  0
 18 24  1  0
 19 20  1  0
 20 21  1  0
 21 22  1  1
 21 23  1  0
 21 24  1  0
M  CHG  1  17   1
M  END
