
     RDKit          3D

 27 30  0  0  0  0  0  0  0  0999 V2000
   -2.3640    4.0820    0.8870 C   0  0  0  0  0  0  0  0  0  0  0  0
   -2.8600    2.6900    0.7010 C   0  0  0  0  0  0  0  0  0  0  0  0
   -4.0610    2.2930    1.1450 N   0  0  0  0  0  0  0  0  0  0  0  0
   -4.5220    1.0520    0.9880 C   0  0  0  0  0  0  0  0  0  0  0  0
   -3.7720    0.0510    0.3340 C   0  0  0  0  0  0  0  0  0  0  0  0
   -4.3860   -1.2550    0.1430 C   0  0  0  0  0  0  0  0  0  0  0  0
   -3.8030   -2.4380   -0.1250 C   0  0  0  0  0  0  0  0  0  0  0  0
   -4.5940   -3.5840   -0.2430 C   0  0  0  0  0  0  0  0  0  0  0  0
   -5.9600   -3.5610   -0.0950 C   0  0  0  0  0  0  0  0  0  0  0  0
   -6.5250   -2.3230    0.1820 C   0  0  0  0  0  0  0  0  0  0  0  0
   -5.7610   -1.2630    0.2870 N   0  0  0  0  0  0  0  0  0  0  0  0
   -2.5560    0.4680   -0.1110 C   0  0  0  0  0  0  0  0  0  0  0  0
   -1.6460   -0.4670   -0.8040 C   0  0  0  0  0  0  0  0  0  0  0  0
   -0.4320    0.2540   -1.2400 N   0  0  0  0  0  0  0  0  0  0  0  0
    0.3980   -0.7170   -1.9010 C   0  0  0  0  0  0  0  0  0  0  0  0
    1.3250   -1.2180   -0.8110 C   0  0  0  0  0  0  0  0  0  0  0  0
    1.6440    0.0750   -0.0920 C   0  0  1  0  0  0  0  0  0  0  0  0
    2.0260   -0.1260    1.3330 C   0  0  0  0  0  0  0  0  0  0  0  0
    3.1910   -0.9950    1.5800 C   0  0  0  0  0  0  0  0  0  0  0  0
    4.3720   -0.8160    0.7150 C   0  0  0  0  0  0  0  0  0  0  0  0
    4.6020    0.5000    0.2220 N   0  0  0  0  0  0  0  0  0  0  0  0
    5.9700    0.8100   -0.0010 C   0  0  0  0  0  0  0  0  0  0  0  0
    6.4050    1.2600   -1.1310 N   0  0  0  0  0  0  0  0  0  0  0  0
    3.6760    1.5630   -0.0870 C   0  0  0  0  0  0  0  0  0  0  0  0
    2.5450    0.9520   -0.8830 C   0  0  0  0  0  0  0  0  0  0  0  0
    0.2580    0.7390   -0.0900 C   0  0  0  0  0  0  0  0  0  0  0  0
   -2.1290    1.7640    0.0790 N   0  0  0  0  0  0  0  0  0  0  0  0
  1  2  1  0
  2  3  2  0
  2 27  1  0
  3  4  1  0
  4  5  2  0
  5  6  1  0
  5 12  1  0
  6  7  2  0
  6 11  1  0
  7  8  1  0
  8  9  2  0
  9 10  1  0
 10 11  2  0
 12 13  1  0
 12 27  2  0
 13 14  1  0
 14 15  1  0
 14 26  1  0
 15 16  1  0
 17 16  1  6
 17 18  1  0
 17 25  1  0
 17 26  1  0
 18 19  1  0
 19 20  1  0
 20 21  1  0
 21 22  1  0
 21 24  1  0
 22 23  2  0
 24 25  1  0
M  CHG  1  23   1
M  END
