
     RDKit          3D

 26 29  0  0  0  0  0  0  0  0999 V2000
    6.8230    2.8210    0.0670 C   0  0  0  0  0  0  0  0  0  0  0  0
    6.0080    1.6060    0.2820 C   0  0  0  0  0  0  0  0  0  0  0  0
    6.6480    0.4450    0.7070 C   0  0  0  0  0  0  0  0  0  0  0  0
    5.8790   -0.6820    0.9050 C   0  0  0  0  0  0  0  0  0  0  0  0
    4.5640   -0.6050    0.6790 N   0  0  0  0  0  0  0  0  0  0  0  0
    3.9220    0.5190    0.2630 C   0  0  0  0  0  0  0  0  0  0  0  0
    2.5210    0.5280    0.0430 N   0  0  0  0  0  0  0  0  0  0  0  0
    1.7530   -0.6720    0.2610 C   0  0  2  0  0  0  0  0  0  0  0  0
    2.2230   -1.7900   -0.6220 C   0  0  0  0  0  0  0  0  0  0  0  0
    1.2770   -2.1260   -1.7510 C   0  0  0  0  0  0  0  0  0  0  0  0
   -0.0590   -2.4270   -1.1390 C   0  0  0  0  0  0  0  0  0  0  0  0
   -1.0310   -3.3830   -1.3070 C   0  0  0  0  0  0  0  0  0  0  0  0
   -2.0320   -3.1330   -0.4480 N   0  0  0  0  0  0  0  0  0  0  0  0
   -1.7370   -2.0580    0.2590 N   0  0  0  0  0  0  0  0  0  0  0  0
   -2.5130   -1.4140    1.3000 C   0  0  0  0  0  0  0  0  0  0  0  0
   -3.4250   -0.3880    0.8100 C   0  0  0  0  0  0  0  0  0  0  0  0
   -2.9830    0.9150    0.7170 C   0  0  0  0  0  0  0  0  0  0  0  0
   -3.8230    1.9330    0.2510 C   0  0  0  0  0  0  0  0  0  0  0  0
   -3.3580    3.3400    0.1470 C   0  0  0  0  0  0  0  0  0  0  0  0
   -5.0790    1.6060   -0.1040 N   0  0  0  0  0  0  0  0  0  0  0  0
   -5.5530    0.3390   -0.0280 C   0  0  0  0  0  0  0  0  0  0  0  0
   -6.9260   -0.0080   -0.4190 C   0  0  0  0  0  0  0  0  0  0  0  0
   -4.7290   -0.6650    0.4290 C   0  0  0  0  0  0  0  0  0  0  0  0
   -0.5400   -1.6010   -0.1360 C   0  0  0  0  0  0  0  0  0  0  0  0
    0.2860   -0.4420    0.2950 C   0  0  0  0  0  0  0  0  0  0  0  0
    4.6850    1.6140    0.0740 N   0  0  0  0  0  0  0  0  0  0  0  0
  1  2  1  0
  2  3  2  0
  2 26  1  0
  3  4  1  0
  4  5  2  0
  5  6  1  0
  6  7  1  0
  6 26  2  0
  8  7  1  6
  8  9  1  0
  8 25  1  0
  9 10  1  0
 10 11  1  0
 11 12  1  0
 11 24  2  0
 12 13  2  0
 13 14  1  0
 14 15  1  0
 14 24  1  0
 15 16  1  0
 16 17  2  0
 16 23  1  0
 17 18  1  0
 18 19  1  0
 18 20  2  0
 20 21  1  0
 21 22  1  0
 21 23  2  0
 24 25  1  0
M  CHG  1  20   1
M  END
