
     RDKit          3D

 12 12  0  0  0  0  0  0  0  0999 V2000
    2.6520   -1.3490    0.2830 O   0  0  0  0  0  0  0  0  0  0  0  0
    3.0550   -0.2370   -0.3920 C   0  0  0  0  0  0  0  0  0  0  0  0
    2.1160    0.3690   -1.3820 C   0  0  0  0  0  0  0  0  0  0  0  0
    0.9350    0.7900   -0.9180 O   0  0  0  0  0  0  0  0  0  0  0  0
   -0.1910    0.2930   -0.3700 C   0  0  0  0  0  0  0  0  0  0  0  0
   -0.4850   -1.0350   -0.1370 C   0  0  0  0  0  0  0  0  0  0  0  0
   -1.6860   -1.4290    0.4430 C   0  0  0  0  0  0  0  0  0  0  0  0
   -2.6410   -0.5140    0.8130 C   0  0  0  0  0  0  0  0  0  0  0  0
   -3.8480   -0.9020    1.3960 O   0  0  0  0  0  0  0  0  0  0  0  0
   -2.3420    0.8070    0.5770 C   0  0  0  0  0  0  0  0  0  0  0  0
   -1.1750    1.2360    0.0100 C   0  0  0  0  0  0  0  0  0  0  0  0
   -0.8880    2.5710   -0.2220 O   0  0  0  0  0  0  0  0  0  0  0  0
  1  2  1  0
  2  3  1  0
  3  4  1  0
  4  5  1  0
  5  6  2  0
  5 11  1  0
  6  7  1  0
  7  8  2  0
  8  9  1  0
  8 10  1  0
 10 11  2  0
 11 12  1  0
M  END
