
     RDKit          3D

 27 30  0  0  0  0  0  0  0  0999 V2000
   -0.4060   -3.2620   -2.3640 C   0  0  0  0  0  0  0  0  0  0  0  0
   -1.3590   -3.2720   -1.2310 C   0  0  0  0  0  0  0  0  0  0  0  0
   -0.9120   -2.8010    0.0810 C   0  0  0  0  0  0  0  0  0  0  0  0
   -0.4380   -1.4590    0.3290 C   0  0  1  0  0  0  0  0  0  0  0  0
    0.7850   -1.1390   -0.5150 C   0  0  0  0  0  0  0  0  0  0  0  0
    1.3320    0.1510   -0.1110 N   0  0  0  0  0  0  0  0  0  0  0  0
    2.7130    0.3630   -0.3870 C   0  0  0  0  0  0  0  0  0  0  0  0
    3.3710    0.9440    0.5270 N   0  0  0  0  0  0  0  0  0  0  0  0
    4.7270    1.2400    0.4480 C   0  0  0  0  0  0  0  0  0  0  0  0
    5.3490    1.8850    1.5210 C   0  0  0  0  0  0  0  0  0  0  0  0
    6.6860    2.1560    1.3970 C   0  0  0  0  0  0  0  0  0  0  0  0
    7.3480    1.7900    0.2470 C   0  0  0  0  0  0  0  0  0  0  0  0
    6.7320    1.1720   -0.7710 N   0  0  0  0  0  0  0  0  0  0  0  0
    5.4080    0.8860   -0.6860 C   0  0  0  0  0  0  0  0  0  0  0  0
    4.7120    0.2370   -1.7280 N   0  0  0  0  0  0  0  0  0  0  0  0
    3.3180   -0.0670   -1.6460 C   0  0  0  0  0  0  0  0  0  0  0  0
    0.5800    1.1710    0.5210 C   0  0  0  0  0  0  0  0  0  0  0  0
   -0.7620    0.7460    1.0320 C   0  0  0  0  0  0  0  0  0  0  0  0
   -1.3680   -0.3640    0.3140 N   0  0  2  0  0  0  0  0  0  0  0  0
   -2.5610   -0.7310    1.0320 C   0  0  0  0  0  0  0  0  0  0  0  0
   -3.5460    0.3790    1.1100 C   0  0  0  0  0  0  0  0  0  0  0  0
   -3.5540    1.2770    2.1600 C   0  0  0  0  0  0  0  0  0  0  0  0
   -4.4770    2.3120    2.2250 C   0  0  0  0  0  0  0  0  0  0  0  0
   -5.3860    2.4340    1.2290 N   0  0  0  0  0  0  0  0  0  0  0  0
   -5.4240    1.5950    0.1910 C   0  0  0  0  0  0  0  0  0  0  0  0
   -6.4210    1.7290   -0.8990 C   0  0  0  0  0  0  0  0  0  0  0  0
   -4.5040    0.5700    0.1340 C   0  0  0  0  0  0  0  0  0  0  0  0
  1  2  1  0
  2  3  1  0
  4  3  1  6
  4  5  1  0
  4 19  1  0
  5  6  1  0
  6  7  1  0
  6 17  1  0
  7  8  2  0
  7 16  1  0
  8  9  1  0
  9 10  2  0
  9 14  1  0
 10 11  1  0
 11 12  2  0
 12 13  1  0
 13 14  2  0
 14 15  1  0
 15 16  1  0
 17 18  1  0
 18 19  1  0
 19 20  1  1
 20 21  1  0
 21 22  2  0
 21 27  1  0
 22 23  1  0
 23 24  2  0
 24 25  1  0
 25 26  1  0
 25 27  2  0
M  CHG  1  19   1
M  END
