
     RDKit          3D

 27 30  0  0  0  0  0  0  0  0999 V2000
    2.0000   -3.8440    0.7460 C   0  0  0  0  0  0  0  0  0  0  0  0
    2.6520   -2.4960    0.6740 C   0  0  0  0  0  0  0  0  0  0  0  0
    3.9400   -2.3180    0.9980 N   0  0  0  0  0  0  0  0  0  0  0  0
    4.5700   -1.1130    0.9470 C   0  0  0  0  0  0  0  0  0  0  0  0
    3.8370    0.0020    0.5350 C   0  0  0  0  0  0  0  0  0  0  0  0
    4.5260    1.3120    0.4820 C   0  0  0  0  0  0  0  0  0  0  0  0
    5.8340    1.4440    0.8140 C   0  0  0  0  0  0  0  0  0  0  0  0
    6.4440    2.6870    0.7510 C   0  0  0  0  0  0  0  0  0  0  0  0
    5.7130    3.7680    0.3520 C   0  0  0  0  0  0  0  0  0  0  0  0
    4.3860    3.6390    0.0150 C   0  0  0  0  0  0  0  0  0  0  0  0
    3.8630    2.4130    0.0980 N   0  0  0  0  0  0  0  0  0  0  0  0
    2.5160   -0.1650    0.2000 C   0  0  0  0  0  0  0  0  0  0  0  0
    1.7330    0.9970   -0.2370 C   0  0  0  0  0  0  0  0  0  0  0  0
    0.3730    0.7170   -0.5600 N   0  0  0  0  0  0  0  0  0  0  0  0
    0.1320   -0.2020   -1.5870 C   0  0  0  0  0  0  0  0  0  0  0  0
   -1.0180   -1.0410   -1.1350 C   0  0  0  0  0  0  0  0  0  0  0  0
   -1.7110   -0.1370   -0.1430 C   0  0  1  0  0  0  0  0  0  0  0  0
   -2.4080    1.0190   -0.8080 C   0  0  0  0  0  0  0  0  0  0  0  0
   -3.5270    0.6310   -1.7010 C   0  0  0  0  0  0  0  0  0  0  0  0
   -4.8710    0.6090   -1.0120 C   0  0  0  0  0  0  0  0  0  0  0  0
   -4.8330   -0.1180    0.2400 N   0  0  0  0  0  0  0  0  0  0  0  0
   -6.0020   -0.9040    0.4560 C   0  0  0  0  0  0  0  0  0  0  0  0
   -6.0610   -2.0500   -0.1330 N   0  0  0  0  0  0  0  0  0  0  0  0
   -3.7990   -0.1450    1.2540 C   0  0  0  0  0  0  0  0  0  0  0  0
   -2.5700   -0.9010    0.8050 C   0  0  0  0  0  0  0  0  0  0  0  0
   -0.4770    0.4520    0.5610 C   0  0  0  0  0  0  0  0  0  0  0  0
    1.9890   -1.4030    0.2850 N   0  0  0  0  0  0  0  0  0  0  0  0
  1  2  1  0
  2  3  2  0
  2 27  1  0
  3  4  1  0
  4  5  2  0
  5  6  1  0
  5 12  1  0
  6  7  2  0
  6 11  1  0
  7  8  1  0
  8  9  2  0
  9 10  1  0
 10 11  2  0
 12 13  1  0
 12 27  2  0
 13 14  1  0
 14 15  1  0
 14 26  1  0
 15 16  1  0
 17 16  1  6
 17 18  1  0
 17 25  1  0
 17 26  1  0
 18 19  1  0
 19 20  1  0
 20 21  1  0
 21 22  1  0
 21 24  1  0
 22 23  2  0
 24 25  1  0
M  CHG  1  23   1
M  END
