
     RDKit          3D

 27 30  0  0  0  0  0  0  0  0999 V2000
   -4.9410    2.3060   -0.7760 C   0  0  0  0  0  0  0  0  0  0  0  0
   -5.0530    0.8590   -1.2300 C   0  0  2  0  0  0  0  0  0  0  0  0
   -6.3500    0.2270   -0.8540 C   0  0  0  0  0  0  0  0  0  0  0  0
   -6.2000   -0.8820    0.1490 C   0  0  0  0  0  0  0  0  0  0  0  0
   -5.1940   -0.4000    1.1950 C   0  0  0  0  0  0  0  0  0  0  0  0
   -3.8900   -0.3720    0.5640 N   0  0  0  0  0  0  0  0  0  0  0  0
   -2.7630   -0.7660    1.2930 C   0  0  0  0  0  0  0  0  0  0  0  0
   -2.7510   -1.0460    2.6370 C   0  0  0  0  0  0  0  0  0  0  0  0
   -1.5990   -1.4240    3.3230 C   0  0  0  0  0  0  0  0  0  0  0  0
   -0.4330   -1.5150    2.6060 C   0  0  0  0  0  0  0  0  0  0  0  0
   -0.4010   -1.2490    1.2880 N   0  0  0  0  0  0  0  0  0  0  0  0
    0.6210   -1.2730    0.3790 C   0  0  0  0  0  0  0  0  0  0  0  0
    0.1010   -0.9160   -0.8440 C   0  0  0  0  0  0  0  0  0  0  0  0
    0.8870   -0.8200   -2.0940 C   0  0  0  0  0  0  0  0  0  0  0  0
    2.3020   -1.0040   -1.8470 N   0  0  0  0  0  0  0  0  0  0  0  0
    3.0230   -0.0960   -0.9840 C   0  0  0  0  0  0  0  0  0  0  0  0
    4.3650   -0.2970   -0.7640 C   0  0  0  0  0  0  0  0  0  0  0  0
    5.0830    0.5420    0.0450 C   0  0  0  0  0  0  0  0  0  0  0  0
    6.4700    0.3920    0.3160 N   0  0  1  0  0  0  0  0  0  0  0  0
    7.0450   -0.7410   -0.3530 C   0  0  0  0  0  0  0  0  0  0  0  0
    7.1210    1.6310    0.0110 C   0  0  0  0  0  0  0  0  0  0  0  0
    4.4300    1.6000    0.6380 C   0  0  0  0  0  0  0  0  0  0  0  0
    3.0820    1.7670    0.3910 C   0  0  0  0  0  0  0  0  0  0  0  0
    2.4000    0.9370   -0.4010 N   0  0  0  0  0  0  0  0  0  0  0  0
   -1.2030   -0.6890   -0.6380 N   0  0  0  0  0  0  0  0  0  0  0  0
   -1.5270   -0.8850    0.6440 C   0  0  0  0  0  0  0  0  0  0  0  0
   -3.8350    0.0860   -0.8100 C   0  0  0  0  0  0  0  0  0  0  0  0
  2  1  1  1
  2  3  1  0
  2 27  1  0
  3  4  1  0
  4  5  1  0
  5  6  1  0
  6  7  1  0
  6 27  1  0
  7  8  2  0
  7 26  1  0
  8  9  1  0
  9 10  2  0
 10 11  1  0
 11 12  1  0
 11 26  1  0
 12 13  2  0
 13 14  1  0
 13 25  1  0
 14 15  1  0
 15 16  1  0
 16 17  2  0
 16 24  1  0
 17 18  1  0
 18 19  1  0
 18 22  2  0
 19 20  1  6
 19 21  1  0
 22 23  1  0
 23 24  2  0
 25 26  2  0
M  CHG  1  19   1
M  END
