
     RDKit          3D

 19 19  0  0  0  0  0  0  0  0999 V2000
   -2.5340    2.1210   -1.5310 O   0  0  0  0  0  0  0  0  0  0  0  0
   -2.8050    0.6670   -1.6400 S   0  0  2  0  0  0  0  0  0  0  0  0
   -3.5830    0.2920   -2.8530 O   0  0  0  0  0  0  0  0  0  0  0  0
   -3.5750    0.0170   -0.1520 C   0  0  0  0  0  0  0  0  0  0  0  0
   -2.5490   -0.9720    0.3470 C   0  0  0  0  0  0  0  0  0  0  0  0
   -1.1910   -0.4190   -0.0200 C   0  0  1  0  0  0  0  0  0  0  0  0
   -0.2060   -1.3670    0.3450 N   0  0  0  0  0  0  0  0  0  0  0  0
    0.9920   -0.7900    1.3940 S   0  0  2  0  0  0  0  0  0  0  0  0
    1.8450   -1.9200    1.9040 O   0  0  0  0  0  0  0  0  0  0  0  0
    0.2670   -0.2540    2.6380 O   0  0  0  0  0  0  0  0  0  0  0  0
    1.9280    0.5100    0.7030 C   0  0  0  0  0  0  0  0  0  0  0  0
    2.9650    0.1810   -0.0840 C   0  0  0  0  0  0  0  0  0  0  0  0
    3.3510   -1.2130   -0.3930 C   0  0  1  0  0  0  0  0  0  0  0  0
    2.1980   -1.9640   -0.6300 F   0  0  0  0  0  0  0  0  0  0  0  0
    4.1240   -1.1720   -1.5450 F   0  0  0  0  0  0  0  0  0  0  0  0
    4.0610   -1.7750    0.6300 F   0  0  0  0  0  0  0  0  0  0  0  0
    1.6150    1.9600    0.9460 C   0  0  0  0  0  0  0  0  0  0  0  0
    2.5450    2.7430    0.2480 O   0  0  0  0  0  0  0  0  0  0  0  0
   -1.2520   -0.2060   -1.5430 C   0  0  0  0  0  0  0  0  0  0  0  0
  1  2  2  0
  2  3  2  0
  2  4  1  1
  2 19  1  0
  4  5  1  0
  5  6  1  0
  6  7  1  6
  6 19  1  0
  8  7  1  6
  8  9  2  0
  8 10  2  0
  8 11  1  0
 11 12  2  3
 11 17  1  0
 12 13  1  0
 13 14  1  6
 13 15  1  0
 13 16  1  0
 17 18  1  0
M  END
