
     RDKit          3D

 19 19  0  0  0  0  0  0  0  0999 V2000
   -0.3290    3.0960   -0.3340 C   0  0  0  0  0  0  0  0  0  0  0  0
   -1.2130    1.9060   -0.3670 C   0  0  0  0  0  0  0  0  0  0  0  0
   -1.1050    0.7340    0.1850 C   0  0  0  0  0  0  0  0  0  0  0  0
    0.3090    0.3470    1.1930 S   0  0  2  0  0  0  0  0  0  0  0  0
   -0.0390   -0.5840    2.3100 O   0  0  0  0  0  0  0  0  0  0  0  0
    0.8160    1.5980    1.8550 O   0  0  0  0  0  0  0  0  0  0  0  0
    1.5370   -0.3950    0.2450 N   0  0  0  0  0  0  0  0  0  0  0  0
    2.8800    0.0040    0.4470 C   0  0  0  0  0  0  0  0  0  0  0  0
    3.1810    0.8880    1.3040 O   0  0  0  0  0  0  0  0  0  0  0  0
    3.9590   -0.6180   -0.3540 C   0  0  0  0  0  0  0  0  0  0  0  0
    3.4330   -1.5470   -1.2290 O   0  0  0  0  0  0  0  0  0  0  0  0
   -2.1770   -0.1990   -0.0520 C   0  0  0  0  0  0  0  0  0  0  0  0
   -2.2490   -1.4430    0.4220 C   0  0  0  0  0  0  0  0  0  0  0  0
   -3.3940   -2.3230    0.1200 C   0  0  1  0  0  0  0  0  0  0  0  0
   -3.6600   -2.1670   -1.2480 F   0  0  0  0  0  0  0  0  0  0  0  0
   -3.0220   -3.6500    0.3250 F   0  0  0  0  0  0  0  0  0  0  0  0
   -4.4940   -1.9710    0.8710 F   0  0  0  0  0  0  0  0  0  0  0  0
   -3.2040    0.2730   -0.8480 O   0  0  0  0  0  0  0  0  0  0  0  0
   -2.7460    1.8900   -1.2780 S   0  0  0  0  0  0  0  0  0  0  0  0
  1  2  1  0
  2  3  2  0
  2 19  1  0
  3  4  1  0
  3 12  1  0
  4  5  2  0
  4  6  2  0
  4  7  1  6
  7  8  1  0
  8  9  2  0
  8 10  1  0
 10 11  1  0
 12 13  2  3
 12 18  1  0
 13 14  1  0
 14 15  1  6
 14 16  1  0
 14 17  1  0
 18 19  1  0
M  END
