
     RDKit          3D

 19 19  0  0  0  0  0  0  0  0999 V2000
   -2.9300    1.2190   -0.6230 N   0  0  0  0  0  0  0  0  0  0  0  0
   -2.9670   -0.0480    0.0270 C   0  0  2  0  0  0  0  0  0  0  0  0
   -4.2960   -0.6600    0.0900 C   0  0  0  0  0  0  0  0  0  0  0  0
   -4.4550   -1.7790    0.6400 O   0  0  0  0  0  0  0  0  0  0  0  0
   -5.3730   -0.0180   -0.4490 O   0  0  0  0  0  0  0  0  0  0  0  0
   -2.1230    0.0060    1.6240 S   0  0  0  0  0  0  0  0  0  0  0  0
   -0.4200    0.0170    1.0880 C   0  0  0  0  0  0  0  0  0  0  0  0
    0.5930    0.6640    2.0120 C   0  0  0  0  0  0  0  0  0  0  0  0
    0.5430   -0.0420    3.1790 F   0  0  0  0  0  0  0  0  0  0  0  0
   -0.2160   -0.5390   -0.0660 C   0  0  0  0  0  0  0  0  0  0  0  0
    1.0610   -0.6830   -0.7610 C   0  0  0  0  0  0  0  0  0  0  0  0
    1.1070   -1.2580   -1.9050 O   0  0  0  0  0  0  0  0  0  0  0  0
    2.2760   -0.2460   -0.2980 O   0  0  0  0  0  0  0  0  0  0  0  0
    3.4440   -0.4440   -1.0630 C   0  0  0  0  0  0  0  0  0  0  0  0
    4.6110    0.1450   -0.2850 C   0  0  1  0  0  0  0  0  0  0  0  0
    4.3710    1.4900   -0.0930 F   0  0  0  0  0  0  0  0  0  0  0  0
    4.6640   -0.4920    0.9200 F   0  0  0  0  0  0  0  0  0  0  0  0
    5.7980   -0.0590   -0.9570 F   0  0  0  0  0  0  0  0  0  0  0  0
   -1.7520   -1.1520   -0.8080 S   0  0  0  0  0  0  0  0  0  0  0  0
  2  1  1  6
  2  3  1  0
  2  6  1  0
  2 19  1  0
  3  4  2  0
  3  5  1  0
  6  7  1  0
  7  8  1  0
  7 10  2  0
  8  9  1  0
 10 11  1  0
 10 19  1  0
 11 12  2  0
 11 13  1  0
 13 14  1  0
 14 15  1  0
 15 16  1  1
 15 17  1  0
 15 18  1  0
M  END
