
     RDKit          3D

 20 20  0  0  0  0  0  0  0  0999 V2000
   -5.0500    0.3980    0.7340 N   0  0  0  0  0  0  0  0  0  0  0  0
   -4.0460   -0.3520   -0.4280 S   0  0  1  0  0  0  0  0  0  0  0  0
   -4.3190   -1.8290   -0.3600 O   0  0  0  0  0  0  0  0  0  0  0  0
   -4.4400    0.0810   -1.8310 O   0  0  0  0  0  0  0  0  0  0  0  0
   -2.3620   -0.0980   -0.1750 C   0  0  0  0  0  0  0  0  0  0  0  0
   -1.6670   -1.0110    0.6170 C   0  0  0  0  0  0  0  0  0  0  0  0
   -2.2920   -2.0820    1.1840 F   0  0  0  0  0  0  0  0  0  0  0  0
   -0.3170   -0.8130    0.8240 C   0  0  0  0  0  0  0  0  0  0  0  0
    0.4040   -1.6740    1.5880 F   0  0  0  0  0  0  0  0  0  0  0  0
    0.3200    0.2730    0.2500 C   0  0  0  0  0  0  0  0  0  0  0  0
    2.0300    0.5680    0.4810 S   0  0  1  0  0  0  0  0  0  0  0  0
    2.3400    2.0250    0.4810 O   0  0  0  0  0  0  0  0  0  0  0  0
    2.4150   -0.0540    1.7900 O   0  0  0  0  0  0  0  0  0  0  0  0
    2.8850   -0.2810   -0.8350 C   0  0  0  0  0  0  0  0  0  0  0  0
    4.3790   -0.0860   -0.7230 C   0  0  0  0  0  0  0  0  0  0  0  0
    4.8900   -0.5660    0.4690 O   0  0  0  0  0  0  0  0  0  0  0  0
   -0.3850    1.1670   -0.5320 C   0  0  0  0  0  0  0  0  0  0  0  0
    0.2220    2.2490   -1.1110 F   0  0  0  0  0  0  0  0  0  0  0  0
   -1.7280    0.9880   -0.7490 C   0  0  0  0  0  0  0  0  0  0  0  0
   -2.4790    1.8210   -1.5020 F   0  0  0  0  0  0  0  0  0  0  0  0
  2  1  1  1
  2  3  2  0
  2  4  2  0
  2  5  1  0
  5  6  2  0
  5 19  1  0
  6  7  1  0
  6  8  1  0
  8  9  1  0
  8 10  2  0
 10 11  1  0
 10 17  1  0
 11 12  2  0
 11 13  2  0
 11 14  1  6
 14 15  1  0
 15 16  1  0
 17 18  1  0
 17 19  2  0
 19 20  1  0
M  END
