
     RDKit          3D

 30 32  0  0  0  0  0  0  0  0999 V2000
   -8.1010    0.7230    1.0810 C   0  0  0  0  0  0  0  0  0  0  0  0
   -6.7570    0.1680    0.6160 C   0  0  0  0  0  0  0  0  0  0  0  0
   -6.7590   -1.0110   -0.0850 C   0  0  0  0  0  0  0  0  0  0  0  0
   -7.8880   -1.8760   -0.4860 C   0  0  2  0  0  0  0  0  0  0  0  0
   -8.7300   -1.1460   -1.2800 F   0  0  0  0  0  0  0  0  0  0  0  0
   -8.4660   -2.3770    0.6410 F   0  0  0  0  0  0  0  0  0  0  0  0
   -7.3640   -2.9620   -1.1900 F   0  0  0  0  0  0  0  0  0  0  0  0
   -5.0560   -1.2660   -0.4080 S   0  0  0  0  0  0  0  0  0  0  0  0
   -4.4410    0.1720    0.3850 C   0  0  0  0  0  0  0  0  0  0  0  0
   -3.0720    0.5680    0.4830 N   0  0  0  0  0  0  0  0  0  0  0  0
   -2.0320   -0.1920   -0.0750 C   0  0  0  0  0  0  0  0  0  0  0  0
   -2.2970   -1.2550   -0.6800 O   0  0  0  0  0  0  0  0  0  0  0  0
   -0.6120    0.2220    0.0250 C   0  0  0  0  0  0  0  0  0  0  0  0
    0.4660   -0.9640   -0.7870 S   0  0  0  0  0  0  0  0  0  0  0  0
    0.0720   -1.2190   -2.2100 O   0  0  0  0  0  0  0  0  0  0  0  0
    2.1280   -0.3820   -0.6130 C   0  0  0  0  0  0  0  0  0  0  0  0
    3.1130   -1.1360   -0.1640 C   0  0  0  0  0  0  0  0  0  0  0  0
    4.4770   -0.6660   -0.0190 C   0  0  0  0  0  0  0  0  0  0  0  0
    5.4750   -1.4010    0.4270 C   0  0  0  0  0  0  0  0  0  0  0  0
    6.8060   -0.8750    0.5470 C   0  0  0  0  0  0  0  0  0  0  0  0
    7.1020    0.4250    0.9290 C   0  0  0  0  0  0  0  0  0  0  0  0
    8.4730    0.5240    0.9190 C   0  0  0  0  0  0  0  0  0  0  0  0
    8.9440   -0.6990    0.5380 C   0  0  0  0  0  0  0  0  0  0  0  0
   10.2830   -1.1050    0.3770 O   0  0  0  0  0  0  0  0  0  0  0  0
    7.9370   -1.5060    0.3250 O   0  0  0  0  0  0  0  0  0  0  0  0
    4.7290    0.6540   -0.3810 O   0  0  0  0  0  0  0  0  0  0  0  0
    3.8480    1.3130   -1.2380 C   0  0  0  0  0  0  0  0  0  0  0  0
    2.4030    1.0250   -0.9980 C   0  0  0  0  0  0  0  0  0  0  0  0
   -5.5900    0.7700    0.8560 C   0  0  0  0  0  0  0  0  0  0  0  0
   -5.4550    2.0300    1.5930 N   0  0  0  0  0  0  0  0  0  0  0  0
  1  2  1  0
  2  3  2  0
  2 29  1  0
  3  4  1  0
  3  8  1  0
  4  5  1  6
  4  6  1  0
  4  7  1  0
  8  9  1  0
  9 10  1  0
  9 29  2  0
 10 11  1  0
 11 12  2  0
 11 13  1  0
 14 13  1  6
 14 15  2  0
 14 16  1  0
 16 17  2  0
 16 28  1  0
 17 18  1  0
 18 19  2  3
 18 26  1  0
 19 20  1  0
 20 21  2  0
 20 25  1  0
 21 22  1  0
 22 23  2  0
 23 24  1  0
 23 25  1  0
 26 27  1  0
 27 28  1  0
 29 30  1  0
M  END
