
     RDKit          3D

 29 31  0  0  0  0  0  0  0  0999 V2000
    5.8360   -1.8330    1.5860 C   0  0  0  0  0  0  0  0  0  0  0  0
    5.4020   -0.7470    2.4770 C   0  0  0  0  0  0  0  0  0  0  0  0
    4.4750    0.0950    2.0850 C   0  0  0  0  0  0  0  0  0  0  0  0
    3.8860   -0.0520    0.7770 C   0  0  0  0  0  0  0  0  0  0  0  0
    2.9450    0.7260    0.2620 C   0  0  0  0  0  0  0  0  0  0  0  0
    2.3380    0.5870   -1.0660 C   0  0  0  0  0  0  0  0  0  0  0  0
    1.4350    1.5330   -1.2520 C   0  0  0  0  0  0  0  0  0  0  0  0
    0.4680    1.7340   -2.7120 S   0  0  2  0  0  0  0  0  0  0  0  0
    1.2940    1.2990   -3.8610 O   0  0  0  0  0  0  0  0  0  0  0  0
    0.1740    3.1990   -2.8690 O   0  0  0  0  0  0  0  0  0  0  0  0
   -0.9600    0.8220   -2.5130 N   0  0  0  0  0  0  0  0  0  0  0  0
   -1.7640    1.2470   -1.4160 C   0  0  0  0  0  0  0  0  0  0  0  0
   -3.0230    0.4970   -1.1830 C   0  0  2  0  0  0  0  0  0  0  0  0
   -3.8660    0.5440   -2.3300 O   0  0  0  0  0  0  0  0  0  0  0  0
   -3.8710    1.2330   -0.1120 C   0  0  0  0  0  0  0  0  0  0  0  0
   -5.1770   -0.0280   -0.0680 S   0  0  1  0  0  0  0  0  0  0  0  0
   -5.9090   -0.0100    1.2120 O   0  0  0  0  0  0  0  0  0  0  0  0
   -6.0000    0.1260   -1.2860 O   0  0  0  0  0  0  0  0  0  0  0  0
   -4.0460   -1.3900   -0.1860 C   0  0  0  0  0  0  0  0  0  0  0  0
   -4.2140   -2.6680    0.2540 C   0  0  0  0  0  0  0  0  0  0  0  0
   -3.1820   -3.5610    0.0960 C   0  0  0  0  0  0  0  0  0  0  0  0
   -3.2900   -4.8490    0.5150 F   0  0  0  0  0  0  0  0  0  0  0  0
   -2.0180   -3.1320   -0.4990 C   0  0  0  0  0  0  0  0  0  0  0  0
   -1.8890   -1.8470   -0.9250 C   0  0  0  0  0  0  0  0  0  0  0  0
   -0.7300   -1.4940   -1.4920 F   0  0  0  0  0  0  0  0  0  0  0  0
   -2.9170   -0.8990   -0.7870 C   0  0  0  0  0  0  0  0  0  0  0  0
    1.4090    2.3400   -0.0470 C   0  0  0  0  0  0  0  0  0  0  0  0
    2.2810    1.8860    0.8460 C   0  0  0  0  0  0  0  0  0  0  0  0
    2.5040    2.4530    2.1330 N   0  0  0  0  0  0  0  0  0  0  0  0
  1  2  1  0
  2  3  2  3
  3  4  1  0
  4  5  2  3
  5  6  1  0
  5 28  1  0
  6  7  2  0
  7  8  1  0
  7 27  1  0
  8  9  2  0
  8 10  2  0
  8 11  1  1
 11 12  1  0
 12 13  1  0
 13 14  1  6
 13 15  1  0
 13 26  1  0
 16 15  1  1
 16 17  2  0
 16 18  2  0
 16 19  1  0
 19 20  2  0
 19 26  1  0
 20 21  1  0
 21 22  1  0
 21 23  2  0
 23 24  1  0
 24 25  1  0
 24 26  2  0
 27 28  2  0
 28 29  1  0
M  END
