
     RDKit          3D

 30 31  0  0  0  0  0  0  0  0999 V2000
   -1.4920    4.7710    0.3470 C   0  0  0  0  0  0  0  0  0  0  0  0
   -1.6500    3.4010    0.1600 O   0  0  0  0  0  0  0  0  0  0  0  0
   -2.2910    2.5280    0.9870 C   0  0  0  0  0  0  0  0  0  0  0  0
   -2.7810    3.1060    2.0370 O   0  0  0  0  0  0  0  0  0  0  0  0
   -2.4960    1.1140    0.8780 C   0  0  0  0  0  0  0  0  0  0  0  0
   -2.0840    0.3860   -0.1400 C   0  0  0  0  0  0  0  0  0  0  0  0
   -1.3780    0.9960   -1.2490 C   0  0  1  0  0  0  0  0  0  0  0  0
   -1.8570    2.1610   -1.7900 O   0  0  0  0  0  0  0  0  0  0  0  0
    0.0990    1.0980   -1.0500 C   0  0  0  0  0  0  0  0  0  0  0  0
    0.7140    2.1180   -1.5310 O   0  0  0  0  0  0  0  0  0  0  0  0
    0.8760    0.1600   -0.3730 N   0  0  0  0  0  0  0  0  0  0  0  0
    2.2710    0.1980   -0.1540 C   0  0  0  0  0  0  0  0  0  0  0  0
    2.8590   -0.9210    0.4630 C   0  0  0  0  0  0  0  0  0  0  0  0
    4.2160   -0.9910    0.7320 C   0  0  0  0  0  0  0  0  0  0  0  0
    4.7880   -2.1300    1.3560 N   0  0  0  0  0  0  0  0  0  0  0  0
    5.0410    0.0610    0.3930 C   0  0  0  0  0  0  0  0  0  0  0  0
    4.4970    1.1540   -0.2050 C   0  0  0  0  0  0  0  0  0  0  0  0
    5.5120    2.5640   -0.6750 S   0  0  0  0  0  0  0  0  0  0  0  0
    6.0890    2.3550   -2.2660 F   0  0  0  0  0  0  0  0  0  0  0  0
    3.1310    1.1920   -0.4610 C   0  0  0  0  0  0  0  0  0  0  0  0
   -2.2980   -1.0880   -0.1380 C   0  0  0  0  0  0  0  0  0  0  0  0
   -1.9070   -1.8730   -1.1260 C   0  0  0  0  0  0  0  0  0  0  0  0
   -2.1760   -3.3520   -1.0210 C   0  0  2  0  0  0  0  0  0  0  0  0
   -3.7080   -3.6350   -0.0580 S   0  0  0  0  0  0  0  0  0  0  0  0
   -1.0070   -4.0320   -0.3300 C   0  0  1  0  0  0  0  0  0  0  0  0
    0.1300   -3.8270   -1.0530 F   0  0  0  0  0  0  0  0  0  0  0  0
   -0.9000   -3.6380    0.9760 F   0  0  0  0  0  0  0  0  0  0  0  0
   -2.9420   -1.6710    0.9560 O   0  0  0  0  0  0  0  0  0  0  0  0
   -3.3650   -0.8930    2.0020 C   0  0  0  0  0  0  0  0  0  0  0  0
   -3.1720    0.4080    1.9950 C   0  0  0  0  0  0  0  0  0  0  0  0
  1  2  1  0
  2  3  1  0
  3  4  2  0
  3  5  1  0
  5  6  2  0
  5 30  1  0
  6  7  1  0
  6 21  1  0
  7  8  1  1
  7  9  1  0
  9 10  2  0
  9 11  1  0
 11 12  1  0
 12 13  2  0
 12 20  1  0
 13 14  1  0
 14 15  1  0
 14 16  2  0
 16 17  1  0
 17 18  1  0
 17 20  2  0
 18 19  1  0
 21 22  2  3
 21 28  1  0
 22 23  1  0
 23 24  1  1
 23 25  1  0
 25 26  1  6
 25 27  1  0
 28 29  1  0
 29 30  2  0
M  END
