
     RDKit          3D

 30 32  0  0  0  0  0  0  0  0999 V2000
   -7.7900   -2.0380    0.6060 C   0  0  0  0  0  0  0  0  0  0  0  0
   -7.2480   -0.8540    1.2540 O   0  0  0  0  0  0  0  0  0  0  0  0
   -6.0320   -0.3200    0.9320 C   0  0  0  0  0  0  0  0  0  0  0  0
   -5.1130   -0.7990    0.0660 C   0  0  0  0  0  0  0  0  0  0  0  0
   -3.9100   -0.1110   -0.1100 C   0  0  0  0  0  0  0  0  0  0  0  0
   -3.6340    1.0300    0.5680 C   0  0  0  0  0  0  0  0  0  0  0  0
   -2.2680    1.5520    0.5840 C   0  0  0  0  0  0  0  0  0  0  0  0
   -1.1320    0.8230    0.2690 C   0  0  0  0  0  0  0  0  0  0  0  0
   -0.0650    1.6110    0.4160 C   0  0  0  0  0  0  0  0  0  0  0  0
    1.3320    1.3080    0.3020 C   0  0  0  0  0  0  0  0  0  0  0  0
    2.2380    2.0060    0.9160 O   0  0  0  0  0  0  0  0  0  0  0  0
    1.8570    0.2460   -0.4700 N   0  0  0  0  0  0  0  0  0  0  0  0
    3.2120   -0.1430   -0.6480 C   0  0  1  0  0  0  0  0  0  0  0  0
    3.4940   -1.3630    0.1850 C   0  0  0  0  0  0  0  0  0  0  0  0
    3.3490   -1.1340    1.5480 O   0  0  0  0  0  0  0  0  0  0  0  0
    3.5770   -0.3930   -2.0990 C   0  0  0  0  0  0  0  0  0  0  0  0
    4.9580   -0.8250   -2.2640 C   0  0  0  0  0  0  0  0  0  0  0  0
    5.3610   -2.0050   -2.8320 C   0  0  0  0  0  0  0  0  0  0  0  0
    6.5980   -2.3570   -2.8270 C   0  0  0  0  0  0  0  0  0  0  0  0
    7.6530   -1.6250   -2.2790 C   0  0  0  0  0  0  0  0  0  0  0  0
    7.3090   -0.3840   -1.6700 C   0  0  0  0  0  0  0  0  0  0  0  0
    8.2230    0.3500   -1.0070 C   0  0  0  0  0  0  0  0  0  0  0  0
    9.1510    1.0720   -0.3210 N   0  0  0  0  0  0  0  0  0  0  0  0
    5.9420   -0.0220   -1.6900 C   0  0  0  0  0  0  0  0  0  0  0  0
   -0.5560    2.8700    0.8230 C   0  0  0  0  0  0  0  0  0  0  0  0
   -1.8910    2.7440    0.8950 O   0  0  0  0  0  0  0  0  0  0  0  0
   -4.5690    1.5650    1.4670 C   0  0  0  0  0  0  0  0  0  0  0  0
   -5.7540    0.8970    1.6440 C   0  0  0  0  0  0  0  0  0  0  0  0
   -6.7580    1.2830    2.4650 O   0  0  0  0  0  0  0  0  0  0  0  0
   -6.9790    2.3590    3.2530 C   0  0  0  0  0  0  0  0  0  0  0  0
  1  2  1  0
  2  3  1  0
  3  4  2  0
  3 28  1  0
  4  5  1  0
  5  6  2  0
  6  7  1  0
  6 27  1  0
  7  8  2  0
  7 26  1  0
  8  9  1  0
  9 10  1  0
  9 25  2  0
 10 11  2  0
 10 12  1  0
 12 13  1  0
 13 14  1  1
 13 16  1  0
 14 15  1  0
 16 17  1  0
 17 18  2  0
 17 24  1  0
 18 19  1  0
 19 20  2  0
 20 21  1  0
 21 22  1  0
 21 24  2  0
 22 23  3  0
 25 26  1  0
 27 28  2  0
 28 29  1  0
 29 30  1  0
M  END
