
     RDKit          3D

 25 27  0  0  0  0  0  0  0  0999 V2000
   -3.0520    2.7670   -1.4770 C   0  0  0  0  0  0  0  0  0  0  0  0
   -2.4550    1.8080   -0.4200 C   0  0  1  0  0  0  0  0  0  0  0  0
   -2.4550    2.6110    0.9000 C   0  0  0  0  0  0  0  0  0  0  0  0
   -3.2410    0.7120   -0.2490 O   0  0  0  0  0  0  0  0  0  0  0  0
   -3.1530   -0.6210   -0.2910 C   0  0  0  0  0  0  0  0  0  0  0  0
   -4.3330   -1.3550   -0.0200 C   0  0  0  0  0  0  0  0  0  0  0  0
   -4.3270   -2.7240   -0.0430 C   0  0  0  0  0  0  0  0  0  0  0  0
   -5.5850   -3.5090    0.2460 C   0  0  0  0  0  0  0  0  0  0  0  0
   -6.6090   -2.6320    0.5050 O   0  0  0  0  0  0  0  0  0  0  0  0
   -3.1530   -3.3760   -0.3350 C   0  0  0  0  0  0  0  0  0  0  0  0
   -3.1120   -5.1210   -0.3720 Cl  0  0  0  0  0  0  0  0  0  0  0  0
   -1.9980   -2.6710   -0.6000 C   0  0  0  0  0  0  0  0  0  0  0  0
   -1.9880   -1.2830   -0.5810 C   0  0  0  0  0  0  0  0  0  0  0  0
   -0.4320   -0.5050   -0.9410 S   0  0  0  0  0  0  0  0  0  0  0  0
    0.4430   -0.2990    0.6580 C   0  0  0  0  0  0  0  0  0  0  0  0
    1.7650    0.3480    0.4540 C   0  0  0  0  0  0  0  0  0  0  0  0
    1.9150    1.7150    0.4900 C   0  0  0  0  0  0  0  0  0  0  0  0
    3.1310    2.3430    0.3040 C   0  0  0  0  0  0  0  0  0  0  0  0
    4.2520    1.5430    0.0700 C   0  0  0  0  0  0  0  0  0  0  0  0
    4.1380    0.1670    0.0270 C   0  0  0  0  0  0  0  0  0  0  0  0
    2.9020   -0.4150    0.2190 C   0  0  0  0  0  0  0  0  0  0  0  0
    5.3370   -0.6730   -0.2220 C   0  0  0  0  0  0  0  0  0  0  0  0
    6.5010    0.0010    0.4710 C   0  0  0  0  0  0  0  0  0  0  0  0
    6.6960    1.3440   -0.2030 C   0  0  0  0  0  0  0  0  0  0  0  0
    5.5040    2.0940   -0.1260 O   0  0  0  0  0  0  0  0  0  0  0  0
  2  1  1  6
  2  3  1  0
  2  4  1  0
  4  5  1  0
  5  6  2  0
  5 13  1  0
  6  7  1  0
  7  8  1  0
  7 10  2  0
  8  9  1  0
 10 11  1  0
 10 12  1  0
 12 13  2  0
 13 14  1  0
 14 15  1  0
 15 16  1  0
 16 17  2  0
 16 21  1  0
 17 18  1  0
 18 19  2  0
 19 20  1  0
 19 25  1  0
 20 21  2  0
 20 22  1  0
 22 23  1  0
 23 24  1  0
 24 25  1  0
M  END
