
     RDKit          3D

 25 27  0  0  0  0  0  0  0  0999 V2000
    1.5370    2.4090   -1.1460 O   0  0  0  0  0  0  0  0  0  0  0  0
    1.4500    1.4660   -0.3470 C   0  0  0  0  0  0  0  0  0  0  0  0
    0.2950    1.3160    0.4000 O   0  0  0  0  0  0  0  0  0  0  0  0
   -0.8090    2.1840    0.3060 C   0  0  0  0  0  0  0  0  0  0  0  0
   -1.8600    1.6240    1.3220 C   0  0  0  0  0  0  0  0  0  0  0  0
   -2.1650    0.2870    0.8990 C   0  0  0  0  0  0  0  0  0  0  0  0
   -3.1000   -0.4650    0.5010 C   0  0  0  0  0  0  0  0  0  0  0  0
   -4.5060   -0.3240    0.2410 C   0  0  0  0  0  0  0  0  0  0  0  0
   -5.1320   -1.4450   -0.1710 C   0  0  0  0  0  0  0  0  0  0  0  0
   -6.5170   -1.7130   -0.5280 C   0  0  0  0  0  0  0  0  0  0  0  0
   -7.5610   -0.2630   -0.4270 S   0  0  0  0  0  0  0  0  0  0  0  0
   -6.5310    1.0700    0.1250 C   0  0  0  0  0  0  0  0  0  0  0  0
   -5.2220    0.9100    0.3790 C   0  0  0  0  0  0  0  0  0  0  0  0
   -4.6240    2.1010    0.7980 O   0  0  0  0  0  0  0  0  0  0  0  0
    2.5660    0.5200   -0.1970 C   0  0  0  0  0  0  0  0  0  0  0  0
    2.4860   -0.5350    0.6880 C   0  0  0  0  0  0  0  0  0  0  0  0
    3.5580   -1.4010    0.7980 C   0  0  0  0  0  0  0  0  0  0  0  0
    4.7090   -1.2410    0.0460 C   0  0  0  0  0  0  0  0  0  0  0  0
    5.7750   -2.1100    0.1610 C   0  0  0  0  0  0  0  0  0  0  0  0
    5.6690   -3.4500    1.2870 Cl  0  0  0  0  0  0  0  0  0  0  0  0
    6.9330   -1.9500   -0.5950 C   0  0  0  0  0  0  0  0  0  0  0  0
    7.0080   -0.8930   -1.4790 C   0  0  0  0  0  0  0  0  0  0  0  0
    5.9400   -0.0280   -1.5900 C   0  0  0  0  0  0  0  0  0  0  0  0
    4.7850   -0.1820   -0.8400 C   0  0  0  0  0  0  0  0  0  0  0  0
    3.7090    0.6870   -0.9500 C   0  0  0  0  0  0  0  0  0  0  0  0
  1  2  2  0
  2  3  1  0
  2 15  1  0
  3  4  1  0
  4  5  1  0
  5  6  1  0
  6  7  2  3
  7  8  1  0
  8  9  2  0
  8 13  1  0
  9 10  1  0
 10 11  1  0
 11 12  1  0
 12 13  2  0
 13 14  1  0
 15 16  2  0
 15 25  1  0
 16 17  1  0
 17 18  2  0
 18 19  1  0
 18 24  1  0
 19 20  1  0
 19 21  2  0
 21 22  1  0
 22 23  2  0
 23 24  1  0
 24 25  2  0
M  END
