
     RDKit          3D

 25 27  0  0  0  0  0  0  0  0999 V2000
   -5.6440   -1.7200   -1.0750 C   0  0  0  0  0  0  0  0  0  0  0  0
   -4.7360   -0.7570   -0.4380 C   0  0  0  0  0  0  0  0  0  0  0  0
   -3.5790   -0.4170   -1.1300 C   0  0  0  0  0  0  0  0  0  0  0  0
   -2.6710    0.4810   -0.6000 C   0  0  0  0  0  0  0  0  0  0  0  0
   -1.5180    0.8980   -1.1460 O   0  0  0  0  0  0  0  0  0  0  0  0
   -0.8090    0.6440   -2.2780 C   0  0  0  0  0  0  0  0  0  0  0  0
   -0.3290   -0.7940   -2.3440 C   0  0  0  0  0  0  0  0  0  0  0  0
    0.4820   -1.1520   -1.3040 O   0  0  0  0  0  0  0  0  0  0  0  0
    1.6920   -0.7590   -0.8510 C   0  0  0  0  0  0  0  0  0  0  0  0
    2.1600   -1.4070    0.3110 C   0  0  0  0  0  0  0  0  0  0  0  0
    3.3800   -1.0900    0.8620 C   0  0  0  0  0  0  0  0  0  0  0  0
    4.1920   -0.1340    0.3070 C   0  0  0  0  0  0  0  0  0  0  0  0
    5.5160    0.1920    0.9250 C   0  0  0  0  0  0  0  0  0  0  0  0
    6.5780    0.5960    0.2320 C   0  0  0  0  0  0  0  0  0  0  0  0
    7.7590    0.8730    0.8650 C   0  0  0  0  0  0  0  0  0  0  0  0
    7.3650    0.5440    2.5790 S   0  0  0  0  0  0  0  0  0  0  0  0
    5.6890    0.0700    2.3390 C   0  0  0  0  0  0  0  0  0  0  0  0
    3.7480    0.4990   -0.8210 C   0  0  0  0  0  0  0  0  0  0  0  0
    2.5080    0.1880   -1.3940 C   0  0  0  0  0  0  0  0  0  0  0  0
   -3.0020    1.0160    0.6660 C   0  0  0  0  0  0  0  0  0  0  0  0
   -2.1270    1.9220    1.2410 O   0  0  0  0  0  0  0  0  0  0  0  0
   -4.1560    0.6590    1.3230 C   0  0  0  0  0  0  0  0  0  0  0  0
   -4.4610    1.2540    2.6610 C   0  0  0  0  0  0  0  0  0  0  0  0
   -5.0300   -0.2290    0.7760 C   0  0  0  0  0  0  0  0  0  0  0  0
   -6.5130   -0.7220    1.5630 Cl  0  0  0  0  0  0  0  0  0  0  0  0
  1  2  1  0
  2  3  2  0
  2 24  1  0
  3  4  1  0
  4  5  1  0
  4 20  2  0
  5  6  1  0
  6  7  1  0
  7  8  1  0
  8  9  1  0
  9 10  2  0
  9 19  1  0
 10 11  1  0
 11 12  2  0
 12 13  1  0
 12 18  1  0
 13 14  1  0
 13 17  2  0
 14 15  2  0
 15 16  1  0
 16 17  1  0
 18 19  2  0
 20 21  1  0
 20 22  1  0
 22 23  1  0
 22 24  2  0
 24 25  1  0
M  END
