
     RDKit          3D

 25 26  0  0  0  0  0  0  0  0999 V2000
   -3.5970    5.9070   -0.8250 C   0  0  0  0  0  0  0  0  0  0  0  0
   -2.3900    5.0460   -0.5040 C   0  0  0  0  0  0  0  0  0  0  0  0
   -2.4150    3.7870   -0.7690 C   0  0  0  0  0  0  0  0  0  0  0  0
   -1.4430    2.7430   -0.5820 C   0  0  0  0  0  0  0  0  0  0  0  0
   -1.7480    1.4210   -0.9610 C   0  0  0  0  0  0  0  0  0  0  0  0
   -0.8740    0.3710   -0.8180 C   0  0  0  0  0  0  0  0  0  0  0  0
   -1.2710   -0.9610   -1.2440 C   0  0  0  0  0  0  0  0  0  0  0  0
   -1.4990   -1.9750   -0.4010 C   0  0  0  0  0  0  0  0  0  0  0  0
   -1.8840   -3.2490   -0.9860 C   0  0  0  0  0  0  0  0  0  0  0  0
   -2.6380   -4.2250   -0.5250 C   0  0  0  0  0  0  0  0  0  0  0  0
   -3.3700   -4.4360    0.6990 C   0  0  0  0  0  0  0  0  0  0  0  0
   -3.5600   -3.6150    1.7060 C   0  0  0  0  0  0  0  0  0  0  0  0
   -2.9730   -1.9630    1.8960 S   0  0  0  0  0  0  0  0  0  0  0  0
   -1.3850   -1.7060    1.0610 C   0  0  0  0  0  0  0  0  0  0  0  0
    0.3650    0.6320   -0.2790 C   0  0  0  0  0  0  0  0  0  0  0  0
    1.4010   -0.3820   -0.1590 C   0  0  0  0  0  0  0  0  0  0  0  0
    1.2450   -1.5470   -0.5730 O   0  0  0  0  0  0  0  0  0  0  0  0
    2.6150   -0.0850    0.4290 O   0  0  0  0  0  0  0  0  0  0  0  0
    3.6440   -1.0800    0.5510 C   0  0  0  0  0  0  0  0  0  0  0  0
    4.8620   -0.4750    1.2270 C   0  0  0  0  0  0  0  0  0  0  0  0
    5.8980   -1.3680    1.3840 O   0  0  0  0  0  0  0  0  0  0  0  0
    6.3930   -1.9040    0.2210 C   0  0  0  0  0  0  0  0  0  0  0  0
    0.6710    1.9290    0.0960 C   0  0  0  0  0  0  0  0  0  0  0  0
   -0.2120    2.9890   -0.0470 C   0  0  0  0  0  0  0  0  0  0  0  0
    0.3580    4.5550    0.4870 Cl  0  0  0  0  0  0  0  0  0  0  0  0
  1  2  1  0
  2  3  2  3
  3  4  1  0
  4  5  2  0
  4 24  1  0
  5  6  1  0
  6  7  1  0
  6 15  2  0
  7  8  2  3
  8  9  1  0
  8 14  1  0
  9 10  2  0
 10 11  1  0
 11 12  2  0
 12 13  1  0
 13 14  1  0
 15 16  1  0
 15 23  1  0
 16 17  2  0
 16 18  1  0
 18 19  1  0
 19 20  1  0
 20 21  1  0
 21 22  1  0
 23 24  2  0
 24 25  1  0
M  END
