
     RDKit          3D

 25 27  0  0  0  0  0  0  0  0999 V2000
   -6.0360    2.8450    1.8230 O   0  0  0  0  0  0  0  0  0  0  0  0
   -5.0950    1.8340    1.7410 C   0  0  0  0  0  0  0  0  0  0  0  0
   -4.9350    1.1060    0.6630 C   0  0  0  0  0  0  0  0  0  0  0  0
   -5.7510    1.3810   -0.4150 O   0  0  0  0  0  0  0  0  0  0  0  0
   -5.6770    0.6860   -1.5920 C   0  0  0  0  0  0  0  0  0  0  0  0
   -4.8040   -0.2710   -1.7000 C   0  0  0  0  0  0  0  0  0  0  0  0
   -3.9040   -0.6050   -0.5700 C   0  0  0  0  0  0  0  0  0  0  0  0
   -3.9170    0.0140    0.5790 C   0  0  0  0  0  0  0  0  0  0  0  0
   -3.1110   -0.1650    1.7280 C   0  0  0  0  0  0  0  0  0  0  0  0
   -1.9820   -1.0430    1.9360 C   0  0  0  0  0  0  0  0  0  0  0  0
   -0.6860   -0.9070    1.2980 C   0  0  0  0  0  0  0  0  0  0  0  0
   -0.5360   -1.0610   -0.1430 C   0  0  2  0  0  0  0  0  0  0  0  0
   -0.9040   -2.3530   -0.5800 O   0  0  0  0  0  0  0  0  0  0  0  0
    0.8810   -0.8050   -0.5750 C   0  0  0  0  0  0  0  0  0  0  0  0
    1.4850   -1.0380   -1.7360 C   0  0  0  0  0  0  0  0  0  0  0  0
    2.7840   -0.7230   -1.8980 C   0  0  0  0  0  0  0  0  0  0  0  0
    3.4350   -0.1630   -0.8270 C   0  0  0  0  0  0  0  0  0  0  0  0
    4.8270    0.2890   -0.6740 C   0  0  0  0  0  0  0  0  0  0  0  0
    5.2650    0.8300    0.5160 C   0  0  0  0  0  0  0  0  0  0  0  0
    6.5660    1.2410    0.6300 C   0  0  0  0  0  0  0  0  0  0  0  0
    7.4850    1.1480   -0.3900 C   0  0  0  0  0  0  0  0  0  0  0  0
    7.0120    0.5990   -1.5760 C   0  0  0  0  0  0  0  0  0  0  0  0
    8.1620    0.4690   -2.8870 Cl  0  0  0  0  0  0  0  0  0  0  0  0
    5.7140    0.1780   -1.7160 C   0  0  0  0  0  0  0  0  0  0  0  0
    2.1540   -0.0970    0.4100 S   0  0  0  0  0  0  0  0  0  0  0  0
  1  2  1  0
  2  3  2  3
  3  4  1  0
  3  8  1  0
  4  5  1  0
  5  6  2  0
  6  7  1  0
  7  8  2  0
  8  9  1  0
  9 10  1  0
 10 11  1  0
 11 12  1  0
 12 13  1  1
 12 14  1  0
 14 15  2  0
 14 25  1  0
 15 16  1  0
 16 17  2  0
 17 18  1  0
 17 25  1  0
 18 19  2  0
 18 24  1  0
 19 20  1  0
 20 21  2  0
 21 22  1  0
 22 23  1  0
 22 24  2  0
M  END
