
     RDKit          3D

 28 30  0  0  0  0  0  0  0  0999 V2000
    6.5720    1.9190    0.5010 C   0  0  0  0  0  0  0  0  0  0  0  0
    5.3470    1.1210    0.1070 C   0  0  1  0  0  0  0  0  0  0  0  0
    5.3160    0.9230   -1.2710 O   0  0  0  0  0  0  0  0  0  0  0  0
    5.4030   -0.2030    0.8450 C   0  0  2  0  0  0  0  0  0  0  0  0
    6.6410   -0.8990    0.4310 N   0  0  0  0  0  0  0  0  0  0  0  0
    4.3030   -1.0990    0.4390 C   0  0  0  0  0  0  0  0  0  0  0  0
    4.5010   -2.1590   -0.2570 O   0  0  0  0  0  0  0  0  0  0  0  0
    2.9580   -0.8240    0.8030 N   0  0  0  0  0  0  0  0  0  0  0  0
    1.6850   -1.8970    0.2840 S   0  0  2  0  0  0  0  0  0  0  0  0
    1.1270   -2.6300    1.4640 O   0  0  0  0  0  0  0  0  0  0  0  0
    2.1930   -2.8090   -0.7670 O   0  0  0  0  0  0  0  0  0  0  0  0
    0.4370   -0.8830   -0.4240 C   0  0  0  0  0  0  0  0  0  0  0  0
    0.7670   -0.0760   -1.4920 C   0  0  0  0  0  0  0  0  0  0  0  0
   -0.1710    0.7350   -2.1160 C   0  0  0  0  0  0  0  0  0  0  0  0
   -1.4650    0.7360   -1.6660 C   0  0  0  0  0  0  0  0  0  0  0  0
   -1.8240   -0.0730   -0.5900 C   0  0  0  0  0  0  0  0  0  0  0  0
   -3.2220   -0.0120   -0.2040 C   0  0  0  0  0  0  0  0  0  0  0  0
   -3.8000   -1.1680    0.3080 C   0  0  0  0  0  0  0  0  0  0  0  0
   -5.1260   -1.1920    0.6780 C   0  0  0  0  0  0  0  0  0  0  0  0
   -5.8890   -0.0520    0.5390 C   0  0  0  0  0  0  0  0  0  0  0  0
   -7.2110   -0.0810    0.9060 C   0  0  0  0  0  0  0  0  0  0  0  0
   -7.7810   -1.2710    1.4040 N   0  0  0  0  0  0  0  0  0  0  0  0
   -7.9530    1.0360    0.7650 N   0  0  0  0  0  0  0  0  0  0  0  0
   -7.3760    2.1590    0.2640 C   0  0  0  0  0  0  0  0  0  0  0  0
   -6.0830    2.2080   -0.1020 N   0  0  0  0  0  0  0  0  0  0  0  0
   -5.3070    1.1140    0.0240 C   0  0  0  0  0  0  0  0  0  0  0  0
   -3.9760    1.1170   -0.3420 C   0  0  0  0  0  0  0  0  0  0  0  0
   -0.8710   -0.8660    0.0120 C   0  0  0  0  0  0  0  0  0  0  0  0
  2  1  1  6
  2  3  1  0
  2  4  1  0
  4  5  1  6
  4  6  1  0
  6  7  2  0
  6  8  1  0
  9  8  1  1
  9 10  2  0
  9 11  2  0
  9 12  1  0
 12 13  2  0
 12 28  1  0
 13 14  1  0
 14 15  2  0
 15 16  1  0
 16 17  1  0
 16 28  2  0
 17 18  2  0
 17 27  1  0
 18 19  1  0
 19 20  2  0
 20 21  1  0
 20 26  1  0
 21 22  1  0
 21 23  2  0
 23 24  1  0
 24 25  2  0
 25 26  1  0
 26 27  2  0
M  CHG  1   5   1
M  END
