
     RDKit          3D

 28 30  0  0  0  0  0  0  0  0999 V2000
   -0.5470    3.7310    1.2970 C   0  0  0  0  0  0  0  0  0  0  0  0
   -0.9280    2.8620    0.1570 C   0  0  0  0  0  0  0  0  0  0  0  0
   -0.2330    1.8370   -0.2870 C   0  0  0  0  0  0  0  0  0  0  0  0
    1.0230    1.3860    0.2660 C   0  0  0  0  0  0  0  0  0  0  0  0
    1.6300    1.6750    1.3180 O   0  0  0  0  0  0  0  0  0  0  0  0
    1.5420    0.4310   -0.6840 N   0  0  0  0  0  0  0  0  0  0  0  0
    2.6530   -0.4130   -0.4710 C   0  0  0  0  0  0  0  0  0  0  0  0
    2.6390   -1.4160    0.4880 C   0  0  0  0  0  0  0  0  0  0  0  0
    3.7370   -2.2190    0.7130 C   0  0  0  0  0  0  0  0  0  0  0  0
    4.8900   -2.0460   -0.0160 C   0  0  0  0  0  0  0  0  0  0  0  0
    6.0540   -2.8440    0.2020 N   0  0  0  0  0  0  0  0  0  0  0  0
    4.9300   -1.0630   -0.9720 C   0  0  0  0  0  0  0  0  0  0  0  0
    6.0880   -0.8760   -1.7160 O   0  0  0  0  0  0  0  0  0  0  0  0
    3.8090   -0.2520   -1.1930 C   0  0  0  0  0  0  0  0  0  0  0  0
    0.7720    0.4950   -1.8350 N   0  0  0  0  0  0  0  0  0  0  0  0
   -0.5490    0.9850   -1.4170 C   0  0  1  0  0  0  0  0  0  0  0  0
   -1.4230   -0.2020   -1.1770 C   0  0  0  0  0  0  0  0  0  0  0  0
   -2.7420    0.1450   -0.5840 C   0  0  0  0  0  0  0  0  0  0  0  0
   -3.6470    0.8670   -1.2830 N   0  0  0  0  0  0  0  0  0  0  0  0
   -4.8020    1.3380   -0.7400 C   0  0  0  0  0  0  0  0  0  0  0  0
   -5.7420    2.1000   -1.4870 N   0  0  0  0  0  0  0  0  0  0  0  0
   -5.1020    1.0880    0.5830 C   0  0  0  0  0  0  0  0  0  0  0  0
   -4.1930    0.3540    1.3050 C   0  0  0  0  0  0  0  0  0  0  0  0
   -3.0180   -0.1310    0.7600 C   0  0  0  0  0  0  0  0  0  0  0  0
   -1.9900   -1.1570    1.7270 S   0  0  1  0  0  0  0  0  0  0  0  0
   -1.9180   -2.8090    1.0610 C   0  0  0  0  0  0  0  0  0  0  0  0
   -0.6640   -0.5860    2.0240 O   0  0  0  0  0  0  0  0  0  0  0  0
   -2.6670   -1.3390    3.0920 O   0  0  0  0  0  0  0  0  0  0  0  0
  1  2  1  0
  2  3  2  3
  3  4  1  0
  3 16  1  0
  4  5  2  0
  4  6  1  0
  6  7  1  0
  6 15  1  0
  7  8  2  0
  7 14  1  0
  8  9  1  0
  9 10  2  0
 10 11  1  0
 10 12  1  0
 12 13  1  0
 12 14  2  0
 15 16  1  0
 16 17  1  1
 17 18  1  0
 18 19  2  0
 18 24  1  0
 19 20  1  0
 20 21  1  0
 20 22  2  0
 22 23  1  0
 23 24  2  0
 24 25  1  0
 25 26  1  6
 25 27  2  0
 25 28  2  0
M  CHG  1  11   1
M  END
