
     RDKit          3D

 29 31  0  0  0  0  0  0  0  0999 V2000
   -6.8470    3.5900    0.6130 C   0  0  0  0  0  0  0  0  0  0  0  0
   -6.2570    2.3240    0.0500 C   0  0  0  0  0  0  0  0  0  0  0  0
   -6.8670    1.6300   -0.9250 N   0  0  0  0  0  0  0  0  0  0  0  0
   -6.3330    0.4830   -1.4300 C   0  0  0  0  0  0  0  0  0  0  0  0
   -6.9470   -0.2660   -2.4540 N   0  0  0  0  0  0  0  0  0  0  0  0
   -5.1330    0.0080   -0.9370 C   0  0  0  0  0  0  0  0  0  0  0  0
   -4.5540   -1.1660   -1.4240 C   0  0  0  0  0  0  0  0  0  0  0  0
   -3.3590   -1.6500   -0.9370 C   0  0  0  0  0  0  0  0  0  0  0  0
   -2.7410   -0.9310    0.0620 C   0  0  0  0  0  0  0  0  0  0  0  0
   -1.4810   -1.4480    0.5860 C   0  0  0  0  0  0  0  0  0  0  0  0
   -1.2440   -2.8070    0.6450 C   0  0  0  0  0  0  0  0  0  0  0  0
   -0.0570   -3.3210    1.1350 C   0  0  0  0  0  0  0  0  0  0  0  0
    0.9290   -2.4800    1.5820 C   0  0  0  0  0  0  0  0  0  0  0  0
    0.7090   -1.1170    1.5300 C   0  0  0  0  0  0  0  0  0  0  0  0
    1.9890   -0.0640    2.1100 S   0  0  1  0  0  0  0  0  0  0  0  0
    1.2950    1.1890    2.6180 O   0  0  0  0  0  0  0  0  0  0  0  0
    2.6980   -0.6700    3.2870 O   0  0  0  0  0  0  0  0  0  0  0  0
    3.1020    0.3230    0.8640 N   0  0  0  0  0  0  0  0  0  0  0  0
    4.3910   -0.2230    0.8550 C   0  0  0  0  0  0  0  0  0  0  0  0
    4.6970   -1.0060    1.7940 O   0  0  0  0  0  0  0  0  0  0  0  0
    5.4350    0.0390   -0.1690 C   0  0  1  0  0  0  0  0  0  0  0  0
    5.0410    0.9470   -1.1980 N   0  0  0  0  0  0  0  0  0  0  0  0
    6.7260    0.4040    0.5260 C   0  0  1  0  0  0  0  0  0  0  0  0
    7.9330    0.2520   -0.3420 C   0  0  0  0  0  0  0  0  0  0  0  0
    6.6380    1.6430    1.1210 O   0  0  0  0  0  0  0  0  0  0  0  0
   -0.4760   -0.6140    1.0400 C   0  0  0  0  0  0  0  0  0  0  0  0
   -3.3080    0.2280    0.5470 C   0  0  0  0  0  0  0  0  0  0  0  0
   -4.5090    0.7170    0.0600 C   0  0  0  0  0  0  0  0  0  0  0  0
   -5.0870    1.8420    0.5150 N   0  0  0  0  0  0  0  0  0  0  0  0
  1  2  1  0
  2  3  2  0
  2 29  1  0
  3  4  1  0
  4  5  1  0
  4  6  2  0
  6  7  1  0
  6 28  1  0
  7  8  2  0
  8  9  1  0
  9 10  1  0
  9 27  2  0
 10 11  2  0
 10 26  1  0
 11 12  1  0
 12 13  2  0
 13 14  1  0
 14 15  1  0
 14 26  2  0
 15 16  2  0
 15 17  2  0
 15 18  1  6
 18 19  1  0
 19 20  2  0
 19 21  1  0
 21 22  1  6
 21 23  1  0
 23 24  1  6
 23 25  1  0
 27 28  1  0
 28 29  2  0
M  CHG  1  22   1
M  END
