
     RDKit          3D

 29 32  0  0  0  0  0  0  0  0999 V2000
    6.1300   -1.4860   -3.2380 C   0  0  0  0  0  0  0  0  0  0  0  0
    5.7120   -2.4550   -2.2260 C   0  0  0  0  0  0  0  0  0  0  0  0
    4.9650   -2.2710   -1.2060 C   0  0  0  0  0  0  0  0  0  0  0  0
    4.2880   -1.1270   -0.6850 C   0  0  0  0  0  0  0  0  0  0  0  0
    4.3220    0.1190   -1.2510 C   0  0  0  0  0  0  0  0  0  0  0  0
    3.6170    1.1720   -0.6500 C   0  0  0  0  0  0  0  0  0  0  0  0
    2.8880    0.9930    0.4980 C   0  0  0  0  0  0  0  0  0  0  0  0
    2.8380   -0.2500    1.0860 C   0  0  0  0  0  0  0  0  0  0  0  0
    3.5270   -1.2660    0.4940 C   0  0  0  0  0  0  0  0  0  0  0  0
    2.0000   -0.1410    2.2740 C   0  0  0  0  0  0  0  0  0  0  0  0
    1.7240   -1.0870    3.0740 O   0  0  0  0  0  0  0  0  0  0  0  0
    1.5300    1.1910    2.4140 N   0  0  0  0  0  0  0  0  0  0  0  0
    0.6720    1.6910    3.4700 C   0  0  0  0  0  0  0  0  0  0  0  0
   -0.7730    1.5580    3.0930 C   0  0  0  0  0  0  0  0  0  0  0  0
   -1.6190    1.9540    3.9180 O   0  0  0  0  0  0  0  0  0  0  0  0
   -1.1910    1.0180    1.8760 N   0  0  0  0  0  0  0  0  0  0  0  0
   -2.5100    0.8340    1.3940 C   0  0  0  0  0  0  0  0  0  0  0  0
   -3.6060    1.1860    2.1390 C   0  0  0  0  0  0  0  0  0  0  0  0
   -4.8730    0.9610    1.5610 C   0  0  0  0  0  0  0  0  0  0  0  0
   -5.0050    0.4260    0.3340 C   0  0  0  0  0  0  0  0  0  0  0  0
   -3.9460    0.0810   -0.3940 N   0  0  0  0  0  0  0  0  0  0  0  0
   -2.7340    0.2900    0.1450 C   0  0  0  0  0  0  0  0  0  0  0  0
   -1.6730   -0.0220   -0.5070 O   0  0  0  0  0  0  0  0  0  0  0  0
   -4.2260   -0.4850   -1.6690 C   0  0  0  0  0  0  0  0  0  0  0  0
   -5.5060    0.0310   -2.2290 C   0  0  1  0  0  0  0  0  0  0  0  0
   -6.1330   -0.9330   -3.1810 C   0  0  0  0  0  0  0  0  0  0  0  0
   -6.4570    0.0670   -0.6370 S   0  0  0  0  0  0  0  0  0  0  0  0
    2.0710    1.9130    1.3190 C   0  0  0  0  0  0  0  0  0  0  0  0
    1.9120    3.1320    1.0470 O   0  0  0  0  0  0  0  0  0  0  0  0
  1  2  1  0
  2  3  2  3
  3  4  1  0
  4  5  2  0
  4  9  1  0
  5  6  1  0
  6  7  2  0
  7  8  1  0
  7 28  1  0
  8  9  2  0
  8 10  1  0
 10 11  2  0
 10 12  1  0
 12 13  1  0
 12 28  1  0
 13 14  1  0
 14 15  2  0
 14 16  1  0
 16 17  1  0
 17 18  2  0
 17 22  1  0
 18 19  1  0
 19 20  2  0
 20 21  1  0
 20 27  1  0
 21 22  1  0
 21 24  1  0
 22 23  2  0
 24 25  1  0
 25 26  1  6
 25 27  1  0
 28 29  2  0
M  END
