
     RDKit          3D

 30 32  0  0  0  0  0  0  0  0999 V2000
    5.0480    1.0270   -2.2730 C   0  0  0  0  0  0  0  0  0  0  0  0
    5.6370    0.0630   -1.3050 C   0  0  0  0  0  0  0  0  0  0  0  0
    4.8080   -0.9790   -0.7020 C   0  0  0  0  0  0  0  0  0  0  0  0
    3.6960   -0.6640    0.2550 C   0  0  2  0  0  0  0  0  0  0  0  0
    3.0930   -2.0020    0.6210 C   0  0  0  0  0  0  0  0  0  0  0  0
    2.5120   -2.8250   -0.4260 C   0  0  0  0  0  0  0  0  0  0  0  0
    1.2930   -3.3580   -0.4580 C   0  0  0  0  0  0  0  0  0  0  0  0
    0.3070   -3.1420    0.6850 C   0  0  0  0  0  0  0  0  0  0  0  0
    0.0200   -1.6660    0.7960 C   0  0  0  0  0  0  0  0  0  0  0  0
   -1.3950   -1.2490    0.5150 C   0  0  2  0  0  0  0  0  0  0  0  0
   -2.1220   -1.4400    1.8220 C   0  0  0  0  0  0  0  0  0  0  0  0
   -3.3470   -2.2680    1.5370 C   0  0  0  0  0  0  0  0  0  0  0  0
   -3.0840   -2.9660    0.2250 C   0  0  0  0  0  0  0  0  0  0  0  0
   -1.9570   -2.2670   -0.4570 C   0  0  0  0  0  0  0  0  0  0  0  0
   -1.4810    0.1590   -0.0640 C   0  0  1  0  0  0  0  0  0  0  0  0
   -1.3750   -0.0620   -1.4360 O   0  0  0  0  0  0  0  0  0  0  0  0
   -2.8880    0.6760    0.0430 C   0  0  0  0  0  0  0  0  0  0  0  0
   -3.2520    1.9950   -0.4650 C   0  0  1  0  0  0  0  0  0  0  0  0
   -3.0620    2.2180   -1.8280 O   0  0  0  0  0  0  0  0  0  0  0  0
   -4.7890    2.0960   -0.2750 C   0  0  2  0  0  0  0  0  0  0  0  0
   -5.6640    1.1160   -0.9500 C   0  0  0  0  0  0  0  0  0  0  0  0
   -5.5940    2.5540   -1.4480 C   0  0  0  0  0  0  0  0  0  0  0  0
   -0.4030    1.1340    0.3720 C   0  0  2  0  0  0  0  0  0  0  0  0
   -0.9470    2.0910    1.4510 C   0  0  0  0  0  0  0  0  0  0  0  0
   -0.1290    2.0110   -0.8610 C   0  0  0  0  0  0  0  0  0  0  0  0
    0.7240    0.6890    0.8380 O   0  0  0  0  0  0  0  0  0  0  0  0
    1.9390    1.0990    0.9400 C   0  0  2  0  0  0  0  0  0  0  0  0
    2.4040    0.7330    2.3410 C   0  0  0  0  0  0  0  0  0  0  0  0
    2.2620    2.5740    0.9020 C   0  0  0  0  0  0  0  0  0  0  0  0
    2.8380    0.4340   -0.1250 C   0  0  0  0  0  0  0  0  0  0  0  0
  1  2  1  0
  2  3  1  0
  4  3  1  6
  4  5  1  0
  4 30  1  0
  5  6  1  0
  6  7  2  0
  7  8  1  0
  8  9  1  0
 10  9  1  1
 10 11  1  0
 10 14  1  0
 10 15  1  0
 11 12  1  0
 12 13  1  0
 13 14  1  0
 15 16  1  6
 15 17  1  0
 15 23  1  0
 17 18  1  0
 18 19  1  6
 18 20  1  0
 20 21  1  6
 20 22  1  0
 21 22  1  0
 23 24  1  1
 23 25  1  0
 23 26  1  0
 26 27  1  0
 27 28  1  1
 27 29  1  0
 27 30  1  0
M  END
