
     RDKit          3D

 29 32  0  0  0  0  0  0  0  0999 V2000
   -7.0810    1.5910   -0.8350 C   0  0  0  0  0  0  0  0  0  0  0  0
   -6.1300    0.4820   -1.2250 C   0  0  1  0  0  0  0  0  0  0  0  0
   -5.8510    0.4430   -2.6890 C   0  0  0  0  0  0  0  0  0  0  0  0
   -4.2180    1.3090   -2.6550 S   0  0  0  0  0  0  0  0  0  0  0  0
   -3.8000    0.8140   -0.9800 C   0  0  0  0  0  0  0  0  0  0  0  0
   -2.4620    0.8530   -0.3860 C   0  0  0  0  0  0  0  0  0  0  0  0
   -1.5190    1.2640   -1.1020 O   0  0  0  0  0  0  0  0  0  0  0  0
   -2.1370    0.3510    1.2750 S   0  0  0  0  0  0  0  0  0  0  0  0
   -0.3760    0.5380    1.6370 C   0  0  2  0  0  0  0  0  0  0  0  0
    0.5580   -0.3460    0.8910 C   0  0  0  0  0  0  0  0  0  0  0  0
    0.2300   -0.9240   -0.1670 O   0  0  0  0  0  0  0  0  0  0  0  0
    1.8290   -0.5330    1.3860 O   0  0  0  0  0  0  0  0  0  0  0  0
    2.8130   -1.3380    0.7870 C   0  0  2  0  0  0  0  0  0  0  0  0
    3.6440   -2.1590    1.7030 C   0  0  0  0  0  0  0  0  0  0  0  0
    4.8680   -1.6710    0.9010 C   0  0  1  0  0  0  0  0  0  0  0  0
    5.2120   -2.5740   -0.1750 N   0  0  0  0  0  0  0  0  0  0  0  0
    4.0750   -0.4530    0.5340 C   0  0  2  0  0  0  0  0  0  0  0  0
    4.1560    0.5410    1.4850 O   0  0  0  0  0  0  0  0  0  0  0  0
    4.0480   -0.0070   -0.8830 C   0  0  0  0  0  0  0  0  0  0  0  0
    5.1040    0.8850   -1.3930 C   0  0  0  0  0  0  0  0  0  0  0  0
    6.4770    0.3130   -1.3040 C   0  0  0  0  0  0  0  0  0  0  0  0
    6.8620    0.0790   -0.0010 O   0  0  0  0  0  0  0  0  0  0  0  0
    0.0150    0.8880    3.0590 C   0  0  0  0  0  0  0  0  0  0  0  0
    0.1310    1.9200    1.9930 C   0  0  0  0  0  0  0  0  0  0  0  0
   -4.9290    0.4260   -0.4350 C   0  0  0  0  0  0  0  0  0  0  0  0
   -5.3350   -0.0940    0.8560 N   0  0  0  0  0  0  0  0  0  0  0  0
   -6.5360   -0.8490    0.6310 C   0  0  0  0  0  0  0  0  0  0  0  0
   -7.2670   -1.4470    1.4590 O   0  0  0  0  0  0  0  0  0  0  0  0
   -6.8270   -0.8270   -0.8370 C   0  0  0  0  0  0  0  0  0  0  0  0
  2  1  1  6
  2  3  1  0
  2 25  1  0
  2 29  1  0
  3  4  1  0
  4  5  1  0
  5  6  1  0
  5 25  2  0
  6  7  2  0
  6  8  1  0
  9  8  1  1
  9 10  1  0
  9 23  1  0
  9 24  1  0
 10 11  2  0
 10 12  1  0
 13 12  1  1
 13 14  1  0
 13 17  1  0
 14 15  1  0
 15 16  1  6
 15 17  1  0
 17 18  1  1
 17 19  1  0
 19 20  1  0
 20 21  1  0
 21 22  1  0
 23 24  1  0
 25 26  1  0
 26 27  1  0
 27 28  2  0
 27 29  1  0
M  END
