
     RDKit          3D

 30 32  0  0  0  0  0  0  0  0999 V2000
   -4.1530    3.1420    1.1230 C   0  0  0  0  0  0  0  0  0  0  0  0
   -3.4360    3.9760    0.4250 C   0  0  0  0  0  0  0  0  0  0  0  0
   -4.0190    5.2670    0.0510 C   0  0  0  0  0  0  0  0  0  0  0  0
   -5.1780    5.6270    0.3630 N   0  0  0  0  0  0  0  0  0  0  0  0
   -2.0590    3.7250   -0.0300 C   0  0  0  0  0  0  0  0  0  0  0  0
   -1.5070    2.4610    0.3440 N   0  0  0  0  0  0  0  0  0  0  0  0
   -0.1570    2.1690   -0.0800 C   0  0  0  0  0  0  0  0  0  0  0  0
    0.5200    3.1110   -0.8130 C   0  0  0  0  0  0  0  0  0  0  0  0
    1.8130    2.9050   -1.2540 C   0  0  0  0  0  0  0  0  0  0  0  0
    2.4440    1.7000   -0.9420 C   0  0  0  0  0  0  0  0  0  0  0  0
    1.7740    0.7580   -0.2110 C   0  0  0  0  0  0  0  0  0  0  0  0
    2.3390   -0.4210    0.1160 O   0  0  0  0  0  0  0  0  0  0  0  0
    3.5080   -1.0770   -0.0560 C   0  0  1  0  0  0  0  0  0  0  0  0
    3.7770   -1.4110   -1.4910 C   0  0  0  0  0  0  0  0  0  0  0  0
    4.9280   -2.3910   -1.6350 C   0  0  0  0  0  0  0  0  0  0  0  0
    6.3490   -1.9570   -0.6610 S   0  0  0  0  0  0  0  0  0  0  0  0
    7.2350   -3.1750   -0.4780 O   0  0  0  0  0  0  0  0  0  0  0  0
    5.7910   -1.2980    0.9240 C   0  0  0  0  0  0  0  0  0  0  0  0
    4.6620   -0.3180    0.5760 C   0  0  0  0  0  0  0  0  0  0  0  0
    0.4540    0.9820    0.2320 C   0  0  0  0  0  0  0  0  0  0  0  0
   -0.2110   -0.0190    0.9890 N   0  0  0  0  0  0  0  0  0  0  0  0
   -0.9950   -1.0440    0.3540 C   0  0  0  0  0  0  0  0  0  0  0  0
   -1.0800   -1.0370   -0.8710 O   0  0  0  0  0  0  0  0  0  0  0  0
   -1.6370   -2.0140    1.1260 N   0  0  0  0  0  0  0  0  0  0  0  0
   -2.4220   -3.0640    0.6400 C   0  0  0  0  0  0  0  0  0  0  0  0
   -2.5470   -3.4200   -0.6620 C   0  0  0  0  0  0  0  0  0  0  0  0
   -3.3670   -4.4800   -1.0760 C   0  0  0  0  0  0  0  0  0  0  0  0
   -4.0840   -5.2070   -0.1710 C   0  0  0  0  0  0  0  0  0  0  0  0
   -3.9800   -4.8680    1.1680 C   0  0  0  0  0  0  0  0  0  0  0  0
   -3.1700   -3.8270    1.5500 C   0  0  0  0  0  0  0  0  0  0  0  0
  1  2  2  0
  2  3  1  0
  2  5  1  0
  3  4  2  0
  5  6  1  0
  6  7  1  0
  7  8  2  0
  7 20  1  0
  8  9  1  0
  9 10  2  0
 10 11  1  0
 11 12  1  0
 11 20  2  0
 13 12  1  6
 13 14  1  0
 13 19  1  0
 14 15  1  0
 16 15  1  6
 16 17  2  0
 16 18  1  0
 18 19  1  0
 20 21  1  0
 21 22  1  0
 22 23  2  0
 22 24  1  0
 24 25  1  0
 25 26  2  0
 25 30  1  0
 26 27  1  0
 27 28  2  0
 28 29  1  0
 29 30  2  0
M  CHG  1   4   1
M  END
