
     RDKit          3D

 30 32  0  0  0  0  0  0  0  0999 V2000
   -0.6290    3.0900    3.0960 C   0  0  0  0  0  0  0  0  0  0  0  0
    0.1290    2.1980    2.2100 N   0  0  0  0  0  0  0  0  0  0  0  0
   -0.4000    1.4870    1.2240 C   0  0  0  0  0  0  0  0  0  0  0  0
   -1.8180    1.7840    1.2230 O   0  0  0  0  0  0  0  0  0  0  0  0
   -0.2920    0.5960    0.1740 C   0  0  0  0  0  0  0  0  0  0  0  0
    1.4500    0.7680    0.2300 C   0  0  0  0  0  0  0  0  0  0  0  0
    2.2500    0.1680   -0.5450 C   0  0  0  0  0  0  0  0  0  0  0  0
    3.7410    0.1340   -0.1280 C   0  0  0  0  0  0  0  0  0  0  0  0
    4.2870    1.0830    0.3130 O   0  0  0  0  0  0  0  0  0  0  0  0
    4.4160   -1.0830   -0.2800 N   0  0  0  0  0  0  0  0  0  0  0  0
    5.6220   -1.6630   -0.0300 C   0  0  0  0  0  0  0  0  0  0  0  0
    6.9370   -1.1880   -0.4610 C   0  0  0  0  0  0  0  0  0  0  0  0
    8.0750   -2.0440    0.0960 C   0  0  0  0  0  0  0  0  0  0  0  0
    7.9010   -3.4450   -0.0670 N   0  0  0  0  0  0  0  0  0  0  0  0
    1.9400   -0.7110   -1.5820 C   0  0  0  0  0  0  0  0  0  0  0  0
    0.5400   -0.8940   -1.6630 C   0  0  0  0  0  0  0  0  0  0  0  0
   -0.1930   -0.2160   -0.7850 C   0  0  0  0  0  0  0  0  0  0  0  0
   -1.6360   -0.6130   -0.9970 O   0  0  0  0  0  0  0  0  0  0  0  0
   -2.6800    0.1770   -1.1450 C   0  0  0  0  0  0  0  0  0  0  0  0
   -2.6950    1.3090   -1.9480 C   0  0  0  0  0  0  0  0  0  0  0  0
   -3.8690    2.0090   -1.9750 C   0  0  0  0  0  0  0  0  0  0  0  0
   -4.9830    1.6940   -1.2880 C   0  0  0  0  0  0  0  0  0  0  0  0
   -5.0180    0.5610   -0.4650 C   0  0  0  0  0  0  0  0  0  0  0  0
   -3.8410   -0.1680   -0.4280 C   0  0  0  0  0  0  0  0  0  0  0  0
   -6.0790    0.2350    0.4290 C   0  0  0  0  0  0  0  0  0  0  0  0
   -6.2190   -1.3080    1.2800 S   0  0  0  0  0  0  0  0  0  0  0  0
   -5.6080   -2.7140    0.3630 C   0  0  0  0  0  0  0  0  0  0  0  0
   -7.1090    1.0890    0.4990 N   0  0  0  0  0  0  0  0  0  0  0  0
   -7.1830    2.2840   -0.2570 C   0  0  0  0  0  0  0  0  0  0  0  0
   -6.2460    2.4310   -1.4050 C   0  0  0  0  0  0  0  0  0  0  0  0
  1  2  1  0
  2  3  1  0
  3  4  2  0
  3  5  1  0
  5  6  2  0
  5 17  1  0
  6  7  1  0
  7  8  1  0
  7 15  2  0
  8  9  2  0
  8 10  1  0
 10 11  1  0
 11 12  1  0
 12 13  1  0
 13 14  1  0
 15 16  1  0
 16 17  2  0
 17 18  1  0
 18 19  1  0
 19 20  2  0
 19 24  1  0
 20 21  1  0
 21 22  2  0
 22 23  1  0
 22 30  1  0
 23 24  2  0
 23 25  1  0
 25 26  1  0
 25 28  2  0
 26 27  1  0
 28 29  1  0
 29 30  1  0
M  CHG  1  14   1
M  END
