
     RDKit          3D

 13 13  0  0  0  0  0  0  0  0999 V2000
    1.5360    1.8240    1.4690 N   0  0  0  0  0  0  0  0  0  0  0  0
    1.4940    0.6500    0.7060 C   0  0  0  0  0  0  0  0  0  0  0  0
    2.5280   -0.1230    0.4940 N   0  0  0  0  0  0  0  0  0  0  0  0
    2.2330   -1.2910   -0.3340 C   0  0  2  0  0  0  0  0  0  0  0  0
    3.4440   -1.9330   -0.5680 O   0  0  0  0  0  0  0  0  0  0  0  0
    1.7280   -0.8330   -1.5330 O   0  0  0  0  0  0  0  0  0  0  0  0
    0.6310   -0.0180   -1.4250 C   0  0  0  0  0  0  0  0  0  0  0  0
    0.2340    0.1450    0.0400 C   0  0  2  0  0  0  0  0  0  0  0  0
   -0.8830    1.1200    0.2120 C   0  0  0  0  0  0  0  0  0  0  0  0
   -2.0190    0.6530   -0.3940 O   0  0  0  0  0  0  0  0  0  0  0  0
   -2.5500   -0.5110    0.0720 C   0  0  1  0  0  0  0  0  0  0  0  0
   -3.8580   -0.3300    0.5280 O   0  0  0  0  0  0  0  0  0  0  0  0
   -2.5110   -1.4790   -0.9410 O   0  0  0  0  0  0  0  0  0  0  0  0
  1  2  1  0
  2  3  2  0
  2  8  1  0
  3  4  1  0
  4  5  1  6
  4  6  1  0
  6  7  1  0
  7  8  1  0
  8  9  1  6
  9 10  1  0
 10 11  1  0
 11 12  1  6
 11 13  1  0
M  END
