
     RDKit          3D

 13 13  0  0  0  0  0  0  0  0999 V2000
    2.3200   -0.8890    0.4640 N   0  0  0  0  0  0  0  0  0  0  0  0
    1.8980    0.3330   -0.1410 C   0  0  1  0  0  0  0  0  0  0  0  0
    0.4960    0.7490    0.2390 C   0  0  0  0  0  0  0  0  0  0  0  0
   -0.5300   -0.2760   -0.1580 C   0  0  1  0  0  0  0  0  0  0  0  0
   -0.4890   -0.4560   -1.5350 O   0  0  0  0  0  0  0  0  0  0  0  0
   -0.4390   -1.5510    0.6180 C   0  0  0  0  0  0  0  0  0  0  0  0
   -1.7890   -2.0260    0.6580 O   0  0  0  0  0  0  0  0  0  0  0  0
   -2.6180   -0.9200    0.7420 C   0  0  0  0  0  0  0  0  0  0  0  0
   -3.7910   -0.9400    1.1910 O   0  0  0  0  0  0  0  0  0  0  0  0
   -1.8940    0.2530    0.2230 C   0  0  2  0  0  0  0  0  0  0  0  0
   -2.6100    0.7440   -0.9360 N   0  0  0  0  0  0  0  0  0  0  0  0
    2.7640    1.3480    0.2570 O   0  0  0  0  0  0  0  0  0  0  0  0
    3.3560    1.8920   -0.7800 O   0  0  0  0  0  0  0  0  0  0  0  0
  2  1  1  1
  2  3  1  0
  2 12  1  0
  3  4  1  0
  4  5  1  6
  4  6  1  0
  4 10  1  0
  6  7  1  0
  7  8  1  0
  8  9  2  0
  8 10  1  0
 10 11  1  6
 12 13  1  0
M  END
