
     RDKit          3D

 26 28  0  0  0  0  0  0  0  0999 V2000
   -5.4280   -0.4530   -0.9350 C   0  0  0  0  0  0  0  0  0  0  0  0
   -5.7970   -0.4570    0.5170 C   0  0  1  0  0  0  0  0  0  0  0  0
   -6.8300   -1.3370    0.7390 O   0  0  0  0  0  0  0  0  0  0  0  0
   -4.5650   -0.7960    1.3620 C   0  0  2  0  0  0  0  0  0  0  0  0
   -4.9660   -0.6960    2.7710 N   0  0  0  0  0  0  0  0  0  0  0  0
   -3.5690    0.2460    1.0910 C   0  0  0  0  0  0  0  0  0  0  0  0
   -3.5740    1.3330    1.7270 O   0  0  0  0  0  0  0  0  0  0  0  0
   -2.5350    0.1000    0.0920 N   0  0  0  0  0  0  0  0  0  0  0  0
   -1.4210    1.3720   -0.1960 S   0  0  2  0  0  0  0  0  0  0  0  0
   -0.8980    1.8860    1.1280 O   0  0  0  0  0  0  0  0  0  0  0  0
   -2.0850    2.5380   -0.8960 O   0  0  0  0  0  0  0  0  0  0  0  0
   -0.0770    0.7780   -1.1300 C   0  0  0  0  0  0  0  0  0  0  0  0
   -0.2520    0.4710   -2.4870 C   0  0  0  0  0  0  0  0  0  0  0  0
    0.8590    0.0860   -3.1950 C   0  0  0  0  0  0  0  0  0  0  0  0
    2.1030   -0.0000   -2.6130 C   0  0  0  0  0  0  0  0  0  0  0  0
    2.2950    0.3000   -1.2720 C   0  0  0  0  0  0  0  0  0  0  0  0
    3.6270    0.2530   -0.6510 C   0  0  0  0  0  0  0  0  0  0  0  0
    4.7100    0.5970   -1.4300 C   0  0  0  0  0  0  0  0  0  0  0  0
    5.9960    0.5770   -0.9300 C   0  0  0  0  0  0  0  0  0  0  0  0
    6.2410    0.2090    0.3700 C   0  0  0  0  0  0  0  0  0  0  0  0
    7.3760    0.0960    1.1230 N   0  0  0  0  0  0  0  0  0  0  0  0
    7.0200   -0.3080    2.3410 N   0  0  0  0  0  0  0  0  0  0  0  0
    5.6930   -0.4560    2.3830 C   0  0  0  0  0  0  0  0  0  0  0  0
    5.1520   -0.1350    1.1460 C   0  0  0  0  0  0  0  0  0  0  0  0
    3.8430   -0.1210    0.6600 C   0  0  0  0  0  0  0  0  0  0  0  0
    1.1740    0.6860   -0.5530 C   0  0  0  0  0  0  0  0  0  0  0  0
  2  1  1  6
  2  3  1  0
  2  4  1  0
  4  5  1  1
  4  6  1  0
  6  7  2  0
  6  8  1  0
  9  8  1  1
  9 10  2  0
  9 11  2  0
  9 12  1  0
 12 13  2  0
 12 26  1  0
 13 14  1  0
 14 15  2  0
 15 16  1  0
 16 17  1  0
 16 26  2  0
 17 18  1  0
 17 25  2  0
 18 19  2  0
 19 20  1  0
 20 21  2  0
 20 24  1  0
 21 22  1  0
 22 23  1  0
 23 24  2  0
 24 25  1  0
M  END
