
     RDKit          3D

 13 13  0  0  0  0  0  0  0  0999 V2000
    0.0070    3.0000   -0.1930 N   0  0  0  0  0  0  0  0  0  0  0  0
   -0.8290    2.0220    0.3980 C   0  0  0  0  0  0  0  0  0  0  0  0
   -1.4720    2.3400    1.4260 O   0  0  0  0  0  0  0  0  0  0  0  0
   -0.9180    0.6960   -0.1910 C   0  0  2  0  0  0  0  0  0  0  0  0
   -1.7860   -0.1600    0.4890 O   0  0  0  0  0  0  0  0  0  0  0  0
   -2.0030   -1.2930   -0.2350 C   0  0  2  0  0  0  0  0  0  0  0  0
   -2.4020   -2.3610    0.6710 N   0  0  0  0  0  0  0  0  0  0  0  0
   -1.0070   -1.7570   -1.0320 O   0  0  0  0  0  0  0  0  0  0  0  0
    0.2290   -1.3550   -0.7400 O   0  0  0  0  0  0  0  0  0  0  0  0
    0.3600   -0.0510   -0.2800 C   0  0  0  0  0  0  0  0  0  0  0  0
    1.5460    0.4010    0.0270 C   0  0  0  0  0  0  0  0  0  0  0  0
    2.7230   -0.4720   -0.1170 C   0  0  0  0  0  0  0  0  0  0  0  0
    3.3890   -0.6660    1.0950 O   0  0  0  0  0  0  0  0  0  0  0  0
  1  2  1  0
  2  3  2  0
  4  2  1  1
  4  5  1  0
  4 10  1  0
  5  6  1  0
  6  7  1  1
  6  8  1  0
  8  9  1  0
  9 10  1  0
 10 11  2  3
 11 12  1  0
 12 13  1  0
M  END
