
     RDKit          3D

 22 24  0  0  0  0  0  0  0  0999 V2000
    5.3670    2.0740    0.0860 N   0  0  0  0  0  0  0  0  0  0  0  0
    4.5000    0.9680   -0.1160 C   0  0  0  0  0  0  0  0  0  0  0  0
    5.0860   -0.2540   -0.3640 C   0  0  0  0  0  0  0  0  0  0  0  0
    4.2790   -1.3480   -0.5650 C   0  0  0  0  0  0  0  0  0  0  0  0
    4.8120   -2.5800   -0.8150 F   0  0  0  0  0  0  0  0  0  0  0  0
    2.8770   -1.2370   -0.5210 C   0  0  0  0  0  0  0  0  0  0  0  0
    2.3030   -0.0430   -0.2770 C   0  0  0  0  0  0  0  0  0  0  0  0
    0.8910    0.1460   -0.1830 N   0  0  0  0  0  0  0  0  0  0  0  0
   -0.0580   -0.7820    0.1980 C   0  0  0  0  0  0  0  0  0  0  0  0
    0.5760   -1.8910    0.5500 O   0  0  0  0  0  0  0  0  0  0  0  0
   -1.4610   -0.9290    0.3100 C   0  0  0  0  0  0  0  0  0  0  0  0
   -2.3770   -0.0760   -0.0770 C   0  0  0  0  0  0  0  0  0  0  0  0
   -1.7490    1.0710   -0.7030 C   0  0  0  0  0  0  0  0  0  0  0  0
   -2.4940    2.1040   -1.0450 C   0  0  0  0  0  0  0  0  0  0  0  0
   -3.9290    2.1130   -0.8140 C   0  0  0  0  0  0  0  0  0  0  0  0
   -4.5540    1.0950   -0.2530 C   0  0  0  0  0  0  0  0  0  0  0  0
   -3.8080   -0.0360    0.1370 N   0  0  0  0  0  0  0  0  0  0  0  0
   -4.6710   -0.9930    0.7260 C   0  0  0  0  0  0  0  0  0  0  0  0
   -4.3110   -2.1120    1.2270 N   0  0  0  0  0  0  0  0  0  0  0  0
   -3.0400   -2.6750    1.3290 C   0  0  0  0  0  0  0  0  0  0  0  0
   -1.8740   -2.2200    0.9670 C   0  0  0  0  0  0  0  0  0  0  0  0
    3.1280    1.0740   -0.0730 C   0  0  0  0  0  0  0  0  0  0  0  0
  1  2  1  0
  2  3  2  0
  2 22  1  0
  3  4  1  0
  4  5  1  0
  4  6  2  0
  6  7  1  0
  7  8  1  0
  7 22  2  0
  8  9  1  0
  9 10  2  0
  9 11  1  0
 11 12  2  0
 11 21  1  0
 12 13  1  0
 12 17  1  0
 13 14  2  0
 14 15  1  0
 15 16  2  0
 16 17  1  0
 17 18  1  0
 18 19  2  0
 19 20  1  0
 20 21  2  0
M  END
