
     RDKit          3D

 13 14  0  0  0  0  0  0  0  0999 V2000
    2.5440    1.0760   -0.2460 N   0  0  0  0  0  0  0  0  0  0  0  0
    2.0490    0.0080    0.5160 C   0  0  0  0  0  0  0  0  0  0  0  0
    2.7350   -1.0520    0.5680 O   0  0  0  0  0  0  0  0  0  0  0  0
    0.7770    0.0180    1.2730 C   0  0  1  0  0  0  0  0  0  0  0  0
    0.0840    1.1900    1.1770 O   0  0  0  0  0  0  0  0  0  0  0  0
   -1.0260    1.0230    0.3930 C   0  0  1  0  0  0  0  0  0  0  0  0
   -0.7870    1.4950   -1.0030 C   0  0  0  0  0  0  0  0  0  0  0  0
   -0.2380    0.2660   -1.2990 O   0  0  0  0  0  0  0  0  0  0  0  0
   -0.9400   -0.3220   -0.2660 C   0  0  2  0  0  0  0  0  0  0  0  0
   -2.1440   -0.9250   -0.6030 O   0  0  0  0  0  0  0  0  0  0  0  0
   -2.8380   -0.1900   -1.4430 O   0  0  0  0  0  0  0  0  0  0  0  0
   -0.1140   -1.0840    0.7380 C   0  0  1  0  0  0  0  0  0  0  0  0
    0.6410   -2.1560    0.1770 N   0  0  0  0  0  0  0  0  0  0  0  0
  1  2  1  0
  2  3  2  0
  4  2  1  6
  4  5  1  0
  4 12  1  0
  5  6  1  0
  6  7  1  6
  6  9  1  0
  7  8  1  0
  8  9  1  0
  9 10  1  6
  9 12  1  0
 10 11  1  0
 12 13  1  6
M  END
