
     RDKit          3D

 13 13  0  0  0  0  0  0  0  0999 V2000
   -0.8250   -2.1860   -0.4750 N   0  0  0  0  0  0  0  0  0  0  0  0
   -0.2810   -0.8540   -0.5480 C   0  0  2  0  0  0  0  0  0  0  0  0
    0.9600   -0.7760    0.0880 O   0  0  0  0  0  0  0  0  0  0  0  0
    1.5420    0.4300   -0.3240 C   0  0  2  0  0  0  0  0  0  0  0  0
    3.0080    0.4300    0.0500 C   0  0  0  0  0  0  0  0  0  0  0  0
    3.1540    0.2620    1.4220 O   0  0  0  0  0  0  0  0  0  0  0  0
    0.8150    1.4910    0.3280 N   0  0  0  0  0  0  0  0  0  0  0  0
   -0.5700    1.3100    0.5960 C   0  0  0  0  0  0  0  0  0  0  0  0
   -1.1650    2.1600    1.3030 O   0  0  0  0  0  0  0  0  0  0  0  0
   -1.2760    0.1370    0.0430 C   0  0  1  0  0  0  0  0  0  0  0  0
   -2.1610    0.5030   -0.9500 O   0  0  0  0  0  0  0  0  0  0  0  0
   -2.0520   -0.6150    1.1050 C   0  0  0  0  0  0  0  0  0  0  0  0
   -3.0580    0.1420    1.6670 O   0  0  0  0  0  0  0  0  0  0  0  0
  2  1  1  1
  2  3  1  0
  2 10  1  0
  3  4  1  0
  4  5  1  1
  4  7  1  0
  5  6  1  0
  7  8  1  0
  8  9  2  0
  8 10  1  0
 10 11  1  6
 10 12  1  0
 12 13  1  0
M  END
