
     RDKit          3D

 31 36  0  0  0  0  0  0  0  0999 V2000
   10.3860    0.2590   -0.8220 C   0  0  0  0  0  0  0  0  0  0  0  0
    8.8870    0.1510   -0.7520 C   0  0  0  0  0  0  0  0  0  0  0  0
    8.2390   -0.7750   -1.5340 C   0  0  0  0  0  0  0  0  0  0  0  0
    6.8630   -0.8900   -1.4840 C   0  0  0  0  0  0  0  0  0  0  0  0
    6.1020   -0.0940   -0.6640 C   0  0  0  0  0  0  0  0  0  0  0  0
    4.6690   -0.2190   -0.6160 C   0  0  0  0  0  0  0  0  0  0  0  0
    3.8990   -1.0670   -1.3130 N   0  0  0  0  0  0  0  0  0  0  0  0
    2.6390   -0.8850   -1.0030 O   0  0  0  0  0  0  0  0  0  0  0  0
    2.5840    0.0720   -0.1120 C   0  0  0  0  0  0  0  0  0  0  0  0
    1.3640    0.5820    0.4970 C   0  0  0  0  0  0  0  0  0  0  0  0
    1.4090    1.6010    1.4320 C   0  0  0  0  0  0  0  0  0  0  0  0
    0.2590    2.0770    2.0020 C   0  0  0  0  0  0  0  0  0  0  0  0
   -0.9150    1.5510    1.6490 N   0  0  0  0  0  0  0  0  0  0  0  0
   -0.9820    0.5620    0.7430 C   0  0  0  0  0  0  0  0  0  0  0  0
   -2.2810   -0.0090    0.3620 C   0  0  0  0  0  0  0  0  0  0  0  0
   -2.3560   -1.0140   -0.5570 C   0  0  0  0  0  0  0  0  0  0  0  0
   -3.5940   -1.5200   -0.8840 C   0  0  0  0  0  0  0  0  0  0  0  0
   -4.7300   -1.0420   -0.3140 C   0  0  0  0  0  0  0  0  0  0  0  0
   -4.6580   -0.0190    0.6220 C   0  0  0  0  0  0  0  0  0  0  0  0
   -3.4280    0.4830    0.9470 C   0  0  0  0  0  0  0  0  0  0  0  0
   -5.9340    0.4490    1.1990 C   0  0  0  0  0  0  0  0  0  0  0  0
   -6.9950    0.5740    0.2600 N   0  0  0  0  0  0  0  0  0  0  0  0
   -8.3270    0.2980    0.7610 C   0  0  0  0  0  0  0  0  0  0  0  0
   -8.4420   -0.8160   -0.2340 C   0  0  0  0  0  0  0  0  0  0  0  0
   -7.0680   -0.4240   -0.7410 C   0  0  2  0  0  0  0  0  0  0  0  0
   -6.0980   -1.5420   -0.6220 C   0  0  0  0  0  0  0  0  0  0  0  0
    0.1500    0.1020    0.1900 N   0  0  0  0  0  0  0  0  0  0  0  0
    3.8180    0.4970    0.1410 N   0  0  0  0  0  0  0  0  0  0  0  0
    6.7580    0.8340    0.1190 C   0  0  0  0  0  0  0  0  0  0  0  0
    6.0390    1.6460    0.9500 F   0  0  0  0  0  0  0  0  0  0  0  0
    8.1380    0.9570    0.0770 C   0  0  0  0  0  0  0  0  0  0  0  0
  1  2  1  0
  2  3  2  0
  2 31  1  0
  3  4  1  0
  4  5  2  0
  5  6  1  0
  5 29  1  0
  6  7  2  0
  6 28  1  0
  7  8  1  0
  8  9  1  0
  9 10  1  0
  9 28  2  0
 10 11  2  0
 10 27  1  0
 11 12  1  0
 12 13  2  0
 13 14  1  0
 14 15  1  0
 14 27  2  0
 15 16  2  0
 15 20  1  0
 16 17  1  0
 17 18  2  0
 18 19  1  0
 18 26  1  0
 19 20  2  0
 19 21  1  0
 21 22  1  0
 22 23  1  0
 22 25  1  0
 23 24  1  0
 25 24  1  1
 25 26  1  0
 29 30  1  0
 29 31  2  0
M  END
