
     RDKit          3D

 31 34  0  0  0  0  0  0  0  0999 V2000
    1.1380    6.5530   -1.4390 C   0  0  0  0  0  0  0  0  0  0  0  0
    1.8270    5.3790   -1.0680 O   0  0  0  0  0  0  0  0  0  0  0  0
    1.1420    4.1710   -1.1490 C   0  0  0  0  0  0  0  0  0  0  0  0
   -0.1510    4.0940   -1.5700 C   0  0  0  0  0  0  0  0  0  0  0  0
   -0.7580    2.8620   -1.6220 C   0  0  0  0  0  0  0  0  0  0  0  0
   -0.0830    1.7210   -1.2600 C   0  0  0  0  0  0  0  0  0  0  0  0
   -0.7720    0.5140   -1.3420 O   0  0  0  0  0  0  0  0  0  0  0  0
   -1.4770    0.0830   -0.2390 C   0  0  0  0  0  0  0  0  0  0  0  0
   -1.4570    0.8060    0.7790 O   0  0  0  0  0  0  0  0  0  0  0  0
   -2.2430   -1.2030   -0.2460 C   0  0  0  0  0  0  0  0  0  0  0  0
   -2.2000   -1.9650   -1.4630 C   0  0  0  0  0  0  0  0  0  0  0  0
   -1.3570   -1.6490   -3.0730 Br  0  0  0  0  0  0  0  0  0  0  0  0
   -3.2410   -3.4180   -1.0230 S   0  0  0  0  0  0  0  0  0  0  0  0
   -3.6100   -2.9190    0.6090 C   0  0  0  0  0  0  0  0  0  0  0  0
   -2.9370   -1.6810    0.7600 C   0  0  0  0  0  0  0  0  0  0  0  0
   -3.2030   -1.1480    2.1710 C   0  0  0  0  0  0  0  0  0  0  0  0
   -4.6870   -1.2770    2.4330 C   0  0  0  0  0  0  0  0  0  0  0  0
   -5.1630   -2.5550    2.4060 O   0  0  0  0  0  0  0  0  0  0  0  0
   -4.3840   -3.4580    1.7350 C   0  0  0  0  0  0  0  0  0  0  0  0
    1.2480    1.7750   -0.8240 C   0  0  0  0  0  0  0  0  0  0  0  0
    1.8440    0.5560   -0.4780 N   0  0  0  0  0  0  0  0  0  0  0  0
    3.1630    0.3350   -0.0130 C   0  0  0  0  0  0  0  0  0  0  0  0
    3.9300    1.3020    0.1250 O   0  0  0  0  0  0  0  0  0  0  0  0
    3.6520   -1.0550    0.3170 C   0  0  1  0  0  0  0  0  0  0  0  0
    2.8330   -1.6580    1.3600 C   0  0  0  0  0  0  0  0  0  0  0  0
    2.3450   -2.8710    1.2680 C   0  0  0  0  0  0  0  0  0  0  0  0
    1.3610   -3.5630    2.5490 Cl  0  0  0  0  0  0  0  0  0  0  0  0
    2.6110   -3.6710    0.0810 C   0  0  0  0  0  0  0  0  0  0  0  0
    3.3340   -3.1880   -0.8910 C   0  0  0  0  0  0  0  0  0  0  0  0
    3.9100   -1.8580   -0.8680 C   0  0  0  0  0  0  0  0  0  0  0  0
    1.8290    2.9960   -0.7790 C   0  0  0  0  0  0  0  0  0  0  0  0
  1  2  1  0
  2  3  1  0
  3  4  2  0
  3 31  1  0
  4  5  1  0
  5  6  2  0
  6  7  1  0
  6 20  1  0
  7  8  1  0
  8  9  2  0
  8 10  1  0
 10 11  2  0
 10 15  1  0
 11 12  1  0
 11 13  1  0
 13 14  1  0
 14 15  2  0
 14 19  1  0
 15 16  1  0
 16 17  1  0
 17 18  1  0
 18 19  1  0
 20 21  1  0
 20 31  2  0
 21 22  1  0
 22 23  2  0
 24 22  1  6
 24 25  1  0
 24 30  1  0
 25 26  2  0
 26 27  1  0
 26 28  1  0
 28 29  2  0
 29 30  1  0
M  END
