
     RDKit          3D

 31 35  0  0  0  0  0  0  0  0999 V2000
   -7.1580   -0.6440   -3.0190 C   0  0  0  0  0  0  0  0  0  0  0  0
   -5.9910   -0.2090   -2.3490 O   0  0  0  0  0  0  0  0  0  0  0  0
   -5.9830   -0.1210   -0.9670 C   0  0  0  0  0  0  0  0  0  0  0  0
   -7.1130   -0.4590   -0.2570 C   0  0  0  0  0  0  0  0  0  0  0  0
   -7.1560   -0.3880    1.1320 C   0  0  0  0  0  0  0  0  0  0  0  0
   -6.0180    0.0360    1.7870 C   0  0  0  0  0  0  0  0  0  0  0  0
   -4.8630    0.3850    1.1180 C   0  0  0  0  0  0  0  0  0  0  0  0
   -4.8770    0.2950   -0.2610 C   0  0  0  0  0  0  0  0  0  0  0  0
   -3.7170    0.6440   -0.9360 O   0  0  0  0  0  0  0  0  0  0  0  0
   -2.5690    1.1620   -0.3030 C   0  0  2  0  0  0  0  0  0  0  0  0
   -1.5250    0.1020   -0.0090 C   0  0  0  0  0  0  0  0  0  0  0  0
   -0.3950    0.8020    0.6470 C   0  0  0  0  0  0  0  0  0  0  0  0
    0.2710    1.6130   -0.0370 O   0  0  0  0  0  0  0  0  0  0  0  0
   -0.0300    0.6120    1.9730 O   0  0  0  0  0  0  0  0  0  0  0  0
    1.0420    1.2800    2.5780 C   0  0  0  0  0  0  0  0  0  0  0  0
    2.2610    0.8960    1.8210 C   0  0  0  0  0  0  0  0  0  0  0  0
    2.4680   -0.0520    0.8840 C   0  0  0  0  0  0  0  0  0  0  0  0
    3.7010   -0.1760    0.3570 C   0  0  0  0  0  0  0  0  0  0  0  0
    4.6860    0.6420    0.7780 C   0  0  0  0  0  0  0  0  0  0  0  0
    3.8620    1.6520    1.9790 S   0  0  0  0  0  0  0  0  0  0  0  0
    6.0980    0.8770    0.5210 C   0  0  0  0  0  0  0  0  0  0  0  0
    6.7030   -0.2400   -0.1910 C   0  0  0  0  0  0  0  0  0  0  0  0
    7.8420    0.0800   -0.8450 C   0  0  0  0  0  0  0  0  0  0  0  0
    8.4360    1.7060   -0.7720 Cl  0  0  0  0  0  0  0  0  0  0  0  0
    8.7820   -1.2490   -1.8360 Br  0  0  0  0  0  0  0  0  0  0  0  0
    6.3030   -1.6270   -0.3170 C   0  0  0  0  0  0  0  0  0  0  0  0
    7.2480   -2.4450   -0.6070 N   0  0  0  0  0  0  0  0  0  0  0  0
    4.9770   -2.2350   -0.1590 C   0  0  0  0  0  0  0  0  0  0  0  0
    3.9480   -1.2480   -0.7040 C   0  0  0  0  0  0  0  0  0  0  0  0
   -2.9130    1.7630    1.0730 C   0  0  0  0  0  0  0  0  0  0  0  0
   -3.7050    0.8170    1.7900 O   0  0  0  0  0  0  0  0  0  0  0  0
  1  2  1  0
  2  3  1  0
  3  4  2  0
  3  8  1  0
  4  5  1  0
  5  6  2  0
  6  7  1  0
  7  8  2  0
  7 31  1  0
  8  9  1  0
  9 10  1  0
 10 11  1  1
 10 30  1  0
 11 12  1  0
 12 13  2  0
 12 14  1  0
 14 15  1  0
 15 16  1  0
 16 17  2  0
 16 20  1  0
 17 18  1  0
 18 19  2  0
 18 29  1  0
 19 20  1  0
 19 21  1  0
 21 22  1  0
 22 23  2  0
 22 26  1  0
 23 24  1  0
 23 25  1  0
 26 27  2  0
 26 28  1  0
 28 29  1  0
 30 31  1  0
 27 25  1  0
M  END
