
     RDKit          3D

 31 36  0  0  0  0  0  0  0  0999 V2000
   -3.9410   -3.7780   -1.9580 C   0  0  0  0  0  0  0  0  0  0  0  0
   -3.1830   -2.6860   -1.2480 C   0  0  0  0  0  0  0  0  0  0  0  0
   -3.5950   -1.3780   -1.1060 C   0  0  0  0  0  0  0  0  0  0  0  0
   -2.6130   -0.6930   -0.3870 C   0  0  0  0  0  0  0  0  0  0  0  0
   -1.6500   -1.6420   -0.1330 C   0  0  0  0  0  0  0  0  0  0  0  0
   -0.6580   -0.9950    0.5790 C   0  0  0  0  0  0  0  0  0  0  0  0
   -1.0310    0.3200    0.7440 C   0  0  0  0  0  0  0  0  0  0  0  0
   -0.3490    1.4040    1.4120 C   0  0  0  0  0  0  0  0  0  0  0  0
    0.7510    1.3700    1.9930 N   0  0  0  0  0  0  0  0  0  0  0  0
    1.6000    0.2840    2.1470 C   0  0  0  0  0  0  0  0  0  0  0  0
    1.5980   -0.6500    3.1370 N   0  0  0  0  0  0  0  0  0  0  0  0
    2.5710   -1.5200    2.9560 N   0  0  0  0  0  0  0  0  0  0  0  0
    3.2340   -1.1770    1.8420 C   0  0  0  0  0  0  0  0  0  0  0  0
    4.3080   -1.7320    1.2130 N   0  0  0  0  0  0  0  0  0  0  0  0
    4.8010   -1.1970    0.0890 C   0  0  0  0  0  0  0  0  0  0  0  0
    5.9000   -1.7600   -0.5600 C   0  0  0  0  0  0  0  0  0  0  0  0
    6.4000   -1.2010   -1.7180 C   0  0  0  0  0  0  0  0  0  0  0  0
    5.8400   -0.0750   -2.2740 C   0  0  0  0  0  0  0  0  0  0  0  0
    4.7480    0.4860   -1.6320 C   0  0  0  0  0  0  0  0  0  0  0  0
    4.2410   -0.0670   -0.4720 C   0  0  0  0  0  0  0  0  0  0  0  0
    3.1500    0.5090    0.1530 C   0  0  0  0  0  0  0  0  0  0  0  0
    2.6470   -0.0540    1.3190 C   0  0  0  0  0  0  0  0  0  0  0  0
   -2.2530    0.4910    0.1350 N   0  0  0  0  0  0  0  0  0  0  0  0
   -2.9970    1.6980    0.0700 C   0  0  0  0  0  0  0  0  0  0  0  0
   -3.1650    2.4060   -1.1030 C   0  0  0  0  0  0  0  0  0  0  0  0
   -3.8890    3.5830   -1.1740 C   0  0  0  0  0  0  0  0  0  0  0  0
   -4.4710    4.0780   -0.0270 C   0  0  0  0  0  0  0  0  0  0  0  0
   -4.3210    3.3930    1.1630 C   0  0  0  0  0  0  0  0  0  0  0  0
   -4.8940    3.8800    2.2880 F   0  0  0  0  0  0  0  0  0  0  0  0
   -3.5910    2.2170    1.2020 C   0  0  0  0  0  0  0  0  0  0  0  0
   -2.0330   -2.7800   -0.6560 O   0  0  0  0  0  0  0  0  0  0  0  0
  1  2  1  0
  2  3  2  0
  2 31  1  0
  3  4  1  0
  4  5  2  0
  4 23  1  0
  5  6  1  0
  5 31  1  0
  6  7  2  0
  7  8  1  0
  7 23  1  0
  8  9  2  3
  9 10  1  0
 10 11  2  0
 10 22  1  0
 11 12  1  0
 12 13  1  0
 13 14  2  0
 13 22  1  0
 14 15  1  0
 15 16  2  0
 15 20  1  0
 16 17  1  0
 17 18  2  0
 18 19  1  0
 19 20  2  0
 20 21  1  0
 21 22  2  0
 23 24  1  0
 24 25  2  0
 24 30  1  0
 25 26  1  0
 26 27  2  0
 27 28  1  0
 28 29  1  0
 28 30  2  0
M  END
