
     RDKit          3D

 30 33  0  0  0  0  0  0  0  0999 V2000
    6.8030    0.7140   -2.1790 C   0  0  0  0  0  0  0  0  0  0  0  0
    5.7900    1.3990   -1.2710 C   0  0  0  0  0  0  0  0  0  0  0  0
    5.9090    0.9710    0.1160 C   0  0  0  0  0  0  0  0  0  0  0  0
    4.9980    0.4030    0.8670 C   0  0  0  0  0  0  0  0  0  0  0  0
    3.6510    0.0760    0.4670 C   0  0  0  0  0  0  0  0  0  0  0  0
    3.1150    0.8450   -0.4100 O   0  0  0  0  0  0  0  0  0  0  0  0
    2.8800   -1.0340    0.9750 N   0  0  0  0  0  0  0  0  0  0  0  0
    1.4680   -1.1730    1.0300 C   0  0  0  0  0  0  0  0  0  0  0  0
    0.5250   -0.5800    0.1880 C   0  0  0  0  0  0  0  0  0  0  0  0
   -0.8370   -0.8090    0.3790 C   0  0  0  0  0  0  0  0  0  0  0  0
   -1.7160   -0.1840   -0.5360 N   0  0  0  0  0  0  0  0  0  0  0  0
   -3.0930    0.0140   -0.3320 C   0  0  0  0  0  0  0  0  0  0  0  0
   -3.6540   -0.3550    0.7100 O   0  0  0  0  0  0  0  0  0  0  0  0
   -3.9610    0.6780   -1.3530 C   0  0  0  0  0  0  0  0  0  0  0  0
   -5.3330    0.7630   -0.9090 N   0  0  0  0  0  0  0  0  0  0  0  0
   -5.8180    1.9030   -0.1620 C   0  0  0  0  0  0  0  0  0  0  0  0
   -7.2740    2.0230   -0.4440 C   0  0  0  0  0  0  0  0  0  0  0  0
   -7.7910    3.1330   -0.8000 O   0  0  0  0  0  0  0  0  0  0  0  0
   -8.0880    0.9180   -0.3210 O   0  0  0  0  0  0  0  0  0  0  0  0
   -7.6030   -0.3720   -0.6010 C   0  0  0  0  0  0  0  0  0  0  0  0
   -6.2460   -0.2840   -1.1990 C   0  0  0  0  0  0  0  0  0  0  0  0
   -5.9330   -1.2210   -2.0080 O   0  0  0  0  0  0  0  0  0  0  0  0
   -1.2940   -1.6110    1.3840 C   0  0  0  0  0  0  0  0  0  0  0  0
   -0.3530   -2.2050    2.2260 C   0  0  0  0  0  0  0  0  0  0  0  0
    0.9780   -1.9690    2.0230 C   0  0  0  0  0  0  0  0  0  0  0  0
    2.4460   -2.5870    2.8870 S   0  0  0  0  0  0  0  0  0  0  0  0
    3.5890   -2.1720    1.4880 C   0  0  2  0  0  0  0  0  0  0  0  0
    5.1750   -1.8210    2.2510 S   0  0  0  0  0  0  0  0  0  0  0  0
    5.3350    0.0070    2.3000 C   0  0  1  0  0  0  0  0  0  0  0  0
    6.9480    0.5150    2.7490 Cl  0  0  0  0  0  0  0  0  0  0  0  0
  1  2  1  0
  2  3  1  0
  3  4  2  3
  4  5  1  0
  4 29  1  0
  5  6  2  0
  5  7  1  0
  7  8  1  0
  7 27  1  0
  8  9  2  0
  8 25  1  0
  9 10  1  0
 10 11  1  0
 10 23  2  0
 11 12  1  0
 12 13  2  0
 12 14  1  0
 14 15  1  0
 15 16  1  0
 15 21  1  0
 16 17  1  0
 17 18  2  0
 17 19  1  0
 19 20  1  0
 20 21  1  0
 21 22  2  0
 23 24  1  0
 24 25  2  0
 25 26  1  0
 27 26  1  1
 27 28  1  0
 28 29  1  0
 29 30  1  6
M  END
