
     RDKit          3D

 30 32  0  0  0  0  0  0  0  0999 V2000
   -0.8110    0.0630   -1.5160 C   0  0  0  0  0  0  0  0  0  0  0  0
   -1.4730   -0.5440   -0.4050 C   0  0  0  0  0  0  0  0  0  0  0  0
   -2.5080    0.0650    0.2290 C   0  0  0  0  0  0  0  0  0  0  0  0
   -2.9300    1.3420   -0.2500 C   0  0  0  0  0  0  0  0  0  0  0  0
   -2.2020    1.8800   -1.1850 O   0  0  0  0  0  0  0  0  0  0  0  0
   -4.0550    2.1030    0.1610 N   0  0  0  0  0  0  0  0  0  0  0  0
   -4.1480    3.4680   -0.4380 C   0  0  0  0  0  0  0  0  0  0  0  0
   -5.1450    1.7510    0.9830 C   0  0  0  0  0  0  0  0  0  0  0  0
   -3.1750   -0.4540    1.4440 C   0  0  0  0  0  0  0  0  0  0  0  0
   -3.3170    0.3750    2.3440 O   0  0  0  0  0  0  0  0  0  0  0  0
   -3.6000   -1.7800    1.5620 O   0  0  0  0  0  0  0  0  0  0  0  0
   -2.9470   -2.9100    1.0210 C   0  0  0  0  0  0  0  0  0  0  0  0
   -3.7750   -4.4070    1.3490 Cl  0  0  0  0  0  0  0  0  0  0  0  0
   -1.7960   -2.9560    0.3050 C   0  0  0  0  0  0  0  0  0  0  0  0
   -1.5650   -4.3770   -0.0150 C   0  0  0  0  0  0  0  0  0  0  0  0
    0.2270   -4.6280   -0.0820 S   0  0  0  0  0  0  0  0  0  0  0  0
    0.9020   -3.1140    0.6530 C   0  0  0  0  0  0  0  0  0  0  0  0
    0.4060   -1.9380   -0.2470 C   0  0  2  0  0  0  0  0  0  0  0  0
    1.2710   -0.8240    0.0770 C   0  0  0  0  0  0  0  0  0  0  0  0
    0.8440    0.1400    0.7180 O   0  0  0  0  0  0  0  0  0  0  0  0
    2.6120   -0.7990   -0.3230 N   0  0  0  0  0  0  0  0  0  0  0  0
    3.5880    0.1840   -0.1000 C   0  0  0  0  0  0  0  0  0  0  0  0
    4.8350    0.0910   -0.7420 C   0  0  0  0  0  0  0  0  0  0  0  0
    5.8310    1.0030   -0.5660 C   0  0  0  0  0  0  0  0  0  0  0  0
    5.5920    2.0690    0.2900 C   0  0  0  0  0  0  0  0  0  0  0  0
    6.8570    3.2770    0.5480 S   0  0  0  0  0  0  0  0  0  0  0  0
    6.4670    4.5310   -0.2250 O   0  0  0  0  0  0  0  0  0  0  0  0
    4.4000    2.2120    0.9410 C   0  0  0  0  0  0  0  0  0  0  0  0
    3.4070    1.2510    0.7300 C   0  0  0  0  0  0  0  0  0  0  0  0
   -0.9610   -1.8770   -0.1000 N   0  0  0  0  0  0  0  0  0  0  0  0
  1  2  1  0
  2  3  2  0
  2 30  1  0
  3  4  1  0
  3  9  1  0
  4  5  2  0
  4  6  1  0
  6  7  1  0
  6  8  1  0
  9 10  2  0
  9 11  1  0
 11 12  1  0
 12 13  1  0
 12 14  2  0
 14 15  1  0
 14 30  1  0
 15 16  1  0
 16 17  1  0
 17 18  1  0
 18 19  1  1
 18 30  1  0
 19 20  2  0
 19 21  1  0
 21 22  1  0
 22 23  2  0
 22 29  1  0
 23 24  1  0
 24 25  2  0
 25 26  1  0
 25 28  1  0
 26 27  2  0
 28 29  2  0
M  END
