
     RDKit          3D

 30 33  0  0  0  0  0  0  0  0999 V2000
    6.5510   -2.6260    3.2570 C   0  0  0  0  0  0  0  0  0  0  0  0
    5.2070   -3.0990    3.0120 N   0  0  0  0  0  0  0  0  0  0  0  0
    4.3780   -2.3520    2.3730 C   0  0  0  0  0  0  0  0  0  0  0  0
    3.0450   -2.7590    2.1000 N   0  0  0  0  0  0  0  0  0  0  0  0
    2.0900   -1.9430    1.4190 C   0  0  0  0  0  0  0  0  0  0  0  0
    1.2720   -2.4870    0.6670 O   0  0  0  0  0  0  0  0  0  0  0  0
    2.1680   -0.4750    1.6860 C   0  0  2  0  0  0  0  0  0  0  0  0
    1.0390    0.2540    1.0780 C   0  0  0  0  0  0  0  0  0  0  0  0
    0.2440    0.9070    1.8100 N   0  0  0  0  0  0  0  0  0  0  0  0
    0.4440    0.9350    3.2250 C   0  0  0  0  0  0  0  0  0  0  0  0
    0.7880    0.2180   -0.6860 S   0  0  0  0  0  0  0  0  0  0  0  0
   -0.6640    1.1830   -1.0800 C   0  0  0  0  0  0  0  0  0  0  0  0
   -0.4690    2.5290   -1.3320 C   0  0  0  0  0  0  0  0  0  0  0  0
   -1.5380    3.3390   -1.6430 C   0  0  0  0  0  0  0  0  0  0  0  0
   -2.7930    2.7490   -1.6880 C   0  0  0  0  0  0  0  0  0  0  0  0
   -3.0120    1.4130   -1.4410 C   0  0  0  0  0  0  0  0  0  0  0  0
   -4.6480    0.7400   -1.5220 Cl  0  0  0  0  0  0  0  0  0  0  0  0
   -1.9250    0.6260   -1.1330 C   0  0  0  0  0  0  0  0  0  0  0  0
   -2.1160   -0.7120   -0.8820 O   0  0  0  0  0  0  0  0  0  0  0  0
   -2.0810   -1.7290   -1.8340 C   0  0  2  0  0  0  0  0  0  0  0  0
   -3.3220   -2.5440   -1.9630 C   0  0  0  0  0  0  0  0  0  0  0  0
   -2.7580   -3.8680   -2.4930 C   0  0  0  0  0  0  0  0  0  0  0  0
   -1.3960   -3.7280   -2.5840 O   0  0  0  0  0  0  0  0  0  0  0  0
   -1.0250   -2.7700   -1.6120 C   0  0  0  0  0  0  0  0  0  0  0  0
   -3.8600    3.5690   -2.0010 O   0  0  0  0  0  0  0  0  0  0  0  0
   -3.8710    4.9550   -1.8490 C   0  0  0  0  0  0  0  0  0  0  0  0
   -2.5230    5.5670   -1.6180 C   0  0  0  0  0  0  0  0  0  0  0  0
   -1.4500    4.6800   -1.9090 O   0  0  0  0  0  0  0  0  0  0  0  0
    3.4520    0.1120    1.1410 C   0  0  0  0  0  0  0  0  0  0  0  0
    4.8940   -0.7450    1.7980 S   0  0  0  0  0  0  0  0  0  0  0  0
  1  2  1  0
  2  3  2  3
  3  4  1  0
  3 30  1  0
  4  5  1  0
  5  6  2  0
  5  7  1  0
  7  8  1  6
  7 29  1  0
  8  9  2  3
  8 11  1  0
  9 10  1  0
 11 12  1  0
 12 13  2  0
 12 18  1  0
 13 14  1  0
 14 15  2  0
 14 28  1  0
 15 16  1  0
 15 25  1  0
 16 17  1  0
 16 18  2  0
 18 19  1  0
 20 19  1  1
 20 21  1  0
 20 24  1  0
 21 22  1  0
 22 23  1  0
 23 24  1  0
 25 26  1  0
 26 27  1  0
 27 28  1  0
 29 30  1  0
M  END
