
     RDKit          3D

 15 15  0  0  0  0  0  0  0  0999 V2000
   -4.6000    1.2230    0.4750 C   0  0  0  0  0  0  0  0  0  0  0  0
   -4.4800   -0.1990   -0.0170 C   0  0  0  0  0  0  0  0  0  0  0  0
   -3.0660   -0.6870    0.0760 C   0  0  0  0  0  0  0  0  0  0  0  0
   -2.8570   -1.8490   -0.3050 O   0  0  0  0  0  0  0  0  0  0  0  0
   -2.0410    0.0750    0.5460 O   0  0  0  0  0  0  0  0  0  0  0  0
   -0.6840   -0.3040    0.6640 C   0  0  0  0  0  0  0  0  0  0  0  0
   -0.1390   -0.6190   -0.6870 C   0  0  0  0  0  0  0  0  0  0  0  0
    1.1710   -1.0060   -0.7750 O   0  0  0  0  0  0  0  0  0  0  0  0
    2.3520   -0.4520   -0.4900 C   0  0  0  0  0  0  0  0  0  0  0  0
    2.4870    0.8140    0.0120 C   0  0  0  0  0  0  0  0  0  0  0  0
    3.7690    1.2960    0.2760 C   0  0  0  0  0  0  0  0  0  0  0  0
    4.8750    0.5700    0.0570 N   0  0  0  0  0  0  0  0  0  0  0  0
    4.7610   -0.6600   -0.4310 C   0  0  0  0  0  0  0  0  0  0  0  0
    5.9350   -1.4010   -0.6520 O   0  0  0  0  0  0  0  0  0  0  0  0
    3.5130   -1.1880   -0.7110 C   0  0  0  0  0  0  0  0  0  0  0  0
  1  2  1  0
  2  3  1  0
  3  4  2  0
  3  5  1  0
  5  6  1  0
  6  7  1  0
  7  8  1  0
  8  9  1  0
  9 10  2  0
  9 15  1  0
 10 11  1  0
 11 12  2  0
 12 13  1  0
 13 14  1  0
 13 15  2  0
M  CHG  2  12   1  14  -1
M  END
