
     RDKit          3D

 14 14  0  0  0  0  0  0  0  0999 V2000
    3.8090   -1.0120   -0.7100 C   0  0  0  0  0  0  0  0  0  0  0  0
    3.6430   -0.4950    0.5390 O   0  0  0  0  0  0  0  0  0  0  0  0
    2.5140    0.3450    0.6780 C   0  0  0  0  0  0  0  0  0  0  0  0
    1.3240   -0.4580    0.3650 C   0  0  0  0  0  0  0  0  0  0  0  0
   -0.0270    0.3280    0.5280 C   0  0  2  0  0  0  0  0  0  0  0  0
   -0.0830    0.7400    1.8730 O   0  0  0  0  0  0  0  0  0  0  0  0
   -1.0190   -0.7260    0.1840 C   0  0  0  0  0  0  0  0  0  0  0  0
   -2.4590   -0.4010    0.2180 C   0  0  2  0  0  0  0  0  0  0  0  0
   -3.3590   -1.6280   -0.1380 C   0  0  0  0  0  0  0  0  0  0  0  0
   -3.1790   -0.5650   -1.1430 C   0  0  0  0  0  0  0  0  0  0  0  0
    0.0450    1.5310   -0.3450 C   0  0  0  0  0  0  0  0  0  0  0  0
   -0.9900    2.4970   -0.2370 N   0  0  0  0  0  0  0  0  0  0  0  0
   -0.7060    3.6790    0.1830 O   0  0  0  0  0  0  0  0  0  0  0  0
   -2.3160    2.3540   -0.5250 O   0  0  0  0  0  0  0  0  0  0  0  0
  1  2  1  0
  2  3  1  0
  3  4  1  0
  4  5  1  0
  5  6  1  1
  5  7  1  0
  5 11  1  0
  8  7  1  6
  8  9  1  0
  8 10  1  0
  9 10  1  0
 11 12  1  0
 12 13  2  0
 12 14  1  0
M  CHG  2  12   1  14  -1
M  END
