
     RDKit          3D

 25 26  0  0  0  0  0  0  0  0999 V2000
    0.8890    3.3200   -3.1840 N   0  0  0  0  0  0  0  0  0  0  0  0
    0.7430    2.8320   -1.8580 C   0  0  0  0  0  0  0  0  0  0  0  0
    0.5850    3.6230   -0.8740 O   0  0  0  0  0  0  0  0  0  0  0  0
    0.7610    1.4710   -1.5450 O   0  0  0  0  0  0  0  0  0  0  0  0
    0.6110    1.0390   -0.2100 C   0  0  2  0  0  0  0  0  0  0  0  0
    1.8950    0.2670    0.1360 C   0  0  0  0  0  0  0  0  0  0  0  0
    1.9720   -0.9890   -0.6490 C   0  0  2  0  0  0  0  0  0  0  0  0
    3.2780   -1.2830   -1.3160 C   0  0  0  0  0  0  0  0  0  0  0  0
    4.4870   -1.5080   -0.5080 C   0  0  0  0  0  0  0  0  0  0  0  0
    4.9070   -0.4020    0.3730 C   0  0  0  0  0  0  0  0  0  0  0  0
    6.2030   -0.7390    1.0870 C   0  0  0  0  0  0  0  0  0  0  0  0
    6.8040   -1.8150    0.9260 O   0  0  0  0  0  0  0  0  0  0  0  0
    6.7010    0.2180    1.9430 O   0  0  0  0  0  0  0  0  0  0  0  0
    0.8860   -1.1650   -1.5840 O   0  0  0  0  0  0  0  0  0  0  0  0
   -0.4280   -0.9970   -1.1330 C   0  0  0  0  0  0  0  0  0  0  0  0
   -1.4260   -1.6280   -1.4880 O   0  0  0  0  0  0  0  0  0  0  0  0
   -0.5110    0.0820   -0.1200 C   0  0  0  0  0  0  0  0  0  0  0  0
   -1.4960    0.1320    0.7330 C   0  0  0  0  0  0  0  0  0  0  0  0
   -1.5910    1.1460    1.6940 N   0  0  0  0  0  0  0  0  0  0  0  0
   -2.4750   -0.8480    0.6840 O   0  0  0  0  0  0  0  0  0  0  0  0
   -3.7730   -0.6150    0.2260 C   0  0  2  0  0  0  0  0  0  0  0  0
   -4.5270    0.4210    0.9990 C   0  0  0  0  0  0  0  0  0  0  0  0
   -5.8610   -0.1690    1.3770 C   0  0  0  0  0  0  0  0  0  0  0  0
   -5.9600   -1.3480    0.5700 N   0  0  0  0  0  0  0  0  0  0  0  0
   -4.6030   -1.8670    0.4170 C   0  0  0  0  0  0  0  0  0  0  0  0
  1  2  1  0
  2  3  2  0
  2  4  1  0
  5  4  1  6
  5  6  1  0
  5 17  1  0
  6  7  1  0
  7  8  1  6
  7 14  1  0
  8  9  1  0
  9 10  1  0
 10 11  1  0
 11 12  2  0
 11 13  1  0
 14 15  1  0
 15 16  2  0
 15 17  1  0
 17 18  2  3
 18 19  1  0
 18 20  1  0
 21 20  1  1
 21 22  1  0
 21 25  1  0
 22 23  1  0
 23 24  1  0
 24 25  1  0
M  CHG  1  24   1
M  END
