
     RDKit          3D

 15 15  0  0  0  0  0  0  0  0999 V2000
    4.3820   -0.1550    0.1450 C   0  0  0  0  0  0  0  0  0  0  0  0
    3.6790    1.1700    0.0170 C   0  0  0  0  0  0  0  0  0  0  0  0
    2.3430    1.0200    0.4080 O   0  0  0  0  0  0  0  0  0  0  0  0
    1.7870    0.0660   -0.4540 C   0  0  0  0  0  0  0  0  0  0  0  0
    0.3630   -0.1950   -0.1540 C   0  0  0  0  0  0  0  0  0  0  0  0
   -0.6400    0.5470   -0.7660 C   0  0  0  0  0  0  0  0  0  0  0  0
   -1.9870    0.3200   -0.4990 C   0  0  0  0  0  0  0  0  0  0  0  0
   -3.0670    1.1050   -1.1450 C   0  0  0  0  0  0  0  0  0  0  0  0
   -2.3230   -0.6700    0.3970 C   0  0  0  0  0  0  0  0  0  0  0  0
   -3.7120   -0.9320    0.6960 C   0  0  0  0  0  0  0  0  0  0  0  0
   -4.0050   -1.8540    1.5290 O   0  0  0  0  0  0  0  0  0  0  0  0
   -4.7730   -0.2520    0.1430 O   0  0  0  0  0  0  0  0  0  0  0  0
   -1.3160   -1.3970    0.9950 C   0  0  0  0  0  0  0  0  0  0  0  0
   -0.0140   -1.1510    0.7130 N   0  0  0  0  0  0  0  0  0  0  0  0
    0.9420   -1.9110    1.3430 O   0  0  0  0  0  0  0  0  0  0  0  0
  1  2  1  0
  2  3  1  0
  3  4  1  0
  4  5  1  0
  5  6  2  0
  5 14  1  0
  6  7  1  0
  7  8  1  0
  7  9  2  0
  9 10  1  0
  9 13  1  0
 10 11  2  0
 10 12  1  0
 13 14  2  0
 14 15  1  0
M  CHG  2  14   1  15  -1
M  END
