
     RDKit          3D

 25 26  0  0  0  0  0  0  0  0999 V2000
    4.0470   -0.5370    1.8140 C   0  0  0  0  0  0  0  0  0  0  0  0
    2.9060    0.2610    1.5060 O   0  0  0  0  0  0  0  0  0  0  0  0
    1.8600   -0.3270    0.7310 C   0  0  0  0  0  0  0  0  0  0  0  0
    1.3320   -1.4070    1.2410 C   0  0  0  0  0  0  0  0  0  0  0  0
    0.2570   -2.2410    0.7060 C   0  0  0  0  0  0  0  0  0  0  0  0
    0.0720   -3.4950    1.4800 N   0  0  0  0  0  0  0  0  0  0  0  0
   -0.5070   -2.1110   -0.2300 N   0  0  0  0  0  0  0  0  0  0  0  0
   -1.1420   -1.6160   -1.3050 C   0  0  0  0  0  0  0  0  0  0  0  0
   -0.9720   -1.9470   -2.7740 C   0  0  0  0  0  0  0  0  0  0  0  0
   -2.0920   -0.6790   -1.1330 C   0  0  0  0  0  0  0  0  0  0  0  0
   -2.4620   -0.1680    0.2390 C   0  0  1  0  0  0  0  0  0  0  0  0
   -3.3810   -1.2670    0.7670 C   0  0  0  0  0  0  0  0  0  0  0  0
   -3.0960   -1.9230    1.7950 O   0  0  0  0  0  0  0  0  0  0  0  0
   -4.5590   -1.5600    0.1110 O   0  0  0  0  0  0  0  0  0  0  0  0
   -1.4260   -0.1280    1.0810 O   0  0  0  0  0  0  0  0  0  0  0  0
   -0.8570    1.0910    1.2420 C   0  0  0  0  0  0  0  0  0  0  0  0
   -0.5170    1.7580   -0.0360 C   0  0  1  0  0  0  0  0  0  0  0  0
   -1.6540    2.0260   -0.8260 O   0  0  0  0  0  0  0  0  0  0  0  0
   -0.1560    3.2230    0.4040 C   0  0  0  0  0  0  0  0  0  0  0  0
    1.0020    3.2300    1.2390 N   0  0  0  0  0  0  0  0  0  0  0  0
    0.6210    1.2200   -0.8180 C   0  0  0  0  0  0  0  0  0  0  0  0
    1.5680    0.3960   -0.5210 C   0  0  0  0  0  0  0  0  0  0  0  0
    2.3830    0.2820   -1.7160 O   0  0  0  0  0  0  0  0  0  0  0  0
    1.6550    0.7170   -2.8270 C   0  0  0  0  0  0  0  0  0  0  0  0
    0.7980    1.6340   -2.1890 O   0  0  0  0  0  0  0  0  0  0  0  0
  1  2  1  0
  2  3  1  0
  3  4  2  0
  3 22  1  0
  4  5  1  0
  5  6  1  0
  5  7  2  0
  7  8  1  0
  8  9  1  0
  8 10  2  0
 10 11  1  0
 11 12  1  1
 11 15  1  0
 12 13  2  0
 12 14  1  0
 15 16  1  0
 16 17  1  0
 17 18  1  6
 17 19  1  0
 17 21  1  0
 19 20  1  0
 21 22  2  0
 21 25  1  0
 22 23  1  0
 23 24  1  0
 24 25  1  0
M  CHG  1  20   1
M  END
