
     RDKit          3D

 20 21  0  0  0  0  0  0  0  0999 V2000
    3.8950    2.4080   -2.2210 O   0  0  0  0  0  0  0  0  0  0  0  0
    3.8460    1.3440   -1.5520 C   0  0  0  0  0  0  0  0  0  0  0  0
    4.3490    1.1530   -0.2190 N   0  0  0  0  0  0  0  0  0  0  0  0
    4.5480   -0.2830   -0.1080 C   0  0  0  0  0  0  0  0  0  0  0  0
    3.4690   -0.8230   -1.0060 C   0  0  1  0  0  0  0  0  0  0  0  0
    2.2380   -0.9890   -0.1640 C   0  0  0  0  0  0  0  0  0  0  0  0
    2.2580   -1.8300    0.7600 O   0  0  0  0  0  0  0  0  0  0  0  0
    1.0910   -0.2550   -0.3680 O   0  0  0  0  0  0  0  0  0  0  0  0
   -0.0140   -0.4640    0.4540 C   0  0  1  0  0  0  0  0  0  0  0  0
   -0.4800    0.7620    1.1490 C   0  0  0  0  0  0  0  0  0  0  0  0
    0.0940    1.8120    1.3580 O   0  0  0  0  0  0  0  0  0  0  0  0
   -1.8750    0.4500    1.5700 C   0  0  0  0  0  0  0  0  0  0  0  0
   -2.3270   -0.4980    0.5580 N   0  0  0  0  0  0  0  0  0  0  0  0
   -3.6770   -1.0250    0.4230 C   0  0  0  0  0  0  0  0  0  0  0  0
   -4.7240    0.0300   -0.6820 P   0  0  0  0  0  0  0  0  0  0  0  0
   -5.7360    1.1060    0.2250 O   0  0  0  0  0  0  0  0  0  0  0  0
   -3.7960    0.8530   -1.8720 O   0  0  0  0  0  0  0  0  0  0  0  0
   -1.2390   -0.8450   -0.3020 C   0  0  0  0  0  0  0  0  0  0  0  0
   -1.3380   -1.3610   -1.4440 O   0  0  0  0  0  0  0  0  0  0  0  0
    3.2890    0.1510   -1.9940 O   0  0  0  0  0  0  0  0  0  0  0  0
  1  2  2  0
  2  3  1  0
  2 20  1  0
  3  4  1  0
  4  5  1  0
  5  6  1  1
  5 20  1  0
  6  7  2  0
  6  8  1  0
  9  8  1  6
  9 10  1  0
  9 18  1  0
 10 11  2  0
 10 12  1  0
 12 13  1  0
 13 14  1  0
 13 18  1  0
 14 15  1  0
 15 16  1  0
 15 17  1  0
 18 19  2  0
M  END
