
     RDKit          3D

 21 22  0  0  0  0  0  0  0  0999 V2000
    5.4830    1.5870   -2.0310 O   0  0  0  0  0  0  0  0  0  0  0  0
    3.9590    1.2940   -2.2090 P   0  0  0  0  0  0  0  0  0  0  0  0
    3.2880   -0.0010   -1.2720 O   0  0  0  0  0  0  0  0  0  0  0  0
    3.2430    0.3950    0.0650 C   0  0  0  0  0  0  0  0  0  0  0  0
    2.6730   -0.6680    0.9580 C   0  0  0  0  0  0  0  0  0  0  0  0
    1.3240   -1.0430    0.6150 N   0  0  0  0  0  0  0  0  0  0  0  0
    1.0540   -2.0940   -0.3100 C   0  0  0  0  0  0  0  0  0  0  0  0
    2.0040   -2.7310   -0.8660 O   0  0  0  0  0  0  0  0  0  0  0  0
   -0.2580   -2.4470   -0.6260 O   0  0  0  0  0  0  0  0  0  0  0  0
   -1.3170   -1.7750   -0.0370 C   0  0  0  0  0  0  0  0  0  0  0  0
   -2.4580   -2.3080    0.1140 O   0  0  0  0  0  0  0  0  0  0  0  0
   -1.0670   -0.3820    0.4200 C   0  0  2  0  0  0  0  0  0  0  0  0
   -2.2060    0.1600    1.2600 C   0  0  0  0  0  0  0  0  0  0  0  0
   -2.1720    1.5280    0.9560 O   0  0  0  0  0  0  0  0  0  0  0  0
   -2.0610    1.4860   -0.4240 C   0  0  2  0  0  0  0  0  0  0  0  0
   -3.3950    1.0910   -0.9870 C   0  0  0  0  0  0  0  0  0  0  0  0
   -3.5070    0.0090   -1.6100 O   0  0  0  0  0  0  0  0  0  0  0  0
   -4.5250    1.8790   -0.8480 O   0  0  0  0  0  0  0  0  0  0  0  0
   -1.0770    0.4850   -0.6960 N   0  0  0  0  0  0  0  0  0  0  0  0
    0.1990   -0.3910    1.1800 C   0  0  0  0  0  0  0  0  0  0  0  0
    0.2270    0.1750    2.2870 O   0  0  0  0  0  0  0  0  0  0  0  0
  1  2  2  0
  2  3  1  0
  3  4  1  0
  4  5  1  0
  5  6  1  0
  6  7  1  0
  6 20  1  0
  7  8  2  0
  7  9  1  0
  9 10  1  0
 10 11  2  0
 10 12  1  0
 12 13  1  1
 12 19  1  0
 12 20  1  0
 13 14  1  0
 14 15  1  0
 15 16  1  6
 15 19  1  0
 16 17  2  0
 16 18  1  0
 20 21  2  0
M  END
