
     RDKit          3D

 20 20  0  0  0  0  0  0  0  0999 V2000
    6.4290    0.1990    0.6340 C   0  0  0  0  0  0  0  0  0  0  0  0
    5.0900    0.5440    0.4540 O   0  0  0  0  0  0  0  0  0  0  0  0
    4.0380   -0.3500    0.3800 C   0  0  0  0  0  0  0  0  0  0  0  0
    4.2890   -1.5790    0.4810 O   0  0  0  0  0  0  0  0  0  0  0  0
    2.7140    0.0660    0.1970 O   0  0  0  0  0  0  0  0  0  0  0  0
    1.6550   -0.8010    0.1210 C   0  0  0  0  0  0  0  0  0  0  0  0
    1.8980   -2.0300    0.2210 O   0  0  0  0  0  0  0  0  0  0  0  0
    0.3070   -0.4000   -0.0640 N   0  0  0  0  0  0  0  0  0  0  0  0
   -0.0960    0.9870   -0.1920 C   0  0  0  0  0  0  0  0  0  0  0  0
   -1.5180    0.9100    0.3830 C   0  0  1  0  0  0  0  0  0  0  0  0
   -2.4270    2.4630    0.0370 P   0  0  0  0  0  0  0  0  0  0  0  0
   -1.3000    3.6280   -0.5810 O   0  0  0  0  0  0  0  0  0  0  0  0
   -2.9950    3.1010    1.5690 O   0  0  0  0  0  0  0  0  0  0  0  0
   -2.0260   -0.2950   -0.3700 C   0  0  2  0  0  0  0  0  0  0  0  0
   -3.3000   -0.8710    0.1740 C   0  0  0  0  0  0  0  0  0  0  0  0
   -4.3250    0.1460    0.1070 N   0  0  0  0  0  0  0  0  0  0  0  0
   -0.8520   -1.2620   -0.1520 C   0  0  1  0  0  0  0  0  0  0  0  0
   -0.7460   -2.2260   -1.2750 C   0  0  0  0  0  0  0  0  0  0  0  0
    0.2160   -2.2970   -2.0540 O   0  0  0  0  0  0  0  0  0  0  0  0
   -1.8070   -3.1030   -1.4530 O   0  0  0  0  0  0  0  0  0  0  0  0
  1  2  1  0
  2  3  1  0
  3  4  2  0
  3  5  1  0
  5  6  1  0
  6  7  2  0
  6  8  1  0
  8  9  1  0
  8 17  1  0
  9 10  1  0
 10 11  1  6
 10 14  1  0
 11 12  1  0
 11 13  1  0
 14 15  1  1
 14 17  1  0
 15 16  1  0
 17 18  1  6
 18 19  2  0
 18 20  1  0
M  END
