
     RDKit          3D

 20 21  0  0  0  0  0  0  0  0999 V2000
   -6.0960    1.9120   -0.6020 O   0  0  0  0  0  0  0  0  0  0  0  0
   -4.9370    1.4590   -0.6020 C   0  0  0  0  0  0  0  0  0  0  0  0
   -4.5470    0.0160   -0.7210 C   0  0  0  0  0  0  0  0  0  0  0  0
   -3.0910    0.0110   -0.2490 C   0  0  2  0  0  0  0  0  0  0  0  0
   -2.6820    1.4810   -0.1210 C   0  0  0  0  0  0  0  0  0  0  0  0
   -3.8210    2.2430   -0.4740 O   0  0  0  0  0  0  0  0  0  0  0  0
   -2.2790   -0.7770   -0.9810 O   0  0  0  0  0  0  0  0  0  0  0  0
   -1.1720   -1.1800   -0.1430 C   0  0  1  0  0  0  0  0  0  0  0  0
    0.0320   -0.5840   -0.6320 C   0  0  0  0  0  0  0  0  0  0  0  0
    0.0780    0.3860   -1.4400 O   0  0  0  0  0  0  0  0  0  0  0  0
    1.3000   -1.0780   -0.2260 N   0  0  0  0  0  0  0  0  0  0  0  0
    2.4560   -0.5930   -0.7690 C   0  0  0  0  0  0  0  0  0  0  0  0
    3.7730   -1.2450   -0.2080 C   0  0  0  0  0  0  0  0  0  0  0  0
    4.7020   -0.6540   -1.0030 O   0  0  0  0  0  0  0  0  0  0  0  0
    5.7710    0.4710   -0.3180 P   0  0  0  0  0  0  0  0  0  0  0  0
    5.6670    0.6050    1.3870 O   0  0  0  0  0  0  0  0  0  0  0  0
    5.2870    2.0590   -1.0530 O   0  0  0  0  0  0  0  0  0  0  0  0
   -1.6390   -0.9310    1.1710 N   0  0  0  0  0  0  0  0  0  0  0  0
   -3.0050   -0.6740    1.1060 C   0  0  0  0  0  0  0  0  0  0  0  0
   -3.9100   -0.9320    1.9200 O   0  0  0  0  0  0  0  0  0  0  0  0
  1  2  2  0
  2  3  1  0
  2  6  1  0
  4  3  1  6
  4  5  1  0
  4  7  1  0
  4 19  1  0
  5  6  1  0
  7  8  1  0
  8  9  1  6
  8 18  1  0
  9 10  2  0
  9 11  1  0
 11 12  1  0
 12 13  1  0
 13 14  1  0
 14 15  1  0
 15 16  1  0
 15 17  1  0
 18 19  1  0
 19 20  2  0
M  END
