
     RDKit          3D

 13 13  0  0  0  0  0  0  0  0999 V2000
    2.9510   -0.2420    0.2950 N   0  0  0  0  0  0  0  0  0  0  0  0
    1.7230   -0.9330    0.1330 C   0  0  0  0  0  0  0  0  0  0  0  0
    1.6810   -2.1530   -0.1380 O   0  0  0  0  0  0  0  0  0  0  0  0
    0.4540   -0.2080    0.2840 C   0  0  2  0  0  0  0  0  0  0  0  0
    0.6680    1.1460    0.5860 O   0  0  0  0  0  0  0  0  0  0  0  0
   -0.3730   -0.7450    1.4180 C   0  0  0  0  0  0  0  0  0  0  0  0
    0.0310   -1.5990    2.2190 O   0  0  0  0  0  0  0  0  0  0  0  0
   -1.6940   -0.1680    1.4890 N   0  0  0  0  0  0  0  0  0  0  0  0
   -2.1350    0.6940    0.4480 C   0  0  0  0  0  0  0  0  0  0  0  0
   -3.1940    1.3480    0.6280 O   0  0  0  0  0  0  0  0  0  0  0  0
   -1.4140    0.8650   -0.8390 C   0  0  0  0  0  0  0  0  0  0  0  0
   -0.4300   -0.2890   -0.9410 C   0  0  1  0  0  0  0  0  0  0  0  0
    0.3030   -0.2460   -2.1200 O   0  0  0  0  0  0  0  0  0  0  0  0
  1  2  1  0
  2  3  2  0
  2  4  1  0
  4  5  1  1
  4  6  1  0
  4 12  1  0
  6  7  2  0
  6  8  1  0
  8  9  1  0
  9 10  2  0
  9 11  1  0
 11 12  1  0
 12 13  1  6
M  END
