
     RDKit          3D

 12 12  0  0  0  0  0  0  0  0999 V2000
    0.1040    0.9690   -1.8190 N   0  0  0  0  0  0  0  0  0  0  0  0
    0.4970   -0.0110   -0.8410 C   0  0  1  0  0  0  0  0  0  0  0  0
    1.8700    0.2320   -0.2850 C   0  0  0  0  0  0  0  0  0  0  0  0
    2.1650   -0.8240    0.6590 N   0  0  0  0  0  0  0  0  0  0  0  0
    1.1850   -1.1680    1.6040 C   0  0  0  0  0  0  0  0  0  0  0  0
    1.4750   -1.8270    2.6570 O   0  0  0  0  0  0  0  0  0  0  0  0
   -0.1190   -0.7800    1.3840 O   0  0  0  0  0  0  0  0  0  0  0  0
   -0.5650   -0.1460    0.1970 C   0  0  1  0  0  0  0  0  0  0  0  0
   -1.1240    1.2070    0.6240 C   0  0  0  0  0  0  0  0  0  0  0  0
   -0.1260    1.9420    1.2390 O   0  0  0  0  0  0  0  0  0  0  0  0
   -1.6690   -1.0140   -0.3710 C   0  0  0  0  0  0  0  0  0  0  0  0
   -2.7290   -1.1480    0.5170 O   0  0  0  0  0  0  0  0  0  0  0  0
  2  1  1  6
  2  3  1  0
  2  8  1  0
  3  4  1  0
  4  5  1  0
  5  6  2  0
  5  7  1  0
  7  8  1  0
  8  9  1  1
  8 11  1  0
  9 10  1  0
 11 12  1  0
M  END
