
     RDKit          3D

 13 13  0  0  0  0  0  0  0  0999 V2000
    3.6560   -0.5680   -0.4700 N   0  0  0  0  0  0  0  0  0  0  0  0
    2.5020    0.2830   -0.3660 C   0  0  0  0  0  0  0  0  0  0  0  0
    1.5710   -0.1800    0.5320 O   0  0  0  0  0  0  0  0  0  0  0  0
    0.4500    0.5970    0.6550 C   0  0  2  0  0  0  0  0  0  0  0  0
    0.3710    1.1010    1.9710 O   0  0  0  0  0  0  0  0  0  0  0  0
   -0.8010   -0.1680    0.4120 C   0  0  1  0  0  0  0  0  0  0  0  0
   -0.8660   -1.2000    1.3600 O   0  0  0  0  0  0  0  0  0  0  0  0
   -2.0380    0.6980    0.5310 C   0  0  0  0  0  0  0  0  0  0  0  0
   -3.0200   -0.0400   -0.2940 C   0  0  0  0  0  0  0  0  0  0  0  0
   -4.2720    0.0450   -0.2060 O   0  0  0  0  0  0  0  0  0  0  0  0
   -2.3210   -0.8690   -1.2140 N   0  0  0  0  0  0  0  0  0  0  0  0
   -0.9370   -0.7920   -0.9070 C   0  0  0  0  0  0  0  0  0  0  0  0
   -0.0220   -1.1990   -1.6630 O   0  0  0  0  0  0  0  0  0  0  0  0
  1  2  1  0
  2  3  1  0
  3  4  1  0
  4  5  1  1
  4  6  1  0
  6  7  1  1
  6  8  1  0
  6 12  1  0
  8  9  1  0
  9 10  2  0
  9 11  1  0
 11 12  1  0
 12 13  2  0
M  END
