
     RDKit          3D

 13 13  0  0  0  0  0  0  0  0999 V2000
   -4.0770    0.5930    0.7060 N   0  0  0  0  0  0  0  0  0  0  0  0
   -2.8080    1.0120    0.2550 C   0  0  0  0  0  0  0  0  0  0  0  0
   -2.6210    2.2190    0.0040 O   0  0  0  0  0  0  0  0  0  0  0  0
   -1.7340    0.0340    0.0880 C   0  0  0  0  0  0  0  0  0  0  0  0
   -0.5430    0.5860   -0.3610 O   0  0  0  0  0  0  0  0  0  0  0  0
    0.3800   -0.4610   -0.4710 C   0  0  1  0  0  0  0  0  0  0  0  0
    0.8870   -0.4550   -1.8510 C   0  0  0  0  0  0  0  0  0  0  0  0
    0.1600   -0.6210   -2.8670 O   0  0  0  0  0  0  0  0  0  0  0  0
    2.2520   -0.2400   -1.7880 O   0  0  0  0  0  0  0  0  0  0  0  0
    2.6270   -0.1120   -0.4560 C   0  0  0  0  0  0  0  0  0  0  0  0
    3.9640    0.1190    0.0070 N   0  0  0  0  0  0  0  0  0  0  0  0
    1.5870   -0.2310    0.3370 C   0  0  0  0  0  0  0  0  0  0  0  0
    1.6250   -0.1520    1.7250 O   0  0  0  0  0  0  0  0  0  0  0  0
  1  2  1  0
  2  3  2  0
  2  4  1  0
  4  5  1  0
  6  5  1  6
  6  7  1  0
  6 12  1  0
  7  8  2  0
  7  9  1  0
  9 10  1  0
 10 11  1  0
 10 12  2  0
 12 13  1  0
M  END
