
     RDKit          3D

 12 12  0  0  0  0  0  0  0  0999 V2000
   -0.2680    1.4090    1.5070 N   0  0  0  0  0  0  0  0  0  0  0  0
   -0.7040    0.2460    0.7170 C   0  0  1  0  0  0  0  0  0  0  0  0
   -1.8480    0.6870   -0.1230 C   0  0  0  0  0  0  0  0  0  0  0  0
   -2.1410   -0.1780   -1.2350 N   0  0  0  0  0  0  0  0  0  0  0  0
   -1.0200   -0.6950   -1.9600 C   0  0  0  0  0  0  0  0  0  0  0  0
   -1.2280   -1.1680   -3.1160 O   0  0  0  0  0  0  0  0  0  0  0  0
    0.2050   -0.6450   -1.3580 O   0  0  0  0  0  0  0  0  0  0  0  0
    0.4630   -0.2970   -0.0280 C   0  0  1  0  0  0  0  0  0  0  0  0
    1.6640    0.6290   -0.0220 C   0  0  0  0  0  0  0  0  0  0  0  0
    1.4330    1.7830   -0.7600 O   0  0  0  0  0  0  0  0  0  0  0  0
    0.9320   -1.5610    0.6960 C   0  0  0  0  0  0  0  0  0  0  0  0
    2.0870   -2.0050    0.0510 O   0  0  0  0  0  0  0  0  0  0  0  0
  2  1  1  6
  2  3  1  0
  2  8  1  0
  3  4  1  0
  4  5  1  0
  5  6  2  0
  5  7  1  0
  7  8  1  0
  8  9  1  6
  8 11  1  0
  9 10  1  0
 11 12  1  0
M  END
