
     RDKit          3D

 12 12  0  0  0  0  0  0  0  0999 V2000
    3.7490   -0.9200    0.1010 N   0  0  0  0  0  0  0  0  0  0  0  0
    2.5530   -0.2800   -0.3760 C   0  0  0  0  0  0  0  0  0  0  0  0
    2.6250    0.4570   -1.3840 O   0  0  0  0  0  0  0  0  0  0  0  0
    1.2990   -0.4570    0.2580 N   0  0  0  0  0  0  0  0  0  0  0  0
    0.1240    0.1850   -0.2270 C   0  0  2  0  0  0  0  0  0  0  0  0
   -0.1970   -0.1440   -1.5360 O   0  0  0  0  0  0  0  0  0  0  0  0
    0.3300    1.6860   -0.1810 C   0  0  0  0  0  0  0  0  0  0  0  0
   -0.9980    2.1030   -0.4320 O   0  0  0  0  0  0  0  0  0  0  0  0
   -1.7450    1.4010    0.4860 C   0  0  0  0  0  0  0  0  0  0  0  0
   -1.0600    0.0670    0.6990 C   0  0  1  0  0  0  0  0  0  0  0  0
   -1.9820   -1.0630    0.3220 C   0  0  0  0  0  0  0  0  0  0  0  0
   -3.0300   -1.0790    1.2380 O   0  0  0  0  0  0  0  0  0  0  0  0
  1  2  1  0
  2  3  2  0
  2  4  1  0
  4  5  1  0
  5  6  1  6
  5  7  1  0
  5 10  1  0
  7  8  1  0
  8  9  1  0
  9 10  1  0
 10 11  1  6
 11 12  1  0
M  END
