
     RDKit          3D

 13 13  0  0  0  0  0  0  0  0999 V2000
   -2.6330    1.4160   -0.8340 N   0  0  0  0  0  0  0  0  0  0  0  0
   -2.6480    0.1560   -0.1740 C   0  0  0  0  0  0  0  0  0  0  0  0
   -3.6670   -0.5600   -0.3150 O   0  0  0  0  0  0  0  0  0  0  0  0
   -1.5200   -0.3290    0.6610 C   0  0  1  0  0  0  0  0  0  0  0  0
   -0.9680   -1.6350    0.2130 C   0  0  0  0  0  0  0  0  0  0  0  0
    0.4570   -1.3460   -0.1190 C   0  0  2  0  0  0  0  0  0  0  0  0
    1.3770   -1.9170    0.7200 O   0  0  0  0  0  0  0  0  0  0  0  0
    0.5550    0.1470   -0.0260 C   0  0  2  0  0  0  0  0  0  0  0  0
    1.7410    0.5830    0.6880 N   0  0  0  0  0  0  0  0  0  0  0  0
    2.7060    1.4310    0.0870 C   0  0  0  0  0  0  0  0  0  0  0  0
    2.4690    1.7850   -1.1110 O   0  0  0  0  0  0  0  0  0  0  0  0
    3.8540    1.8630    0.7530 O   0  0  0  0  0  0  0  0  0  0  0  0
   -0.5400    0.6130    0.6630 O   0  0  0  0  0  0  0  0  0  0  0  0
  1  2  1  0
  2  3  2  0
  4  2  1  6
  4  5  1  0
  4 13  1  0
  5  6  1  0
  6  7  1  1
  6  8  1  0
  8  9  1  1
  8 13  1  0
  9 10  1  0
 10 11  2  0
 10 12  1  0
M  END
