
     RDKit          3D

  9  9  0  0  0  0  0  0  0  0999 V2000
    2.3030   -0.3590    0.5490 C   0  0  0  0  0  0  0  0  0  0  0  0
    1.5500   -0.6010   -0.7200 C   0  0  0  0  0  0  0  0  0  0  0  0
    0.2090   -0.0850   -0.7530 N   0  0  0  0  0  0  0  0  0  0  0  0
    0.1280    1.3210   -0.8150 C   0  0  0  0  0  0  0  0  0  0  0  0
   -0.5960    1.9740    0.2970 C   0  0  0  0  0  0  0  0  0  0  0  0
   -1.8040    1.3030    0.5000 O   0  0  0  0  0  0  0  0  0  0  0  0
   -1.4150    0.0840    1.1080 C   0  0  0  0  0  0  0  0  0  0  0  0
   -0.6890   -0.7760    0.1070 C   0  0  1  0  0  0  0  0  0  0  0  0
   -1.7200   -1.5380   -0.6890 C   0  0  0  0  0  0  0  0  0  0  0  0
  1  2  1  0
  2  3  1  0
  3  4  1  0
  3  8  1  0
  4  5  1  0
  5  6  1  0
  6  7  1  0
  7  8  1  0
  8  9  1  6
M  END
