
     RDKit          3D

 10 10  0  0  0  0  0  0  0  0999 V2000
    2.7620   -0.1700    0.5190 C   0  0  0  0  0  0  0  0  0  0  0  0
    1.7190   -0.6070   -0.3470 N   0  0  0  0  0  0  0  0  0  0  0  0
    0.3930   -0.1370    0.0800 C   0  0  2  0  0  0  0  0  0  0  0  0
   -0.5750   -1.1210   -0.4930 C   0  0  0  0  0  0  0  0  0  0  0  0
   -2.0080   -0.7930   -0.2920 C   0  0  0  0  0  0  0  0  0  0  0  0
   -2.2920    0.0090    0.9450 C   0  0  0  0  0  0  0  0  0  0  0  0
   -2.0740    1.3760    0.6490 O   0  0  0  0  0  0  0  0  0  0  0  0
   -1.0180    1.9090   -0.0760 C   0  0  0  0  0  0  0  0  0  0  0  0
   -1.1250    3.0850   -0.4880 O   0  0  0  0  0  0  0  0  0  0  0  0
    0.2450    1.2570   -0.4330 C   0  0  0  0  0  0  0  0  0  0  0  0
  1  2  1  0
  3  2  1  6
  3  4  1  0
  3 10  1  0
  4  5  1  0
  5  6  1  0
  6  7  1  0
  7  8  1  0
  8  9  2  0
  8 10  1  0
M  CHG  1   2   1
M  END
