
     RDKit          3D

 10 10  0  0  0  0  0  0  0  0999 V2000
   -0.1110    1.9600   -0.4780 C   0  0  0  0  0  0  0  0  0  0  0  0
    0.3150    0.7570    0.0830 N   0  0  0  0  0  0  0  0  0  0  0  0
    1.6230    0.6470    0.5710 C   0  0  0  0  0  0  0  0  0  0  0  0
    2.3680   -0.4400   -0.1540 C   0  0  0  0  0  0  0  0  0  0  0  0
    1.5300   -1.3070   -0.8470 O   0  0  0  0  0  0  0  0  0  0  0  0
    0.3760   -1.6130   -0.1390 C   0  0  0  0  0  0  0  0  0  0  0  0
   -0.5010   -0.3680    0.0340 C   0  0  1  0  0  0  0  0  0  0  0  0
   -1.1910   -0.5480    1.3870 C   0  0  0  0  0  0  0  0  0  0  0  0
   -1.4960   -0.3800   -1.0860 C   0  0  0  0  0  0  0  0  0  0  0  0
   -2.3840    0.6670   -1.0680 O   0  0  0  0  0  0  0  0  0  0  0  0
  1  2  1  0
  2  3  1  0
  2  7  1  0
  3  4  1  0
  4  5  1  0
  5  6  1  0
  6  7  1  0
  7  8  1  1
  7  9  1  0
  9 10  1  0
M  END
