
     RDKit          3D

 29 32  0  0  0  0  0  0  0  0999 V2000
   -3.4340   -4.6800    0.0920 C   0  0  0  0  0  0  0  0  0  0  0  0
   -3.4240   -3.1880    0.3240 C   0  0  0  0  0  0  0  0  0  0  0  0
   -3.9580   -2.3810   -0.5310 C   0  0  0  0  0  0  0  0  0  0  0  0
   -4.0620   -0.9520   -0.5150 C   0  0  0  0  0  0  0  0  0  0  0  0
   -4.6870   -0.2670   -1.5150 N   0  0  0  0  0  0  0  0  0  0  0  0
   -4.6620    1.0510   -1.2800 C   0  0  0  0  0  0  0  0  0  0  0  0
   -5.1370    2.1290   -1.9590 N   0  0  0  0  0  0  0  0  0  0  0  0
   -4.9890    3.3820   -1.5170 C   0  0  0  0  0  0  0  0  0  0  0  0
   -4.3280    3.5950   -0.3270 C   0  0  0  0  0  0  0  0  0  0  0  0
   -3.8270    2.5200    0.3980 C   0  0  0  0  0  0  0  0  0  0  0  0
   -4.0050    1.2480   -0.0980 C   0  0  0  0  0  0  0  0  0  0  0  0
   -3.6270   -0.0250    0.3810 C   0  0  0  0  0  0  0  0  0  0  0  0
   -2.8810   -0.2130    1.6320 C   0  0  0  0  0  0  0  0  0  0  0  0
   -1.4230   -0.4650    1.3890 C   0  0  0  0  0  0  0  0  0  0  0  0
   -0.7690    0.7060    0.6710 C   0  0  0  0  0  0  0  0  0  0  0  0
    0.6800    0.3530    0.4750 C   0  0  0  0  0  0  0  0  0  0  0  0
    1.0900   -0.7550    0.8820 O   0  0  0  0  0  0  0  0  0  0  0  0
    1.5790    1.2290   -0.1480 N   0  0  0  0  0  0  0  0  0  0  0  0
    2.9540    1.0260   -0.3960 C   0  0  0  0  0  0  0  0  0  0  0  0
    3.6770    2.0760   -0.9860 C   0  0  0  0  0  0  0  0  0  0  0  0
    5.0180    1.9700   -1.2690 C   0  0  0  0  0  0  0  0  0  0  0  0
    5.6970    0.8230   -0.9800 C   0  0  0  0  0  0  0  0  0  0  0  0
    5.0430   -0.2370   -0.4020 C   0  0  0  0  0  0  0  0  0  0  0  0
    3.6770   -0.0950   -0.1280 C   0  0  0  0  0  0  0  0  0  0  0  0
    5.7120   -1.4100   -0.1000 O   0  0  0  0  0  0  0  0  0  0  0  0
    7.0850   -1.5950   -0.2650 C   0  0  0  0  0  0  0  0  0  0  0  0
    7.7540   -0.4840   -0.9630 C   0  0  0  0  0  0  0  0  0  0  0  0
    8.9610   -0.6240   -1.2850 O   0  0  0  0  0  0  0  0  0  0  0  0
    7.0790    0.7120   -1.2720 N   0  0  0  0  0  0  0  0  0  0  0  0
  1  2  1  0
  2  3  2  3
  3  4  1  0
  4  5  1  0
  4 12  2  0
  5  6  1  0
  6  7  2  0
  6 11  1  0
  7  8  1  0
  8  9  2  0
  9 10  1  0
 10 11  2  0
 11 12  1  0
 12 13  1  0
 13 14  1  0
 14 15  1  0
 15 16  1  0
 16 17  2  0
 16 18  1  0
 18 19  1  0
 19 20  2  0
 19 24  1  0
 20 21  1  0
 21 22  2  0
 22 23  1  0
 22 29  1  0
 23 24  2  0
 23 25  1  0
 25 26  1  0
 26 27  1  0
 27 28  2  0
 27 29  1  0
M  END
