
     RDKit          3D

 29 32  0  0  0  0  0  0  0  0999 V2000
   -7.3720    1.6060    0.2380 C   0  0  0  0  0  0  0  0  0  0  0  0
   -6.3630    1.8520    1.3420 C   0  0  0  0  0  0  0  0  0  0  0  0
   -5.0170    1.3150    0.8640 C   0  0  0  0  0  0  0  0  0  0  0  0
   -5.1960   -0.0640    0.6170 O   0  0  0  0  0  0  0  0  0  0  0  0
   -4.1710   -0.8880    0.1640 C   0  0  0  0  0  0  0  0  0  0  0  0
   -4.4510   -2.2160   -0.0450 C   0  0  0  0  0  0  0  0  0  0  0  0
   -3.4450   -3.0410   -0.4920 C   0  0  0  0  0  0  0  0  0  0  0  0
   -2.1680   -2.5550   -0.7320 C   0  0  0  0  0  0  0  0  0  0  0  0
   -1.2240   -3.3980   -1.1670 N   0  0  0  0  0  0  0  0  0  0  0  0
    0.0150   -2.9180   -1.3980 C   0  0  0  0  0  0  0  0  0  0  0  0
    0.8900   -3.7120   -1.8040 O   0  0  0  0  0  0  0  0  0  0  0  0
    0.3470   -1.5900   -1.2030 C   0  0  0  0  0  0  0  0  0  0  0  0
   -0.5960   -0.7200   -0.7630 C   0  0  0  0  0  0  0  0  0  0  0  0
   -0.4090    0.7220   -0.5060 C   0  0  0  0  0  0  0  0  0  0  0  0
    0.9300    1.1960   -0.7610 N   0  0  0  0  0  0  0  0  0  0  0  0
    2.0680    0.6760   -0.0380 C   0  0  0  0  0  0  0  0  0  0  0  0
    1.9510    0.0120    1.0420 N   0  0  0  0  0  0  0  0  0  0  0  0
    3.2420   -0.3660    1.5210 C   0  0  2  0  0  0  0  0  0  0  0  0
    3.5160    0.1150    2.9270 C   0  0  0  0  0  0  0  0  0  0  0  0
    4.1890    0.1850    0.5410 C   0  0  0  0  0  0  0  0  0  0  0  0
    5.5660    0.1880    0.3990 C   0  0  0  0  0  0  0  0  0  0  0  0
    6.1260    0.8250   -0.6800 C   0  0  0  0  0  0  0  0  0  0  0  0
    7.6060    0.8320   -0.8380 C   0  0  0  0  0  0  0  0  0  0  0  0
    5.3940    1.4550   -1.6210 N   0  0  0  0  0  0  0  0  0  0  0  0
    4.0530    1.4760   -1.5200 C   0  0  0  0  0  0  0  0  0  0  0  0
    3.3170    2.0510   -2.3720 O   0  0  0  0  0  0  0  0  0  0  0  0
    3.4630    0.8290   -0.4230 C   0  0  0  0  0  0  0  0  0  0  0  0
   -1.8680   -1.2210   -0.5270 C   0  0  0  0  0  0  0  0  0  0  0  0
   -2.8890   -0.4160   -0.0800 C   0  0  0  0  0  0  0  0  0  0  0  0
  1  2  1  0
  2  3  1  0
  3  4  1  0
  4  5  1  0
  5  6  2  0
  5 29  1  0
  6  7  1  0
  7  8  2  0
  8  9  1  0
  8 28  1  0
  9 10  1  0
 10 11  2  0
 10 12  1  0
 12 13  2  0
 13 14  1  0
 13 28  1  0
 14 15  1  0
 15 16  1  0
 16 17  2  0
 16 27  1  0
 17 18  1  0
 18 19  1  1
 18 20  1  0
 20 21  1  0
 20 27  2  0
 21 22  2  0
 22 23  1  0
 22 24  1  0
 24 25  1  0
 25 26  2  0
 25 27  1  0
 28 29  2  0
M  END
