
     RDKit          3D

 29 33  0  0  0  0  0  0  0  0999 V2000
   -4.1450   -1.7130    2.0760 C   0  0  0  0  0  0  0  0  0  0  0  0
   -3.0330   -0.7670    1.6730 C   0  0  0  0  0  0  0  0  0  0  0  0
   -2.5130   -1.1580    0.3090 C   0  0  2  0  0  0  0  0  0  0  0  0
   -2.0050   -2.5470    0.4190 C   0  0  0  0  0  0  0  0  0  0  0  0
   -2.7860   -3.4930    0.1410 O   0  0  0  0  0  0  0  0  0  0  0  0
   -0.6660   -2.8050    0.8300 N   0  0  0  0  0  0  0  0  0  0  0  0
   -0.2730   -4.1000    1.3240 C   0  0  0  0  0  0  0  0  0  0  0  0
    0.2670   -1.7290    0.7310 C   0  0  0  0  0  0  0  0  0  0  0  0
    1.5860   -1.9010    1.1100 C   0  0  0  0  0  0  0  0  0  0  0  0
    2.4390   -0.8690    1.0050 N   0  0  0  0  0  0  0  0  0  0  0  0
    2.0720    0.3360    0.5440 C   0  0  0  0  0  0  0  0  0  0  0  0
    2.9620    1.4470    0.4240 N   0  0  0  0  0  0  0  0  0  0  0  0
    2.8280    2.6720    1.0020 C   0  0  0  0  0  0  0  0  0  0  0  0
    3.9020    3.4130    0.6160 C   0  0  0  0  0  0  0  0  0  0  0  0
    4.6360    2.6350   -0.1640 N   0  0  0  0  0  0  0  0  0  0  0  0
    4.0860    1.4170   -0.3040 C   0  0  0  0  0  0  0  0  0  0  0  0
    4.6380    0.2920   -1.1080 C   0  0  0  0  0  0  0  0  0  0  0  0
    5.7680    0.3670   -1.7960 C   0  0  0  0  0  0  0  0  0  0  0  0
    5.9450   -1.2880   -2.5740 S   0  0  0  0  0  0  0  0  0  0  0  0
    4.3320   -1.8130   -1.7580 C   0  0  0  0  0  0  0  0  0  0  0  0
    4.0310   -0.9010   -1.2010 N   0  0  0  0  0  0  0  0  0  0  0  0
    0.7900    0.4950    0.1780 N   0  0  0  0  0  0  0  0  0  0  0  0
   -0.1220   -0.4890    0.2550 C   0  0  0  0  0  0  0  0  0  0  0  0
   -1.4830   -0.2460   -0.1570 N   0  0  0  0  0  0  0  0  0  0  0  0
   -1.8500    0.8290   -0.9950 C   0  0  1  0  0  0  0  0  0  0  0  0
   -2.8770    1.7800   -0.4090 C   0  0  0  0  0  0  0  0  0  0  0  0
   -2.8870    2.9500   -1.3900 C   0  0  0  0  0  0  0  0  0  0  0  0
   -1.6350    2.7970   -2.2290 C   0  0  0  0  0  0  0  0  0  0  0  0
   -0.7930    1.7650   -1.4490 C   0  0  0  0  0  0  0  0  0  0  0  0
  1  2  1  0
  3  2  1  1
  3  4  1  0
  3 24  1  0
  4  5  2  0
  4  6  1  0
  6  7  1  0
  6  8  1  0
  8  9  2  0
  8 23  1  0
  9 10  1  0
 10 11  2  0
 11 12  1  0
 11 22  1  0
 12 13  1  0
 12 16  1  0
 13 14  2  0
 14 15  1  0
 15 16  2  0
 16 17  1  0
 17 18  2  0
 17 21  1  0
 18 19  1  0
 19 20  1  0
 20 21  2  0
 22 23  2  0
 23 24  1  0
 25 24  1  1
 25 26  1  0
 25 29  1  0
 26 27  1  0
 27 28  1  0
 28 29  1  0
M  END
