
     RDKit          3D

 30 33  0  0  0  0  0  0  0  0999 V2000
   -6.3310    4.5190    0.1990 C   0  0  0  0  0  0  0  0  0  0  0  0
   -5.2030    3.5480    0.2650 C   0  0  0  0  0  0  0  0  0  0  0  0
   -4.1600    3.5960   -0.6490 C   0  0  0  0  0  0  0  0  0  0  0  0
   -3.1080    2.7120   -0.6100 C   0  0  0  0  0  0  0  0  0  0  0  0
   -3.0790    1.7530    0.3570 C   0  0  0  0  0  0  0  0  0  0  0  0
   -1.9910    0.7460    0.4920 C   0  0  0  0  0  0  0  0  0  0  0  0
   -2.0740   -0.0980    1.4260 N   0  0  0  0  0  0  0  0  0  0  0  0
   -1.1360   -1.1270    1.7000 C   0  0  0  0  0  0  0  0  0  0  0  0
   -1.8330   -2.4650    1.9800 C   0  0  0  0  0  0  0  0  0  0  0  0
   -2.6270   -2.7990    0.7220 C   0  0  1  0  0  0  0  0  0  0  0  0
   -1.7300   -2.9210   -0.4760 C   0  0  0  0  0  0  0  0  0  0  0  0
   -3.2730   -4.0780    0.9800 N   0  0  0  0  0  0  0  0  0  0  0  0
   -0.8960    0.7430   -0.3970 N   0  0  0  0  0  0  0  0  0  0  0  0
    0.4740    0.7930   -0.0010 C   0  0  0  0  0  0  0  0  0  0  0  0
    0.9310    1.1520    1.2390 C   0  0  0  0  0  0  0  0  0  0  0  0
    2.2660    1.1680    1.5530 C   0  0  0  0  0  0  0  0  0  0  0  0
    3.2440    0.8180    0.6220 C   0  0  0  0  0  0  0  0  0  0  0  0
    4.5870    0.8430    0.9650 O   0  0  0  0  0  0  0  0  0  0  0  0
    5.5280    0.4630    0.0500 C   0  0  0  0  0  0  0  0  0  0  0  0
    6.5380    1.2770   -0.4260 C   0  0  0  0  0  0  0  0  0  0  0  0
    7.2720    0.5770   -1.3060 N   0  0  0  0  0  0  0  0  0  0  0  0
    6.7350   -0.6730   -1.3910 C   0  0  0  0  0  0  0  0  0  0  0  0
    5.6430   -0.7720   -0.5530 C   0  0  0  0  0  0  0  0  0  0  0  0
    5.1310   -1.9530   -0.6270 N   0  0  0  0  0  0  0  0  0  0  0  0
    5.8820   -2.7540   -1.5650 C   0  0  0  0  0  0  0  0  0  0  0  0
    6.9330   -1.8170   -2.0230 C   0  0  0  0  0  0  0  0  0  0  0  0
    2.7830    0.4580   -0.6260 C   0  0  0  0  0  0  0  0  0  0  0  0
    1.4410    0.4440   -0.9340 C   0  0  0  0  0  0  0  0  0  0  0  0
   -4.1070    1.6930    1.2720 C   0  0  0  0  0  0  0  0  0  0  0  0
   -5.1870    2.5820    1.2500 C   0  0  0  0  0  0  0  0  0  0  0  0
  1  2  1  0
  2  3  2  0
  2 30  1  0
  3  4  1  0
  4  5  2  0
  5  6  1  0
  5 29  1  0
  6  7  2  3
  6 13  1  0
  7  8  1  0
  8  9  1  0
  9 10  1  0
 10 11  1  6
 10 12  1  0
 13 14  1  0
 14 15  2  0
 14 28  1  0
 15 16  1  0
 16 17  2  0
 17 18  1  0
 17 27  1  0
 18 19  1  0
 19 20  2  0
 19 23  1  0
 20 21  1  0
 21 22  1  0
 22 23  1  0
 22 26  2  0
 23 24  2  0
 24 25  1  0
 25 26  1  0
 27 28  2  0
 29 30  2  0
M  CHG  1  12   1
M  END
