
     RDKit          3D

 29 32  0  0  0  0  0  0  0  0999 V2000
  -10.0320   -1.2650   -0.8560 C   0  0  0  0  0  0  0  0  0  0  0  0
   -8.8460   -0.5130   -0.3630 C   0  0  0  0  0  0  0  0  0  0  0  0
   -8.9060    0.6540    0.3730 C   0  0  0  0  0  0  0  0  0  0  0  0
   -7.5870    0.9790    0.5980 C   0  0  0  0  0  0  0  0  0  0  0  0
   -6.8050    0.0210    0.0040 C   0  0  0  0  0  0  0  0  0  0  0  0
   -5.3350    0.0220    0.0260 C   0  0  0  0  0  0  0  0  0  0  0  0
   -4.6490    0.9580    0.6270 C   0  0  0  0  0  0  0  0  0  0  0  0
   -3.1870    1.0240    0.6890 C   0  0  0  0  0  0  0  0  0  0  0  0
   -2.6510    1.9870    1.3060 O   0  0  0  0  0  0  0  0  0  0  0  0
   -2.3490    0.0680    0.0980 N   0  0  0  0  0  0  0  0  0  0  0  0
   -0.9300    0.0380    0.1050 C   0  0  0  0  0  0  0  0  0  0  0  0
   -0.3410   -0.8940   -0.7660 C   0  0  0  0  0  0  0  0  0  0  0  0
    1.0040   -1.0420   -0.8570 C   0  0  0  0  0  0  0  0  0  0  0  0
    1.8030   -0.2560   -0.0750 C   0  0  0  0  0  0  0  0  0  0  0  0
    3.2600   -0.4340   -0.1890 C   0  0  0  0  0  0  0  0  0  0  0  0
    4.0860    0.6240   -0.2800 N   0  0  0  0  0  0  0  0  0  0  0  0
    5.4020    0.5480   -0.3830 N   0  0  0  0  0  0  0  0  0  0  0  0
    6.3990    1.4520   -0.4830 C   0  0  0  0  0  0  0  0  0  0  0  0
    6.2550    2.9260   -0.5060 C   0  0  0  0  0  0  0  0  0  0  0  0
    7.5850    0.7610   -0.5610 C   0  0  0  0  0  0  0  0  0  0  0  0
    7.2940   -0.6020   -0.5060 C   0  0  0  0  0  0  0  0  0  0  0  0
    8.2460   -1.7390   -0.5560 C   0  0  0  0  0  0  0  0  0  0  0  0
    5.9370   -0.7010   -0.3960 C   0  0  0  0  0  0  0  0  0  0  0  0
    5.1530   -1.7920   -0.3080 N   0  0  0  0  0  0  0  0  0  0  0  0
    3.8110   -1.6840   -0.2040 C   0  0  0  0  0  0  0  0  0  0  0  0
    3.0510   -2.6760   -0.1200 O   0  0  0  0  0  0  0  0  0  0  0  0
    1.2480    0.6630    0.7840 C   0  0  0  0  0  0  0  0  0  0  0  0
   -0.1400    0.8330    0.8960 C   0  0  0  0  0  0  0  0  0  0  0  0
   -7.5990   -0.8420   -0.5540 O   0  0  0  0  0  0  0  0  0  0  0  0
  1  2  1  0
  2  3  2  0
  2 29  1  0
  3  4  1  0
  4  5  2  0
  5  6  1  0
  5 29  1  0
  6  7  2  3
  7  8  1  0
  8  9  2  0
  8 10  1  0
 10 11  1  0
 11 12  2  0
 11 28  1  0
 12 13  1  0
 13 14  2  0
 14 15  1  0
 14 27  1  0
 15 16  2  0
 15 25  1  0
 16 17  1  0
 17 18  1  0
 17 23  1  0
 18 19  1  0
 18 20  2  0
 20 21  1  0
 21 22  1  0
 21 23  2  0
 23 24  1  0
 24 25  1  0
 25 26  2  0
 27 28  2  0
M  END
