
     RDKit          3D

 29 32  0  0  0  0  0  0  0  0999 V2000
    5.8850    3.0210   -0.9330 C   0  0  0  0  0  0  0  0  0  0  0  0
    6.0000    2.0510    0.2240 C   0  0  0  0  0  0  0  0  0  0  0  0
    5.0920    0.8880    0.0520 C   0  0  0  0  0  0  0  0  0  0  0  0
    5.5680   -0.2170   -0.6090 C   0  0  0  0  0  0  0  0  0  0  0  0
    4.7780   -1.3230   -0.7970 C   0  0  0  0  0  0  0  0  0  0  0  0
    5.2020   -2.3460   -1.4020 O   0  0  0  0  0  0  0  0  0  0  0  0
    3.4890   -1.2960   -0.3030 N   0  0  0  0  0  0  0  0  0  0  0  0
    2.7740   -2.5430   -0.4830 C   0  0  0  0  0  0  0  0  0  0  0  0
    3.0460   -3.4670    0.7240 C   0  0  0  0  0  0  0  0  0  0  0  0
    3.0290   -0.2310    0.3300 C   0  0  0  0  0  0  0  0  0  0  0  0
    1.6690   -0.0820    0.7870 C   0  0  0  0  0  0  0  0  0  0  0  0
    1.5870    0.3710    1.9940 O   0  0  0  0  0  0  0  0  0  0  0  0
    0.4820   -0.3450    0.1200 N   0  0  0  0  0  0  0  0  0  0  0  0
   -0.8330   -0.2030    0.6430 C   0  0  0  0  0  0  0  0  0  0  0  0
   -1.0600   -0.2110    1.9870 C   0  0  0  0  0  0  0  0  0  0  0  0
   -2.3340   -0.0480    2.4860 C   0  0  0  0  0  0  0  0  0  0  0  0
   -3.4120    0.1290    1.5810 C   0  0  0  0  0  0  0  0  0  0  0  0
   -3.1690    0.1340    0.2360 C   0  0  0  0  0  0  0  0  0  0  0  0
   -1.9140   -0.0260   -0.2570 C   0  0  0  0  0  0  0  0  0  0  0  0
   -4.2510    0.3070   -0.7240 C   0  0  0  0  0  0  0  0  0  0  0  0
   -4.0510    0.3230   -2.0810 C   0  0  0  0  0  0  0  0  0  0  0  0
   -5.1470    0.4990   -2.9190 C   0  0  0  0  0  0  0  0  0  0  0  0
   -4.9630    0.5170   -4.2960 O   0  0  0  0  0  0  0  0  0  0  0  0
   -6.4250    0.6570   -2.4380 C   0  0  0  0  0  0  0  0  0  0  0  0
   -6.6430    0.6440   -1.0720 C   0  0  0  0  0  0  0  0  0  0  0  0
   -5.5570    0.4700   -0.2400 C   0  0  0  0  0  0  0  0  0  0  0  0
   -5.7780    0.4510    1.1540 N   0  0  0  0  0  0  0  0  0  0  0  0
   -4.7570    0.3050    2.1350 C   0  0  0  0  0  0  0  0  0  0  0  0
    3.8360    0.8390    0.4980 N   0  0  0  0  0  0  0  0  0  0  0  0
  1  2  1  0
  2  3  1  0
  3  4  2  0
  3 29  1  0
  4  5  1  0
  5  6  2  0
  5  7  1  0
  7  8  1  0
  7 10  1  0
  8  9  1  0
 10 11  1  0
 10 29  2  0
 11 12  2  0
 11 13  1  0
 13 14  1  0
 14 15  2  0
 14 19  1  0
 15 16  1  0
 16 17  2  0
 17 18  1  0
 17 28  1  0
 18 19  2  0
 18 20  1  0
 20 21  2  0
 20 26  1  0
 21 22  1  0
 22 23  1  0
 22 24  2  0
 24 25  1  0
 25 26  2  0
 26 27  1  0
 27 28  1  0
M  END
