
     RDKit          3D

 29 32  0  0  0  0  0  0  0  0999 V2000
   -7.0780   -3.1800    0.9260 C   0  0  0  0  0  0  0  0  0  0  0  0
   -6.6450   -1.7340    0.8680 C   0  0  0  0  0  0  0  0  0  0  0  0
   -7.2880   -0.8150    1.6880 C   0  0  0  0  0  0  0  0  0  0  0  0
   -6.9210    0.4870    1.6310 C   0  0  0  0  0  0  0  0  0  0  0  0
   -5.9040    0.9230    0.7580 C   0  0  0  0  0  0  0  0  0  0  0  0
   -5.3930    2.1320    0.5170 N   0  0  0  0  0  0  0  0  0  0  0  0
   -4.4430    2.0350   -0.4250 C   0  0  0  0  0  0  0  0  0  0  0  0
   -3.7360    3.2020   -0.9850 C   0  0  0  0  0  0  0  0  0  0  0  0
   -2.5490    2.8720   -1.8470 C   0  0  0  0  0  0  0  0  0  0  0  0
   -1.4900    2.3330   -1.1300 N   0  0  0  0  0  0  0  0  0  0  0  0
   -0.2090    1.8790   -1.8170 C   0  0  0  0  0  0  0  0  0  0  0  0
   -0.3140    1.9880   -3.0320 O   0  0  0  0  0  0  0  0  0  0  0  0
    0.6610    1.4950   -0.8770 N   0  0  0  0  0  0  0  0  0  0  0  0
    1.8900    0.8910   -1.9340 C   0  0  0  0  0  0  0  0  0  0  0  0
    1.5760    0.9740   -3.0640 O   0  0  0  0  0  0  0  0  0  0  0  0
    3.0400    0.4040   -1.2450 C   0  0  0  0  0  0  0  0  0  0  0  0
    3.5210    0.5870    0.0180 C   0  0  0  0  0  0  0  0  0  0  0  0
    4.6850   -0.1340    0.1730 C   0  0  0  0  0  0  0  0  0  0  0  0
    5.5990   -0.3450    1.1870 C   0  0  0  0  0  0  0  0  0  0  0  0
    6.7100   -1.1710    1.0020 C   0  0  0  0  0  0  0  0  0  0  0  0
    7.6320   -1.3450    2.1200 C   0  0  0  0  0  0  0  0  0  0  0  0
    6.8960   -1.7770   -0.1980 C   0  0  0  0  0  0  0  0  0  0  0  0
    8.0430   -2.6780   -0.4330 C   0  0  0  0  0  0  0  0  0  0  0  0
    5.9850   -1.5630   -1.2060 C   0  0  0  0  0  0  0  0  0  0  0  0
    4.8750   -0.7490   -1.0460 C   0  0  0  0  0  0  0  0  0  0  0  0
    3.9060   -0.4210   -1.8550 O   0  0  0  0  0  0  0  0  0  0  0  0
   -4.3650    0.7350   -0.7680 N   0  0  0  0  0  0  0  0  0  0  0  0
   -5.2570    0.0280   -0.0580 C   0  0  0  0  0  0  0  0  0  0  0  0
   -5.6540   -1.3090    0.0210 C   0  0  0  0  0  0  0  0  0  0  0  0
  1  2  1  0
  2  3  2  0
  2 29  1  0
  3  4  1  0
  4  5  2  0
  5  6  1  0
  5 28  1  0
  6  7  1  0
  7  8  1  0
  7 27  2  0
  8  9  1  0
  9 10  1  0
 10 11  1  0
 11 12  2  0
 11 13  1  0
 13 14  1  0
 14 15  2  0
 14 16  1  0
 16 17  2  0
 16 26  1  0
 17 18  1  0
 18 19  2  0
 18 25  1  0
 19 20  1  0
 20 21  1  0
 20 22  2  0
 22 23  1  0
 22 24  1  0
 24 25  2  0
 25 26  1  0
 27 28  1  0
 28 29  2  0
M  END
