
     RDKit          3D

 20 22  0  0  0  0  0  0  0  0999 V2000
    5.6550   -0.5290   -0.6330 N   0  0  0  0  0  0  0  0  0  0  0  0
    4.6280    0.2620   -0.0570 C   0  0  0  0  0  0  0  0  0  0  0  0
    4.8930    1.3050    0.7510 N   0  0  0  0  0  0  0  0  0  0  0  0
    3.9290    2.0620    1.3030 C   0  0  0  0  0  0  0  0  0  0  0  0
    2.6380    1.7780    1.0480 N   0  0  0  0  0  0  0  0  0  0  0  0
    2.3190    0.7520    0.2530 C   0  0  0  0  0  0  0  0  0  0  0  0
    1.0960    0.2510   -0.1660 C   0  0  0  0  0  0  0  0  0  0  0  0
   -0.2590    0.7840    0.2030 C   0  0  0  0  0  0  0  0  0  0  0  0
   -1.2310   -0.0410   -0.4580 N   0  0  1  0  0  0  0  0  0  0  0  0
   -1.1910   -1.3510    0.1610 C   0  0  0  0  0  0  0  0  0  0  0  0
   -2.3310   -1.2910    1.1560 C   0  0  2  0  0  0  0  0  0  0  0  0
   -2.7240   -2.5490    1.5680 O   0  0  0  0  0  0  0  0  0  0  0  0
   -3.4030   -0.5890    0.3310 C   0  0  2  0  0  0  0  0  0  0  0  0
   -3.9100   -1.5140   -0.5590 O   0  0  0  0  0  0  0  0  0  0  0  0
   -2.5640    0.4390   -0.4110 C   0  0  1  0  0  0  0  0  0  0  0  0
   -2.7280    1.7480    0.3140 C   0  0  0  0  0  0  0  0  0  0  0  0
   -4.1060    2.0620    0.2570 O   0  0  0  0  0  0  0  0  0  0  0  0
    1.3990   -0.8220   -0.9800 C   0  0  0  0  0  0  0  0  0  0  0  0
    2.7310   -0.9880   -1.0690 N   0  0  0  0  0  0  0  0  0  0  0  0
    3.2930   -0.0360   -0.3230 C   0  0  0  0  0  0  0  0  0  0  0  0
  1  2  1  0
  2  3  2  0
  2 20  1  0
  3  4  1  0
  4  5  2  0
  5  6  1  0
  6  7  1  0
  6 20  2  0
  7  8  1  0
  7 18  2  0
  9  8  1  1
  9 10  1  0
  9 15  1  0
 10 11  1  0
 11 12  1  6
 11 13  1  0
 13 14  1  6
 13 15  1  0
 15 16  1  1
 16 17  1  0
 18 19  1  0
 19 20  1  0
M  CHG  1   9   1
M  END
