
     RDKit          3D

 12 12  0  0  0  0  0  0  0  0999 V2000
    4.2160   -0.6360    0.1320 C   0  0  0  0  0  0  0  0  0  0  0  0
    2.9440   -0.0310    0.0690 O   0  0  0  0  0  0  0  0  0  0  0  0
    1.7560   -0.7430   -0.0180 C   0  0  0  0  0  0  0  0  0  0  0  0
    1.8340   -1.9850   -0.0400 O   0  0  0  0  0  0  0  0  0  0  0  0
    0.4520   -0.0920   -0.0820 C   0  0  0  0  0  0  0  0  0  0  0  0
    0.1520    1.2490   -0.0710 C   0  0  0  0  0  0  0  0  0  0  0  0
   -1.2040    1.4480   -0.1480 C   0  0  0  0  0  0  0  0  0  0  0  0
   -2.1550    2.9360   -0.1720 S   0  0  0  0  0  0  0  0  0  0  0  0
   -1.7520    0.1690   -0.2090 C   0  0  0  0  0  0  0  0  0  0  0  0
   -3.1970   -0.1270   -0.3020 C   0  0  0  0  0  0  0  0  0  0  0  0
   -3.3520   -1.5120   -0.3420 O   0  0  0  0  0  0  0  0  0  0  0  0
   -0.7340   -0.7180   -0.1670 N   0  0  0  0  0  0  0  0  0  0  0  0
  1  2  1  0
  2  3  1  0
  3  4  2  0
  3  5  1  0
  5  6  2  0
  5 12  1  0
  6  7  1  0
  7  8  1  0
  7  9  2  0
  9 10  1  0
  9 12  1  0
 10 11  1  0
M  END
