
     RDKit          3D

 12 12  0  0  0  0  0  0  0  0999 V2000
   -0.2460    2.3170   -0.5930 C   0  0  0  0  0  0  0  0  0  0  0  0
   -0.6030    1.0580   -0.3070 C   0  0  0  0  0  0  0  0  0  0  0  0
   -1.9650    0.6550   -0.4070 N   0  0  0  0  0  0  0  0  0  0  0  0
   -2.4200   -0.6580   -0.1210 C   0  0  0  0  0  0  0  0  0  0  0  0
   -3.3290   -1.2130   -0.8300 O   0  0  0  0  0  0  0  0  0  0  0  0
   -1.8590   -1.4200    1.0010 C   0  0  0  0  0  0  0  0  0  0  0  0
   -0.0660   -1.2360    1.1620 S   0  0  0  0  0  0  0  0  0  0  0  0
    0.4400    0.1250    0.1060 C   0  0  0  0  0  0  0  0  0  0  0  0
    1.7070    0.2680   -0.2780 C   0  0  0  0  0  0  0  0  0  0  0  0
    2.6960   -0.6920    0.1650 C   0  0  0  0  0  0  0  0  0  0  0  0
    2.3670   -1.6520    0.9070 O   0  0  0  0  0  0  0  0  0  0  0  0
    4.0290   -0.5930   -0.2040 O   0  0  0  0  0  0  0  0  0  0  0  0
  1  2  2  0
  2  3  1  0
  2  8  1  0
  3  4  1  0
  4  5  2  0
  4  6  1  0
  6  7  1  0
  7  8  1  0
  8  9  2  3
  9 10  1  0
 10 11  2  0
 10 12  1  0
M  END
