
     RDKit          3D

 18 19  0  0  0  0  0  0  0  0999 V2000
    0.5390   -1.1750    2.1650 N   0  0  0  0  0  0  0  0  0  0  0  0
    0.0840   -0.8040    0.8050 C   0  0  1  0  0  0  0  0  0  0  0  0
    1.2990   -0.2060    0.1740 C   0  0  0  0  0  0  0  0  0  0  0  0
    1.8240   -0.6470   -0.9450 C   0  0  0  0  0  0  0  0  0  0  0  0
    3.0400   -0.0430   -1.5720 C   0  0  0  0  0  0  0  0  0  0  0  0
    3.8090    0.6540   -0.5390 N   0  0  0  0  0  0  0  0  0  0  0  0
    2.9180    1.6660   -0.0060 C   0  0  0  0  0  0  0  0  0  0  0  0
    1.9130    0.9440    0.8810 C   0  0  0  0  0  0  0  0  0  0  0  0
   -0.3710   -1.9660    0.1490 N   0  0  0  0  0  0  0  0  0  0  0  0
   -1.5280   -2.0770   -0.3640 C   0  0  0  0  0  0  0  0  0  0  0  0
   -1.9840   -3.3360   -1.0620 C   0  0  0  0  0  0  0  0  0  0  0  0
   -3.0920   -3.7820   -0.3360 O   0  0  0  0  0  0  0  0  0  0  0  0
   -2.4910   -1.0330   -0.3070 N   0  0  0  0  0  0  0  0  0  0  0  0
   -2.2020    0.0790    0.2850 C   0  0  0  0  0  0  0  0  0  0  0  0
   -3.1820    1.2010    0.3650 C   0  0  0  0  0  0  0  0  0  0  0  0
   -2.7170    2.4530   -0.3040 C   0  0  0  0  0  0  0  0  0  0  0  0
   -1.5420    2.9730    0.2230 O   0  0  0  0  0  0  0  0  0  0  0  0
   -0.9260    0.2170    0.8810 N   0  0  0  0  0  0  0  0  0  0  0  0
  2  1  1  1
  2  3  1  0
  2  9  1  0
  2 18  1  0
  3  4  2  0
  3  8  1  0
  4  5  1  0
  5  6  1  0
  6  7  1  0
  7  8  1  0
  9 10  2  0
 10 11  1  0
 10 13  1  0
 11 12  1  0
 13 14  2  0
 14 15  1  0
 14 18  1  0
 15 16  1  0
 16 17  1  0
M  CHG  1   6   1
M  END
