
     RDKit          3D

 19 21  0  0  0  0  0  0  0  0999 V2000
   -0.1200   -3.6760   -0.5400 N   0  0  0  0  0  0  0  0  0  0  0  0
   -0.8470   -2.5050   -0.2520 C   0  0  0  0  0  0  0  0  0  0  0  0
   -2.2030   -2.4860   -0.0850 C   0  0  0  0  0  0  0  0  0  0  0  0
   -2.8200   -3.5890   -0.1990 O   0  0  0  0  0  0  0  0  0  0  0  0
   -2.8580   -1.3620    0.1870 N   0  0  0  0  0  0  0  0  0  0  0  0
   -2.2470   -0.1440    0.3210 C   0  0  0  0  0  0  0  0  0  0  0  0
   -3.1270    0.9230    0.6260 N   0  0  0  0  0  0  0  0  0  0  0  0
   -0.8920   -0.0870    0.1660 C   0  0  0  0  0  0  0  0  0  0  0  0
   -0.2480    1.1270    0.2990 C   0  0  0  0  0  0  0  0  0  0  0  0
   -0.8250    2.4090    0.5480 C   0  0  0  0  0  0  0  0  0  0  0  0
    0.0680    3.3890    0.5690 O   0  0  0  0  0  0  0  0  0  0  0  0
   -2.0560    2.9260    0.7750 O   0  0  0  0  0  0  0  0  0  0  0  0
    1.1590    1.0650    0.1250 C   0  0  0  0  0  0  0  0  0  0  0  0
    1.7770   -0.1140   -0.1520 C   0  0  0  0  0  0  0  0  0  0  0  0
    1.1100   -1.2640   -0.2720 N   0  0  0  0  0  0  0  0  0  0  0  0
   -0.2030   -1.2790   -0.1200 C   0  0  0  0  0  0  0  0  0  0  0  0
    3.2570    0.1410   -0.2920 C   0  0  0  0  0  0  0  0  0  0  0  0
    3.2610    1.6430   -0.5810 C   0  0  0  0  0  0  0  0  0  0  0  0
    2.1310    2.0960    0.2230 N   0  0  0  0  0  0  0  0  0  0  0  0
  1  2  1  0
  2  3  1  0
  2 16  2  0
  3  4  2  0
  3  5  1  0
  5  6  1  0
  6  7  1  0
  6  8  2  0
  8  9  1  0
  8 16  1  0
  9 10  1  0
  9 13  2  0
 10 11  2  0
 10 12  1  0
 13 14  1  0
 13 19  1  0
 14 15  2  0
 14 17  1  0
 15 16  1  0
 17 18  1  0
 18 19  1  0
M  CHG  1  15   1
M  END
