
     RDKit          3D

 19 20  0  0  0  0  0  0  0  0999 V2000
    6.0150   -0.6030    0.8720 C   0  0  0  0  0  0  0  0  0  0  0  0
    5.7040    0.4350    0.1360 C   0  0  0  0  0  0  0  0  0  0  0  0
    6.7120    1.3700   -0.2940 N   0  0  0  0  0  0  0  0  0  0  0  0
    4.3370    0.7010   -0.2850 C   0  0  0  0  0  0  0  0  0  0  0  0
    4.0820    1.7320   -1.0050 O   0  0  0  0  0  0  0  0  0  0  0  0
    3.2300   -0.1030    0.0420 N   0  0  0  0  0  0  0  0  0  0  0  0
    1.9320    0.2450   -0.4210 N   0  0  0  0  0  0  0  0  0  0  0  0
    0.8270   -0.6160   -0.2200 C   0  0  0  0  0  0  0  0  0  0  0  0
    1.0660   -1.7040    0.3910 O   0  0  0  0  0  0  0  0  0  0  0  0
   -0.4950   -0.3250   -0.6570 N   0  0  0  0  0  0  0  0  0  0  0  0
   -1.5300   -1.3200   -0.3720 C   0  0  0  0  0  0  0  0  0  0  0  0
   -2.8720   -0.8920   -0.8830 C   0  0  1  0  0  0  0  0  0  0  0  0
   -3.8560   -1.9940   -0.5320 C   0  0  0  0  0  0  0  0  0  0  0  0
   -5.0870   -1.2790   -0.4450 O   0  0  0  0  0  0  0  0  0  0  0  0
   -4.7910   -0.0700    0.1980 C   0  0  0  0  0  0  0  0  0  0  0  0
   -5.2680    0.9130    0.9390 C   0  0  0  0  0  0  0  0  0  0  0  0
   -4.2610    1.8400    1.1950 N   0  0  0  0  0  0  0  0  0  0  0  0
   -3.1020    1.3590    0.5520 C   0  0  0  0  0  0  0  0  0  0  0  0
   -3.3930    0.2290   -0.0450 C   0  0  0  0  0  0  0  0  0  0  0  0
  1  2  2  0
  2  3  1  0
  2  4  1  0
  4  5  2  0
  4  6  1  0
  6  7  1  0
  7  8  1  0
  8  9  2  0
  8 10  1  0
 10 11  1  0
 12 11  1  1
 12 13  1  0
 12 19  1  0
 13 14  1  0
 14 15  1  0
 15 16  2  0
 15 19  1  0
 16 17  1  0
 17 18  1  0
 18 19  2  0
M  CHG  1  17   1
M  END
