
     RDKit          3D

 19 20  0  0  0  0  0  0  0  0999 V2000
   -3.4460    1.8270    0.6020 N   0  0  0  0  0  0  0  0  0  0  0  0
   -3.2470    1.3440   -0.7260 C   0  0  2  0  0  0  0  0  0  0  0  0
   -4.0310    0.0970   -1.0400 C   0  0  0  0  0  0  0  0  0  0  0  0
   -3.5850   -1.0260   -0.1790 C   0  0  2  0  0  0  0  0  0  0  0  0
   -4.4080   -1.0940    0.9700 O   0  0  0  0  0  0  0  0  0  0  0  0
   -2.1800   -0.9750    0.2790 C   0  0  0  0  0  0  0  0  0  0  0  0
   -1.2560   -0.1870   -0.6000 C   0  0  2  0  0  0  0  0  0  0  0  0
   -0.0130    0.1080    0.0980 N   0  0  0  0  0  0  0  0  0  0  0  0
    1.2490   -0.3660   -0.3580 C   0  0  0  0  0  0  0  0  0  0  0  0
    1.2440   -1.0610   -1.4060 O   0  0  0  0  0  0  0  0  0  0  0  0
    2.4940   -0.0560    0.3640 C   0  0  0  0  0  0  0  0  0  0  0  0
    2.4420    0.6310    1.3890 O   0  0  0  0  0  0  0  0  0  0  0  0
    3.7080   -0.5720   -0.1660 N   0  0  0  0  0  0  0  0  0  0  0  0
    4.9530   -0.3310    0.4520 C   0  0  0  0  0  0  0  0  0  0  0  0
    5.2620    0.3810    1.5890 C   0  0  0  0  0  0  0  0  0  0  0  0
    6.5980    0.3090    1.7530 N   0  0  0  0  0  0  0  0  0  0  0  0
    7.1230   -0.4070    0.7800 N   0  0  0  0  0  0  0  0  0  0  0  0
    6.1530   -0.8240   -0.0460 C   0  0  0  0  0  0  0  0  0  0  0  0
   -1.8200    1.1110   -1.0790 C   0  0  0  0  0  0  0  0  0  0  0  0
  2  1  1  1
  2  3  1  0
  2 19  1  0
  3  4  1  0
  4  5  1  1
  4  6  1  0
  6  7  1  0
  7  8  1  1
  7 19  1  0
  8  9  1  0
  9 10  2  0
  9 11  1  0
 11 12  2  0
 11 13  1  0
 13 14  1  0
 14 15  1  0
 14 18  2  0
 15 16  2  0
 16 17  1  0
 17 18  1  0
M  CHG  1   1   1
M  END
