
     RDKit          3D

 19 21  0  0  0  0  0  0  0  0999 V2000
    3.5670    1.2290    0.3180 C   0  0  0  0  0  0  0  0  0  0  0  0
    2.2960    1.1420   -0.4190 C   0  0  0  0  0  0  0  0  0  0  0  0
    1.4090    0.1940   -0.3420 C   0  0  0  0  0  0  0  0  0  0  0  0
    1.4630   -0.9970    0.4870 C   0  0  0  0  0  0  0  0  0  0  0  0
    2.0580   -1.1800    1.6140 N   0  0  0  0  0  0  0  0  0  0  0  0
    0.6750   -1.9820   -0.2140 N   0  0  0  0  0  0  0  0  0  0  0  0
    0.1630   -1.3880   -1.4180 C   0  0  1  0  0  0  0  0  0  0  0  0
   -1.1370   -1.9510   -1.6730 N   0  0  0  0  0  0  0  0  0  0  0  0
   -2.2760   -1.5560   -0.9380 C   0  0  0  0  0  0  0  0  0  0  0  0
   -3.3010   -2.2500   -0.8620 O   0  0  0  0  0  0  0  0  0  0  0  0
   -2.2120   -0.2590   -0.2430 C   0  0  0  0  0  0  0  0  0  0  0  0
   -3.2920    0.1160    0.4630 N   0  0  0  0  0  0  0  0  0  0  0  0
   -3.2700    1.2820    1.1120 C   0  0  0  0  0  0  0  0  0  0  0  0
   -4.2850    1.6650    1.7920 O   0  0  0  0  0  0  0  0  0  0  0  0
   -2.1750    2.0430    1.0420 N   0  0  0  0  0  0  0  0  0  0  0  0
   -1.0630    1.6870    0.3330 C   0  0  0  0  0  0  0  0  0  0  0  0
   -0.1300    2.4960    0.3640 O   0  0  0  0  0  0  0  0  0  0  0  0
   -1.0580    0.4890   -0.3470 C   0  0  0  0  0  0  0  0  0  0  0  0
    0.1150    0.0900   -1.1150 C   0  0  1  0  0  0  0  0  0  0  0  0
  1  2  1  0
  2  3  2  3
  3  4  1  0
 19  3  1  1
  4  5  2  0
  4  6  1  0
  7  6  1  1
  7  8  1  0
  7 19  1  0
  8  9  1  0
  9 10  2  0
  9 11  1  0
 11 12  1  0
 11 18  2  0
 12 13  1  0
 13 14  2  0
 13 15  1  0
 15 16  1  0
 16 17  2  0
 16 18  1  0
 18 19  1  0
M  CHG  1   5   1
M  END
