
     RDKit          3D

 19 20  0  0  0  0  0  0  0  0999 V2000
   -4.1850    0.3500   -2.0260 N   0  0  0  0  0  0  0  0  0  0  0  0
   -4.4010   -0.3210   -0.7790 C   0  0  0  0  0  0  0  0  0  0  0  0
   -3.1630   -0.6750   -0.0180 C   0  0  2  0  0  0  0  0  0  0  0  0
   -3.6580   -1.3670    1.2620 C   0  0  0  0  0  0  0  0  0  0  0  0
   -3.9840   -0.3790    2.1430 O   0  0  0  0  0  0  0  0  0  0  0  0
   -3.5650    0.8560    1.6700 C   0  0  0  0  0  0  0  0  0  0  0  0
   -2.4960    0.5470    0.6450 C   0  0  1  0  0  0  0  0  0  0  0  0
   -1.3330    0.0540    1.3110 N   0  0  0  0  0  0  0  0  0  0  0  0
   -0.0170    0.3830    0.8900 C   0  0  0  0  0  0  0  0  0  0  0  0
    0.1270    1.1310   -0.1010 O   0  0  0  0  0  0  0  0  0  0  0  0
    1.1310   -0.1280    1.5730 N   0  0  0  0  0  0  0  0  0  0  0  0
    2.4550    0.1480    1.1730 N   0  0  0  0  0  0  0  0  0  0  0  0
    2.9580   -0.3430   -0.0520 C   0  0  0  0  0  0  0  0  0  0  0  0
    2.1590   -1.0320   -0.7620 O   0  0  0  0  0  0  0  0  0  0  0  0
    4.3210   -0.0820   -0.4910 C   0  0  0  0  0  0  0  0  0  0  0  0
    5.2770    0.6000    0.1040 C   0  0  0  0  0  0  0  0  0  0  0  0
    6.4690    0.6140   -0.6630 N   0  0  0  0  0  0  0  0  0  0  0  0
    6.1720   -0.1300   -1.8060 C   0  0  0  0  0  0  0  0  0  0  0  0
    4.9260   -0.5560   -1.7470 C   0  0  0  0  0  0  0  0  0  0  0  0
  1  2  1  0
  3  2  1  6
  3  4  1  0
  3  7  1  0
  4  5  1  0
  5  6  1  0
  6  7  1  0
  7  8  1  1
  8  9  1  0
  9 10  2  0
  9 11  1  0
 11 12  1  0
 12 13  1  0
 13 14  2  0
 13 15  1  0
 15 16  2  0
 15 19  1  0
 16 17  1  0
 17 18  1  0
 18 19  2  0
M  CHG  2   1   1  17   1
M  END
