
     RDKit          3D

 20 21  0  0  0  0  0  0  0  0999 V2000
   -3.5590    1.8070   -0.0950 C   0  0  0  0  0  0  0  0  0  0  0  0
   -3.2580    0.6640   -1.0470 C   0  0  1  0  0  0  0  0  0  0  0  0
   -1.9320    0.0660   -0.7100 C   0  0  0  0  0  0  0  0  0  0  0  0
   -2.0380   -0.7050    0.5820 C   0  0  2  0  0  0  0  0  0  0  0  0
   -0.8300   -1.4470    0.8350 N   0  0  0  0  0  0  0  0  0  0  0  0
    0.3090   -0.5930    0.9820 C   0  0  0  0  0  0  0  0  0  0  0  0
    1.5200   -0.9220    0.5860 C   0  0  0  0  0  0  0  0  0  0  0  0
    2.4690    0.1630    0.8750 C   0  0  1  0  0  0  0  0  0  0  0  0
    3.2450    0.6010   -0.3390 C   0  0  2  0  0  0  0  0  0  0  0  0
    2.3710    1.1070   -1.4410 C   0  0  0  0  0  0  0  0  0  0  0  0
    3.9720   -0.5720   -0.8050 N   0  0  0  0  0  0  0  0  0  0  0  0
    5.6730   -0.3450   -0.7390 S   0  0  1  0  0  0  0  0  0  0  0  0
    6.0900    0.6070    0.3150 O   0  0  0  0  0  0  0  0  0  0  0  0
    6.3630   -1.6610   -0.6030 O   0  0  0  0  0  0  0  0  0  0  0  0
    1.7010    1.1770    1.4850 N   0  0  0  0  0  0  0  0  0  0  0  0
    0.3590    0.7380    1.5650 C   0  0  0  0  0  0  0  0  0  0  0  0
   -0.6380    1.3730    2.0530 O   0  0  0  0  0  0  0  0  0  0  0  0
   -3.1450   -1.7400    0.3760 C   0  0  0  0  0  0  0  0  0  0  0  0
   -4.4290   -1.0360   -0.0010 C   0  0  0  0  0  0  0  0  0  0  0  0
   -4.2960   -0.2320   -1.1080 O   0  0  0  0  0  0  0  0  0  0  0  0
  2  1  1  1
  2  3  1  0
  2 20  1  0
  3  4  1  0
  4  5  1  6
  4 18  1  0
  5  6  1  0
  6  7  2  0
  6 16  1  0
  7  8  1  0
  8  9  1  0
  8 15  1  6
  9 10  1  6
  9 11  1  0
 12 11  1  1
 12 13  2  0
 12 14  2  0
 15 16  1  0
 16 17  2  0
 18 19  1  0
 19 20  1  0
M  CHG  1   5   1
M  END
