
     RDKit          3D

 20 21  0  0  0  0  0  0  0  0999 V2000
    5.0700    1.4990   -0.2730 N   0  0  0  0  0  0  0  0  0  0  0  0
    5.9770    0.5450    0.3220 C   0  0  2  0  0  0  0  0  0  0  0  0
    6.4940   -0.6350   -0.4320 C   0  0  0  0  0  0  0  0  0  0  0  0
    5.3860   -0.8260    0.4960 C   0  0  2  0  0  0  0  0  0  0  0  0
    4.1340   -1.1650   -0.0190 N   0  0  0  0  0  0  0  0  0  0  0  0
    2.8430   -1.1620    0.8020 C   0  0  0  0  0  0  0  0  0  0  0  0
    2.9310   -0.7780    1.8630 O   0  0  0  0  0  0  0  0  0  0  0  0
    1.8420   -1.6840   -0.0320 N   0  0  0  0  0  0  0  0  0  0  0  0
    0.5030   -1.5240    1.1330 C   0  0  0  0  0  0  0  0  0  0  0  0
    0.8900   -0.9870    2.0960 O   0  0  0  0  0  0  0  0  0  0  0  0
   -0.8880   -2.2190    0.4350 S   0  0  0  0  0  0  0  0  0  0  0  0
   -1.5250   -1.2640   -0.9520 C   0  0  0  0  0  0  0  0  0  0  0  0
   -2.3250   -0.0670   -0.3360 C   0  0  2  0  0  0  0  0  0  0  0  0
   -3.4480   -0.6990    0.5200 C   0  0  0  0  0  0  0  0  0  0  0  0
   -4.0790    0.3550    1.3720 C   0  0  0  0  0  0  0  0  0  0  0  0
   -4.3260    1.5830    0.5310 C   0  0  2  0  0  0  0  0  0  0  0  0
   -5.1130    2.5090    1.2500 O   0  0  0  0  0  0  0  0  0  0  0  0
   -5.0870    1.0930   -0.6810 C   0  0  0  0  0  0  0  0  0  0  0  0
   -4.0750    0.5860   -1.6950 C   0  0  0  0  0  0  0  0  0  0  0  0
   -2.7810    0.7650   -1.2650 O   0  0  0  0  0  0  0  0  0  0  0  0
  2  1  1  6
  2  3  1  0
  2  4  1  0
  3  4  1  0
  4  5  1  6
  5  6  1  0
  6  7  2  0
  6  8  1  0
  8  9  1  0
  9 10  2  0
  9 11  1  0
 11 12  1  0
 13 12  1  6
 13 14  1  0
 13 20  1  0
 14 15  1  0
 15 16  1  0
 16 17  1  1
 16 18  1  0
 18 19  1  0
 19 20  1  0
M  CHG  1   1   1
M  END
