
     RDKit          3D

 22 23  0  0  0  0  0  0  0  0999 V2000
    3.2260    0.9800    0.8640 N   0  0  0  0  0  0  0  0  0  0  0  0
    2.7040    1.5770   -0.1760 C   0  0  0  0  0  0  0  0  0  0  0  0
    3.4710    1.7860   -1.3510 N   0  0  0  0  0  0  0  0  0  0  0  0
    5.1460    1.1930   -1.5110 P   0  0  0  0  0  0  0  0  0  0  0  0
    6.1530    1.1830   -0.3340 O   0  0  0  0  0  0  0  0  0  0  0  0
    1.3830    1.9670   -0.0220 O   0  0  0  0  0  0  0  0  0  0  0  0
    0.4240    1.1520    0.6260 C   0  0  0  0  0  0  0  0  0  0  0  0
    0.2660   -0.1540   -0.0710 C   0  0  2  0  0  0  0  0  0  0  0  0
   -0.1070    0.0880   -1.5170 C   0  0  0  0  0  0  0  0  0  0  0  0
   -1.1610   -0.9470   -1.7550 C   0  0  0  0  0  0  0  0  0  0  0  0
   -1.2330   -1.7710   -0.6670 O   0  0  0  0  0  0  0  0  0  0  0  0
   -0.7770   -1.0490    0.4470 C   0  0  2  0  0  0  0  0  0  0  0  0
   -1.9760   -0.3760    1.0520 C   0  0  0  0  0  0  0  0  0  0  0  0
   -2.5370    0.4740    0.0910 O   0  0  0  0  0  0  0  0  0  0  0  0
   -3.6540    1.2500    0.3080 C   0  0  0  0  0  0  0  0  0  0  0  0
   -4.2120    2.1090   -0.6800 N   0  0  0  0  0  0  0  0  0  0  0  0
   -4.1890    1.1720    1.4560 O   0  0  0  0  0  0  0  0  0  0  0  0
   -0.2880   -2.0810    1.4450 C   0  0  0  0  0  0  0  0  0  0  0  0
    0.6530   -2.9250    0.7080 N   0  0  0  0  0  0  0  0  0  0  0  0
    1.5780   -2.2200   -0.1180 C   0  0  0  0  0  0  0  0  0  0  0  0
    2.4160   -2.8230   -0.8470 O   0  0  0  0  0  0  0  0  0  0  0  0
    1.5070   -0.8330   -0.0770 O   0  0  0  0  0  0  0  0  0  0  0  0
  1  2  2  0
  2  3  1  0
  2  6  1  0
  3  4  1  0
  4  5  2  0
  6  7  1  0
  8  7  1  1
  8  9  1  0
  8 12  1  0
  8 22  1  0
  9 10  1  0
 10 11  1  0
 11 12  1  0
 12 13  1  1
 12 18  1  0
 13 14  1  0
 14 15  1  0
 15 16  1  0
 15 17  2  0
 18 19  1  0
 19 20  1  0
 20 21  2  0
 20 22  1  0
M  END
