
     RDKit          3D

 23 25  0  0  0  0  0  0  0  0999 V2000
   -4.7820   -1.0660    3.9810 O   0  0  0  0  0  0  0  0  0  0  0  0
   -4.4970   -0.6380    2.8180 C   0  0  0  0  0  0  0  0  0  0  0  0
   -4.4630    0.7300    2.4340 N   0  0  0  0  0  0  0  0  0  0  0  0
   -3.8740    0.7420    1.1100 C   0  0  1  0  0  0  0  0  0  0  0  0
   -2.4080    0.5520    1.2630 C   0  0  0  0  0  0  0  0  0  0  0  0
   -1.8730    0.3980    2.3940 O   0  0  0  0  0  0  0  0  0  0  0  0
   -1.5630    0.5400    0.1230 N   0  0  0  0  0  0  0  0  0  0  0  0
   -1.9720    0.7030   -1.2310 C   0  0  0  0  0  0  0  0  0  0  0  0
   -0.9140    0.6340   -2.0320 C   0  0  0  0  0  0  0  0  0  0  0  0
    0.2110    0.4230   -1.2040 N   0  0  0  0  0  0  0  0  0  0  0  0
    1.6670    0.2410   -1.2450 C   0  0  2  0  0  0  0  0  0  0  0  0
    1.9090   -1.0670   -1.9420 C   0  0  0  0  0  0  0  0  0  0  0  0
    3.1850   -1.3520   -2.1510 O   0  0  0  0  0  0  0  0  0  0  0  0
    4.1900   -1.4710   -1.3170 C   0  0  0  0  0  0  0  0  0  0  0  0
    4.7900    0.0350   -0.4210 P   0  0  0  0  0  0  0  0  0  0  0  0
    4.9260   -0.2570    1.2970 O   0  0  0  0  0  0  0  0  0  0  0  0
    6.3020    0.6040   -1.0230 O   0  0  0  0  0  0  0  0  0  0  0  0
    2.0790    0.0800    0.0840 O   0  0  0  0  0  0  0  0  0  0  0  0
    0.9990    0.1490    0.9170 C   0  0  0  0  0  0  0  0  0  0  0  0
    0.9590    0.0500    2.1830 O   0  0  0  0  0  0  0  0  0  0  0  0
   -0.1600    0.3610    0.1270 N   0  0  0  0  0  0  0  0  0  0  0  0
   -4.4220   -0.5880    0.5730 C   0  0  0  0  0  0  0  0  0  0  0  0
   -4.1660   -1.4350    1.7040 O   0  0  0  0  0  0  0  0  0  0  0  0
  1  2  2  0
  2  3  1  0
  2 23  1  0
  3  4  1  0
  4  5  1  1
  4 22  1  0
  5  6  2  0
  5  7  1  0
  7  8  1  0
  7 21  1  0
  8  9  2  0
  9 10  1  0
 10 11  1  0
 10 21  1  0
 11 12  1  6
 11 18  1  0
 12 13  1  0
 13 14  1  0
 14 15  1  0
 15 16  1  0
 15 17  1  0
 18 19  1  0
 19 20  2  0
 19 21  1  0
 22 23  1  0
M  END
