
     RDKit          3D

 22 23  0  0  0  0  0  0  0  0999 V2000
   -1.1130    1.7980   -0.8820 O   0  0  0  0  0  0  0  0  0  0  0  0
   -2.0000    0.9490   -0.5150 C   0  0  0  0  0  0  0  0  0  0  0  0
   -3.2520    1.4200    0.0240 C   0  0  0  0  0  0  0  0  0  0  0  0
   -4.2750    0.7320    0.4520 C   0  0  0  0  0  0  0  0  0  0  0  0
   -4.4320   -0.6410    0.5020 O   0  0  0  0  0  0  0  0  0  0  0  0
   -5.7830   -1.0170    0.6860 C   0  0  0  0  0  0  0  0  0  0  0  0
   -6.3280    0.1560    1.3200 N   0  0  0  0  0  0  0  0  0  0  0  0
   -5.5260    1.2780    0.9910 C   0  0  0  0  0  0  0  0  0  0  0  0
   -5.7730    2.4860    1.1110 O   0  0  0  0  0  0  0  0  0  0  0  0
   -1.6770   -0.4020   -0.6690 N   0  0  0  0  0  0  0  0  0  0  0  0
   -0.4680   -0.9830   -1.1750 C   0  0  0  0  0  0  0  0  0  0  0  0
    0.7320   -0.7130   -0.3550 C   0  0  2  0  0  0  0  0  0  0  0  0
    1.0360    0.6710   -0.2300 N   0  0  0  0  0  0  0  0  0  0  0  0
    2.4220    0.7840   -0.6030 C   0  0  1  0  0  0  0  0  0  0  0  0
    3.2180    0.3740    0.5200 N   0  0  0  0  0  0  0  0  0  0  0  0
    4.6390    0.4520    0.2430 C   0  0  0  0  0  0  0  0  0  0  0  0
    5.6550   -0.0760    1.6880 P   0  0  0  0  0  0  0  0  0  0  0  0
    7.2780    0.5420    1.4380 O   0  0  0  0  0  0  0  0  0  0  0  0
    5.7780   -1.7830    1.8380 O   0  0  0  0  0  0  0  0  0  0  0  0
    2.5590   -0.2060   -1.6030 O   0  0  0  0  0  0  0  0  0  0  0  0
    1.8980   -1.3190   -1.1090 C   0  0  0  0  0  0  0  0  0  0  0  0
    2.1100   -2.5390   -1.1970 O   0  0  0  0  0  0  0  0  0  0  0  0
  1  2  2  0
  2  3  1  0
  2 10  1  0
  3  4  2  3
  4  5  1  0
  4  8  1  0
  5  6  1  0
  6  7  1  0
  7  8  1  0
  8  9  2  0
 10 11  1  0
 12 11  1  6
 12 13  1  0
 12 21  1  0
 13 14  1  0
 14 15  1  1
 14 20  1  0
 15 16  1  0
 16 17  1  0
 17 18  1  0
 17 19  1  0
 20 21  1  0
 21 22  2  0
M  END
