
     RDKit          3D

 18 17  0  0  0  0  0  0  0  0999 V2000
   -3.7930   -2.0460   -0.1770 N   0  0  0  0  0  0  0  0  0  0  0  0
   -3.5150   -0.6430   -0.3930 C   0  0  1  0  0  0  0  0  0  0  0  0
   -3.8790    0.2180    0.8020 C   0  0  0  0  0  0  0  0  0  0  0  0
   -3.5540    1.6270    0.4870 C   0  0  0  0  0  0  0  0  0  0  0  0
   -4.0080    2.1290   -0.5910 O   0  0  0  0  0  0  0  0  0  0  0  0
   -2.7880    2.3790    1.3160 O   0  0  0  0  0  0  0  0  0  0  0  0
   -2.0520   -0.4900   -0.7170 C   0  0  0  0  0  0  0  0  0  0  0  0
   -1.4990    0.6080   -0.8900 O   0  0  0  0  0  0  0  0  0  0  0  0
   -1.2990   -1.6450   -0.8250 O   0  0  0  0  0  0  0  0  0  0  0  0
    0.0620   -1.6870   -1.1090 C   0  0  0  0  0  0  0  0  0  0  0  0
    0.8990   -0.9990   -0.0790 C   0  0  0  0  0  0  0  0  0  0  0  0
    0.3650   -0.5020    0.9680 O   0  0  0  0  0  0  0  0  0  0  0  0
    2.2990   -0.8800   -0.2360 N   0  0  0  0  0  0  0  0  0  0  0  0
    3.0720   -0.2140    0.7850 C   0  0  0  0  0  0  0  0  0  0  0  0
    4.5260   -0.1390    0.4630 C   0  0  0  0  0  0  0  0  0  0  0  0
    4.8780    0.7790   -1.0390 S   0  0  0  0  0  0  0  0  0  0  0  0
    4.5190    2.8210   -0.9350 S   0  0  0  0  0  0  0  0  0  0  0  0
    5.5510    3.5770   -0.1140 O   0  0  0  0  0  0  0  0  0  0  0  0
  2  1  1  1
  2  3  1  0
  2  7  1  0
  3  4  1  0
  4  5  2  0
  4  6  1  0
  7  8  2  0
  7  9  1  0
  9 10  1  0
 10 11  1  0
 11 12  2  0
 11 13  1  0
 13 14  1  0
 14 15  1  0
 15 16  1  0
 16 17  1  0
 17 18  2  0
M  END
