
     RDKit          3D

  6  6  0  0  0  0  0  0  0  0999 V2000
   -2.2380    0.3440   -0.1320 C   0  0  0  0  0  0  0  0  0  0  0  0
   -0.7730    0.1280   -0.3890 C   0  0  1  0  0  0  0  0  0  0  0  0
    0.1540    1.0850    0.3290 C   0  0  0  0  0  0  0  0  0  0  0  0
    0.9930   -0.0930    0.7400 C   0  0  2  0  0  0  0  0  0  0  0  0
    2.1660   -0.3910   -0.1530 C   0  0  0  0  0  0  0  0  0  0  0  0
   -0.1760   -0.9900    0.4500 C   0  0  0  0  0  0  0  0  0  0  0  0
  2  1  1  1
  2  3  1  0
  2  6  1  0
  3  4  1  0
  4  5  1  6
  4  6  1  0
M  END
