
     RDKit          3D

  6  6  0  0  0  0  0  0  0  0999 V2000
    1.5910   -1.0460    0.0070 C   0  0  0  0  0  0  0  0  0  0  0  0
    0.7310    0.1020    0.4870 C   0  0  1  0  0  0  0  0  0  0  0  0
    0.8770    1.2370   -0.5150 C   0  0  0  0  0  0  0  0  0  0  0  0
   -0.6920   -0.2860    0.7120 C   0  0  2  0  0  0  0  0  0  0  0  0
   -1.5460   -0.8190   -0.3590 C   0  0  0  0  0  0  0  0  0  0  0  0
   -1.7610    0.6010    0.2230 C   0  0  0  0  0  0  0  0  0  0  0  0
  2  1  1  6
  2  3  1  0
  2  4  1  0
  4  5  1  6
  4  6  1  0
  5  6  1  0
M  END
