
     RDKit          3D

  6  5  0  0  0  0  0  0  0  0999 V2000
    2.1060   -0.3740   -0.0020 C   0  0  0  0  0  0  0  0  0  0  0  0
    0.9980    0.6150    0.1880 C   0  0  0  0  0  0  0  0  0  0  0  0
   -0.3740    0.0830   -0.0310 C   0  0  1  0  0  0  0  0  0  0  0  0
   -0.6980   -1.0560    0.9140 C   0  0  0  0  0  0  0  0  0  0  0  0
   -1.3480    1.2020    0.3310 C   0  0  0  0  0  0  0  0  0  0  0  0
   -0.6970   -0.3180   -1.4300 C   0  0  0  0  0  0  0  0  0  0  0  0
  1  2  1  0
  2  3  1  0
  3  4  1  1
  3  5  1  0
  3  6  1  0
M  END
