
     RDKit          3D

  6  5  0  0  0  0  0  0  0  0999 V2000
    2.6840    0.2950    0.0880 C   0  0  0  0  0  0  0  0  0  0  0  0
    1.3180    0.3910   -0.6040 C   0  0  0  0  0  0  0  0  0  0  0  0
    0.3580   -0.3930    0.2460 C   0  0  0  0  0  0  0  0  0  0  0  0
   -1.0450   -0.3870   -0.3210 C   0  0  1  0  0  0  0  0  0  0  0  0
   -1.9390   -1.1940    0.5950 C   0  0  0  0  0  0  0  0  0  0  0  0
   -1.5210    1.0600   -0.3160 C   0  0  0  0  0  0  0  0  0  0  0  0
  1  2  1  0
  2  3  1  0
  3  4  1  0
  4  5  1  1
  4  6  1  0
M  END
