
     RDKit          3D

  7  7  0  0  0  0  0  0  0  0999 V2000
   -2.4450    0.5580    0.4480 C   0  0  0  0  0  0  0  0  0  0  0  0
   -1.7660   -0.7490    0.2330 C   0  0  0  0  0  0  0  0  0  0  0  0
   -0.8400   -0.7790   -0.9430 C   0  0  0  0  0  0  0  0  0  0  0  0
    0.2750    0.2140   -0.8530 C   0  0  0  0  0  0  0  0  0  0  0  0
    1.1510    0.0030    0.3510 C   0  0  2  0  0  0  0  0  0  0  0  0
    2.2940    0.9970    0.4710 C   0  0  0  0  0  0  0  0  0  0  0  0
    2.5460   -0.4620    0.2200 C   0  0  0  0  0  0  0  0  0  0  0  0
  1  2  1  0
  2  3  1  0
  3  4  1  0
  5  4  1  6
  5  6  1  0
  5  7  1  0
  6  7  1  0
M  END
