
     RDKit          3D

  7  7  0  0  0  0  0  0  0  0999 V2000
    2.6170   -0.4520    0.0070 C   0  0  0  0  0  0  0  0  0  0  0  0
    1.5150    0.5480   -0.2030 C   0  0  0  0  0  0  0  0  0  0  0  0
    0.1800   -0.0780   -0.4740 C   0  0  2  0  0  0  0  0  0  0  0  0
   -0.8220    1.0440   -0.6630 C   0  0  0  0  0  0  0  0  0  0  0  0
   -2.1280    0.3870   -0.3790 C   0  0  0  0  0  0  0  0  0  0  0  0
   -1.8230   -0.4760    0.8220 C   0  0  0  0  0  0  0  0  0  0  0  0
   -0.3650   -0.8760    0.6560 C   0  0  0  0  0  0  0  0  0  0  0  0
  1  2  1  0
  3  2  1  1
  3  4  1  0
  3  7  1  0
  4  5  1  0
  5  6  1  0
  6  7  1  0
M  END
