
     RDKit          3D

  7  7  0  0  0  0  0  0  0  0999 V2000
   -2.2000   -0.2510   -0.2680 C   0  0  0  0  0  0  0  0  0  0  0  0
   -0.7230   -0.0880   -0.0910 C   0  0  0  0  0  0  0  0  0  0  0  0
    0.1050   -1.1480    0.2150 C   0  0  0  0  0  0  0  0  0  0  0  0
    1.4690   -0.9970    0.3780 C   0  0  0  0  0  0  0  0  0  0  0  0
    2.0570    0.2440    0.2370 C   0  0  0  0  0  0  0  0  0  0  0  0
    1.2370    1.3120   -0.0700 C   0  0  0  0  0  0  0  0  0  0  0  0
   -0.1240    1.1480   -0.2300 C   0  0  0  0  0  0  0  0  0  0  0  0
  1  2  1  0
  2  3  2  0
  2  7  1  0
  3  4  1  0
  4  5  2  0
  5  6  1  0
  6  7  2  0
M  END
