
     RDKit          3D

  7  7  0  0  0  0  0  0  0  0999 V2000
    1.7820    0.0720    0.8850 C   0  0  0  0  0  0  0  0  0  0  0  0
    0.5900   -0.4600    0.1140 C   0  0  1  0  0  0  0  0  0  0  0  0
    0.9650   -1.0710   -1.2190 C   0  0  0  0  0  0  0  0  0  0  0  0
   -0.5280   -0.9530    0.9120 C   0  0  0  0  0  0  0  0  0  0  0  0
   -0.7030    0.2770    0.1200 C   0  0  1  0  0  0  0  0  0  0  0  0
   -0.7480    1.6400    0.7450 C   0  0  0  0  0  0  0  0  0  0  0  0
   -1.6180    0.1350   -1.0930 C   0  0  0  0  0  0  0  0  0  0  0  0
  2  1  1  1
  2  3  1  0
  2  4  1  0
  2  5  1  0
  4  5  1  0
  5  6  1  1
  5  7  1  0
M  END
