
     RDKit          3D

  7  7  0  0  0  0  0  0  0  0999 V2000
    1.0790   -1.4270   -0.1610 C   0  0  0  0  0  0  0  0  0  0  0  0
    0.5520   -0.0120    0.0230 C   0  0  1  0  0  0  0  0  0  0  0  0
    0.5070    0.2450    1.4950 C   0  0  0  0  0  0  0  0  0  0  0  0
    1.5180    0.9900   -0.5770 C   0  0  0  0  0  0  0  0  0  0  0  0
   -0.7280    0.1470   -0.7060 C   0  0  1  0  0  0  0  0  0  0  0  0
   -1.9360   -0.6510   -0.4350 C   0  0  0  0  0  0  0  0  0  0  0  0
   -1.8680    0.8240   -0.0840 C   0  0  0  0  0  0  0  0  0  0  0  0
  2  1  1  1
  2  3  1  0
  2  4  1  0
  2  5  1  0
  5  6  1  1
  5  7  1  0
  6  7  1  0
M  END
