
     RDKit          3D

  7  7  0  0  0  0  0  0  0  0999 V2000
   -1.0170    1.3570    0.4450 C   0  0  0  0  0  0  0  0  0  0  0  0
   -0.2010    0.1670   -0.0190 C   0  0  2  0  0  0  0  0  0  0  0  0
   -1.0460   -0.7680   -0.8260 C   0  0  0  0  0  0  0  0  0  0  0  0
   -2.1230   -1.2420   -0.0600 O   0  0  0  0  0  0  0  0  0  0  0  0
    0.6700   -0.4220    1.0280 C   0  0  0  0  0  0  0  0  0  0  0  0
    1.8020   -0.4750    0.0050 C   0  0  0  0  0  0  0  0  0  0  0  0
    1.0460    0.5460   -0.8070 C   0  0  0  0  0  0  0  0  0  0  0  0
  2  1  1  1
  2  3  1  0
  2  5  1  0
  2  7  1  0
  3  4  1  0
  5  6  1  0
  6  7  1  0
M  END
