
     RDKit          3D

  6  5  0  0  0  0  0  0  0  0999 V2000
   -0.9660    1.2450   -0.2070 C   0  0  0  0  0  0  0  0  0  0  0  0
   -0.4520   -0.1480   -0.0280 C   0  0  0  0  0  0  0  0  0  0  0  0
   -1.4040   -1.2730    0.1600 C   0  0  0  0  0  0  0  0  0  0  0  0
    0.8530   -0.3210   -0.0460 C   0  0  0  0  0  0  0  0  0  0  0  0
    1.7590    0.8110   -0.2330 C   0  0  0  0  0  0  0  0  0  0  0  0
    1.3060   -1.6380    0.1240 O   0  0  0  0  0  0  0  0  0  0  0  0
  1  2  1  0
  2  3  1  0
  2  4  2  3
  4  5  1  0
  4  6  1  0
M  END
