
     RDKit          3D

  7  7  0  0  0  0  0  0  0  0999 V2000
    2.4950   -0.1150    0.3300 O   0  0  0  0  0  0  0  0  0  0  0  0
    1.1100   -0.0860    0.1800 C   0  0  0  0  0  0  0  0  0  0  0  0
    0.4210    1.0930    0.3300 C   0  0  0  0  0  0  0  0  0  0  0  0
   -0.9370    1.2180    0.2010 C   0  0  0  0  0  0  0  0  0  0  0  0
   -1.6470    0.0660   -0.1000 C   0  0  0  0  0  0  0  0  0  0  0  0
   -1.0030   -1.1550   -0.2630 C   0  0  0  0  0  0  0  0  0  0  0  0
    0.3690   -1.2130   -0.1200 C   0  0  0  0  0  0  0  0  0  0  0  0
  1  2  1  0
  2  3  2  0
  2  7  1  0
  3  4  1  0
  4  5  2  0
  5  6  1  0
  6  7  2  0
M  END
