
     RDKit          3D

  7  7  0  0  0  0  0  0  0  0999 V2000
    2.5470   -0.2000   -0.4710 O   0  0  0  0  0  0  0  0  0  0  0  0
    1.1910   -0.0290   -0.4590 C   0  0  1  0  0  0  0  0  0  0  0  0
    0.4380   -1.3060   -0.0630 C   0  0  0  0  0  0  0  0  0  0  0  0
   -0.9850   -1.0570   -0.5590 C   0  0  0  0  0  0  0  0  0  0  0  0
   -1.5760    0.1100    0.1560 C   0  0  0  0  0  0  0  0  0  0  0  0
   -0.7150    1.3080    0.2480 C   0  0  0  0  0  0  0  0  0  0  0  0
    0.7300    1.0340    0.5330 C   0  0  0  0  0  0  0  0  0  0  0  0
  2  1  1  1
  2  3  1  0
  2  7  1  0
  3  4  1  0
  4  5  1  0
  5  6  1  0
  6  7  1  0
M  END
