
     RDKit          3D

 24 25  0  0  0  0  0  0  0  0999 V2000
   -4.9210   -0.7400    0.3450 C   0  0  0  0  0  0  0  0  0  0  0  0
   -4.3440   -1.6500   -0.3920 C   0  0  0  0  0  0  0  0  0  0  0  0
   -3.0340   -2.1900   -0.0980 C   0  0  0  0  0  0  0  0  0  0  0  0
   -2.5050   -3.1530   -0.8780 C   0  0  0  0  0  0  0  0  0  0  0  0
   -3.2700   -3.6470   -2.0260 C   0  0  0  0  0  0  0  0  0  0  0  0
   -2.2400   -1.7060    1.0870 C   0  0  0  0  0  0  0  0  0  0  0  0
   -1.9070   -0.4550    1.0990 O   0  0  0  0  0  0  0  0  0  0  0  0
   -1.5730    0.7990    1.1120 C   0  0  0  0  0  0  0  0  0  0  0  0
   -2.4600    1.8760    1.0830 C   0  0  0  0  0  0  0  0  0  0  0  0
   -2.0470    3.1820    1.0980 C   0  0  0  0  0  0  0  0  0  0  0  0
   -3.0070    4.1760    1.0660 O   0  0  0  0  0  0  0  0  0  0  0  0
   -2.7130    5.5540    1.0760 C   0  0  0  0  0  0  0  0  0  0  0  0
   -0.7040    3.4300    1.1430 C   0  0  0  0  0  0  0  0  0  0  0  0
    0.2120    2.3870    1.1730 C   0  0  0  0  0  0  0  0  0  0  0  0
   -0.1520    1.0840    1.1590 C   0  0  0  0  0  0  0  0  0  0  0  0
    0.6520    0.0220    1.1810 O   0  0  0  0  0  0  0  0  0  0  0  0
    1.9270   -0.3640    1.1950 C   0  0  0  0  0  0  0  0  0  0  0  0
    2.8340   -0.0620    0.0400 C   0  0  2  0  0  0  0  0  0  0  0  0
    2.9830    1.2840   -0.2050 O   0  0  0  0  0  0  0  0  0  0  0  0
    2.4440   -0.7710   -1.2190 C   0  0  0  0  0  0  0  0  0  0  0  0
    3.4490   -1.6760   -1.8040 C   0  0  0  0  0  0  0  0  0  0  0  0
    4.8770   -1.2440   -1.7290 C   0  0  0  0  0  0  0  0  0  0  0  0
    5.1290   -0.1780   -0.6890 C   0  0  0  0  0  0  0  0  0  0  0  0
    4.2250   -0.5470    0.4900 C   0  0  0  0  0  0  0  0  0  0  0  0
  1  2  2  0
  2  3  1  0
  3  4  2  3
  3  6  1  0
  4  5  1  0
  6  7  1  0
  7  8  1  0
  8  9  2  0
  8 15  1  0
  9 10  1  0
 10 11  1  0
 10 13  2  0
 11 12  1  0
 13 14  1  0
 14 15  2  0
 15 16  1  0
 16 17  1  0
 17 18  1  0
 18 19  1  6
 18 20  1  0
 18 24  1  0
 20 21  1  0
 21 22  1  0
 22 23  1  0
 23 24  1  0
M  END
