
     RDKit          3D

 24 25  0  0  0  0  0  0  0  0999 V2000
   -4.8440    3.1310   -0.4090 C   0  0  0  0  0  0  0  0  0  0  0  0
   -4.3150    1.7100   -0.3250 C   0  0  0  0  0  0  0  0  0  0  0  0
   -2.9900    1.4610   -0.1440 C   0  0  0  0  0  0  0  0  0  0  0  0
   -2.4640    0.1420   -0.0370 C   0  0  0  0  0  0  0  0  0  0  0  0
   -1.0180   -0.0580   -0.0020 C   0  0  0  0  0  0  0  0  0  0  0  0
   -0.3540   -0.5630    1.2180 C   0  0  0  0  0  0  0  0  0  0  0  0
    1.1440   -0.7420    0.9600 C   0  0  0  0  0  0  0  0  0  0  0  0
    1.8280   -1.3210    1.8420 O   0  0  0  0  0  0  0  0  0  0  0  0
    1.7950   -0.3250   -0.1640 O   0  0  0  0  0  0  0  0  0  0  0  0
    3.0710   -0.4000   -0.5900 C   0  0  0  0  0  0  0  0  0  0  0  0
    4.2260    0.1520    0.0900 C   0  0  0  0  0  0  0  0  0  0  0  0
    4.1940    0.8950    1.2560 C   0  0  0  0  0  0  0  0  0  0  0  0
    5.3360    1.4140    1.7920 C   0  0  0  0  0  0  0  0  0  0  0  0
    6.5780    1.2330    1.2050 C   0  0  0  0  0  0  0  0  0  0  0  0
    6.6130    0.4940    0.0350 C   0  0  0  0  0  0  0  0  0  0  0  0
    5.4890   -0.0430   -0.5320 C   0  0  0  0  0  0  0  0  0  0  0  0
    5.5950   -1.0170   -1.6540 C   0  0  0  0  0  0  0  0  0  0  0  0
    4.9130   -0.6190   -2.7550 O   0  0  0  0  0  0  0  0  0  0  0  0
   -3.3880   -0.8740   -0.1180 C   0  0  0  0  0  0  0  0  0  0  0  0
   -2.9250   -2.2450    0.1350 C   0  0  0  0  0  0  0  0  0  0  0  0
   -4.7390   -0.6240   -0.3110 C   0  0  0  0  0  0  0  0  0  0  0  0
   -5.6770   -1.7670   -0.4830 C   0  0  0  0  0  0  0  0  0  0  0  0
   -5.2140    0.6810   -0.4180 C   0  0  0  0  0  0  0  0  0  0  0  0
   -6.5660    0.8310   -0.6110 O   0  0  0  0  0  0  0  0  0  0  0  0
  1  2  1  0
  2  3  2  0
  2 23  1  0
  3  4  1  0
  4  5  1  0
  4 19  2  0
  5  6  1  0
  6  7  1  0
  7  8  2  0
  7  9  1  0
  9 10  1  0
 10 11  1  0
 11 12  2  0
 11 16  1  0
 12 13  1  0
 13 14  2  0
 14 15  1  0
 15 16  2  0
 16 17  1  0
 17 18  1  0
 19 20  1  0
 19 21  1  0
 21 22  1  0
 21 23  2  0
 23 24  1  0
M  END
