
     RDKit          3D

 24 25  0  0  0  0  0  0  0  0999 V2000
    3.8700   -3.8910   -0.5570 C   0  0  0  0  0  0  0  0  0  0  0  0
    3.4580   -2.8890    0.2060 C   0  0  0  0  0  0  0  0  0  0  0  0
    3.8480   -1.4680   -0.0710 C   0  0  0  0  0  0  0  0  0  0  0  0
    2.6830   -0.6980   -0.2970 O   0  0  0  0  0  0  0  0  0  0  0  0
    2.7900    0.6590   -0.5740 C   0  0  0  0  0  0  0  0  0  0  0  0
    4.0410    1.2520   -0.6290 C   0  0  0  0  0  0  0  0  0  0  0  0
    4.2050    2.5880   -0.8990 C   0  0  0  0  0  0  0  0  0  0  0  0
    5.5320    3.2120   -0.9550 C   0  0  0  0  0  0  0  0  0  0  0  0
    3.0470    3.3240   -1.1170 C   0  0  0  0  0  0  0  0  0  0  0  0
    1.8040    2.7510   -1.0670 C   0  0  0  0  0  0  0  0  0  0  0  0
    1.6530    1.4040   -0.7930 C   0  0  0  0  0  0  0  0  0  0  0  0
    0.2760    0.8040   -0.7430 C   0  0  0  0  0  0  0  0  0  0  0  0
   -0.1580    0.5730    0.6800 C   0  0  0  0  0  0  0  0  0  0  0  0
   -1.5190   -0.0220    0.7600 C   0  0  0  0  0  0  0  0  0  0  0  0
   -2.6290    0.7780    1.0220 C   0  0  0  0  0  0  0  0  0  0  0  0
   -3.9050    0.2590    1.0760 C   0  0  0  0  0  0  0  0  0  0  0  0
   -4.1500   -1.0810    0.8720 C   0  0  0  0  0  0  0  0  0  0  0  0
   -5.3970   -1.6750    0.9070 O   0  0  0  0  0  0  0  0  0  0  0  0
   -6.5520   -0.9130    1.1520 C   0  0  0  0  0  0  0  0  0  0  0  0
   -6.7720    0.1320    0.1110 C   0  0  0  0  0  0  0  0  0  0  0  0
   -3.0440   -1.8700    0.6130 C   0  0  0  0  0  0  0  0  0  0  0  0
   -3.2480   -3.2210    0.4030 O   0  0  0  0  0  0  0  0  0  0  0  0
   -1.7410   -1.3590    0.5560 C   0  0  0  0  0  0  0  0  0  0  0  0
   -0.6760   -2.2180    0.2940 O   0  0  0  0  0  0  0  0  0  0  0  0
  1  2  2  0
  2  3  1  0
  3  4  1  0
  4  5  1  0
  5  6  2  0
  5 11  1  0
  6  7  1  0
  7  8  1  0
  7  9  2  0
  9 10  1  0
 10 11  2  0
 11 12  1  0
 12 13  1  0
 13 14  1  0
 14 15  2  0
 14 23  1  0
 15 16  1  0
 16 17  2  0
 17 18  1  0
 17 21  1  0
 18 19  1  0
 19 20  1  0
 21 22  1  0
 21 23  2  0
 23 24  1  0
M  END
