
     RDKit          3D

 19 21  0  0  0  0  0  0  0  0999 V2000
   -1.7030   -2.0580   -1.1650 O   0  0  0  0  0  0  0  0  0  0  0  0
   -2.3550   -1.1870   -0.4910 C   0  0  0  0  0  0  0  0  0  0  0  0
   -3.7670   -1.1570   -0.3390 N   0  0  0  0  0  0  0  0  0  0  0  0
   -4.1510    0.2400   -0.3130 C   0  0  0  0  0  0  0  0  0  0  0  0
   -2.9340    0.9810    0.1500 C   0  0  2  0  0  0  0  0  0  0  0  0
   -2.5640    1.9920   -0.7480 O   0  0  0  0  0  0  0  0  0  0  0  0
   -1.8250   -0.0390    0.2690 C   0  0  2  0  0  0  0  0  0  0  0  0
   -0.5720    0.4500   -0.2410 N   0  0  0  0  0  0  0  0  0  0  0  0
    0.5220    0.3300    0.6890 C   0  0  1  0  0  0  0  0  0  0  0  0
    0.5860   -1.0710    1.3120 C   0  0  0  0  0  0  0  0  0  0  0  0
    2.0380   -1.1410    1.7310 C   0  0  0  0  0  0  0  0  0  0  0  0
    2.7100   -0.5210    0.5320 C   0  0  0  0  0  0  0  0  0  0  0  0
    3.9450   -0.6870    0.0330 N   0  0  0  0  0  0  0  0  0  0  0  0
    4.2900    0.0050   -1.0640 C   0  0  0  0  0  0  0  0  0  0  0  0
    5.4610   -0.1390   -1.5540 O   0  0  0  0  0  0  0  0  0  0  0  0
    3.4630    0.8560   -1.6890 N   0  0  0  0  0  0  0  0  0  0  0  0
    2.2310    1.0220   -1.1920 C   0  0  0  0  0  0  0  0  0  0  0  0
    1.4000    1.8190   -1.7450 O   0  0  0  0  0  0  0  0  0  0  0  0
    1.8260    0.3350   -0.0670 C   0  0  0  0  0  0  0  0  0  0  0  0
  1  2  2  0
  2  3  1  0
  2  7  1  0
  3  4  1  0
  4  5  1  0
  5  6  1  6
  5  7  1  0
  7  8  1  6
  9  8  1  6
  9 10  1  0
  9 19  1  0
 10 11  1  0
 11 12  1  0
 12 13  1  0
 12 19  2  0
 13 14  1  0
 14 15  2  0
 14 16  1  0
 16 17  1  0
 17 18  2  0
 17 19  1  0
M  CHG  1   8   1
M  END
