
     RDKit          3D

 24 25  0  0  0  0  0  0  0  0999 V2000
    8.5610    0.4960    1.0850 C   0  0  0  0  0  0  0  0  0  0  0  0
    7.1200    0.1900    0.7870 C   0  0  0  0  0  0  0  0  0  0  0  0
    6.7230   -1.1050    0.4380 C   0  0  0  0  0  0  0  0  0  0  0  0
    5.4000   -1.3890    0.1810 C   0  0  0  0  0  0  0  0  0  0  0  0
    4.4090   -0.4040    0.2570 C   0  0  0  0  0  0  0  0  0  0  0  0
    2.9480   -0.7950    0.1490 C   0  0  0  0  0  0  0  0  0  0  0  0
    2.5880   -0.9100   -1.1470 O   0  0  0  0  0  0  0  0  0  0  0  0
    1.4420   -1.3120   -1.6500 C   0  0  0  0  0  0  0  0  0  0  0  0
    0.1410   -0.7660   -1.2020 C   0  0  0  0  0  0  0  0  0  0  0  0
   -0.9330   -1.6660   -1.0410 C   0  0  0  0  0  0  0  0  0  0  0  0
   -2.1840   -1.2290   -0.6730 C   0  0  0  0  0  0  0  0  0  0  0  0
   -2.4410    0.1250   -0.4490 C   0  0  0  0  0  0  0  0  0  0  0  0
   -3.7670    0.5390   -0.0420 C   0  0  0  0  0  0  0  0  0  0  0  0
   -3.9370    1.8830   -0.0010 O   0  0  0  0  0  0  0  0  0  0  0  0
   -4.8550   -0.1180    0.3020 O   0  0  0  0  0  0  0  0  0  0  0  0
   -6.1150    0.2840    0.6290 C   0  0  2  0  0  0  0  0  0  0  0  0
   -6.1580    1.2510    1.7660 C   0  0  0  0  0  0  0  0  0  0  0  0
   -6.9960   -0.9220    1.0100 C   0  0  0  0  0  0  0  0  0  0  0  0
   -6.8440    0.8810   -0.5820 C   0  0  0  0  0  0  0  0  0  0  0  0
   -1.3980    1.0210   -0.6010 C   0  0  0  0  0  0  0  0  0  0  0  0
   -0.1170    0.5570   -0.9740 C   0  0  0  0  0  0  0  0  0  0  0  0
    4.8050    0.8430    0.6010 C   0  0  0  0  0  0  0  0  0  0  0  0
    3.8110    1.8180    0.6950 O   0  0  0  0  0  0  0  0  0  0  0  0
    6.1340    1.1580    0.8660 C   0  0  0  0  0  0  0  0  0  0  0  0
  1  2  1  0
  2  3  2  0
  2 24  1  0
  3  4  1  0
  4  5  2  0
  5  6  1  0
  5 22  1  0
  6  7  1  0
  7  8  1  0
  8  9  1  0
  9 10  2  0
  9 21  1  0
 10 11  1  0
 11 12  2  0
 12 13  1  0
 12 20  1  0
 13 14  2  0
 13 15  1  0
 15 16  1  0
 16 17  1  1
 16 18  1  0
 16 19  1  0
 20 21  2  0
 22 23  1  0
 22 24  2  0
M  END
