
     RDKit          3D

 24 25  0  0  0  0  0  0  0  0999 V2000
    3.1360   -1.8600   -0.2190 C   0  0  0  0  0  0  0  0  0  0  0  0
    4.0430   -1.1140   -0.7960 C   0  0  0  0  0  0  0  0  0  0  0  0
    4.8510   -1.6870   -1.7590 O   0  0  0  0  0  0  0  0  0  0  0  0
    4.1990    0.2830   -0.4360 C   0  0  0  0  0  0  0  0  0  0  0  0
    5.1310    0.9910   -1.0490 C   0  0  0  0  0  0  0  0  0  0  0  0
    6.0350    0.4650   -2.0800 C   0  0  0  0  0  0  0  0  0  0  0  0
    3.3280    0.9230    0.6010 C   0  0  2  0  0  0  0  0  0  0  0  0
    3.6410    0.4400    1.9690 C   0  0  0  0  0  0  0  0  0  0  0  0
    2.4880    0.2130    2.8970 C   0  0  0  0  0  0  0  0  0  0  0  0
    1.4120    1.0420    2.5180 O   0  0  0  0  0  0  0  0  0  0  0  0
    0.9500    0.9610    1.2120 C   0  0  0  0  0  0  0  0  0  0  0  0
   -0.4070    0.9510    0.8700 C   0  0  0  0  0  0  0  0  0  0  0  0
   -0.8560    0.8670   -0.4230 C   0  0  0  0  0  0  0  0  0  0  0  0
   -2.1080    0.8450   -0.8540 O   0  0  0  0  0  0  0  0  0  0  0  0
   -3.3630    0.8530   -0.3890 C   0  0  0  0  0  0  0  0  0  0  0  0
   -3.8930   -0.2880    0.4000 C   0  0  2  0  0  0  0  0  0  0  0  0
   -3.2270   -0.6510    1.6660 C   0  0  0  0  0  0  0  0  0  0  0  0
   -3.8160   -1.5440   -0.4980 C   0  0  0  0  0  0  0  0  0  0  0  0
   -5.3580   -0.0160    0.7360 C   0  0  0  0  0  0  0  0  0  0  0  0
   -6.2210    0.1380   -0.4690 C   0  0  0  0  0  0  0  0  0  0  0  0
   -6.1950   -1.0090   -1.2820 O   0  0  0  0  0  0  0  0  0  0  0  0
    0.1520    0.7900   -1.4200 C   0  0  0  0  0  0  0  0  0  0  0  0
    1.4730    0.8010   -1.0780 C   0  0  0  0  0  0  0  0  0  0  0  0
    1.9150    0.8860    0.2400 C   0  0  0  0  0  0  0  0  0  0  0  0
  1  2  2  0
  2  3  1  0
  2  4  1  0
  4  5  2  3
  7  4  1  6
  5  6  1  0
  7  8  1  0
  7 24  1  0
  8  9  1  0
  9 10  1  0
 10 11  1  0
 11 12  2  0
 11 24  1  0
 12 13  1  0
 13 14  1  0
 13 22  2  0
 14 15  1  0
 15 16  1  0
 16 17  1  1
 16 18  1  0
 16 19  1  0
 19 20  1  0
 20 21  1  0
 22 23  1  0
 23 24  2  0
M  END
