
     RDKit          3D

  8  8  0  0  0  0  0  0  0  0999 V2000
    2.1760   -0.3180    0.0940 N   0  0  0  0  0  0  0  0  0  0  0  0
    0.7810   -0.0810    0.0400 C   0  0  0  0  0  0  0  0  0  0  0  0
   -0.0460   -1.0900   -0.1570 C   0  0  0  0  0  0  0  0  0  0  0  0
   -1.5290   -0.8970   -0.2220 C   0  0  0  0  0  0  0  0  0  0  0  0
   -1.9000    0.4350   -0.0540 O   0  0  0  0  0  0  0  0  0  0  0  0
   -1.0160    1.4800    0.1530 C   0  0  0  0  0  0  0  0  0  0  0  0
   -1.4840    2.7980    0.3130 O   0  0  0  0  0  0  0  0  0  0  0  0
    0.2780    1.2710    0.2040 C   0  0  0  0  0  0  0  0  0  0  0  0
  1  2  1  0
  2  3  2  0
  2  8  1  0
  3  4  1  0
  4  5  1  0
  5  6  1  0
  6  7  1  0
  6  8  2  0
M  CHG  1   7  -1
M  END
