
     RDKit          3D

  8  8  0  0  0  0  0  0  0  0999 V2000
    0.0300    2.5710   -0.8480 O   0  0  0  0  0  0  0  0  0  0  0  0
   -0.5740    1.3580   -0.4650 C   0  0  0  0  0  0  0  0  0  0  0  0
   -1.8220    1.1100   -0.3460 N   0  0  0  0  0  0  0  0  0  0  0  0
   -2.0010   -0.2480    0.0650 C   0  0  0  0  0  0  0  0  0  0  0  0
   -0.6250   -0.7650    0.1690 C   0  0  0  0  0  0  0  0  0  0  0  0
    0.2200    0.1820   -0.1430 C   0  0  0  0  0  0  0  0  0  0  0  0
    1.7040    0.0660   -0.1620 C   0  0  0  0  0  0  0  0  0  0  0  0
    2.1180   -1.2120    0.2030 O   0  0  0  0  0  0  0  0  0  0  0  0
  1  2  1  0
  2  3  2  0
  2  6  1  0
  3  4  1  0
  4  5  1  0
  5  6  2  0
  6  7  1  0
  7  8  1  0
M  CHG  1   1  -1
M  END
