
     RDKit          3D

  8  8  0  0  0  0  0  0  0  0999 V2000
   -2.5020   -0.1310    1.0090 O   0  0  0  0  0  0  0  0  0  0  0  0
   -1.7940    0.5270    0.2170 C   0  0  0  0  0  0  0  0  0  0  0  0
   -2.2840    1.6120   -0.4880 O   0  0  0  0  0  0  0  0  0  0  0  0
   -0.4080    0.1480    0.0250 C   0  0  0  0  0  0  0  0  0  0  0  0
    0.4890    0.7390   -0.7800 C   0  0  0  0  0  0  0  0  0  0  0  0
    1.7270   -0.0020   -0.6250 C   0  0  0  0  0  0  0  0  0  0  0  0
    1.6110   -0.9760    0.2090 N   0  0  0  0  0  0  0  0  0  0  0  0
    0.2590   -0.9920    0.7110 C   0  0  0  0  0  0  0  0  0  0  0  0
  1  2  2  0
  2  3  1  0
  2  4  1  0
  4  5  2  0
  4  8  1  0
  5  6  1  0
  6  7  2  0
  7  8  1  0
M  CHG  1   3  -1
M  END
