
     RDKit          3D

  8  8  0  0  0  0  0  0  0  0999 V2000
    2.6320    0.0670   -1.8740 O   0  0  0  0  0  0  0  0  0  0  0  0
    2.2670   -0.1720   -0.5970 N   0  0  0  0  0  0  0  0  0  0  0  0
    0.9300   -0.1630   -0.1480 C   0  0  0  0  0  0  0  0  0  0  0  0
    0.4860   -0.9250    0.8450 C   0  0  0  0  0  0  0  0  0  0  0  0
   -0.8170   -0.9090    1.2750 O   0  0  0  0  0  0  0  0  0  0  0  0
   -1.8060   -0.1070    0.7290 C   0  0  0  0  0  0  0  0  0  0  0  0
   -1.3160    0.7390   -0.3720 C   0  0  0  0  0  0  0  0  0  0  0  0
   -0.0660    0.7020   -0.7600 C   0  0  0  0  0  0  0  0  0  0  0  0
  1  2  1  0
  2  3  1  0
  3  4  2  0
  3  8  1  0
  4  5  1  0
  5  6  1  0
  6  7  1  0
  7  8  2  0
M  CHG  1   1  -1
M  END
