
     RDKit          3D

 17 18  0  0  0  0  0  0  0  0999 V2000
    3.3150    0.4860    1.2410 O   0  0  0  0  0  0  0  0  0  0  0  0
    3.5180    0.0750    0.0740 C   0  0  0  0  0  0  0  0  0  0  0  0
    2.5430   -0.8370   -0.5800 C   0  0  0  0  0  0  0  0  0  0  0  0
    1.4620   -1.1020    0.3120 N   0  0  0  0  0  0  0  0  0  0  0  0
    0.2260   -0.4670   -0.0470 C   0  0  2  0  0  0  0  0  0  0  0  0
    0.3190    1.0220   -0.1350 C   0  0  0  0  0  0  0  0  0  0  0  0
   -0.9210    1.5720   -0.7590 C   0  0  0  0  0  0  0  0  0  0  0  0
   -2.1210    0.8310   -0.2970 C   0  0  0  0  0  0  0  0  0  0  0  0
   -3.2990    1.2530   -0.7320 C   0  0  0  0  0  0  0  0  0  0  0  0
   -4.4470    0.6120   -0.3420 O   0  0  0  0  0  0  0  0  0  0  0  0
   -4.5160   -0.4980    0.5110 C   0  0  0  0  0  0  0  0  0  0  0  0
   -3.1680   -0.9430    0.9800 C   0  0  0  0  0  0  0  0  0  0  0  0
   -2.0940   -0.3050    0.5860 C   0  0  0  0  0  0  0  0  0  0  0  0
   -0.7720   -0.7830    1.0780 C   0  0  1  0  0  0  0  0  0  0  0  0
   -0.7450   -2.1370    1.3170 O   0  0  0  0  0  0  0  0  0  0  0  0
    4.6980    0.5030   -0.5980 N   0  0  0  0  0  0  0  0  0  0  0  0
    5.6020    1.3330   -0.0260 O   0  0  0  0  0  0  0  0  0  0  0  0
  1  2  2  0
  2  3  1  0
  2 16  1  0
  3  4  1  0
  5  4  1  1
  5  6  1  0
  5 14  1  0
  6  7  1  0
  7  8  1  0
  8  9  2  0
  8 13  1  0
  9 10  1  0
 10 11  1  0
 11 12  1  0
 12 13  2  0
 13 14  1  0
 14 15  1  6
 16 17  1  0
M  CHG  1   4   1
M  END
