
     RDKit          3D

  6  6  0  0  0  0  0  0  0  0999 V2000
   -2.3740    1.3650   -0.2490 Br  0  0  0  0  0  0  0  0  0  0  0  0
   -0.7930    0.3260   -0.0190 C   0  0  0  0  0  0  0  0  0  0  0  0
   -0.7010   -1.0400    0.2330 C   0  0  0  0  0  0  0  0  0  0  0  0
    0.6110   -1.3090    0.3150 N   0  0  0  0  0  0  0  0  0  0  0  0
    1.3170   -0.1680    0.1240 C   0  0  0  0  0  0  0  0  0  0  0  0
    0.4510    0.8300   -0.0800 N   0  0  0  0  0  0  0  0  0  0  0  0
  1  2  1  0
  2  3  2  0
  2  6  1  0
  3  4  1  0
  4  5  2  0
  5  6  1  0
M  END
