
     RDKit          3D

  8  8  0  0  0  0  0  0  0  0999 V2000
    2.6530    1.0130    0.5540 O   0  0  0  0  0  0  0  0  0  0  0  0
    1.8830    0.0220    0.3520 C   0  0  0  0  0  0  0  0  0  0  0  0
    2.4440   -1.2220    0.3900 O   0  0  0  0  0  0  0  0  0  0  0  0
    0.4550    0.2070    0.0890 C   0  0  0  0  0  0  0  0  0  0  0  0
   -0.2180    1.3350    0.0230 C   0  0  0  0  0  0  0  0  0  0  0  0
   -1.5820    1.0830   -0.2510 N   0  0  0  0  0  0  0  0  0  0  0  0
   -1.7890   -0.1760   -0.3600 C   0  0  0  0  0  0  0  0  0  0  0  0
   -0.5100   -0.8720   -0.1540 C   0  0  0  0  0  0  0  0  0  0  0  0
  1  2  2  0
  2  3  1  0
  2  4  1  0
  4  5  2  0
  4  8  1  0
  5  6  1  0
  6  7  2  0
  7  8  1  0
M  CHG  1   3  -1
M  END
