
     RDKit          3D

 40 43  0  0  0  0  0  0  0  0999 V2000
   -5.6620    3.1620    0.3600 C   0  0  0  0  0  0  0  0  0  0  0  0
   -4.4750    3.4510    0.9870 O   0  0  0  0  0  0  0  0  0  0  0  0
   -3.3900    3.4500    0.1000 C   0  0  1  0  0  0  0  0  0  0  0  0
   -3.5620    4.5380   -0.9660 C   0  0  0  0  0  0  0  0  0  0  0  0
   -2.1080    3.7570    0.8660 C   0  0  0  0  0  0  0  0  0  0  0  0
   -1.7100    2.5650    1.4180 O   0  0  0  0  0  0  0  0  0  0  0  0
   -1.6020    1.2890    0.8510 C   0  0  0  0  0  0  0  0  0  0  0  0
   -2.4280    1.1350   -0.2150 C   0  0  0  0  0  0  0  0  0  0  0  0
   -3.1980    2.2560   -0.5240 O   0  0  0  0  0  0  0  0  0  0  0  0
   -2.6110   -0.0200   -1.0500 C   0  0  0  0  0  0  0  0  0  0  0  0
   -3.8540   -0.4690   -1.0460 O   0  0  0  0  0  0  0  0  0  0  0  0
   -1.8070   -0.7990   -1.8770 N   0  0  0  0  0  0  0  0  0  0  0  0
   -0.4000   -0.6770   -2.1880 C   0  0  0  0  0  0  0  0  0  0  0  0
    0.2890   -1.9770   -2.4600 C   0  0  2  0  0  0  0  0  0  0  0  0
   -0.3650   -3.2020   -1.9400 C   0  0  0  0  0  0  0  0  0  0  0  0
   -0.6490   -3.2030   -0.4780 C   0  0  0  0  0  0  0  0  0  0  0  0
   -0.9660   -4.5360    0.0990 C   0  0  0  0  0  0  0  0  0  0  0  0
   -1.3090   -4.6120    1.3780 C   0  0  0  0  0  0  0  0  0  0  0  0
   -1.4070   -3.4570    2.3080 C   0  0  0  0  0  0  0  0  0  0  0  0
   -2.7420   -2.7870    2.3460 C   0  0  2  0  0  0  0  0  0  0  0  0
   -3.7670   -3.3650    1.4210 C   0  0  0  0  0  0  0  0  0  0  0  0
   -2.6350   -1.2540    2.2030 C   0  0  0  0  0  0  0  0  0  0  0  0
   -1.3720   -1.0120    1.7600 O   0  0  0  0  0  0  0  0  0  0  0  0
   -0.7330    0.1910    1.2940 C   0  0  0  0  0  0  0  0  0  0  0  0
    0.5670    0.0460    1.3690 C   0  0  0  0  0  0  0  0  0  0  0  0
    1.7090    0.9580    1.0320 C   0  0  2  0  0  0  0  0  0  0  0  0
    1.2220    2.1740    0.4620 N   0  0  0  0  0  0  0  0  0  0  0  0
    2.6910    0.3100    0.1670 C   0  0  2  0  0  0  0  0  0  0  0  0
    4.0900    0.6620    0.2100 C   0  0  0  0  0  0  0  0  0  0  0  0
    4.5270    1.6530    0.9440 C   0  0  0  0  0  0  0  0  0  0  0  0
    5.7920    2.3060    1.2580 C   0  0  0  0  0  0  0  0  0  0  0  0
    6.9650    2.3450    0.6220 C   0  0  0  0  0  0  0  0  0  0  0  0
    7.4880    1.7720   -0.6270 C   0  0  0  0  0  0  0  0  0  0  0  0
    7.0530    0.7380   -1.3500 C   0  0  0  0  0  0  0  0  0  0  0  0
    6.0000   -0.2180   -1.2930 N   0  0  0  0  0  0  0  0  0  0  0  0
    4.8640   -0.2330   -0.6880 C   0  0  0  0  0  0  0  0  0  0  0  0
    2.3050    0.4240   -1.2550 N   0  0  0  0  0  0  0  0  0  0  0  0
    2.3380   -0.6090   -2.1910 C   0  0  0  0  0  0  0  0  0  0  0  0
    2.9310   -0.3900   -3.3060 O   0  0  0  0  0  0  0  0  0  0  0  0
    1.7540   -1.9640   -2.0420 C   0  0  0  0  0  0  0  0  0  0  0  0
  1  2  1  0
  2  3  1  0
  3  4  1  6
  3  5  1  0
  3  9  1  0
  5  6  1  0
  6  7  1  0
  7  8  2  0
  7 24  1  0
  8  9  1  0
  8 10  1  0
 10 11  2  0
 10 12  1  0
 12 13  1  0
 13 14  1  0
 14 15  1  1
 14 40  1  0
 15 16  1  0
 16 17  1  0
 17 18  2  0
 18 19  1  0
 19 20  1  0
 20 21  1  6
 20 22  1  0
 22 23  1  0
 23 24  1  0
 24 25  2  0
 25 26  1  0
 26 27  1  6
 26 28  1  0
 28 29  1  6
 28 37  1  0
 29 30  2  0
 29 36  1  0
 30 31  1  0
 31 32  2  0
 32 33  1  0
 33 34  2  0
 34 35  1  0
 35 36  2  0
 37 38  1  0
 38 39  2  0
 38 40  1  0
M  CHG  1  27   1
M  END
