
     RDKit          3D

 24 26  0  0  0  0  0  0  0  0999 V2000
   -3.2420    2.9440   -2.4790 C   0  0  0  0  0  0  0  0  0  0  0  0
   -2.3480    2.2860   -1.5160 C   0  0  0  0  0  0  0  0  0  0  0  0
   -2.7280    1.2870   -0.7410 C   0  0  0  0  0  0  0  0  0  0  0  0
   -1.8740    0.6650    0.1740 N   0  0  0  0  0  0  0  0  0  0  0  0
   -0.8020    0.0450   -0.0950 C   0  0  0  0  0  0  0  0  0  0  0  0
   -0.2750   -0.1250   -1.4010 N   0  0  0  0  0  0  0  0  0  0  0  0
    0.6450   -1.2120   -1.6110 C   0  0  2  0  0  0  0  0  0  0  0  0
    1.3370   -1.0040   -2.9680 C   0  0  0  0  0  0  0  0  0  0  0  0
   -0.2130   -2.4730   -1.8390 C   0  0  0  0  0  0  0  0  0  0  0  0
    1.5950   -1.4550   -0.5000 C   0  0  0  0  0  0  0  0  0  0  0  0
    1.3850   -0.6450    0.7550 C   0  0  1  0  0  0  0  0  0  0  0  0
    2.0790    0.6620    0.6920 C   0  0  0  0  0  0  0  0  0  0  0  0
    2.7640    1.1720   -0.3190 C   0  0  0  0  0  0  0  0  0  0  0  0
    3.3000    2.4940    0.0130 C   0  0  0  0  0  0  0  0  0  0  0  0
    2.8360    2.7130    1.3890 C   0  0  0  0  0  0  0  0  0  0  0  0
    2.1290    1.6320    1.7590 C   0  0  0  0  0  0  0  0  0  0  0  0
   -0.0400   -0.5400    0.9660 N   0  0  0  0  0  0  0  0  0  0  0  0
   -0.7360   -0.9980    2.1180 C   0  0  0  0  0  0  0  0  0  0  0  0
   -1.0850   -2.3510    2.2470 C   0  0  0  0  0  0  0  0  0  0  0  0
   -1.7570   -2.8160    3.3120 N   0  0  0  0  0  0  0  0  0  0  0  0
   -2.1230   -1.9900    4.3030 C   0  0  0  0  0  0  0  0  0  0  0  0
   -1.8130   -0.7010    4.2200 N   0  0  0  0  0  0  0  0  0  0  0  0
   -1.1310   -0.1940    3.1520 C   0  0  0  0  0  0  0  0  0  0  0  0
   -0.8770    1.0190    3.1410 O   0  0  0  0  0  0  0  0  0  0  0  0
  1  2  1  0
  2  3  2  3
  3  4  1  0
  4  5  2  3
  5  6  1  0
  5 17  1  0
  6  7  1  0
  7  8  1  6
  7  9  1  0
  7 10  1  0
 10 11  1  0
 11 12  1  6
 11 17  1  0
 12 13  2  0
 12 16  1  0
 13 14  1  0
 14 15  1  0
 15 16  2  0
 17 18  1  0
 18 19  2  0
 18 23  1  0
 19 20  1  0
 20 21  1  0
 21 22  2  0
 22 23  1  0
 23 24  2  0
M  END
