
     RDKit          3D

 24 27  0  0  0  0  0  0  0  0999 V2000
    2.6610   -2.4860   -2.2660 C   0  0  0  0  0  0  0  0  0  0  0  0
    2.8550   -1.2540   -1.4700 C   0  0  0  0  0  0  0  0  0  0  0  0
    2.1880   -0.9570   -0.3810 C   0  0  0  0  0  0  0  0  0  0  0  0
    1.1780   -1.7250    0.2430 N   0  0  0  0  0  0  0  0  0  0  0  0
   -0.1620   -1.3150    0.3480 C   0  0  0  0  0  0  0  0  0  0  0  0
   -0.5330   -0.1380   -0.1600 N   0  0  0  0  0  0  0  0  0  0  0  0
   -1.8360    0.2410   -0.0480 C   0  0  0  0  0  0  0  0  0  0  0  0
   -2.7760   -0.5440    0.5670 C   0  0  0  0  0  0  0  0  0  0  0  0
   -2.3990   -1.7230    1.0750 N   0  0  0  0  0  0  0  0  0  0  0  0
   -1.0910   -2.1030    0.9620 C   0  0  0  0  0  0  0  0  0  0  0  0
   -0.6820   -3.4180    1.5310 C   0  0  0  0  0  0  0  0  0  0  0  0
   -4.2080   -0.1750    0.7150 C   0  0  0  0  0  0  0  0  0  0  0  0
   -4.5100    1.2320    0.3250 C   0  0  0  0  0  0  0  0  0  0  0  0
   -3.6570    1.7270   -0.8200 C   0  0  0  0  0  0  0  0  0  0  0  0
   -2.2530    1.4920   -0.5830 N   0  0  0  0  0  0  0  0  0  0  0  0
   -1.2330    2.4940   -0.8720 C   0  0  0  0  0  0  0  0  0  0  0  0
    2.6860    0.3230    0.0730 C   0  0  0  0  0  0  0  0  0  0  0  0
    2.5370    1.2290    1.0250 C   0  0  0  0  0  0  0  0  0  0  0  0
    1.5590    1.1220    2.1650 C   0  0  0  0  0  0  0  0  0  0  0  0
    3.4480    2.2960    0.7800 N   0  0  0  0  0  0  0  0  0  0  0  0
    4.2090    2.0440   -0.3910 C   0  0  0  0  0  0  0  0  0  0  0  0
    5.1090    2.7130   -0.9570 O   0  0  0  0  0  0  0  0  0  0  0  0
    3.7340    0.7550   -0.8810 C   0  0  0  0  0  0  0  0  0  0  0  0
    3.8010   -0.2080   -1.7770 C   0  0  0  0  0  0  0  0  0  0  0  0
  1  2  1  0
  2  3  2  0
  2 24  1  0
  3  4  1  0
  3 17  1  0
  4  5  1  0
  5  6  2  0
  5 10  1  0
  6  7  1  0
  7  8  2  0
  7 15  1  0
  8  9  1  0
  8 12  1  0
  9 10  2  0
 10 11  1  0
 12 13  1  0
 13 14  1  0
 14 15  1  0
 15 16  1  0
 17 18  2  0
 17 23  1  0
 18 19  1  0
 18 20  1  0
 20 21  1  0
 21 22  2  0
 21 23  1  0
 23 24  2  0
M  END
