
     RDKit          3D

 24 27  0  0  0  0  0  0  0  0999 V2000
    5.6430    0.7510    1.0470 C   0  0  0  0  0  0  0  0  0  0  0  0
    4.2380    0.5120    0.6480 C   0  0  0  0  0  0  0  0  0  0  0  0
    3.2380    1.4370    0.9710 C   0  0  0  0  0  0  0  0  0  0  0  0
    1.9820    1.2210    0.6130 N   0  0  0  0  0  0  0  0  0  0  0  0
    1.5040    0.1710   -0.0610 C   0  0  0  0  0  0  0  0  0  0  0  0
    0.1670   -0.0950   -0.3770 N   0  0  0  0  0  0  0  0  0  0  0  0
   -0.9990    0.6390   -0.2510 C   0  0  0  0  0  0  0  0  0  0  0  0
   -2.2740    0.0790   -0.1920 C   0  0  0  0  0  0  0  0  0  0  0  0
   -2.7210   -1.2800    0.0180 C   0  0  0  0  0  0  0  0  0  0  0  0
   -1.9720   -2.2270    0.4450 C   0  0  0  0  0  0  0  0  0  0  0  0
   -2.4220   -3.6090    0.6540 C   0  0  0  0  0  0  0  0  0  0  0  0
   -3.7370   -3.8190    0.3430 O   0  0  0  0  0  0  0  0  0  0  0  0
   -4.5820   -2.8460   -0.1160 C   0  0  0  0  0  0  0  0  0  0  0  0
   -4.1340   -1.6150   -0.2850 C   0  0  0  0  0  0  0  0  0  0  0  0
   -3.1770    1.1070   -0.2410 N   0  0  0  0  0  0  0  0  0  0  0  0
   -2.5230    2.2460   -0.3230 C   0  0  0  0  0  0  0  0  0  0  0  0
   -3.0180    3.5260   -0.4120 C   0  0  0  0  0  0  0  0  0  0  0  0
   -2.1610    4.5780   -0.5160 C   0  0  0  0  0  0  0  0  0  0  0  0
   -0.8580    4.3080   -0.5260 N   0  0  0  0  0  0  0  0  0  0  0  0
   -0.3900    3.0210   -0.4350 C   0  0  0  0  0  0  0  0  0  0  0  0
   -1.1820    1.9560   -0.3290 N   0  0  0  0  0  0  0  0  0  0  0  0
    2.4930   -0.7730   -0.3970 C   0  0  0  0  0  0  0  0  0  0  0  0
    2.1200   -1.9980   -1.1500 C   0  0  0  0  0  0  0  0  0  0  0  0
    3.8170   -0.5890   -0.0430 C   0  0  0  0  0  0  0  0  0  0  0  0
  1  2  1  0
  2  3  2  0
  2 24  1  0
  3  4  1  0
  4  5  2  0
  5  6  1  0
  5 22  1  0
  6  7  1  0
  7  8  2  0
  7 21  1  0
  8  9  1  0
  8 15  1  0
  9 10  2  0
  9 14  1  0
 10 11  1  0
 11 12  1  0
 12 13  1  0
 13 14  2  0
 15 16  2  0
 16 17  1  0
 16 21  1  0
 17 18  2  0
 18 19  1  0
 19 20  2  0
 20 21  1  0
 22 23  1  0
 22 24  2  0
M  END
