
     RDKit          3D

 24 27  0  0  0  0  0  0  0  0999 V2000
    7.4650    1.8380   -0.9360 N   0  0  0  0  0  0  0  0  0  0  0  0
    6.4810    1.2840   -0.5890 C   0  0  0  0  0  0  0  0  0  0  0  0
    5.2970    0.6150   -0.1620 C   0  0  0  0  0  0  0  0  0  0  0  0
    4.0860    1.0260   -0.6180 C   0  0  0  0  0  0  0  0  0  0  0  0
    2.9270    0.3900   -0.2200 C   0  0  0  0  0  0  0  0  0  0  0  0
    1.6630    0.8530   -0.7360 C   0  0  0  0  0  0  0  0  0  0  0  0
    1.6420    1.9090   -1.4460 O   0  0  0  0  0  0  0  0  0  0  0  0
    0.4250    0.2340   -0.5220 N   0  0  0  0  0  0  0  0  0  0  0  0
   -0.8040    0.7760   -1.0820 C   0  0  1  0  0  0  0  0  0  0  0  0
   -1.4480   -0.1430   -2.0290 C   0  0  0  0  0  0  0  0  0  0  0  0
   -2.4970   -0.6970   -1.4540 C   0  0  0  0  0  0  0  0  0  0  0  0
   -2.6540   -0.1940   -0.0620 C   0  0  2  0  0  0  0  0  0  0  0  0
   -4.0630    0.0500    0.2890 C   0  0  0  0  0  0  0  0  0  0  0  0
   -4.8930    1.0090   -0.2410 C   0  0  0  0  0  0  0  0  0  0  0  0
   -6.1340    0.8870    0.3630 C   0  0  0  0  0  0  0  0  0  0  0  0
   -6.0550   -0.1430    1.2560 N   0  0  0  0  0  0  0  0  0  0  0  0
   -4.8070   -0.6590    1.2220 C   0  0  0  0  0  0  0  0  0  0  0  0
   -1.8290    1.0770   -0.0530 C   0  0  0  0  0  0  0  0  0  0  0  0
    2.9810   -0.6730    0.6470 C   0  0  0  0  0  0  0  0  0  0  0  0
    2.0980   -1.5030    1.2320 N   0  0  0  0  0  0  0  0  0  0  0  0
    2.6920   -2.3950    2.0180 C   0  0  0  0  0  0  0  0  0  0  0  0
    4.0340   -2.1230    1.9330 C   0  0  0  0  0  0  0  0  0  0  0  0
    4.1980   -1.0910    1.1100 N   0  0  0  0  0  0  0  0  0  0  0  0
    5.3250   -0.4560    0.7100 C   0  0  0  0  0  0  0  0  0  0  0  0
  1  2  3  0
  2  3  1  0
  3  4  1  0
  3 24  2  0
  4  5  2  0
  5  6  1  0
  5 19  1  0
  6  7  2  0
  6  8  1  0
  9  8  1  1
  9 10  1  0
  9 18  1  0
 10 11  2  0
 11 12  1  0
 12 13  1  6
 12 18  1  0
 13 14  1  0
 13 17  2  0
 14 15  2  0
 15 16  1  0
 16 17  1  0
 19 20  2  0
 19 23  1  0
 20 21  1  0
 21 22  2  0
 22 23  1  0
 23 24  1  0
M  END
