
     RDKit          3D

 32 35  0  0  0  0  0  0  0  0999 V2000
   -6.2400    4.1540   -0.6610 C   0  0  0  0  0  0  0  0  0  0  0  0
   -5.1160    4.3990   -1.2280 C   0  0  0  0  0  0  0  0  0  0  0  0
   -3.9990    3.5360   -1.3910 C   0  0  0  0  0  0  0  0  0  0  0  0
   -2.9180    4.0760   -1.9410 N   0  0  0  0  0  0  0  0  0  0  0  0
   -3.9200    2.1470   -0.9620 C   0  0  0  0  0  0  0  0  0  0  0  0
   -5.0030    1.3250   -0.8380 C   0  0  0  0  0  0  0  0  0  0  0  0
   -4.8500    0.0380   -0.3210 C   0  0  0  0  0  0  0  0  0  0  0  0
   -3.6260   -0.4540    0.0760 C   0  0  0  0  0  0  0  0  0  0  0  0
   -2.5210    0.3630   -0.0520 C   0  0  0  0  0  0  0  0  0  0  0  0
   -2.6640    1.6560   -0.5640 C   0  0  0  0  0  0  0  0  0  0  0  0
   -1.3560   -0.3590    0.2360 N   0  0  0  0  0  0  0  0  0  0  0  0
    0.0250   -0.0280    0.2700 C   0  0  0  0  0  0  0  0  0  0  0  0
    0.4640    1.3540   -0.0370 C   0  0  0  0  0  0  0  0  0  0  0  0
    1.9400    1.3850    0.0990 N   0  0  0  0  0  0  0  0  0  0  0  0
    2.8330    0.6470   -0.6680 C   0  0  0  0  0  0  0  0  0  0  0  0
    2.4060   -0.1170   -1.5680 O   0  0  0  0  0  0  0  0  0  0  0  0
    4.2990    0.7060   -0.4870 C   0  0  0  0  0  0  0  0  0  0  0  0
    5.1340   -0.0550   -1.2800 C   0  0  0  0  0  0  0  0  0  0  0  0
    6.5090   -0.0360   -1.1500 C   0  0  0  0  0  0  0  0  0  0  0  0
    7.1120    0.7630   -0.2020 C   0  0  0  0  0  0  0  0  0  0  0  0
    8.5920    0.7830   -0.0610 C   0  0  0  0  0  0  0  0  0  0  0  0
    9.0010   -0.2700    0.9210 C   0  0  0  0  0  0  0  0  0  0  0  0
    6.2950    1.5290    0.5990 C   0  0  0  0  0  0  0  0  0  0  0  0
    4.9020    1.5040    0.4610 C   0  0  0  0  0  0  0  0  0  0  0  0
   -1.7590   -1.7340    0.5470 C   0  0  0  0  0  0  0  0  0  0  0  0
   -1.1100   -2.8540    0.7760 C   0  0  0  0  0  0  0  0  0  0  0  0
   -1.8470   -4.0730    1.0340 C   0  0  0  0  0  0  0  0  0  0  0  0
   -3.1570   -4.0910    1.0220 C   0  0  0  0  0  0  0  0  0  0  0  0
   -3.9280   -5.3420    1.3000 C   0  0  0  0  0  0  0  0  0  0  0  0
   -3.9820   -2.8970    0.6030 C   0  0  0  0  0  0  0  0  0  0  0  0
   -3.1960   -1.6720    0.7860 C   0  0  2  0  0  0  0  0  0  0  0  0
   -3.2880   -1.2600    2.2420 N   0  0  0  0  0  0  0  0  0  0  0  0
  1  2  2  0
  2  3  1  0
  3  4  2  0
  3  5  1  0
  5  6  2  0
  5 10  1  0
  6  7  1  0
  7  8  2  0
  8  9  1  0
  8 31  1  0
  9 10  2  0
  9 11  1  0
 11 12  1  0
 11 25  1  0
 12 13  1  0
 13 14  1  0
 14 15  1  0
 15 16  2  0
 15 17  1  0
 17 18  2  0
 17 24  1  0
 18 19  1  0
 19 20  2  0
 20 21  1  0
 20 23  1  0
 21 22  1  0
 23 24  2  0
 25 26  2  0
 25 31  1  0
 26 27  1  0
 27 28  2  0
 28 29  1  0
 28 30  1  0
 30 31  1  0
 31 32  1  1
M  CHG  1  32   1
M  END
