
     RDKit          3D

 40 46  0  0  0  0  0  0  0  0999 V2000
   -0.1830   -0.3040   -2.2200 C   0  0  0  0  0  0  0  0  0  0  0  0
    0.2410   -0.2040   -0.8180 C   0  0  0  0  0  0  0  0  0  0  0  0
   -0.5410   -0.0010    0.1870 C   0  0  0  0  0  0  0  0  0  0  0  0
   -1.9470    0.1660    0.2810 C   0  0  0  0  0  0  0  0  0  0  0  0
   -2.4480    0.4320    1.4550 O   0  0  0  0  0  0  0  0  0  0  0  0
   -2.9260    0.0790   -0.7290 N   0  0  0  0  0  0  0  0  0  0  0  0
   -4.3050    0.2880   -0.4150 C   0  0  0  0  0  0  0  0  0  0  0  0
   -5.2070   -0.5290   -1.0600 C   0  0  0  0  0  0  0  0  0  0  0  0
   -6.5590   -0.3850   -0.7850 C   0  0  0  0  0  0  0  0  0  0  0  0
   -7.5250   -1.2830   -1.4890 C   0  0  0  0  0  0  0  0  0  0  0  0
   -7.0380    0.5380    0.0970 C   0  0  0  0  0  0  0  0  0  0  0  0
   -6.1340    1.3720    0.7520 C   0  0  0  0  0  0  0  0  0  0  0  0
   -4.7800    1.2190    0.4730 C   0  0  0  0  0  0  0  0  0  0  0  0
   -6.6340    2.3880    1.6930 C   0  0  0  0  0  0  0  0  0  0  0  0
   -7.9520    2.9610    1.2640 C   0  0  0  0  0  0  0  0  0  0  0  0
   -8.9840    1.9360    0.9360 C   0  0  0  0  0  0  0  0  0  0  0  0
   -8.3890    0.6970    0.4400 N   0  0  0  0  0  0  0  0  0  0  0  0
    1.6600   -0.4270   -0.5260 N   0  0  0  0  0  0  0  0  0  0  0  0
    1.8710   -1.7190   -0.2460 C   0  0  0  0  0  0  0  0  0  0  0  0
    1.9820   -2.9090   -0.0040 N   0  0  0  0  0  0  0  0  0  0  0  0
    3.1050   -3.5350    0.2900 C   0  0  0  0  0  0  0  0  0  0  0  0
    3.6860   -4.7460    0.6100 C   0  0  0  0  0  0  0  0  0  0  0  0
    5.0950   -4.7640    0.8340 C   0  0  0  0  0  0  0  0  0  0  0  0
    5.6920   -6.0780    1.1710 C   0  0  0  0  0  0  0  0  0  0  0  0
    5.8610   -3.6360    0.7380 N   0  0  0  0  0  0  0  0  0  0  0  0
    5.2370   -2.4880    0.4220 C   0  0  0  0  0  0  0  0  0  0  0  0
    3.9170   -2.5380    0.2260 N   0  0  0  0  0  0  0  0  0  0  0  0
    3.4140   -1.4260   -0.0610 N   0  0  0  0  0  0  0  0  0  0  0  0
    4.3230   -0.4880   -0.0930 C   0  0  0  0  0  0  0  0  0  0  0  0
    4.3580    0.8160   -0.3140 N   0  0  0  0  0  0  0  0  0  0  0  0
    5.4860    1.5380   -0.2480 C   0  0  0  0  0  0  0  0  0  0  0  0
    5.4630    2.8640   -0.4700 N   0  0  0  0  0  0  0  0  0  0  0  0
    6.5430    3.6570   -0.4110 C   0  0  0  0  0  0  0  0  0  0  0  0
    6.4220    5.1230   -0.6970 C   0  0  0  0  0  0  0  0  0  0  0  0
    7.7480    3.0640   -0.1020 C   0  0  0  0  0  0  0  0  0  0  0  0
    9.1470    4.1040   -0.0090 Cl  0  0  0  0  0  0  0  0  0  0  0  0
    7.8100    1.6830    0.1360 C   0  0  0  0  0  0  0  0  0  0  0  0
    6.6740    0.9180    0.0620 C   0  0  0  0  0  0  0  0  0  0  0  0
    6.6940   -0.4580    0.2990 C   0  0  0  0  0  0  0  0  0  0  0  0
    5.5510   -1.1540    0.2250 C   0  0  0  0  0  0  0  0  0  0  0  0
  1  2  1  0
  2  3  2  3
  2 18  1  0
  3  4  1  0
  4  5  2  0
  4  6  1  0
  6  7  1  0
  7  8  2  0
  7 13  1  0
  8  9  1  0
  9 10  1  0
  9 11  2  0
 11 12  1  0
 11 17  1  0
 12 13  2  0
 12 14  1  0
 14 15  1  0
 15 16  1  0
 16 17  1  0
 18 19  2  3
 19 20  1  0
 19 28  1  0
 20 21  2  0
 21 22  1  0
 21 27  1  0
 22 23  2  0
 23 24  1  0
 23 25  1  0
 25 26  2  0
 26 27  1  0
 26 40  1  0
 27 28  1  0
 28 29  1  0
 29 30  2  0
 29 40  1  0
 30 31  1  0
 31 32  2  0
 31 38  1  0
 32 33  1  0
 33 34  1  0
 33 35  2  0
 35 36  1  0
 35 37  1  0
 37 38  2  0
 38 39  1  0
 39 40  2  0
M  END
