
     RDKit          3D

 32 35  0  0  0  0  0  0  0  0999 V2000
   -1.6990    0.9520   -0.2570 C   0  0  0  0  0  0  0  0  0  0  0  0
   -2.0080   -0.3110    0.5540 C   0  0  2  0  0  0  0  0  0  0  0  0
   -2.1770    0.1490    1.9850 C   0  0  0  0  0  0  0  0  0  0  0  0
   -0.9920   -1.2910    0.4870 N   0  0  0  0  0  0  0  0  0  0  0  0
    0.0970   -0.9700   -0.4030 C   0  0  0  0  0  0  0  0  0  0  0  0
    1.3650   -0.6660    0.3880 C   0  0  0  0  0  0  0  0  0  0  0  0
    2.5110   -0.3270   -0.5040 C   0  0  2  0  0  0  0  0  0  0  0  0
    2.8360   -1.4100   -1.4230 N   0  0  0  0  0  0  0  0  0  0  0  0
    3.7370   -0.0940    0.3000 C   0  0  0  0  0  0  0  0  0  0  0  0
    3.7040    0.0530    1.6690 C   0  0  0  0  0  0  0  0  0  0  0  0
    4.8660    0.2670    2.3520 C   0  0  0  0  0  0  0  0  0  0  0  0
    6.0820    0.3380    1.6840 C   0  0  0  0  0  0  0  0  0  0  0  0
    6.1050    0.1900    0.3230 C   0  0  0  0  0  0  0  0  0  0  0  0
    7.3520    0.2590   -0.4090 C   0  0  0  0  0  0  0  0  0  0  0  0
    8.5880    0.4680    0.1370 C   0  0  0  0  0  0  0  0  0  0  0  0
    9.7410    0.5200   -0.6310 C   0  0  0  0  0  0  0  0  0  0  0  0
    9.6930    0.3640   -1.9860 C   0  0  0  0  0  0  0  0  0  0  0  0
    8.4650    0.1510   -2.5750 C   0  0  0  0  0  0  0  0  0  0  0  0
    7.3310    0.1010   -1.8010 C   0  0  0  0  0  0  0  0  0  0  0  0
    4.9270   -0.0210   -0.3150 N   0  0  0  0  0  0  0  0  0  0  0  0
   -3.3350   -0.7750    0.0750 C   0  0  0  0  0  0  0  0  0  0  0  0
   -3.3880   -1.9510   -0.3230 O   0  0  0  0  0  0  0  0  0  0  0  0
   -4.4860    0.0220    0.0510 N   0  0  0  0  0  0  0  0  0  0  0  0
   -5.7790   -0.3250   -0.3830 C   0  0  0  0  0  0  0  0  0  0  0  0
   -6.0900   -1.5640   -0.8760 C   0  0  0  0  0  0  0  0  0  0  0  0
   -7.4020   -1.8450   -1.2950 C   0  0  0  0  0  0  0  0  0  0  0  0
   -8.3950   -0.9090   -1.2250 C   0  0  0  0  0  0  0  0  0  0  0  0
   -8.0820    0.3610   -0.7210 C   0  0  0  0  0  0  0  0  0  0  0  0
   -6.8020    0.6360   -0.3120 C   0  0  0  0  0  0  0  0  0  0  0  0
   -6.7010    1.8910    0.1360 C   0  0  0  0  0  0  0  0  0  0  0  0
   -8.0520    2.4890    0.0030 C   0  0  0  0  0  0  0  0  0  0  0  0
   -8.8780    1.4040   -0.5660 C   0  0  0  0  0  0  0  0  0  0  0  0
  2  1  1  6
  2  3  1  0
  2  4  1  0
  2 21  1  0
  4  5  1  0
  5  6  1  0
  6  7  1  0
  7  8  1  6
  7  9  1  0
  9 10  2  0
  9 20  1  0
 10 11  1  0
 11 12  2  0
 12 13  1  0
 13 14  1  0
 13 20  2  0
 14 15  2  0
 14 19  1  0
 15 16  1  0
 16 17  2  0
 17 18  1  0
 18 19  2  0
 21 22  2  0
 21 23  1  0
 23 24  1  0
 24 25  2  0
 24 29  1  0
 25 26  1  0
 26 27  2  0
 27 28  1  0
 28 29  1  0
 28 32  2  0
 29 30  2  0
 30 31  1  0
 31 32  1  0
M  CHG  1   4   1
M  END
