
     RDKit          3D

 23 24  0  0  0  0  0  0  0  0999 V2000
    4.3820   -2.2180   -2.2550 C   0  0  0  0  0  0  0  0  0  0  0  0
    3.5890   -1.2780   -1.5860 O   0  0  0  0  0  0  0  0  0  0  0  0
    4.1210   -0.2850   -0.7780 C   0  0  0  0  0  0  0  0  0  0  0  0
    5.4720   -0.2120   -0.6200 C   0  0  0  0  0  0  0  0  0  0  0  0
    6.0170    0.7850    0.1920 C   0  0  0  0  0  0  0  0  0  0  0  0
    5.1970    1.6780    0.8220 C   0  0  0  0  0  0  0  0  0  0  0  0
    5.8570    2.9570    1.8560 Cl  0  0  0  0  0  0  0  0  0  0  0  0
    3.8280    1.5690    0.6360 C   0  0  0  0  0  0  0  0  0  0  0  0
    3.2610    0.6060   -0.1520 C   0  0  0  0  0  0  0  0  0  0  0  0
    1.8670    0.4930   -0.3430 N   0  0  0  0  0  0  0  0  0  0  0  0
    0.8400    1.2750    0.1530 C   0  0  0  0  0  0  0  0  0  0  0  0
    1.1140    2.2500    0.8880 O   0  0  0  0  0  0  0  0  0  0  0  0
   -0.6140    1.0710   -0.1070 C   0  0  0  0  0  0  0  0  0  0  0  0
   -1.3940    0.1470    1.2480 S   0  0  0  0  0  0  0  0  0  0  0  0
   -3.1270   -0.0660    0.9910 C   0  0  0  0  0  0  0  0  0  0  0  0
   -3.5770   -1.1760    0.3120 C   0  0  0  0  0  0  0  0  0  0  0  0
   -4.9280   -1.3820    0.0890 C   0  0  0  0  0  0  0  0  0  0  0  0
   -5.8390   -0.4620    0.5520 C   0  0  0  0  0  0  0  0  0  0  0  0
   -7.2650   -0.6470    0.3310 C   0  0  0  0  0  0  0  0  0  0  0  0
   -7.6760   -1.6640   -0.2960 O   0  0  0  0  0  0  0  0  0  0  0  0
   -8.2240    0.2470    0.7780 O   0  0  0  0  0  0  0  0  0  0  0  0
   -5.3570    0.6380    1.2260 C   0  0  0  0  0  0  0  0  0  0  0  0
   -4.0470    0.8150    1.4300 N   0  0  0  0  0  0  0  0  0  0  0  0
  1  2  1  0
  2  3  1  0
  3  4  2  0
  3  9  1  0
  4  5  1  0
  5  6  2  0
  6  7  1  0
  6  8  1  0
  8  9  2  0
  9 10  1  0
 10 11  1  0
 11 12  2  0
 11 13  1  0
 13 14  1  0
 14 15  1  0
 15 16  2  0
 15 23  1  0
 16 17  1  0
 17 18  2  0
 18 19  1  0
 18 22  1  0
 19 20  2  0
 19 21  1  0
 22 23  2  0
M  END
