
     RDKit          3D

 28 29  0  0  0  0  0  0  0  0999 V2000
    3.1940   -3.1040   -0.4620 C   0  0  0  0  0  0  0  0  0  0  0  0
    4.5050   -2.5130   -0.7210 C   0  0  0  0  0  0  0  0  0  0  0  0
    4.8090   -1.2640   -0.7740 C   0  0  0  0  0  0  0  0  0  0  0  0
    6.2970   -1.0030   -1.0720 C   0  0  0  0  0  0  0  0  0  0  0  0
    4.0250   -0.0670   -0.5960 C   0  0  0  0  0  0  0  0  0  0  0  0
    2.6760   -0.0270   -0.2650 C   0  0  0  0  0  0  0  0  0  0  0  0
    1.9710    1.1430   -0.1200 C   0  0  0  0  0  0  0  0  0  0  0  0
    0.5860    1.2380    0.1870 N   0  0  0  0  0  0  0  0  0  0  0  0
   -0.3770    0.2620   -0.0670 C   0  0  0  0  0  0  0  0  0  0  0  0
    0.0990   -0.8060   -0.6210 O   0  0  0  0  0  0  0  0  0  0  0  0
   -1.8170    0.3040    0.2030 C   0  0  0  0  0  0  0  0  0  0  0  0
   -2.5260   -0.8240   -0.0580 C   0  0  0  0  0  0  0  0  0  0  0  0
   -3.9140   -1.0340    0.1360 C   0  0  0  0  0  0  0  0  0  0  0  0
   -4.4850   -2.3080   -0.2220 N   0  0  0  0  0  0  0  0  0  0  0  0
   -4.3470   -2.8400   -1.5400 C   0  0  0  0  0  0  0  0  0  0  0  0
   -5.2000   -3.0240    0.8020 C   0  0  0  0  0  0  0  0  0  0  0  0
   -4.7860   -0.2070    0.6120 N   0  0  0  0  0  0  0  0  0  0  0  0
   -4.2170    1.3290    1.0830 S   0  0  1  0  0  0  0  0  0  0  0  0
   -4.9870    2.4410    0.4700 O   0  0  0  0  0  0  0  0  0  0  0  0
   -4.2490    1.5040    2.5700 O   0  0  0  0  0  0  0  0  0  0  0  0
   -2.5620    1.4480    0.5290 N   0  0  0  0  0  0  0  0  0  0  0  0
   -2.0990    2.7850    0.3550 C   0  0  0  0  0  0  0  0  0  0  0  0
   -1.7400    3.5090    1.5750 C   0  0  0  0  0  0  0  0  0  0  0  0
   -1.2650    4.8440    1.5530 N   0  0  0  0  0  0  0  0  0  0  0  0
   -1.8530    2.9380    2.6860 O   0  0  0  0  0  0  0  0  0  0  0  0
    2.6580    2.3330   -0.3160 C   0  0  0  0  0  0  0  0  0  0  0  0
    3.9920    2.3340   -0.6430 C   0  0  0  0  0  0  0  0  0  0  0  0
    4.6040    1.1580   -0.7670 N   0  0  0  0  0  0  0  0  0  0  0  0
  1  2  1  0
  2  3  2  3
  3  4  1  0
  3  5  1  0
  5  6  2  0
  5 28  1  0
  6  7  1  0
  7  8  1  0
  7 26  2  0
  8  9  1  0
  9 10  2  0
  9 11  1  0
 11 12  2  0
 11 21  1  0
 12 13  1  0
 13 14  1  0
 13 17  2  0
 14 15  1  0
 14 16  1  0
 17 18  1  0
 18 19  2  0
 18 20  2  0
 18 21  1  6
 21 22  1  0
 22 23  1  0
 23 24  1  0
 23 25  2  0
 26 27  1  0
 27 28  2  0
M  CHG  1  28   1
M  END
