
     RDKit          3D

 32 35  0  0  0  0  0  0  0  0999 V2000
    4.7830    0.8960    3.2500 C   0  0  0  0  0  0  0  0  0  0  0  0
    4.1670    0.5150    1.9590 C   0  0  0  0  0  0  0  0  0  0  0  0
    2.8620    0.1380    1.8650 C   0  0  0  0  0  0  0  0  0  0  0  0
    2.2300   -0.2340    0.6530 C   0  0  0  0  0  0  0  0  0  0  0  0
    0.8630   -0.6890    0.6900 C   0  0  0  0  0  0  0  0  0  0  0  0
    0.4740   -1.0740    1.8810 O   0  0  0  0  0  0  0  0  0  0  0  0
   -0.0970   -0.7760   -0.3560 N   0  0  0  0  0  0  0  0  0  0  0  0
    0.1920   -0.2820   -1.6480 C   0  0  0  0  0  0  0  0  0  0  0  0
   -1.0130    0.2410   -2.3740 C   0  0  0  0  0  0  0  0  0  0  0  0
   -2.2070   -0.5680   -2.1050 C   0  0  2  0  0  0  0  0  0  0  0  0
   -3.2800   -0.3160   -2.9470 O   0  0  0  0  0  0  0  0  0  0  0  0
   -2.5770   -0.6590   -0.6410 C   0  0  2  0  0  0  0  0  0  0  0  0
   -3.7230   -1.6160   -0.5600 C   0  0  0  0  0  0  0  0  0  0  0  0
   -4.3070   -1.8800    0.7740 C   0  0  0  0  0  0  0  0  0  0  0  0
   -3.4790   -2.4820    1.7610 N   0  0  0  0  0  0  0  0  0  0  0  0
   -2.9500   -3.7830    1.5410 C   0  0  0  0  0  0  0  0  0  0  0  0
   -3.1640   -4.4660    0.5100 O   0  0  0  0  0  0  0  0  0  0  0  0
   -2.6420    0.5750    0.1320 C   0  0  1  0  0  0  0  0  0  0  0  0
   -1.3420    1.1830    0.1020 O   0  0  0  0  0  0  0  0  0  0  0  0
   -3.6520    1.6020   -0.1560 C   0  0  0  0  0  0  0  0  0  0  0  0
   -4.7840    1.5790   -0.8960 C   0  0  0  0  0  0  0  0  0  0  0  0
   -5.3610    2.8350   -0.8350 C   0  0  0  0  0  0  0  0  0  0  0  0
   -4.5710    3.5840   -0.0670 N   0  0  0  0  0  0  0  0  0  0  0  0
   -3.5320    2.8810    0.3620 C   0  0  0  0  0  0  0  0  0  0  0  0
   -1.3650   -1.4590   -0.0710 C   0  0  0  0  0  0  0  0  0  0  0  0
    3.0250   -0.1940   -0.4460 C   0  0  0  0  0  0  0  0  0  0  0  0
    4.3620    0.1940   -0.3480 C   0  0  0  0  0  0  0  0  0  0  0  0
    4.9470    0.5500    0.8370 C   0  0  0  0  0  0  0  0  0  0  0  0
    6.3660    0.9420    0.8220 C   0  0  0  0  0  0  0  0  0  0  0  0
    7.0250    0.1530   -0.1120 O   0  0  0  0  0  0  0  0  0  0  0  0
    6.5890    0.5070   -1.3840 C   0  0  0  0  0  0  0  0  0  0  0  0
    5.1440    0.2040   -1.6260 C   0  0  0  0  0  0  0  0  0  0  0  0
  1  2  1  0
  2  3  2  0
  2 28  1  0
  3  4  1  0
  4  5  1  0
  4 26  2  0
  5  6  2  0
  5  7  1  0
  7  8  1  0
  7 25  1  0
  8  9  1  0
  9 10  1  0
 10 11  1  6
 10 12  1  0
 12 13  1  6
 12 18  1  0
 12 25  1  0
 13 14  1  0
 14 15  1  0
 15 16  1  0
 16 17  2  0
 18 19  1  6
 18 20  1  0
 20 21  1  0
 20 24  2  0
 21 22  2  0
 22 23  1  0
 23 24  1  0
 26 27  1  0
 27 28  2  0
 27 32  1  0
 28 29  1  0
 29 30  1  0
 30 31  1  0
 31 32  1  0
M  END
