
     RDKit          3D

 32 34  0  0  0  0  0  0  0  0999 V2000
   -1.8610    3.6870    0.8020 C   0  0  0  0  0  0  0  0  0  0  0  0
   -2.1150    2.1940    1.0560 C   0  0  1  0  0  0  0  0  0  0  0  0
   -3.3730    1.8420    0.3370 C   0  0  0  0  0  0  0  0  0  0  0  0
   -3.6160    0.3410    0.2970 C   0  0  1  0  0  0  0  0  0  0  0  0
   -3.8120   -0.1680    1.7040 C   0  0  0  0  0  0  0  0  0  0  0  0
   -4.8540    0.0810   -0.4950 C   0  0  0  0  0  0  0  0  0  0  0  0
   -5.1670   -1.3960   -0.5810 C   0  0  0  0  0  0  0  0  0  0  0  0
   -6.4260   -1.6200   -1.3880 C   0  0  0  0  0  0  0  0  0  0  0  0
   -7.5450   -1.0020   -0.8610 O   0  0  0  0  0  0  0  0  0  0  0  0
   -7.8880   -1.4020    0.4080 C   0  0  0  0  0  0  0  0  0  0  0  0
   -9.0400   -0.6750    0.7780 O   0  0  0  0  0  0  0  0  0  0  0  0
   -2.4440   -0.2840   -0.3850 C   0  0  0  0  0  0  0  0  0  0  0  0
   -1.1160    0.0250    0.2570 C   0  0  1  0  0  0  0  0  0  0  0  0
   -1.0100   -0.7820    1.4090 O   0  0  0  0  0  0  0  0  0  0  0  0
   -0.0430   -0.3790   -0.7280 C   0  0  0  0  0  0  0  0  0  0  0  0
    1.2430   -0.2010   -0.1340 N   0  0  0  0  0  0  0  0  0  0  0  0
    2.4650   -0.4760   -0.7680 C   0  0  0  0  0  0  0  0  0  0  0  0
    2.4780   -0.9560   -2.0510 C   0  0  0  0  0  0  0  0  0  0  0  0
    3.6870   -1.2160   -2.6520 C   0  0  0  0  0  0  0  0  0  0  0  0
    4.8810   -1.0140   -2.0180 C   0  0  0  0  0  0  0  0  0  0  0  0
    6.1240   -1.3060   -2.6990 N   0  0  0  0  0  0  0  0  0  0  0  0
    4.8870   -0.5260   -0.7090 C   0  0  0  0  0  0  0  0  0  0  0  0
    6.1540   -0.3420   -0.1190 N   0  0  0  0  0  0  0  0  0  0  0  0
    6.4340    0.1360    1.1870 C   0  0  0  0  0  0  0  0  0  0  0  0
    5.4730    0.4410    1.9350 O   0  0  0  0  0  0  0  0  0  0  0  0
    7.8230    0.2740    1.6620 C   0  0  0  0  0  0  0  0  0  0  0  0
    8.9710   -0.0150    0.9690 C   0  0  0  0  0  0  0  0  0  0  0  0
   10.0440    0.2700    1.8170 C   0  0  0  0  0  0  0  0  0  0  0  0
    9.4650    0.7180    2.9810 C   0  0  0  0  0  0  0  0  0  0  0  0
    8.1550    0.7040    2.8460 O   0  0  0  0  0  0  0  0  0  0  0  0
    3.6720   -0.2720   -0.1270 C   0  0  0  0  0  0  0  0  0  0  0  0
   -0.9090    1.4590    0.5980 C   0  0  0  0  0  0  0  0  0  0  0  0
  2  1  1  6
  2  3  1  0
  2 32  1  0
  3  4  1  0
  4  5  1  1
  4  6  1  0
  4 12  1  0
  6  7  1  0
  7  8  1  0
  8  9  1  0
  9 10  1  0
 10 11  1  0
 12 13  1  0
 13 14  1  1
 13 15  1  0
 13 32  1  0
 15 16  1  0
 16 17  1  0
 17 18  2  0
 17 31  1  0
 18 19  1  0
 19 20  2  0
 20 21  1  0
 20 22  1  0
 22 23  1  0
 22 31  2  0
 23 24  1  0
 24 25  2  0
 24 26  1  0
 26 27  2  0
 26 30  1  0
 27 28  1  0
 28 29  2  0
 29 30  1  0
M  END
