
     RDKit          3D

 40 43  0  0  0  0  0  0  0  0999 V2000
    9.1820    1.9770   -0.5280 C   0  0  0  0  0  0  0  0  0  0  0  0
    9.6110    1.3030    0.7740 C   0  0  0  0  0  0  0  0  0  0  0  0
    8.3880    1.1860    1.6330 C   0  0  0  0  0  0  0  0  0  0  0  0
    7.3010    0.3830    1.0140 C   0  0  0  0  0  0  0  0  0  0  0  0
    6.1800    0.9880    0.4770 C   0  0  0  0  0  0  0  0  0  0  0  0
    5.1580    0.2310   -0.0990 C   0  0  0  0  0  0  0  0  0  0  0  0
    5.2010   -1.1410   -0.1670 C   0  0  0  0  0  0  0  0  0  0  0  0
    4.2430   -1.9570   -0.7080 O   0  0  0  0  0  0  0  0  0  0  0  0
    3.0270   -1.6240   -1.2740 C   0  0  0  0  0  0  0  0  0  0  0  0
    2.0100   -0.9950   -0.3640 C   0  0  0  0  0  0  0  0  0  0  0  0
    0.8220   -0.7250   -1.1460 N   0  0  0  0  0  0  0  0  0  0  0  0
    0.0250   -1.8120   -1.6190 C   0  0  0  0  0  0  0  0  0  0  0  0
   -0.6440   -2.5460   -0.4770 C   0  0  2  0  0  0  0  0  0  0  0  0
   -1.4460   -3.6810   -0.9960 C   0  0  0  0  0  0  0  0  0  0  0  0
   -1.2470   -1.6110    0.4780 C   0  0  0  0  0  0  0  0  0  0  0  0
   -2.2290   -0.7340   -0.0270 N   0  0  0  0  0  0  0  0  0  0  0  0
   -3.4670   -1.1230   -0.5450 C   0  0  0  0  0  0  0  0  0  0  0  0
   -3.8510   -2.2980   -0.6040 O   0  0  0  0  0  0  0  0  0  0  0  0
   -4.3820   -0.0400   -1.0580 C   0  0  2  0  0  0  0  0  0  0  0  0
   -4.6720    0.9630    0.0230 C   0  0  0  0  0  0  0  0  0  0  0  0
   -5.8460    0.5440    0.9130 C   0  0  1  0  0  0  0  0  0  0  0  0
   -6.0150    1.6030    1.8880 N   0  0  0  0  0  0  0  0  0  0  0  0
   -6.6130    1.0750    3.0810 C   0  0  0  0  0  0  0  0  0  0  0  0
   -7.0160    0.3850    0.0410 C   0  0  0  0  0  0  0  0  0  0  0  0
   -8.2750    0.8060    0.4000 C   0  0  0  0  0  0  0  0  0  0  0  0
   -9.3410    0.6330   -0.4550 C   0  0  0  0  0  0  0  0  0  0  0  0
  -10.6210    1.0600   -0.0910 O   0  0  0  0  0  0  0  0  0  0  0  0
   -9.1600    0.0310   -1.6880 C   0  0  0  0  0  0  0  0  0  0  0  0
   -7.9040   -0.3890   -2.0450 C   0  0  0  0  0  0  0  0  0  0  0  0
   -6.8400   -0.2140   -1.1880 C   0  0  0  0  0  0  0  0  0  0  0  0
   -5.5520   -0.6480   -1.5610 O   0  0  0  0  0  0  0  0  0  0  0  0
    0.4900    0.6090   -1.4450 C   0  0  0  0  0  0  0  0  0  0  0  0
   -0.5570    0.8630   -2.2420 N   0  0  0  0  0  0  0  0  0  0  0  0
   -0.9490    2.0940   -2.5830 C   0  0  0  0  0  0  0  0  0  0  0  0
   -0.2450    3.1760   -2.0940 C   0  0  0  0  0  0  0  0  0  0  0  0
    0.8320    2.9340   -1.2740 C   0  0  0  0  0  0  0  0  0  0  0  0
    1.1800    1.6570   -0.9640 N   0  0  0  0  0  0  0  0  0  0  0  0
    6.3500   -1.7370    0.3850 C   0  0  0  0  0  0  0  0  0  0  0  0
    7.3580   -0.9880    0.9520 C   0  0  0  0  0  0  0  0  0  0  0  0
    8.5740   -1.6740    1.5270 C   0  0  0  0  0  0  0  0  0  0  0  0
  1  2  1  0
  2  3  1  0
  3  4  1  0
  4  5  2  0
  4 39  1  0
  5  6  1  0
  6  7  2  0
  7  8  1  0
  7 38  1  0
  8  9  1  0
  9 10  1  0
 10 11  1  0
 11 12  1  0
 11 32  1  0
 12 13  1  0
 13 14  1  6
 13 15  1  0
 15 16  1  0
 16 17  1  0
 17 18  2  0
 19 17  1  1
 19 20  1  0
 19 31  1  0
 20 21  1  0
 21 22  1  1
 21 24  1  0
 22 23  1  0
 24 25  2  0
 24 30  1  0
 25 26  1  0
 26 27  1  0
 26 28  2  0
 28 29  1  0
 29 30  2  0
 30 31  1  0
 32 33  2  0
 32 37  1  0
 33 34  1  0
 34 35  2  0
 35 36  1  0
 36 37  2  0
 38 39  2  0
 39 40  1  0
M  CHG  1  22   1
M  END
