
     RDKit          3D

 40 43  0  0  0  0  0  0  0  0999 V2000
    6.0310   -1.7000   -1.9910 C   0  0  0  0  0  0  0  0  0  0  0  0
    6.2950   -0.3340   -1.6500 N   0  0  0  0  0  0  0  0  0  0  0  0
    6.4590   -0.0430   -0.2740 C   0  0  2  0  0  0  0  0  0  0  0  0
    7.6020   -0.7770    0.4060 C   0  0  0  0  0  0  0  0  0  0  0  0
    8.8820   -0.3900   -0.2400 C   0  0  0  0  0  0  0  0  0  0  0  0
    9.5310   -0.9700   -1.3000 C   0  0  0  0  0  0  0  0  0  0  0  0
   10.6980   -0.2640   -1.5630 C   0  0  0  0  0  0  0  0  0  0  0  0
   10.7790    0.7490   -0.6760 N   0  0  0  0  0  0  0  0  0  0  0  0
    9.6990    0.6810    0.1190 C   0  0  0  0  0  0  0  0  0  0  0  0
    5.2010   -0.1630    0.5150 C   0  0  0  0  0  0  0  0  0  0  0  0
    5.2850    0.0440    1.7810 O   0  0  0  0  0  0  0  0  0  0  0  0
    3.9760   -0.4820   -0.0690 N   0  0  0  0  0  0  0  0  0  0  0  0
    2.7210   -0.5890    0.6060 C   0  0  0  0  0  0  0  0  0  0  0  0
    2.0810    0.5990    1.1700 C   0  0  2  0  0  0  0  0  0  0  0  0
    2.7420    1.3620    2.2180 C   0  0  0  0  0  0  0  0  0  0  0  0
    1.8110    2.3220    2.9550 C   0  0  0  0  0  0  0  0  0  0  0  0
    0.4990    1.7640    3.3660 C   0  0  0  0  0  0  0  0  0  0  0  0
    0.4450    0.2970    2.9730 C   0  0  0  0  0  0  0  0  0  0  0  0
    0.6820    0.2520    1.5680 N   0  0  0  0  0  0  0  0  0  0  0  0
   -0.2090   -0.0260    0.5420 C   0  0  0  0  0  0  0  0  0  0  0  0
    0.2900   -0.0490   -0.7010 O   0  0  0  0  0  0  0  0  0  0  0  0
   -1.6400   -0.3150    0.4910 C   0  0  2  0  0  0  0  0  0  0  0  0
   -2.2510   -0.8050    1.7460 C   0  0  0  0  0  0  0  0  0  0  0  0
   -1.9760   -1.1500   -0.6600 N   0  0  0  0  0  0  0  0  0  0  0  0
   -3.2840   -1.4080   -1.1020 C   0  0  0  0  0  0  0  0  0  0  0  0
   -3.5640   -2.4800   -1.9530 C   0  0  0  0  0  0  0  0  0  0  0  0
   -4.8160   -2.7460   -2.4560 C   0  0  0  0  0  0  0  0  0  0  0  0
   -5.8650   -1.9050   -2.1010 C   0  0  0  0  0  0  0  0  0  0  0  0
   -7.1650   -2.1150   -2.5790 O   0  0  0  0  0  0  0  0  0  0  0  0
   -7.3330   -3.2510   -3.4430 C   0  0  0  0  0  0  0  0  0  0  0  0
   -5.6470   -0.8410   -1.2700 C   0  0  0  0  0  0  0  0  0  0  0  0
   -6.6950   -0.0060   -0.9230 O   0  0  0  0  0  0  0  0  0  0  0  0
   -6.4360    1.0880   -0.0750 C   0  0  0  0  0  0  0  0  0  0  0  0
   -7.7420    1.8080    0.1010 C   0  0  0  0  0  0  0  0  0  0  0  0
   -8.8830    1.4290   -0.5850 C   0  0  0  0  0  0  0  0  0  0  0  0
  -10.0780    2.0890   -0.4360 C   0  0  0  0  0  0  0  0  0  0  0  0
  -10.1530    3.1590    0.4160 C   0  0  0  0  0  0  0  0  0  0  0  0
   -9.0120    3.5450    1.1070 C   0  0  0  0  0  0  0  0  0  0  0  0
   -7.7940    2.8830    0.9650 C   0  0  0  0  0  0  0  0  0  0  0  0
   -4.3550   -0.5990   -0.7740 C   0  0  0  0  0  0  0  0  0  0  0  0
  1  2  1  0
  2  3  1  0
  3  4  1  1
  3 10  1  0
  4  5  1  0
  5  6  1  0
  5  9  2  0
  6  7  2  0
  7  8  1  0
  8  9  1  0
 10 11  2  0
 10 12  1  0
 12 13  1  0
 14 13  1  1
 14 15  1  0
 14 19  1  0
 15 16  1  0
 16 17  1  0
 17 18  1  0
 18 19  1  0
 19 20  1  0
 20 21  2  0
 20 22  1  0
 22 23  1  1
 22 24  1  0
 24 25  1  0
 25 26  2  0
 25 40  1  0
 26 27  1  0
 27 28  2  0
 28 29  1  0
 28 31  1  0
 29 30  1  0
 31 32  1  0
 31 40  2  0
 32 33  1  0
 33 34  1  0
 34 35  2  0
 34 39  1  0
 35 36  1  0
 36 37  2  0
 37 38  1  0
 38 39  2  0
M  CHG  1   2   1
M  END
