
     RDKit          3D

 40 43  0  0  0  0  0  0  0  0999 V2000
   -8.3130    1.0490   -1.4190 C   0  0  0  0  0  0  0  0  0  0  0  0
   -7.1990    0.8310   -0.7970 C   0  0  0  0  0  0  0  0  0  0  0  0
   -7.1780    0.5300    0.6080 N   0  0  0  0  0  0  0  0  0  0  0  0
   -5.9690    0.3210    1.2410 C   0  0  0  0  0  0  0  0  0  0  0  0
   -6.1490   -0.2330    2.4570 C   0  0  0  0  0  0  0  0  0  0  0  0
   -5.1410   -0.6120    3.4480 C   0  0  0  0  0  0  0  0  0  0  0  0
   -3.9650   -0.0330    3.5690 C   0  0  0  0  0  0  0  0  0  0  0  0
   -3.3730    1.0560    2.8230 C   0  0  0  0  0  0  0  0  0  0  0  0
   -3.8850    1.5080    1.6240 N   0  0  0  0  0  0  0  0  0  0  0  0
   -4.5840    0.6480    0.7200 C   0  0  1  0  0  0  0  0  0  0  0  0
   -3.9370   -0.6470    0.4490 C   0  0  0  0  0  0  0  0  0  0  0  0
   -2.5570   -0.7280   -0.0290 C   0  0  1  0  0  0  0  0  0  0  0  0
   -2.2000   -2.2160   -0.2030 C   0  0  0  0  0  0  0  0  0  0  0  0
   -2.2940   -3.0090    1.0480 C   0  0  0  0  0  0  0  0  0  0  0  0
   -1.4660   -2.5440    2.0610 O   0  0  0  0  0  0  0  0  0  0  0  0
   -2.2080   -0.1340   -1.2780 N   0  0  0  0  0  0  0  0  0  0  0  0
   -1.1260    0.7890   -1.4060 C   0  0  0  0  0  0  0  0  0  0  0  0
   -0.4940    1.0500   -0.3230 O   0  0  0  0  0  0  0  0  0  0  0  0
   -0.7270    1.4200   -2.6650 C   0  0  0  0  0  0  0  0  0  0  0  0
    0.4890    2.2870   -2.4100 C   0  0  0  0  0  0  0  0  0  0  0  0
    1.6310    1.4620   -1.9030 C   0  0  0  0  0  0  0  0  0  0  0  0
    1.4730    0.2410   -1.8180 O   0  0  0  0  0  0  0  0  0  0  0  0
    2.8270    2.0920   -1.5430 N   0  0  0  0  0  0  0  0  0  0  0  0
    3.9650    1.4060   -1.0550 C   0  0  0  0  0  0  0  0  0  0  0  0
    4.9780    2.1400   -0.4120 C   0  0  0  0  0  0  0  0  0  0  0  0
    6.1040    1.5490    0.0770 C   0  0  0  0  0  0  0  0  0  0  0  0
    6.3170    0.2080   -0.0280 C   0  0  0  0  0  0  0  0  0  0  0  0
    7.4870   -0.4640    0.4900 N   0  0  0  0  0  0  0  0  0  0  0  0
    7.5760   -1.8540    0.1390 C   0  0  0  0  0  0  0  0  0  0  0  0
    8.8580   -2.4960    0.5720 C   0  0  0  0  0  0  0  0  0  0  0  0
   10.0670   -1.6190    0.4650 C   0  0  0  0  0  0  0  0  0  0  0  0
   10.3430   -0.9980    1.6890 O   0  0  0  0  0  0  0  0  0  0  0  0
    9.1760   -0.4760    2.2470 C   0  0  0  0  0  0  0  0  0  0  0  0
    8.3850    0.3340    1.2770 C   0  0  0  0  0  0  0  0  0  0  0  0
    5.3510   -0.5490   -0.6510 C   0  0  0  0  0  0  0  0  0  0  0  0
    4.1910    0.0570   -1.1570 C   0  0  0  0  0  0  0  0  0  0  0  0
   -4.7620    1.4330   -0.5620 C   0  0  0  0  0  0  0  0  0  0  0  0
   -5.8800    0.8750   -1.4010 C   0  0  0  0  0  0  0  0  0  0  0  0
   -5.6860    0.4120   -2.6090 C   0  0  0  0  0  0  0  0  0  0  0  0
   -6.7290   -0.1880   -3.4570 C   0  0  0  0  0  0  0  0  0  0  0  0
  1  2  2  0
  2  3  1  0
  2 38  1  0
  3  4  1  0
  4  5  2  0
  4 10  1  0
  5  6  1  0
  6  7  2  0
  7  8  1  0
  8  9  1  0
  9 10  1  0
 10 11  1  6
 10 37  1  0
 12 11  1  6
 12 13  1  0
 12 16  1  0
 13 14  1  0
 14 15  1  0
 16 17  1  0
 17 18  2  0
 17 19  1  0
 19 20  1  0
 20 21  1  0
 21 22  2  0
 21 23  1  0
 23 24  1  0
 24 25  2  0
 24 36  1  0
 25 26  1  0
 26 27  2  0
 27 28  1  0
 27 35  1  0
 28 29  1  0
 28 34  1  0
 29 30  1  0
 30 31  1  0
 31 32  1  0
 32 33  1  0
 33 34  1  0
 35 36  2  0
 37 38  1  0
 38 39  2  3
 39 40  1  0
M  CHG  1   9   1
M  END
