
     RDKit          3D

 40 43  0  0  0  0  0  0  0  0999 V2000
   -9.0360    2.7130    0.1550 C   0  0  0  0  0  0  0  0  0  0  0  0
   -9.8030    1.4010    0.0970 C   0  0  0  0  0  0  0  0  0  0  0  0
   -8.8200    0.2790    0.2820 C   0  0  1  0  0  0  0  0  0  0  0  0
   -9.4580   -1.0970    0.2410 C   0  0  0  0  0  0  0  0  0  0  0  0
   -7.6380    0.3910   -0.5310 N   0  0  0  0  0  0  0  0  0  0  0  0
   -6.3350    0.1990    0.0430 C   0  0  0  0  0  0  0  0  0  0  0  0
   -6.2960   -0.0950    1.2580 O   0  0  0  0  0  0  0  0  0  0  0  0
   -5.1280    0.3190   -0.6750 N   0  0  0  0  0  0  0  0  0  0  0  0
   -3.8900    0.0670    0.0330 C   0  0  0  0  0  0  0  0  0  0  0  0
   -2.6780    0.2690   -0.8140 C   0  0  0  0  0  0  0  0  0  0  0  0
   -1.4680   -0.0500   -0.0100 C   0  0  2  0  0  0  0  0  0  0  0  0
   -1.4860   -1.4830    0.4050 C   0  0  0  0  0  0  0  0  0  0  0  0
   -1.5180    0.8670    1.2310 C   0  0  0  0  0  0  0  0  0  0  0  0
   -0.1460    0.2980   -0.6730 C   0  0  0  0  0  0  0  0  0  0  0  0
    0.8890   -0.1240    0.3430 C   0  0  0  0  0  0  0  0  0  0  0  0
    1.8280    0.5870    0.8640 C   0  0  0  0  0  0  0  0  0  0  0  0
    2.7240   -0.1060    1.8950 C   0  0  0  0  0  0  0  0  0  0  0  0
    2.3550   -1.4420    2.1360 N   0  0  1  0  0  0  0  0  0  0  0  0
    2.8290   -2.3630    1.1430 C   0  0  0  0  0  0  0  0  0  0  0  0
    4.1170   -3.0450    1.5610 C   0  0  0  0  0  0  0  0  0  0  0  0
    3.7640   -3.9980    2.6940 C   0  0  0  0  0  0  0  0  0  0  0  0
    2.7760   -3.3290    3.6470 C   0  0  0  0  0  0  0  0  0  0  0  0
    2.9040   -1.8440    3.4680 C   0  0  0  0  0  0  0  0  0  0  0  0
    2.2760    1.9300    0.5030 C   0  0  0  0  0  0  0  0  0  0  0  0
    2.7130    2.8160    1.5210 C   0  0  0  0  0  0  0  0  0  0  0  0
    3.1700    3.9100    0.9420 N   0  0  0  0  0  0  0  0  0  0  0  0
    3.0550    3.7800   -0.3460 N   0  0  0  0  0  0  0  0  0  0  0  0
    2.5030    2.5540   -0.6590 C   0  0  0  0  0  0  0  0  0  0  0  0
    2.3740    2.1150   -2.0750 C   0  0  0  0  0  0  0  0  0  0  0  0
    3.5630    1.2240   -2.3140 C   0  0  0  0  0  0  0  0  0  0  0  0
    4.7810    1.7970   -2.6010 C   0  0  0  0  0  0  0  0  0  0  0  0
    5.8790    0.9700   -2.8300 C   0  0  0  0  0  0  0  0  0  0  0  0
    7.1190    1.5160   -3.1210 O   0  0  0  0  0  0  0  0  0  0  0  0
    7.2750    2.9150   -3.1840 C   0  0  0  0  0  0  0  0  0  0  0  0
    5.6990   -0.4050   -2.7610 C   0  0  0  0  0  0  0  0  0  0  0  0
    4.4770   -0.9850   -2.4730 C   0  0  0  0  0  0  0  0  0  0  0  0
    3.4090   -0.1210   -2.2510 C   0  0  0  0  0  0  0  0  0  0  0  0
    4.6190   -2.3390   -2.4770 O   0  0  0  0  0  0  0  0  0  0  0  0
    5.9520   -2.6650   -2.6860 C   0  0  0  0  0  0  0  0  0  0  0  0
    6.5850   -1.4360   -2.9370 O   0  0  0  0  0  0  0  0  0  0  0  0
  1  2  1  0
  2  3  1  0
  3  4  1  6
  3  5  1  0
  5  6  1  0
  6  7  2  0
  6  8  1  0
  8  9  1  0
  9 10  1  0
 10 11  1  0
 11 12  1  1
 11 13  1  0
 11 14  1  0
 14 15  1  0
 15 16  2  3
 16 17  1  0
 16 24  1  0
 18 17  1  6
 18 19  1  0
 18 23  1  0
 19 20  1  0
 20 21  1  0
 21 22  1  0
 22 23  1  0
 24 25  1  0
 24 28  2  0
 25 26  2  0
 26 27  1  0
 27 28  1  0
 28 29  1  0
 29 30  1  0
 30 31  2  0
 30 37  1  0
 31 32  1  0
 32 33  1  0
 32 35  2  0
 33 34  1  0
 35 36  1  0
 35 40  1  0
 36 37  2  0
 36 38  1  0
 38 39  1  0
 39 40  1  0
M  CHG  1  18   1
M  END
