
     RDKit          3D

 33 36  0  0  0  0  0  0  0  0999 V2000
    6.3170    1.4120   -0.1950 O   0  0  0  0  0  0  0  0  0  0  0  0
    6.4840    0.5000   -1.0130 C   0  0  0  0  0  0  0  0  0  0  0  0
    7.6960    0.4440   -1.7140 O   0  0  0  0  0  0  0  0  0  0  0  0
    5.4630   -0.5130   -1.2730 C   0  0  0  0  0  0  0  0  0  0  0  0
    4.2110   -0.3270   -0.5060 C   0  0  0  0  0  0  0  0  0  0  0  0
    3.1880    0.4460   -1.0560 C   0  0  0  0  0  0  0  0  0  0  0  0
    2.0030    0.6550   -0.3870 C   0  0  0  0  0  0  0  0  0  0  0  0
    1.7680    0.1020    0.8770 C   0  0  0  0  0  0  0  0  0  0  0  0
    0.5710    0.3400    1.5700 N   0  0  0  0  0  0  0  0  0  0  0  0
    0.3660    0.5300    2.9730 C   0  0  0  0  0  0  0  0  0  0  0  0
    1.3050    0.3950    3.7930 O   0  0  0  0  0  0  0  0  0  0  0  0
   -1.0370    0.8730    3.1490 C   0  0  0  0  0  0  0  0  0  0  0  0
   -1.5550    1.1340    4.4320 O   0  0  0  0  0  0  0  0  0  0  0  0
   -1.6540    0.8890    1.9950 C   0  0  0  0  0  0  0  0  0  0  0  0
   -3.0530    1.1970    1.7820 C   0  0  0  0  0  0  0  0  0  0  0  0
   -3.8210    1.4870    2.7290 O   0  0  0  0  0  0  0  0  0  0  0  0
   -3.6130    1.1750    0.4320 C   0  0  0  0  0  0  0  0  0  0  0  0
   -3.1650    2.0460   -0.5420 C   0  0  0  0  0  0  0  0  0  0  0  0
   -3.6500    2.0430   -1.8340 C   0  0  0  0  0  0  0  0  0  0  0  0
   -4.6240    1.1490   -2.2060 C   0  0  0  0  0  0  0  0  0  0  0  0
   -5.0930    0.2610   -1.2350 C   0  0  0  0  0  0  0  0  0  0  0  0
   -4.5980    0.2780    0.0490 C   0  0  0  0  0  0  0  0  0  0  0  0
   -5.1960   -0.8440    1.2660 Cl  0  0  0  0  0  0  0  0  0  0  0  0
   -0.7100    0.4860    0.9380 C   0  0  2  0  0  0  0  0  0  0  0  0
   -1.1020   -0.7360    0.2400 C   0  0  0  0  0  0  0  0  0  0  0  0
   -1.0480   -0.7540   -1.1480 C   0  0  0  0  0  0  0  0  0  0  0  0
   -1.4130   -1.8600   -1.8980 C   0  0  0  0  0  0  0  0  0  0  0  0
   -1.8510   -3.0030   -1.2650 C   0  0  0  0  0  0  0  0  0  0  0  0
   -1.9170   -3.0220    0.1070 C   0  0  0  0  0  0  0  0  0  0  0  0
   -1.5470   -1.9040    0.8300 C   0  0  0  0  0  0  0  0  0  0  0  0
   -1.6370   -1.9350    2.5830 Cl  0  0  0  0  0  0  0  0  0  0  0  0
    2.7740   -0.6570    1.4160 C   0  0  0  0  0  0  0  0  0  0  0  0
    3.9830   -0.8720    0.7370 C   0  0  0  0  0  0  0  0  0  0  0  0
  1  2  2  0
  2  3  1  0
  2  4  1  0
  4  5  1  0
  5  6  2  0
  5 33  1  0
  6  7  1  0
  7  8  2  0
  8  9  1  0
  8 32  1  0
  9 10  1  0
  9 24  1  0
 10 11  2  0
 10 12  1  0
 12 13  1  0
 12 14  2  0
 14 15  1  0
 14 24  1  0
 15 16  2  0
 15 17  1  0
 17 18  2  0
 17 22  1  0
 18 19  1  0
 19 20  2  0
 20 21  1  0
 21 22  2  0
 22 23  1  0
 24 25  1  1
 25 26  2  0
 25 30  1  0
 26 27  1  0
 27 28  2  0
 28 29  1  0
 29 30  2  0
 30 31  1  0
 32 33  2  0
M  END
