
     RDKit          3D

 31 34  0  0  0  0  0  0  0  0999 V2000
    6.2940    0.6970   -0.2800 C   0  0  0  0  0  0  0  0  0  0  0  0
    4.8570    0.3700   -0.3170 C   0  0  0  0  0  0  0  0  0  0  0  0
    4.0210    1.0790   -1.1560 C   0  0  0  0  0  0  0  0  0  0  0  0
    2.6830    0.7490   -1.1680 C   0  0  0  0  0  0  0  0  0  0  0  0
    2.1730   -0.2560   -0.3750 C   0  0  0  0  0  0  0  0  0  0  0  0
    0.7950   -0.5630   -0.4160 N   0  0  0  0  0  0  0  0  0  0  0  0
    0.1940   -1.4570   -1.3110 C   0  0  0  0  0  0  0  0  0  0  0  0
    0.7070   -2.1520   -2.2350 O   0  0  0  0  0  0  0  0  0  0  0  0
   -1.2660   -1.4850   -1.0020 C   0  0  0  0  0  0  0  0  0  0  0  0
   -2.1670   -2.2830   -1.7000 O   0  0  0  0  0  0  0  0  0  0  0  0
   -1.5290   -0.6890   -0.0200 C   0  0  0  0  0  0  0  0  0  0  0  0
   -2.7310   -0.3130    0.6830 C   0  0  0  0  0  0  0  0  0  0  0  0
   -2.5820    0.4470    1.7360 O   0  0  0  0  0  0  0  0  0  0  0  0
   -4.0890   -0.6530    0.4030 C   0  0  0  0  0  0  0  0  0  0  0  0
   -5.0230   -0.6060    1.4570 C   0  0  0  0  0  0  0  0  0  0  0  0
   -6.3300   -0.8130    1.2490 C   0  0  0  0  0  0  0  0  0  0  0  0
   -6.8470   -1.0840    0.0020 C   0  0  0  0  0  0  0  0  0  0  0  0
   -5.9430   -1.1300   -1.0260 C   0  0  0  0  0  0  0  0  0  0  0  0
   -4.5730   -0.9170   -0.8440 C   0  0  0  0  0  0  0  0  0  0  0  0
   -0.1980   -0.0400    0.4180 C   0  0  2  0  0  0  0  0  0  0  0  0
   -0.3860    1.3660    0.3080 C   0  0  0  0  0  0  0  0  0  0  0  0
   -0.4920    2.2550   -0.7370 C   0  0  0  0  0  0  0  0  0  0  0  0
   -0.6690    3.5520   -0.5300 C   0  0  0  0  0  0  0  0  0  0  0  0
   -0.8250    4.8510   -1.9540 Br  0  0  0  0  0  0  0  0  0  0  0  0
   -0.7470    3.9940    0.7950 C   0  0  0  0  0  0  0  0  0  0  0  0
   -0.5550    2.4750    1.7210 S   0  0  0  0  0  0  0  0  0  0  0  0
    3.0440   -0.9330    0.4430 C   0  0  0  0  0  0  0  0  0  0  0  0
    4.3950   -0.6440    0.4950 C   0  0  0  0  0  0  0  0  0  0  0  0
    5.3070   -1.3710    1.3670 C   0  0  0  0  0  0  0  0  0  0  0  0
    6.5200   -1.1690    1.4680 O   0  0  0  0  0  0  0  0  0  0  0  0
    4.7650   -2.3900    2.1630 O   0  0  0  0  0  0  0  0  0  0  0  0
  1  2  1  0
  2  3  2  0
  2 28  1  0
  3  4  1  0
  4  5  2  0
  5  6  1  0
  5 27  1  0
  6  7  1  0
  6 20  1  0
  7  8  2  0
  7  9  1  0
  9 10  1  0
  9 11  2  0
 11 12  1  0
 11 20  1  0
 12 13  2  0
 12 14  1  0
 14 15  2  0
 14 19  1  0
 15 16  1  0
 16 17  2  0
 17 18  1  0
 18 19  2  0
 20 21  1  6
 21 22  2  0
 21 26  1  0
 22 23  1  0
 23 24  1  0
 23 25  2  0
 25 26  1  0
 27 28  2  0
 28 29  1  0
 29 30  2  0
 29 31  1  0
M  END
