
     RDKit          3D

 30 31  0  0  0  0  0  0  0  0999 V2000
    8.5910   -0.4370   -0.5200 C   0  0  0  0  0  0  0  0  0  0  0  0
    7.5880    0.0320    0.1110 C   0  0  0  0  0  0  0  0  0  0  0  0
    7.1460   -0.4860    1.3800 N   0  0  0  0  0  0  0  0  0  0  0  0
    5.8630   -1.1660    1.1010 C   0  0  0  0  0  0  0  0  0  0  0  0
    4.8080   -0.1360    0.7270 C   0  0  0  0  0  0  0  0  0  0  0  0
    3.5170   -0.1330    1.0600 C   0  0  0  0  0  0  0  0  0  0  0  0
    2.7030    0.9010    0.6910 C   0  0  0  0  0  0  0  0  0  0  0  0
    1.4080    1.1800    0.8450 N   0  0  0  0  0  0  0  0  0  0  0  0
    0.3880    0.1720    1.2300 C   0  0  0  0  0  0  0  0  0  0  0  0
    0.7220   -0.9720    1.2580 O   0  0  0  0  0  0  0  0  0  0  0  0
   -0.8060    0.8520    1.4920 N   0  0  0  0  0  0  0  0  0  0  0  0
   -1.8880   -0.4980    1.3050 C   0  0  0  0  0  0  0  0  0  0  0  0
   -1.3560   -1.4230    0.8070 O   0  0  0  0  0  0  0  0  0  0  0  0
   -3.1820   -0.2050    1.7800 C   0  0  0  0  0  0  0  0  0  0  0  0
   -3.4350    0.6360    2.6640 O   0  0  0  0  0  0  0  0  0  0  0  0
   -4.3030   -0.9220    1.2090 N   0  0  0  0  0  0  0  0  0  0  0  0
   -5.5940   -0.6380    1.8030 C   0  0  0  0  0  0  0  0  0  0  0  0
   -6.6690   -1.2680    0.9840 C   0  0  0  0  0  0  0  0  0  0  0  0
   -7.4150   -2.2580    1.4220 C   0  0  0  0  0  0  0  0  0  0  0  0
   -8.4780   -2.8230    0.5090 C   0  0  0  0  0  0  0  0  0  0  0  0
   -6.9090   -0.6550   -0.3440 C   0  0  0  0  0  0  0  0  0  0  0  0
   -5.8260   -0.7540   -1.1890 O   0  0  0  0  0  0  0  0  0  0  0  0
   -6.0650   -0.0950   -2.4030 C   0  0  0  0  0  0  0  0  0  0  0  0
   -6.3010    1.3750   -2.2520 C   0  0  0  0  0  0  0  0  0  0  0  0
    3.8770    1.9610   -0.2180 S   0  0  0  0  0  0  0  0  0  0  0  0
    5.2790    0.9400   -0.0050 C   0  0  0  0  0  0  0  0  0  0  0  0
    6.7170    1.1010   -0.3740 C   0  0  0  0  0  0  0  0  0  0  0  0
    7.0490    2.1760   -0.9610 C   0  0  0  0  0  0  0  0  0  0  0  0
    8.3090    2.7820   -1.3540 C   0  0  0  0  0  0  0  0  0  0  0  0
    9.4720    2.1370   -1.0400 O   0  0  0  0  0  0  0  0  0  0  0  0
  1  2  2  0
  2  3  1  0
  2 27  1  0
  3  4  1  0
  4  5  1  0
  5  6  1  0
  5 26  2  0
  6  7  2  0
  7  8  1  0
  7 25  1  0
  8  9  1  0
  9 10  2  0
  9 11  1  0
 11 12  1  0
 12 13  2  0
 12 14  1  0
 14 15  2  0
 14 16  1  0
 16 17  1  0
 17 18  1  0
 18 19  2  3
 18 21  1  0
 19 20  1  0
 21 22  1  0
 22 23  1  0
 23 24  1  0
 25 26  1  0
 26 27  1  0
 27 28  2  3
 28 29  1  0
 29 30  1  0
M  CHG  1   3   1
M  END
