
     RDKit          3D

 31 34  0  0  0  0  0  0  0  0999 V2000
   -7.8320    3.1130    1.1800 C   0  0  0  0  0  0  0  0  0  0  0  0
   -6.4070    2.9870    0.6690 C   0  0  0  0  0  0  0  0  0  0  0  0
   -5.8120    1.9310    1.3600 O   0  0  0  0  0  0  0  0  0  0  0  0
   -4.4830    1.5050    1.1660 C   0  0  0  0  0  0  0  0  0  0  0  0
   -3.4290    1.7930    1.8930 C   0  0  0  0  0  0  0  0  0  0  0  0
   -2.2160    1.1730    1.3900 C   0  0  0  0  0  0  0  0  0  0  0  0
   -0.8580    1.2840    1.9780 C   0  0  0  0  0  0  0  0  0  0  0  0
   -0.7280    1.9640    2.9940 O   0  0  0  0  0  0  0  0  0  0  0  0
    0.2530    0.6400    1.4070 N   0  0  0  0  0  0  0  0  0  0  0  0
    1.5910    0.6350    1.8440 C   0  0  0  0  0  0  0  0  0  0  0  0
    1.9250    1.1770    3.0600 C   0  0  0  0  0  0  0  0  0  0  0  0
    3.2180    1.1550    3.5350 C   0  0  0  0  0  0  0  0  0  0  0  0
    4.1780    0.5980    2.8120 N   0  0  0  0  0  0  0  0  0  0  0  0
    3.8860    0.0580    1.6170 C   0  0  0  0  0  0  0  0  0  0  0  0
    4.9110   -0.5220    0.8680 C   0  0  0  0  0  0  0  0  0  0  0  0
    6.2760   -0.4960    1.4460 C   0  0  0  0  0  0  0  0  0  0  0  0
    4.6930   -1.0850   -0.3510 C   0  0  0  0  0  0  0  0  0  0  0  0
    5.8000   -1.7070   -1.1280 C   0  0  0  0  0  0  0  0  0  0  0  0
    6.1880   -3.0710   -0.6690 C   0  0  0  0  0  0  0  0  0  0  0  0
    3.3990   -1.0640   -0.8320 C   0  0  0  0  0  0  0  0  0  0  0  0
    3.0960   -1.6560   -2.1470 C   0  0  0  0  0  0  0  0  0  0  0  0
    2.3390   -0.4880   -0.1050 C   0  0  0  0  0  0  0  0  0  0  0  0
    2.6120    0.0580    1.1040 C   0  0  0  0  0  0  0  0  0  0  0  0
   -2.5840    0.4880    0.3140 C   0  0  0  0  0  0  0  0  0  0  0  0
   -4.0280    0.6440    0.0940 C   0  0  0  0  0  0  0  0  0  0  0  0
   -4.7650    0.1200   -0.8700 C   0  0  0  0  0  0  0  0  0  0  0  0
   -4.1860   -0.7320   -1.8900 C   0  0  0  0  0  0  0  0  0  0  0  0
   -4.4800   -0.8310   -3.2350 C   0  0  0  0  0  0  0  0  0  0  0  0
   -3.6350   -1.7920   -3.7300 C   0  0  0  0  0  0  0  0  0  0  0  0
   -2.8700   -2.2370   -2.6920 C   0  0  0  0  0  0  0  0  0  0  0  0
   -3.2200   -1.5860   -1.6030 O   0  0  0  0  0  0  0  0  0  0  0  0
  1  2  1  0
  2  3  1  0
  3  4  1  0
  4  5  2  0
  4 25  1  0
  5  6  1  0
  6  7  1  0
  6 24  2  0
  7  8  2  0
  7  9  1  0
  9 10  1  0
 10 11  2  0
 10 23  1  0
 11 12  1  0
 12 13  2  0
 13 14  1  0
 14 15  2  0
 14 23  1  0
 15 16  1  0
 15 17  1  0
 17 18  1  0
 17 20  2  0
 18 19  1  0
 20 21  1  0
 20 22  1  0
 22 23  2  0
 24 25  1  0
 25 26  2  3
 26 27  1  0
 27 28  2  0
 27 31  1  0
 28 29  1  0
 29 30  2  0
 30 31  1  0
M  END
