
     RDKit          3D

 31 35  0  0  0  0  0  0  0  0999 V2000
   -3.5850    5.2790    0.1140 C   0  0  0  0  0  0  0  0  0  0  0  0
   -2.1150    5.4540    0.1380 C   0  0  0  0  0  0  0  0  0  0  0  0
   -1.3300    4.3780    0.0960 C   0  0  0  0  0  0  0  0  0  0  0  0
   -0.0210    4.6080    0.1220 F   0  0  0  0  0  0  0  0  0  0  0  0
   -1.8950    3.0560    0.0300 C   0  0  0  0  0  0  0  0  0  0  0  0
   -1.2770    1.9070   -0.0190 C   0  0  0  0  0  0  0  0  0  0  0  0
    0.0990    1.8250   -0.0130 C   0  0  0  0  0  0  0  0  0  0  0  0
    0.7950    0.6310   -0.0560 C   0  0  0  0  0  0  0  0  0  0  0  0
    2.2710    0.6000   -0.0510 C   0  0  0  0  0  0  0  0  0  0  0  0
    3.0630    1.6870   -0.0140 N   0  0  0  0  0  0  0  0  0  0  0  0
    4.2970    1.2790   -0.0220 O   0  0  0  0  0  0  0  0  0  0  0  0
    4.3310   -0.0340   -0.0630 C   0  0  0  0  0  0  0  0  0  0  0  0
    5.5850   -0.8000   -0.0810 C   0  0  0  0  0  0  0  0  0  0  0  0
    6.8050   -0.1730   -0.0690 C   0  0  0  0  0  0  0  0  0  0  0  0
    7.9720   -0.9020   -0.0820 C   0  0  0  0  0  0  0  0  0  0  0  0
    7.8810   -2.2860   -0.1070 C   0  0  0  0  0  0  0  0  0  0  0  0
    6.6710   -2.8760   -0.1190 N   0  0  0  0  0  0  0  0  0  0  0  0
    5.5350   -2.1730   -0.1070 C   0  0  0  0  0  0  0  0  0  0  0  0
    3.0660   -0.4580   -0.0810 N   0  0  0  0  0  0  0  0  0  0  0  0
    0.0600   -0.5250   -0.1060 C   0  0  0  0  0  0  0  0  0  0  0  0
   -1.3150   -0.5240   -0.1160 C   0  0  0  0  0  0  0  0  0  0  0  0
   -1.9930    0.7040   -0.0710 C   0  0  0  0  0  0  0  0  0  0  0  0
   -3.3130    0.6790   -0.0800 C   0  0  0  0  0  0  0  0  0  0  0  0
   -4.1120   -0.5620   -0.1340 C   0  0  0  0  0  0  0  0  0  0  0  0
   -5.3740   -0.7880   -0.1500 N   0  0  0  0  0  0  0  0  0  0  0  0
   -5.6580   -2.1920   -0.2070 C   0  0  0  0  0  0  0  0  0  0  0  0
   -4.3070   -2.8080   -0.2230 C   0  0  0  0  0  0  0  0  0  0  0  0
   -3.4260   -1.8310   -0.1800 C   0  0  0  0  0  0  0  0  0  0  0  0
   -1.9830   -1.7780   -0.1690 N   0  0  0  0  0  0  0  0  0  0  0  0
   -1.3370   -3.0650   -0.2090 C   0  0  0  0  0  0  0  0  0  0  0  0
   -1.6120   -3.7390    1.1120 C   0  0  0  0  0  0  0  0  0  0  0  0
  1  2  1  0
  2  3  2  3
  3  4  1  0
  3  5  1  0
  5  6  2  3
  6  7  1  0
  6 22  1  0
  7  8  2  0
  8  9  1  0
  8 20  1  0
  9 10  2  0
  9 19  1  0
 10 11  1  0
 11 12  1  0
 12 13  1  0
 12 19  2  0
 13 14  2  0
 13 18  1  0
 14 15  1  0
 15 16  2  0
 16 17  1  0
 17 18  2  0
 20 21  2  0
 21 22  1  0
 21 29  1  0
 22 23  2  0
 23 24  1  0
 24 25  2  0
 24 28  1  0
 25 26  1  0
 26 27  1  0
 27 28  2  0
 28 29  1  0
 29 30  1  0
 30 31  1  0
M  END
