
     RDKit          3D

 31 35  0  0  0  0  0  0  0  0999 V2000
   -6.2190    1.0440   -1.4620 C   0  0  0  0  0  0  0  0  0  0  0  0
   -5.1590    0.8770   -0.3920 C   0  0  1  0  0  0  0  0  0  0  0  0
   -5.6800    0.1690    0.8130 C   0  0  0  0  0  0  0  0  0  0  0  0
   -4.5460   -0.4650    1.5680 C   0  0  2  0  0  0  0  0  0  0  0  0
   -4.8530   -0.6080    3.0430 C   0  0  0  0  0  0  0  0  0  0  0  0
   -3.2900    0.2940    1.3080 C   0  0  0  0  0  0  0  0  0  0  0  0
   -2.9260   -0.0420   -0.1010 N   0  0  0  0  0  0  0  0  0  0  0  0
   -1.6350   -0.5070   -0.3230 C   0  0  0  0  0  0  0  0  0  0  0  0
   -0.8430   -0.6050    0.7030 O   0  0  0  0  0  0  0  0  0  0  0  0
   -1.0880   -0.8920   -1.5700 N   0  0  0  0  0  0  0  0  0  0  0  0
   -1.6170   -0.9070   -2.7980 C   0  0  0  0  0  0  0  0  0  0  0  0
   -0.6910   -1.3440   -3.7340 C   0  0  0  0  0  0  0  0  0  0  0  0
    0.4160   -1.5940   -3.0340 N   0  0  0  0  0  0  0  0  0  0  0  0
    0.2120   -1.3310   -1.7050 C   0  0  0  0  0  0  0  0  0  0  0  0
    1.2330   -1.4930   -0.6960 C   0  0  0  0  0  0  0  0  0  0  0  0
    1.0260   -2.4550    0.3000 C   0  0  0  0  0  0  0  0  0  0  0  0
    1.9270   -2.6620    1.2730 N   0  0  0  0  0  0  0  0  0  0  0  0
    3.0670   -1.9970    1.3820 C   0  0  0  0  0  0  0  0  0  0  0  0
    3.9850   -2.2080    2.3720 F   0  0  0  0  0  0  0  0  0  0  0  0
    3.3420   -1.0150    0.4170 C   0  0  0  0  0  0  0  0  0  0  0  0
    2.4060   -0.7900   -0.6020 C   0  0  0  0  0  0  0  0  0  0  0  0
    2.3350    0.0760   -1.5920 C   0  0  0  0  0  0  0  0  0  0  0  0
    3.2340    1.1200   -2.0730 C   0  0  0  0  0  0  0  0  0  0  0  0
    4.4020    1.5800   -1.7160 C   0  0  0  0  0  0  0  0  0  0  0  0
    5.3960    1.2820   -0.6560 C   0  0  0  0  0  0  0  0  0  0  0  0
    5.4090    0.4270    0.3270 C   0  0  0  0  0  0  0  0  0  0  0  0
    6.6180    0.4730    1.1530 C   0  0  2  0  0  0  0  0  0  0  0  0
    6.8740    1.5500    2.1420 C   0  0  0  0  0  0  0  0  0  0  0  0
    7.7020    1.4480    0.8700 C   0  0  0  0  0  0  0  0  0  0  0  0
    4.4760   -0.5580    0.7710 N   0  0  0  0  0  0  0  0  0  0  0  0
   -3.9680    0.1690   -1.0530 C   0  0  0  0  0  0  0  0  0  0  0  0
  2  1  1  6
  2  3  1  0
  2 31  1  0
  3  4  1  0
  4  5  1  1
  4  6  1  0
  6  7  1  0
  7  8  1  0
  7 31  1  0
  8  9  2  0
  8 10  1  0
 10 11  1  0
 10 14  1  0
 11 12  2  0
 12 13  1  0
 13 14  2  0
 14 15  1  0
 15 16  2  0
 15 21  1  0
 16 17  1  0
 17 18  2  0
 18 19  1  0
 18 20  1  0
 20 21  1  0
 20 30  2  0
 21 22  2  0
 22 23  1  0
 23 24  2  0
 24 25  1  0
 25 26  2  0
 27 26  1  6
 26 30  1  0
 27 28  1  0
 27 29  1  0
 28 29  1  0
M  END
