
     RDKit          3D

 31 35  0  0  0  0  0  0  0  0999 V2000
    7.3130   -2.4840    0.0260 C   0  0  0  0  0  0  0  0  0  0  0  0
    6.0490   -1.7790    0.1340 C   0  0  0  0  0  0  0  0  0  0  0  0
    4.9030   -2.4200   -0.2950 F   0  0  0  0  0  0  0  0  0  0  0  0
    5.9000   -0.5530    0.6210 C   0  0  0  0  0  0  0  0  0  0  0  0
    7.0490    0.2130    1.1060 C   0  0  0  0  0  0  0  0  0  0  0  0
    4.6050    0.0110    0.6230 N   0  0  0  0  0  0  0  0  0  0  0  0
    3.5130   -0.5050    1.1290 C   0  0  0  0  0  0  0  0  0  0  0  0
    2.3670    0.2670    0.9860 N   0  0  0  0  0  0  0  0  0  0  0  0
    2.3660    1.5090    0.2180 C   0  0  0  0  0  0  0  0  0  0  0  0
    1.1830    1.6780   -0.3340 C   0  0  0  0  0  0  0  0  0  0  0  0
    0.7150    2.7640   -1.1740 C   0  0  0  0  0  0  0  0  0  0  0  0
    1.5930    3.6910   -1.6360 N   0  0  0  0  0  0  0  0  0  0  0  0
    1.1410    4.7220   -2.3730 C   0  0  0  0  0  0  0  0  0  0  0  0
   -0.2020    4.8270   -2.6400 C   0  0  0  0  0  0  0  0  0  0  0  0
   -1.1260    3.8890   -2.1770 C   0  0  0  0  0  0  0  0  0  0  0  0
   -0.6420    2.8470   -1.4390 C   0  0  0  0  0  0  0  0  0  0  0  0
   -1.4800    1.7680   -0.9480 C   0  0  0  0  0  0  0  0  0  0  0  0
   -2.7890    1.8170   -1.3630 C   0  0  0  0  0  0  0  0  0  0  0  0
   -3.6820    0.8440   -1.1120 C   0  0  0  0  0  0  0  0  0  0  0  0
   -4.8910    0.9280   -1.5240 O   0  0  0  0  0  0  0  0  0  0  0  0
   -3.2680   -0.2640   -0.3880 C   0  0  0  0  0  0  0  0  0  0  0  0
   -4.2310   -1.3880   -0.4100 C   0  0  0  0  0  0  0  0  0  0  0  0
   -4.6960   -1.8830    0.8540 N   0  0  0  0  0  0  0  0  0  0  0  0
   -5.2650   -3.1890    0.9540 C   0  0  0  0  0  0  0  0  0  0  0  0
   -6.6290   -2.7540    0.5660 C   0  0  0  0  0  0  0  0  0  0  0  0
   -6.1530   -1.3930    0.9330 C   0  0  0  0  0  0  0  0  0  0  0  0
   -1.9450   -0.3110    0.0380 C   0  0  0  0  0  0  0  0  0  0  0  0
   -1.5420   -1.5250    0.7880 C   0  0  0  0  0  0  0  0  0  0  0  0
   -1.0300    0.6790   -0.2320 N   0  0  0  0  0  0  0  0  0  0  0  0
    0.3390    0.4900    0.0600 C   0  0  2  0  0  0  0  0  0  0  0  0
    0.9400    0.2130    1.3830 C   0  0  0  0  0  0  0  0  0  0  0  0
  1  2  1  0
  2  3  1  0
  2  4  2  3
  4  5  1  0
  4  6  1  0
  6  7  2  3
  7  8  1  0
  8  9  1  0
  8 31  1  0
  9 10  2  0
 10 11  1  0
 10 30  1  0
 11 12  2  0
 11 16  1  0
 12 13  1  0
 13 14  2  0
 14 15  1  0
 15 16  2  0
 16 17  1  0
 17 18  2  0
 17 29  1  0
 18 19  1  0
 19 20  2  0
 19 21  1  0
 21 22  1  0
 21 27  2  0
 22 23  1  0
 23 24  1  0
 23 26  1  0
 24 25  1  0
 25 26  1  0
 27 28  1  0
 27 29  1  0
 29 30  1  0
 30 31  1  1
M  END
