
     RDKit          3D

 31 35  0  0  0  0  0  0  0  0999 V2000
    8.5600    3.0970    2.3270 C   0  0  0  0  0  0  0  0  0  0  0  0
    7.4790    2.2330    1.7310 C   0  0  0  0  0  0  0  0  0  0  0  0
    6.6400    2.6200    0.7420 C   0  0  0  0  0  0  0  0  0  0  0  0
    5.8110    1.5620    0.4860 C   0  0  0  0  0  0  0  0  0  0  0  0
    6.1470    0.5310    1.3190 C   0  0  0  0  0  0  0  0  0  0  0  0
    5.6190   -0.7820    1.4770 C   0  0  0  0  0  0  0  0  0  0  0  0
    4.6110   -1.3620    0.8940 C   0  0  0  0  0  0  0  0  0  0  0  0
    3.6820   -0.9260   -0.0850 C   0  0  0  0  0  0  0  0  0  0  0  0
    2.7320   -1.7730   -0.5220 C   0  0  0  0  0  0  0  0  0  0  0  0
    1.7530   -1.3580   -1.5340 C   0  0  0  0  0  0  0  0  0  0  0  0
    0.5310   -2.1110   -1.3890 N   0  0  0  0  0  0  0  0  0  0  0  0
   -0.7130   -1.4870   -1.8130 C   0  0  0  0  0  0  0  0  0  0  0  0
   -0.6510   -0.2960   -2.1820 O   0  0  0  0  0  0  0  0  0  0  0  0
   -1.9380   -2.2750   -1.7840 C   0  0  0  0  0  0  0  0  0  0  0  0
   -3.1090   -1.4250   -2.1280 C   0  0  0  0  0  0  0  0  0  0  0  0
   -3.6320   -1.1680   -3.3920 C   0  0  0  0  0  0  0  0  0  0  0  0
   -4.6050   -0.2980   -3.2480 O   0  0  0  0  0  0  0  0  0  0  0  0
   -4.7890    0.0540   -2.0060 C   0  0  0  0  0  0  0  0  0  0  0  0
   -5.6920    0.9310   -1.3900 C   0  0  0  0  0  0  0  0  0  0  0  0
   -5.6830    1.1220   -0.0300 C   0  0  0  0  0  0  0  0  0  0  0  0
   -6.6310    2.0210    0.6680 C   0  0  2  0  0  0  0  0  0  0  0  0
   -7.2880    3.1280   -0.0200 C   0  0  0  0  0  0  0  0  0  0  0  0
   -6.2660    3.3820    1.0810 C   0  0  0  0  0  0  0  0  0  0  0  0
   -4.7410    0.4070    0.7100 C   0  0  0  0  0  0  0  0  0  0  0  0
   -4.7050    0.5900    2.1850 C   0  0  0  0  0  0  0  0  0  0  0  0
   -3.8510   -0.4500    0.1040 C   0  0  0  0  0  0  0  0  0  0  0  0
   -3.8530   -0.6460   -1.2670 C   0  0  0  0  0  0  0  0  0  0  0  0
    0.5120   -3.4250   -0.8200 C   0  0  0  0  0  0  0  0  0  0  0  0
    1.8730   -4.0220   -0.7090 C   0  0  0  0  0  0  0  0  0  0  0  0
    2.6930   -3.0750    0.0050 O   0  0  0  0  0  0  0  0  0  0  0  0
    7.1960    0.9790    2.0900 N   0  0  0  0  0  0  0  0  0  0  0  0
  1  2  1  0
  2  3  2  0
  2 31  1  0
  3  4  1  0
  4  5  2  0
  5  6  1  0
  5 31  1  0
  6  7  2  3
  7  8  1  0
  8  9  2  3
  9 10  1  0
  9 30  1  0
 10 11  1  0
 11 12  1  0
 11 28  1  0
 12 13  2  0
 12 14  1  0
 14 15  1  0
 15 16  2  0
 15 27  1  0
 16 17  1  0
 17 18  1  0
 18 19  2  0
 18 27  1  0
 19 20  1  0
 21 20  1  6
 20 24  2  0
 21 22  1  0
 21 23  1  0
 22 23  1  0
 24 25  1  0
 24 26  1  0
 26 27  2  0
 28 29  1  0
 29 30  1  0
M  END
