
     RDKit          3D

 30 34  0  0  0  0  0  0  0  0999 V2000
   -7.7610   -0.4090    1.4650 O   0  0  0  0  0  0  0  0  0  0  0  0
   -7.5040    0.5870    0.7200 C   0  0  0  0  0  0  0  0  0  0  0  0
   -8.4830    1.6010    0.2290 C   0  0  0  0  0  0  0  0  0  0  0  0
   -7.6640    2.3590   -0.7950 C   0  0  0  0  0  0  0  0  0  0  0  0
   -6.2720    2.2770   -0.2140 C   0  0  0  0  0  0  0  0  0  0  0  0
   -6.2070    0.8980    0.2270 N   0  0  0  0  0  0  0  0  0  0  0  0
   -5.0660    0.0170    0.1800 C   0  0  0  0  0  0  0  0  0  0  0  0
   -5.1750   -1.3260    0.3310 C   0  0  0  0  0  0  0  0  0  0  0  0
   -4.0460   -2.1060    0.2750 C   0  0  0  0  0  0  0  0  0  0  0  0
   -2.7810   -1.5400    0.0650 C   0  0  0  0  0  0  0  0  0  0  0  0
   -2.6520   -0.1930   -0.0880 C   0  0  0  0  0  0  0  0  0  0  0  0
   -1.3980    0.4980   -0.3100 C   0  0  0  0  0  0  0  0  0  0  0  0
   -0.2390   -0.0050   -0.3930 N   0  0  0  0  0  0  0  0  0  0  0  0
    0.1910   -1.2920   -0.3090 N   0  0  0  0  0  0  0  0  0  0  0  0
    1.2400   -1.7270    0.2940 C   0  0  0  0  0  0  0  0  0  0  0  0
    1.6080   -3.1670    0.3170 C   0  0  0  0  0  0  0  0  0  0  0  0
    2.9990   -3.1330    0.9070 C   0  0  0  0  0  0  0  0  0  0  0  0
    2.8890   -1.9700    1.8850 C   0  0  0  0  0  0  0  0  0  0  0  0
    2.2240   -0.9930    1.0240 N   0  0  0  0  0  0  0  0  0  0  0  0
    2.4880    0.4170    0.9170 C   0  0  0  0  0  0  0  0  0  0  0  0
    3.9100    0.6150    0.4930 C   0  0  0  0  0  0  0  0  0  0  0  0
    4.9010    0.7390    1.4440 C   0  0  0  0  0  0  0  0  0  0  0  0
    6.2130    0.9200    1.0460 C   0  0  0  0  0  0  0  0  0  0  0  0
    6.5950    0.9850   -0.2840 C   0  0  0  0  0  0  0  0  0  0  0  0
    5.5990    0.8600   -1.2230 C   0  0  0  0  0  0  0  0  0  0  0  0
    4.2810    0.6790   -0.8410 C   0  0  0  0  0  0  0  0  0  0  0  0
    6.1020    0.9410   -2.4560 C   0  0  0  0  0  0  0  0  0  0  0  0
    7.5630    1.1370   -2.3180 C   0  0  0  0  0  0  0  0  0  0  0  0
    7.7800    1.1520   -0.8600 C   0  0  0  0  0  0  0  0  0  0  0  0
   -3.8180    0.5630   -0.0260 C   0  0  0  0  0  0  0  0  0  0  0  0
  1  2  2  0
  2  3  1  0
  2  6  1  0
  3  4  1  0
  4  5  1  0
  5  6  1  0
  6  7  1  0
  7  8  2  0
  7 30  1  0
  8  9  1  0
  9 10  2  0
 10 11  1  0
 11 12  1  0
 11 30  2  0
 12 13  2  3
 13 14  1  0
 14 15  2  3
 15 16  1  0
 15 19  1  0
 16 17  1  0
 17 18  1  0
 18 19  1  0
 19 20  1  0
 20 21  1  0
 21 22  1  0
 21 26  2  0
 22 23  2  0
 23 24  1  0
 24 25  1  0
 24 29  2  0
 25 26  1  0
 25 27  2  0
 27 28  1  0
 28 29  1  0
M  END
