
     RDKit          3D

 30 33  0  0  0  0  0  0  0  0999 V2000
   -0.0860    1.8200   -0.2640 O   0  0  0  0  0  0  0  0  0  0  0  0
   -0.0540    0.6530   -0.7070 C   0  0  0  0  0  0  0  0  0  0  0  0
    1.1520   -0.1250   -0.7370 N   0  0  0  0  0  0  0  0  0  0  0  0
    2.4010    0.3700   -0.2780 C   0  0  0  0  0  0  0  0  0  0  0  0
    2.6160    1.7160   -0.0870 C   0  0  0  0  0  0  0  0  0  0  0  0
    3.8490    2.1920    0.2940 C   0  0  0  0  0  0  0  0  0  0  0  0
    4.8900    1.3200    0.4890 C   0  0  0  0  0  0  0  0  0  0  0  0
    4.6940   -0.0340    0.3030 C   0  0  0  0  0  0  0  0  0  0  0  0
    3.4530   -0.5530   -0.0840 C   0  0  0  0  0  0  0  0  0  0  0  0
    3.2840   -1.9900   -0.2510 C   0  0  0  0  0  0  0  0  0  0  0  0
    2.1990   -2.4700   -0.5860 O   0  0  0  0  0  0  0  0  0  0  0  0
    4.3920   -2.8190   -0.0190 O   0  0  0  0  0  0  0  0  0  0  0  0
    5.6540   -2.2010   -0.3320 C   0  0  0  0  0  0  0  0  0  0  0  0
    5.8250   -0.9800    0.5200 C   0  0  0  0  0  0  0  0  0  0  0  0
   -1.2750    0.0080   -1.2300 C   0  0  0  0  0  0  0  0  0  0  0  0
   -2.3940    0.6780   -1.2630 C   0  0  0  0  0  0  0  0  0  0  0  0
   -2.6770    2.0250   -0.8640 C   0  0  0  0  0  0  0  0  0  0  0  0
   -2.0890    3.1450   -1.3950 C   0  0  0  0  0  0  0  0  0  0  0  0
   -2.3920    4.4220   -0.9350 C   0  0  0  0  0  0  0  0  0  0  0  0
   -3.3040    4.6120    0.0810 C   0  0  0  0  0  0  0  0  0  0  0  0
   -3.6010    5.8750    0.5320 O   0  0  0  0  0  0  0  0  0  0  0  0
   -3.8910    3.4910    0.6080 C   0  0  0  0  0  0  0  0  0  0  0  0
   -3.5990    2.2060    0.1610 C   0  0  0  0  0  0  0  0  0  0  0  0
   -1.2590   -1.2970   -1.6900 O   0  0  0  0  0  0  0  0  0  0  0  0
   -1.3460   -2.4720   -0.9880 C   0  0  0  0  0  0  0  0  0  0  0  0
   -2.6050   -2.6830   -0.1780 C   0  0  2  0  0  0  0  0  0  0  0  0
   -2.8230   -1.6300    0.8780 C   0  0  0  0  0  0  0  0  0  0  0  0
   -3.0420   -2.4410    2.1530 C   0  0  0  0  0  0  0  0  0  0  0  0
   -3.3800   -3.7200    1.6850 O   0  0  0  0  0  0  0  0  0  0  0  0
   -2.5120   -3.9590    0.6260 C   0  0  0  0  0  0  0  0  0  0  0  0
  1  2  2  0
  2  3  1  0
  2 15  1  0
  3  4  1  0
  4  5  2  0
  4  9  1  0
  5  6  1  0
  6  7  2  0
  7  8  1  0
  8  9  2  0
  8 14  1  0
  9 10  1  0
 10 11  2  0
 10 12  1  0
 12 13  1  0
 13 14  1  0
 15 16  2  3
 15 24  1  0
 16 17  1  0
 17 18  2  0
 17 23  1  0
 18 19  1  0
 19 20  2  0
 20 21  1  0
 20 22  1  0
 22 23  2  0
 24 25  1  0
 26 25  1  1
 26 27  1  0
 26 30  1  0
 27 28  1  0
 28 29  1  0
 29 30  1  0
M  END
