
     RDKit          3D

 30 34  0  0  0  0  0  0  0  0999 V2000
    4.7800   -0.1630    2.2320 O   0  0  0  0  0  0  0  0  0  0  0  0
    4.9200   -0.3920    1.0580 C   0  0  0  0  0  0  0  0  0  0  0  0
    6.1940   -0.7480    0.4000 C   0  0  0  0  0  0  0  0  0  0  0  0
    5.7420   -1.8220   -0.5790 C   0  0  0  0  0  0  0  0  0  0  0  0
    4.4820   -1.1910   -1.1230 C   0  0  0  0  0  0  0  0  0  0  0  0
    3.8810   -0.3750    0.0090 C   0  0  2  0  0  0  0  0  0  0  0  0
    3.6220    1.0350   -0.4750 C   0  0  0  0  0  0  0  0  0  0  0  0
    3.1650    1.8670    0.6740 C   0  0  0  0  0  0  0  0  0  0  0  0
    2.0670    1.2520    1.5010 C   0  0  0  0  0  0  0  0  0  0  0  0
    1.6620   -0.0540    1.0590 N   0  0  0  0  0  0  0  0  0  0  0  0
    0.3210   -0.4590    1.2190 C   0  0  0  0  0  0  0  0  0  0  0  0
    0.1210   -1.4080    2.1730 N   0  0  0  0  0  0  0  0  0  0  0  0
   -1.0820   -1.8630    2.4320 N   0  0  0  0  0  0  0  0  0  0  0  0
   -2.1470   -1.3860    1.7430 C   0  0  0  0  0  0  0  0  0  0  0  0
   -1.9900   -0.4280    0.7710 C   0  0  0  0  0  0  0  0  0  0  0  0
   -3.1100    0.1300    0.0210 C   0  0  0  0  0  0  0  0  0  0  0  0
   -4.4010   -0.4330    0.3120 N   0  0  0  0  0  0  0  0  0  0  0  0
   -5.3930    0.3660   -0.4180 C   0  0  0  0  0  0  0  0  0  0  0  0
   -6.7280   -0.0670    0.0770 C   0  0  0  0  0  0  0  0  0  0  0  0
   -6.9100   -1.3570    0.3310 C   0  0  0  0  0  0  0  0  0  0  0  0
   -5.8540   -2.3950    0.1470 C   0  0  0  0  0  0  0  0  0  0  0  0
   -4.5420   -1.7730   -0.2540 C   0  0  0  0  0  0  0  0  0  0  0  0
   -0.6990    0.0520    0.5020 C   0  0  0  0  0  0  0  0  0  0  0  0
   -0.4730    1.0540   -0.5230 C   0  0  0  0  0  0  0  0  0  0  0  0
    0.0880    0.7090   -1.7590 C   0  0  0  0  0  0  0  0  0  0  0  0
    0.2900    1.6460   -2.7500 C   0  0  0  0  0  0  0  0  0  0  0  0
   -0.0560    2.9680   -2.5570 C   0  0  0  0  0  0  0  0  0  0  0  0
   -0.6050    3.3320   -1.3590 C   0  0  0  0  0  0  0  0  0  0  0  0
   -0.8010    2.3850   -0.3790 C   0  0  0  0  0  0  0  0  0  0  0  0
    2.5860   -0.9810    0.4510 C   0  0  0  0  0  0  0  0  0  0  0  0
  1  2  2  0
  2  3  1  0
  2  6  1  0
  3  4  1  0
  4  5  1  0
  6  5  1  6
  6  7  1  0
  6 30  1  0
  7  8  1  0
  8  9  1  0
  9 10  1  0
 10 11  1  0
 10 30  1  0
 11 12  2  0
 11 23  1  0
 12 13  1  0
 13 14  2  0
 14 15  1  0
 15 16  1  0
 15 23  2  0
 16 17  1  0
 17 18  1  0
 17 22  1  0
 18 19  1  0
 19 20  2  0
 20 21  1  0
 21 22  1  0
 23 24  1  0
 24 25  2  0
 24 29  1  0
 25 26  1  0
 26 27  2  0
 27 28  1  0
 28 29  2  0
M  END
