
     RDKit          3D

 30 34  0  0  0  0  0  0  0  0999 V2000
   -2.4980    3.0800    1.2180 C   0  0  0  0  0  0  0  0  0  0  0  0
   -3.2600    2.0890    0.4520 C   0  0  0  0  0  0  0  0  0  0  0  0
   -4.4490    2.3500    0.1020 O   0  0  0  0  0  0  0  0  0  0  0  0
   -2.7390    0.7840    0.0490 C   0  0  0  0  0  0  0  0  0  0  0  0
   -2.0820    0.5880   -1.1460 C   0  0  0  0  0  0  0  0  0  0  0  0
   -1.9030    1.7560   -2.0500 C   0  0  0  0  0  0  0  0  0  0  0  0
   -1.5830   -0.6350   -1.5430 C   0  0  0  0  0  0  0  0  0  0  0  0
   -0.8900   -0.8250   -2.8120 C   0  0  0  0  0  0  0  0  0  0  0  0
   -1.5130   -1.1580   -3.9580 N   0  0  0  0  0  0  0  0  0  0  0  0
   -0.5490   -1.2390   -4.8900 N   0  0  0  0  0  0  0  0  0  0  0  0
    0.6070   -0.9590   -4.2990 N   0  0  0  0  0  0  0  0  0  0  0  0
    0.4110   -0.7020   -3.0190 N   0  0  0  0  0  0  0  0  0  0  0  0
    1.3590   -0.3590   -2.0170 C   0  0  0  0  0  0  0  0  0  0  0  0
    1.6040    0.9540   -1.6630 C   0  0  0  0  0  0  0  0  0  0  0  0
    2.5220    1.2990   -0.6920 C   0  0  0  0  0  0  0  0  0  0  0  0
    3.2510    0.3410   -0.0160 C   0  0  0  0  0  0  0  0  0  0  0  0
    4.2210    0.7070    1.0100 C   0  0  0  0  0  0  0  0  0  0  0  0
    4.5480    1.9120    1.4400 C   0  0  0  0  0  0  0  0  0  0  0  0
    5.5720    1.8020    2.4840 C   0  0  0  0  0  0  0  0  0  0  0  0
    5.8040    0.3550    2.6100 C   0  0  0  0  0  0  0  0  0  0  0  0
    5.0230   -0.2530    1.7600 C   0  0  0  0  0  0  0  0  0  0  0  0
    3.0120   -0.9720   -0.3650 C   0  0  0  0  0  0  0  0  0  0  0  0
    2.0910   -1.3170   -1.3390 C   0  0  0  0  0  0  0  0  0  0  0  0
   -1.7710   -1.6850   -0.6790 C   0  0  0  0  0  0  0  0  0  0  0  0
   -1.2530   -3.0220   -1.0590 C   0  0  0  0  0  0  0  0  0  0  0  0
   -2.4250   -1.5710    0.5490 C   0  0  0  0  0  0  0  0  0  0  0  0
   -2.8950   -0.3210    0.8790 C   0  0  0  0  0  0  0  0  0  0  0  0
   -3.5580   -0.3810    2.2070 C   0  0  0  0  0  0  0  0  0  0  0  0
   -3.7150   -1.8620    2.4830 C   0  0  0  0  0  0  0  0  0  0  0  0
   -2.7270   -2.5650    1.6120 C   0  0  0  0  0  0  0  0  0  0  0  0
  1  2  1  0
  2  3  2  0
  2  4  1  0
  4  5  2  0
  4 27  1  0
  5  6  1  0
  5  7  1  0
  7  8  1  0
  7 24  2  0
  8  9  2  0
  8 12  1  0
  9 10  1  0
 10 11  2  0
 11 12  1  0
 12 13  1  0
 13 14  2  0
 13 23  1  0
 14 15  1  0
 15 16  2  0
 16 17  1  0
 16 22  1  0
 17 18  2  0
 17 21  1  0
 18 19  1  0
 19 20  1  0
 20 21  2  0
 22 23  2  0
 24 25  1  0
 24 26  1  0
 26 27  2  0
 26 30  1  0
 27 28  1  0
 28 29  1  0
 29 30  1  0
M  END
