
     RDKit          3D

 36 40  0  0  0  0  0  0  0  0999 V2000
   -7.2890    4.4630    0.2540 N   0  0  0  0  0  0  0  0  0  0  0  0
   -6.0080    4.3820    0.8110 C   0  0  0  0  0  0  0  0  0  0  0  0
   -5.0740    3.6190    0.1930 C   0  0  0  0  0  0  0  0  0  0  0  0
   -3.7560    3.5170    0.7380 C   0  0  0  0  0  0  0  0  0  0  0  0
   -2.7620    2.8310    0.3010 C   0  0  0  0  0  0  0  0  0  0  0  0
   -2.8090    1.8110   -1.1370 S   0  0  0  0  0  0  0  0  0  0  0  0
   -2.1320    0.1760   -0.8060 C   0  0  0  0  0  0  0  0  0  0  0  0
   -2.9110   -0.8580   -0.3730 C   0  0  0  0  0  0  0  0  0  0  0  0
   -2.4520   -2.1290   -0.1030 C   0  0  0  0  0  0  0  0  0  0  0  0
   -1.1080   -2.3590   -0.2880 C   0  0  0  0  0  0  0  0  0  0  0  0
   -0.2800   -1.3250   -0.7310 C   0  0  0  0  0  0  0  0  0  0  0  0
   -0.7710   -0.0690   -0.9910 C   0  0  0  0  0  0  0  0  0  0  0  0
    0.0360    1.0710   -1.4750 C   0  0  0  0  0  0  0  0  0  0  0  0
    1.4310    0.7970   -1.6300 N   0  0  0  0  0  0  0  0  0  0  0  0
    2.2380    0.5570   -0.4860 C   0  0  0  0  0  0  0  0  0  0  0  0
    1.6860    0.6250    0.7650 C   0  0  0  0  0  0  0  0  0  0  0  0
    2.4690    0.3900    1.8780 C   0  0  0  0  0  0  0  0  0  0  0  0
    3.7510    0.1000    1.6960 N   0  0  0  0  0  0  0  0  0  0  0  0
    4.3430    0.0220    0.4720 C   0  0  0  0  0  0  0  0  0  0  0  0
    5.7100   -0.2890    0.3260 N   0  0  0  0  0  0  0  0  0  0  0  0
    6.5400   -0.5370    1.4700 C   0  0  0  0  0  0  0  0  0  0  0  0
    7.8420    0.2210    1.2520 C   0  0  0  0  0  0  0  0  0  0  0  0
    7.7210    1.1580    0.2310 O   0  0  0  0  0  0  0  0  0  0  0  0
    7.4780    0.5870   -1.0070 C   0  0  0  0  0  0  0  0  0  0  0  0
    6.2870   -0.3600   -0.9860 C   0  0  0  0  0  0  0  0  0  0  0  0
    3.5500    0.2570   -0.5870 N   0  0  0  0  0  0  0  0  0  0  0  0
   -0.5930   -3.6260   -0.0300 O   0  0  0  0  0  0  0  0  0  0  0  0
   -1.4340   -4.6470    0.4110 C   0  0  0  0  0  0  0  0  0  0  0  0
   -0.9520   -5.9030    0.6730 C   0  0  0  0  0  0  0  0  0  0  0  0
   -1.7800   -6.9030    1.1060 C   0  0  0  0  0  0  0  0  0  0  0  0
   -3.0960   -6.6800    1.2880 N   0  0  0  0  0  0  0  0  0  0  0  0
   -3.6020   -5.4610    1.0410 C   0  0  0  0  0  0  0  0  0  0  0  0
   -2.7950   -4.4340    0.6050 C   0  0  0  0  0  0  0  0  0  0  0  0
   -3.2740   -3.1620    0.3380 O   0  0  0  0  0  0  0  0  0  0  0  0
   -5.4900    2.9240   -1.0370 C   0  0  0  0  0  0  0  0  0  0  0  0
   -4.7040    3.4340   -2.1440 N   0  0  0  0  0  0  0  0  0  0  0  0
  1  2  1  0
  2  3  2  3
  3  4  1  0
  3 35  1  0
  4  5  2  3
  5  6  1  0
  6  7  1  0
  7  8  2  0
  7 12  1  0
  8  9  1  0
  9 10  2  0
  9 34  1  0
 10 11  1  0
 10 27  1  0
 11 12  2  0
 12 13  1  0
 13 14  1  0
 14 15  1  0
 15 16  2  0
 15 26  1  0
 16 17  1  0
 17 18  2  0
 18 19  1  0
 19 20  1  0
 19 26  2  0
 20 21  1  0
 20 25  1  0
 21 22  1  0
 22 23  1  0
 23 24  1  0
 24 25  1  0
 27 28  1  0
 28 29  2  0
 28 33  1  0
 29 30  1  0
 30 31  2  0
 31 32  1  0
 32 33  2  0
 33 34  1  0
 35 36  1  0
M  END
