
     RDKit          3D

 36 40  0  0  0  0  0  0  0  0999 V2000
  -10.1800    1.1870    3.1310 C   0  0  0  0  0  0  0  0  0  0  0  0
   -9.0720    0.5370    2.3960 C   0  0  0  0  0  0  0  0  0  0  0  0
   -7.9730    1.1350    1.9080 N   0  0  0  0  0  0  0  0  0  0  0  0
   -7.1710    0.2220    1.2890 C   0  0  0  0  0  0  0  0  0  0  0  0
   -5.9510    0.3560    0.6450 C   0  0  0  0  0  0  0  0  0  0  0  0
   -5.3730   -0.7650    0.1100 C   0  0  0  0  0  0  0  0  0  0  0  0
   -4.0790   -0.7360   -0.5940 C   0  0  0  0  0  0  0  0  0  0  0  0
   -3.6390   -1.8250   -1.0530 O   0  0  0  0  0  0  0  0  0  0  0  0
   -3.3310    0.4300   -0.7710 N   0  0  0  0  0  0  0  0  0  0  0  0
   -2.0890    0.5440   -1.4330 C   0  0  0  0  0  0  0  0  0  0  0  0
   -1.3870    1.7620   -1.3570 C   0  0  0  0  0  0  0  0  0  0  0  0
   -0.1800    1.9570   -1.9780 C   0  0  0  0  0  0  0  0  0  0  0  0
    0.4310    0.9700   -2.7200 C   0  0  0  0  0  0  0  0  0  0  0  0
    1.7380    1.1850   -3.3860 C   0  0  0  0  0  0  0  0  0  0  0  0
    2.8730    0.7780   -2.5160 C   0  0  0  0  0  0  0  0  0  0  0  0
    3.4800    1.6290   -1.6160 C   0  0  0  0  0  0  0  0  0  0  0  0
    4.5350    1.1810   -0.8380 C   0  0  0  0  0  0  0  0  0  0  0  0
    5.0250   -0.1050   -0.9170 C   0  0  0  0  0  0  0  0  0  0  0  0
    6.0910   -0.5170   -0.1150 O   0  0  0  0  0  0  0  0  0  0  0  0
    6.6850    0.3740    0.7910 C   0  0  0  0  0  0  0  0  0  0  0  0
    7.7810   -0.2760    1.5240 C   0  0  0  0  0  0  0  0  0  0  0  0
    8.1930   -1.5740    1.3710 C   0  0  0  0  0  0  0  0  0  0  0  0
    9.1840   -1.7610    2.1980 O   0  0  0  0  0  0  0  0  0  0  0  0
    9.4600   -0.7020    2.8820 C   0  0  0  0  0  0  0  0  0  0  0  0
    8.5840    0.2850    2.4860 C   0  0  0  0  0  0  0  0  0  0  0  0
    8.4650    1.9840    3.0690 S   0  0  0  0  0  0  0  0  0  0  0  0
    4.4220   -0.9630   -1.8170 C   0  0  0  0  0  0  0  0  0  0  0  0
    4.8980   -2.2980   -1.9280 N   0  0  0  0  0  0  0  0  0  0  0  0
    3.3710   -0.5130   -2.5900 C   0  0  0  0  0  0  0  0  0  0  0  0
   -0.2430   -0.2230   -2.8020 C   0  0  0  0  0  0  0  0  0  0  0  0
   -1.4790   -0.4400   -2.1740 C   0  0  0  0  0  0  0  0  0  0  0  0
   -6.0200   -1.9350    0.2370 N   0  0  0  0  0  0  0  0  0  0  0  0
   -7.1990   -2.0330    0.8660 C   0  0  0  0  0  0  0  0  0  0  0  0
   -7.8820   -3.2890    0.9980 N   0  0  0  0  0  0  0  0  0  0  0  0
   -7.7900   -0.9460    1.4030 N   0  0  0  0  0  0  0  0  0  0  0  0
   -8.9340   -0.7590    2.0680 N   0  0  0  0  0  0  0  0  0  0  0  0
  1  2  1  0
  2  3  1  0
  2 36  2  0
  3  4  2  0
  4  5  1  0
  4 35  1  0
  5  6  2  0
  6  7  1  0
  6 32  1  0
  7  8  2  0
  7  9  1  0
  9 10  1  0
 10 11  2  0
 10 31  1  0
 11 12  1  0
 12 13  2  0
 13 14  1  0
 13 30  1  0
 14 15  1  0
 15 16  2  0
 15 29  1  0
 16 17  1  0
 17 18  2  0
 18 19  1  0
 18 27  1  0
 19 20  1  0
 20 21  1  0
 21 22  2  0
 21 25  1  0
 22 23  1  0
 23 24  1  0
 24 25  2  0
 25 26  1  0
 27 28  1  0
 27 29  2  0
 30 31  2  0
 32 33  2  0
 33 34  1  0
 33 35  1  0
 35 36  1  0
M  END
