
     RDKit          3D

 36 40  0  0  0  0  0  0  0  0999 V2000
   -7.9870    0.3000   -1.7620 C   0  0  0  0  0  0  0  0  0  0  0  0
   -7.7400    1.3200   -1.0170 C   0  0  0  0  0  0  0  0  0  0  0  0
   -8.7520    2.0680   -0.2000 C   0  0  0  0  0  0  0  0  0  0  0  0
   -7.8690    2.6540    0.8000 N   0  0  0  0  0  0  0  0  0  0  0  0
   -6.5230    2.7080    0.2910 C   0  0  0  0  0  0  0  0  0  0  0  0
   -6.4680    1.9180   -0.7480 C   0  0  0  0  0  0  0  0  0  0  0  0
   -5.0980    1.5410   -1.3850 C   0  0  0  0  0  0  0  0  0  0  0  0
   -5.1000    0.2110   -1.2660 O   0  0  0  0  0  0  0  0  0  0  0  0
   -3.9770   -0.4660   -1.2060 N   0  0  0  0  0  0  0  0  0  0  0  0
   -3.9340   -1.0030    0.2210 C   0  0  0  0  0  0  0  0  0  0  0  0
   -4.9250   -0.7000    0.8940 O   0  0  0  0  0  0  0  0  0  0  0  0
   -2.8500   -1.7700    0.7580 C   0  0  2  0  0  0  0  0  0  0  0  0
   -1.7160   -0.9300    1.1110 N   0  0  0  0  0  0  0  0  0  0  0  0
   -0.5500   -0.9350    0.2990 C   0  0  0  0  0  0  0  0  0  0  0  0
   -0.4560   -1.6600   -0.7160 O   0  0  0  0  0  0  0  0  0  0  0  0
    0.5640   -0.1380    0.6090 N   0  0  0  0  0  0  0  0  0  0  0  0
    1.8290   -0.2540   -0.0580 C   0  0  0  0  0  0  0  0  0  0  0  0
    2.8920    0.3630   -0.0040 N   0  0  0  0  0  0  0  0  0  0  0  0
    4.0050    0.0080   -0.5760 C   0  0  0  0  0  0  0  0  0  0  0  0
    5.2350    0.6760   -0.4690 C   0  0  0  0  0  0  0  0  0  0  0  0
    6.3560    0.1510   -1.0690 C   0  0  0  0  0  0  0  0  0  0  0  0
    7.6040    0.8910   -0.8010 C   0  0  0  0  0  0  0  0  0  0  0  0
    7.7180    1.5350    0.4390 C   0  0  0  0  0  0  0  0  0  0  0  0
    8.8130    2.2540    0.7930 C   0  0  0  0  0  0  0  0  0  0  0  0
    9.8780    2.3650   -0.1020 C   0  0  0  0  0  0  0  0  0  0  0  0
   11.0060    3.1050    0.3320 N   0  0  0  0  0  0  0  0  0  0  0  0
    9.7690    1.7460   -1.3000 N   0  0  0  0  0  0  0  0  0  0  0  0
    8.6650    1.0320   -1.6320 C   0  0  0  0  0  0  0  0  0  0  0  0
    6.3650   -1.0060   -1.7940 C   0  0  0  0  0  0  0  0  0  0  0  0
    5.1380   -1.6830   -1.9200 C   0  0  0  0  0  0  0  0  0  0  0  0
    4.0360   -1.1260   -1.2960 C   0  0  0  0  0  0  0  0  0  0  0  0
    2.2920   -1.6620   -1.0940 S   0  0  0  0  0  0  0  0  0  0  0  0
   -2.5610   -3.1370    0.3780 C   0  0  0  0  0  0  0  0  0  0  0  0
   -1.8320   -3.7400    1.5900 C   0  0  0  0  0  0  0  0  0  0  0  0
   -2.2150   -2.7950    2.7470 C   0  0  0  0  0  0  0  0  0  0  0  0
   -3.4230   -2.0660    2.2390 C   0  0  0  0  0  0  0  0  0  0  0  0
  1  2  2  0
  2  3  1  0
  2  6  1  0
  3  4  1  0
  4  5  1  0
  5  6  2  0
  6  7  1  0
  7  8  1  0
  8  9  1  0
  9 10  1  0
 10 11  2  0
 10 12  1  0
 12 13  1  1
 12 33  1  0
 12 36  1  0
 13 14  1  0
 14 15  2  0
 14 16  1  0
 16 17  1  0
 17 18  2  0
 17 32  1  0
 18 19  1  0
 19 20  2  0
 19 31  1  0
 20 21  1  0
 21 22  1  0
 21 29  2  0
 22 23  2  0
 22 28  1  0
 23 24  1  0
 24 25  2  0
 25 26  1  0
 25 27  1  0
 27 28  2  0
 29 30  1  0
 30 31  2  0
 31 32  1  0
 33 34  1  0
 34 35  1  0
 35 36  1  0
M  END
