
     RDKit          3D

 41 45  0  0  0  0  0  0  0  0999 V2000
    7.6780   -5.2370   -0.8620 C   0  0  0  0  0  0  0  0  0  0  0  0
    6.3340   -4.9110   -0.8460 O   0  0  0  0  0  0  0  0  0  0  0  0
    5.7520   -4.9730    0.4130 C   0  0  0  0  0  0  0  0  0  0  0  0
    6.5220   -4.0590    1.3390 C   0  0  0  0  0  0  0  0  0  0  0  0
    6.4730   -2.7190    0.8240 N   0  0  0  0  0  0  0  0  0  0  0  0
    5.3380   -1.9240    0.6280 C   0  0  0  0  0  0  0  0  0  0  0  0
    4.2190   -2.4000    0.9320 O   0  0  0  0  0  0  0  0  0  0  0  0
    5.3960   -0.5490    0.0820 C   0  0  0  0  0  0  0  0  0  0  0  0
    4.0840    0.1280    0.0380 C   0  0  0  0  0  0  0  0  0  0  0  0
    3.2210   -0.1270   -0.9890 C   0  0  0  0  0  0  0  0  0  0  0  0
    1.9830    0.4980   -1.0830 C   0  0  0  0  0  0  0  0  0  0  0  0
    1.5890    1.4030   -0.1330 C   0  0  0  0  0  0  0  0  0  0  0  0
    0.3370    2.0870   -0.1170 C   0  0  0  0  0  0  0  0  0  0  0  0
    0.1830    2.9660    0.8460 O   0  0  0  0  0  0  0  0  0  0  0  0
   -0.8020    2.0120   -0.9440 N   0  0  0  0  0  0  0  0  0  0  0  0
   -1.0430    1.2460   -2.1060 C   0  0  0  0  0  0  0  0  0  0  0  0
   -1.5890   -0.1260   -1.9650 C   0  0  1  0  0  0  0  0  0  0  0  0
   -0.8570   -1.0290   -1.2100 O   0  0  0  0  0  0  0  0  0  0  0  0
   -1.6780   -1.8960   -0.5130 C   0  0  0  0  0  0  0  0  0  0  0  0
   -1.4400   -3.0910    0.1580 C   0  0  0  0  0  0  0  0  0  0  0  0
   -2.4750   -3.7980    0.8060 C   0  0  0  0  0  0  0  0  0  0  0  0
   -3.7060   -3.3030    0.7700 C   0  0  0  0  0  0  0  0  0  0  0  0
   -3.9400   -2.0890    0.0860 C   0  0  0  0  0  0  0  0  0  0  0  0
   -2.9480   -1.3860   -0.5500 C   0  0  0  0  0  0  0  0  0  0  0  0
   -2.9540   -0.1020   -1.3380 C   0  0  2  0  0  0  0  0  0  0  0  0
   -3.8870   -0.1890   -2.3780 O   0  0  0  0  0  0  0  0  0  0  0  0
   -4.7820   -4.0760    1.4710 C   0  0  0  0  0  0  0  0  0  0  0  0
   -3.9930   -5.7290    1.5120 S   0  0  0  0  0  0  0  0  0  0  0  0
   -2.2780   -5.0960    1.5380 C   0  0  0  0  0  0  0  0  0  0  0  0
   -1.8760    2.9160   -0.5420 C   0  0  0  0  0  0  0  0  0  0  0  0
   -2.3590    2.9670    0.7420 C   0  0  0  0  0  0  0  0  0  0  0  0
   -3.3650    3.8560    1.0960 C   0  0  0  0  0  0  0  0  0  0  0  0
   -3.8860    3.9180    2.4700 C   0  0  0  0  0  0  0  0  0  0  0  0
   -3.8950    4.7130    0.1310 C   0  0  0  0  0  0  0  0  0  0  0  0
   -4.8990    5.6230    0.4220 O   0  0  0  0  0  0  0  0  0  0  0  0
   -4.4860    6.9190    0.8470 C   0  0  0  0  0  0  0  0  0  0  0  0
   -3.4190    4.6690   -1.1510 C   0  0  0  0  0  0  0  0  0  0  0  0
   -3.9390    5.5540   -2.2170 C   0  0  0  0  0  0  0  0  0  0  0  0
   -2.4230    3.7750   -1.4650 C   0  0  0  0  0  0  0  0  0  0  0  0
    2.4880    1.6580    0.9210 C   0  0  0  0  0  0  0  0  0  0  0  0
    3.7050    1.0420    1.0130 C   0  0  0  0  0  0  0  0  0  0  0  0
  1  2  1  0
  2  3  1  0
  3  4  1  0
  4  5  1  0
  5  6  1  0
  6  7  2  0
  6  8  1  0
  8  9  1  0
  9 10  2  0
  9 41  1  0
 10 11  1  0
 11 12  2  0
 12 13  1  0
 12 40  1  0
 13 14  2  0
 13 15  1  0
 15 16  1  0
 15 30  1  0
 17 16  1  1
 17 18  1  0
 17 25  1  0
 18 19  1  0
 19 20  2  0
 19 24  1  0
 20 21  1  0
 21 22  2  0
 21 29  1  0
 22 23  1  0
 22 27  1  0
 23 24  2  0
 24 25  1  0
 25 26  1  6
 27 28  1  0
 28 29  1  0
 30 31  2  0
 30 39  1  0
 31 32  1  0
 32 33  1  0
 32 34  2  0
 34 35  1  0
 34 37  1  0
 35 36  1  0
 37 38  1  0
 37 39  2  0
 40 41  2  0
M  END
