
     RDKit          3D

 41 44  0  0  0  0  0  0  0  0999 V2000
   -0.3820    6.9100   -6.2690 C   0  0  0  0  0  0  0  0  0  0  0  0
   -0.4690    6.6410   -4.8690 N   0  0  0  0  0  0  0  0  0  0  0  0
   -0.8250    5.3200   -4.4950 C   0  0  1  0  0  0  0  0  0  0  0  0
   -2.1790    4.8750   -4.9470 C   0  0  0  0  0  0  0  0  0  0  0  0
   -2.4970    3.4580   -4.6050 C   0  0  0  0  0  0  0  0  0  0  0  0
   -1.4000    2.9000   -3.7730 C   0  0  0  0  0  0  0  0  0  0  0  0
   -1.6230    2.3100   -2.5940 C   0  0  0  0  0  0  0  0  0  0  0  0
   -0.5700    1.7650   -1.7840 C   0  0  0  0  0  0  0  0  0  0  0  0
   -0.7070    1.1810   -0.6160 C   0  0  0  0  0  0  0  0  0  0  0  0
   -2.0230    1.0170    0.0220 C   0  0  0  0  0  0  0  0  0  0  0  0
   -2.3340   -0.3890    0.1860 N   0  0  0  0  0  0  0  0  0  0  0  0
   -3.5360   -0.8280    0.7930 C   0  0  0  0  0  0  0  0  0  0  0  0
   -4.3840   -0.0120    1.2150 O   0  0  0  0  0  0  0  0  0  0  0  0
   -3.7970   -2.2700    0.9320 C   0  0  2  0  0  0  0  0  0  0  0  0
   -3.9710   -2.6360    2.4080 C   0  0  0  0  0  0  0  0  0  0  0  0
   -2.7700   -3.0070    0.3920 O   0  0  0  0  0  0  0  0  0  0  0  0
   -3.1540   -3.6410   -0.7470 C   0  0  0  0  0  0  0  0  0  0  0  0
   -4.6210   -3.5370   -0.8120 C   0  0  0  0  0  0  0  0  0  0  0  0
   -5.5330   -4.1200   -1.6890 C   0  0  0  0  0  0  0  0  0  0  0  0
   -6.8840   -3.8780   -1.5590 C   0  0  0  0  0  0  0  0  0  0  0  0
   -7.2760   -3.0350   -0.5260 C   0  0  0  0  0  0  0  0  0  0  0  0
   -6.3630   -2.4640    0.3330 C   0  0  0  0  0  0  0  0  0  0  0  0
   -4.9990   -2.7080    0.2050 C   0  0  0  0  0  0  0  0  0  0  0  0
    0.5180    0.6960    0.0560 C   0  0  0  0  0  0  0  0  0  0  0  0
    1.6350    0.8490   -0.5480 O   0  0  0  0  0  0  0  0  0  0  0  0
    0.5190    0.0650    1.3600 C   0  0  0  0  0  0  0  0  0  0  0  0
   -0.4820   -0.1420    2.0790 O   0  0  0  0  0  0  0  0  0  0  0  0
    1.7490   -0.3560    1.8790 O   0  0  0  0  0  0  0  0  0  0  0  0
    1.8300   -0.9790    3.1560 C   0  0  0  0  0  0  0  0  0  0  0  0
    3.2430   -1.2940    3.4160 C   0  0  0  0  0  0  0  0  0  0  0  0
    4.1620   -0.2890    3.5320 C   0  0  0  0  0  0  0  0  0  0  0  0
    5.4890   -0.5910    3.7850 C   0  0  0  0  0  0  0  0  0  0  0  0
    5.9240   -1.9040    3.9290 C   0  0  0  0  0  0  0  0  0  0  0  0
    7.3350   -2.2280    4.1980 C   0  0  2  0  0  0  0  0  0  0  0  0
    7.9290   -3.1190    3.1350 C   0  0  0  0  0  0  0  0  0  0  0  0
    7.5180   -2.9010    5.5580 C   0  0  0  0  0  0  0  0  0  0  0  0
    6.9520   -1.8480    6.9030 S   0  0  0  0  0  0  0  0  0  0  0  0
    4.9880   -2.9000    3.8090 C   0  0  0  0  0  0  0  0  0  0  0  0
    3.6420   -2.5970    3.5520 C   0  0  0  0  0  0  0  0  0  0  0  0
   -0.0990    3.0330   -4.3070 O   0  0  0  0  0  0  0  0  0  0  0  0
    0.2560    4.3140   -4.8500 C   0  0  0  0  0  0  0  0  0  0  0  0
  1  2  1  0
  3  2  1  6
  3  4  1  0
  3 41  1  0
  4  5  1  0
  5  6  1  0
  6  7  2  3
  6 40  1  0
  7  8  1  0
  8  9  2  3
  9 10  1  0
  9 24  1  0
 10 11  1  0
 11 12  1  0
 12 13  2  0
 12 14  1  0
 14 15  1  1
 14 16  1  0
 14 23  1  0
 16 17  1  0
 17 18  1  0
 18 19  2  0
 18 23  1  0
 19 20  1  0
 20 21  2  0
 21 22  1  0
 22 23  2  0
 24 25  2  0
 24 26  1  0
 26 27  2  0
 26 28  1  0
 28 29  1  0
 29 30  1  0
 30 31  2  0
 30 39  1  0
 31 32  1  0
 32 33  2  0
 33 34  1  0
 33 38  1  0
 34 35  1  6
 34 36  1  0
 36 37  1  0
 38 39  2  0
 40 41  1  0
M  END
