
     RDKit          3D

 41 45  0  0  0  0  0  0  0  0999 V2000
   -1.8520    1.4260   -1.4050 O   0  0  0  0  0  0  0  0  0  0  0  0
   -2.4350    2.3020   -0.7200 C   0  0  0  0  0  0  0  0  0  0  0  0
   -2.2400    2.2540    0.6830 N   0  0  0  0  0  0  0  0  0  0  0  0
   -1.4170    1.2510    1.2700 C   0  0  2  0  0  0  0  0  0  0  0  0
   -2.2710    0.2300    2.0630 C   0  0  0  0  0  0  0  0  0  0  0  0
   -1.3680   -0.9140    2.2640 C   0  0  0  0  0  0  0  0  0  0  0  0
   -1.6520   -2.1110    1.8810 C   0  0  0  0  0  0  0  0  0  0  0  0
   -2.8930   -2.4630    1.2100 C   0  0  0  0  0  0  0  0  0  0  0  0
   -3.0590   -3.7350    0.8610 C   0  0  0  0  0  0  0  0  0  0  0  0
   -4.2720   -4.1680    0.1870 C   0  0  0  0  0  0  0  0  0  0  0  0
   -4.3430   -5.4490   -0.1250 C   0  0  0  0  0  0  0  0  0  0  0  0
   -5.4020   -6.1960   -0.7940 C   0  0  0  0  0  0  0  0  0  0  0  0
   -6.7880   -5.1590   -1.1770 S   0  0  0  0  0  0  0  0  0  0  0  0
   -8.0380   -5.6940   -0.4580 O   0  0  0  0  0  0  0  0  0  0  0  0
   -6.4580   -3.5260   -0.6750 C   0  0  0  0  0  0  0  0  0  0  0  0
   -5.3190   -3.2160   -0.0870 C   0  0  0  0  0  0  0  0  0  0  0  0
   -0.1590   -0.5940    2.9170 O   0  0  0  0  0  0  0  0  0  0  0  0
    0.5220    0.5750    2.5930 C   0  0  1  0  0  0  0  0  0  0  0  0
    1.6310    0.3370    1.5770 C   0  0  0  0  0  0  0  0  0  0  0  0
    2.2190    1.6010    1.3390 O   0  0  0  0  0  0  0  0  0  0  0  0
    3.2920    1.7620    0.4590 C   0  0  0  0  0  0  0  0  0  0  0  0
    3.8270    3.0070    0.2580 C   0  0  0  0  0  0  0  0  0  0  0  0
    4.8810    3.2120   -0.5950 C   0  0  0  0  0  0  0  0  0  0  0  0
    5.4100    2.1080   -1.2670 C   0  0  0  0  0  0  0  0  0  0  0  0
    4.8830    0.8530   -1.0740 C   0  0  0  0  0  0  0  0  0  0  0  0
    5.4460   -0.3240   -1.7740 C   0  0  0  0  0  0  0  0  0  0  0  0
    6.4810   -0.9630   -0.9240 C   0  0  0  0  0  0  0  0  0  0  0  0
    6.2000   -1.9540   -0.0000 C   0  0  0  0  0  0  0  0  0  0  0  0
    7.1910   -2.5300    0.7770 C   0  0  0  0  0  0  0  0  0  0  0  0
    8.4930   -2.1280    0.6500 C   0  0  0  0  0  0  0  0  0  0  0  0
    8.7960   -1.1370   -0.2680 C   0  0  0  0  0  0  0  0  0  0  0  0
    7.7860   -0.5720   -1.0380 C   0  0  0  0  0  0  0  0  0  0  0  0
    3.8290    0.6900   -0.2140 C   0  0  0  0  0  0  0  0  0  0  0  0
   -0.3210    1.7360    2.1420 C   0  0  0  0  0  0  0  0  0  0  0  0
   -3.2750    3.3200   -1.3550 C   0  0  0  0  0  0  0  0  0  0  0  0
   -3.9280    4.2770   -0.7610 C   0  0  0  0  0  0  0  0  0  0  0  0
   -4.6510    5.0880   -1.7330 C   0  0  0  0  0  0  0  0  0  0  0  0
   -5.4640    6.0690   -1.5340 N   0  0  0  0  0  0  0  0  0  0  0  0
   -5.7670    6.4980   -0.2670 O   0  0  0  0  0  0  0  0  0  0  0  0
   -4.2590    4.5520   -3.0530 C   0  0  0  0  0  0  0  0  0  0  0  0
   -3.5020    3.4140   -2.6990 O   0  0  0  0  0  0  0  0  0  0  0  0
  1  2  2  0
  2  3  1  0
  2 35  1  0
  4  3  1  1
  4  5  1  0
  4 34  1  0
  5  6  1  0
  6  7  2  3
  6 17  1  0
  7  8  1  0
  8  9  2  3
  9 10  1  0
 10 11  2  0
 10 16  1  0
 11 12  1  0
 13 12  1  1
 13 14  2  0
 13 15  1  0
 15 16  2  0
 17 18  1  0
 18 19  1  6
 18 34  1  0
 19 20  1  0
 20 21  1  0
 21 22  2  0
 21 33  1  0
 22 23  1  0
 23 24  2  0
 24 25  1  0
 25 26  1  0
 25 33  2  0
 26 27  1  0
 27 28  2  0
 27 32  1  0
 28 29  1  0
 29 30  2  0
 30 31  1  0
 31 32  2  0
 35 36  2  0
 35 41  1  0
 36 37  1  0
 37 38  2  3
 37 40  1  0
 38 39  1  0
 40 41  1  0
M  END
