
     RDKit          3D

 38 42  0  0  0  0  0  0  0  0999 V2000
   11.3910   -3.2890    1.2420 C   0  0  0  0  0  0  0  0  0  0  0  0
   10.1040   -2.6100    1.0000 C   0  0  0  0  0  0  0  0  0  0  0  0
    9.9790   -1.6470    0.0270 C   0  0  0  0  0  0  0  0  0  0  0  0
    8.7580   -1.0040   -0.2010 C   0  0  0  0  0  0  0  0  0  0  0  0
    7.6300   -1.2950    0.5270 C   0  0  0  0  0  0  0  0  0  0  0  0
    6.3350   -0.6730    0.3480 C   0  0  0  0  0  0  0  0  0  0  0  0
    6.1380    0.2550   -0.5630 C   0  0  0  0  0  0  0  0  0  0  0  0
    4.8170    0.8860   -0.7420 C   0  0  0  0  0  0  0  0  0  0  0  0
    4.6760    1.7550   -1.6100 O   0  0  0  0  0  0  0  0  0  0  0  0
    3.7450    0.4880    0.0790 O   0  0  0  0  0  0  0  0  0  0  0  0
    2.5260    1.1100   -0.1280 C   0  0  0  0  0  0  0  0  0  0  0  0
    1.5660    0.6620   -0.9950 C   0  0  0  0  0  0  0  0  0  0  0  0
    0.3490    1.3150   -1.1780 C   0  0  0  0  0  0  0  0  0  0  0  0
   -0.5770    0.8230   -2.0620 O   0  0  0  0  0  0  0  0  0  0  0  0
   -1.8290    1.3870   -2.3070 C   0  0  0  0  0  0  0  0  0  0  0  0
   -2.6920    1.3890   -1.0810 C   0  0  0  0  0  0  0  0  0  0  0  0
   -2.2500    0.8360   -0.0220 O   0  0  0  0  0  0  0  0  0  0  0  0
   -3.9850    1.9850   -1.0610 N   0  0  0  0  0  0  0  0  0  0  0  0
   -4.5270    2.6440   -2.2620 C   0  0  0  0  0  0  0  0  0  0  0  0
   -5.5600    3.6150   -1.6760 C   0  0  1  0  0  0  0  0  0  0  0  0
   -6.4800    4.0240   -2.6120 O   0  0  0  0  0  0  0  0  0  0  0  0
   -6.1370    2.7410   -0.5910 C   0  0  0  0  0  0  0  0  0  0  0  0
   -4.9250    2.0750    0.0010 C   0  0  1  0  0  0  0  0  0  0  0  0
   -5.2750    0.7530    0.5970 C   0  0  0  0  0  0  0  0  0  0  0  0
   -4.4580   -0.2500    0.9370 N   0  0  0  0  0  0  0  0  0  0  0  0
   -5.1960   -1.2540    1.4400 C   0  0  0  0  0  0  0  0  0  0  0  0
   -6.5070   -0.8210    1.3920 C   0  0  0  0  0  0  0  0  0  0  0  0
   -6.5040    0.3820    0.8820 O   0  0  0  0  0  0  0  0  0  0  0  0
   -7.5130   -1.7870    1.9050 C   0  0  0  0  0  0  0  0  0  0  0  0
   -7.2650   -3.0800    1.1580 C   0  0  0  0  0  0  0  0  0  0  0  0
   -5.9200   -3.6480    1.5070 C   0  0  0  0  0  0  0  0  0  0  0  0
   -4.9670   -2.6070    1.9910 C   0  0  0  0  0  0  0  0  0  0  0  0
    0.0900    2.4560   -0.4650 C   0  0  0  0  0  0  0  0  0  0  0  0
    1.0650    2.9210    0.4240 C   0  0  0  0  0  0  0  0  0  0  0  0
    2.2600    2.2610    0.5890 C   0  0  0  0  0  0  0  0  0  0  0  0
    3.4490    2.8800    1.7130 Cl  0  0  0  0  0  0  0  0  0  0  0  0
    7.7880   -2.2800    1.5120 C   0  0  0  0  0  0  0  0  0  0  0  0
    8.9860   -2.9070    1.7310 C   0  0  0  0  0  0  0  0  0  0  0  0
  1  2  1  0
  2  3  2  0
  2 38  1  0
  3  4  1  0
  4  5  2  0
  5  6  1  0
  5 37  1  0
  6  7  2  3
  7  8  1  0
  8  9  2  0
  8 10  1  0
 10 11  1  0
 11 12  2  0
 11 35  1  0
 12 13  1  0
 13 14  1  0
 13 33  2  0
 14 15  1  0
 15 16  1  0
 16 17  2  0
 16 18  1  0
 18 19  1  0
 18 23  1  0
 19 20  1  0
 20 21  1  6
 20 22  1  0
 22 23  1  0
 23 24  1  6
 24 25  2  0
 24 28  1  0
 25 26  1  0
 26 27  2  0
 26 32  1  0
 27 28  1  0
 27 29  1  0
 29 30  1  0
 30 31  1  0
 31 32  1  0
 33 34  1  0
 34 35  2  0
 35 36  1  0
 37 38  2  0
M  END
