
     RDKit          3D

 38 42  0  0  0  0  0  0  0  0999 V2000
    6.5760   -1.0550    2.4140 C   0  0  0  0  0  0  0  0  0  0  0  0
    5.5610   -0.7390    1.5140 O   0  0  0  0  0  0  0  0  0  0  0  0
    5.7480   -0.5480    0.1530 C   0  0  0  0  0  0  0  0  0  0  0  0
    7.0050   -0.6680   -0.3970 C   0  0  0  0  0  0  0  0  0  0  0  0
    7.2050   -0.4790   -1.7550 C   0  0  0  0  0  0  0  0  0  0  0  0
    6.1030   -0.1710   -2.5200 C   0  0  0  0  0  0  0  0  0  0  0  0
    4.8390   -0.0520   -1.9570 C   0  0  0  0  0  0  0  0  0  0  0  0
    4.6230   -0.2360   -0.6090 C   0  0  0  0  0  0  0  0  0  0  0  0
    3.3330   -0.1220    0.0490 C   0  0  0  0  0  0  0  0  0  0  0  0
    3.1710    0.6030    1.2290 C   0  0  0  0  0  0  0  0  0  0  0  0
    1.9580    0.7080    1.8370 C   0  0  0  0  0  0  0  0  0  0  0  0
    0.8360    0.0970    1.3040 C   0  0  0  0  0  0  0  0  0  0  0  0
    0.9700   -0.6330    0.1310 C   0  0  0  0  0  0  0  0  0  0  0  0
    2.2130   -0.7250   -0.4680 C   0  0  0  0  0  0  0  0  0  0  0  0
    2.3680   -1.6510   -1.9470 Cl  0  0  0  0  0  0  0  0  0  0  0  0
   -0.5090    0.1080    1.7750 N   0  0  0  0  0  0  0  0  0  0  0  0
   -1.5070    0.1890    0.7740 C   0  0  0  0  0  0  0  0  0  0  0  0
   -1.2790    0.3910   -0.4330 O   0  0  0  0  0  0  0  0  0  0  0  0
   -2.9510    0.0230    1.1650 C   0  0  0  0  0  0  0  0  0  0  0  0
   -3.8350    0.0650   -0.0680 C   0  0  0  0  0  0  0  0  0  0  0  0
   -5.2640   -0.0990    0.3050 C   0  0  0  0  0  0  0  0  0  0  0  0
   -5.6120   -0.2690    1.5230 O   0  0  0  0  0  0  0  0  0  0  0  0
   -6.2700   -0.0650   -0.7280 C   0  0  0  0  0  0  0  0  0  0  0  0
   -6.7220   -1.1600   -1.4220 C   0  0  0  0  0  0  0  0  0  0  0  0
   -6.2640   -2.5530   -1.2400 C   0  0  0  0  0  0  0  0  0  0  0  0
   -7.6380   -0.7090   -2.2740 N   0  0  0  0  0  0  0  0  0  0  0  0
   -7.7870    0.6410   -2.1480 C   0  0  0  0  0  0  0  0  0  0  0  0
   -8.7020    1.4560   -2.9250 C   0  0  0  0  0  0  0  0  0  0  0  0
   -8.7440    2.6870   -2.7120 O   0  0  0  0  0  0  0  0  0  0  0  0
   -6.9210    1.0650   -1.1660 C   0  0  0  0  0  0  0  0  0  0  0  0
   -6.7170    2.4500   -0.6670 C   0  0  0  0  0  0  0  0  0  0  0  0
   -0.8840    0.0940    3.1800 C   0  0  0  0  0  0  0  0  0  0  0  0
   -0.3650    1.3850    3.7890 C   0  0  0  0  0  0  0  0  0  0  0  0
    1.0890    1.3450    4.1440 C   0  0  0  0  0  0  0  0  0  0  0  0
    1.9560    1.4700    3.0210 O   0  0  0  0  0  0  0  0  0  0  0  0
    6.5250   -0.0230   -3.8560 O   0  0  0  0  0  0  0  0  0  0  0  0
    7.7570   -0.7170   -4.0130 C   0  0  0  0  0  0  0  0  0  0  0  0
    8.3810   -0.5270   -2.6510 C   0  0  0  0  0  0  0  0  0  0  0  0
  1  2  1  0
  2  3  1  0
  3  4  2  0
  3  8  1  0
  4  5  1  0
  5  6  2  0
  5 38  1  0
  6  7  1  0
  6 36  1  0
  7  8  2  0
  8  9  1  0
  9 10  2  0
  9 14  1  0
 10 11  1  0
 11 12  2  0
 11 35  1  0
 12 13  1  0
 12 16  1  0
 13 14  2  0
 14 15  1  0
 16 17  1  0
 16 32  1  0
 17 18  2  0
 17 19  1  0
 19 20  1  0
 20 21  1  0
 21 22  2  0
 21 23  1  0
 23 24  2  0
 23 30  1  0
 24 25  1  0
 24 26  1  0
 26 27  1  0
 27 28  1  0
 27 30  2  0
 28 29  2  0
 30 31  1  0
 32 33  1  0
 33 34  1  0
 34 35  1  0
 36 37  1  0
 37 38  1  0
M  END
