
     RDKit          3D

 38 42  0  0  0  0  0  0  0  0999 V2000
   -5.6250   -4.0610    0.1100 C   0  0  0  0  0  0  0  0  0  0  0  0
   -6.0270   -2.8540   -0.5550 N   0  0  0  0  0  0  0  0  0  0  0  0
   -7.2410   -2.3490   -0.0230 C   0  0  0  0  0  0  0  0  0  0  0  0
   -5.0250   -1.9420   -0.9390 C   0  0  0  0  0  0  0  0  0  0  0  0
   -4.4140   -1.1680    0.2150 C   0  0  0  0  0  0  0  0  0  0  0  0
   -3.4670   -0.3140   -0.0670 O   0  0  0  0  0  0  0  0  0  0  0  0
   -2.5390    0.5170   -0.3440 C   0  0  0  0  0  0  0  0  0  0  0  0
   -1.2680    0.1980   -0.7250 C   0  0  0  0  0  0  0  0  0  0  0  0
   -0.3240    1.1910   -0.9980 C   0  0  0  0  0  0  0  0  0  0  0  0
    1.0450    0.7300   -1.1770 N   0  0  0  0  0  0  0  0  0  0  0  0
    2.0140    1.3730   -0.3460 C   0  0  0  0  0  0  0  0  0  0  0  0
    1.5020    2.3120    0.3920 O   0  0  0  0  0  0  0  0  0  0  0  0
    3.4420    1.1240   -0.1940 C   0  0  1  0  0  0  0  0  0  0  0  0
    3.5720    1.1520    1.2840 O   0  0  0  0  0  0  0  0  0  0  0  0
    2.6680    0.1460    1.7080 C   0  0  0  0  0  0  0  0  0  0  0  0
    3.0640   -1.2210    1.2640 C   0  0  0  0  0  0  0  0  0  0  0  0
    3.4270   -1.3600   -0.1960 C   0  0  0  0  0  0  0  0  0  0  0  0
    4.0810   -0.0740   -0.7110 C   0  0  1  0  0  0  0  0  0  0  0  0
    4.1440   -0.0040   -2.2120 C   0  0  0  0  0  0  0  0  0  0  0  0
    5.5110   -0.2200   -0.2480 C   0  0  0  0  0  0  0  0  0  0  0  0
    5.9860    0.1840    0.9550 C   0  0  0  0  0  0  0  0  0  0  0  0
    7.3070   -0.0300    1.3370 C   0  0  0  0  0  0  0  0  0  0  0  0
    7.8570    0.4960    2.9400 Cl  0  0  0  0  0  0  0  0  0  0  0  0
    8.1860   -0.6570    0.5200 C   0  0  0  0  0  0  0  0  0  0  0  0
    7.7360   -1.0790   -0.7120 C   0  0  0  0  0  0  0  0  0  0  0  0
    6.4110   -0.8670   -1.1020 C   0  0  0  0  0  0  0  0  0  0  0  0
    8.8450   -1.6810   -1.3310 O   0  0  0  0  0  0  0  0  0  0  0  0
    9.6570   -2.1890   -0.2400 C   0  0  0  0  0  0  0  0  0  0  0  0
    9.5540   -1.0280    0.6000 O   0  0  0  0  0  0  0  0  0  0  0  0
   -0.6310    2.5160   -0.9110 C   0  0  0  0  0  0  0  0  0  0  0  0
   -1.9060    2.8730   -0.5380 C   0  0  0  0  0  0  0  0  0  0  0  0
   -2.8670    1.9280   -0.2470 C   0  0  0  0  0  0  0  0  0  0  0  0
   -4.0690    2.1990    0.1140 O   0  0  0  0  0  0  0  0  0  0  0  0
   -5.1680    2.8060    0.4420 C   0  0  0  0  0  0  0  0  0  0  0  0
   -5.6860    3.9980    0.0680 C   0  0  0  0  0  0  0  0  0  0  0  0
   -6.9740    4.2670    0.7160 C   0  0  0  0  0  0  0  0  0  0  0  0
   -7.1730    3.0590    1.5480 C   0  0  0  0  0  0  0  0  0  0  0  0
   -6.1770    2.2540    1.3920 C   0  0  0  0  0  0  0  0  0  0  0  0
  1  2  1  0
  2  3  1  0
  2  4  1  0
  4  5  1  0
  5  6  1  0
  6  7  1  0
  7  8  2  0
  7 32  1  0
  8  9  1  0
  9 10  1  0
  9 30  2  0
 10 11  1  0
 11 12  2  0
 13 11  1  1
 13 14  1  0
 13 18  1  0
 14 15  1  0
 15 16  1  0
 16 17  1  0
 17 18  1  0
 18 19  1  6
 18 20  1  0
 20 21  2  0
 20 26  1  0
 21 22  1  0
 22 23  1  0
 22 24  2  0
 24 25  1  0
 24 29  1  0
 25 26  2  0
 25 27  1  0
 27 28  1  0
 28 29  1  0
 30 31  1  0
 31 32  2  0
 32 33  1  0
 33 34  1  0
 34 35  2  0
 34 38  1  0
 35 36  1  0
 36 37  1  0
 37 38  2  0
M  END
