
     RDKit          3D

 35 38  0  0  0  0  0  0  0  0999 V2000
   -0.8470    4.6730    0.8000 C   0  0  0  0  0  0  0  0  0  0  0  0
   -0.6010    3.7200   -0.1700 O   0  0  0  0  0  0  0  0  0  0  0  0
    0.1340    2.5760   -0.1560 C   0  0  0  0  0  0  0  0  0  0  0  0
   -0.4820    1.3470    0.1400 C   0  0  0  0  0  0  0  0  0  0  0  0
   -1.7660    1.4600    0.8050 C   0  0  0  0  0  0  0  0  0  0  0  0
   -3.0610    1.2060    0.4270 N   0  0  0  0  0  0  0  0  0  0  0  0
   -3.7910    2.5250    0.5530 C   0  0  0  0  0  0  0  0  0  0  0  0
   -3.3960    0.5640   -0.7690 C   0  0  0  0  0  0  0  0  0  0  0  0
   -4.3380   -0.5880   -0.4050 C   0  0  0  0  0  0  0  0  0  0  0  0
   -4.5830   -0.6850    0.8820 C   0  0  0  0  0  0  0  0  0  0  0  0
   -5.4060   -1.6170    1.6960 C   0  0  0  0  0  0  0  0  0  0  0  0
   -5.1170   -1.4980    3.0240 F   0  0  0  0  0  0  0  0  0  0  0  0
   -6.3100   -2.5160    1.4240 C   0  0  0  0  0  0  0  0  0  0  0  0
   -6.9630   -3.0470    0.2360 C   0  0  0  0  0  0  0  0  0  0  0  0
   -8.0340   -3.8180    0.4590 F   0  0  0  0  0  0  0  0  0  0  0  0
   -6.6660   -2.9180   -1.0550 C   0  0  0  0  0  0  0  0  0  0  0  0
   -5.6520   -2.2580   -1.8620 C   0  0  0  0  0  0  0  0  0  0  0  0
   -4.7290   -1.3320   -1.5940 C   0  0  0  0  0  0  0  0  0  0  0  0
   -3.7380   -0.9200   -2.9780 Cl  0  0  0  0  0  0  0  0  0  0  0  0
    0.3010    0.1980    0.1210 C   0  0  0  0  0  0  0  0  0  0  0  0
    1.6430    0.2610   -0.1680 C   0  0  0  0  0  0  0  0  0  0  0  0
    2.5720   -0.8860   -0.0270 C   0  0  0  0  0  0  0  0  0  0  0  0
    2.4190   -2.1440    0.2920 N   0  0  0  0  0  0  0  0  0  0  0  0
    3.6370   -2.7540    0.4010 N   0  0  0  0  0  0  0  0  0  0  0  0
    4.5870   -1.8180    0.1380 C   0  0  0  0  0  0  0  0  0  0  0  0
    6.0470   -1.9020    0.1630 C   0  0  1  0  0  0  0  0  0  0  0  0
    6.6110   -2.6600    1.3570 C   0  0  0  0  0  0  0  0  0  0  0  0
    7.7540   -3.0540    0.4520 C   0  0  0  0  0  0  0  0  0  0  0  0
    6.7790   -2.8470   -0.7160 C   0  0  0  0  0  0  0  0  0  0  0  0
    3.9180   -0.6790   -0.1250 N   0  0  0  0  0  0  0  0  0  0  0  0
    2.2070    1.5020   -0.4480 C   0  0  0  0  0  0  0  0  0  0  0  0
    1.4550    2.6150   -0.4400 C   0  0  0  0  0  0  0  0  0  0  0  0
    2.0570    3.9280   -0.7370 O   0  0  0  0  0  0  0  0  0  0  0  0
    3.4690    4.0720   -0.7770 C   0  0  0  0  0  0  0  0  0  0  0  0
    3.9600    5.2820   -1.1420 F   0  0  0  0  0  0  0  0  0  0  0  0
  1  2  1  0
  2  3  1  0
  3  4  2  0
  3 32  1  0
  4  5  1  0
  4 20  1  0
  5  6  1  0
  6  7  1  0
  6  8  1  0
  8  9  1  0
  9 10  2  0
  9 18  1  0
 10 11  1  0
 11 12  1  0
 11 13  2  0
 13 14  1  0
 14 15  1  0
 14 16  2  0
 16 17  1  0
 17 18  2  0
 18 19  1  0
 20 21  2  0
 21 22  1  0
 21 31  1  0
 22 23  2  0
 22 30  1  0
 23 24  1  0
 24 25  1  0
 26 25  1  6
 25 30  2  0
 26 27  1  0
 26 29  1  0
 27 28  1  0
 28 29  1  0
 31 32  2  0
 32 33  1  0
 33 34  1  0
 34 35  1  0
M  END
