
     RDKit          3D

 35 38  0  0  0  0  0  0  0  0999 V2000
   -2.9560    3.0590    1.7300 C   0  0  0  0  0  0  0  0  0  0  0  0
   -2.5370    3.5350    0.3660 C   0  0  1  0  0  0  0  0  0  0  0  0
   -1.2790    4.3190    0.3550 C   0  0  0  0  0  0  0  0  0  0  0  0
   -2.6150    2.4220   -0.6630 C   0  0  0  0  0  0  0  0  0  0  0  0
   -1.7830    1.2860   -0.3530 N   0  0  0  0  0  0  0  0  0  0  0  0
   -0.3350    1.3490   -0.3920 C   0  0  0  0  0  0  0  0  0  0  0  0
    0.0940    0.0800    0.1830 C   0  0  0  0  0  0  0  0  0  0  0  0
    1.2950   -0.4720    0.4110 C   0  0  0  0  0  0  0  0  0  0  0  0
    2.4670    0.3370    0.0140 C   0  0  0  0  0  0  0  0  0  0  0  0
    2.2830    1.4630   -0.4990 O   0  0  0  0  0  0  0  0  0  0  0  0
    3.7860   -0.1100    0.1910 N   0  0  0  0  0  0  0  0  0  0  0  0
    4.9830    0.5650   -0.1490 C   0  0  0  0  0  0  0  0  0  0  0  0
    6.2020    0.0310    0.3010 C   0  0  0  0  0  0  0  0  0  0  0  0
    7.4100    0.6180    0.0070 C   0  0  0  0  0  0  0  0  0  0  0  0
    7.4960    1.7660   -0.7490 C   0  0  0  0  0  0  0  0  0  0  0  0
    8.6550    2.3860   -1.0690 F   0  0  0  0  0  0  0  0  0  0  0  0
    6.3050    2.2900   -1.1900 C   0  0  0  0  0  0  0  0  0  0  0  0
    6.3020    3.7440   -2.1560 Cl  0  0  0  0  0  0  0  0  0  0  0  0
    5.0670    1.7050   -0.9000 C   0  0  0  0  0  0  0  0  0  0  0  0
    1.4790   -1.7790    0.9990 C   0  0  0  0  0  0  0  0  0  0  0  0
    0.4030   -2.5090    1.3520 C   0  0  0  0  0  0  0  0  0  0  0  0
    0.5900   -3.8630    1.9600 C   0  0  2  0  0  0  0  0  0  0  0  0
   -0.1020   -4.8100    1.1930 F   0  0  0  0  0  0  0  0  0  0  0  0
    0.1350   -3.9510    3.2340 F   0  0  0  0  0  0  0  0  0  0  0  0
   -0.8630   -1.9440    1.1230 N   0  0  0  0  0  0  0  0  0  0  0  0
   -2.0060   -2.6360    1.7090 C   0  0  0  0  0  0  0  0  0  0  0  0
   -1.1170   -0.6550    0.5370 C   0  0  0  0  0  0  0  0  0  0  0  0
   -2.1770   -0.0690    0.0490 C   0  0  0  0  0  0  0  0  0  0  0  0
   -3.4150   -0.6060   -0.4290 C   0  0  0  0  0  0  0  0  0  0  0  0
   -4.3910    0.2590   -0.5700 O   0  0  0  0  0  0  0  0  0  0  0  0
   -3.7890   -1.9540   -0.8150 C   0  0  0  0  0  0  0  0  0  0  0  0
   -3.0060   -3.0280   -1.1560 C   0  0  0  0  0  0  0  0  0  0  0  0
   -3.8180   -4.0670   -1.6270 C   0  0  0  0  0  0  0  0  0  0  0  0
   -5.1030   -3.5950   -1.5630 C   0  0  0  0  0  0  0  0  0  0  0  0
   -5.0530   -2.3550   -1.0830 N   0  0  0  0  0  0  0  0  0  0  0  0
  2  1  1  1
  2  3  1  0
  2  4  1  0
  4  5  1  0
  5  6  1  0
  5 28  1  0
  6  7  1  0
  7  8  2  0
  7 27  1  0
  8  9  1  0
  8 20  1  0
  9 10  2  0
  9 11  1  0
 11 12  1  0
 12 13  2  0
 12 19  1  0
 13 14  1  0
 14 15  2  0
 15 16  1  0
 15 17  1  0
 17 18  1  0
 17 19  2  0
 20 21  2  0
 21 22  1  0
 21 25  1  0
 22 23  1  6
 22 24  1  0
 25 26  1  0
 25 27  1  0
 27 28  2  0
 28 29  1  0
 29 30  2  0
 29 31  1  0
 31 32  2  0
 31 35  1  0
 32 33  1  0
 33 34  2  0
 34 35  1  0
M  END
