
     RDKit          3D

 34 37  0  0  0  0  0  0  0  0999 V2000
   -6.0430   -0.8220   -0.5470 C   0  0  0  0  0  0  0  0  0  0  0  0
   -4.7920   -1.4460   -0.0380 C   0  0  0  0  0  0  0  0  0  0  0  0
   -4.8760   -2.6800    0.6440 C   0  0  0  0  0  0  0  0  0  0  0  0
   -3.7500   -3.3170    1.1050 C   0  0  0  0  0  0  0  0  0  0  0  0
   -2.4940   -2.7370    0.8970 C   0  0  0  0  0  0  0  0  0  0  0  0
   -2.3890   -1.5370    0.2360 C   0  0  0  0  0  0  0  0  0  0  0  0
   -1.0950   -0.8670   -0.0320 C   0  0  0  0  0  0  0  0  0  0  0  0
    0.0580   -1.5710    0.4120 N   0  0  0  0  0  0  0  0  0  0  0  0
    0.2860   -2.7970   -0.2830 C   0  0  0  0  0  0  0  0  0  0  0  0
    1.3750   -2.6640   -1.3400 C   0  0  0  0  0  0  0  0  0  0  0  0
    2.5240   -2.0710   -0.8880 O   0  0  0  0  0  0  0  0  0  0  0  0
    2.4260   -1.5980    0.4180 C   0  0  1  0  0  0  0  0  0  0  0  0
    3.6460   -0.8430    0.7670 C   0  0  0  0  0  0  0  0  0  0  0  0
    4.3000    0.0770    0.0460 N   0  0  0  0  0  0  0  0  0  0  0  0
    5.3460    0.4760    0.7830 C   0  0  0  0  0  0  0  0  0  0  0  0
    6.3490    1.4730    0.4090 C   0  0  0  0  0  0  0  0  0  0  0  0
    7.3740    1.7810    1.2740 C   0  0  0  0  0  0  0  0  0  0  0  0
    8.3310    2.7300    0.9220 C   0  0  0  0  0  0  0  0  0  0  0  0
    8.2770    3.3810   -0.2940 C   0  0  0  0  0  0  0  0  0  0  0  0
    7.2540    3.0720   -1.1560 C   0  0  0  0  0  0  0  0  0  0  0  0
    6.3070    2.1300   -0.8020 C   0  0  0  0  0  0  0  0  0  0  0  0
    5.3130   -0.2060    1.9390 N   0  0  0  0  0  0  0  0  0  0  0  0
    4.2920   -0.9860    1.9070 O   0  0  0  0  0  0  0  0  0  0  0  0
    1.1920   -0.7000    0.4520 C   0  0  0  0  0  0  0  0  0  0  0  0
   -3.5560   -0.8970   -0.2280 C   0  0  0  0  0  0  0  0  0  0  0  0
   -3.3860    0.3500   -0.8810 N   0  0  0  0  0  0  0  0  0  0  0  0
   -3.3810    1.5550   -0.0940 C   0  0  0  0  0  0  0  0  0  0  0  0
   -4.6890    2.2080    0.0940 C   0  0  0  0  0  0  0  0  0  0  0  0
   -5.2390    2.3350    1.2860 C   0  0  0  0  0  0  0  0  0  0  0  0
   -4.6280    1.8650    2.4210 F   0  0  0  0  0  0  0  0  0  0  0  0
   -6.7860    3.1130    1.4640 Cl  0  0  0  0  0  0  0  0  0  0  0  0
   -5.3780    2.7970   -1.0810 C   0  0  1  0  0  0  0  0  0  0  0  0
   -4.5610    3.8780   -1.4720 F   0  0  0  0  0  0  0  0  0  0  0  0
   -5.4860    1.9060   -2.1140 F   0  0  0  0  0  0  0  0  0  0  0  0
  1  2  1  0
  2  3  2  0
  2 25  1  0
  3  4  1  0
  4  5  2  0
  5  6  1  0
  6  7  1  0
  6 25  2  0
  7  8  1  0
  8  9  1  0
  8 24  1  0
  9 10  1  0
 10 11  1  0
 11 12  1  0
 12 13  1  6
 12 24  1  0
 13 14  2  0
 13 23  1  0
 14 15  1  0
 15 16  1  0
 15 22  2  0
 16 17  2  0
 16 21  1  0
 17 18  1  0
 18 19  2  0
 19 20  1  0
 20 21  2  0
 22 23  1  0
 25 26  1  0
 26 27  1  0
 27 28  1  0
 28 29  2  3
 28 32  1  0
 29 30  1  0
 29 31  1  0
 32 33  1  6
 32 34  1  0
M  END
