
     RDKit          3D

 32 33  0  0  0  0  0  0  0  0999 V2000
   -3.7750    6.4970    0.2910 O   0  0  0  0  0  0  0  0  0  0  0  0
   -3.0370    5.7260    1.4050 P   0  0  0  0  0  0  0  0  0  0  0  0
   -2.8740    3.8950    1.2070 C   0  0  0  0  0  0  0  0  0  0  0  0
   -1.8640    3.3920    1.7310 O   0  0  0  0  0  0  0  0  0  0  0  0
   -3.8740    3.1710    0.4920 C   0  0  0  0  0  0  0  0  0  0  0  0
   -4.8450    3.8910    0.0190 O   0  0  0  0  0  0  0  0  0  0  0  0
   -3.9160    1.7820    0.2520 N   0  0  0  0  0  0  0  0  0  0  0  0
   -2.9280    0.8600    0.7140 C   0  0  0  0  0  0  0  0  0  0  0  0
   -2.1830    0.0790   -0.8220 P   0  0  0  0  0  0  0  0  0  0  0  0
   -0.7090   -0.8470   -0.3870 N   0  0  0  0  0  0  0  0  0  0  0  0
    0.5710   -0.5930   -1.0130 C   0  0  0  0  0  0  0  0  0  0  0  0
    0.5850    0.3120   -1.8740 O   0  0  0  0  0  0  0  0  0  0  0  0
    1.6880   -1.3060   -0.6720 O   0  0  0  0  0  0  0  0  0  0  0  0
    2.9300   -1.1070   -1.2180 C   0  0  0  0  0  0  0  0  0  0  0  0
    3.4900    0.2290   -0.9060 C   0  0  2  0  0  0  0  0  0  0  0  0
    2.8190    1.3290   -1.3250 O   0  0  0  0  0  0  0  0  0  0  0  0
    4.9490    0.2140   -1.4130 C   0  0  0  0  0  0  0  0  0  0  0  0
    5.6730    1.0680   -0.6270 O   0  0  0  0  0  0  0  0  0  0  0  0
    5.7440    0.4910    0.6630 C   0  0  2  0  0  0  0  0  0  0  0  0
    6.3140    1.3840    1.5310 O   0  0  0  0  0  0  0  0  0  0  0  0
    6.3410   -0.7500    0.6260 O   0  0  0  0  0  0  0  0  0  0  0  0
    7.5580   -0.6080    0.1490 O   0  0  0  0  0  0  0  0  0  0  0  0
    3.8840    0.3290    0.9440 P   0  0  0  0  0  0  0  0  0  0  0  0
    3.5010   -1.1480    1.7220 O   0  0  0  0  0  0  0  0  0  0  0  0
   -3.3660   -1.0710   -1.4150 O   0  0  0  0  0  0  0  0  0  0  0  0
   -4.9810   -0.5050   -1.1310 P   0  0  0  0  0  0  0  0  0  0  0  0
   -6.0980   -1.8400    0.1380 S   0  0  0  0  0  0  0  0  0  0  0  0
   -6.1410   -3.7760   -0.8220 P   0  0  0  0  0  0  0  0  0  0  0  0
   -7.6400   -4.5960   -0.4400 O   0  0  0  0  0  0  0  0  0  0  0  0
   -7.4970   -5.8820   -0.6410 O   0  0  0  0  0  0  0  0  0  0  0  0
   -5.0010    1.1980   -0.5080 C   0  0  0  0  0  0  0  0  0  0  0  0
   -5.9950    1.9220   -0.7360 O   0  0  0  0  0  0  0  0  0  0  0  0
  1  2  2  0
  2  3  1  0
  3  4  2  0
  3  5  1  0
  5  6  2  0
  5  7  1  0
  7  8  1  0
  7 31  1  0
  8  9  1  0
  9 10  1  0
  9 25  1  0
 10 11  1  0
 11 12  2  0
 11 13  1  0
 13 14  1  0
 14 15  1  0
 15 16  1  6
 15 17  1  0
 15 23  1  0
 17 18  1  0
 18 19  1  0
 19 20  1  1
 19 21  1  0
 19 23  1  0
 21 22  1  0
 23 24  1  0
 25 26  1  0
 26 27  1  0
 26 31  1  0
 27 28  1  0
 28 29  1  0
 29 30  1  0
 31 32  2  0
M  END
