
     RDKit          3D

 31 32  0  0  0  0  0  0  0  0999 V2000
    6.2230    1.8690    0.7590 C   0  0  0  0  0  0  0  0  0  0  0  0
    5.6130    2.1540   -0.4390 O   0  0  0  0  0  0  0  0  0  0  0  0
    5.0490    0.7710   -1.2780 P   0  0  0  0  0  0  0  0  0  0  0  0
    3.4840    0.2630   -0.7740 O   0  0  0  0  0  0  0  0  0  0  0  0
    3.2550    0.6860    0.8700 P   0  0  0  0  0  0  0  0  0  0  0  0
    3.3440   -0.6440    1.9440 O   0  0  0  0  0  0  0  0  0  0  0  0
    1.9200    1.7140    1.1520 O   0  0  0  0  0  0  0  0  0  0  0  0
    0.6210    1.5160    0.0730 P   0  0  0  0  0  0  0  0  0  0  0  0
   -0.8050    0.8850    0.7720 O   0  0  0  0  0  0  0  0  0  0  0  0
   -1.4670    0.1050   -0.1530 C   0  0  1  0  0  0  0  0  0  0  0  0
   -0.5240   -1.0260   -0.5550 C   0  0  0  0  0  0  0  0  0  0  0  0
   -0.9820   -2.1870    0.2830 C   0  0  0  0  0  0  0  0  0  0  0  0
   -2.0080   -1.7580    1.0890 O   0  0  0  0  0  0  0  0  0  0  0  0
   -2.6210   -0.6720    0.4360 C   0  0  1  0  0  0  0  0  0  0  0  0
   -3.3870    0.0990    1.4550 C   0  0  0  0  0  0  0  0  0  0  0  0
   -3.4070   -1.2070   -0.6300 N   0  0  0  0  0  0  0  0  0  0  0  0
   -4.5010   -2.0330   -0.1580 C   0  0  0  0  0  0  0  0  0  0  0  0
   -3.9060   -3.0850    0.5690 O   0  0  0  0  0  0  0  0  0  0  0  0
   -5.1200   -4.1340    1.1780 S   0  0  0  0  0  0  0  0  0  0  0  0
   -3.8060   -0.2760   -1.5230 O   0  0  0  0  0  0  0  0  0  0  0  0
   -3.1750    0.8880   -1.3940 N   0  0  0  0  0  0  0  0  0  0  0  0
   -3.9280    2.0920   -1.4360 C   0  0  0  0  0  0  0  0  0  0  0  0
   -5.1740    2.0730   -1.5940 O   0  0  0  0  0  0  0  0  0  0  0  0
   -3.2890    3.4010   -1.2990 C   0  0  0  0  0  0  0  0  0  0  0  0
   -2.0380    3.5140   -1.1370 O   0  0  0  0  0  0  0  0  0  0  0  0
   -4.0120    4.5820   -1.3390 O   0  0  0  0  0  0  0  0  0  0  0  0
   -1.8350    0.8860   -1.2250 O   0  0  0  0  0  0  0  0  0  0  0  0
    6.4960   -0.8570   -1.3420 P   0  0  0  0  0  0  0  0  0  0  0  0
    8.0640   -0.1970   -1.6420 O   0  0  0  0  0  0  0  0  0  0  0  0
    6.4740   -2.0610    0.4880 P   0  0  0  0  0  0  0  0  0  0  0  0
    6.5440   -3.6250    0.4250 O   0  0  0  0  0  0  0  0  0  0  0  0
  1  2  1  0
  2  3  1  0
  3  4  1  0
  3 28  1  0
  4  5  1  0
  5  6  1  0
  5  7  1  0
  7  8  1  0
  8  9  1  0
 10  9  1  1
 10 11  1  0
 10 14  1  0
 10 27  1  0
 11 12  1  0
 12 13  1  0
 13 14  1  0
 14 15  1  1
 14 16  1  0
 16 17  1  0
 16 20  1  0
 17 18  1  0
 18 19  1  0
 20 21  1  0
 21 22  1  0
 21 27  1  0
 22 23  2  0
 22 24  1  0
 24 25  2  0
 24 26  1  0
 28 29  1  0
 28 30  1  0
 30 31  2  0
M  END
