
     RDKit          3D

 32 33  0  0  0  0  0  0  0  0999 V2000
   -6.6490    0.9460   -1.3890 C   0  0  0  0  0  0  0  0  0  0  0  0
   -5.4850    0.2850   -1.7850 O   0  0  0  0  0  0  0  0  0  0  0  0
   -5.3250   -1.2560   -0.9980 P   0  0  0  0  0  0  0  0  0  0  0  0
   -6.6130   -1.4200    0.1410 O   0  0  0  0  0  0  0  0  0  0  0  0
   -3.7810   -1.4280   -0.2370 O   0  0  0  0  0  0  0  0  0  0  0  0
   -3.0870    0.1390   -0.0650 P   0  0  0  0  0  0  0  0  0  0  0  0
   -3.8900    1.5470    0.3830 O   0  0  0  0  0  0  0  0  0  0  0  0
   -3.1240    2.5690    0.6460 C   0  0  0  0  0  0  0  0  0  0  0  0
   -3.8340    3.6130    0.9830 O   0  0  0  0  0  0  0  0  0  0  0  0
   -1.8840    2.7510    0.6430 O   0  0  0  0  0  0  0  0  0  0  0  0
   -0.8320    2.0950    0.4040 O   0  0  0  0  0  0  0  0  0  0  0  0
   -1.0480    0.5280   -0.0440 P   0  0  0  0  0  0  0  0  0  0  0  0
    0.1290   -0.9280    0.2430 C   0  0  2  0  0  0  0  0  0  0  0  0
   -0.7350   -2.5220    0.0890 P   0  0  0  0  0  0  0  0  0  0  0  0
   -1.2940   -3.3530    1.2750 O   0  0  0  0  0  0  0  0  0  0  0  0
    0.5120   -0.6960    1.7250 C   0  0  0  0  0  0  0  0  0  0  0  0
    0.9260    1.0970    1.7510 S   0  0  0  0  0  0  0  0  0  0  0  0
    2.1130    1.3940    0.4280 C   0  0  1  0  0  0  0  0  0  0  0  0
    3.3710    0.7570    0.8480 N   0  0  0  0  0  0  0  0  0  0  0  0
    4.5780    1.4750    0.9850 C   0  0  0  0  0  0  0  0  0  0  0  0
    4.5990    2.7050    0.7440 O   0  0  0  0  0  0  0  0  0  0  0  0
    5.7490    0.8360    1.3860 O   0  0  0  0  0  0  0  0  0  0  0  0
    6.8920    1.5220    1.5140 O   0  0  0  0  0  0  0  0  0  0  0  0
    7.3870    1.7620    0.3080 O   0  0  0  0  0  0  0  0  0  0  0  0
    1.6890    0.6720   -0.8320 C   0  0  0  0  0  0  0  0  0  0  0  0
    1.3580   -0.7420   -0.4700 N   0  0  0  0  0  0  0  0  0  0  0  0
    2.2730   -1.6970   -0.8580 C   0  0  0  0  0  0  0  0  0  0  0  0
    3.2740   -1.2310   -1.6020 O   0  0  0  0  0  0  0  0  0  0  0  0
    2.3860   -3.1050   -0.6250 C   0  0  0  0  0  0  0  0  0  0  0  0
    1.6220   -3.7480    0.1050 O   0  0  0  0  0  0  0  0  0  0  0  0
    3.7240   -4.1170   -1.4210 P   0  0  0  0  0  0  0  0  0  0  0  0
    4.8410   -4.7860   -0.6150 O   0  0  0  0  0  0  0  0  0  0  0  0
  1  2  1  0
  2  3  1  0
  3  4  1  0
  3  5  1  0
  5  6  1  0
  6  7  1  0
  6 12  1  0
  7  8  1  0
  8  9  2  0
  8 10  1  0
 10 11  1  0
 11 12  1  0
 13 12  1  6
 13 14  1  0
 13 16  1  0
 13 26  1  0
 14 15  2  0
 16 17  1  0
 17 18  1  0
 18 19  1  1
 18 25  1  0
 19 20  1  0
 20 21  2  0
 20 22  1  0
 22 23  1  0
 23 24  1  0
 25 26  1  0
 26 27  1  0
 27 28  2  0
 27 29  1  0
 29 30  2  0
 29 31  1  0
 31 32  2  0
M  END
