
     RDKit          3D

 31 32  0  0  0  0  0  0  0  0999 V2000
    1.3570   -1.2260    1.5800 C   0  0  0  0  0  0  0  0  0  0  0  0
    1.0320    0.1060    1.6030 O   0  0  0  0  0  0  0  0  0  0  0  0
    0.8110    0.8490    0.0910 P   0  0  0  0  0  0  0  0  0  0  0  0
    1.8270    2.1700   -0.2470 O   0  0  0  0  0  0  0  0  0  0  0  0
    3.1210    1.8550   -0.5750 C   0  0  0  0  0  0  0  0  0  0  0  0
    4.0380    0.9410    0.7260 P   0  0  0  0  0  0  0  0  0  0  0  0
    4.5730   -0.6170    0.1820 O   0  0  0  0  0  0  0  0  0  0  0  0
    5.6830    2.1120    1.5770 P   0  0  0  0  0  0  0  0  0  0  0  0
    5.8070    3.6830    0.8460 O   0  0  0  0  0  0  0  0  0  0  0  0
    7.1950    1.2650    1.4920 O   0  0  0  0  0  0  0  0  0  0  0  0
    7.8620    1.3690   -0.0860 S   0  0  0  0  0  0  0  0  0  0  0  0
    0.3720   -0.4510   -1.5620 P   0  0  0  0  0  0  0  0  0  0  0  0
   -1.3240   -0.7910   -1.6550 O   0  0  0  0  0  0  0  0  0  0  0  0
   -1.6070   -1.8380   -0.8200 N   0  0  0  0  0  0  0  0  0  0  0  0
   -2.7320   -1.6760    0.0910 C   0  0  2  0  0  0  0  0  0  0  0  0
   -4.0160   -1.3650   -0.6440 C   0  0  0  0  0  0  0  0  0  0  0  0
   -4.6980   -0.2880   -0.1340 O   0  0  0  0  0  0  0  0  0  0  0  0
   -3.9800    0.8910   -0.1930 C   0  0  1  0  0  0  0  0  0  0  0  0
   -3.6720    1.2200   -1.5020 O   0  0  0  0  0  0  0  0  0  0  0  0
   -2.9980    2.3190   -1.6170 O   0  0  0  0  0  0  0  0  0  0  0  0
   -4.7560    1.9260    0.3200 O   0  0  0  0  0  0  0  0  0  0  0  0
   -5.1180    1.6990    1.6480 C   0  0  0  0  0  0  0  0  0  0  0  0
   -5.8500    0.5060    1.6620 O   0  0  0  0  0  0  0  0  0  0  0  0
   -2.8170    0.7360    0.6540 N   0  0  0  0  0  0  0  0  0  0  0  0
   -2.4890   -0.5830    1.0640 C   0  0  0  0  0  0  0  0  0  0  0  0
   -2.0070   -0.8180    2.2190 O   0  0  0  0  0  0  0  0  0  0  0  0
   -0.8690   -3.0280   -0.8140 C   0  0  0  0  0  0  0  0  0  0  0  0
   -1.4330   -4.1270   -0.4850 O   0  0  0  0  0  0  0  0  0  0  0  0
    0.5410   -3.1200   -1.1660 C   0  0  0  0  0  0  0  0  0  0  0  0
    1.2290   -2.0550   -1.5210 C   0  0  0  0  0  0  0  0  0  0  0  0
    2.5710   -2.1940   -1.8480 O   0  0  0  0  0  0  0  0  0  0  0  0
  1  2  1  0
  2  3  1  0
  3  4  1  0
  3 12  1  0
  4  5  1  0
  5  6  1  0
  6  7  1  0
  6  8  1  0
  8  9  1  0
  8 10  1  0
 10 11  1  0
 12 13  1  0
 12 30  1  0
 13 14  1  0
 15 14  1  6
 14 27  1  0
 15 16  1  0
 15 25  1  0
 16 17  1  0
 17 18  1  0
 18 19  1  6
 18 21  1  0
 18 24  1  0
 19 20  1  0
 21 22  1  0
 22 23  1  0
 24 25  1  0
 25 26  2  0
 27 28  2  0
 27 29  1  0
 29 30  2  0
 30 31  1  0
M  END
