
     RDKit          3D

 32 34  0  0  0  0  0  0  0  0999 V2000
    5.4300   -0.8550    0.6130 C   0  0  0  0  0  0  0  0  0  0  0  0
    5.1570    0.4030    0.0740 O   0  0  0  0  0  0  0  0  0  0  0  0
    3.8090    0.7180    0.2470 C   0  0  2  0  0  0  0  0  0  0  0  0
    3.4470    0.7440    1.5660 O   0  0  0  0  0  0  0  0  0  0  0  0
    2.1370    1.0470    1.8020 C   0  0  0  0  0  0  0  0  0  0  0  0
    0.9510   -0.1230    1.0530 P   0  0  0  0  0  0  0  0  0  0  0  0
    1.3910   -1.7480    1.1180 O   0  0  0  0  0  0  0  0  0  0  0  0
    0.5830   -2.6030    0.6000 O   0  0  0  0  0  0  0  0  0  0  0  0
   -0.9880   -2.0500    0.6080 P   0  0  0  0  0  0  0  0  0  0  0  0
   -1.5570   -1.2310   -0.9320 C   0  0  0  0  0  0  0  0  0  0  0  0
   -0.7610   -0.7460   -1.7610 O   0  0  0  0  0  0  0  0  0  0  0  0
   -3.0100   -1.1920   -1.1090 C   0  0  0  0  0  0  0  0  0  0  0  0
   -3.5200   -0.9140   -2.2230 O   0  0  0  0  0  0  0  0  0  0  0  0
   -3.9350   -1.4850    0.0470 C   0  0  2  0  0  0  0  0  0  0  0  0
   -4.0600   -2.8990    0.2650 N   0  0  0  0  0  0  0  0  0  0  0  0
   -2.5510   -3.4710    1.1160 P   0  0  0  0  0  0  0  0  0  0  0  0
   -2.1540   -5.0060    0.3790 O   0  0  0  0  0  0  0  0  0  0  0  0
   -5.0930   -0.7740   -0.0060 O   0  0  0  0  0  0  0  0  0  0  0  0
   -4.8340    0.4370   -0.4000 O   0  0  0  0  0  0  0  0  0  0  0  0
   -4.2590    1.2550    0.5490 C   0  0  0  0  0  0  0  0  0  0  0  0
   -2.8600    2.2310   -0.1390 P   0  0  0  0  0  0  0  0  0  0  0  0
   -3.1970    3.9550   -0.1230 O   0  0  0  0  0  0  0  0  0  0  0  0
   -2.3990    4.5140   -1.0010 O   0  0  0  0  0  0  0  0  0  0  0  0
   -0.9620    1.8990    0.8420 P   0  0  0  0  0  0  0  0  0  0  0  0
    0.3170    2.3850   -0.2360 O   0  0  0  0  0  0  0  0  0  0  0  0
   -0.6720    0.2720    1.2980 O   0  0  0  0  0  0  0  0  0  0  0  0
    3.0640   -0.3540   -0.3570 O   0  0  0  0  0  0  0  0  0  0  0  0
    3.2980   -0.7630   -1.6270 N   0  0  0  0  0  0  0  0  0  0  0  0
    3.3710    0.0810   -2.5820 C   0  0  0  0  0  0  0  0  0  0  0  0
    3.1570    1.8420   -2.2140 S   0  0  0  0  0  0  0  0  0  0  0  0
    3.5300    1.9750   -0.4760 C   0  0  0  0  0  0  0  0  0  0  0  0
    3.5460    3.0470    0.0520 O   0  0  0  0  0  0  0  0  0  0  0  0
  1  2  1  0
  3  2  1  1
  3  4  1  0
  3 27  1  0
  3 31  1  0
  4  5  1  0
  5  6  1  0
  6  7  1  0
  6 26  1  0
  7  8  1  0
  8  9  1  0
  9 10  1  0
  9 16  1  0
 10 11  2  0
 10 12  1  0
 12 13  2  0
 12 14  1  0
 14 15  1  6
 14 18  1  0
 15 16  1  0
 16 17  1  0
 18 19  1  0
 19 20  1  0
 20 21  1  0
 21 22  1  0
 21 24  1  0
 22 23  1  0
 24 25  1  0
 24 26  1  0
 27 28  1  0
 28 29  2  0
 29 30  1  0
 30 31  1  0
 31 32  2  0
M  END
