
     RDKit          3D

 13 14  0  0  0  0  0  0  0  0999 V2000
   -1.8890   -1.5680   -0.3690 C   0  0  0  0  0  0  0  0  0  0  0  0
   -1.2790   -0.2200   -0.1800 C   0  0  0  0  0  0  0  0  0  0  0  0
   -2.0840    0.7360    0.2480 C   0  0  0  0  0  0  0  0  0  0  0  0
   -1.2910    2.3840    0.4690 P   0  0  0  0  0  0  0  0  0  0  0  0
   -2.0400    3.3060    1.6980 O   0  0  0  0  0  0  0  0  0  0  0  0
    0.3620    1.9500    0.8950 O   0  0  0  0  0  0  0  0  0  0  0  0
    0.8150    1.1960   -0.1450 C   0  0  1  0  0  0  0  0  0  0  0  0
    2.1670    0.7580    0.0610 O   0  0  0  0  0  0  0  0  0  0  0  0
    2.1420   -0.5650    0.4740 C   0  0  0  0  0  0  0  0  0  0  0  0
    3.2420   -1.2470    1.1240 N   0  0  0  0  0  0  0  0  0  0  0  0
    0.9670   -1.0810    0.1780 C   0  0  0  0  0  0  0  0  0  0  0  0
    0.1330   -0.0590   -0.4770 C   0  0  1  0  0  0  0  0  0  0  0  0
    0.2800   -0.3080   -1.9280 N   0  0  0  0  0  0  0  0  0  0  0  0
  1  2  1  0
  2  3  2  0
  2 12  1  0
  3  4  1  0
  4  5  1  0
  4  6  1  0
  7  6  1  1
  7  8  1  0
  7 12  1  0
  8  9  1  0
  9 10  1  0
  9 11  2  0
 11 12  1  0
 12 13  1  6
M  END
