
     RDKit          3D

 11 10  0  0  0  0  0  0  0  0999 V2000
   -2.6120    2.2900   -0.2410 O   0  0  0  0  0  0  0  0  0  0  0  0
   -2.0200    1.2600   -0.6410 C   0  0  0  0  0  0  0  0  0  0  0  0
   -2.1200    0.9110   -1.9690 O   0  0  0  0  0  0  0  0  0  0  0  0
   -1.2390    0.4650    0.3270 C   0  0  2  0  0  0  0  0  0  0  0  0
   -1.3230    1.0580    1.5750 O   0  0  0  0  0  0  0  0  0  0  0  0
   -1.8650    0.2520    2.4570 O   0  0  0  0  0  0  0  0  0  0  0  0
    0.1070    0.4430   -0.0340 O   0  0  0  0  0  0  0  0  0  0  0  0
    0.5040   -0.8960   -0.1810 C   0  0  0  0  0  0  0  0  0  0  0  0
    1.9460   -0.9860   -0.5700 C   0  0  0  0  0  0  0  0  0  0  0  0
    2.7370   -0.3950    0.4100 O   0  0  0  0  0  0  0  0  0  0  0  0
    4.0090   -0.4430    0.1240 O   0  0  0  0  0  0  0  0  0  0  0  0
  1  2  2  0
  2  3  1  0
  2  4  1  0
  4  5  1  1
  4  7  1  0
  5  6  1  0
  7  8  1  0
  8  9  1  0
  9 10  1  0
 10 11  1  0
M  END
