
     RDKit          3D

 11 10  0  0  0  0  0  0  0  0999 V2000
   -1.1210    0.4580   -0.8280 O   0  0  0  0  0  0  0  0  0  0  0  0
   -1.7780   -0.0620    0.0430 C   0  0  0  0  0  0  0  0  0  0  0  0
   -3.1810    0.3580    0.3700 C   0  0  0  0  0  0  0  0  0  0  0  0
   -3.2880    1.7700    0.3280 O   0  0  0  0  0  0  0  0  0  0  0  0
   -1.2230   -1.1070    0.8180 O   0  0  0  0  0  0  0  0  0  0  0  0
   -0.0430   -1.5100    0.7570 O   0  0  0  0  0  0  0  0  0  0  0  0
    0.8360   -1.3700   -0.2470 C   0  0  0  0  0  0  0  0  0  0  0  0
    1.9390   -0.4060    0.4050 C   0  0  0  0  0  0  0  0  0  0  0  0
    2.8640   -0.2000   -0.5060 O   0  0  0  0  0  0  0  0  0  0  0  0
    3.9200    0.4380   -0.3280 O   0  0  0  0  0  0  0  0  0  0  0  0
    3.9040    1.3560    0.5610 O   0  0  0  0  0  0  0  0  0  0  0  0
  1  2  2  0
  2  3  1  0
  2  5  1  0
  3  4  1  0
  5  6  1  0
  6  7  1  0
  7  8  1  0
  8  9  1  0
  9 10  1  0
 10 11  1  0
M  END
