
     RDKit          3D

 13 14  0  0  0  0  0  0  0  0999 V2000
    3.8790   -0.0410    0.1220 C   0  0  0  0  0  0  0  0  0  0  0  0
    2.5700    0.6180   -0.3150 C   0  0  0  0  0  0  0  0  0  0  0  0
    1.6430    0.3500    0.6660 O   0  0  0  0  0  0  0  0  0  0  0  0
    0.4270    0.8650    0.4300 N   0  0  0  0  0  0  0  0  0  0  0  0
    0.2380    2.2080    0.3040 N   0  0  0  0  0  0  0  0  0  0  0  0
   -0.7950    2.6190   -0.3890 O   0  0  0  0  0  0  0  0  0  0  0  0
   -2.0050    2.0310   -0.1220 C   0  0  0  0  0  0  0  0  0  0  0  0
   -1.9510    0.6320    0.1460 N   0  0  0  0  0  0  0  0  0  0  0  0
   -2.9660   -0.3590    0.3010 C   0  0  0  0  0  0  0  0  0  0  0  0
   -2.2560   -1.6870    0.1480 C   0  0  0  0  0  0  0  0  0  0  0  0
   -0.8300   -1.3150    0.3150 C   0  0  0  0  0  0  0  0  0  0  0  0
    0.3370   -2.2490    0.4720 C   0  0  0  0  0  0  0  0  0  0  0  0
   -0.6820   -0.0050    0.3110 C   0  0  0  0  0  0  0  0  0  0  0  0
  1  2  1  0
  2  3  1  0
  3  4  1  0
  4  5  1  0
  4 13  1  0
  5  6  1  0
  6  7  1  0
  7  8  1  0
  8  9  1  0
  8 13  1  0
  9 10  1  0
 10 11  1  0
 11 12  1  0
 11 13  2  0
M  END
