
     RDKit          3D

 12 12  0  0  0  0  0  0  0  0999 V2000
    3.3360   -0.6670    0.3850 C   0  0  0  0  0  0  0  0  0  0  0  0
    2.4670   -0.2670   -0.6560 O   0  0  0  0  0  0  0  0  0  0  0  0
    1.0830   -0.2110   -0.4820 C   0  0  0  0  0  0  0  0  0  0  0  0
    0.4750    0.9450   -0.0380 C   0  0  0  0  0  0  0  0  0  0  0  0
    1.2780    2.0450    0.2310 O   0  0  0  0  0  0  0  0  0  0  0  0
   -0.8960    0.9450    0.1160 C   0  0  0  0  0  0  0  0  0  0  0  0
   -1.5420    2.0860    0.5600 O   0  0  0  0  0  0  0  0  0  0  0  0
   -1.6480   -0.1680   -0.1630 C   0  0  0  0  0  0  0  0  0  0  0  0
   -3.1180   -0.2350   -0.0200 C   0  0  0  0  0  0  0  0  0  0  0  0
   -1.0200   -1.2880   -0.5970 N   0  0  0  0  0  0  0  0  0  0  0  0
    0.3140   -1.3460   -0.7660 C   0  0  0  0  0  0  0  0  0  0  0  0
    0.8800   -2.4010   -1.1730 O   0  0  0  0  0  0  0  0  0  0  0  0
  1  2  1  0
  2  3  1  0
  3  4  2  0
  3 11  1  0
  4  5  1  0
  4  6  1  0
  6  7  1  0
  6  8  2  0
  8  9  1  0
  8 10  1  0
 10 11  1  0
 11 12  2  0
M  END
