
     RDKit          3D

 12 12  0  0  0  0  0  0  0  0999 V2000
   -2.4210   -1.4120    0.0120 C   0  0  0  0  0  0  0  0  0  0  0  0
   -1.4350   -0.5370    0.0250 C   0  0  0  0  0  0  0  0  0  0  0  0
   -0.0320   -0.9280   -0.0060 C   0  0  0  0  0  0  0  0  0  0  0  0
    0.9480   -0.0530    0.0070 C   0  0  0  0  0  0  0  0  0  0  0  0
    2.3410   -0.5160   -0.0260 C   0  0  0  0  0  0  0  0  0  0  0  0
    2.6170   -1.7420   -0.0660 O   0  0  0  0  0  0  0  0  0  0  0  0
    3.4100    0.3670   -0.0140 O   0  0  0  0  0  0  0  0  0  0  0  0
    0.6130    1.3640    0.0530 C   0  0  0  0  0  0  0  0  0  0  0  0
    1.5870    2.1820    0.0650 O   0  0  0  0  0  0  0  0  0  0  0  0
   -0.7390    1.8270    0.0860 N   0  0  0  0  0  0  0  0  0  0  0  0
   -1.8060    0.8840    0.0720 C   0  0  0  0  0  0  0  0  0  0  0  0
   -3.0070    1.2550    0.0990 O   0  0  0  0  0  0  0  0  0  0  0  0
  1  2  2  0
  2  3  1  0
  2 11  1  0
  3  4  2  0
  4  5  1  0
  4  8  1  0
  5  6  2  0
  5  7  1  0
  8  9  2  0
  8 10  1  0
 10 11  1  0
 11 12  2  0
M  END
