
     RDKit          3D

 12 12  0  0  0  0  0  0  0  0999 V2000
    3.5520    0.1350   -0.2270 O   0  0  0  0  0  0  0  0  0  0  0  0
    2.6180    0.7750    0.3100 C   0  0  0  0  0  0  0  0  0  0  0  0
    2.6840    2.1500    0.2360 O   0  0  0  0  0  0  0  0  0  0  0  0
    1.5340    0.0120    0.9730 C   0  0  1  0  0  0  0  0  0  0  0  0
    0.1720    0.4460    0.5650 C   0  0  0  0  0  0  0  0  0  0  0  0
   -0.4830   -0.3470   -0.4070 N   0  0  0  0  0  0  0  0  0  0  0  0
   -1.9350   -0.3900   -0.2120 C   0  0  0  0  0  0  0  0  0  0  0  0
   -2.5880    0.9240   -0.4740 C   0  0  0  0  0  0  0  0  0  0  0  0
   -2.1080    1.9350    0.3700 O   0  0  0  0  0  0  0  0  0  0  0  0
   -0.0620   -1.7240   -0.4780 C   0  0  0  0  0  0  0  0  0  0  0  0
    1.4300   -1.8040   -0.4090 C   0  0  0  0  0  0  0  0  0  0  0  0
    1.7850   -1.3250    0.8640 O   0  0  0  0  0  0  0  0  0  0  0  0
  1  2  2  0
  2  3  1  0
  4  2  1  6
  4  5  1  0
  4 12  1  0
  5  6  1  0
  6  7  1  0
  6 10  1  0
  7  8  1  0
  8  9  1  0
 10 11  1  0
 11 12  1  0
M  END
