
     RDKit          3D

 12 12  0  0  0  0  0  0  0  0999 V2000
   -2.0890   -2.2540    0.4360 O   0  0  0  0  0  0  0  0  0  0  0  0
   -2.2440   -1.0220    0.2760 C   0  0  0  0  0  0  0  0  0  0  0  0
   -3.5440   -0.5140    0.2710 O   0  0  0  0  0  0  0  0  0  0  0  0
   -1.0790   -0.1800    0.1050 C   0  0  0  0  0  0  0  0  0  0  0  0
   -1.2410    1.1760   -0.0710 C   0  0  0  0  0  0  0  0  0  0  0  0
   -0.1000    1.9500   -0.2320 C   0  0  0  0  0  0  0  0  0  0  0  0
    1.1330    1.3180   -0.2070 C   0  0  0  0  0  0  0  0  0  0  0  0
    1.2410   -0.0420   -0.0280 C   0  0  0  0  0  0  0  0  0  0  0  0
    2.5680   -0.6580   -0.0100 C   0  0  0  0  0  0  0  0  0  0  0  0
    3.5920    0.0340   -0.1540 O   0  0  0  0  0  0  0  0  0  0  0  0
    2.7400   -2.0240    0.1670 O   0  0  0  0  0  0  0  0  0  0  0  0
    0.1290   -0.7600    0.1240 N   0  0  0  0  0  0  0  0  0  0  0  0
  1  2  2  0
  2  3  1  0
  2  4  1  0
  4  5  2  0
  4 12  1  0
  5  6  1  0
  6  7  2  0
  7  8  1  0
  8  9  1  0
  8 12  2  0
  9 10  2  0
  9 11  1  0
M  END
