
     RDKit          3D

 12 12  0  0  0  0  0  0  0  0999 V2000
    4.0440    0.4100   -0.1640 C   0  0  0  0  0  0  0  0  0  0  0  0
    2.6350    0.2880   -0.1180 O   0  0  0  0  0  0  0  0  0  0  0  0
    2.0900   -0.8550    0.4380 C   0  0  0  0  0  0  0  0  0  0  0  0
    2.8720   -1.7320    0.8770 O   0  0  0  0  0  0  0  0  0  0  0  0
    0.6250   -1.0050    0.4960 C   0  0  0  0  0  0  0  0  0  0  0  0
   -0.0180    0.1160   -0.0610 O   0  0  0  0  0  0  0  0  0  0  0  0
   -1.4120    0.1450   -0.0900 C   0  0  0  0  0  0  0  0  0  0  0  0
   -2.2910   -0.8260    0.3780 C   0  0  0  0  0  0  0  0  0  0  0  0
   -3.5570   -0.4240    0.1670 N   0  0  0  0  0  0  0  0  0  0  0  0
   -3.5070    0.7830   -0.4250 C   0  0  0  0  0  0  0  0  0  0  0  0
   -2.1960    1.1580   -0.5960 C   0  0  0  0  0  0  0  0  0  0  0  0
   -1.7050    2.3370   -1.1700 O   0  0  0  0  0  0  0  0  0  0  0  0
  1  2  1  0
  2  3  1  0
  3  4  2  0
  3  5  1  0
  5  6  1  0
  6  7  1  0
  7  8  2  0
  7 11  1  0
  8  9  1  0
  9 10  1  0
 10 11  2  0
 11 12  1  0
M  END
