
     RDKit          3D

 17 19  0  0  0  0  0  0  0  0999 V2000
    3.9760   -1.1570   -0.0650 N   0  0  0  0  0  0  0  0  0  0  0  0
    3.5870   -0.0300    0.7290 C   0  0  0  0  0  0  0  0  0  0  0  0
    2.3010    0.5260    0.2280 C   0  0  0  0  0  0  0  0  0  0  0  0
    2.2130    1.7750   -0.2030 C   0  0  0  0  0  0  0  0  0  0  0  0
    0.9580    2.3340   -0.6940 C   0  0  0  0  0  0  0  0  0  0  0  0
   -0.1410    1.5910   -0.7130 C   0  0  0  0  0  0  0  0  0  0  0  0
   -0.0920    0.2750   -0.2570 N   0  0  0  0  0  0  0  0  0  0  0  0
   -1.2550   -0.5490   -0.2410 C   0  0  0  0  0  0  0  0  0  0  0  0
   -1.1810   -1.8490   -0.6540 N   0  0  0  0  0  0  0  0  0  0  0  0
   -2.2230   -2.6750   -0.7060 C   0  0  0  0  0  0  0  0  0  0  0  0
   -3.4210   -2.2140   -0.3330 N   0  0  0  0  0  0  0  0  0  0  0  0
   -3.5450   -0.9290    0.0870 C   0  0  0  0  0  0  0  0  0  0  0  0
   -4.6410   -0.2040    0.5360 C   0  0  0  0  0  0  0  0  0  0  0  0
   -4.2090    1.0200    0.8380 N   0  0  0  0  0  0  0  0  0  0  0  0
   -2.9150    1.1380    0.6160 N   0  0  0  0  0  0  0  0  0  0  0  0
   -2.4760   -0.0490    0.1510 C   0  0  0  0  0  0  0  0  0  0  0  0
    1.1310   -0.3520    0.1970 C   0  0  0  0  0  0  0  0  0  0  0  0
  1  2  1  0
  2  3  1  0
  3  4  2  0
  3 17  1  0
  4  5  1  0
  5  6  2  0
  6  7  1  0
  7  8  1  0
  7 17  1  0
  8  9  2  0
  8 16  1  0
  9 10  1  0
 10 11  2  0
 11 12  1  0
 12 13  1  0
 12 16  2  0
 13 14  2  0
 14 15  1  0
 15 16  1  0
M  END
