
     RDKit          3D

 17 19  0  0  0  0  0  0  0  0999 V2000
    4.7340    2.2360   -0.6080 N   0  0  0  0  0  0  0  0  0  0  0  0
    4.2420    0.9100   -0.4060 C   0  0  0  0  0  0  0  0  0  0  0  0
    5.1210   -0.1000   -0.2760 N   0  0  0  0  0  0  0  0  0  0  0  0
    4.6460   -1.3200   -0.0890 N   0  0  0  0  0  0  0  0  0  0  0  0
    3.3300   -1.5880   -0.0250 C   0  0  0  0  0  0  0  0  0  0  0  0
    2.4190   -0.5640   -0.1560 C   0  0  0  0  0  0  0  0  0  0  0  0
    0.9880   -0.8360   -0.0880 C   0  0  0  0  0  0  0  0  0  0  0  0
    0.4020   -2.0540    0.1000 C   0  0  0  0  0  0  0  0  0  0  0  0
   -0.9280   -1.8350    0.0940 N   0  0  0  0  0  0  0  0  0  0  0  0
   -1.1980   -0.5320   -0.0900 C   0  0  0  0  0  0  0  0  0  0  0  0
   -2.5140    0.1070   -0.1570 C   0  0  0  0  0  0  0  0  0  0  0  0
   -2.7280    1.3910   -0.3390 C   0  0  0  0  0  0  0  0  0  0  0  0
   -4.1750    1.6210   -0.3450 C   0  0  0  0  0  0  0  0  0  0  0  0
   -4.7660    0.2870   -0.1390 C   0  0  0  0  0  0  0  0  0  0  0  0
   -3.7860   -0.5870   -0.0310 C   0  0  0  0  0  0  0  0  0  0  0  0
    0.0020    0.0690   -0.2010 N   0  0  0  0  0  0  0  0  0  0  0  0
    2.9110    0.6700   -0.3450 N   0  0  0  0  0  0  0  0  0  0  0  0
  1  2  1  0
  2  3  2  0
  2 17  1  0
  3  4  1  0
  4  5  2  0
  5  6  1  0
  6  7  1  0
  6 17  2  0
  7  8  2  0
  7 16  1  0
  8  9  1  0
  9 10  1  0
 10 11  1  0
 10 16  2  0
 11 12  2  0
 11 15  1  0
 12 13  1  0
 13 14  1  0
 14 15  2  0
M  END
