
     RDKit          3D

 17 19  0  0  0  0  0  0  0  0999 V2000
    1.5600   -1.9050   -1.2370 C   0  0  0  0  0  0  0  0  0  0  0  0
    2.9140   -1.6750   -1.2680 C   0  0  0  0  0  0  0  0  0  0  0  0
    3.3760   -0.5970   -0.5420 C   0  0  0  0  0  0  0  0  0  0  0  0
    4.6480   -0.0650   -0.3400 C   0  0  0  0  0  0  0  0  0  0  0  0
    4.4860    1.0260    0.4890 C   0  0  0  0  0  0  0  0  0  0  0  0
    3.1860    1.1450    0.7700 N   0  0  0  0  0  0  0  0  0  0  0  0
    2.4850    0.1780    0.1620 C   0  0  0  0  0  0  0  0  0  0  0  0
    1.1170   -0.0740    0.1800 C   0  0  0  0  0  0  0  0  0  0  0  0
    0.2270    0.7430    0.9180 N   0  0  0  0  0  0  0  0  0  0  0  0
   -1.1750    0.4890    0.9360 C   0  0  0  0  0  0  0  0  0  0  0  0
   -1.8380    0.5670   -0.4210 C   0  0  0  0  0  0  0  0  0  0  0  0
   -3.3000    0.2790   -0.2360 C   0  0  0  0  0  0  0  0  0  0  0  0
   -4.2250    0.2560   -1.2140 N   0  0  0  0  0  0  0  0  0  0  0  0
   -5.4150   -0.0360   -0.6690 C   0  0  0  0  0  0  0  0  0  0  0  0
   -5.2480   -0.1990    0.6590 N   0  0  0  0  0  0  0  0  0  0  0  0
   -3.9600   -0.0020    0.8930 N   0  0  0  0  0  0  0  0  0  0  0  0
    0.7090   -1.1330   -0.5400 N   0  0  0  0  0  0  0  0  0  0  0  0
  1  2  2  0
  1 17  1  0
  2  3  1  0
  3  4  1  0
  3  7  2  0
  4  5  2  0
  5  6  1  0
  6  7  1  0
  7  8  1  0
  8  9  1  0
  8 17  2  0
  9 10  1  0
 10 11  1  0
 11 12  1  0
 12 13  1  0
 12 16  2  0
 13 14  2  0
 14 15  1  0
 15 16  1  0
M  END
