
     RDKit          3D

 17 19  0  0  0  0  0  0  0  0999 V2000
    0.2260    4.0000   -0.0040 C   0  0  0  0  0  0  0  0  0  0  0  0
   -0.7900    2.9670    0.1020 N   0  0  0  0  0  0  0  0  0  0  0  0
   -0.3370    1.6190    0.1000 C   0  0  0  0  0  0  0  0  0  0  0  0
    0.9920    1.2730    0.0040 C   0  0  0  0  0  0  0  0  0  0  0  0
    1.4150   -0.0380    0.0040 C   0  0  0  0  0  0  0  0  0  0  0  0
    2.8270   -0.3840   -0.0980 C   0  0  0  0  0  0  0  0  0  0  0  0
    3.4430   -1.5940   -0.1160 C   0  0  0  0  0  0  0  0  0  0  0  0
    4.8080   -1.3820   -0.2290 C   0  0  0  0  0  0  0  0  0  0  0  0
    4.9900   -0.0490   -0.2770 N   0  0  0  0  0  0  0  0  0  0  0  0
    3.8260    0.5320   -0.2000 N   0  0  0  0  0  0  0  0  0  0  0  0
    0.4820   -1.0070    0.1030 N   0  0  0  0  0  0  0  0  0  0  0  0
   -0.8400   -0.6890    0.1990 C   0  0  0  0  0  0  0  0  0  0  0  0
   -1.8190   -1.7110    0.3020 N   0  0  0  0  0  0  0  0  0  0  0  0
   -3.2030   -1.3890    0.4030 C   0  0  2  0  0  0  0  0  0  0  0  0
   -4.1720   -2.5550    0.5090 C   0  0  0  0  0  0  0  0  0  0  0  0
   -4.0920   -1.7050   -0.7410 C   0  0  0  0  0  0  0  0  0  0  0  0
   -1.2300    0.6020    0.1970 N   0  0  0  0  0  0  0  0  0  0  0  0
  1  2  1  0
  2  3  1  0
  3  4  2  0
  3 17  1  0
  4  5  1  0
  5  6  1  0
  5 11  2  0
  6  7  1  0
  6 10  2  0
  7  8  2  0
  8  9  1  0
  9 10  1  0
 11 12  1  0
 12 13  1  0
 12 17  2  0
 14 13  1  6
 14 15  1  0
 14 16  1  0
 15 16  1  0
M  END
