
     RDKit          3D

 27 29  0  0  0  0  0  0  0  0999 V2000
    0.5020   -2.9720   -3.4040 C   0  0  0  0  0  0  0  0  0  0  0  0
    0.9870   -2.0500   -2.6050 C   0  0  0  0  0  0  0  0  0  0  0  0
    0.0530   -1.0190   -2.0320 C   0  0  0  0  0  0  0  0  0  0  0  0
    0.0850   -1.0880   -0.6330 N   0  0  0  0  0  0  0  0  0  0  0  0
   -0.4160   -2.1890    0.0420 C   0  0  0  0  0  0  0  0  0  0  0  0
   -1.8690   -2.4400    0.0680 C   0  0  0  0  0  0  0  0  0  0  0  0
   -2.4600   -2.3950    1.2560 C   0  0  0  0  0  0  0  0  0  0  0  0
   -3.8960   -2.6210    1.4570 C   0  0  0  0  0  0  0  0  0  0  0  0
   -4.6580   -2.9740    0.3270 N   0  0  0  0  0  0  0  0  0  0  0  0
   -4.0030   -3.0140   -0.9180 C   0  0  0  0  0  0  0  0  0  0  0  0
   -2.7200   -2.7690   -1.0440 C   0  0  0  0  0  0  0  0  0  0  0  0
    0.3090    0.1270    0.0670 C   0  0  1  0  0  0  0  0  0  0  0  0
    1.6610    0.7450   -0.2430 C   0  0  0  0  0  0  0  0  0  0  0  0
    2.7470   -0.1260    0.1020 N   0  0  0  0  0  0  0  0  0  0  0  0
    4.0970    0.2440   -0.1000 C   0  0  0  0  0  0  0  0  0  0  0  0
    4.4210    1.3620   -0.5940 O   0  0  0  0  0  0  0  0  0  0  0  0
    5.2140   -0.6750    0.2650 C   0  0  1  0  0  0  0  0  0  0  0  0
    6.3740   -0.6690   -0.6400 C   0  0  0  0  0  0  0  0  0  0  0  0
    6.5010   -0.1550    0.7700 C   0  0  0  0  0  0  0  0  0  0  0  0
   -0.7340    1.1090   -0.3060 C   0  0  0  0  0  0  0  0  0  0  0  0
   -1.4670    0.7980   -1.3160 O   0  0  0  0  0  0  0  0  0  0  0  0
   -1.0120    2.3250    0.3090 N   0  0  0  0  0  0  0  0  0  0  0  0
   -2.0570    3.1850   -0.1940 C   0  0  0  0  0  0  0  0  0  0  0  0
   -1.7720    4.5760    0.3620 C   0  0  0  0  0  0  0  0  0  0  0  0
   -2.0420    4.5380    1.8340 C   0  0  0  0  0  0  0  0  0  0  0  0
   -1.2100    3.4720    2.4640 C   0  0  0  0  0  0  0  0  0  0  0  0
   -0.2920    2.7680    1.4720 C   0  0  0  0  0  0  0  0  0  0  0  0
  1  2  2  0
  2  3  1  0
  3  4  1  0
  4  5  1  0
  4 12  1  0
  5  6  1  0
  6  7  2  0
  6 11  1  0
  7  8  1  0
  8  9  1  0
  9 10  1  0
 10 11  2  0
 12 13  1  6
 12 20  1  0
 13 14  1  0
 14 15  1  0
 15 16  2  0
 17 15  1  6
 17 18  1  0
 17 19  1  0
 18 19  1  0
 20 21  2  0
 20 22  1  0
 22 23  1  0
 22 27  1  0
 23 24  1  0
 24 25  1  0
 25 26  1  0
 26 27  1  0
M  CHG  1   9   1
M  END
