
     RDKit          3D

 21 22  0  0  0  0  0  0  0  0999 V2000
   -3.3390   -1.7960   -0.1340 C   0  0  0  0  0  0  0  0  0  0  0  0
   -3.4520   -0.3290   -0.3550 C   0  0  0  0  0  0  0  0  0  0  0  0
   -2.4940    0.5310   -0.3680 C   0  0  0  0  0  0  0  0  0  0  0  0
   -1.1460    0.3430   -0.1850 N   0  0  0  0  0  0  0  0  0  0  0  0
   -0.3330   -0.7560    0.0680 C   0  0  0  0  0  0  0  0  0  0  0  0
   -0.8060   -1.8920    0.1990 O   0  0  0  0  0  0  0  0  0  0  0  0
    1.1480   -0.6780    0.2060 C   0  0  0  0  0  0  0  0  0  0  0  0
    1.8630   -1.6220    0.8280 N   0  0  0  0  0  0  0  0  0  0  0  0
    3.1510   -1.3130    0.7640 C   0  0  0  0  0  0  0  0  0  0  0  0
    4.2810   -2.1140    1.3390 C   0  0  0  0  0  0  0  0  0  0  0  0
    3.5930   -3.6690    2.2140 Br  0  0  0  0  0  0  0  0  0  0  0  0
    3.2930   -0.1390    0.0860 C   0  0  0  0  0  0  0  0  0  0  0  0
    4.5680    0.5330   -0.1900 C   0  0  0  0  0  0  0  0  0  0  0  0
    5.2820    1.4340    1.3580 Br  0  0  0  0  0  0  0  0  0  0  0  0
    1.9810    0.2510   -0.2660 C   0  0  0  0  0  0  0  0  0  0  0  0
    1.7740    1.4750   -1.0440 C   0  0  0  0  0  0  0  0  0  0  0  0
   -2.8670    1.9620   -0.6380 C   0  0  0  0  0  0  0  0  0  0  0  0
   -1.9860    2.8750   -0.6690 O   0  0  0  0  0  0  0  0  0  0  0  0
   -4.2010    2.3400   -0.8670 N   0  0  0  0  0  0  0  0  0  0  0  0
   -5.2070    1.4460   -0.2710 C   0  0  0  0  0  0  0  0  0  0  0  0
   -4.7830    0.1200   -0.5700 O   0  0  0  0  0  0  0  0  0  0  0  0
  1  2  1  0
  2  3  2  0
  2 21  1  0
  3  4  1  0
  3 17  1  0
  4  5  1  0
  5  6  2  0
  5  7  1  0
  7  8  1  0
  7 15  2  0
  8  9  1  0
  9 10  1  0
  9 12  2  0
 10 11  1  0
 12 13  1  0
 12 15  1  0
 13 14  1  0
 15 16  1  0
 17 18  2  0
 17 19  1  0
 19 20  1  0
 20 21  1  0
M  END
