
     RDKit          3D

 21 22  0  0  0  0  0  0  0  0999 V2000
   -1.5070    1.6520   -2.2250 C   0  0  0  0  0  0  0  0  0  0  0  0
   -2.4110    1.2290   -1.3800 C   0  0  0  0  0  0  0  0  0  0  0  0
   -3.7470    1.6750   -1.6650 O   0  0  0  0  0  0  0  0  0  0  0  0
   -4.8200    1.3370   -0.8980 C   0  0  0  0  0  0  0  0  0  0  0  0
   -4.5970    0.5710    0.1360 C   0  0  0  0  0  0  0  0  0  0  0  0
   -3.2640    0.0780    0.4860 C   0  0  0  0  0  0  0  0  0  0  0  0
   -3.1720   -0.7910    1.6610 C   0  0  1  0  0  0  0  0  0  0  0  0
   -3.0400    0.2540    3.3020 Br  0  0  0  0  0  0  0  0  0  0  0  0
   -4.9050   -1.7650    1.7350 Br  0  0  0  0  0  0  0  0  0  0  0  0
   -2.1700    0.3910   -0.2450 C   0  0  0  0  0  0  0  0  0  0  0  0
   -0.9710   -0.0730    0.2740 N   0  0  0  0  0  0  0  0  0  0  0  0
    0.3630   -0.0140   -0.1320 C   0  0  0  0  0  0  0  0  0  0  0  0
    0.6640    0.5390   -1.1570 O   0  0  0  0  0  0  0  0  0  0  0  0
    1.4070   -0.6140    0.6710 N   0  0  0  0  0  0  0  0  0  0  0  0
    2.7690   -0.5980    0.3400 C   0  0  0  0  0  0  0  0  0  0  0  0
    3.3020   -0.0290   -0.7680 C   0  0  0  0  0  0  0  0  0  0  0  0
    4.6840   -0.0570   -1.0260 C   0  0  0  0  0  0  0  0  0  0  0  0
    5.5170   -0.6760   -0.1340 C   0  0  0  0  0  0  0  0  0  0  0  0
    4.9820   -1.2400    0.9640 N   0  0  0  0  0  0  0  0  0  0  0  0
    3.6730   -1.2160    1.2130 C   0  0  0  0  0  0  0  0  0  0  0  0
    3.2380   -1.7730    2.2780 O   0  0  0  0  0  0  0  0  0  0  0  0
  1  2  2  0
  2  3  1  0
  2 10  1  0
  3  4  1  0
  4  5  2  0
  5  6  1  0
  6  7  1  0
  6 10  2  0
  7  8  1  1
  7  9  1  0
 10 11  1  0
 11 12  1  0
 12 13  2  0
 12 14  1  0
 14 15  1  0
 15 16  2  0
 15 20  1  0
 16 17  1  0
 17 18  2  0
 18 19  1  0
 19 20  1  0
 20 21  2  0
M  END
