
     RDKit          3D

 21 22  0  0  0  0  0  0  0  0999 V2000
    4.7320   -0.4890    1.6070 N   0  0  0  0  0  0  0  0  0  0  0  0
    3.9360   -0.1150    0.6630 C   0  0  0  0  0  0  0  0  0  0  0  0
    2.5250   -0.5400    0.5890 C   0  0  0  0  0  0  0  0  0  0  0  0
    2.1390   -1.3030    1.5170 O   0  0  0  0  0  0  0  0  0  0  0  0
    1.6460   -0.1100   -0.4750 C   0  0  0  0  0  0  0  0  0  0  0  0
    0.2580   -0.5100   -0.5980 C   0  0  0  0  0  0  0  0  0  0  0  0
   -0.3990   -0.0700   -1.6050 O   0  0  0  0  0  0  0  0  0  0  0  0
   -0.4690   -1.3400    0.2710 N   0  0  0  0  0  0  0  0  0  0  0  0
   -1.7970   -1.6230   -0.0140 N   0  0  0  0  0  0  0  0  0  0  0  0
   -2.8540   -0.6850    0.0850 C   0  0  0  0  0  0  0  0  0  0  0  0
   -4.1060   -1.0960   -0.3150 C   0  0  0  0  0  0  0  0  0  0  0  0
   -5.1830   -0.2810   -0.2630 C   0  0  0  0  0  0  0  0  0  0  0  0
   -5.0340    1.0090    0.2050 C   0  0  0  0  0  0  0  0  0  0  0  0
   -3.7890    1.4550    0.6150 C   0  0  0  0  0  0  0  0  0  0  0  0
   -3.5010    3.2330    1.2820 Br  0  0  0  0  0  0  0  0  0  0  0  0
   -2.6920    0.5920    0.5520 C   0  0  0  0  0  0  0  0  0  0  0  0
    2.1720    0.7030   -1.4090 C   0  0  0  0  0  0  0  0  0  0  0  0
    3.4750    1.1080   -1.3600 O   0  0  0  0  0  0  0  0  0  0  0  0
    4.4060    0.7700   -0.4030 C   0  0  0  0  0  0  0  0  0  0  0  0
    5.6660    1.2030   -0.4180 C   0  0  0  0  0  0  0  0  0  0  0  0
    6.9320    0.7220    0.9110 Br  0  0  0  0  0  0  0  0  0  0  0  0
  1  2  2  0
  2  3  1  0
  2 19  1  0
  3  4  2  0
  3  5  1  0
  5  6  1  0
  5 17  2  0
  6  7  2  0
  6  8  1  0
  8  9  1  0
  9 10  1  0
 10 11  2  0
 10 16  1  0
 11 12  1  0
 12 13  2  0
 13 14  1  0
 14 15  1  0
 14 16  2  0
 17 18  1  0
 18 19  1  0
 19 20  2  3
 20 21  1  0
M  END
