
     RDKit          3D

 21 22  0  0  0  0  0  0  0  0999 V2000
    4.9040   -0.8710    0.7590 C   0  0  0  0  0  0  0  0  0  0  0  0
    5.1460    0.3590   -0.0750 C   0  0  1  0  0  0  0  0  0  0  0  0
    5.5870   -0.1040   -1.4520 C   0  0  0  0  0  0  0  0  0  0  0  0
    3.9840    1.2630   -0.2450 C   0  0  2  0  0  0  0  0  0  0  0  0
    3.4670    1.7620    1.0280 N   0  0  0  0  0  0  0  0  0  0  0  0
    2.4670    0.8210    1.4920 C   0  0  0  0  0  0  0  0  0  0  0  0
    2.1240    0.6890    2.6770 O   0  0  0  0  0  0  0  0  0  0  0  0
    2.0240    0.1450    0.3130 N   0  0  0  0  0  0  0  0  0  0  0  0
    1.0870   -0.9190    0.2300 C   0  0  0  0  0  0  0  0  0  0  0  0
   -0.3300   -0.5690    0.1380 C   0  0  0  0  0  0  0  0  0  0  0  0
   -1.1550   -1.1820   -0.8170 C   0  0  0  0  0  0  0  0  0  0  0  0
   -2.5080   -0.9600   -0.8620 C   0  0  0  0  0  0  0  0  0  0  0  0
   -3.1250   -0.1080    0.0430 C   0  0  0  0  0  0  0  0  0  0  0  0
   -4.5960    0.0670    0.0290 C   0  0  1  0  0  0  0  0  0  0  0  0
   -5.1530   -1.2310    0.6740 C   0  0  0  0  0  0  0  0  0  0  0  0
   -4.9610    1.1510    1.0440 C   0  0  0  0  0  0  0  0  0  0  0  0
   -5.2040    0.2950   -1.3130 C   0  0  0  0  0  0  0  0  0  0  0  0
   -2.2960    0.4870    0.9660 C   0  0  0  0  0  0  0  0  0  0  0  0
   -0.9200    0.2850    1.0420 C   0  0  0  0  0  0  0  0  0  0  0  0
    2.7570    0.6810   -0.8210 C   0  0  0  0  0  0  0  0  0  0  0  0
    2.4240    0.6640   -2.0260 O   0  0  0  0  0  0  0  0  0  0  0  0
  2  1  1  1
  2  3  1  0
  2  4  1  0
  4  5  1  1
  4 20  1  0
  5  6  1  0
  6  7  2  0
  6  8  1  0
  8  9  1  0
  8 20  1  0
  9 10  1  0
 10 11  2  0
 10 19  1  0
 11 12  1  0
 12 13  2  0
 13 14  1  0
 13 18  1  0
 14 15  1  1
 14 16  1  0
 14 17  1  0
 18 19  2  0
 20 21  2  0
M  END
