
     RDKit          3D

 27 29  0  0  0  0  0  0  0  0999 V2000
   -8.5630   -0.3250   -0.7190 N   0  0  0  0  0  0  0  0  0  0  0  0
   -8.3080    0.3330    0.5360 C   0  0  0  0  0  0  0  0  0  0  0  0
   -6.9110   -0.0320    1.0340 C   0  0  0  0  0  0  0  0  0  0  0  0
   -5.9520    0.4070    0.0360 N   0  0  0  0  0  0  0  0  0  0  0  0
   -4.6240    0.0700    0.5000 C   0  0  0  0  0  0  0  0  0  0  0  0
   -3.5720    0.4780   -0.4520 C   0  0  0  0  0  0  0  0  0  0  0  0
   -3.8910    1.0560   -1.6570 C   0  0  0  0  0  0  0  0  0  0  0  0
   -2.9290    1.4450   -2.5570 C   0  0  0  0  0  0  0  0  0  0  0  0
   -1.5900    1.2320   -2.2070 C   0  0  0  0  0  0  0  0  0  0  0  0
   -1.2120    0.6620   -1.0220 C   0  0  0  0  0  0  0  0  0  0  0  0
    0.1200    0.4200   -0.6360 N   0  0  0  0  0  0  0  0  0  0  0  0
    1.2490    0.5330   -1.4590 C   0  0  0  0  0  0  0  0  0  0  0  0
    1.1190    0.8730   -2.6600 O   0  0  0  0  0  0  0  0  0  0  0  0
    2.6250    0.2730   -1.0000 C   0  0  0  0  0  0  0  0  0  0  0  0
    2.9360   -0.0900    0.2230 C   0  0  0  0  0  0  0  0  0  0  0  0
    4.3170   -0.3270    0.5960 C   0  0  0  0  0  0  0  0  0  0  0  0
    5.3700   -0.1980   -0.2630 C   0  0  0  0  0  0  0  0  0  0  0  0
    6.6750   -0.4350    0.1400 C   0  0  0  0  0  0  0  0  0  0  0  0
    7.7520   -0.3080   -0.7210 C   0  0  0  0  0  0  0  0  0  0  0  0
    9.0420   -0.5490   -0.2970 C   0  0  0  0  0  0  0  0  0  0  0  0
    9.2630   -0.9240    1.0090 C   0  0  0  0  0  0  0  0  0  0  0  0
    8.1940   -1.0490    1.8610 C   0  0  0  0  0  0  0  0  0  0  0  0
    6.9130   -0.8090    1.4360 C   0  0  0  0  0  0  0  0  0  0  0  0
    5.8470   -0.9330    2.2790 N   0  0  0  0  0  0  0  0  0  0  0  0
    4.5890   -0.7030    1.8860 C   0  0  0  0  0  0  0  0  0  0  0  0
    3.6400   -0.8290    2.6940 O   0  0  0  0  0  0  0  0  0  0  0  0
   -2.2590    0.2950   -0.1620 C   0  0  0  0  0  0  0  0  0  0  0  0
  1  2  1  0
  2  3  1  0
  3  4  1  0
  4  5  1  0
  5  6  1  0
  6  7  2  0
  6 27  1  0
  7  8  1  0
  8  9  2  0
  9 10  1  0
 10 11  1  0
 10 27  2  0
 11 12  1  0
 12 13  2  0
 12 14  1  0
 14 15  2  3
 15 16  1  0
 16 17  2  0
 16 25  1  0
 17 18  1  0
 18 19  2  0
 18 23  1  0
 19 20  1  0
 20 21  2  0
 21 22  1  0
 22 23  2  0
 23 24  1  0
 24 25  1  0
 25 26  2  0
M  CHG  1   1   1
M  END
