
     RDKit          3D

 12 12  0  0  0  0  0  0  0  0999 V2000
    3.9500   -1.3590   -1.4100 C   0  0  0  0  0  0  0  0  0  0  0  0
    2.9480   -1.2510   -2.0920 C   0  0  0  0  0  0  0  0  0  0  0  0
    1.7590   -1.1350   -2.9000 C   0  0  0  0  0  0  0  0  0  0  0  0
    0.8070   -0.2810   -2.3000 O   0  0  0  0  0  0  0  0  0  0  0  0
    0.5070   -0.8610   -1.0780 C   0  0  0  0  0  0  0  0  0  0  0  0
   -0.4990   -0.0950   -0.2740 C   0  0  1  0  0  0  0  0  0  0  0  0
   -1.6930    0.0020   -0.9960 O   0  0  0  0  0  0  0  0  0  0  0  0
   -0.8000   -0.8420    0.9860 C   0  0  0  0  0  0  0  0  0  0  0  0
   -1.3430   -0.0570    2.1100 C   0  0  0  0  0  0  0  0  0  0  0  0
   -1.7020    1.3570    1.8950 C   0  0  0  0  0  0  0  0  0  0  0  0
   -1.2900    1.9960    0.6240 C   0  0  0  0  0  0  0  0  0  0  0  0
   -0.0610    1.3170    0.0490 C   0  0  0  0  0  0  0  0  0  0  0  0
  1  2  3  0
  2  3  1  0
  3  4  1  0
  4  5  1  0
  5  6  1  0
  6  7  1  6
  6  8  1  0
  6 12  1  0
  8  9  1  0
  9 10  1  0
 10 11  1  0
 11 12  1  0
M  END
