
     RDKit          3D

 17 18  0  0  0  0  0  0  0  0999 V2000
    5.1260   -0.4690   -0.5520 C   0  0  0  0  0  0  0  0  0  0  0  0
    4.3940    0.6510    0.1480 C   0  0  0  0  0  0  0  0  0  0  0  0
    2.9110    0.4480    0.0970 C   0  0  0  0  0  0  0  0  0  0  0  0
    2.3330   -0.6040   -0.5050 N   0  0  0  0  0  0  0  0  0  0  0  0
    0.9920   -0.7880   -0.5490 C   0  0  0  0  0  0  0  0  0  0  0  0
    0.3520   -1.8770   -1.1650 N   0  0  0  0  0  0  0  0  0  0  0  0
    0.1580    0.1350    0.0450 C   0  0  0  0  0  0  0  0  0  0  0  0
   -1.2670    0.0680    0.0490 C   0  0  0  0  0  0  0  0  0  0  0  0
   -2.0240   -0.8610    0.7230 C   0  0  0  0  0  0  0  0  0  0  0  0
   -3.3890   -0.8240    0.6880 C   0  0  0  0  0  0  0  0  0  0  0  0
   -4.0710    0.1510   -0.0300 C   0  0  0  0  0  0  0  0  0  0  0  0
   -5.4870    0.2230   -0.0890 N   0  0  0  0  0  0  0  0  0  0  0  0
   -3.3200    1.0940   -0.7150 C   0  0  0  0  0  0  0  0  0  0  0  0
   -1.9500    1.0600   -0.6820 C   0  0  0  0  0  0  0  0  0  0  0  0
    0.7570    1.2230    0.6680 C   0  0  0  0  0  0  0  0  0  0  0  0
   -0.2010    2.4680    1.4590 Cl  0  0  0  0  0  0  0  0  0  0  0  0
    2.1030    1.3480    0.6770 N   0  0  0  0  0  0  0  0  0  0  0  0
  1  2  1  0
  2  3  1  0
  3  4  2  0
  3 17  1  0
  4  5  1  0
  5  6  1  0
  5  7  2  0
  7  8  1  0
  7 15  1  0
  8  9  2  0
  8 14  1  0
  9 10  1  0
 10 11  2  0
 11 12  1  0
 11 13  1  0
 13 14  2  0
 15 16  1  0
 15 17  2  0
M  END
