
     RDKit          3D

 17 18  0  0  0  0  0  0  0  0999 V2000
   -2.9640    0.4700   -1.6430 C   0  0  0  0  0  0  0  0  0  0  0  0
   -3.3680    0.1310   -0.2530 C   0  0  0  0  0  0  0  0  0  0  0  0
   -4.5530    0.4090    0.2370 C   0  0  0  0  0  0  0  0  0  0  0  0
   -4.5970   -0.0700    1.6350 C   0  0  0  0  0  0  0  0  0  0  0  0
   -3.2510   -0.6540    1.8330 C   0  0  0  0  0  0  0  0  0  0  0  0
   -2.7720   -1.3800    3.3670 Cl  0  0  0  0  0  0  0  0  0  0  0  0
   -2.5400   -0.5370    0.7410 C   0  0  0  0  0  0  0  0  0  0  0  0
   -1.1420   -1.0130    0.5770 C   0  0  0  0  0  0  0  0  0  0  0  0
   -0.2640    0.0860    0.2520 N   0  0  0  0  0  0  0  0  0  0  0  0
    1.1320   -0.1200    0.0460 C   0  0  0  0  0  0  0  0  0  0  0  0
    1.6950   -1.3300    0.1410 N   0  0  0  0  0  0  0  0  0  0  0  0
    3.0200   -1.5480   -0.0520 C   0  0  0  0  0  0  0  0  0  0  0  0
    3.8450   -0.4860   -0.3610 C   0  0  0  0  0  0  0  0  0  0  0  0
    5.2440   -0.6320   -0.5780 N   0  0  0  0  0  0  0  0  0  0  0  0
    3.2560    0.7580   -0.4580 C   0  0  0  0  0  0  0  0  0  0  0  0
    4.1100    1.9230   -0.7890 C   0  0  0  0  0  0  0  0  0  0  0  0
    1.9280    0.9190   -0.2560 N   0  0  0  0  0  0  0  0  0  0  0  0
  1  2  1  0
  2  3  2  0
  2  7  1  0
  3  4  1  0
  4  5  1  0
  5  6  1  0
  5  7  2  0
  7  8  1  0
  8  9  1  0
  9 10  1  0
 10 11  2  0
 10 17  1  0
 11 12  1  0
 12 13  2  0
 13 14  1  0
 13 15  1  0
 15 16  1  0
 15 17  2  0
M  END
