
     RDKit          3D

 17 18  0  0  0  0  0  0  0  0999 V2000
   -4.3160    0.9990    0.6770 C   0  0  0  0  0  0  0  0  0  0  0  0
   -2.8720    0.6360    0.4790 C   0  0  0  0  0  0  0  0  0  0  0  0
   -1.9910    0.7580    1.5190 C   0  0  0  0  0  0  0  0  0  0  0  0
   -0.6430    0.4250    1.3620 C   0  0  0  0  0  0  0  0  0  0  0  0
    0.2680    0.5530    2.4600 N   0  0  0  0  0  0  0  0  0  0  0  0
   -0.1630   -0.0310    0.1620 C   0  0  0  0  0  0  0  0  0  0  0  0
    1.2300   -0.3660   -0.0330 C   0  0  0  0  0  0  0  0  0  0  0  0
    1.6620   -1.6390    0.2320 C   0  0  0  0  0  0  0  0  0  0  0  0
    3.0070   -1.9690    0.0370 C   0  0  0  0  0  0  0  0  0  0  0  0
    3.8260   -1.0140   -0.4060 N   0  0  0  0  0  0  0  0  0  0  0  0
    3.4160    0.2410   -0.6710 C   0  0  0  0  0  0  0  0  0  0  0  0
    4.3520    1.2060   -1.1450 N   0  0  0  0  0  0  0  0  0  0  0  0
    2.1170    0.5400   -0.4770 N   0  0  0  0  0  0  0  0  0  0  0  0
   -1.0710   -0.1450   -0.8710 C   0  0  0  0  0  0  0  0  0  0  0  0
   -0.6080   -0.6500   -2.1950 C   0  0  0  0  0  0  0  0  0  0  0  0
   -0.4550   -2.4370   -2.0540 Cl  0  0  0  0  0  0  0  0  0  0  0  0
   -2.3970    0.1780   -0.7260 C   0  0  0  0  0  0  0  0  0  0  0  0
  1  2  1  0
  2  3  2  0
  2 17  1  0
  3  4  1  0
  4  5  1  0
  4  6  2  0
  6  7  1  0
  6 14  1  0
  7  8  2  0
  7 13  1  0
  8  9  1  0
  9 10  2  0
 10 11  1  0
 11 12  1  0
 11 13  2  0
 14 15  1  0
 14 17  2  0
 15 16  1  0
M  END
