
     RDKit          3D

 17 18  0  0  0  0  0  0  0  0999 V2000
    4.2690   -0.3420   -1.6910 C   0  0  0  0  0  0  0  0  0  0  0  0
    2.8120   -0.6560   -1.6360 C   0  0  0  0  0  0  0  0  0  0  0  0
    2.2140   -0.1610   -0.3450 C   0  0  0  0  0  0  0  0  0  0  0  0
    2.9560    0.4560    0.5540 C   0  0  0  0  0  0  0  0  0  0  0  0
    2.4420    0.9730    1.8460 C   0  0  0  0  0  0  0  0  0  0  0  0
    1.0540    0.7230    2.0370 N   0  0  0  0  0  0  0  0  0  0  0  0
    0.2930    0.0430    1.0120 C   0  0  0  0  0  0  0  0  0  0  0  0
   -1.0940   -0.2060    1.1960 N   0  0  0  0  0  0  0  0  0  0  0  0
   -2.0330   -0.0680    0.1510 C   0  0  0  0  0  0  0  0  0  0  0  0
   -1.7700    0.3710   -1.1190 C   0  0  0  0  0  0  0  0  0  0  0  0
   -2.7690    0.4870   -2.0940 C   0  0  0  0  0  0  0  0  0  0  0  0
   -4.0760    0.1590   -1.8070 C   0  0  0  0  0  0  0  0  0  0  0  0
   -5.3400    0.3010   -3.0250 Cl  0  0  0  0  0  0  0  0  0  0  0  0
   -4.3510   -0.2840   -0.5320 C   0  0  0  0  0  0  0  0  0  0  0  0
   -3.3590   -0.3950    0.4220 C   0  0  0  0  0  0  0  0  0  0  0  0
   -3.6760   -0.8560    1.7280 N   0  0  0  0  0  0  0  0  0  0  0  0
    0.8360   -0.3550   -0.0690 N   0  0  0  0  0  0  0  0  0  0  0  0
  1  2  1  0
  2  3  1  0
  3  4  2  0
  3 17  1  0
  4  5  1  0
  5  6  1  0
  6  7  1  0
  7  8  1  0
  7 17  2  0
  8  9  1  0
  9 10  2  0
  9 15  1  0
 10 11  1  0
 11 12  2  0
 12 13  1  0
 12 14  1  0
 14 15  2  0
 15 16  1  0
M  END
