
     RDKit          3D

 12 12  0  0  0  0  0  0  0  0999 V2000
   -2.3450    1.2920    0.7190 C   0  0  0  0  0  0  0  0  0  0  0  0
   -2.5270   -0.0840    0.1350 C   0  0  2  0  0  0  0  0  0  0  0  0
   -3.8530   -0.1740   -0.5830 C   0  0  0  0  0  0  0  0  0  0  0  0
   -2.3990   -1.0420    1.1230 O   0  0  0  0  0  0  0  0  0  0  0  0
   -1.4460   -0.3130   -0.9030 C   0  0  0  0  0  0  0  0  0  0  0  0
   -0.1190   -0.1950   -0.1900 C   0  0  0  0  0  0  0  0  0  0  0  0
    0.9690   -0.3970   -1.0940 O   0  0  0  0  0  0  0  0  0  0  0  0
    2.2340   -0.3100   -0.5420 C   0  0  0  0  0  0  0  0  0  0  0  0
    2.7260    0.7430    0.0860 C   0  0  0  0  0  0  0  0  0  0  0  0
    4.1330    0.4490    0.5410 C   0  0  0  0  0  0  0  0  0  0  0  0
    4.3400   -0.9330    0.0650 C   0  0  0  0  0  0  0  0  0  0  0  0
    3.2530   -1.3510   -0.5480 C   0  0  0  0  0  0  0  0  0  0  0  0
  2  1  1  1
  2  3  1  0
  2  4  1  0
  2  5  1  0
  5  6  1  0
  6  7  1  0
  7  8  1  0
  8  9  2  0
  8 12  1  0
  9 10  1  0
 10 11  1  0
 11 12  2  0
M  END
