
     RDKit          3D

 10 10  0  0  0  0  0  0  0  0999 V2000
   -2.9520   -0.5850   -0.1570 N   0  0  0  0  0  0  0  0  0  0  0  0
   -1.5150   -0.7810   -0.1270 C   0  0  0  0  0  0  0  0  0  0  0  0
   -0.8230    0.5520   -0.1130 C   0  0  2  0  0  0  0  0  0  0  0  0
   -1.1430    1.2970   -1.2470 O   0  0  0  0  0  0  0  0  0  0  0  0
    0.6490    0.4800   -0.0220 C   0  0  1  0  0  0  0  0  0  0  0  0
    1.1610    1.7670    0.0810 O   0  0  0  0  0  0  0  0  0  0  0  0
    1.1820   -0.3130    1.1420 C   0  0  0  0  0  0  0  0  0  0  0  0
    2.6240   -0.3790    0.6780 C   0  0  0  0  0  0  0  0  0  0  0  0
    2.6310   -0.4150   -0.6850 O   0  0  0  0  0  0  0  0  0  0  0  0
    1.3330   -0.2180   -1.1450 C   0  0  0  0  0  0  0  0  0  0  0  0
  1  2  1  0
  2  3  1  0
  3  4  1  6
  3  5  1  0
  5  6  1  1
  5  7  1  0
  5 10  1  0
  7  8  1  0
  8  9  1  0
  9 10  1  0
M  CHG  1   1   1
M  END
