
     RDKit          3D

 10 10  0  0  0  0  0  0  0  0999 V2000
    2.7060    0.6830   -0.1140 N   0  0  0  0  0  0  0  0  0  0  0  0
    2.3230   -0.7100   -0.2550 C   0  0  0  0  0  0  0  0  0  0  0  0
    0.8660   -0.8480    0.1000 C   0  0  2  0  0  0  0  0  0  0  0  0
   -0.0320    0.0250   -0.7170 C   0  0  0  0  0  0  0  0  0  0  0  0
   -1.1320    0.3700    0.2620 C   0  0  1  0  0  0  0  0  0  0  0  0
   -1.0920    1.6850    0.6550 O   0  0  0  0  0  0  0  0  0  0  0  0
   -2.4940   -0.0430   -0.2330 C   0  0  0  0  0  0  0  0  0  0  0  0
   -2.9040    0.7110   -1.3320 O   0  0  0  0  0  0  0  0  0  0  0  0
   -0.7800   -0.5160    1.4380 C   0  0  0  0  0  0  0  0  0  0  0  0
    0.6240   -0.4410    1.4110 O   0  0  0  0  0  0  0  0  0  0  0  0
  1  2  1  0
  3  2  1  6
  3  4  1  0
  3 10  1  0
  4  5  1  0
  5  6  1  1
  5  7  1  0
  5  9  1  0
  7  8  1  0
  9 10  1  0
M  CHG  1   1   1
M  END
