
     RDKit          3D

 10 10  0  0  0  0  0  0  0  0999 V2000
   -1.7350   -1.2700    0.0070 N   0  0  0  0  0  0  0  0  0  0  0  0
   -1.2080    0.0440   -0.2240 C   0  0  1  0  0  0  0  0  0  0  0  0
   -1.8850    0.9930    0.7380 C   0  0  0  0  0  0  0  0  0  0  0  0
   -3.2610    0.9680    0.5010 O   0  0  0  0  0  0  0  0  0  0  0  0
    0.2850    0.1260   -0.0060 C   0  0  1  0  0  0  0  0  0  0  0  0
    0.6710   -0.2460    1.3990 C   0  0  0  0  0  0  0  0  0  0  0  0
    2.0450   -0.3560    1.4750 O   0  0  0  0  0  0  0  0  0  0  0  0
    2.7100    0.2030    0.4040 C   0  0  0  0  0  0  0  0  0  0  0  0
    2.3120   -0.4930   -0.8660 C   0  0  0  0  0  0  0  0  0  0  0  0
    0.9510   -0.7420   -0.8680 O   0  0  0  0  0  0  0  0  0  0  0  0
  2  1  1  1
  2  3  1  0
  2  5  1  0
  3  4  1  0
  5  6  1  1
  5 10  1  0
  6  7  1  0
  7  8  1  0
  8  9  1  0
  9 10  1  0
M  CHG  1   1   1
M  END
