
     RDKit          3D

 10 10  0  0  0  0  0  0  0  0999 V2000
    2.7380   -0.0840   -0.0930 N   0  0  0  0  0  0  0  0  0  0  0  0
    1.4460   -0.6970   -0.2180 C   0  0  1  0  0  0  0  0  0  0  0  0
    0.8390   -0.8020    1.1820 C   0  0  0  0  0  0  0  0  0  0  0  0
   -0.5440   -0.8710    1.1300 O   0  0  0  0  0  0  0  0  0  0  0  0
   -1.1360    0.3060    0.6940 C   0  0  2  0  0  0  0  0  0  0  0  0
   -2.3740   -0.1140   -0.1060 C   0  0  0  0  0  0  0  0  0  0  0  0
   -3.1850   -0.8270    0.7770 O   0  0  0  0  0  0  0  0  0  0  0  0
   -0.2540    1.0660   -0.2670 C   0  0  2  0  0  0  0  0  0  0  0  0
   -1.0870    1.7640   -1.1670 O   0  0  0  0  0  0  0  0  0  0  0  0
    0.5500    0.1000   -1.0990 C   0  0  0  0  0  0  0  0  0  0  0  0
  2  1  1  1
  2  3  1  0
  2 10  1  0
  3  4  1  0
  4  5  1  0
  5  6  1  6
  5  8  1  0
  6  7  1  0
  8  9  1  6
  8 10  1  0
M  CHG  1   1   1
M  END
