
     RDKit          3D

 10 10  0  0  0  0  0  0  0  0999 V2000
    2.2670    0.7180   -0.2140 N   0  0  0  0  0  0  0  0  0  0  0  0
    1.6380   -0.3110   -0.9820 C   0  0  0  0  0  0  0  0  0  0  0  0
    0.6920   -1.1970   -0.2730 C   0  0  0  0  0  0  0  0  0  0  0  0
   -0.5030   -0.6510    0.3650 C   0  0  1  0  0  0  0  0  0  0  0  0
   -1.1930   -1.7490    0.9550 O   0  0  0  0  0  0  0  0  0  0  0  0
   -0.3380    0.3590    1.4580 C   0  0  0  0  0  0  0  0  0  0  0  0
   -1.7120    0.6680    1.6950 O   0  0  0  0  0  0  0  0  0  0  0  0
   -2.1580    1.0270    0.4360 C   0  0  0  0  0  0  0  0  0  0  0  0
   -1.5020    0.0340   -0.5300 C   0  0  1  0  0  0  0  0  0  0  0  0
   -0.9090    0.7370   -1.5450 O   0  0  0  0  0  0  0  0  0  0  0  0
  1  2  1  0
  2  3  1  0
  3  4  1  0
  4  5  1  1
  4  6  1  0
  4  9  1  0
  6  7  1  0
  7  8  1  0
  8  9  1  0
  9 10  1  6
M  CHG  1   1   1
M  END
