
     RDKit          3D

 10 10  0  0  0  0  0  0  0  0999 V2000
   -2.9640   -0.1650    0.3870 N   0  0  0  0  0  0  0  0  0  0  0  0
   -1.7920    0.4170   -0.1840 C   0  0  1  0  0  0  0  0  0  0  0  0
   -0.9760    1.1530    0.8860 C   0  0  0  0  0  0  0  0  0  0  0  0
    0.2780    1.1990    0.2320 O   0  0  0  0  0  0  0  0  0  0  0  0
    0.4970   -0.1560    0.0250 C   0  0  2  0  0  0  0  0  0  0  0  0
    1.7230   -0.4330   -0.8020 C   0  0  0  0  0  0  0  0  0  0  0  0
    2.9790    0.0860   -0.1910 C   0  0  0  0  0  0  0  0  0  0  0  0
    2.9550    1.4630   -0.0040 O   0  0  0  0  0  0  0  0  0  0  0  0
   -0.7670   -0.6270   -0.6250 C   0  0  1  0  0  0  0  0  0  0  0  0
   -1.1370   -1.8740   -0.0830 O   0  0  0  0  0  0  0  0  0  0  0  0
  2  1  1  1
  2  3  1  0
  2  9  1  0
  3  4  1  0
  4  5  1  0
  5  6  1  6
  5  9  1  0
  6  7  1  0
  7  8  1  0
  9 10  1  1
M  CHG  1   1   1
M  END
