
     RDKit          3D

 10 10  0  0  0  0  0  0  0  0999 V2000
   -2.2760   -1.2710   -0.4970 O   0  0  0  0  0  0  0  0  0  0  0  0
   -1.3160   -1.1970    0.4970 C   0  0  0  0  0  0  0  0  0  0  0  0
   -0.3890   -0.0230    0.1800 C   0  0  2  0  0  0  0  0  0  0  0  0
   -1.2760    1.2030    0.1070 C   0  0  0  0  0  0  0  0  0  0  0  0
   -2.2540    1.0320   -0.8690 O   0  0  0  0  0  0  0  0  0  0  0  0
    0.3350   -0.2590   -1.1290 C   0  0  0  0  0  0  0  0  0  0  0  0
    1.8140   -0.0990   -0.7630 C   0  0  2  0  0  0  0  0  0  0  0  0
    2.3220   -1.3010   -0.3040 O   0  0  0  0  0  0  0  0  0  0  0  0
    1.6830    0.8220    0.4420 C   0  0  0  0  0  0  0  0  0  0  0  0
    0.6330    0.1100    1.1730 N   0  0  0  0  0  0  0  0  0  0  0  0
  1  2  1  0
  3  2  1  1
  3  4  1  0
  3  6  1  0
  3 10  1  0
  4  5  1  0
  6  7  1  0
  7  8  1  1
  7  9  1  0
  9 10  1  0
M  CHG  1  10   1
M  END
