
     RDKit          3D

 11 11  0  0  0  0  0  0  0  0999 V2000
    1.3350   -0.3230   -1.5060 N   0  0  0  0  0  0  0  0  0  0  0  0
    0.8800   -0.5180   -0.1410 C   0  0  1  0  0  0  0  0  0  0  0  0
    1.8570    0.1620    0.7830 C   0  0  0  0  0  0  0  0  0  0  0  0
    1.9440    1.5270    0.5190 O   0  0  0  0  0  0  0  0  0  0  0  0
   -0.5420   -0.1690    0.0770 C   0  0  2  0  0  0  0  0  0  0  0  0
   -0.9080    1.2560   -0.2180 C   0  0  0  0  0  0  0  0  0  0  0  0
   -2.2830    1.3860    0.0470 O   0  0  0  0  0  0  0  0  0  0  0  0
   -1.0150   -0.6490    1.4110 C   0  0  0  0  0  0  0  0  0  0  0  0
   -1.2510   -1.9880    1.1800 O   0  0  0  0  0  0  0  0  0  0  0  0
   -1.5690   -2.1910   -0.0320 O   0  0  0  0  0  0  0  0  0  0  0  0
   -1.3610   -1.1080   -0.8230 C   0  0  0  0  0  0  0  0  0  0  0  0
  2  1  1  6
  2  3  1  0
  2  5  1  0
  3  4  1  0
  5  6  1  6
  5  8  1  0
  5 11  1  0
  6  7  1  0
  8  9  1  0
  9 10  1  0
 10 11  1  0
M  CHG  1   1   1
M  END
