
     RDKit          3D

 11 11  0  0  0  0  0  0  0  0999 V2000
    2.3310   -0.0380   -0.1720 N   0  0  0  0  0  0  0  0  0  0  0  0
    1.0120   -0.4300   -0.6450 C   0  0  1  0  0  0  0  0  0  0  0  0
    0.8970   -1.7850   -0.3560 O   0  0  0  0  0  0  0  0  0  0  0  0
   -0.0810    0.3490    0.0460 C   0  0  2  0  0  0  0  0  0  0  0  0
   -0.0040    1.8270   -0.3160 C   0  0  0  0  0  0  0  0  0  0  0  0
    1.1630    2.4000    0.1610 O   0  0  0  0  0  0  0  0  0  0  0  0
   -0.0560    0.1420    1.3910 O   0  0  0  0  0  0  0  0  0  0  0  0
   -0.8650   -0.8970    1.7340 C   0  0  0  0  0  0  0  0  0  0  0  0
   -1.6790   -1.2860    0.5250 C   0  0  0  0  0  0  0  0  0  0  0  0
   -1.4420   -0.1130   -0.3840 C   0  0  2  0  0  0  0  0  0  0  0  0
   -1.5050   -0.4440   -1.7260 O   0  0  0  0  0  0  0  0  0  0  0  0
  2  1  1  1
  2  3  1  0
  2  4  1  0
  4  5  1  1
  4  7  1  0
  4 10  1  0
  5  6  1  0
  7  8  1  0
  8  9  1  0
  9 10  1  0
 10 11  1  6
M  CHG  1   1   1
M  END
