
     RDKit          3D

 12 12  0  0  0  0  0  0  0  0999 V2000
   -0.3680   -2.0980   -0.4470 N   0  0  0  0  0  0  0  0  0  0  0  0
   -0.2030   -1.1640    0.6260 C   0  0  1  0  0  0  0  0  0  0  0  0
    1.2470   -0.7280    0.6750 C   0  0  0  0  0  0  0  0  0  0  0  0
    1.4520    0.3200   -0.3780 C   0  0  2  0  0  0  0  0  0  0  0  0
    2.8980    0.8310   -0.3380 C   0  0  0  0  0  0  0  0  0  0  0  0
    3.1240    1.4290    0.8910 O   0  0  0  0  0  0  0  0  0  0  0  0
    0.6380    1.4090   -0.2020 O   0  0  0  0  0  0  0  0  0  0  0  0
   -0.2820    1.2630    0.8320 C   0  0  0  0  0  0  0  0  0  0  0  0
   -1.1180    0.0290    0.5320 C   0  0  1  0  0  0  0  0  0  0  0  0
   -1.7050    0.1810   -0.6920 O   0  0  0  0  0  0  0  0  0  0  0  0
   -3.0790    0.1680   -0.5720 C   0  0  0  0  0  0  0  0  0  0  0  0
   -3.5250    1.2140    0.2620 O   0  0  0  0  0  0  0  0  0  0  0  0
  2  1  1  6
  2  3  1  0
  2  9  1  0
  3  4  1  0
  4  5  1  1
  4  7  1  0
  5  6  1  0
  7  8  1  0
  8  9  1  0
  9 10  1  6
 10 11  1  0
 11 12  1  0
M  CHG  1   1   1
M  END
