
     RDKit          3D

 11 11  0  0  0  0  0  0  0  0999 V2000
   -1.7510   -0.4150   -1.2800 C   0  0  0  0  0  0  0  0  0  0  0  0
   -0.8000   -0.3690   -0.0800 C   0  0  2  0  0  0  0  0  0  0  0  0
   -1.1770   -1.4790    0.8380 C   0  0  0  0  0  0  0  0  0  0  0  0
   -1.0920    0.9080    0.5870 N   0  0  0  0  0  0  0  0  0  0  0  0
   -0.2670    1.8660   -0.1200 C   0  0  1  0  0  0  0  0  0  0  0  0
   -0.1880    3.0550    0.5690 O   0  0  0  0  0  0  0  0  0  0  0  0
    1.0580    1.1460   -0.1870 C   0  0  0  0  0  0  0  0  0  0  0  0
    0.5980   -0.2850   -0.4990 C   0  0  2  0  0  0  0  0  0  0  0  0
    0.7020   -0.4200   -1.8830 O   0  0  0  0  0  0  0  0  0  0  0  0
    1.5650   -1.2070    0.1630 C   0  0  0  0  0  0  0  0  0  0  0  0
    2.8750   -0.9160   -0.2170 O   0  0  0  0  0  0  0  0  0  0  0  0
  2  1  1  6
  2  3  1  0
  2  4  1  0
  2  8  1  0
  4  5  1  0
  5  6  1  1
  5  7  1  0
  7  8  1  0
  8  9  1  6
  8 10  1  0
 10 11  1  0
M  CHG  1   4   1
M  END
