
     RDKit          3D

 22 22  0  0  0  0  0  0  0  0999 V2000
    6.0530   -1.5390   -1.7420 C   0  0  0  0  0  0  0  0  0  0  0  0
    6.3210   -0.2030   -1.1900 C   0  0  0  0  0  0  0  0  0  0  0  0
    5.4870    0.4210   -0.3630 C   0  0  0  0  0  0  0  0  0  0  0  0
    5.8000    1.7570    0.1620 C   0  0  0  0  0  0  0  0  0  0  0  0
    7.0290    2.1690   -0.3480 O   0  0  0  0  0  0  0  0  0  0  0  0
    4.2830   -0.2750   -0.0180 N   0  0  0  0  0  0  0  0  0  0  0  0
    3.0060    0.2780   -0.3160 C   0  0  0  0  0  0  0  0  0  0  0  0
    2.9660    1.3870   -0.8880 O   0  0  0  0  0  0  0  0  0  0  0  0
    1.8000   -0.4040    0.0220 N   0  0  0  0  0  0  0  0  0  0  0  0
    0.5290    0.1780   -0.2910 C   0  0  0  0  0  0  0  0  0  0  0  0
   -0.6570   -0.6510    0.1320 C   0  0  1  0  0  0  0  0  0  0  0  0
   -0.6000   -0.8250    1.6330 C   0  0  0  0  0  0  0  0  0  0  0  0
   -1.5880   -1.8030    2.1750 C   0  0  0  0  0  0  0  0  0  0  0  0
   -2.8560   -1.1470    2.5820 C   0  0  0  0  0  0  0  0  0  0  0  0
   -3.4530   -0.1960    1.5760 C   0  0  0  0  0  0  0  0  0  0  0  0
   -3.1560   -0.5480    0.1730 C   0  0  1  0  0  0  0  0  0  0  0  0
   -4.2250   -0.4880   -0.8190 C   0  0  2  0  0  0  0  0  0  0  0  0
   -3.7000   -0.8530   -2.0860 O   0  0  0  0  0  0  0  0  0  0  0  0
   -5.0460    0.7120   -1.0090 C   0  0  0  0  0  0  0  0  0  0  0  0
   -4.3200    1.9730   -1.4120 C   0  0  0  0  0  0  0  0  0  0  0  0
   -5.2330    3.0240   -1.5710 O   0  0  0  0  0  0  0  0  0  0  0  0
   -1.8970    0.1380   -0.2750 C   0  0  0  0  0  0  0  0  0  0  0  0
  1  2  1  0
  2  3  2  3
  3  4  1  0
  3  6  1  0
  4  5  1  0
  6  7  1  0
  7  8  2  0
  7  9  1  0
  9 10  1  0
 11 10  1  1
 11 12  1  0
 11 22  1  0
 12 13  1  0
 13 14  1  0
 14 15  1  0
 16 15  1  1
 16 17  1  0
 16 22  1  0
 17 18  1  6
 17 19  1  0
 19 20  1  0
 20 21  1  0
M  END
