
     RDKit          3D

 12 13  0  0  0  0  0  0  0  0999 V2000
   -1.3580   -1.0020    0.9710 O   0  0  0  0  0  0  0  0  0  0  0  0
   -0.8630   -0.0040    0.1330 C   0  0  1  0  0  0  0  0  0  0  0  0
    0.6250   -0.0210    0.0890 C   0  0  1  0  0  0  0  0  0  0  0  0
    1.2230   -1.3390   -0.2540 C   0  0  0  0  0  0  0  0  0  0  0  0
    2.2540   -1.2590   -1.1820 O   0  0  0  0  0  0  0  0  0  0  0  0
    3.1600   -0.2610   -0.9260 C   0  0  0  0  0  0  0  0  0  0  0  0
    2.5320    1.0160   -0.4210 C   0  0  0  0  0  0  0  0  0  0  0  0
    1.1680    0.9580   -0.7350 O   0  0  0  0  0  0  0  0  0  0  0  0
   -1.5270   -0.1620   -1.2010 C   0  0  0  0  0  0  0  0  0  0  0  0
   -2.9080    0.1700   -0.8120 N   0  0  0  0  0  0  0  0  0  0  0  0
   -2.7040    1.2340    0.1150 C   0  0  0  0  0  0  0  0  0  0  0  0
   -1.4010    1.1930    0.5660 O   0  0  0  0  0  0  0  0  0  0  0  0
  2  1  1  1
  2  3  1  0
  2  9  1  0
  2 12  1  0
  3  4  1  6
  3  8  1  0
  4  5  1  0
  5  6  1  0
  6  7  1  0
  7  8  1  0
  9 10  1  0
 10 11  1  0
 11 12  1  0
M  CHG  1  10   1
M  END
