
     RDKit          3D

 12 13  0  0  0  0  0  0  0  0999 V2000
    1.9000   -2.0060    0.3770 O   0  0  0  0  0  0  0  0  0  0  0  0
    1.2840   -0.9060   -0.2050 C   0  0  1  0  0  0  0  0  0  0  0  0
   -0.0800   -1.2980   -0.7120 C   0  0  1  0  0  0  0  0  0  0  0  0
   -1.0000   -1.4100    0.4790 C   0  0  0  0  0  0  0  0  0  0  0  0
   -1.7910   -0.1290    0.4590 C   0  0  0  0  0  0  0  0  0  0  0  0
   -1.0010    0.7370   -0.4660 C   0  0  2  0  0  0  0  0  0  0  0  0
   -1.7580    1.7900   -0.9640 O   0  0  0  0  0  0  0  0  0  0  0  0
   -0.6260   -0.2040   -1.5180 N   0  0  0  0  0  0  0  0  0  0  0  0
    0.2510    1.2880    0.1180 C   0  0  1  0  0  0  0  0  0  0  0  0
    0.0440    2.3440    0.9950 O   0  0  0  0  0  0  0  0  0  0  0  0
    1.1300    0.2500    0.7620 C   0  0  2  0  0  0  0  0  0  0  0  0
    2.4120    0.8370    0.8790 O   0  0  0  0  0  0  0  0  0  0  0  0
  2  1  1  1
  2  3  1  0
  2 11  1  0
  3  4  1  1
  3  8  1  0
  4  5  1  0
  5  6  1  0
  6  7  1  6
  6  8  1  0
  6  9  1  0
  9 10  1  1
  9 11  1  0
 11 12  1  6
M  CHG  1   8   1
M  END
