
     RDKit          3D

 12 12  0  0  0  0  0  0  0  0999 V2000
    3.3900    0.9750    0.1300 C   0  0  0  0  0  0  0  0  0  0  0  0
    2.0370    0.9060    0.5330 O   0  0  0  0  0  0  0  0  0  0  0  0
    1.5360   -0.2720    0.0170 C   0  0  0  0  0  0  0  0  0  0  0  0
    0.0940   -0.5040    0.3550 C   0  0  2  0  0  0  0  0  0  0  0  0
   -0.0750   -0.5600    1.7530 O   0  0  0  0  0  0  0  0  0  0  0  0
   -0.3260   -1.8220   -0.2680 C   0  0  0  0  0  0  0  0  0  0  0  0
   -1.4890   -1.5680   -1.0640 N   0  0  0  0  0  0  0  0  0  0  0  0
   -2.0770   -0.3530   -0.5210 C   0  0  0  0  0  0  0  0  0  0  0  0
   -0.8390    0.4860   -0.2660 C   0  0  2  0  0  0  0  0  0  0  0  0
   -0.3160    0.9530   -1.4530 O   0  0  0  0  0  0  0  0  0  0  0  0
   -1.1390    1.6450    0.6640 C   0  0  0  0  0  0  0  0  0  0  0  0
   -1.6650    1.2070    1.8610 O   0  0  0  0  0  0  0  0  0  0  0  0
  1  2  1  0
  2  3  1  0
  3  4  1  0
  4  5  1  1
  4  6  1  0
  4  9  1  0
  6  7  1  0
  7  8  1  0
  8  9  1  0
  9 10  1  6
  9 11  1  0
 11 12  1  0
M  CHG  1   7   1
M  END
