
     RDKit          3D

 12 12  0  0  0  0  0  0  0  0999 V2000
   -3.3780   -0.7180    0.2530 N   0  0  0  0  0  0  0  0  0  0  0  0
   -2.8200    0.0000   -0.8460 C   0  0  0  0  0  0  0  0  0  0  0  0
   -1.3270   -0.1000   -0.9630 C   0  0  0  0  0  0  0  0  0  0  0  0
   -0.6080    0.4310    0.2570 C   0  0  2  0  0  0  0  0  0  0  0  0
   -0.9590    1.7710    0.4030 O   0  0  0  0  0  0  0  0  0  0  0  0
    0.8570    0.3170   -0.0200 C   0  0  2  0  0  0  0  0  0  0  0  0
    1.2370    0.9810   -1.1830 O   0  0  0  0  0  0  0  0  0  0  0  0
    1.3780   -1.0750   -0.0590 C   0  0  0  0  0  0  0  0  0  0  0  0
    2.5790   -1.1100    0.6370 O   0  0  0  0  0  0  0  0  0  0  0  0
    3.0200    0.2230    0.6900 C   0  0  2  0  0  0  0  0  0  0  0  0
    4.0280    0.4270    1.5700 O   0  0  0  0  0  0  0  0  0  0  0  0
    1.7110    0.9120    1.1030 C   0  0  0  0  0  0  0  0  0  0  0  0
  1  2  1  0
  2  3  1  0
  3  4  1  0
  4  5  1  6
  4  6  1  0
  6  7  1  6
  6  8  1  0
  6 12  1  0
  8  9  1  0
  9 10  1  0
 10 11  1  1
 10 12  1  0
M  CHG  1   1   1
M  END
