
     RDKit          3D

 11 11  0  0  0  0  0  0  0  0999 V2000
    2.4900    2.1210    0.1010 O   0  0  0  0  0  0  0  0  0  0  0  0
    2.4680    0.7480   -0.0820 C   0  0  0  0  0  0  0  0  0  0  0  0
    1.2390    0.1510    0.4630 N   0  0  2  0  0  0  0  0  0  0  0  0
    1.4360   -1.2730    0.4450 C   0  0  0  0  0  0  0  0  0  0  0  0
    0.1330   -2.0070    0.1750 C   0  0  0  0  0  0  0  0  0  0  0  0
   -0.9570   -1.1900    0.8790 C   0  0  0  0  0  0  0  0  0  0  0  0
   -1.1720    0.0300    0.0120 C   0  0  1  0  0  0  0  0  0  0  0  0
   -1.8540   -0.3970   -1.1400 O   0  0  0  0  0  0  0  0  0  0  0  0
   -2.0720    1.0250    0.7010 C   0  0  0  0  0  0  0  0  0  0  0  0
   -2.3170    2.0850   -0.1520 O   0  0  0  0  0  0  0  0  0  0  0  0
    0.1590    0.6020   -0.3630 C   0  0  0  0  0  0  0  0  0  0  0  0
  1  2  1  0
  3  2  1  6
  3  4  1  0
  3 11  1  0
  4  5  1  0
  5  6  1  0
  6  7  1  0
  7  8  1  6
  7  9  1  0
  7 11  1  0
  9 10  1  0
M  CHG  1   3   1
M  END
