
     RDKit          3D

  9  9  0  0  0  0  0  0  0  0999 V2000
    3.4050   -0.7610    0.2920 O   0  0  0  0  0  0  0  0  0  0  0  0
    2.2000   -1.1620    0.8600 C   0  0  0  0  0  0  0  0  0  0  0  0
    1.3360    0.0160    1.0270 C   0  0  0  0  0  0  0  0  0  0  0  0
    0.1730    0.1470    0.4710 C   0  0  0  0  0  0  0  0  0  0  0  0
   -0.6910    1.2940    0.6220 C   0  0  0  0  0  0  0  0  0  0  0  0
   -1.8650    1.4680    0.0850 C   0  0  0  0  0  0  0  0  0  0  0  0
   -2.5080    0.4950   -0.7830 C   0  0  0  0  0  0  0  0  0  0  0  0
   -2.0080   -0.6700   -1.1400 C   0  0  0  0  0  0  0  0  0  0  0  0
   -0.4050   -1.1940   -0.5580 S   0  0  0  0  0  0  0  0  0  0  0  0
  1  2  1  0
  2  3  1  0
  3  4  2  3
  4  5  1  0
  4  9  1  0
  5  6  2  0
  6  7  1  0
  7  8  2  0
  8  9  1  0
M  END
