
     RDKit          3D

  9  9  0  0  0  0  0  0  0  0999 V2000
    2.3800    0.2650    0.7130 C   0  0  0  0  0  0  0  0  0  0  0  0
    1.6600   -0.6470   -0.2110 C   0  0  0  0  0  0  0  0  0  0  0  0
    0.3870   -0.5630   -0.4950 C   0  0  0  0  0  0  0  0  0  0  0  0
   -0.3680   -1.4400   -1.4020 C   0  0  0  0  0  0  0  0  0  0  0  0
   -1.3060   -0.1410   -2.3180 S   0  0  0  0  0  0  0  0  0  0  0  0
   -0.8430    1.2650   -1.2160 C   0  0  0  0  0  0  0  0  0  0  0  0
   -0.5460    0.4260    0.0390 C   0  0  1  0  0  0  0  0  0  0  0  0
   -1.8780   -0.1570    0.4560 C   0  0  0  0  0  0  0  0  0  0  0  0
   -0.0760    1.1940    1.0740 O   0  0  0  0  0  0  0  0  0  0  0  0
  1  2  1  0
  2  3  2  3
  3  4  1  0
  3  7  1  0
  4  5  1  0
  5  6  1  0
  6  7  1  0
  7  8  1  1
  7  9  1  0
M  END
