
     RDKit          3D

 20 22  0  0  0  0  0  0  0  0999 V2000
   -3.8040    2.0000    0.4970 C   0  0  0  0  0  0  0  0  0  0  0  0
   -4.0800    0.5420    0.4380 C   0  0  0  0  0  0  0  0  0  0  0  0
   -3.2640   -0.3280    1.3190 C   0  0  1  0  0  0  0  0  0  0  0  0
   -3.8700   -2.0460    0.9920 S   0  0  0  0  0  0  0  0  0  0  0  0
   -2.8930   -2.2920   -0.5490 C   0  0  0  0  0  0  0  0  0  0  0  0
   -1.9490   -1.1110   -0.5640 C   0  0  0  0  0  0  0  0  0  0  0  0
   -1.8360   -0.5620    0.8110 C   0  0  1  0  0  0  0  0  0  0  0  0
   -1.0400    0.5920    0.9260 N   0  0  0  0  0  0  0  0  0  0  0  0
    0.3160    0.6390    0.5590 C   0  0  0  0  0  0  0  0  0  0  0  0
    1.0790    1.7410    0.6640 N   0  0  0  0  0  0  0  0  0  0  0  0
    2.3710    1.7740    0.3160 C   0  0  0  0  0  0  0  0  0  0  0  0
    3.1180    2.9260    0.4410 O   0  0  0  0  0  0  0  0  0  0  0  0
    2.9590    0.6370   -0.1730 C   0  0  0  0  0  0  0  0  0  0  0  0
    2.1960   -0.5020   -0.2890 C   0  0  0  0  0  0  0  0  0  0  0  0
    0.9160   -0.4570    0.0780 N   0  0  0  0  0  0  0  0  0  0  0  0
    2.8290   -1.6340   -0.7890 O   0  0  0  0  0  0  0  0  0  0  0  0
    4.2340   -1.8000   -0.7170 C   0  0  0  0  0  0  0  0  0  0  0  0
    4.9650   -0.5980   -0.9580 N   0  0  0  0  0  0  0  0  0  0  0  0
    6.1210   -0.6750   -0.2220 O   0  0  0  0  0  0  0  0  0  0  0  0
    4.3160    0.5600   -0.5700 N   0  0  0  0  0  0  0  0  0  0  0  0
  1  2  1  0
  3  2  1  6
  3  4  1  0
  3  7  1  0
  4  5  1  0
  5  6  1  0
  6  7  1  0
  7  8  1  6
  8  9  1  0
  9 10  2  0
  9 15  1  0
 10 11  1  0
 11 12  1  0
 11 13  2  0
 13 14  1  0
 13 20  1  0
 14 15  2  0
 14 16  1  0
 16 17  1  0
 17 18  1  0
 18 19  1  0
 18 20  1  0
M  END
