
     RDKit          3D

 20 22  0  0  0  0  0  0  0  0999 V2000
   -3.0720   -1.4620   -1.4470 C   0  0  0  0  0  0  0  0  0  0  0  0
   -2.6310   -1.0330   -0.0800 C   0  0  2  0  0  0  0  0  0  0  0  0
   -3.6130   -0.1000    0.4970 C   0  0  0  0  0  0  0  0  0  0  0  0
   -3.9110    1.1670   -0.1970 C   0  0  1  0  0  0  0  0  0  0  0  0
   -2.9460    2.2510   -0.4920 C   0  0  0  0  0  0  0  0  0  0  0  0
   -3.5920    1.3820   -1.9280 S   0  0  0  0  0  0  0  0  0  0  0  0
   -4.5260    2.1620   -2.8060 O   0  0  0  0  0  0  0  0  0  0  0  0
   -1.2560   -0.6860   -0.0550 N   0  0  0  0  0  0  0  0  0  0  0  0
   -0.2760   -1.3320    0.7360 C   0  0  0  0  0  0  0  0  0  0  0  0
   -0.5760   -2.2710    1.4760 O   0  0  0  0  0  0  0  0  0  0  0  0
    1.1090   -0.8810    0.6730 C   0  0  0  0  0  0  0  0  0  0  0  0
    2.1870   -1.4100    1.3850 C   0  0  0  0  0  0  0  0  0  0  0  0
    3.2870   -0.6990    1.0310 N   0  0  0  0  0  0  0  0  0  0  0  0
    2.9700    0.2340    0.1500 C   0  0  0  0  0  0  0  0  0  0  0  0
    1.6320    0.1140   -0.0630 N   0  0  0  0  0  0  0  0  0  0  0  0
    3.8700    1.2120   -0.4830 C   0  0  0  0  0  0  0  0  0  0  0  0
    5.2040    1.0340   -0.0130 N   0  0  0  0  0  0  0  0  0  0  0  0
    5.6080    0.0570    0.9260 C   0  0  0  0  0  0  0  0  0  0  0  0
    6.8080   -0.0110    1.2690 O   0  0  0  0  0  0  0  0  0  0  0  0
    4.6180   -0.8210    1.4500 N   0  0  0  0  0  0  0  0  0  0  0  0
  2  1  1  6
  2  3  1  0
  2  8  1  0
  4  3  1  1
  4  5  1  0
  4  6  1  0
  6  5  1  1
  6  7  2  0
  8  9  1  0
  9 10  2  0
  9 11  1  0
 11 12  2  0
 11 15  1  0
 12 13  1  0
 13 14  1  0
 13 20  1  0
 14 15  2  0
 14 16  1  0
 16 17  1  0
 17 18  1  0
 18 19  2  0
 18 20  1  0
M  END
