
     RDKit          3D

 26 26  0  0  0  0  0  0  0  0999 V2000
   -0.9990   -0.0930    2.1250 C   0  0  0  0  0  0  0  0  0  0  0  0
   -1.4070   -0.6070    0.7520 C   0  0  2  0  0  0  0  0  0  0  0  0
   -0.1120   -0.9770    0.0380 C   0  0  2  0  0  0  0  0  0  0  0  0
    0.7060   -1.5530    1.0220 O   0  0  0  0  0  0  0  0  0  0  0  0
    1.8800   -2.5960    0.3560 S   0  0  0  0  0  0  0  0  0  0  0  0
    3.7300   -2.1850    1.3470 S   0  0  0  0  0  0  0  0  0  0  0  0
    4.6050   -0.9590    0.3510 C   0  0  1  0  0  0  0  0  0  0  0  0
    4.8490   -1.5710   -1.0130 C   0  0  0  0  0  0  0  0  0  0  0  0
    3.7180    0.2650    0.2550 C   0  0  0  0  0  0  0  0  0  0  0  0
    6.1630   -0.4390    1.1190 S   0  0  0  0  0  0  0  0  0  0  0  0
    6.8650    0.8550    0.0430 C   0  0  1  0  0  0  0  0  0  0  0  0
    5.8260    1.7390   -0.2630 O   0  0  0  0  0  0  0  0  0  0  0  0
    7.9400    1.4950    0.6340 O   0  0  0  0  0  0  0  0  0  0  0  0
    0.3870    0.3890   -0.3770 C   0  0  0  0  0  0  0  0  0  0  0  0
   -0.8230    1.2260   -0.6880 C   0  0  0  0  0  0  0  0  0  0  0  0
   -1.9950    0.5270   -0.0580 C   0  0  1  0  0  0  0  0  0  0  0  0
   -3.0740   -0.1630   -1.3460 S   0  0  0  0  0  0  0  0  0  0  0  0
   -4.8030   -0.0050   -0.8040 C   0  0  2  0  0  0  0  0  0  0  0  0
   -5.0090    1.4230   -0.3340 C   0  0  2  0  0  0  0  0  0  0  0  0
   -6.3610    1.7210   -0.4210 O   0  0  0  0  0  0  0  0  0  0  0  0
   -4.3290    2.2380   -1.2450 O   0  0  0  0  0  0  0  0  0  0  0  0
   -5.1600   -1.1140    0.5300 S   0  0  1  0  0  0  0  0  0  0  0  0
   -3.9770   -1.3630    1.4060 O   0  0  0  0  0  0  0  0  0  0  0  0
   -6.2530   -0.5180    1.3560 O   0  0  0  0  0  0  0  0  0  0  0  0
   -5.6560   -2.6170   -0.0620 O   0  0  0  0  0  0  0  0  0  0  0  0
   -6.8910   -2.8560    0.2870 O   0  0  0  0  0  0  0  0  0  0  0  0
  2  1  1  1
  2  3  1  0
  2 16  1  0
  3  4  1  1
  3 14  1  0
  4  5  1  0
  5  6  1  0
  6  7  1  0
  7  8  1  6
  7  9  1  0
  7 10  1  0
 10 11  1  0
 11 12  1  1
 11 13  1  0
 14 15  1  0
 15 16  1  0
 16 17  1  6
 18 17  1  1
 18 19  1  0
 18 22  1  0
 19 20  1  6
 19 21  1  0
 22 23  2  0
 22 24  2  0
 22 25  1  6
 25 26  1  0
M  END
