
     RDKit          3D

 25 25  0  0  0  0  0  0  0  0999 V2000
    3.7240    4.4930   -0.1050 C   0  0  0  0  0  0  0  0  0  0  0  0
    3.3780    3.1940   -0.4280 O   0  0  0  0  0  0  0  0  0  0  0  0
    3.3360    2.1750    0.9690 S   0  0  0  0  0  0  0  0  0  0  0  0
    2.0390    1.0980    0.7870 O   0  0  0  0  0  0  0  0  0  0  0  0
    1.3640    0.5990    2.2550 S   0  0  0  0  0  0  0  0  0  0  0  0
    0.3520   -0.8750    2.1020 C   0  0  2  0  0  0  0  0  0  0  0  0
    1.2790   -2.3610    1.6780 S   0  0  0  0  0  0  0  0  0  0  0  0
    1.6660   -2.1320   -0.0730 C   0  0  2  0  0  0  0  0  0  0  0  0
    3.1360   -1.9810   -0.2430 C   0  0  2  0  0  0  0  0  0  0  0  0
    3.5280   -1.7820   -1.6920 C   0  0  0  0  0  0  0  0  0  0  0  0
    2.8800   -0.6130   -2.1260 O   0  0  0  0  0  0  0  0  0  0  0  0
    3.8070   -3.2480    0.2460 C   0  0  0  0  0  0  0  0  0  0  0  0
    3.5180   -3.4730    1.5930 O   0  0  0  0  0  0  0  0  0  0  0  0
    0.7580   -0.5800   -0.4210 S   0  0  0  0  0  0  0  0  0  0  0  0
   -0.5430   -0.6710    0.8790 C   0  0  1  0  0  0  0  0  0  0  0  0
   -1.3180   -1.9060    0.6420 C   0  0  0  0  0  0  0  0  0  0  0  0
   -1.2040    0.4840    1.0330 O   0  0  0  0  0  0  0  0  0  0  0  0
   -2.0730    0.8770    0.0540 C   0  0  2  0  0  0  0  0  0  0  0  0
   -1.5710    2.0980   -0.4640 O   0  0  0  0  0  0  0  0  0  0  0  0
   -3.4500    1.2280    0.6040 C   0  0  2  0  0  0  0  0  0  0  0  0
   -3.3250    2.2860    1.5350 O   0  0  0  0  0  0  0  0  0  0  0  0
   -4.0310    0.1770    1.2860 O   0  0  0  0  0  0  0  0  0  0  0  0
   -4.3850    1.7220   -0.4520 C   0  0  0  0  0  0  0  0  0  0  0  0
   -4.6380    0.7240   -1.5580 C   0  0  0  0  0  0  0  0  0  0  0  0
   -5.5230    1.2670   -2.4960 O   0  0  0  0  0  0  0  0  0  0  0  0
  1  2  1  0
  2  3  1  0
  3  4  1  0
  4  5  1  0
  6  5  1  6
  6  7  1  0
  6 15  1  0
  8  7  1  1
  8  9  1  0
  8 14  1  0
  9 10  1  6
  9 12  1  0
 10 11  1  0
 12 13  1  0
 14 15  1  0
 15 16  1  6
 15 17  1  0
 17 18  1  0
 18 19  1  1
 18 20  1  0
 20 21  1  1
 20 22  1  0
 20 23  1  0
 23 24  1  0
 24 25  1  0
M  END
