
     RDKit          3D

 18 18  0  0  0  0  0  0  0  0999 V2000
    7.0140   -1.7790   -0.0300 C   0  0  0  0  0  0  0  0  0  0  0  0
    5.6860   -1.7960    0.4760 O   0  0  0  0  0  0  0  0  0  0  0  0
    4.6630   -1.0730   -0.1050 C   0  0  0  0  0  0  0  0  0  0  0  0
    4.9440   -0.3830   -1.1200 O   0  0  0  0  0  0  0  0  0  0  0  0
    3.2740   -1.1030    0.4400 C   0  0  0  0  0  0  0  0  0  0  0  0
    2.4570   -0.2630   -0.3710 O   0  0  0  0  0  0  0  0  0  0  0  0
    1.1160   -0.0760   -0.1290 C   0  0  0  0  0  0  0  0  0  0  0  0
    0.5850   -0.6630    0.8390 O   0  0  0  0  0  0  0  0  0  0  0  0
    0.3370    0.7850   -0.9830 C   0  0  0  0  0  0  0  0  0  0  0  0
   -0.9630    0.9640   -0.7460 C   0  0  0  0  0  0  0  0  0  0  0  0
   -1.7170    1.8080   -1.5850 N   0  0  0  0  0  0  0  0  0  0  0  0
   -1.6650    0.1290    0.6130 S   0  0  0  0  0  0  0  0  0  0  0  0
   -3.4290    0.4820    0.8040 C   0  0  0  0  0  0  0  0  0  0  0  0
   -4.1180   -0.0770    1.7490 C   0  0  0  0  0  0  0  0  0  0  0  0
   -5.5450    0.2430    1.8600 C   0  0  0  0  0  0  0  0  0  0  0  0
   -5.6000    1.8180    0.9530 S   0  0  0  0  0  0  0  0  0  0  0  0
   -4.1340    1.4060   -0.1040 C   0  0  2  0  0  0  0  0  0  0  0  0
   -4.6890    0.6940   -1.1920 O   0  0  0  0  0  0  0  0  0  0  0  0
  1  2  1  0
  2  3  1  0
  3  4  2  0
  3  5  1  0
  5  6  1  0
  6  7  1  0
  7  8  2  0
  7  9  1  0
  9 10  2  3
 10 11  1  0
 10 12  1  0
 12 13  1  0
 13 14  2  0
 13 17  1  0
 14 15  1  0
 15 16  1  0
 16 17  1  0
 17 18  1  6
M  END
