
     RDKit          3D

 24 25  0  0  0  0  0  0  0  0999 V2000
    2.8750   -1.5390    0.7920 O   0  0  0  0  0  0  0  0  0  0  0  0
    2.8410   -0.3080    0.7840 C   0  0  0  0  0  0  0  0  0  0  0  0
    3.9970    0.4920    0.9650 N   0  0  0  0  0  0  0  0  0  0  0  0
    5.3030   -0.0450    1.1680 C   0  0  0  0  0  0  0  0  0  0  0  0
    5.7920   -0.8620    0.0160 C   0  0  1  0  0  0  0  0  0  0  0  0
    5.8200   -0.0500   -1.1170 F   0  0  0  0  0  0  0  0  0  0  0  0
    7.1290   -1.1850    0.3340 F   0  0  0  0  0  0  0  0  0  0  0  0
    5.0860   -1.9780   -0.2790 F   0  0  0  0  0  0  0  0  0  0  0  0
    1.5810    0.3230    0.5810 N   0  0  0  0  0  0  0  0  0  0  0  0
    0.4070   -0.4470    0.3960 C   0  0  0  0  0  0  0  0  0  0  0  0
    0.3770   -2.2200    0.3970 S   0  0  0  0  0  0  0  0  0  0  0  0
   -1.3460   -2.4050    0.1220 C   0  0  0  0  0  0  0  0  0  0  0  0
   -1.7900   -1.1460    0.0480 C   0  0  0  0  0  0  0  0  0  0  0  0
   -0.9100   -0.1070    0.1850 C   0  0  0  0  0  0  0  0  0  0  0  0
   -1.2680    1.3410    0.1230 C   0  0  0  0  0  0  0  0  0  0  0  0
   -0.4090    2.2120    0.2570 O   0  0  0  0  0  0  0  0  0  0  0  0
   -2.5620    1.7080   -0.0840 O   0  0  0  0  0  0  0  0  0  0  0  0
   -3.0820    2.9820   -0.1770 C   0  0  0  0  0  0  0  0  0  0  0  0
   -2.5710    3.8100   -1.3250 C   0  0  1  0  0  0  0  0  0  0  0  0
   -3.2290    5.0390   -1.2230 F   0  0  0  0  0  0  0  0  0  0  0  0
   -1.2170    3.9670   -1.3410 F   0  0  0  0  0  0  0  0  0  0  0  0
   -3.3030   -1.2310   -0.2030 C   0  0  0  0  0  0  0  0  0  0  0  0
   -3.6230   -2.5870    0.3190 C   0  0  0  0  0  0  0  0  0  0  0  0
   -2.4130   -3.4420   -0.0410 C   0  0  0  0  0  0  0  0  0  0  0  0
  1  2  2  0
  2  3  1  0
  2  9  1  0
  3  4  1  0
  4  5  1  0
  5  6  1  6
  5  7  1  0
  5  8  1  0
  9 10  1  0
 10 11  1  0
 10 14  2  0
 11 12  1  0
 12 13  2  0
 12 24  1  0
 13 14  1  0
 13 22  1  0
 14 15  1  0
 15 16  2  0
 15 17  1  0
 17 18  1  0
 18 19  1  0
 19 20  1  1
 19 21  1  0
 22 23  1  0
 23 24  1  0
M  END
