
     RDKit          3D

 25 26  0  0  0  0  0  0  0  0999 V2000
   -3.3930   -0.3420   -0.4000 C   0  0  0  0  0  0  0  0  0  0  0  0
   -2.0190   -0.8570   -0.2740 C   0  0  0  0  0  0  0  0  0  0  0  0
   -1.7730   -2.2410   -0.2060 C   0  0  0  0  0  0  0  0  0  0  0  0
   -2.8990   -3.1520   -0.2670 C   0  0  0  0  0  0  0  0  0  0  0  0
   -3.4950   -3.5270    0.7630 O   0  0  0  0  0  0  0  0  0  0  0  0
   -0.5310   -2.7580   -0.0850 C   0  0  0  0  0  0  0  0  0  0  0  0
   -0.3580   -3.9990   -0.0280 O   0  0  0  0  0  0  0  0  0  0  0  0
    0.5340   -1.9560   -0.0250 N   0  0  0  0  0  0  0  0  0  0  0  0
    0.3900   -0.6280   -0.0840 C   0  0  0  0  0  0  0  0  0  0  0  0
    1.5420    0.1510   -0.0170 C   0  0  0  0  0  0  0  0  0  0  0  0
    2.8230   -0.4550    0.1090 N   0  0  0  0  0  0  0  0  0  0  0  0
    4.0150    0.2990    0.1980 C   0  0  0  0  0  0  0  0  0  0  0  0
    4.1190    1.5200    0.1820 O   0  0  0  0  0  0  0  0  0  0  0  0
    5.3110   -0.4600    0.3290 C   0  0  2  0  0  0  0  0  0  0  0  0
    5.2800   -1.2310    1.4840 F   0  0  0  0  0  0  0  0  0  0  0  0
    6.3950    0.3700    0.4180 F   0  0  0  0  0  0  0  0  0  0  0  0
    5.4070   -1.2510   -0.7990 F   0  0  0  0  0  0  0  0  0  0  0  0
    1.3990    1.5130   -0.0770 C   0  0  0  0  0  0  0  0  0  0  0  0
    0.1320    2.0460   -0.2010 C   0  0  0  0  0  0  0  0  0  0  0  0
   -0.0030    3.3930   -0.2600 F   0  0  0  0  0  0  0  0  0  0  0  0
   -1.0260    1.3100   -0.2700 C   0  0  0  0  0  0  0  0  0  0  0  0
   -2.6150    2.0330   -0.4330 S   0  0  0  0  0  0  0  0  0  0  0  0
   -2.5960    3.8300   -0.5040 C   0  0  0  0  0  0  0  0  0  0  0  0
   -2.1680    4.3030    0.7220 F   0  0  0  0  0  0  0  0  0  0  0  0
   -0.8860   -0.0570   -0.2090 C   0  0  0  0  0  0  0  0  0  0  0  0
  1  2  1  0
  2  3  2  0
  2 25  1  0
  3  4  1  0
  3  6  1  0
  4  5  2  0
  6  7  2  0
  6  8  1  0
  8  9  1  0
  9 10  2  0
  9 25  1  0
 10 11  1  0
 10 18  1  0
 11 12  1  0
 12 13  2  0
 12 14  1  0
 14 15  1  1
 14 16  1  0
 14 17  1  0
 18 19  2  0
 19 20  1  0
 19 21  1  0
 21 22  1  0
 21 25  2  0
 22 23  1  0
 23 24  1  0
M  END
