
     RDKit          3D

 31 34  0  0  0  0  0  0  0  0999 V2000
   -4.6140    3.8530    0.6180 C   0  0  0  0  0  0  0  0  0  0  0  0
   -3.3480    3.2440    0.2300 C   0  0  0  0  0  0  0  0  0  0  0  0
   -3.1790    1.9150    0.3510 C   0  0  0  0  0  0  0  0  0  0  0  0
   -1.9380    1.2970   -0.0260 C   0  0  0  0  0  0  0  0  0  0  0  0
   -1.6720    0.0140    0.0800 C   0  0  0  0  0  0  0  0  0  0  0  0
   -2.6750   -0.8630    0.6290 C   0  0  0  0  0  0  0  0  0  0  0  0
   -3.2640   -0.4940    1.9340 C   0  0  0  0  0  0  0  0  0  0  0  0
   -3.0910   -1.9960    0.1500 N   0  0  0  0  0  0  0  0  0  0  0  0
   -2.6490   -2.6500   -1.0370 C   0  0  0  0  0  0  0  0  0  0  0  0
   -3.6120   -3.5000   -1.5070 C   0  0  0  0  0  0  0  0  0  0  0  0
   -3.3350   -4.2320   -2.6650 C   0  0  0  0  0  0  0  0  0  0  0  0
   -2.0980   -4.0710   -3.2940 C   0  0  0  0  0  0  0  0  0  0  0  0
   -1.1640   -3.2010   -2.7780 C   0  0  0  0  0  0  0  0  0  0  0  0
   -1.4330   -2.4820   -1.6430 C   0  0  0  0  0  0  0  0  0  0  0  0
   -0.3860   -1.6230   -1.2290 N   0  0  0  0  0  0  0  0  0  0  0  0
   -0.3100   -0.3790   -0.5110 C   0  0  2  0  0  0  0  0  0  0  0  0
    0.6520   -0.4640    0.5570 C   0  0  0  0  0  0  0  0  0  0  0  0
    0.2760   -1.1460    1.6740 N   0  0  0  0  0  0  0  0  0  0  0  0
    1.0840   -1.2960    2.7300 C   0  0  0  0  0  0  0  0  0  0  0  0
    0.7030   -1.9420    3.7640 O   0  0  0  0  0  0  0  0  0  0  0  0
    2.3560   -0.7850    2.7930 C   0  0  0  0  0  0  0  0  0  0  0  0
    2.7800   -0.0840    1.6790 C   0  0  0  0  0  0  0  0  0  0  0  0
    4.0410    0.4600    1.6540 C   0  0  0  0  0  0  0  0  0  0  0  0
    4.4540    1.1530    0.5360 C   0  0  0  0  0  0  0  0  0  0  0  0
    5.7280    1.6900    0.5390 O   0  0  0  0  0  0  0  0  0  0  0  0
    6.5560    1.5220    1.6530 C   0  0  0  0  0  0  0  0  0  0  0  0
    3.6050    1.3040   -0.5600 C   0  0  0  0  0  0  0  0  0  0  0  0
    4.0680    2.0010   -1.6400 O   0  0  0  0  0  0  0  0  0  0  0  0
    3.2190    2.1630   -2.7600 C   0  0  0  0  0  0  0  0  0  0  0  0
    2.3470    0.7640   -0.5400 C   0  0  0  0  0  0  0  0  0  0  0  0
    1.9350    0.0720    0.5770 C   0  0  0  0  0  0  0  0  0  0  0  0
  1  2  1  0
  2  3  2  3
  3  4  1  0
  4  5  2  3
  5  6  1  0
  5 16  1  0
  6  7  1  0
  6  8  2  0
  8  9  1  0
  9 10  2  0
  9 14  1  0
 10 11  1  0
 11 12  2  0
 12 13  1  0
 13 14  2  0
 14 15  1  0
 15 16  1  0
 16 17  1  1
 17 18  1  0
 17 31  2  0
 18 19  1  0
 19 20  2  0
 19 21  1  0
 21 22  2  0
 22 23  1  0
 22 31  1  0
 23 24  2  0
 24 25  1  0
 24 27  1  0
 25 26  1  0
 27 28  1  0
 27 30  2  0
 28 29  1  0
 30 31  1  0
M  END
