
     RDKit          3D

 29 31  0  0  0  0  0  0  0  0999 V2000
   -4.8410   -0.4890    0.5930 C   0  0  0  0  0  0  0  0  0  0  0  0
   -4.2250   -0.5270   -0.5710 C   0  0  0  0  0  0  0  0  0  0  0  0
   -4.7280   -1.7470   -1.7770 S   0  0  0  0  0  0  0  0  0  0  0  0
   -4.1270   -1.0950   -3.3870 C   0  0  0  0  0  0  0  0  0  0  0  0
   -2.9910   -0.3750   -3.1220 O   0  0  0  0  0  0  0  0  0  0  0  0
   -3.1580    0.7460   -2.3360 C   0  0  0  0  0  0  0  0  0  0  0  0
   -3.1300    0.4410   -0.8580 C   0  0  2  0  0  0  0  0  0  0  0  0
   -1.8850   -0.0120   -0.3810 N   0  0  0  0  0  0  0  0  0  0  0  0
   -1.7420   -0.2000    1.0130 C   0  0  0  0  0  0  0  0  0  0  0  0
   -1.7740    1.0780    1.7990 C   0  0  0  0  0  0  0  0  0  0  0  0
   -1.9110    2.2060    1.2560 O   0  0  0  0  0  0  0  0  0  0  0  0
   -1.6490    1.0300    3.1650 O   0  0  0  0  0  0  0  0  0  0  0  0
   -1.6680    2.1970    3.9750 C   0  0  0  0  0  0  0  0  0  0  0  0
   -1.0800   -0.7690   -1.2490 C   0  0  0  0  0  0  0  0  0  0  0  0
    0.1950   -1.1860   -0.6360 C   0  0  0  0  0  0  0  0  0  0  0  0
    1.3220   -0.3920   -0.6290 C   0  0  0  0  0  0  0  0  0  0  0  0
    2.5130   -0.8250   -0.0400 C   0  0  0  0  0  0  0  0  0  0  0  0
    3.7120    0.0450   -0.0140 C   0  0  0  0  0  0  0  0  0  0  0  0
    4.9130   -0.4220   -0.3680 C   0  0  0  0  0  0  0  0  0  0  0  0
    4.9840   -2.1260   -0.8670 Cl  0  0  0  0  0  0  0  0  0  0  0  0
    6.1610    0.3210   -0.3920 C   0  0  0  0  0  0  0  0  0  0  0  0
    6.3880    1.3270    0.6790 C   0  0  0  0  0  0  0  0  0  0  0  0
    4.9200    2.2640    1.1120 S   0  0  0  0  0  0  0  0  0  0  0  0
    3.5340    1.4090    0.4200 C   0  0  0  0  0  0  0  0  0  0  0  0
    2.4380    1.9760    0.3160 O   0  0  0  0  0  0  0  0  0  0  0  0
    2.4870   -2.0490    0.5090 N   0  0  0  0  0  0  0  0  0  0  0  0
    1.4050   -2.8450    0.5170 C   0  0  0  0  0  0  0  0  0  0  0  0
    1.4250   -3.9970    1.0490 O   0  0  0  0  0  0  0  0  0  0  0  0
    0.2750   -2.3940   -0.0590 N   0  0  0  0  0  0  0  0  0  0  0  0
  1  2  2  0
  2  3  1  0
  2  7  1  0
  3  4  1  0
  4  5  1  0
  5  6  1  0
  6  7  1  0
  7  8  1  6
  8  9  1  0
  8 14  1  0
  9 10  1  0
 10 11  2  0
 10 12  1  0
 12 13  1  0
 14 15  1  0
 15 16  1  0
 15 29  2  0
 16 17  2  0
 17 18  1  0
 17 26  1  0
 18 19  2  0
 18 24  1  0
 19 20  1  0
 19 21  1  0
 21 22  1  0
 22 23  1  0
 23 24  1  0
 24 25  2  0
 26 27  1  0
 27 28  2  0
 27 29  1  0
M  END
