
     RDKit          3D

 28 30  0  0  0  0  0  0  0  0999 V2000
   -0.7910   -0.2560    0.3130 C   0  0  0  0  0  0  0  0  0  0  0  0
   -1.1320   -1.6040   -0.1960 C   0  0  0  0  0  0  0  0  0  0  0  0
   -0.2180   -2.5070   -0.2060 N   0  0  0  0  0  0  0  0  0  0  0  0
    1.0800   -2.2640    0.2440 N   0  0  0  0  0  0  0  0  0  0  0  0
    1.8890   -1.3280   -0.4610 C   0  0  0  0  0  0  0  0  0  0  0  0
    1.4810   -0.7080   -1.4750 O   0  0  0  0  0  0  0  0  0  0  0  0
    3.2610   -1.0890    0.0360 C   0  0  0  0  0  0  0  0  0  0  0  0
    3.8710   -1.6710    1.1190 C   0  0  0  0  0  0  0  0  0  0  0  0
    5.1370   -1.1390    1.1880 C   0  0  0  0  0  0  0  0  0  0  0  0
    5.2570   -0.2540    0.1490 C   0  0  0  0  0  0  0  0  0  0  0  0
    6.4610    0.5420   -0.1510 C   0  0  0  0  0  0  0  0  0  0  0  0
    6.4860    1.3540   -1.1530 N   0  0  0  0  0  0  0  0  0  0  0  0
    7.7500    2.0820   -1.3330 C   0  0  0  0  0  0  0  0  0  0  0  0
    8.8460    1.0560   -1.2090 C   0  0  0  0  0  0  0  0  0  0  0  0
    8.8430    0.3730   -0.0190 O   0  0  0  0  0  0  0  0  0  0  0  0
    7.6660    0.4330    0.6860 C   0  0  0  0  0  0  0  0  0  0  0  0
    4.1230   -0.2620   -0.5000 O   0  0  0  0  0  0  0  0  0  0  0  0
   -2.4670   -1.9110   -0.6760 C   0  0  0  0  0  0  0  0  0  0  0  0
   -2.7950   -3.0390   -1.1150 O   0  0  0  0  0  0  0  0  0  0  0  0
   -3.4810   -0.9430   -0.6750 O   0  0  0  0  0  0  0  0  0  0  0  0
   -4.7820   -1.2590   -1.1480 C   0  0  0  0  0  0  0  0  0  0  0  0
   -5.6160   -0.0360   -1.0180 C   0  0  0  0  0  0  0  0  0  0  0  0
   -6.2160    0.5830   -2.0270 C   0  0  0  0  0  0  0  0  0  0  0  0
   -7.1710    2.0430   -1.6230 S   0  0  0  0  0  0  0  0  0  0  0  0
   -8.2870    1.6130   -0.2680 C   0  0  0  0  0  0  0  0  0  0  0  0
   -7.6160    0.9110    0.8640 C   0  0  2  0  0  0  0  0  0  0  0  0
   -7.8700    1.6250    2.1980 C   0  0  0  0  0  0  0  0  0  0  0  0
   -5.8380    0.6660    0.6110 S   0  0  0  0  0  0  0  0  0  0  0  0
  1  2  1  0
  2  3  2  3
  2 18  1  0
  3  4  1  0
  4  5  1  0
  5  6  2  0
  5  7  1  0
  7  8  2  0
  7 17  1  0
  8  9  1  0
  9 10  2  0
 10 11  1  0
 10 17  1  0
 11 12  2  0
 11 16  1  0
 12 13  1  0
 13 14  1  0
 14 15  1  0
 15 16  1  0
 18 19  2  0
 18 20  1  0
 20 21  1  0
 21 22  1  0
 22 23  2  0
 22 28  1  0
 23 24  1  0
 24 25  1  0
 25 26  1  0
 26 27  1  1
 26 28  1  0
M  END
