
     RDKit          3D

 29 31  0  0  0  0  0  0  0  0999 V2000
   -6.6210    0.1760   -0.3130 C   0  0  0  0  0  0  0  0  0  0  0  0
   -5.3010   -0.2000   -1.0240 C   0  0  0  0  0  0  0  0  0  0  0  0
   -4.3050    0.7870   -0.4820 C   0  0  0  0  0  0  0  0  0  0  0  0
   -3.1840    0.5640    0.0780 C   0  0  0  0  0  0  0  0  0  0  0  0
   -2.3790   -0.5080    0.4420 N   0  0  0  0  0  0  0  0  0  0  0  0
   -2.4600   -1.8910    0.3350 C   0  0  0  0  0  0  0  0  0  0  0  0
   -3.4190   -2.4470   -0.1940 O   0  0  0  0  0  0  0  0  0  0  0  0
   -1.3220   -2.7140    0.8950 C   0  0  2  0  0  0  0  0  0  0  0  0
   -1.8830   -3.7720    1.8080 C   0  0  0  0  0  0  0  0  0  0  0  0
   -2.0620   -2.7100    3.3070 S   0  0  0  0  0  0  0  0  0  0  0  0
   -0.5890   -1.6580    2.9500 C   0  0  0  0  0  0  0  0  0  0  0  0
   -0.3370   -1.9390    1.5700 N   0  0  0  0  0  0  0  0  0  0  0  0
    0.8620   -1.4440    0.8740 C   0  0  0  0  0  0  0  0  0  0  0  0
    0.9680   -1.8020   -0.3400 O   0  0  0  0  0  0  0  0  0  0  0  0
    1.8520   -0.6200    1.4870 C   0  0  0  0  0  0  0  0  0  0  0  0
    1.5820   -0.1230    3.2020 Cl  0  0  0  0  0  0  0  0  0  0  0  0
    2.9590   -0.1280    0.9950 C   0  0  0  0  0  0  0  0  0  0  0  0
    3.5360   -0.2530   -0.3060 C   0  0  0  0  0  0  0  0  0  0  0  0
    2.9600   -0.9290   -1.2030 O   0  0  0  0  0  0  0  0  0  0  0  0
    4.7670    0.3510   -0.6960 N   0  0  0  0  0  0  0  0  0  0  0  0
    5.6010    1.1580    0.1410 C   0  0  0  0  0  0  0  0  0  0  0  0
    5.6760    2.5350   -0.5480 C   0  0  0  0  0  0  0  0  0  0  0  0
    6.3450    2.2790   -1.7580 O   0  0  0  0  0  0  0  0  0  0  0  0
    5.5680    1.5250   -2.6030 C   0  0  0  0  0  0  0  0  0  0  0  0
    5.2370    0.1450   -2.0650 C   0  0  0  0  0  0  0  0  0  0  0  0
   -2.5060    2.2480    0.4840 S   0  0  0  0  0  0  0  0  0  0  0  0
   -3.5300    3.0990   -0.7870 C   0  0  0  0  0  0  0  0  0  0  0  0
   -4.7080    2.2130   -0.6190 C   0  0  0  0  0  0  0  0  0  0  0  0
   -5.8810    2.6660   -0.6010 O   0  0  0  0  0  0  0  0  0  0  0  0
  1  2  1  0
  2  3  1  0
  3  4  2  0
  3 28  1  0
  4  5  1  0
  4 26  1  0
  5  6  1  0
  6  7  2  0
  8  6  1  1
  8  9  1  0
  8 12  1  0
  9 10  1  0
 10 11  1  0
 11 12  1  0
 12 13  1  0
 13 14  2  0
 13 15  1  0
 15 16  1  0
 15 17  2  3
 17 18  1  0
 18 19  2  0
 18 20  1  0
 20 21  1  0
 20 25  1  0
 21 22  1  0
 22 23  1  0
 23 24  1  0
 24 25  1  0
 26 27  1  0
 27 28  1  0
 28 29  2  0
M  END
