
     RDKit          3D

  8  7  0  0  0  0  0  0  0  0999 V2000
    3.1370   -0.6450   -0.1500 O   0  0  0  0  0  0  0  0  0  0  0  0
    2.3520    0.1340   -1.0190 C   0  0  0  0  0  0  0  0  0  0  0  0
    1.0190   -0.2600   -0.9850 O   0  0  0  0  0  0  0  0  0  0  0  0
    0.4770   -0.1320    0.2910 C   0  0  0  0  0  0  0  0  0  0  0  0
   -0.9660   -0.5650    0.2920 C   0  0  0  0  0  0  0  0  0  0  0  0
   -1.8040    0.2660   -0.6520 C   0  0  2  0  0  0  0  0  0  0  0  0
   -1.7470    1.6010   -0.2620 O   0  0  0  0  0  0  0  0  0  0  0  0
   -3.1260   -0.1610   -0.5040 O   0  0  0  0  0  0  0  0  0  0  0  0
  1  2  1  0
  2  3  1  0
  3  4  1  0
  4  5  1  0
  5  6  1  0
  6  7  1  1
  6  8  1  0
M  END
