
     RDKit          3D

  7  7  0  0  0  0  0  0  0  0999 V2000
    2.5050   -0.3890   -0.4280 C   0  0  0  0  0  0  0  0  0  0  0  0
    1.6240    0.6550   -0.1420 O   0  0  0  0  0  0  0  0  0  0  0  0
    0.2430    0.4470   -0.0650 C   0  0  0  0  0  0  0  0  0  0  0  0
   -0.6830    1.3380    0.2350 C   0  0  0  0  0  0  0  0  0  0  0  0
   -1.9950    0.6630    0.1940 C   0  0  0  0  0  0  0  0  0  0  0  0
   -1.7160   -0.7290   -0.1660 C   0  0  0  0  0  0  0  0  0  0  0  0
   -0.4090   -0.8340   -0.3120 C   0  0  0  0  0  0  0  0  0  0  0  0
  1  2  1  0
  2  3  1  0
  3  4  2  0
  3  7  1  0
  4  5  1  0
  5  6  1  0
  6  7  2  0
M  END
