
     RDKit          3D

  9  8  0  0  0  0  0  0  0  0999 V2000
   -2.2860   -0.8020    0.1980 O   0  0  0  0  0  0  0  0  0  0  0  0
   -1.7670    0.2660    0.5730 C   0  0  0  0  0  0  0  0  0  0  0  0
   -2.5680    1.2350    1.1310 O   0  0  0  0  0  0  0  0  0  0  0  0
   -0.3300    0.4870    0.4240 C   0  0  0  0  0  0  0  0  0  0  0  0
    0.3960   -0.6740   -0.2040 C   0  0  2  0  0  0  0  0  0  0  0  0
    0.2600   -1.8380    0.5510 O   0  0  0  0  0  0  0  0  0  0  0  0
    1.8490   -0.3570   -0.2400 C   0  0  0  0  0  0  0  0  0  0  0  0
    2.7220   -1.0650    0.3340 O   0  0  0  0  0  0  0  0  0  0  0  0
    2.3310    0.7630   -0.9230 O   0  0  0  0  0  0  0  0  0  0  0  0
  1  2  2  0
  2  3  1  0
  2  4  1  0
  4  5  1  0
  5  6  1  1
  5  7  1  0
  7  8  2  0
  7  9  1  0
M  END
