
     RDKit          3D

  8  7  0  0  0  0  0  0  0  0999 V2000
   -2.3080    0.2840   -1.0290 O   0  0  0  0  0  0  0  0  0  0  0  0
   -2.1500   -0.0510    0.3250 C   0  0  0  0  0  0  0  0  0  0  0  0
   -0.7580   -0.6130    0.5250 C   0  0  0  0  0  0  0  0  0  0  0  0
    0.2880    0.4060    0.1370 C   0  0  1  0  0  0  0  0  0  0  0  0
    0.1500    1.5470    0.9220 O   0  0  0  0  0  0  0  0  0  0  0  0
    1.6650   -0.1670    0.2070 C   0  0  2  0  0  0  0  0  0  0  0  0
    2.5840    0.7750   -0.2390 O   0  0  0  0  0  0  0  0  0  0  0  0
    1.7320   -1.3440   -0.5020 O   0  0  0  0  0  0  0  0  0  0  0  0
  1  2  1  0
  2  3  1  0
  3  4  1  0
  4  5  1  1
  4  6  1  0
  6  7  1  6
  6  8  1  0
M  END
