
     RDKit          3D

  8  7  0  0  0  0  0  0  0  0999 V2000
   -3.1370   -0.4580    0.2710 C   0  0  0  0  0  0  0  0  0  0  0  0
   -1.8630   -0.7250   -0.1830 O   0  0  0  0  0  0  0  0  0  0  0  0
   -0.9230    0.2070    0.1880 C   0  0  0  0  0  0  0  0  0  0  0  0
    0.4130   -0.2380   -0.3910 C   0  0  2  0  0  0  0  0  0  0  0  0
    0.7020   -1.4980    0.1460 O   0  0  0  0  0  0  0  0  0  0  0  0
    1.5330    0.7030    0.0110 C   0  0  0  0  0  0  0  0  0  0  0  0
    2.7090    0.1930   -0.5090 O   0  0  0  0  0  0  0  0  0  0  0  0
    3.7520    0.9410   -0.2160 O   0  0  0  0  0  0  0  0  0  0  0  0
  1  2  1  0
  2  3  1  0
  3  4  1  0
  4  5  1  1
  4  6  1  0
  6  7  1  0
  7  8  1  0
M  END
