
     RDKit          3D

  9  8  0  0  0  0  0  0  0  0999 V2000
   -2.0920   -0.9560    1.4710 O   0  0  0  0  0  0  0  0  0  0  0  0
   -1.8170   -0.3490    0.4150 C   0  0  0  0  0  0  0  0  0  0  0  0
   -2.7630    0.4940   -0.1620 O   0  0  0  0  0  0  0  0  0  0  0  0
   -0.4780   -0.5340   -0.2140 C   0  0  0  0  0  0  0  0  0  0  0  0
    0.5640    0.2700    0.5640 C   0  0  2  0  0  0  0  0  0  0  0  0
    0.1840    1.6070    0.5150 O   0  0  0  0  0  0  0  0  0  0  0  0
    1.8660    0.1280   -0.1180 C   0  0  0  0  0  0  0  0  0  0  0  0
    2.4110    1.1450   -0.6090 O   0  0  0  0  0  0  0  0  0  0  0  0
    2.4910   -1.1110   -0.2210 O   0  0  0  0  0  0  0  0  0  0  0  0
  1  2  2  0
  2  3  1  0
  2  4  1  0
  4  5  1  0
  5  6  1  6
  5  7  1  0
  7  8  2  0
  7  9  1  0
M  END
