
     RDKit          3D

  9  8  0  0  0  0  0  0  0  0999 V2000
    3.3120   -0.2220   -0.0200 O   0  0  0  0  0  0  0  0  0  0  0  0
    2.0130   -0.6530   -0.2810 C   0  0  0  0  0  0  0  0  0  0  0  0
    1.1270    0.2920    0.1960 O   0  0  0  0  0  0  0  0  0  0  0  0
   -0.1860    0.0120    0.0140 C   0  0  2  0  0  0  0  0  0  0  0  0
   -0.9060    0.9870   -0.9030 C   0  0  0  0  0  0  0  0  0  0  0  0
   -0.3730    1.0330   -2.1670 O   0  0  0  0  0  0  0  0  0  0  0  0
   -1.0000   -0.1170    1.2680 C   0  0  2  0  0  0  0  0  0  0  0  0
   -0.5830   -1.1040    2.1210 O   0  0  0  0  0  0  0  0  0  0  0  0
   -2.3380   -0.3870    0.9710 O   0  0  0  0  0  0  0  0  0  0  0  0
  1  2  1  0
  2  3  1  0
  3  4  1  0
  4  5  1  6
  4  7  1  0
  5  6  1  0
  7  8  1  1
  7  9  1  0
M  END
