
     RDKit          3D

  8  7  0  0  0  0  0  0  0  0999 V2000
   -1.9850   -0.0100    0.6140 C   0  0  0  0  0  0  0  0  0  0  0  0
   -0.6490   -0.1690    0.9350 O   0  0  0  0  0  0  0  0  0  0  0  0
    0.1300   -0.2060   -0.1810 C   0  0  1  0  0  0  0  0  0  0  0  0
   -0.3240   -1.3060   -0.9490 O   0  0  0  0  0  0  0  0  0  0  0  0
    0.0390    1.0710   -0.9670 C   0  0  0  0  0  0  0  0  0  0  0  0
    0.4570    2.1080   -0.1150 O   0  0  0  0  0  0  0  0  0  0  0  0
    1.5950   -0.4340    0.1180 C   0  0  0  0  0  0  0  0  0  0  0  0
    1.8260   -1.6260    0.7730 O   0  0  0  0  0  0  0  0  0  0  0  0
  1  2  1  0
  2  3  1  0
  3  4  1  6
  3  5  1  0
  3  7  1  0
  5  6  1  0
  7  8  1  0
M  END
