
     RDKit          3D

 16 16  0  0  0  0  0  0  0  0999 V2000
    4.5590    1.3550   -0.9150 O   0  0  0  0  0  0  0  0  0  0  0  0
    4.7450    1.0620    0.2670 C   0  0  0  0  0  0  0  0  0  0  0  0
    5.9320    1.5100    0.8890 O   0  0  0  0  0  0  0  0  0  0  0  0
    3.7490    0.3020    0.9380 O   0  0  0  0  0  0  0  0  0  0  0  0
    2.6540   -0.0610    0.1620 C   0  0  0  0  0  0  0  0  0  0  0  0
    1.5100   -0.7710    0.7430 C   0  0  0  0  0  0  0  0  0  0  0  0
    0.6580   -0.8920   -0.4570 O   0  0  0  0  0  0  0  0  0  0  0  0
    0.2460    0.2650   -0.7760 O   0  0  0  0  0  0  0  0  0  0  0  0
   -0.8870    0.5750   -1.1660 O   0  0  0  0  0  0  0  0  0  0  0  0
   -1.8700   -0.0560   -0.3630 C   0  0  1  0  0  0  0  0  0  0  0  0
   -2.9460    0.9060   -0.0150 C   0  0  0  0  0  0  0  0  0  0  0  0
   -4.2020    0.4000    0.0590 O   0  0  0  0  0  0  0  0  0  0  0  0
   -4.3300   -0.9440    0.0840 C   0  0  0  0  0  0  0  0  0  0  0  0
   -3.6750   -1.5920   -1.0330 O   0  0  0  0  0  0  0  0  0  0  0  0
   -2.4400   -1.1090   -1.3090 C   0  0  0  0  0  0  0  0  0  0  0  0
   -1.6920   -1.5030   -2.2940 O   0  0  0  0  0  0  0  0  0  0  0  0
  1  2  2  0
  2  3  1  0
  2  4  1  0
  4  5  1  0
  5  6  1  0
  6  7  1  0
  7  8  1  0
  8  9  1  0
 10  9  1  6
 10 11  1  0
 10 15  1  0
 11 12  1  0
 12 13  1  0
 13 14  1  0
 14 15  1  0
 15 16  2  0
M  END
