
     RDKit          3D

 16 16  0  0  0  0  0  0  0  0999 V2000
    2.8510    0.7140   -1.8010 O   0  0  0  0  0  0  0  0  0  0  0  0
    2.6770    1.1110   -0.6120 C   0  0  0  0  0  0  0  0  0  0  0  0
    3.2820    2.3150   -0.2710 O   0  0  0  0  0  0  0  0  0  0  0  0
    1.9250    0.3850    0.2930 O   0  0  0  0  0  0  0  0  0  0  0  0
    1.3420   -0.8260   -0.1240 C   0  0  1  0  0  0  0  0  0  0  0  0
    1.8300   -1.9660    0.7330 C   0  0  0  0  0  0  0  0  0  0  0  0
    2.6940   -1.7480    1.6390 O   0  0  0  0  0  0  0  0  0  0  0  0
    1.2800   -3.1980    0.4550 O   0  0  0  0  0  0  0  0  0  0  0  0
   -0.0980   -3.2450    0.3250 O   0  0  0  0  0  0  0  0  0  0  0  0
   -0.7490   -2.0140    0.4980 C   0  0  0  0  0  0  0  0  0  0  0  0
   -1.8650   -1.9520    1.1070 O   0  0  0  0  0  0  0  0  0  0  0  0
   -0.1860   -0.7350   -0.0070 C   0  0  1  0  0  0  0  0  0  0  0  0
   -0.5660    0.2780    0.8270 O   0  0  0  0  0  0  0  0  0  0  0  0
   -1.3340    1.2630    0.2790 C   0  0  0  0  0  0  0  0  0  0  0  0
   -2.6290    0.7580   -0.2490 C   0  0  0  0  0  0  0  0  0  0  0  0
   -3.3190    1.8560   -0.7820 O   0  0  0  0  0  0  0  0  0  0  0  0
  1  2  2  0
  2  3  1  0
  2  4  1  0
  5  4  1  1
  5  6  1  0
  5 12  1  0
  6  7  2  0
  6  8  1  0
  8  9  1  0
  9 10  1  0
 10 11  2  0
 10 12  1  0
 12 13  1  1
 13 14  1  0
 14 15  1  0
 15 16  1  0
M  END
