
     RDKit          3D

 27 28  0  0  0  0  0  0  0  0999 V2000
   -3.2530    1.2440   -2.9750 O   0  0  0  0  0  0  0  0  0  0  0  0
   -4.1620    1.5080   -1.9490 C   0  0  0  0  0  0  0  0  0  0  0  0
   -3.3920    1.4600   -0.6500 C   0  0  1  0  0  0  0  0  0  0  0  0
   -4.2490    1.7160    0.4170 O   0  0  0  0  0  0  0  0  0  0  0  0
   -3.5990    1.5420    1.6290 C   0  0  1  0  0  0  0  0  0  0  0  0
   -4.3910    2.0920    2.6400 O   0  0  0  0  0  0  0  0  0  0  0  0
   -3.4390    0.0610    1.8520 C   0  0  2  0  0  0  0  0  0  0  0  0
   -2.2870   -0.2360    2.5540 O   0  0  0  0  0  0  0  0  0  0  0  0
   -3.4150   -0.6630    0.5440 C   0  0  1  0  0  0  0  0  0  0  0  0
   -4.7120   -0.8340    0.0710 O   0  0  0  0  0  0  0  0  0  0  0  0
   -2.6420    0.1530   -0.4930 C   0  0  2  0  0  0  0  0  0  0  0  0
   -0.9760    0.5330    0.0330 S   0  0  0  0  0  0  0  0  0  0  0  0
    0.0590   -0.9180    0.2670 C   0  0  2  0  0  0  0  0  0  0  0  0
    1.3220   -0.4700    0.6750 O   0  0  0  0  0  0  0  0  0  0  0  0
    2.1100   -0.2550   -0.4260 C   0  0  1  0  0  0  0  0  0  0  0  0
    3.1840    0.7750   -0.2100 C   0  0  0  0  0  0  0  0  0  0  0  0
    4.0150    0.3900    0.8000 O   0  0  0  0  0  0  0  0  0  0  0  0
    5.2550    1.3680    1.2000 P   0  0  0  0  0  0  0  0  0  0  0  0
    5.5640    1.8020   -0.2210 O   0  0  0  0  0  0  0  0  0  0  0  0
    6.7960    0.7640    1.3990 O   0  0  0  0  0  0  0  0  0  0  0  0
    4.9760    2.9360    1.6810 O   0  0  0  0  0  0  0  0  0  0  0  0
    2.6430   -1.5650   -0.9150 C   0  0  1  0  0  0  0  0  0  0  0  0
    3.4890   -2.0700    0.0970 O   0  0  0  0  0  0  0  0  0  0  0  0
    1.4760   -2.5280   -1.0240 C   0  0  2  0  0  0  0  0  0  0  0  0
    1.5620   -3.2190   -2.2100 O   0  0  0  0  0  0  0  0  0  0  0  0
    0.1470   -1.7770   -0.9710 C   0  0  1  0  0  0  0  0  0  0  0  0
   -0.8410   -2.7560   -0.8730 O   0  0  0  0  0  0  0  0  0  0  0  0
  1  2  1  0
  3  2  1  6
  3  4  1  0
  3 11  1  0
  4  5  1  0
  5  6  1  1
  5  7  1  0
  7  8  1  6
  7  9  1  0
  9 10  1  6
  9 11  1  0
 11 12  1  1
 13 12  1  6
 13 14  1  0
 13 26  1  0
 14 15  1  0
 15 16  1  1
 15 22  1  0
 16 17  1  0
 17 18  1  0
 18 19  1  0
 18 20  1  0
 18 21  1  0
 22 23  1  1
 22 24  1  0
 24 25  1  6
 24 26  1  0
 26 27  1  1
M  END
