
     RDKit          3D

 32 35  0  0  0  0  0  0  0  0999 V2000
   -2.1890   -2.7730   -1.1450 C   0  0  0  0  0  0  0  0  0  0  0  0
   -2.3240   -1.3690   -0.6340 C   0  0  2  0  0  0  0  0  0  0  0  0
   -1.6670   -1.2800    0.6640 N   0  0  0  0  0  0  0  0  0  0  0  0
   -0.6240   -0.3070    0.8890 C   0  0  0  0  0  0  0  0  0  0  0  0
   -0.3170    0.4390   -0.0640 O   0  0  0  0  0  0  0  0  0  0  0  0
   -0.0090   -0.2790    2.2340 C   0  0  0  0  0  0  0  0  0  0  0  0
    1.0190    0.6600    2.2910 O   0  0  0  0  0  0  0  0  0  0  0  0
    2.1610    0.5590    1.5110 C   0  0  0  0  0  0  0  0  0  0  0  0
    2.3770   -0.4800    0.6420 C   0  0  0  0  0  0  0  0  0  0  0  0
    3.5400   -0.5440   -0.1280 C   0  0  0  0  0  0  0  0  0  0  0  0
    4.5210    0.4270   -0.0510 C   0  0  0  0  0  0  0  0  0  0  0  0
    5.6790    0.2730   -0.9030 C   0  0  0  0  0  0  0  0  0  0  0  0
    6.9120    0.4470   -0.5040 C   0  0  0  0  0  0  0  0  0  0  0  0
    7.4490    0.7970    0.7420 N   0  0  0  0  0  0  0  0  0  0  0  0
    8.8690    0.8710    0.6780 C   0  0  0  0  0  0  0  0  0  0  0  0
    9.6270    1.1580    1.6200 O   0  0  0  0  0  0  0  0  0  0  0  0
    9.2670    0.5610   -0.6410 N   0  0  0  0  0  0  0  0  0  0  0  0
   10.6320    0.5090   -1.1740 C   0  0  0  0  0  0  0  0  0  0  0  0
    8.0820    0.2940   -1.3980 C   0  0  0  0  0  0  0  0  0  0  0  0
    8.0620   -0.0130   -2.6000 O   0  0  0  0  0  0  0  0  0  0  0  0
    4.2930    1.4600    0.8210 C   0  0  0  0  0  0  0  0  0  0  0  0
    3.1500    1.5460    1.5940 C   0  0  0  0  0  0  0  0  0  0  0  0
   -3.7660   -1.0080   -0.4020 C   0  0  0  0  0  0  0  0  0  0  0  0
   -4.8020   -1.7040   -0.9380 C   0  0  0  0  0  0  0  0  0  0  0  0
   -6.1200   -1.3060   -0.6760 C   0  0  0  0  0  0  0  0  0  0  0  0
   -6.3980   -0.2250    0.1150 C   0  0  0  0  0  0  0  0  0  0  0  0
   -5.3420    0.4920    0.6670 C   0  0  0  0  0  0  0  0  0  0  0  0
   -4.0550    0.0940    0.4030 C   0  0  0  0  0  0  0  0  0  0  0  0
   -5.9010    1.6080    1.4750 C   0  0  0  0  0  0  0  0  0  0  0  0
   -7.2220    1.8490    0.7310 C   0  0  0  0  0  0  0  0  0  0  0  0
   -7.6710    0.3960    0.5410 C   0  0  1  0  0  0  0  0  0  0  0  0
   -8.7710    0.2930   -0.4650 C   0  0  0  0  0  0  0  0  0  0  0  0
  2  1  1  1
  2  3  1  0
  2 23  1  0
  3  4  1  0
  4  5  2  0
  4  6  1  0
  6  7  1  0
  7  8  1  0
  8  9  2  0
  8 22  1  0
  9 10  1  0
 10 11  2  0
 11 12  1  0
 11 21  1  0
 12 13  2  3
 13 14  1  0
 13 19  1  0
 14 15  1  0
 15 16  2  0
 15 17  1  0
 17 18  1  0
 17 19  1  0
 19 20  2  0
 21 22  2  0
 23 24  2  0
 23 28  1  0
 24 25  1  0
 25 26  2  0
 26 27  1  0
 26 31  1  0
 27 28  2  0
 27 29  1  0
 29 30  1  0
 30 31  1  0
 31 32  1  6
M  END
