
     RDKit          3D

 32 35  0  0  0  0  0  0  0  0999 V2000
    5.9840   -2.1650    2.3560 C   0  0  0  0  0  0  0  0  0  0  0  0
    4.9180   -1.1720    2.0840 C   0  0  0  0  0  0  0  0  0  0  0  0
    4.5410   -0.7730    0.7470 C   0  0  0  0  0  0  0  0  0  0  0  0
    4.9680   -1.1290   -0.4180 C   0  0  0  0  0  0  0  0  0  0  0  0
    5.9930   -2.0710   -0.6830 N   0  0  0  0  0  0  0  0  0  0  0  0
    6.3960   -2.3680   -2.0260 C   0  0  0  0  0  0  0  0  0  0  0  0
    5.7930   -1.7460   -3.0180 C   0  0  0  0  0  0  0  0  0  0  0  0
    4.7360   -0.7740   -2.7810 C   0  0  0  0  0  0  0  0  0  0  0  0
    4.3100   -0.4490   -1.5780 C   0  0  0  0  0  0  0  0  0  0  0  0
    3.2420    0.5360   -1.3930 C   0  0  0  0  0  0  0  0  0  0  0  0
    2.0700   -0.0330   -0.7700 N   0  0  0  0  0  0  0  0  0  0  0  0
    0.9070    0.7800   -0.4960 C   0  0  0  0  0  0  0  0  0  0  0  0
    1.0680    1.9470   -0.8590 O   0  0  0  0  0  0  0  0  0  0  0  0
   -0.2580    0.2180    0.1280 C   0  0  0  0  0  0  0  0  0  0  0  0
   -1.3960    0.8680    0.4220 C   0  0  0  0  0  0  0  0  0  0  0  0
   -1.5380    2.2480    0.1140 C   0  0  0  0  0  0  0  0  0  0  0  0
   -0.5610    2.8700   -0.4430 O   0  0  0  0  0  0  0  0  0  0  0  0
   -2.6400    3.1080    0.3300 N   0  0  0  0  0  0  0  0  0  0  0  0
   -3.9120    2.8370    0.8960 C   0  0  0  0  0  0  0  0  0  0  0  0
   -4.6930    4.1520    0.8390 C   0  0  0  0  0  0  0  0  0  0  0  0
   -3.6370    5.2300    0.7080 C   0  0  0  0  0  0  0  0  0  0  0  0
   -2.5510    4.5450   -0.0580 C   0  0  0  0  0  0  0  0  0  0  0  0
   -2.3970   -0.0020    1.1000 C   0  0  0  0  0  0  0  0  0  0  0  0
   -2.7160   -1.2600    0.2730 C   0  0  1  0  0  0  0  0  0  0  0  0
   -3.7030   -2.0610    1.0400 C   0  0  0  0  0  0  0  0  0  0  0  0
   -4.8140   -2.6350    0.2070 C   0  0  0  0  0  0  0  0  0  0  0  0
   -5.2540   -1.7310   -0.7670 O   0  0  0  0  0  0  0  0  0  0  0  0
   -4.2270   -1.6430   -1.7040 C   0  0  0  0  0  0  0  0  0  0  0  0
   -3.1250   -0.8180   -1.0830 C   0  0  0  0  0  0  0  0  0  0  0  0
   -1.4250   -2.0700    0.1510 C   0  0  0  0  0  0  0  0  0  0  0  0
   -0.2740   -1.2140    0.5090 C   0  0  0  0  0  0  0  0  0  0  0  0
    0.6860   -1.6830    1.1300 O   0  0  0  0  0  0  0  0  0  0  0  0
  1  2  1  0
  2  3  1  0
  3  4  2  3
  4  5  1  0
  4  9  1  0
  5  6  1  0
  6  7  2  0
  7  8  1  0
  8  9  2  0
  9 10  1  0
 10 11  1  0
 11 12  1  0
 12 13  2  0
 12 14  1  0
 14 15  2  0
 14 31  1  0
 15 16  1  0
 15 23  1  0
 16 17  2  0
 16 18  1  0
 18 19  1  0
 18 22  1  0
 19 20  1  0
 20 21  1  0
 21 22  1  0
 24 23  1  1
 24 25  1  0
 24 29  1  0
 24 30  1  0
 25 26  1  0
 26 27  1  0
 27 28  1  0
 28 29  1  0
 30 31  1  0
 31 32  2  0
M  END
