
     RDKit          3D

 32 33  0  0  0  0  0  0  0  0999 V2000
   -1.7010    2.1100    0.7470 C   0  0  0  0  0  0  0  0  0  0  0  0
   -1.6610    0.6040    0.6030 C   0  0  2  0  0  0  0  0  0  0  0  0
   -2.8270   -0.0420    1.1500 N   0  0  0  0  0  0  0  0  0  0  0  0
   -3.6190   -0.8590    0.3120 C   0  0  0  0  0  0  0  0  0  0  0  0
   -3.2980   -1.0160   -0.9080 O   0  0  0  0  0  0  0  0  0  0  0  0
   -4.7840   -1.5350    0.7570 N   0  0  0  0  0  0  0  0  0  0  0  0
   -5.6120   -2.3780   -0.0810 C   0  0  0  0  0  0  0  0  0  0  0  0
   -6.1980   -1.6440   -1.2630 C   0  0  0  0  0  0  0  0  0  0  0  0
   -7.0220   -0.5460   -0.8530 N   0  0  1  0  0  0  0  0  0  0  0  0
   -6.6300    0.6850   -1.5270 C   0  0  0  0  0  0  0  0  0  0  0  0
   -7.4930    1.8020   -0.9990 C   0  0  0  0  0  0  0  0  0  0  0  0
   -8.8580    1.5190   -1.3810 N   0  0  0  0  0  0  0  0  0  0  0  0
   -9.2530    0.3010   -0.6860 C   0  0  0  0  0  0  0  0  0  0  0  0
   -8.3910   -0.8250   -1.2320 C   0  0  0  0  0  0  0  0  0  0  0  0
   -0.4500    0.0760    1.2670 C   0  0  0  0  0  0  0  0  0  0  0  0
   -0.5480   -0.7870    2.1470 O   0  0  0  0  0  0  0  0  0  0  0  0
    0.8290    0.4860    0.9730 O   0  0  0  0  0  0  0  0  0  0  0  0
    1.9780    0.0170    1.5680 C   0  0  2  0  0  0  0  0  0  0  0  0
    2.6760    1.0650    2.4350 C   0  0  0  0  0  0  0  0  0  0  0  0
    3.2190    2.1860    1.5990 C   0  0  0  0  0  0  0  0  0  0  0  0
    4.0860    1.6320    0.5270 C   0  0  0  0  0  0  0  0  0  0  0  0
    4.2880    0.1450    0.5910 C   0  0  2  0  0  0  0  0  0  0  0  0
    4.9840   -0.2400   -0.6210 N   0  0  0  0  0  0  0  0  0  0  0  0
    6.2930   -0.7740   -0.5040 C   0  0  0  0  0  0  0  0  0  0  0  0
    6.8040   -0.8950    0.6430 O   0  0  0  0  0  0  0  0  0  0  0  0
    7.0660   -1.1830   -1.6250 N   0  0  0  0  0  0  0  0  0  0  0  0
    8.3490   -1.6980   -1.4220 N   0  0  0  0  0  0  0  0  0  0  0  0
    9.4590   -0.8370   -1.2300 C   0  0  0  0  0  0  0  0  0  0  0  0
    9.2100    0.4040   -1.2550 O   0  0  0  0  0  0  0  0  0  0  0  0
   10.8430   -1.3660   -1.0110 C   0  0  0  0  0  0  0  0  0  0  0  0
   11.7160   -0.2110   -0.8540 N   0  0  0  0  0  0  0  0  0  0  0  0
    2.9870   -0.6260    0.6820 C   0  0  0  0  0  0  0  0  0  0  0  0
  2  1  1  1
  2  3  1  0
  2 15  1  0
  3  4  1  0
  4  5  2  0
  4  6  1  0
  6  7  1  0
  7  8  1  0
  9  8  1  6
  9 10  1  0
  9 14  1  0
 10 11  1  0
 11 12  1  0
 12 13  1  0
 13 14  1  0
 15 16  2  0
 15 17  1  0
 18 17  1  6
 18 19  1  0
 18 32  1  0
 19 20  1  0
 20 21  1  0
 21 22  1  0
 22 23  1  6
 22 32  1  0
 23 24  1  0
 24 25  2  0
 24 26  1  0
 26 27  1  0
 27 28  1  0
 28 29  2  0
 28 30  1  0
 30 31  1  0
M  CHG  3   9   1  12   1  31   1
M  END
