
     RDKit          3D

 32 33  0  0  0  0  0  0  0  0999 V2000
   -5.6080   -1.8440    0.0020 C   0  0  0  0  0  0  0  0  0  0  0  0
   -4.8540   -0.6760   -0.3560 N   0  0  0  0  0  0  0  0  0  0  0  0
   -5.7570    0.4060   -0.9220 C   0  0  0  0  0  0  0  0  0  0  0  0
   -6.2240    1.2250    0.2500 C   0  0  0  0  0  0  0  0  0  0  0  0
   -7.1130    2.3150   -0.1720 C   0  0  0  0  0  0  0  0  0  0  0  0
   -7.3770    2.4420   -1.3980 O   0  0  0  0  0  0  0  0  0  0  0  0
   -7.7020    3.2450    0.7250 N   0  0  0  0  0  0  0  0  0  0  0  0
   -8.5520    4.2760    0.2610 N   0  0  0  0  0  0  0  0  0  0  0  0
   -3.5210   -0.3930   -0.2670 C   0  0  0  0  0  0  0  0  0  0  0  0
   -3.2150    0.8140   -0.7070 O   0  0  0  0  0  0  0  0  0  0  0  0
   -2.3100   -1.1500    0.2230 C   0  0  0  0  0  0  0  0  0  0  0  0
   -2.4590   -2.3370    0.6770 C   0  0  0  0  0  0  0  0  0  0  0  0
   -1.6140   -3.3540    1.2150 C   0  0  0  0  0  0  0  0  0  0  0  0
   -2.2410   -4.6290    1.6360 N   0  0  0  0  0  0  0  0  0  0  0  0
   -0.4050   -3.3720    1.4030 O   0  0  0  0  0  0  0  0  0  0  0  0
   -1.1110   -0.3210    0.0800 C   0  0  0  0  0  0  0  0  0  0  0  0
    0.1840   -0.6330    0.4220 N   0  0  0  0  0  0  0  0  0  0  0  0
    0.9320   -1.2900   -0.6240 C   0  0  0  0  0  0  0  0  0  0  0  0
    2.2040   -0.5420   -1.0060 C   0  0  1  0  0  0  0  0  0  0  0  0
    1.9630    0.8460   -1.5070 C   0  0  0  0  0  0  0  0  0  0  0  0
    2.7940    1.7800   -0.7010 C   0  0  0  0  0  0  0  0  0  0  0  0
    4.2480    1.3870   -0.7770 C   0  0  0  0  0  0  0  0  0  0  0  0
    4.5200    0.0720   -0.2870 N   0  0  2  0  0  0  0  0  0  0  0  0
    5.6760   -0.5390   -0.8630 C   0  0  0  0  0  0  0  0  0  0  0  0
    6.9740   -0.1760   -0.3240 C   0  0  0  0  0  0  0  0  0  0  0  0
    7.9900   -0.7360   -0.8610 O   0  0  0  0  0  0  0  0  0  0  0  0
    7.2030    0.7220    0.7160 N   0  0  0  0  0  0  0  0  0  0  0  0
    8.5010    1.0500    1.2160 C   0  0  0  0  0  0  0  0  0  0  0  0
    8.6650    1.9750    2.2820 N   0  0  0  0  0  0  0  0  0  0  0  0
    9.4930    0.4880    0.6750 O   0  0  0  0  0  0  0  0  0  0  0  0
    3.4470   -0.8510   -0.3530 C   0  0  2  0  0  0  0  0  0  0  0  0
    3.1690   -1.4030   -1.7580 C   0  0  0  0  0  0  0  0  0  0  0  0
  1  2  1  0
  2  3  1  0
  2  9  1  0
  3  4  1  0
  4  5  1  0
  5  6  2  0
  5  7  1  0
  7  8  1  0
  9 10  2  0
  9 11  1  0
 11 12  2  3
 11 16  1  0
 12 13  1  0
 13 14  1  0
 13 15  2  0
 16 17  1  0
 17 18  1  0
 19 18  1  1
 19 20  1  0
 19 31  1  0
 19 32  1  0
 20 21  1  0
 21 22  1  0
 22 23  1  0
 23 24  1  6
 23 31  1  0
 24 25  1  0
 25 26  2  0
 25 27  1  0
 27 28  1  0
 28 29  1  0
 28 30  2  0
 31 32  1  6
M  CHG  2  17   1  23   1
M  END
