
     RDKit          3D

 33 33  0  0  0  0  0  0  0  0999 V2000
  -10.2390    1.1280    1.5170 C   0  0  0  0  0  0  0  0  0  0  0  0
  -10.1050    1.4900    0.0920 C   0  0  0  0  0  0  0  0  0  0  0  0
   -9.2480    0.8410   -0.6640 C   0  0  0  0  0  0  0  0  0  0  0  0
   -8.4190   -0.2480   -0.0990 C   0  0  0  0  0  0  0  0  0  0  0  0
   -7.0420    0.0770   -0.2430 O   0  0  0  0  0  0  0  0  0  0  0  0
   -6.0160   -0.7250    0.1790 C   0  0  0  0  0  0  0  0  0  0  0  0
   -6.2780   -1.8270    0.7340 O   0  0  0  0  0  0  0  0  0  0  0  0
   -4.6070   -0.3010   -0.0150 C   0  0  0  0  0  0  0  0  0  0  0  0
   -3.7140   -1.2660    0.4870 O   0  0  0  0  0  0  0  0  0  0  0  0
   -2.3530   -1.0320    0.3890 C   0  0  0  0  0  0  0  0  0  0  0  0
   -1.8820    0.1200   -0.1890 C   0  0  0  0  0  0  0  0  0  0  0  0
   -0.5290    0.3700   -0.2950 C   0  0  0  0  0  0  0  0  0  0  0  0
    0.3880   -0.5430    0.1800 C   0  0  0  0  0  0  0  0  0  0  0  0
    1.7470   -0.3030    0.0790 O   0  0  0  0  0  0  0  0  0  0  0  0
    2.1970    0.8940   -0.5210 C   0  0  0  0  0  0  0  0  0  0  0  0
    3.7100    0.9470   -0.5270 C   0  0  1  0  0  0  0  0  0  0  0  0
    4.0910    2.1470   -1.1290 O   0  0  0  0  0  0  0  0  0  0  0  0
    4.2000    0.9000    0.9030 C   0  0  0  0  0  0  0  0  0  0  0  0
    5.6270    0.9950    0.9990 N   0  0  0  0  0  0  0  0  0  0  0  0
    6.5170    0.0790    0.4140 C   0  0  0  0  0  0  0  0  0  0  0  0
    6.0490   -0.8890   -0.2370 O   0  0  0  0  0  0  0  0  0  0  0  0
    7.9160    0.2010    0.5270 N   0  0  0  0  0  0  0  0  0  0  0  0
    8.8240   -0.7620   -0.0880 C   0  0  1  0  0  0  0  0  0  0  0  0
   10.2510   -0.3630    0.2080 C   0  0  0  0  0  0  0  0  0  0  0  0
    8.5270   -2.1400    0.4800 C   0  0  0  0  0  0  0  0  0  0  0  0
    8.6040   -0.7840   -1.5560 C   0  0  0  0  0  0  0  0  0  0  0  0
    7.7700   -0.0670   -2.0550 O   0  0  0  0  0  0  0  0  0  0  0  0
   -0.0870   -1.7070    0.7630 C   0  0  0  0  0  0  0  0  0  0  0  0
   -1.4430   -1.9640    0.8740 C   0  0  0  0  0  0  0  0  0  0  0  0
   -2.0720   -3.5720    1.6800 Br  0  0  0  0  0  0  0  0  0  0  0  0
   -9.1150    1.1980   -2.0730 C   0  0  0  0  0  0  0  0  0  0  0  0
   -8.1930    0.5000   -2.8910 N   0  0  0  0  0  0  0  0  0  0  0  0
   -9.8210    2.1280   -2.5640 O   0  0  0  0  0  0  0  0  0  0  0  0
  1  2  1  0
  2  3  2  3
  3  4  1  0
  3 31  1  0
  4  5  1  0
  5  6  1  0
  6  7  2  0
  6  8  1  0
  8  9  1  0
  9 10  1  0
 10 11  2  0
 10 29  1  0
 11 12  1  0
 12 13  2  0
 13 14  1  0
 13 28  1  0
 14 15  1  0
 15 16  1  0
 16 17  1  1
 16 18  1  0
 18 19  1  0
 19 20  1  0
 20 21  2  0
 20 22  1  0
 22 23  1  0
 23 24  1  6
 23 25  1  0
 23 26  1  0
 26 27  2  0
 28 29  2  0
 29 30  1  0
 31 32  1  0
 31 33  2  0
M  END
