
     RDKit          3D

 33 36  0  0  0  0  0  0  0  0999 V2000
   -0.0910    3.8940   -2.9660 O   0  0  0  0  0  0  0  0  0  0  0  0
    0.1080    2.8430   -1.8520 S   0  0  0  0  0  0  0  0  0  0  0  0
   -1.0530    3.1020   -0.5510 C   0  0  0  0  0  0  0  0  0  0  0  0
   -1.4310    2.3080    0.3810 C   0  0  0  0  0  0  0  0  0  0  0  0
   -1.0280    0.9340    0.6930 C   0  0  0  0  0  0  0  0  0  0  0  0
    0.2330    0.5820    0.2260 N   0  0  0  0  0  0  0  0  0  0  0  0
    1.1980   -0.3420    0.6610 C   0  0  0  0  0  0  0  0  0  0  0  0
    1.0740   -1.0160    1.6670 O   0  0  0  0  0  0  0  0  0  0  0  0
    2.4830   -0.5560   -0.1170 C   0  0  0  0  0  0  0  0  0  0  0  0
    3.3360   -1.5810    0.5540 C   0  0  0  0  0  0  0  0  0  0  0  0
    4.6040   -1.8200   -0.1790 C   0  0  0  0  0  0  0  0  0  0  0  0
    4.6900   -2.7840   -1.1600 C   0  0  0  0  0  0  0  0  0  0  0  0
    5.8270   -3.0620   -1.8810 C   0  0  0  0  0  0  0  0  0  0  0  0
    6.9590   -2.3090   -1.5860 C   0  0  0  0  0  0  0  0  0  0  0  0
    6.8930   -1.3390   -0.6070 C   0  0  0  0  0  0  0  0  0  0  0  0
    5.7390   -1.0850    0.0960 C   0  0  0  0  0  0  0  0  0  0  0  0
   -1.7070    0.3740    1.7200 C   0  0  0  0  0  0  0  0  0  0  0  0
   -2.7270    1.0260    2.5340 C   0  0  0  0  0  0  0  0  0  0  0  0
   -3.3870    0.1370    3.2580 C   0  0  0  0  0  0  0  0  0  0  0  0
   -2.8460   -1.1560    2.9680 C   0  0  0  0  0  0  0  0  0  0  0  0
   -1.8440   -1.0340    2.0470 C   0  0  0  0  0  0  0  0  0  0  0  0
   -1.2510   -2.1710    1.4730 N   0  0  0  0  0  0  0  0  0  0  0  0
   -1.4350   -2.4660    0.0720 C   0  0  2  0  0  0  0  0  0  0  0  0
   -2.9320   -2.6380   -0.1320 C   0  0  0  0  0  0  0  0  0  0  0  0
   -3.1260   -3.6990   -1.1690 C   0  0  0  0  0  0  0  0  0  0  0  0
   -1.7760   -4.2950   -1.4380 C   0  0  0  0  0  0  0  0  0  0  0  0
   -0.8850   -3.8290   -0.2950 C   0  0  0  0  0  0  0  0  0  0  0  0
   -1.7160    4.4490   -0.5810 C   0  0  0  0  0  0  0  0  0  0  0  0
   -2.8930    4.6500    0.0550 C   0  0  0  0  0  0  0  0  0  0  0  0
   -3.4330    5.9420    0.0850 C   0  0  0  0  0  0  0  0  0  0  0  0
   -2.8270    6.9880   -0.4950 N   0  0  0  0  0  0  0  0  0  0  0  0
   -1.6690    6.7830   -1.1180 C   0  0  0  0  0  0  0  0  0  0  0  0
   -1.0980    5.4990   -1.1660 C   0  0  0  0  0  0  0  0  0  0  0  0
  1  2  2  0
  2  3  1  0
  3  4  2  3
  3 28  1  0
  4  5  1  0
  5  6  1  0
  5 17  2  3
  6  7  1  0
  7  8  2  0
  7  9  1  0
  9 10  1  0
 10 11  1  0
 11 12  2  0
 11 16  1  0
 12 13  1  0
 13 14  2  0
 14 15  1  0
 15 16  2  0
 17 18  1  0
 17 21  1  0
 18 19  2  0
 19 20  1  0
 20 21  2  0
 21 22  1  0
 23 22  1  1
 23 24  1  0
 23 27  1  0
 24 25  1  0
 25 26  1  0
 26 27  1  0
 28 29  2  0
 28 33  1  0
 29 30  1  0
 30 31  2  0
 31 32  1  0
 32 33  2  0
M  CHG  1  31   1
M  END
