
     RDKit          3D

 33 33  0  0  0  0  0  0  0  0999 V2000
   -6.0040   -0.3040   -2.0760 C   0  0  0  0  0  0  0  0  0  0  0  0
   -4.9890   -1.4000   -2.0240 C   0  0  0  0  0  0  0  0  0  0  0  0
   -3.7930   -1.1040   -1.1220 C   0  0  1  0  0  0  0  0  0  0  0  0
   -2.8890   -2.3310   -1.1870 C   0  0  0  0  0  0  0  0  0  0  0  0
   -2.4680   -2.7170   -2.5600 C   0  0  0  0  0  0  0  0  0  0  0  0
   -1.6040   -3.8260   -2.4260 O   0  0  0  0  0  0  0  0  0  0  0  0
   -3.0650    0.1130   -1.5590 C   0  0  0  0  0  0  0  0  0  0  0  0
   -1.9720    0.5690   -0.7400 N   0  0  0  0  0  0  0  0  0  0  0  0
   -2.3280    1.5170    0.3320 C   0  0  0  0  0  0  0  0  0  0  0  0
   -2.2090    2.9250   -0.1840 C   0  0  0  0  0  0  0  0  0  0  0  0
   -2.5630    3.8160    0.8430 O   0  0  0  0  0  0  0  0  0  0  0  0
   -1.9330    3.9270    2.0630 C   0  0  0  0  0  0  0  0  0  0  0  0
   -0.9540    3.2020    2.3450 O   0  0  0  0  0  0  0  0  0  0  0  0
   -2.3550    4.8400    3.0250 O   0  0  0  0  0  0  0  0  0  0  0  0
   -0.6270    0.1980   -0.8950 C   0  0  0  0  0  0  0  0  0  0  0  0
   -0.2690   -0.5980   -1.8250 O   0  0  0  0  0  0  0  0  0  0  0  0
    0.4260    0.6550   -0.0680 N   0  0  0  0  0  0  0  0  0  0  0  0
    1.8100    0.3200   -0.1750 C   0  0  0  0  0  0  0  0  0  0  0  0
    2.4020   -0.2030   -1.2840 C   0  0  0  0  0  0  0  0  0  0  0  0
    3.7390   -0.5130   -1.2680 C   0  0  0  0  0  0  0  0  0  0  0  0
    4.5160   -0.3130   -0.1590 C   0  0  0  0  0  0  0  0  0  0  0  0
    5.8570   -0.6210   -0.1310 O   0  0  0  0  0  0  0  0  0  0  0  0
    6.4790   -1.1500   -1.2740 C   0  0  0  0  0  0  0  0  0  0  0  0
    6.4340    0.0490   -2.7880 Br  0  0  0  0  0  0  0  0  0  0  0  0
    3.9630    0.2170    0.9920 C   0  0  0  0  0  0  0  0  0  0  0  0
    4.8080    0.4420    2.1760 C   0  0  1  0  0  0  0  0  0  0  0  0
    3.9260    0.9060    3.3650 C   0  0  0  0  0  0  0  0  0  0  0  0
    5.5620   -0.6090    2.6060 O   0  0  0  0  0  0  0  0  0  0  0  0
    6.8750   -0.2090    2.8270 C   0  0  0  0  0  0  0  0  0  0  0  0
    2.6220    0.5210    0.9580 C   0  0  0  0  0  0  0  0  0  0  0  0
   -4.3610   -0.9850    0.2470 C   0  0  0  0  0  0  0  0  0  0  0  0
   -3.5860   -1.2860    1.3650 N   0  0  0  0  0  0  0  0  0  0  0  0
   -5.5480   -0.6120    0.3730 O   0  0  0  0  0  0  0  0  0  0  0  0
  1  2  1  0
  3  2  1  6
  3  4  1  0
  3  7  1  0
  3 31  1  0
  4  5  1  0
  5  6  1  0
  7  8  1  0
  8  9  1  0
  8 15  1  0
  9 10  1  0
 10 11  1  0
 11 12  1  0
 12 13  2  0
 12 14  1  0
 15 16  2  0
 15 17  1  0
 17 18  1  0
 18 19  2  0
 18 30  1  0
 19 20  1  0
 20 21  2  0
 21 22  1  0
 21 25  1  0
 22 23  1  0
 23 24  1  0
 25 26  1  0
 25 30  2  0
 26 27  1  1
 26 28  1  0
 28 29  1  0
 31 32  1  0
 31 33  2  0
M  END
