
     RDKit          3D

 33 37  0  0  0  0  0  0  0  0999 V2000
    8.5050    1.1550    2.2470 C   0  0  0  0  0  0  0  0  0  0  0  0
    7.4750    1.0640    1.1390 C   0  0  0  0  0  0  0  0  0  0  0  0
    6.2970    0.2130    1.5350 C   0  0  0  0  0  0  0  0  0  0  0  0
    5.3670    0.1910    0.3990 C   0  0  0  0  0  0  0  0  0  0  0  0
    5.3670    0.7360   -0.8190 C   0  0  0  0  0  0  0  0  0  0  0  0
    4.3390    0.5270   -1.6620 C   0  0  0  0  0  0  0  0  0  0  0  0
    3.2900   -0.2500   -1.2640 C   0  0  0  0  0  0  0  0  0  0  0  0
    2.0580   -0.7120   -1.8140 C   0  0  1  0  0  0  0  0  0  0  0  0
    1.6260   -2.0630   -1.2500 C   0  0  0  0  0  0  0  0  0  0  0  0
    0.3880   -2.5680   -1.9030 C   0  0  0  0  0  0  0  0  0  0  0  0
   -0.2410   -1.6080   -2.8730 C   0  0  0  0  0  0  0  0  0  0  0  0
   -0.2990   -0.2770   -2.1630 C   0  0  0  0  0  0  0  0  0  0  0  0
    0.8890    0.1810   -1.6260 C   0  0  0  0  0  0  0  0  0  0  0  0
    0.6630    1.3970   -1.0300 C   0  0  0  0  0  0  0  0  0  0  0  0
    1.6720    2.2650   -0.3190 C   0  0  0  0  0  0  0  0  0  0  0  0
    1.0590    3.4250    0.1520 O   0  0  0  0  0  0  0  0  0  0  0  0
   -0.6420    1.6490   -1.2150 N   0  0  0  0  0  0  0  0  0  0  0  0
   -1.2120    0.6410   -1.8950 N   0  0  0  0  0  0  0  0  0  0  0  0
   -2.6160    0.5550   -2.2720 C   0  0  0  0  0  0  0  0  0  0  0  0
   -3.4360   -0.0730   -1.2060 C   0  0  0  0  0  0  0  0  0  0  0  0
   -3.7350   -1.4140   -1.1860 C   0  0  0  0  0  0  0  0  0  0  0  0
   -4.4960   -1.9940   -0.1870 C   0  0  0  0  0  0  0  0  0  0  0  0
   -4.7870   -3.3450   -0.1820 O   0  0  0  0  0  0  0  0  0  0  0  0
   -4.3460   -4.2290   -1.1700 C   0  0  0  0  0  0  0  0  0  0  0  0
   -4.9620   -1.1800    0.8160 C   0  0  0  0  0  0  0  0  0  0  0  0
   -4.6990    0.1740    0.8560 C   0  0  0  0  0  0  0  0  0  0  0  0
   -5.2240    0.9990    1.9560 C   0  0  0  0  0  0  0  0  0  0  0  0
   -5.9550    0.6260    2.9780 C   0  0  0  0  0  0  0  0  0  0  0  0
   -6.2210    1.7490    3.7710 N   0  0  0  0  0  0  0  0  0  0  0  0
   -5.5910    2.8480    3.1500 C   0  0  0  0  0  0  0  0  0  0  0  0
   -4.9950    2.4170    2.0710 C   0  0  0  0  0  0  0  0  0  0  0  0
   -3.9410    0.6900   -0.1600 C   0  0  0  0  0  0  0  0  0  0  0  0
    3.8250   -0.6970    0.4160 S   0  0  0  0  0  0  0  0  0  0  0  0
  1  2  1  0
  2  3  1  0
  3  4  1  0
  4  5  2  0
  4 33  1  0
  5  6  1  0
  6  7  2  0
  8  7  1  1
  7 33  1  0
  8  9  1  0
  8 13  1  0
  9 10  1  0
 10 11  1  0
 11 12  1  0
 12 13  2  0
 12 18  1  0
 13 14  1  0
 14 15  1  0
 14 17  2  0
 15 16  1  0
 17 18  1  0
 18 19  1  0
 19 20  1  0
 20 21  2  0
 20 32  1  0
 21 22  1  0
 22 23  1  0
 22 25  2  0
 23 24  1  0
 25 26  1  0
 26 27  1  0
 26 32  2  0
 27 28  2  0
 27 31  1  0
 28 29  1  0
 29 30  1  0
 30 31  2  0
M  CHG  1  29   1
M  END
