
     RDKit          3D

 33 33  0  0  0  0  0  0  0  0999 V2000
    7.4800    4.0050    1.0720 C   0  0  0  0  0  0  0  0  0  0  0  0
    6.2940    3.5920    0.2230 C   0  0  0  0  0  0  0  0  0  0  0  0
    6.6260    2.7230   -0.7870 O   0  0  0  0  0  0  0  0  0  0  0  0
    7.1880    1.5330   -0.3900 C   0  0  0  0  0  0  0  0  0  0  0  0
    6.2650    0.7480    0.5080 C   0  0  2  0  0  0  0  0  0  0  0  0
    6.9100   -0.4490    0.8570 O   0  0  0  0  0  0  0  0  0  0  0  0
    4.9510    0.4470   -0.1560 C   0  0  0  0  0  0  0  0  0  0  0  0
    4.1050   -0.3130    0.7450 N   0  0  0  0  0  0  0  0  0  0  0  0
    2.8000   -0.7230    0.3650 C   0  0  0  0  0  0  0  0  0  0  0  0
    2.3860   -0.4080   -0.7790 O   0  0  0  0  0  0  0  0  0  0  0  0
    1.9380   -1.4510    1.1660 O   0  0  0  0  0  0  0  0  0  0  0  0
    0.6560   -1.8190    0.7200 C   0  0  0  0  0  0  0  0  0  0  0  0
   -0.4650   -1.1390    1.0200 C   0  0  0  0  0  0  0  0  0  0  0  0
   -1.7280   -1.5610    0.5370 C   0  0  0  0  0  0  0  0  0  0  0  0
   -2.8720   -0.7380    0.8790 C   0  0  0  0  0  0  0  0  0  0  0  0
   -2.8760   -0.0540    1.9630 O   0  0  0  0  0  0  0  0  0  0  0  0
   -4.0050   -0.6390    0.0690 N   0  0  0  0  0  0  0  0  0  0  0  0
   -5.1380    0.2200    0.5090 C   0  0  1  0  0  0  0  0  0  0  0  0
   -5.2490    1.2650   -0.5640 C   0  0  0  0  0  0  0  0  0  0  0  0
   -6.2860    2.2730   -0.3420 C   0  0  0  0  0  0  0  0  0  0  0  0
   -6.9310    2.3170    0.6700 O   0  0  0  0  0  0  0  0  0  0  0  0
   -6.5470    3.2810   -1.4190 C   0  0  0  0  0  0  0  0  0  0  0  0
   -7.6510    4.1800   -0.9690 C   0  0  0  0  0  0  0  0  0  0  0  0
   -6.3350   -0.6380    0.6490 C   0  0  0  0  0  0  0  0  0  0  0  0
   -7.5710   -0.1340    1.0880 N   0  0  0  0  0  0  0  0  0  0  0  0
   -6.2960   -1.8850    0.3760 O   0  0  0  0  0  0  0  0  0  0  0  0
   -1.7340   -2.6790   -0.2350 C   0  0  0  0  0  0  0  0  0  0  0  0
   -3.3730   -3.3970   -0.8930 Br  0  0  0  0  0  0  0  0  0  0  0  0
   -0.5930   -3.4160   -0.5720 C   0  0  0  0  0  0  0  0  0  0  0  0
    0.6060   -2.9620   -0.0770 C   0  0  0  0  0  0  0  0  0  0  0  0
    1.7680   -3.6470   -0.3730 O   0  0  0  0  0  0  0  0  0  0  0  0
    1.8780   -4.8040   -1.1400 C   0  0  0  0  0  0  0  0  0  0  0  0
    1.1400   -5.9920   -0.6180 C   0  0  0  0  0  0  0  0  0  0  0  0
  1  2  1  0
  2  3  1  0
  3  4  1  0
  4  5  1  0
  5  6  1  6
  5  7  1  0
  7  8  1  0
  8  9  1  0
  9 10  2  0
  9 11  1  0
 11 12  1  0
 12 13  2  0
 12 30  1  0
 13 14  1  0
 14 15  1  0
 14 27  2  0
 15 16  2  0
 15 17  1  0
 17 18  1  0
 18 19  1  6
 18 24  1  0
 19 20  1  0
 20 21  2  0
 20 22  1  0
 22 23  1  0
 24 25  1  0
 24 26  2  0
 27 28  1  0
 27 29  1  0
 29 30  2  0
 30 31  1  0
 31 32  1  0
 32 33  1  0
M  END
