
     RDKit          3D

 47 50  0  0  0  0  0  0  0  0999 V2000
   -2.1650    2.4780    0.8760 C   0  0  0  0  0  0  0  0  0  0  0  0
   -2.9790    1.6630    1.1190 C   0  0  0  0  0  0  0  0  0  0  0  0
   -4.0170    0.6040    1.4550 C   0  0  0  0  0  0  0  0  0  0  0  0
   -3.6100   -0.5260    0.6200 N   0  0  0  0  0  0  0  0  0  0  0  0
   -2.2080   -0.6080    0.3520 C   0  0  0  0  0  0  0  0  0  0  0  0
   -1.4730   -1.3760    1.2390 C   0  0  0  0  0  0  0  0  0  0  0  0
   -0.1070   -1.4470    1.0980 C   0  0  0  0  0  0  0  0  0  0  0  0
    0.5100   -0.7480    0.0620 C   0  0  0  0  0  0  0  0  0  0  0  0
    1.9500   -0.7800   -0.0870 C   0  0  0  0  0  0  0  0  0  0  0  0
    2.5460   -1.6690    0.6010 O   0  0  0  0  0  0  0  0  0  0  0  0
    2.7440    0.0660   -0.9100 N   0  0  0  0  0  0  0  0  0  0  0  0
    4.2210   -0.2030   -0.8740 C   0  0  1  0  0  0  0  0  0  0  0  0
    4.6550   -0.5970   -2.2540 C   0  0  0  0  0  0  0  0  0  0  0  0
    5.9820   -1.2750   -2.2370 C   0  0  0  0  0  0  0  0  0  0  0  0
    7.1900   -0.8520   -1.5920 C   0  0  0  0  0  0  0  0  0  0  0  0
    7.9570    0.0460   -1.9280 O   0  0  0  0  0  0  0  0  0  0  0  0
    7.4940   -1.5960   -0.3720 N   0  0  0  0  0  0  0  0  0  0  0  0
    8.6050   -1.4070    0.4860 C   0  0  2  0  0  0  0  0  0  0  0  0
    8.4000   -0.5500    1.6860 C   0  0  0  0  0  0  0  0  0  0  0  0
    8.0630    0.8590    1.3920 C   0  0  0  0  0  0  0  0  0  0  0  0
    7.8490    1.6000    2.6570 C   0  0  0  0  0  0  0  0  0  0  0  0
    7.7420    0.9560    3.7440 O   0  0  0  0  0  0  0  0  0  0  0  0
    7.7610    2.9770    2.7130 O   0  0  0  0  0  0  0  0  0  0  0  0
    9.8870   -1.1360   -0.2280 C   0  0  0  0  0  0  0  0  0  0  0  0
    9.9240   -1.4350   -1.4700 O   0  0  0  0  0  0  0  0  0  0  0  0
   11.0130   -0.6050    0.3020 O   0  0  0  0  0  0  0  0  0  0  0  0
    4.7220    1.1750   -0.5130 C   0  0  0  0  0  0  0  0  0  0  0  0
    4.4350    1.9380    0.2710 O   0  0  0  0  0  0  0  0  0  0  0  0
    5.8190    1.5640   -1.4190 O   0  0  0  0  0  0  0  0  0  0  0  0
   -0.2400   -0.0010   -0.8000 C   0  0  0  0  0  0  0  0  0  0  0  0
   -1.6440    0.0690   -0.6550 C   0  0  0  0  0  0  0  0  0  0  0  0
   -4.5210   -1.5500    0.1530 C   0  0  1  0  0  0  0  0  0  0  0  0
   -5.0240   -2.4870    1.2000 C   0  0  0  0  0  0  0  0  0  0  0  0
   -6.4420   -2.7950    0.7630 C   0  0  0  0  0  0  0  0  0  0  0  0
   -6.8960   -1.5220    0.1840 C   0  0  0  0  0  0  0  0  0  0  0  0
   -8.1730   -0.9890    0.0150 C   0  0  0  0  0  0  0  0  0  0  0  0
   -8.3790    0.2290   -0.5800 C   0  0  0  0  0  0  0  0  0  0  0  0
   -9.6190    0.7950   -0.6930 N   0  0  0  0  0  0  0  0  0  0  0  0
   -9.7380    2.0040   -1.2190 C   0  0  0  0  0  0  0  0  0  0  0  0
  -11.1110    2.6800   -1.2840 C   0  0  0  0  0  0  0  0  0  0  0  0
  -11.1780    3.4840   -0.1050 O   0  0  0  0  0  0  0  0  0  0  0  0
   -8.6830    2.6860   -1.6550 N   0  0  0  0  0  0  0  0  0  0  0  0
   -7.4630    2.1750   -1.5660 C   0  0  0  0  0  0  0  0  0  0  0  0
   -6.4030    2.7460   -1.9570 O   0  0  0  0  0  0  0  0  0  0  0  0
   -7.2430    0.9030   -1.0110 C   0  0  0  0  0  0  0  0  0  0  0  0
   -5.9990    0.3900   -0.8450 C   0  0  0  0  0  0  0  0  0  0  0  0
   -5.8040   -0.8340   -0.2410 C   0  0  0  0  0  0  0  0  0  0  0  0
  1  2  3  0
  2  3  1  0
  3  4  1  0
  4  5  1  0
 32  4  1  1
  5  6  2  0
  5 31  1  0
  6  7  1  0
  7  8  2  0
  8  9  1  0
  8 30  1  0
  9 10  2  0
  9 11  1  0
 11 12  1  0
 12 13  1  6
 12 27  1  0
 13 14  1  0
 14 15  1  0
 15 16  2  0
 15 17  1  0
 17 18  1  0
 18 19  1  1
 18 24  1  0
 19 20  1  0
 20 21  1  0
 21 22  2  0
 21 23  1  0
 24 25  2  0
 24 26  1  0
 27 28  2  0
 27 29  1  0
 30 31  2  0
 32 33  1  0
 32 47  1  0
 33 34  1  0
 34 35  1  0
 35 36  2  0
 35 47  1  0
 36 37  1  0
 37 38  1  0
 37 45  2  0
 38 39  1  0
 39 40  1  0
 39 42  2  0
 40 41  1  0
 42 43  1  0
 43 44  2  0
 43 45  1  0
 45 46  1  0
 46 47  2  0
M  END
