
     RDKit          3D

 47 50  0  0  0  0  0  0  0  0999 V2000
    7.3770    3.7250   -1.8250 C   0  0  0  0  0  0  0  0  0  0  0  0
    7.3000    2.6460   -0.7410 C   0  0  0  0  0  0  0  0  0  0  0  0
    6.6160    3.1890    0.4740 C   0  0  0  0  0  0  0  0  0  0  0  0
    5.5070    2.7200    0.9870 C   0  0  0  0  0  0  0  0  0  0  0  0
    4.8060    1.6030    0.4240 C   0  0  0  0  0  0  0  0  0  0  0  0
    3.6580    1.1400    0.9670 C   0  0  0  0  0  0  0  0  0  0  0  0
    3.0050    0.0030    0.3410 C   0  0  0  0  0  0  0  0  0  0  0  0
    3.6020   -0.5870   -0.7400 N   0  0  0  0  0  0  0  0  0  0  0  0
    3.1070   -1.6020   -1.3880 N   0  0  0  0  0  0  0  0  0  0  0  0
    1.9520   -2.1330   -1.0180 C   0  0  0  0  0  0  0  0  0  0  0  0
    1.4350   -3.1330   -1.6280 O   0  0  0  0  0  0  0  0  0  0  0  0
    1.2680   -1.6120    0.0560 C   0  0  0  0  0  0  0  0  0  0  0  0
    0.0620   -2.2140    0.5450 C   0  0  0  0  0  0  0  0  0  0  0  0
    0.2450   -2.9650    1.5880 O   0  0  0  0  0  0  0  0  0  0  0  0
   -1.2160   -2.0680    0.0030 N   0  0  0  0  0  0  0  0  0  0  0  0
   -1.5360   -1.3330   -1.1490 C   0  0  0  0  0  0  0  0  0  0  0  0
   -2.1140   -0.0210   -1.2310 C   0  0  0  0  0  0  0  0  0  0  0  0
   -1.6140    1.2730   -0.7930 C   0  0  1  0  0  0  0  0  0  0  0  0
   -0.3470    1.7820   -1.4110 C   0  0  0  0  0  0  0  0  0  0  0  0
   -0.0360    3.1290   -0.8690 C   0  0  0  0  0  0  0  0  0  0  0  0
    0.7340    3.2930    0.2880 C   0  0  0  0  0  0  0  0  0  0  0  0
    0.9950    4.5180    0.8570 C   0  0  0  0  0  0  0  0  0  0  0  0
    0.4880    5.6520    0.2850 C   0  0  0  0  0  0  0  0  0  0  0  0
   -0.2540    5.5140   -0.8280 N   0  0  0  0  0  0  0  0  0  0  0  0
   -0.5150    4.3130   -1.3960 C   0  0  0  0  0  0  0  0  0  0  0  0
   -1.2120    4.3010   -2.4390 O   0  0  0  0  0  0  0  0  0  0  0  0
   -2.6970    2.2820   -0.9660 C   0  0  0  0  0  0  0  0  0  0  0  0
   -2.9670    3.1970    0.0340 C   0  0  0  0  0  0  0  0  0  0  0  0
   -3.9860    4.0780   -0.1420 C   0  0  0  0  0  0  0  0  0  0  0  0
   -4.7550    4.0800   -1.2920 C   0  0  0  0  0  0  0  0  0  0  0  0
   -5.7980    5.0050   -1.4350 O   0  0  0  0  0  0  0  0  0  0  0  0
   -4.5070    3.1850   -2.2920 C   0  0  0  0  0  0  0  0  0  0  0  0
   -3.4540    2.2760   -2.1100 C   0  0  0  0  0  0  0  0  0  0  0  0
   -2.2820   -2.7110    0.8050 C   0  0  0  0  0  0  0  0  0  0  0  0
   -2.5050   -4.1470    0.5460 C   0  0  2  0  0  0  0  0  0  0  0  0
   -2.8890   -4.4350   -0.8570 C   0  0  0  0  0  0  0  0  0  0  0  0
   -3.2520   -5.8790   -1.1310 C   0  0  1  0  0  0  0  0  0  0  0  0
   -2.0590   -6.5970   -1.1790 O   0  0  0  0  0  0  0  0  0  0  0  0
   -4.2190   -6.4590   -0.1710 C   0  0  0  0  0  0  0  0  0  0  0  0
   -4.0620   -6.0060    1.2460 C   0  0  2  0  0  0  0  0  0  0  0  0
   -3.1330   -6.9160    2.0210 C   0  0  0  0  0  0  0  0  0  0  0  0
   -5.4390   -6.1630    1.9180 C   0  0  0  0  0  0  0  0  0  0  0  0
   -3.6720   -4.5960    1.4240 C   0  0  0  0  0  0  0  0  0  0  0  0
    1.8270   -0.5190    0.7410 C   0  0  0  0  0  0  0  0  0  0  0  0
    1.1540   -0.0290    1.9700 C   0  0  0  0  0  0  0  0  0  0  0  0
    7.2580    4.3620    1.1540 C   0  0  0  0  0  0  0  0  0  0  0  0
    6.4800    4.8110    2.3560 C   0  0  0  0  0  0  0  0  0  0  0  0
  1  2  1  0
  2  3  1  0
  3  4  2  3
  3 46  1  0
  4  5  1  0
  5  6  2  3
  6  7  1  0
  7  8  2  0
  7 44  1  0
  8  9  1  0
  9 10  1  0
 10 11  2  0
 10 12  1  0
 12 13  1  0
 12 44  2  0
 13 14  2  0
 13 15  1  0
 15 16  1  0
 15 34  1  0
 16 17  1  0
 18 17  1  6
 18 19  1  0
 18 27  1  0
 19 20  1  0
 20 21  2  0
 20 25  1  0
 21 22  1  0
 22 23  2  0
 23 24  1  0
 24 25  1  0
 25 26  2  0
 27 28  2  0
 27 33  1  0
 28 29  1  0
 29 30  2  0
 30 31  1  0
 30 32  1  0
 32 33  2  0
 35 34  1  6
 35 36  1  0
 35 43  1  0
 36 37  1  0
 37 38  1  1
 37 39  1  0
 39 40  1  0
 40 41  1  1
 40 42  1  0
 40 43  1  0
 44 45  1  0
 46 47  1  0
M  END
