
     RDKit          3D

 20 21  0  0  0  0  0  0  0  0999 V2000
    5.1900    1.0150    0.1830 N   0  0  0  0  0  0  0  0  0  0  0  0
    4.3830    0.8980   -0.8370 C   0  0  0  0  0  0  0  0  0  0  0  0
    3.9740    2.0460   -1.4710 O   0  0  0  0  0  0  0  0  0  0  0  0
    3.9660   -0.4410   -1.2370 C   0  0  0  0  0  0  0  0  0  0  0  0
    2.6080   -0.6780   -1.1880 O   0  0  0  0  0  0  0  0  0  0  0  0
    2.0750   -0.5150    0.0940 C   0  0  1  0  0  0  0  0  0  0  0  0
    1.1140    0.6510    0.0000 C   0  0  0  0  0  0  0  0  0  0  0  0
   -0.2340    0.0150   -0.4130 C   0  0  2  0  0  0  0  0  0  0  0  0
   -0.9990    0.9970   -1.0880 N   0  0  0  0  0  0  0  0  0  0  0  0
   -0.7700   -0.5890    0.8280 C   0  0  1  0  0  0  0  0  0  0  0  0
   -2.1690   -0.9530    0.8950 C   0  0  0  0  0  0  0  0  0  0  0  0
   -2.4290   -2.1700    0.9310 O   0  0  0  0  0  0  0  0  0  0  0  0
   -3.3210   -0.0510    0.9240 C   0  0  1  0  0  0  0  0  0  0  0  0
   -3.0590    1.2880    0.9540 O   0  0  0  0  0  0  0  0  0  0  0  0
   -4.1980    1.9650    0.5800 C   0  0  0  0  0  0  0  0  0  0  0  0
   -5.0090    0.9020   -0.1130 C   0  0  0  0  0  0  0  0  0  0  0  0
   -4.1700   -0.2140   -0.1740 O   0  0  0  0  0  0  0  0  0  0  0  0
    0.1620   -1.7220    1.2180 C   0  0  0  0  0  0  0  0  0  0  0  0
    1.4350   -1.7960    0.4850 C   0  0  1  0  0  0  0  0  0  0  0  0
    1.3030   -2.6690   -0.6210 O   0  0  0  0  0  0  0  0  0  0  0  0
  1  2  2  0
  2  3  1  0
  2  4  1  0
  4  5  1  0
  6  5  1  6
  6  7  1  0
  6 19  1  0
  7  8  1  0
  8  9  1  1
  8 10  1  0
 10 11  1  6
 10 18  1  0
 11 12  2  0
 13 11  1  6
 13 14  1  0
 13 17  1  0
 14 15  1  0
 15 16  1  0
 16 17  1  0
 18 19  1  0
 19 20  1  6
M  CHG  1   9   1
M  END
