
     RDKit          3D

 20 22  0  0  0  0  0  0  0  0999 V2000
   -0.4730   -2.0200   -1.4650 O   0  0  0  0  0  0  0  0  0  0  0  0
   -1.6530   -1.6480   -1.4400 C   0  0  0  0  0  0  0  0  0  0  0  0
   -2.5760   -2.2900   -2.2310 O   0  0  0  0  0  0  0  0  0  0  0  0
   -2.0700   -0.5320   -0.5760 C   0  0  0  0  0  0  0  0  0  0  0  0
   -0.9560    0.0860    0.2260 C   0  0  1  0  0  0  0  0  0  0  0  0
   -0.4120   -0.8520    1.0490 O   0  0  0  0  0  0  0  0  0  0  0  0
    0.9470   -0.7060    1.1440 C   0  0  1  0  0  0  0  0  0  0  0  0
    1.6870   -1.9700    0.9250 C   0  0  0  0  0  0  0  0  0  0  0  0
    2.9180   -1.9360    0.4530 C   0  0  0  0  0  0  0  0  0  0  0  0
    3.5190   -0.6140    0.1560 C   0  0  0  0  0  0  0  0  0  0  0  0
    2.5200    0.1570   -0.5630 N   0  0  0  0  0  0  0  0  0  0  0  0
    1.3520    0.4080    0.2650 C   0  0  1  0  0  0  0  0  0  0  0  0
    0.1560    0.6210   -0.6400 C   0  0  2  0  0  0  0  0  0  0  0  0
   -0.0850    2.0830   -0.6710 C   0  0  0  0  0  0  0  0  0  0  0  0
    0.1000    2.8560   -1.6170 O   0  0  0  0  0  0  0  0  0  0  0  0
   -0.5690    2.4090    0.6080 N   0  0  0  0  0  0  0  0  0  0  0  0
   -1.4190    1.2800    1.0180 C   0  0  1  0  0  0  0  0  0  0  0  0
   -2.8120    1.6330    0.6620 C   0  0  0  0  0  0  0  0  0  0  0  0
   -3.0270    2.7220    0.0730 O   0  0  0  0  0  0  0  0  0  0  0  0
   -3.9240    0.8580    0.9270 O   0  0  0  0  0  0  0  0  0  0  0  0
  1  2  2  0
  2  3  1  0
  2  4  1  0
  5  4  1  6
  5  6  1  0
  5 13  1  0
  5 17  1  0
  7  6  1  6
  7  8  1  0
  7 12  1  0
  8  9  2  0
  9 10  1  0
 10 11  1  0
 12 11  1  6
 12 13  1  0
 13 14  1  1
 14 15  2  0
 14 16  1  0
 16 17  1  0
 17 18  1  6
 18 19  2  0
 18 20  1  0
M  CHG  1  11   1
M  END
