
     RDKit          3D

 20 21  0  0  0  0  0  0  0  0999 V2000
    4.8960   -1.1300   -0.4040 N   0  0  0  0  0  0  0  0  0  0  0  0
    4.0300   -0.3360    0.4500 C   0  0  2  0  0  0  0  0  0  0  0  0
    3.1090   -1.2560    1.2440 C   0  0  0  0  0  0  0  0  0  0  0  0
    1.8630   -0.3730    1.3510 C   0  0  1  0  0  0  0  0  0  0  0  0
    2.1190    0.7620    2.3000 C   0  0  0  0  0  0  0  0  0  0  0  0
    2.7890    0.6170    3.3440 O   0  0  0  0  0  0  0  0  0  0  0  0
    1.5590    1.9800    1.9350 O   0  0  0  0  0  0  0  0  0  0  0  0
    0.4070    1.8980    1.0820 C   0  0  0  0  0  0  0  0  0  0  0  0
    0.7660    1.1200   -0.1890 C   0  0  2  0  0  0  0  0  0  0  0  0
   -0.3800    0.4500   -0.6160 O   0  0  0  0  0  0  0  0  0  0  0  0
   -0.8460    0.9420   -1.8330 C   0  0  0  0  0  0  0  0  0  0  0  0
   -2.0930    0.1170   -2.1680 C   0  0  1  0  0  0  0  0  0  0  0  0
   -1.6790   -1.2010   -2.2510 O   0  0  0  0  0  0  0  0  0  0  0  0
   -3.0220    0.2890   -0.9640 C   0  0  0  0  0  0  0  0  0  0  0  0
   -4.1070   -0.5300   -1.1290 O   0  0  0  0  0  0  0  0  0  0  0  0
   -4.9750   -0.4000   -0.0800 C   0  0  0  0  0  0  0  0  0  0  0  0
   -4.3820   -0.7530    1.2620 C   0  0  0  0  0  0  0  0  0  0  0  0
   -3.9460   -2.0880    1.2570 O   0  0  0  0  0  0  0  0  0  0  0  0
    1.7870    0.1680    0.0370 N   0  0  0  0  0  0  0  0  0  0  0  0
    3.0890    0.5220   -0.4050 C   0  0  0  0  0  0  0  0  0  0  0  0
  2  1  1  6
  2  3  1  0
  2 20  1  0
  4  3  1  6
  4  5  1  0
  4 19  1  0
  5  6  2  0
  5  7  1  0
  7  8  1  0
  8  9  1  0
  9 10  1  1
  9 19  1  0
 10 11  1  0
 11 12  1  0
 12 13  1  1
 12 14  1  0
 14 15  1  0
 15 16  1  0
 16 17  1  0
 17 18  1  0
 19 20  1  0
M  CHG  1   1   1
M  END
