
     RDKit          3D

 19 20  0  0  0  0  0  0  0  0999 V2000
   -5.5100   -0.7040   -1.0060 O   0  0  0  0  0  0  0  0  0  0  0  0
   -4.4280   -1.1130   -0.4940 C   0  0  0  0  0  0  0  0  0  0  0  0
   -4.2650   -2.4630   -0.2790 O   0  0  0  0  0  0  0  0  0  0  0  0
   -3.3720   -0.1590   -0.1390 C   0  0  2  0  0  0  0  0  0  0  0  0
   -2.9500    0.7180   -1.2790 C   0  0  0  0  0  0  0  0  0  0  0  0
   -1.5170    1.1780   -1.1050 C   0  0  2  0  0  0  0  0  0  0  0  0
   -0.6070    0.2440   -1.6120 O   0  0  0  0  0  0  0  0  0  0  0  0
   -1.2980    1.3840    0.3860 C   0  0  0  0  0  0  0  0  0  0  0  0
   -1.4030    0.0590    1.1160 C   0  0  2  0  0  0  0  0  0  0  0  0
   -0.0040   -0.4710    1.2180 C   0  0  0  0  0  0  0  0  0  0  0  0
    0.2290   -1.5800    0.7240 O   0  0  0  0  0  0  0  0  0  0  0  0
    0.9720    0.3130    1.8670 N   0  0  0  0  0  0  0  0  0  0  0  0
    2.3150   -0.0750    2.0040 C   0  0  0  0  0  0  0  0  0  0  0  0
    3.1950   -0.2060    0.8450 C   0  0  1  0  0  0  0  0  0  0  0  0
    2.8260   -1.1360   -0.2720 C   0  0  0  0  0  0  0  0  0  0  0  0
    4.1200   -0.8850   -1.1230 C   0  0  0  0  0  0  0  0  0  0  0  0
    4.1850    0.6220   -0.9690 C   0  0  0  0  0  0  0  0  0  0  0  0
    3.3840    0.9800    0.1120 O   0  0  0  0  0  0  0  0  0  0  0  0
   -2.2390   -0.8740    0.4280 N   0  0  0  0  0  0  0  0  0  0  0  0
  1  2  2  0
  2  3  1  0
  4  2  1  6
  4  5  1  0
  4 19  1  0
  5  6  1  0
  6  7  1  1
  6  8  1  0
  8  9  1  0
  9 10  1  6
  9 19  1  0
 10 11  2  0
 10 12  1  0
 12 13  1  0
 14 13  1  1
 14 15  1  0
 14 18  1  0
 15 16  1  0
 16 17  1  0
 17 18  1  0
M  CHG  1  19   1
M  END
