
     RDKit          3D

 20 21  0  0  0  0  0  0  0  0999 V2000
    0.0250   -3.5600   -0.3600 N   0  0  0  0  0  0  0  0  0  0  0  0
   -0.1050   -2.1150   -0.4330 C   0  0  0  0  0  0  0  0  0  0  0  0
    0.6810   -1.4160    0.3510 C   0  0  0  0  0  0  0  0  0  0  0  0
    1.6020   -2.0710    1.2170 O   0  0  0  0  0  0  0  0  0  0  0  0
    2.7820   -1.3630    1.6380 C   0  0  0  0  0  0  0  0  0  0  0  0
    3.1960   -0.5870    0.3830 C   0  0  0  0  0  0  0  0  0  0  0  0
    2.1790    0.5170    0.2280 C   0  0  1  0  0  0  0  0  0  0  0  0
    2.3400    1.0690   -1.1030 N   0  0  0  0  0  0  0  0  0  0  0  0
    0.7570    0.0480    0.4740 C   0  0  1  0  0  0  0  0  0  0  0  0
   -0.1460    0.7520   -0.2550 O   0  0  0  0  0  0  0  0  0  0  0  0
   -0.2310    2.0640    0.2110 C   0  0  0  0  0  0  0  0  0  0  0  0
   -1.2200    2.7980   -0.6370 C   0  0  0  0  0  0  0  0  0  0  0  0
   -2.5420    2.7340   -0.2460 O   0  0  0  0  0  0  0  0  0  0  0  0
   -3.4200    1.7080   -0.1750 C   0  0  0  0  0  0  0  0  0  0  0  0
   -4.4850    1.6760   -0.8470 O   0  0  0  0  0  0  0  0  0  0  0  0
   -3.1710    0.5470    0.7150 C   0  0  0  0  0  0  0  0  0  0  0  0
   -3.0170   -0.7490   -0.0350 C   0  0  0  0  0  0  0  0  0  0  0  0
   -2.1160   -0.7230   -1.0930 O   0  0  0  0  0  0  0  0  0  0  0  0
   -1.1000   -1.6350   -1.3780 C   0  0  0  0  0  0  0  0  0  0  0  0
   -1.0760   -2.0650   -2.5980 O   0  0  0  0  0  0  0  0  0  0  0  0
  1  2  1  0
  2  3  2  0
  2 19  1  0
  3  4  1  0
  3  9  1  0
  4  5  1  0
  5  6  1  0
  6  7  1  0
  7  8  1  6
  7  9  1  0
  9 10  1  6
 10 11  1  0
 11 12  1  0
 12 13  1  0
 13 14  1  0
 14 15  2  0
 14 16  1  0
 16 17  1  0
 17 18  1  0
 18 19  1  0
 19 20  2  0
M  CHG  1   8   1
M  END
