
     RDKit          3D

 22 22  0  0  0  0  0  0  0  0999 V2000
    4.5360    0.0110    1.0950 O   0  0  0  0  0  0  0  0  0  0  0  0
    4.6540   -0.9090    0.0330 C   0  0  0  0  0  0  0  0  0  0  0  0
    3.4060   -1.0230   -0.5630 O   0  0  0  0  0  0  0  0  0  0  0  0
    2.4670   -1.4700    0.3280 C   0  0  2  0  0  0  0  0  0  0  0  0
    2.0400   -2.7260    0.0070 O   0  0  0  0  0  0  0  0  0  0  0  0
    1.4110   -0.4600    0.6600 C   0  0  0  0  0  0  0  0  0  0  0  0
    0.6000    0.0580   -0.4550 C   0  0  1  0  0  0  0  0  0  0  0  0
    1.4940    0.6870   -1.3510 O   0  0  0  0  0  0  0  0  0  0  0  0
   -0.0660   -1.0450   -1.2090 C   0  0  2  0  0  0  0  0  0  0  0  0
   -0.6400   -0.6180   -2.4070 O   0  0  0  0  0  0  0  0  0  0  0  0
   -1.1620   -1.7070   -0.4120 C   0  0  0  0  0  0  0  0  0  0  0  0
   -2.2430   -0.6220   -0.2640 C   0  0  1  0  0  0  0  0  0  0  0  0
   -3.3570   -1.2610    0.5330 C   0  0  1  0  0  0  0  0  0  0  0  0
   -2.8900   -1.6690    1.7810 O   0  0  0  0  0  0  0  0  0  0  0  0
   -4.4860   -0.4810    0.6110 O   0  0  0  0  0  0  0  0  0  0  0  0
   -1.6430    0.4810    0.5280 C   0  0  0  0  0  0  0  0  0  0  0  0
   -0.4280    1.1270   -0.0590 C   0  0  1  0  0  0  0  0  0  0  0  0
    0.1050    2.0640    1.0030 C   0  0  0  0  0  0  0  0  0  0  0  0
    0.2930    1.4410    2.2350 O   0  0  0  0  0  0  0  0  0  0  0  0
   -0.6440    1.8090   -1.2460 O   0  0  0  0  0  0  0  0  0  0  0  0
   -1.5300    2.8330   -1.1940 C   0  0  0  0  0  0  0  0  0  0  0  0
   -1.5950    3.3800   -2.5000 O   0  0  0  0  0  0  0  0  0  0  0  0
  1  2  1  0
  2  3  1  0
  3  4  1  0
  4  5  1  6
  4  6  1  0
  6  7  1  0
  7  8  1  6
  7  9  1  0
  7 17  1  0
  9 10  1  6
  9 11  1  0
 12 11  1  1
 12 13  1  0
 12 16  1  0
 13 14  1  1
 13 15  1  0
 16 17  1  0
 17 18  1  1
 17 20  1  0
 18 19  1  0
 20 21  1  0
 21 22  1  0
M  END
