
     RDKit          3D

 23 24  0  0  0  0  0  0  0  0999 V2000
   -3.1630   -1.3670    1.8340 C   0  0  0  0  0  0  0  0  0  0  0  0
   -2.5800   -0.8820    0.5060 C   0  0  2  0  0  0  0  0  0  0  0  0
   -2.9530   -1.8530   -0.4510 O   0  0  0  0  0  0  0  0  0  0  0  0
   -1.2300   -0.8950    0.6090 O   0  0  0  0  0  0  0  0  0  0  0  0
   -0.5360    0.0690   -0.0370 C   0  0  2  0  0  0  0  0  0  0  0  0
    0.8400   -0.4700   -0.4510 C   0  0  0  0  0  0  0  0  0  0  0  0
    1.7240    0.7290   -0.4650 C   0  0  2  0  0  0  0  0  0  0  0  0
    2.0390    1.0310   -1.7790 O   0  0  0  0  0  0  0  0  0  0  0  0
    2.9760    0.6070    0.3290 C   0  0  2  0  0  0  0  0  0  0  0  0
    3.6520    1.8270    0.2650 O   0  0  0  0  0  0  0  0  0  0  0  0
    3.9210   -0.4580   -0.1100 C   0  0  1  0  0  0  0  0  0  0  0  0
    4.3600   -0.2470   -1.4000 O   0  0  0  0  0  0  0  0  0  0  0  0
    5.0970   -0.4260    0.8070 C   0  0  0  0  0  0  0  0  0  0  0  0
    6.2560   -0.2300    0.3670 O   0  0  0  0  0  0  0  0  0  0  0  0
    4.9550   -0.6110    2.1820 O   0  0  0  0  0  0  0  0  0  0  0  0
    0.9510    1.7670    0.1480 O   0  0  0  0  0  0  0  0  0  0  0  0
   -0.0780    1.1790    0.8750 C   0  0  0  0  0  0  0  0  0  0  0  0
   -0.5300    1.4780    2.0070 O   0  0  0  0  0  0  0  0  0  0  0  0
   -1.1830    0.6740   -1.0930 O   0  0  0  0  0  0  0  0  0  0  0  0
   -2.2510    1.3810   -0.5390 C   0  0  0  0  0  0  0  0  0  0  0  0
   -3.2040    0.4060    0.0930 C   0  0  1  0  0  0  0  0  0  0  0  0
   -4.3260    0.1710   -0.9140 C   0  0  0  0  0  0  0  0  0  0  0  0
   -5.3260   -0.6220   -0.4010 O   0  0  0  0  0  0  0  0  0  0  0  0
  2  1  1  1
  2  3  1  0
  2  4  1  0
  2 21  1  0
  4  5  1  0
  5  6  1  6
  5 17  1  0
  5 19  1  0
  6  7  1  0
  7  8  1  6
  7  9  1  0
  7 16  1  0
  9 10  1  6
  9 11  1  0
 11 12  1  6
 11 13  1  0
 13 14  2  0
 13 15  1  0
 16 17  1  0
 17 18  2  0
 19 20  1  0
 20 21  1  0
 21 22  1  6
 22 23  1  0
M  END
