
     RDKit          3D

 22 23  0  0  0  0  0  0  0  0999 V2000
   -4.4840    0.2940   -1.0490 O   0  0  0  0  0  0  0  0  0  0  0  0
   -3.6470    0.5220   -0.1560 C   0  0  0  0  0  0  0  0  0  0  0  0
   -3.6750    1.7110    0.5270 O   0  0  0  0  0  0  0  0  0  0  0  0
   -4.6170    2.7340    0.2840 C   0  0  0  0  0  0  0  0  0  0  0  0
   -4.3330    3.7830    1.1660 O   0  0  0  0  0  0  0  0  0  0  0  0
   -2.6230   -0.4740    0.1770 C   0  0  1  0  0  0  0  0  0  0  0  0
   -2.7270   -1.7250   -0.6640 C   0  0  0  0  0  0  0  0  0  0  0  0
   -1.6900   -2.7080   -0.2770 C   0  0  2  0  0  0  0  0  0  0  0  0
   -2.3610   -3.8030    0.3220 O   0  0  0  0  0  0  0  0  0  0  0  0
   -0.6040   -2.2340    0.6010 C   0  0  0  0  0  0  0  0  0  0  0  0
   -0.2730   -0.8030    0.6140 C   0  0  1  0  0  0  0  0  0  0  0  0
    0.9970   -0.5570    0.0380 O   0  0  0  0  0  0  0  0  0  0  0  0
    1.7830    0.1180    0.9700 C   0  0  1  0  0  0  0  0  0  0  0  0
    2.9100   -0.6920    1.1940 O   0  0  0  0  0  0  0  0  0  0  0  0
    3.6060   -0.5440    0.0100 C   0  0  2  0  0  0  0  0  0  0  0  0
    4.9420   -0.8510    0.2460 O   0  0  0  0  0  0  0  0  0  0  0  0
    3.3960    0.9130   -0.3150 C   0  0  2  0  0  0  0  0  0  0  0  0
    3.0550    1.1200   -1.6500 O   0  0  0  0  0  0  0  0  0  0  0  0
    4.6720    1.6430    0.0430 C   0  0  0  0  0  0  0  0  0  0  0  0
    5.6770    1.1430   -0.7860 O   0  0  0  0  0  0  0  0  0  0  0  0
    2.3300    1.2710    0.4680 O   0  0  0  0  0  0  0  0  0  0  0  0
   -1.2320    0.0770   -0.1710 C   0  0  0  0  0  0  0  0  0  0  0  0
  1  2  2  0
  2  3  1  0
  6  2  1  6
  3  4  1  0
  4  5  1  0
  6  7  1  0
  6 22  1  0
  7  8  1  0
  8  9  1  1
  8 10  1  0
 10 11  1  0
 11 12  1  6
 11 22  1  0
 13 12  1  6
 13 14  1  0
 13 21  1  0
 14 15  1  0
 15 16  1  1
 15 17  1  0
 17 18  1  6
 17 19  1  0
 17 21  1  0
 19 20  1  0
M  END
