
     RDKit          3D

 22 23  0  0  0  0  0  0  0  0999 V2000
    3.3610   -1.4680    0.3780 O   0  0  0  0  0  0  0  0  0  0  0  0
    3.4380   -0.2140    0.4120 C   0  0  0  0  0  0  0  0  0  0  0  0
    4.3970    0.4510    1.3690 C   0  0  0  0  0  0  0  0  0  0  0  0
    4.3360    1.8190    1.2590 O   0  0  0  0  0  0  0  0  0  0  0  0
    2.6390    0.5220   -0.4290 O   0  0  0  0  0  0  0  0  0  0  0  0
    1.7190    0.0350   -1.3450 C   0  0  0  0  0  0  0  0  0  0  0  0
    0.5820   -0.7450   -0.7970 C   0  0  1  0  0  0  0  0  0  0  0  0
   -0.2220   -1.1190   -1.9070 O   0  0  0  0  0  0  0  0  0  0  0  0
    0.8990   -1.9230   -0.1710 O   0  0  0  0  0  0  0  0  0  0  0  0
   -0.0000   -2.3350    0.7820 C   0  0  2  0  0  0  0  0  0  0  0  0
    0.1280   -3.7380    0.8960 O   0  0  0  0  0  0  0  0  0  0  0  0
   -1.4370   -2.0620    0.4270 C   0  0  1  0  0  0  0  0  0  0  0  0
   -2.2220   -2.3860    1.5300 O   0  0  0  0  0  0  0  0  0  0  0  0
   -1.6790   -0.6170    0.0700 C   0  0  1  0  0  0  0  0  0  0  0  0
   -2.5990   -0.0060    0.8780 O   0  0  0  0  0  0  0  0  0  0  0  0
   -2.7290    1.3250    0.6080 C   0  0  2  0  0  0  0  0  0  0  0  0
   -3.3720    1.6290   -0.6910 C   0  0  0  0  0  0  0  0  0  0  0  0
   -3.7800    0.7970   -1.5070 O   0  0  0  0  0  0  0  0  0  0  0  0
   -3.5250    2.9790   -1.0120 O   0  0  0  0  0  0  0  0  0  0  0  0
   -1.4480    2.1130    0.6870 C   0  0  0  0  0  0  0  0  0  0  0  0
   -0.4580    1.4820   -0.2720 C   0  0  0  0  0  0  0  0  0  0  0  0
   -0.3000    0.0530    0.1350 C   0  0  2  0  0  0  0  0  0  0  0  0
  1  2  2  0
  2  3  1  0
  2  5  1  0
  3  4  1  0
  5  6  1  0
  6  7  1  0
  7  8  1  6
  7  9  1  0
  7 22  1  0
  9 10  1  0
 10 11  1  6
 10 12  1  0
 12 13  1  1
 12 14  1  0
 14 15  1  1
 14 22  1  0
 15 16  1  0
 16 17  1  6
 16 20  1  0
 17 18  2  0
 17 19  1  0
 20 21  1  0
 22 21  1  6
M  END
