
     RDKit          3D

 21 24  0  0  0  0  0  0  0  0999 V2000
    2.5280   -0.8380    2.0640 O   0  0  0  0  0  0  0  0  0  0  0  0
    2.3030   -0.3320    0.9540 C   0  0  0  0  0  0  0  0  0  0  0  0
    0.9620   -0.1530    0.5230 N   0  0  0  0  0  0  0  0  0  0  0  0
   -0.2090   -0.4910    1.2310 C   0  0  0  0  0  0  0  0  0  0  0  0
   -0.1710   -0.9950    2.5230 C   0  0  0  0  0  0  0  0  0  0  0  0
   -1.3200   -1.3160    3.2270 C   0  0  0  0  0  0  0  0  0  0  0  0
   -2.5230   -1.1250    2.6170 C   0  0  0  0  0  0  0  0  0  0  0  0
   -2.5950   -0.6230    1.3270 C   0  0  0  0  0  0  0  0  0  0  0  0
   -3.8270   -0.4370    0.7210 C   0  0  0  0  0  0  0  0  0  0  0  0
   -3.9880    0.0540   -0.5550 C   0  0  0  0  0  0  0  0  0  0  0  0
   -2.8500    0.3710   -1.2500 C   0  0  0  0  0  0  0  0  0  0  0  0
   -1.5860    0.1950   -0.6690 C   0  0  0  0  0  0  0  0  0  0  0  0
   -1.4570   -0.2990    0.6140 C   0  0  0  0  0  0  0  0  0  0  0  0
   -3.2470    0.8320   -2.4760 O   0  0  0  0  0  0  0  0  0  0  0  0
   -4.6500    1.0460   -2.5020 C   0  0  0  0  0  0  0  0  0  0  0  0
   -5.0890    0.3260   -1.3680 O   0  0  0  0  0  0  0  0  0  0  0  0
    3.4240    0.0880    0.0720 C   0  0  0  0  0  0  0  0  0  0  0  0
    3.3620    0.6350   -1.1220 C   0  0  0  0  0  0  0  0  0  0  0  0
    4.7290    0.8930   -1.6440 C   0  0  0  0  0  0  0  0  0  0  0  0
    5.5920    0.4050   -0.5540 C   0  0  0  0  0  0  0  0  0  0  0  0
    4.8250   -0.0560    0.4290 C   0  0  0  0  0  0  0  0  0  0  0  0
  1  2  2  0
  2  3  1  0
  2 17  1  0
  3  4  1  0
  4  5  2  0
  4 13  1  0
  5  6  1  0
  6  7  2  0
  7  8  1  0
  8  9  2  0
  8 13  1  0
  9 10  1  0
 10 11  2  0
 10 16  1  0
 11 12  1  0
 11 14  1  0
 12 13  2  0
 14 15  1  0
 15 16  1  0
 17 18  2  0
 17 21  1  0
 18 19  1  0
 19 20  1  0
 20 21  2  0
M  END
