
     RDKit          3D

 21 23  0  0  0  0  0  0  0  0999 V2000
    5.0740   -0.6070   -0.8590 C   0  0  0  0  0  0  0  0  0  0  0  0
    3.7770   -0.1960   -1.1930 O   0  0  0  0  0  0  0  0  0  0  0  0
    2.8330    0.1780   -0.2080 C   0  0  0  0  0  0  0  0  0  0  0  0
    3.2120    0.9870    0.7130 C   0  0  0  0  0  0  0  0  0  0  0  0
    2.3930    1.4230    1.7480 O   0  0  0  0  0  0  0  0  0  0  0  0
    1.5250   -0.3960   -0.3690 C   0  0  0  0  0  0  0  0  0  0  0  0
    0.3790    0.3000   -0.1230 C   0  0  0  0  0  0  0  0  0  0  0  0
   -0.8400   -0.3790   -0.0680 C   0  0  0  0  0  0  0  0  0  0  0  0
   -2.0190    0.2930    0.1620 C   0  0  0  0  0  0  0  0  0  0  0  0
   -3.2180   -0.4470    0.1890 C   0  0  0  0  0  0  0  0  0  0  0  0
   -3.2110   -1.8000   -0.0100 C   0  0  0  0  0  0  0  0  0  0  0  0
   -4.4640   -2.5770    0.0190 C   0  0  0  0  0  0  0  0  0  0  0  0
   -2.0160   -2.4370   -0.2390 C   0  0  0  0  0  0  0  0  0  0  0  0
   -0.8110   -1.7560   -0.2760 C   0  0  0  0  0  0  0  0  0  0  0  0
    0.3180   -2.4370   -0.5240 N   0  0  0  0  0  0  0  0  0  0  0  0
    1.4660   -1.8030   -0.5750 C   0  0  0  0  0  0  0  0  0  0  0  0
    2.5800   -2.3480   -0.8020 O   0  0  0  0  0  0  0  0  0  0  0  0
   -2.0740    1.7580    0.3350 C   0  0  0  0  0  0  0  0  0  0  0  0
   -0.7710    2.4080    0.2410 C   0  0  0  0  0  0  0  0  0  0  0  0
   -0.7250    3.9110    0.3900 C   0  0  0  0  0  0  0  0  0  0  0  0
    0.3490    1.7420    0.0340 C   0  0  0  0  0  0  0  0  0  0  0  0
  1  2  1  0
  2  3  1  0
  3  4  2  3
  3  6  1  0
  4  5  1  0
  6  7  2  0
  6 16  1  0
  7  8  1  0
  7 21  1  0
  8  9  2  0
  8 14  1  0
  9 10  1  0
  9 18  1  0
 10 11  2  0
 11 12  1  0
 11 13  1  0
 13 14  2  0
 14 15  1  0
 15 16  1  0
 16 17  2  0
 18 19  1  0
 19 20  1  0
 19 21  2  0
M  END
