
     RDKit          3D

 21 23  0  0  0  0  0  0  0  0999 V2000
   -4.4110   -1.3370    0.2960 C   0  0  0  0  0  0  0  0  0  0  0  0
   -3.3180   -0.9180   -0.2300 C   0  0  0  0  0  0  0  0  0  0  0  0
   -2.5000   -1.7670   -1.1710 C   0  0  0  0  0  0  0  0  0  0  0  0
   -1.1810   -1.9500   -0.4030 C   0  0  0  0  0  0  0  0  0  0  0  0
   -0.5410   -0.6800   -0.0750 C   0  0  0  0  0  0  0  0  0  0  0  0
   -1.2720    0.4780    0.1300 C   0  0  0  0  0  0  0  0  0  0  0  0
   -0.6480    1.6120    0.4070 N   0  0  0  0  0  0  0  0  0  0  0  0
    0.7040    1.7510    0.5140 C   0  0  0  0  0  0  0  0  0  0  0  0
    1.1900    2.8760    0.7810 O   0  0  0  0  0  0  0  0  0  0  0  0
    1.4760    0.6420    0.3240 C   0  0  0  0  0  0  0  0  0  0  0  0
    2.9310    0.6750    0.4150 C   0  0  0  0  0  0  0  0  0  0  0  0
    3.7250    1.7600    0.6920 C   0  0  0  0  0  0  0  0  0  0  0  0
    5.0370    1.2740    0.6650 C   0  0  0  0  0  0  0  0  0  0  0  0
    4.9660   -0.0730    0.3750 C   0  0  0  0  0  0  0  0  0  0  0  0
    6.1840   -0.9250    0.2640 C   0  0  0  0  0  0  0  0  0  0  0  0
    3.7180   -0.3680    0.2390 O   0  0  0  0  0  0  0  0  0  0  0  0
    0.8580   -0.5800    0.0290 C   0  0  0  0  0  0  0  0  0  0  0  0
    1.6270   -1.7020   -0.1620 O   0  0  0  0  0  0  0  0  0  0  0  0
   -2.7520    0.3890    0.0520 C   0  0  0  0  0  0  0  0  0  0  0  0
   -3.4990    1.4450    0.1790 C   0  0  0  0  0  0  0  0  0  0  0  0
   -4.9760    1.4540    0.0500 C   0  0  0  0  0  0  0  0  0  0  0  0
  1  2  2  0
  2  3  1  0
  2 19  1  0
  3  4  1  0
  4  5  1  0
  5  6  2  0
  5 17  1  0
  6  7  1  0
  6 19  1  0
  7  8  1  0
  8  9  2  0
  8 10  1  0
 10 11  1  0
 10 17  2  0
 11 12  2  0
 11 16  1  0
 12 13  1  0
 13 14  2  0
 14 15  1  0
 14 16  1  0
 17 18  1  0
 19 20  2  3
 20 21  1  0
M  END
