
     RDKit          3D

 12 12  0  0  0  0  0  0  0  0999 V2000
   -2.6640    1.7410   -0.6960 O   0  0  0  0  0  0  0  0  0  0  0  0
   -2.3850    0.3980   -0.7430 C   0  0  0  0  0  0  0  0  0  0  0  0
   -1.4170   -0.0240    0.3700 C   0  0  1  0  0  0  0  0  0  0  0  0
   -1.2220   -1.3750    0.2140 O   0  0  0  0  0  0  0  0  0  0  0  0
   -0.2720   -1.9190    1.0520 C   0  0  0  0  0  0  0  0  0  0  0  0
    1.0850   -1.2510    0.9190 C   0  0  0  0  0  0  0  0  0  0  0  0
    0.9350   -0.2010   -0.1770 C   0  0  2  0  0  0  0  0  0  0  0  0
    0.4760   -0.8570   -1.3000 O   0  0  0  0  0  0  0  0  0  0  0  0
    2.2510    0.4650   -0.4780 C   0  0  0  0  0  0  0  0  0  0  0  0
    2.7740    1.1430    0.6010 O   0  0  0  0  0  0  0  0  0  0  0  0
   -0.1230    0.7470    0.2880 C   0  0  1  0  0  0  0  0  0  0  0  0
   -0.2070    1.9120   -0.4260 O   0  0  0  0  0  0  0  0  0  0  0  0
  1  2  1  0
  3  2  1  6
  3  4  1  0
  3 11  1  0
  4  5  1  0
  5  6  1  0
  6  7  1  0
  7  8  1  6
  7  9  1  0
  7 11  1  0
  9 10  1  0
 11 12  1  6
M  END
