
     RDKit          3D

 12 11  0  0  0  0  0  0  0  0999 V2000
   -1.5970   -1.6780   -0.3300 C   0  0  0  0  0  0  0  0  0  0  0  0
   -1.4870   -0.2040   -0.0490 C   0  0  2  0  0  0  0  0  0  0  0  0
   -1.3520   -0.0080    1.3140 O   0  0  0  0  0  0  0  0  0  0  0  0
   -2.8520    0.3970   -0.4220 C   0  0  0  0  0  0  0  0  0  0  0  0
   -2.8640    1.7480   -0.1010 O   0  0  0  0  0  0  0  0  0  0  0  0
   -0.4690    0.4990   -0.8660 C   0  0  0  0  0  0  0  0  0  0  0  0
    0.9300    0.0320   -0.7300 C   0  0  1  0  0  0  0  0  0  0  0  0
    1.1150   -1.2890   -1.0710 O   0  0  0  0  0  0  0  0  0  0  0  0
    1.7100    0.7940   -1.6320 O   0  0  0  0  0  0  0  0  0  0  0  0
    1.5230    0.2850    0.6380 C   0  0  0  0  0  0  0  0  0  0  0  0
    2.9670   -0.2280    0.6860 C   0  0  0  0  0  0  0  0  0  0  0  0
    3.7350    0.4400   -0.2810 O   0  0  0  0  0  0  0  0  0  0  0  0
  2  1  1  1
  2  3  1  0
  2  4  1  0
  2  6  1  0
  4  5  1  0
  6  7  1  0
  7  8  1  6
  7  9  1  0
  7 10  1  0
 10 11  1  0
 11 12  1  0
M  END
