
     RDKit          3D

 12 12  0  0  0  0  0  0  0  0999 V2000
   -3.7250   -0.5260   -0.8680 O   0  0  0  0  0  0  0  0  0  0  0  0
   -2.3470   -0.7720   -0.7300 C   0  0  0  0  0  0  0  0  0  0  0  0
   -1.7910    0.3010    0.1460 C   0  0  1  0  0  0  0  0  0  0  0  0
   -2.4130    0.2720    1.3920 O   0  0  0  0  0  0  0  0  0  0  0  0
   -0.3160    0.2370    0.3470 C   0  0  1  0  0  0  0  0  0  0  0  0
    0.1670   -1.0310    0.9780 C   0  0  0  0  0  0  0  0  0  0  0  0
    1.4420   -0.7620    1.4910 O   0  0  0  0  0  0  0  0  0  0  0  0
    2.3570   -0.4360    0.5330 C   0  0  2  0  0  0  0  0  0  0  0  0
    3.4790    0.1060    1.2060 O   0  0  0  0  0  0  0  0  0  0  0  0
    1.9300    0.5500   -0.4840 C   0  0  2  0  0  0  0  0  0  0  0  0
    2.1250    1.8590   -0.0130 O   0  0  0  0  0  0  0  0  0  0  0  0
    0.4890    0.4290   -0.9080 C   0  0  0  0  0  0  0  0  0  0  0  0
  1  2  1  0
  2  3  1  0
  3  4  1  1
  3  5  1  0
  5  6  1  6
  5 12  1  0
  6  7  1  0
  7  8  1  0
  8  9  1  1
  8 10  1  0
 10 11  1  1
 10 12  1  0
M  END
