
     RDKit          3D

 12 12  0  0  0  0  0  0  0  0999 V2000
    4.5850   -0.3410   -0.0700 O   0  0  0  0  0  0  0  0  0  0  0  0
    3.1710   -0.5710   -0.1820 C   0  0  0  0  0  0  0  0  0  0  0  0
    2.5840   -0.2060    0.9900 O   0  0  0  0  0  0  0  0  0  0  0  0
    1.2400   -0.3870    1.0470 C   0  0  0  0  0  0  0  0  0  0  0  0
    0.4160    0.3570    0.0380 C   0  0  1  0  0  0  0  0  0  0  0  0
    0.6450   -0.0080   -1.2680 O   0  0  0  0  0  0  0  0  0  0  0  0
   -1.0590    0.2560    0.3500 C   0  0  1  0  0  0  0  0  0  0  0  0
   -1.3200    0.6320    1.6780 O   0  0  0  0  0  0  0  0  0  0  0  0
   -1.8710    1.1510   -0.5630 C   0  0  0  0  0  0  0  0  0  0  0  0
   -3.2390    0.4730   -0.4100 C   0  0  0  0  0  0  0  0  0  0  0  0
   -2.9350   -0.8610   -0.4620 O   0  0  0  0  0  0  0  0  0  0  0  0
   -1.6650   -1.0810    0.0420 C   0  0  0  0  0  0  0  0  0  0  0  0
  1  2  1  0
  2  3  1  0
  3  4  1  0
  4  5  1  0
  5  6  1  6
  5  7  1  0
  7  8  1  1
  7  9  1  0
  7 12  1  0
  9 10  1  0
 10 11  1  0
 11 12  1  0
M  END
