
     RDKit          3D

 23 26  0  0  0  0  0  0  0  0999 V2000
   -5.2160    2.1390   -0.5970 C   0  0  0  0  0  0  0  0  0  0  0  0
   -4.3180    1.0450   -0.1470 C   0  0  0  0  0  0  0  0  0  0  0  0
   -2.9480    1.1250   -0.3030 C   0  0  0  0  0  0  0  0  0  0  0  0
   -2.0810    0.1440    0.0950 C   0  0  0  0  0  0  0  0  0  0  0  0
   -0.6350    0.2160   -0.0630 C   0  0  0  0  0  0  0  0  0  0  0  0
    0.0380    1.2710   -0.6270 C   0  0  0  0  0  0  0  0  0  0  0  0
    1.4070    1.2890   -0.7530 C   0  0  0  0  0  0  0  0  0  0  0  0
    2.1630    0.2190   -0.3030 C   0  0  0  0  0  0  0  0  0  0  0  0
    3.5760    0.1890   -0.4090 N   0  0  0  0  0  0  0  0  0  0  0  0
    4.3970   -0.9100    0.0500 C   0  0  0  0  0  0  0  0  0  0  0  0
    5.7060   -0.2340    0.3520 C   0  0  1  0  0  0  0  0  0  0  0  0
    6.8540   -1.1700    0.0330 C   0  0  0  0  0  0  0  0  0  0  0  0
    5.7190    0.9080   -0.6370 C   0  0  0  0  0  0  0  0  0  0  0  0
    4.3530    1.2070   -0.9650 N   0  0  0  0  0  0  0  0  0  0  0  0
    1.4670   -0.7980    0.2460 N   0  0  0  0  0  0  0  0  0  0  0  0
    0.1620   -0.8090    0.3620 N   0  0  0  0  0  0  0  0  0  0  0  0
   -2.6240   -0.9760    0.6800 C   0  0  0  0  0  0  0  0  0  0  0  0
   -3.9960   -1.1100    0.8620 C   0  0  0  0  0  0  0  0  0  0  0  0
   -4.8590   -0.1000    0.4490 C   0  0  0  0  0  0  0  0  0  0  0  0
   -6.1840   -0.4700    0.7430 N   0  0  0  0  0  0  0  0  0  0  0  0
   -6.2050   -1.8960    0.9880 C   0  0  0  0  0  0  0  0  0  0  0  0
   -4.8370   -2.1530    1.4320 C   0  0  0  0  0  0  0  0  0  0  0  0
   -4.4600   -3.0920    2.1650 O   0  0  0  0  0  0  0  0  0  0  0  0
  1  2  1  0
  2  3  2  0
  2 19  1  0
  3  4  1  0
  4  5  1  0
  4 17  2  0
  5  6  2  0
  5 16  1  0
  6  7  1  0
  7  8  2  0
  8  9  1  0
  8 15  1  0
  9 10  1  0
  9 14  1  0
 10 11  1  0
 11 12  1  6
 11 13  1  0
 13 14  1  0
 15 16  2  0
 17 18  1  0
 18 19  2  0
 18 22  1  0
 19 20  1  0
 20 21  1  0
 21 22  1  0
 22 23  2  0
M  END
