
     RDKit          3D

 23 26  0  0  0  0  0  0  0  0999 V2000
   -1.7520    2.4980    1.3830 C   0  0  0  0  0  0  0  0  0  0  0  0
   -1.2130    1.1660    1.8590 C   0  0  0  0  0  0  0  0  0  0  0  0
   -1.2710    0.1350    0.7940 C   0  0  0  0  0  0  0  0  0  0  0  0
   -0.1090   -0.2500    0.1070 C   0  0  0  0  0  0  0  0  0  0  0  0
   -0.1340   -1.1980   -0.8790 C   0  0  0  0  0  0  0  0  0  0  0  0
    1.0210   -1.6560   -1.6390 C   0  0  0  0  0  0  0  0  0  0  0  0
    0.9000   -2.6180   -2.6180 N   0  0  0  0  0  0  0  0  0  0  0  0
    2.1120   -2.7980   -3.1000 N   0  0  0  0  0  0  0  0  0  0  0  0
    2.9680   -2.0090   -2.4810 N   0  0  0  0  0  0  0  0  0  0  0  0
    2.2820   -1.2830   -1.5540 N   0  0  0  0  0  0  0  0  0  0  0  0
    2.9040   -0.3370   -0.7140 C   0  0  0  0  0  0  0  0  0  0  0  0
    3.4050   -0.7860    0.5040 C   0  0  0  0  0  0  0  0  0  0  0  0
    4.0540    0.0650    1.3720 C   0  0  0  0  0  0  0  0  0  0  0  0
    4.2180    1.3920    1.0420 C   0  0  0  0  0  0  0  0  0  0  0  0
    3.7360    1.8760   -0.1540 C   0  0  0  0  0  0  0  0  0  0  0  0
    3.9070    3.2240   -0.4810 O   0  0  0  0  0  0  0  0  0  0  0  0
    3.0920    0.9970   -1.0000 C   0  0  0  0  0  0  0  0  0  0  0  0
   -1.3970   -1.7430   -1.1420 C   0  0  0  0  0  0  0  0  0  0  0  0
   -2.5500   -1.3870   -0.4890 C   0  0  0  0  0  0  0  0  0  0  0  0
   -2.4870   -0.4270    0.5000 C   0  0  0  0  0  0  0  0  0  0  0  0
   -3.7960   -0.2280    1.0190 N   0  0  0  0  0  0  0  0  0  0  0  0
   -4.7360   -0.6530   -0.0340 C   0  0  0  0  0  0  0  0  0  0  0  0
   -3.9760   -1.8300   -0.5980 C   0  0  0  0  0  0  0  0  0  0  0  0
  1  2  1  0
  2  3  1  0
  3  4  2  0
  3 20  1  0
  4  5  1  0
  5  6  1  0
  5 18  2  0
  6  7  2  0
  6 10  1  0
  7  8  1  0
  8  9  2  0
  9 10  1  0
 10 11  1  0
 11 12  2  0
 11 17  1  0
 12 13  1  0
 13 14  2  0
 14 15  1  0
 15 16  1  0
 15 17  2  0
 18 19  1  0
 19 20  2  0
 19 23  1  0
 20 21  1  0
 21 22  1  0
 22 23  1  0
M  END
