
     RDKit          3D

 16 17  0  0  0  0  0  0  0  0999 V2000
   -1.6470   -0.7020    1.5860 O   0  0  0  0  0  0  0  0  0  0  0  0
   -1.3010   -0.0480    0.5720 C   0  0  0  0  0  0  0  0  0  0  0  0
    0.0670   -0.0850    0.2090 N   0  0  0  0  0  0  0  0  0  0  0  0
    1.0120   -0.8650    1.0080 C   0  0  0  0  0  0  0  0  0  0  0  0
    2.3590   -0.7130    0.3890 C   0  0  0  0  0  0  0  0  0  0  0  0
    3.4560   -0.2200    0.9320 C   0  0  0  0  0  0  0  0  0  0  0  0
    3.4240    0.3800    2.6550 S   0  0  0  0  0  0  0  0  0  0  0  0
    4.6120   -0.1920    0.1110 C   0  0  0  0  0  0  0  0  0  0  0  0
    4.4940   -0.6550   -1.1090 C   0  0  0  0  0  0  0  0  0  0  0  0
    2.8260   -1.1610   -1.2420 S   0  0  1  0  0  0  0  0  0  0  0  0
    2.6940   -2.6290   -1.4770 O   0  0  0  0  0  0  0  0  0  0  0  0
    2.0860   -0.3550   -2.2660 O   0  0  0  0  0  0  0  0  0  0  0  0
   -2.2900    0.6730   -0.1300 N   0  0  0  0  0  0  0  0  0  0  0  0
   -3.6740    0.7230    0.2190 C   0  0  2  0  0  0  0  0  0  0  0  0
   -4.6100    0.5850   -0.9840 C   0  0  0  0  0  0  0  0  0  0  0  0
   -4.5840    1.8120   -0.1200 C   0  0  0  0  0  0  0  0  0  0  0  0
  1  2  2  0
  2  3  1  0
  2 13  1  0
  3  4  1  0
  4  5  1  0
  5  6  2  0
  5 10  1  0
  6  7  1  0
  6  8  1  0
  8  9  2  0
 10  9  1  1
 10 11  2  0
 10 12  2  0
 14 13  1  6
 14 15  1  0
 14 16  1  0
 15 16  1  0
M  END
