
     RDKit          3D

 22 25  0  0  0  0  0  0  0  0999 V2000
    6.2530   -1.0160   -0.2160 C   0  0  0  0  0  0  0  0  0  0  0  0
    4.8230   -1.1760    0.1460 C   0  0  0  0  0  0  0  0  0  0  0  0
    4.2520   -2.1670    0.8520 N   0  0  0  0  0  0  0  0  0  0  0  0
    2.9400   -1.9660    0.9720 C   0  0  0  0  0  0  0  0  0  0  0  0
    2.6780   -0.7990    0.3140 N   0  0  0  0  0  0  0  0  0  0  0  0
    3.8000   -0.2890   -0.2030 C   0  0  0  0  0  0  0  0  0  0  0  0
    3.7890    0.9680   -0.9620 C   0  0  0  0  0  0  0  0  0  0  0  0
    2.5190    1.5240   -1.0640 O   0  0  0  0  0  0  0  0  0  0  0  0
    1.3440    1.0350   -0.5500 C   0  0  0  0  0  0  0  0  0  0  0  0
    0.1320    1.6450   -0.6960 C   0  0  0  0  0  0  0  0  0  0  0  0
   -1.0490    1.1200   -0.1590 C   0  0  0  0  0  0  0  0  0  0  0  0
   -2.2790    1.7840   -0.3360 N   0  0  0  0  0  0  0  0  0  0  0  0
   -3.5230    1.3350    0.2080 C   0  0  2  0  0  0  0  0  0  0  0  0
   -3.4430    1.2960    1.7170 C   0  0  0  0  0  0  0  0  0  0  0  0
   -4.0010    0.0430   -0.3720 C   0  0  0  0  0  0  0  0  0  0  0  0
   -3.9460   -0.2640   -1.7160 C   0  0  0  0  0  0  0  0  0  0  0  0
   -4.4590   -1.4840   -1.8850 N   0  0  0  0  0  0  0  0  0  0  0  0
   -4.8290   -1.9480   -0.7120 N   0  0  0  0  0  0  0  0  0  0  0  0
   -4.5660   -1.0500    0.2320 C   0  0  0  0  0  0  0  0  0  0  0  0
   -0.9900   -0.0570    0.5430 C   0  0  0  0  0  0  0  0  0  0  0  0
    0.2560   -0.6630    0.6800 C   0  0  0  0  0  0  0  0  0  0  0  0
    1.4170   -0.1580    0.1590 C   0  0  0  0  0  0  0  0  0  0  0  0
  1  2  1  0
  2  3  1  0
  2  6  2  0
  3  4  2  0
  4  5  1  0
  5  6  1  0
  5 22  1  0
  6  7  1  0
  7  8  1  0
  8  9  1  0
  9 10  2  0
  9 22  1  0
 10 11  1  0
 11 12  1  0
 11 20  2  0
 12 13  1  0
 13 14  1  1
 13 15  1  0
 15 16  1  0
 15 19  2  0
 16 17  2  0
 17 18  1  0
 18 19  1  0
 20 21  1  0
 21 22  2  0
M  END
