
     RDKit          3D

 23 26  0  0  0  0  0  0  0  0999 V2000
   -4.5980   -2.4740    1.0820 C   0  0  0  0  0  0  0  0  0  0  0  0
   -3.8860   -1.2840    0.5440 C   0  0  0  0  0  0  0  0  0  0  0  0
   -4.5640   -0.0870    0.4820 C   0  0  0  0  0  0  0  0  0  0  0  0
   -3.8950    1.0110   -0.0190 C   0  0  0  0  0  0  0  0  0  0  0  0
   -2.5920    0.8900   -0.4360 C   0  0  0  0  0  0  0  0  0  0  0  0
   -1.8800   -0.3100   -0.3850 C   0  0  0  0  0  0  0  0  0  0  0  0
   -0.5020   -0.3880   -0.8330 C   0  0  0  0  0  0  0  0  0  0  0  0
   -0.2400   -0.0760   -2.0450 O   0  0  0  0  0  0  0  0  0  0  0  0
    0.6000   -0.7910   -0.0250 N   0  0  0  0  0  0  0  0  0  0  0  0
    1.9000   -0.8210   -0.5830 C   0  0  2  0  0  0  0  0  0  0  0  0
    2.4100   -2.2250   -0.7990 C   0  0  0  0  0  0  0  0  0  0  0  0
    3.6350   -2.3180   -1.3050 C   0  0  0  0  0  0  0  0  0  0  0  0
    4.3960   -1.0340   -1.6130 C   0  0  0  0  0  0  0  0  0  0  0  0
    4.2160   -0.2570   -0.3700 N   0  0  0  0  0  0  0  0  0  0  0  0
    5.0550    0.3740    0.3830 N   0  0  0  0  0  0  0  0  0  0  0  0
    4.4230    0.9340    1.4430 C   0  0  0  0  0  0  0  0  0  0  0  0
    5.1310    1.7140    2.4710 C   0  0  0  0  0  0  0  0  0  0  0  0
    3.1360    0.5980    1.2790 N   0  0  0  0  0  0  0  0  0  0  0  0
    2.9640   -0.1370    0.1740 C   0  0  0  0  0  0  0  0  0  0  0  0
   -2.5680   -1.3980    0.1190 C   0  0  0  0  0  0  0  0  0  0  0  0
   -2.1460    2.2090   -0.9330 C   0  0  0  0  0  0  0  0  0  0  0  0
   -3.2710    3.1450   -0.6060 C   0  0  0  0  0  0  0  0  0  0  0  0
   -4.3910    2.3300   -0.1780 N   0  0  0  0  0  0  0  0  0  0  0  0
  1  2  1  0
  2  3  2  0
  2 20  1  0
  3  4  1  0
  4  5  2  0
  4 23  1  0
  5  6  1  0
  5 21  1  0
  6  7  1  0
  6 20  2  0
  7  8  2  0
  7  9  1  0
 10  9  1  1
 10 11  1  0
 10 19  1  0
 11 12  2  0
 12 13  1  0
 13 14  1  0
 14 15  1  0
 14 19  1  0
 15 16  2  0
 16 17  1  0
 16 18  1  0
 18 19  2  0
 21 22  1  0
 22 23  1  0
M  END
