
     RDKit          3D

 23 26  0  0  0  0  0  0  0  0999 V2000
   -5.7770   -1.4300   -0.6100 C   0  0  0  0  0  0  0  0  0  0  0  0
   -4.4420   -0.7880   -0.4600 C   0  0  0  0  0  0  0  0  0  0  0  0
   -4.3460    0.5890   -0.4240 C   0  0  0  0  0  0  0  0  0  0  0  0
   -3.1160    1.1930   -0.2860 C   0  0  0  0  0  0  0  0  0  0  0  0
   -3.0170    2.6780   -0.2470 C   0  0  0  0  0  0  0  0  0  0  0  0
   -1.9590    0.4100   -0.1820 C   0  0  0  0  0  0  0  0  0  0  0  0
   -0.6340    0.7110   -0.0400 C   0  0  0  0  0  0  0  0  0  0  0  0
    0.1220   -0.4320    0.0170 C   0  0  0  0  0  0  0  0  0  0  0  0
    1.5250   -0.6660    0.1950 C   0  0  0  0  0  0  0  0  0  0  0  0
    1.8750   -1.9170   -0.0550 N   0  0  0  0  0  0  0  0  0  0  0  0
    3.1710   -2.5150    0.0070 N   0  0  0  0  0  0  0  0  0  0  0  0
    4.4240   -1.8840   -0.3640 C   0  0  0  0  0  0  0  0  0  0  0  0
    5.4010   -2.5220    0.0460 O   0  0  0  0  0  0  0  0  0  0  0  0
    4.6910   -0.6380   -1.1340 C   0  0  0  0  0  0  0  0  0  0  0  0
    4.7370    0.5690   -0.2770 C   0  0  0  0  0  0  0  0  0  0  0  0
    3.5520    0.9210    0.4500 N   0  0  0  0  0  0  0  0  0  0  0  0
    3.6670    2.0410    1.2150 N   0  0  0  0  0  0  0  0  0  0  0  0
    2.5540    2.2830    1.8740 C   0  0  0  0  0  0  0  0  0  0  0  0
    1.6380    1.3130    1.5680 C   0  0  0  0  0  0  0  0  0  0  0  0
    2.3040    0.4740    0.6650 C   0  0  0  0  0  0  0  0  0  0  0  0
   -0.7930   -1.4480   -0.0970 N   0  0  0  0  0  0  0  0  0  0  0  0
   -2.0320   -0.9620   -0.2160 C   0  0  0  0  0  0  0  0  0  0  0  0
   -3.2940   -1.5430   -0.3570 C   0  0  0  0  0  0  0  0  0  0  0  0
  1  2  1  0
  2  3  2  0
  2 23  1  0
  3  4  1  0
  4  5  1  0
  4  6  2  0
  6  7  1  0
  6 22  1  0
  7  8  2  0
  8  9  1  0
  8 21  1  0
  9 10  2  0
  9 20  1  0
 10 11  1  0
 11 12  1  0
 12 13  2  0
 12 14  1  0
 14 15  1  0
 15 16  1  0
 16 17  1  0
 16 20  1  0
 17 18  2  0
 18 19  1  0
 19 20  2  0
 21 22  1  0
 22 23  2  0
M  END
