
     RDKit          3D

 23 25  0  0  0  0  0  0  0  0999 V2000
   -2.0000    2.5270    0.2510 C   0  0  0  0  0  0  0  0  0  0  0  0
   -1.6610    1.2990    1.0250 C   0  0  0  0  0  0  0  0  0  0  0  0
   -1.9030    0.0240    0.3310 C   0  0  0  0  0  0  0  0  0  0  0  0
   -2.7560   -0.8500    0.9000 C   0  0  0  0  0  0  0  0  0  0  0  0
   -3.3850   -0.4610    2.1860 C   0  0  0  0  0  0  0  0  0  0  0  0
   -3.0700   -2.1540    0.2370 C   0  0  0  0  0  0  0  0  0  0  0  0
   -3.1390   -1.9460   -1.1980 N   0  0  0  0  0  0  0  0  0  0  0  0
   -1.8600   -1.5090   -1.7240 C   0  0  2  0  0  0  0  0  0  0  0  0
   -0.9580   -2.7020   -1.7460 C   0  0  0  0  0  0  0  0  0  0  0  0
   -1.3130   -0.3650   -0.9310 C   0  0  0  0  0  0  0  0  0  0  0  0
   -0.2570    0.2440   -1.4220 C   0  0  0  0  0  0  0  0  0  0  0  0
    0.3030   -0.1610   -2.6870 N   0  0  0  0  0  0  0  0  0  0  0  0
    0.3670    1.2910   -0.7020 N   0  0  0  0  0  0  0  0  0  0  0  0
    1.5620    1.3330   -0.2830 C   0  0  0  0  0  0  0  0  0  0  0  0
    1.9600    2.5530    0.4430 C   0  0  0  0  0  0  0  0  0  0  0  0
    3.1640    2.6200    0.8920 N   0  0  0  0  0  0  0  0  0  0  0  0
    4.1060    1.5690    0.7120 C   0  0  0  0  0  0  0  0  0  0  0  0
    5.4120    1.5230    1.1430 C   0  0  0  0  0  0  0  0  0  0  0  0
    5.8950    0.3040    0.7240 C   0  0  0  0  0  0  0  0  0  0  0  0
    4.9040   -0.3510    0.0650 C   0  0  0  0  0  0  0  0  0  0  0  0
    3.8210    0.4370    0.0690 N   0  0  0  0  0  0  0  0  0  0  0  0
    2.5050    0.2750   -0.4650 C   0  0  0  0  0  0  0  0  0  0  0  0
    2.2730   -0.7930   -1.0570 O   0  0  0  0  0  0  0  0  0  0  0  0
  1  2  1  0
  2  3  1  0
  3  4  2  0
  3 10  1  0
  4  5  1  0
  4  6  1  0
  6  7  1  0
  7  8  1  0
  8  9  1  1
  8 10  1  0
 10 11  2  3
 11 12  1  0
 11 13  1  0
 13 14  2  3
 14 15  1  0
 14 22  1  0
 15 16  2  0
 16 17  1  0
 17 18  2  0
 17 21  1  0
 18 19  1  0
 19 20  2  0
 20 21  1  0
 21 22  1  0
 22 23  2  0
M  END
