
     RDKit          3D

 23 26  0  0  0  0  0  0  0  0999 V2000
    4.7890    2.7590   -0.0470 C   0  0  0  0  0  0  0  0  0  0  0  0
    4.0950    1.4390   -0.0900 C   0  0  0  0  0  0  0  0  0  0  0  0
    2.7200    1.3430   -0.0400 C   0  0  0  0  0  0  0  0  0  0  0  0
    2.0800    0.1180   -0.0790 C   0  0  0  0  0  0  0  0  0  0  0  0
    0.6350    0.0520   -0.0250 C   0  0  0  0  0  0  0  0  0  0  0  0
   -0.0930   -1.1150   -0.0580 C   0  0  0  0  0  0  0  0  0  0  0  0
   -1.4800   -1.1060   -0.0020 C   0  0  0  0  0  0  0  0  0  0  0  0
   -2.1460    0.0920    0.0880 C   0  0  0  0  0  0  0  0  0  0  0  0
   -3.5640    0.1130    0.1450 N   0  0  0  0  0  0  0  0  0  0  0  0
   -4.5000   -0.9780    0.1250 C   0  0  0  0  0  0  0  0  0  0  0  0
   -5.7340   -0.3990   -0.5630 C   0  0  1  0  0  0  0  0  0  0  0  0
   -6.9820   -0.6010    0.2370 C   0  0  0  0  0  0  0  0  0  0  0  0
   -5.3760    1.0410   -0.7410 C   0  0  0  0  0  0  0  0  0  0  0  0
   -4.3560    1.2800    0.2380 N   0  0  0  0  0  0  0  0  0  0  0  0
   -1.4050    1.2070    0.1170 N   0  0  0  0  0  0  0  0  0  0  0  0
   -0.0900    1.2020    0.0640 N   0  0  0  0  0  0  0  0  0  0  0  0
    2.8290   -1.0250   -0.1700 C   0  0  0  0  0  0  0  0  0  0  0  0
    4.2280   -0.9690   -0.2220 C   0  0  0  0  0  0  0  0  0  0  0  0
    4.8290    0.2700   -0.1810 C   0  0  0  0  0  0  0  0  0  0  0  0
    6.2440    0.0980   -0.2460 N   0  0  0  0  0  0  0  0  0  0  0  0
    6.5580   -1.2760   -0.5890 C   0  0  0  0  0  0  0  0  0  0  0  0
    5.2740   -1.9670   -0.3170 C   0  0  0  0  0  0  0  0  0  0  0  0
    5.0550   -3.2020   -0.1800 O   0  0  0  0  0  0  0  0  0  0  0  0
  1  2  1  0
  2  3  2  0
  2 19  1  0
  3  4  1  0
  4  5  1  0
  4 17  2  0
  5  6  2  0
  5 16  1  0
  6  7  1  0
  7  8  2  0
  8  9  1  0
  8 15  1  0
  9 10  1  0
  9 14  1  0
 10 11  1  0
 11 12  1  1
 11 13  1  0
 13 14  1  0
 15 16  2  0
 17 18  1  0
 18 19  2  0
 18 22  1  0
 19 20  1  0
 20 21  1  0
 21 22  1  0
 22 23  2  0
M  END
