
     RDKit          3D

 23 26  0  0  0  0  0  0  0  0999 V2000
   -5.1300   -0.6140   -2.1370 C   0  0  0  0  0  0  0  0  0  0  0  0
   -4.0770   -0.3360   -1.0890 C   0  0  0  0  0  0  0  0  0  0  0  0
   -2.7570   -0.6090   -1.3490 C   0  0  0  0  0  0  0  0  0  0  0  0
   -1.7390   -0.3270   -0.4620 C   0  0  0  0  0  0  0  0  0  0  0  0
   -0.3360   -0.3730   -0.8380 C   0  0  0  0  0  0  0  0  0  0  0  0
    0.5810   -1.2140   -0.1380 N   0  0  0  0  0  0  0  0  0  0  0  0
    1.9050   -0.6580    0.1060 C   0  0  0  0  0  0  0  0  0  0  0  0
    2.2070    0.6760   -0.1520 C   0  0  0  0  0  0  0  0  0  0  0  0
    3.4660    1.2260   -0.0710 C   0  0  0  0  0  0  0  0  0  0  0  0
    4.4580    0.3570    0.3060 C   0  0  0  0  0  0  0  0  0  0  0  0
    4.1350   -0.9540    0.5650 C   0  0  0  0  0  0  0  0  0  0  0  0
    5.2830   -1.8590    0.9290 C   0  0  0  0  0  0  0  0  0  0  0  0
    2.9170   -1.4490    0.4690 N   0  0  0  0  0  0  0  0  0  0  0  0
    5.6780    1.0950    0.2980 N   0  0  0  0  0  0  0  0  0  0  0  0
    5.5170    2.2840   -0.0290 N   0  0  0  0  0  0  0  0  0  0  0  0
    4.1170    2.5130   -0.3000 C   0  0  0  0  0  0  0  0  0  0  0  0
    3.5040    3.5220   -0.6500 O   0  0  0  0  0  0  0  0  0  0  0  0
   -2.1510    0.2460    0.7170 C   0  0  0  0  0  0  0  0  0  0  0  0
   -1.3850    0.5860    1.8030 N   0  0  0  0  0  0  0  0  0  0  0  0
   -2.1660    1.0760    2.7850 C   0  0  0  0  0  0  0  0  0  0  0  0
   -3.4560    1.0570    2.3270 C   0  0  0  0  0  0  0  0  0  0  0  0
   -3.4590    0.5450    1.0480 C   0  0  0  0  0  0  0  0  0  0  0  0
   -4.4530    0.2350    0.1010 C   0  0  0  0  0  0  0  0  0  0  0  0
  1  2  1  0
  2  3  2  0
  2 23  1  0
  3  4  1  0
  4  5  1  0
  4 18  2  0
  5  6  1  0
  6  7  1  0
  7  8  2  0
  7 13  1  0
  8  9  1  0
  9 10  2  0
  9 16  1  0
 10 11  1  0
 10 14  1  0
 11 12  1  0
 11 13  2  0
 14 15  2  0
 15 16  1  0
 16 17  2  0
 18 19  1  0
 18 22  1  0
 19 20  1  0
 20 21  2  0
 21 22  1  0
 22 23  2  0
M  END
