
     RDKit          3D

 26 29  0  0  0  0  0  0  0  0999 V2000
    7.0280    0.8900   -0.8400 C   0  0  0  0  0  0  0  0  0  0  0  0
    6.2430    1.0950    0.3130 O   0  0  0  0  0  0  0  0  0  0  0  0
    4.9540    0.5800    0.4030 C   0  0  0  0  0  0  0  0  0  0  0  0
    4.3570   -0.1520   -0.6010 C   0  0  0  0  0  0  0  0  0  0  0  0
    3.0650   -0.6470   -0.4680 C   0  0  0  0  0  0  0  0  0  0  0  0
    2.4700   -1.3630   -1.4360 N   0  0  0  0  0  0  0  0  0  0  0  0
    1.2240   -1.8530   -1.3330 C   0  0  0  0  0  0  0  0  0  0  0  0
    0.7340   -2.5210   -2.2970 O   0  0  0  0  0  0  0  0  0  0  0  0
    0.4530   -1.6410   -0.1810 C   0  0  0  0  0  0  0  0  0  0  0  0
   -1.1640   -2.2720   -0.1490 S   0  0  0  0  0  0  0  0  0  0  0  0
   -2.2870   -1.7230    1.0920 C   0  0  0  0  0  0  0  0  0  0  0  0
   -2.8050   -0.3750    0.9270 N   0  0  0  0  0  0  0  0  0  0  0  0
   -2.2910    0.8200    1.4460 C   0  0  0  0  0  0  0  0  0  0  0  0
   -1.3050    1.0190    2.2130 O   0  0  0  0  0  0  0  0  0  0  0  0
   -3.1480    1.9440    0.9230 C   0  0  0  0  0  0  0  0  0  0  0  0
   -4.1810    1.2510    0.1600 C   0  0  0  0  0  0  0  0  0  0  0  0
   -5.2840    1.7650   -0.5290 C   0  0  0  0  0  0  0  0  0  0  0  0
   -6.1590    0.9550   -1.2260 C   0  0  0  0  0  0  0  0  0  0  0  0
   -5.9290   -0.4250   -1.2380 C   0  0  0  0  0  0  0  0  0  0  0  0
   -4.8490   -0.9250   -0.5620 C   0  0  0  0  0  0  0  0  0  0  0  0
   -3.9920   -0.0950    0.1250 C   0  0  0  0  0  0  0  0  0  0  0  0
    1.0320   -0.9190    0.8190 C   0  0  0  0  0  0  0  0  0  0  0  0
    2.3350   -0.4220    0.6770 C   0  0  0  0  0  0  0  0  0  0  0  0
    2.9180    0.3090    1.6900 C   0  0  0  0  0  0  0  0  0  0  0  0
    4.2020    0.7970    1.5500 C   0  0  0  0  0  0  0  0  0  0  0  0
    4.7770    1.5130    2.5380 F   0  0  0  0  0  0  0  0  0  0  0  0
  1  2  1  0
  2  3  1  0
  3  4  2  0
  3 25  1  0
  4  5  1  0
  5  6  1  0
  5 23  2  0
  6  7  1  0
  7  8  2  0
  7  9  1  0
  9 10  1  0
  9 22  2  0
 10 11  1  0
 11 12  1  0
 12 13  1  0
 12 21  1  0
 13 14  2  0
 13 15  1  0
 15 16  1  0
 16 17  2  0
 16 21  1  0
 17 18  1  0
 18 19  2  0
 19 20  1  0
 20 21  2  0
 22 23  1  0
 23 24  1  0
 24 25  2  0
 25 26  1  0
M  END
