
     RDKit          3D

 26 29  0  0  0  0  0  0  0  0999 V2000
   -5.7180    1.5480   -0.8860 C   0  0  0  0  0  0  0  0  0  0  0  0
   -4.5070    0.9760   -0.4430 O   0  0  0  0  0  0  0  0  0  0  0  0
   -4.4400   -0.1660    0.3290 C   0  0  0  0  0  0  0  0  0  0  0  0
   -5.6170   -0.8010    0.7000 C   0  0  0  0  0  0  0  0  0  0  0  0
   -5.5690   -1.9430    1.4710 C   0  0  0  0  0  0  0  0  0  0  0  0
   -4.3420   -2.4320    1.8590 C   0  0  0  0  0  0  0  0  0  0  0  0
   -3.1720   -1.7830    1.4780 C   0  0  0  0  0  0  0  0  0  0  0  0
   -3.2040   -0.6410    0.7080 C   0  0  0  0  0  0  0  0  0  0  0  0
   -1.9710    0.0320    0.3140 C   0  0  0  0  0  0  0  0  0  0  0  0
   -0.6850   -0.3720    0.6490 C   0  0  0  0  0  0  0  0  0  0  0  0
    0.1740    0.5190    0.0890 C   0  0  0  0  0  0  0  0  0  0  0  0
    1.6810    0.5240    0.1590 C   0  0  0  0  0  0  0  0  0  0  0  0
    2.1800    1.6450    0.2440 O   0  0  0  0  0  0  0  0  0  0  0  0
    2.3750   -0.6780    0.1240 N   0  0  0  0  0  0  0  0  0  0  0  0
    3.7660   -0.8660    0.1540 C   0  0  0  0  0  0  0  0  0  0  0  0
    4.4080   -2.5390    0.4430 S   0  0  0  0  0  0  0  0  0  0  0  0
    6.1040   -2.1620    0.3260 C   0  0  0  0  0  0  0  0  0  0  0  0
    6.0880   -0.8110    0.0770 C   0  0  0  0  0  0  0  0  0  0  0  0
    4.9210   -0.1650   -0.0100 C   0  0  0  0  0  0  0  0  0  0  0  0
    5.2780    1.2450   -0.3190 C   0  0  0  0  0  0  0  0  0  0  0  0
    4.4800    2.2950   -0.5450 F   0  0  0  0  0  0  0  0  0  0  0  0
    6.5620    1.3840   -0.3930 N   0  0  0  0  0  0  0  0  0  0  0  0
    7.2360    0.1750   -0.1590 C   0  0  0  0  0  0  0  0  0  0  0  0
   -0.5870    1.4530   -0.5760 C   0  0  0  0  0  0  0  0  0  0  0  0
   -0.0530    2.6350   -1.3460 C   0  0  0  0  0  0  0  0  0  0  0  0
   -1.8350    1.1150   -0.4090 O   0  0  0  0  0  0  0  0  0  0  0  0
  1  2  1  0
  2  3  1  0
  3  4  2  0
  3  8  1  0
  4  5  1  0
  5  6  2  0
  6  7  1  0
  7  8  2  0
  8  9  1  0
  9 10  2  0
  9 26  1  0
 10 11  1  0
 11 12  1  0
 11 24  2  0
 12 13  2  0
 12 14  1  0
 14 15  1  0
 15 16  1  0
 15 19  2  0
 16 17  1  0
 17 18  2  0
 18 19  1  0
 18 23  1  0
 19 20  1  0
 20 21  1  0
 20 22  2  0
 22 23  1  0
 24 25  1  0
 24 26  1  0
M  END
