
     RDKit          3D

 26 29  0  0  0  0  0  0  0  0999 V2000
    4.3920   -1.2630   -2.1940 C   0  0  0  0  0  0  0  0  0  0  0  0
    4.2240   -0.5960   -0.8780 C   0  0  0  0  0  0  0  0  0  0  0  0
    5.1710   -0.7800    0.1340 C   0  0  0  0  0  0  0  0  0  0  0  0
    5.0370   -0.1730    1.3590 C   0  0  0  0  0  0  0  0  0  0  0  0
    3.9480    0.6370    1.6000 C   0  0  0  0  0  0  0  0  0  0  0  0
    3.5730    1.3450    2.6790 N   0  0  0  0  0  0  0  0  0  0  0  0
    2.4220    1.9720    2.3900 C   0  0  0  0  0  0  0  0  0  0  0  0
    1.6370    2.9390    3.4540 S   0  0  0  0  0  0  0  0  0  0  0  0
    2.0330    1.6870    1.1360 N   0  0  0  0  0  0  0  0  0  0  0  0
    0.8650    2.1470    0.4190 C   0  0  0  0  0  0  0  0  0  0  0  0
   -0.2700    1.2200    0.6640 C   0  0  0  0  0  0  0  0  0  0  0  0
   -1.1460    1.4740    1.5610 O   0  0  0  0  0  0  0  0  0  0  0  0
   -0.4750    0.0390   -0.0330 O   0  0  0  0  0  0  0  0  0  0  0  0
   -1.5580   -0.7900    0.2330 C   0  0  0  0  0  0  0  0  0  0  0  0
   -1.6260   -1.6640    1.2940 C   0  0  0  0  0  0  0  0  0  0  0  0
   -2.7620   -2.4500    1.4640 C   0  0  0  0  0  0  0  0  0  0  0  0
   -3.8380   -2.4060    0.6210 C   0  0  0  0  0  0  0  0  0  0  0  0
   -3.7710   -1.5180   -0.4570 C   0  0  0  0  0  0  0  0  0  0  0  0
   -2.6540   -0.7300   -0.6440 C   0  0  0  0  0  0  0  0  0  0  0  0
   -2.8470    0.0460   -1.7730 O   0  0  0  0  0  0  0  0  0  0  0  0
   -4.2140    0.0920   -2.0850 C   0  0  2  0  0  0  0  0  0  0  0  0
   -4.8370    1.2390   -1.3110 C   0  0  0  0  0  0  0  0  0  0  0  0
   -4.6740    1.0430    0.0320 F   0  0  0  0  0  0  0  0  0  0  0  0
   -4.7310   -1.2180   -1.5470 C   0  0  0  0  0  0  0  0  0  0  0  0
    2.9730    0.8600    0.6380 C   0  0  0  0  0  0  0  0  0  0  0  0
    3.1580    0.2180   -0.5900 C   0  0  0  0  0  0  0  0  0  0  0  0
  1  2  1  0
  2  3  2  0
  2 26  1  0
  3  4  1  0
  4  5  2  0
  5  6  1  0
  5 25  1  0
  6  7  1  0
  7  8  2  0
  7  9  1  0
  9 10  1  0
  9 25  1  0
 10 11  1  0
 11 12  2  0
 11 13  1  0
 13 14  1  0
 14 15  2  0
 14 19  1  0
 15 16  1  0
 16 17  2  0
 17 18  1  0
 18 19  2  0
 18 24  1  0
 19 20  1  0
 20 21  1  0
 21 22  1  1
 21 24  1  0
 22 23  1  0
 25 26  2  0
M  END
