
     RDKit          3D

 26 28  0  0  0  0  0  0  0  0999 V2000
   -4.8330    1.7650    0.2780 C   0  0  0  0  0  0  0  0  0  0  0  0
   -4.3730    0.6080   -0.1630 C   0  0  0  0  0  0  0  0  0  0  0  0
   -5.3400   -0.5070   -0.0790 C   0  0  0  0  0  0  0  0  0  0  0  0
   -4.7270   -1.8050    0.3310 C   0  0  0  0  0  0  0  0  0  0  0  0
   -3.4960   -2.2290   -0.3660 C   0  0  0  0  0  0  0  0  0  0  0  0
   -2.2260   -1.7270    0.2820 C   0  0  0  0  0  0  0  0  0  0  0  0
   -1.9600   -0.3550   -0.2470 C   0  0  0  0  0  0  0  0  0  0  0  0
   -0.7560    0.0390   -0.4060 N   0  0  0  0  0  0  0  0  0  0  0  0
    0.3500   -0.6920   -0.1330 O   0  0  0  0  0  0  0  0  0  0  0  0
    1.5660   -0.0660    0.1350 C   0  0  0  0  0  0  0  0  0  0  0  0
    2.6830   -0.7570    0.4090 N   0  0  0  0  0  0  0  0  0  0  0  0
    3.8590   -0.1360    0.6670 C   0  0  0  0  0  0  0  0  0  0  0  0
    5.0200   -0.8210    0.9520 C   0  0  0  0  0  0  0  0  0  0  0  0
    4.9600   -2.2080    0.9710 O   0  0  0  0  0  0  0  0  0  0  0  0
    6.0900   -3.0150    1.2510 C   0  0  0  0  0  0  0  0  0  0  0  0
    6.2170   -0.1740    1.2140 C   0  0  0  0  0  0  0  0  0  0  0  0
    6.2640    1.2040    1.1930 C   0  0  0  0  0  0  0  0  0  0  0  0
    5.1170    1.8920    0.9120 C   0  0  0  0  0  0  0  0  0  0  0  0
    3.9210    1.2510    0.6500 C   0  0  0  0  0  0  0  0  0  0  0  0
    2.7680    1.9630    0.3660 C   0  0  0  0  0  0  0  0  0  0  0  0
    2.8020    3.2280    0.3440 O   0  0  0  0  0  0  0  0  0  0  0  0
    1.6400    1.2770    0.1210 N   0  0  0  0  0  0  0  0  0  0  0  0
   -2.9980    0.6470   -0.6350 C   0  0  0  0  0  0  0  0  0  0  0  0
   -2.6430    1.5630   -1.4930 C   0  0  0  0  0  0  0  0  0  0  0  0
   -3.5420    2.5790   -2.0440 C   0  0  0  0  0  0  0  0  0  0  0  0
   -3.1790    3.8830   -1.7520 F   0  0  0  0  0  0  0  0  0  0  0  0
  1  2  2  0
  2  3  1  0
  2 23  1  0
  3  4  1  0
  4  5  1  0
  5  6  1  0
  6  7  1  0
  7  8  2  3
  7 23  1  0
  8  9  1  0
  9 10  1  0
 10 11  2  0
 10 22  1  0
 11 12  1  0
 12 13  2  0
 12 19  1  0
 13 14  1  0
 13 16  1  0
 14 15  1  0
 16 17  2  0
 17 18  1  0
 18 19  2  0
 19 20  1  0
 20 21  2  0
 20 22  1  0
 23 24  2  3
 24 25  1  0
 25 26  1  0
M  END
