
     RDKit          3D

 26 29  0  0  0  0  0  0  0  0999 V2000
   -4.6860   -3.0910   -0.1360 C   0  0  0  0  0  0  0  0  0  0  0  0
   -4.4220   -1.6400   -0.4810 C   0  0  1  0  0  0  0  0  0  0  0  0
   -5.2940   -0.7570    0.3690 C   0  0  0  0  0  0  0  0  0  0  0  0
   -2.9850   -1.3800   -0.3170 C   0  0  0  0  0  0  0  0  0  0  0  0
   -1.9620   -2.1750   -0.0000 N   0  0  0  0  0  0  0  0  0  0  0  0
   -0.8720   -1.5130    0.0280 O   0  0  0  0  0  0  0  0  0  0  0  0
   -1.0310   -0.2360   -0.2580 C   0  0  0  0  0  0  0  0  0  0  0  0
   -0.0340    0.8320   -0.3280 C   0  0  0  0  0  0  0  0  0  0  0  0
   -0.3980    2.1260   -0.6460 C   0  0  0  0  0  0  0  0  0  0  0  0
    0.5330    3.1540   -0.7170 C   0  0  0  0  0  0  0  0  0  0  0  0
    1.8670    2.9330   -0.4730 C   0  0  0  0  0  0  0  0  0  0  0  0
    2.2300    1.6500   -0.1570 C   0  0  0  0  0  0  0  0  0  0  0  0
    1.2960    0.5970   -0.0820 C   0  0  0  0  0  0  0  0  0  0  0  0
    1.8060   -0.6920    0.2560 N   0  0  0  0  0  0  0  0  0  0  0  0
    3.2340   -0.8250    0.4970 C   0  0  0  0  0  0  0  0  0  0  0  0
    3.5000   -2.2440    0.8490 C   0  0  0  0  0  0  0  0  0  0  0  0
    2.6970   -3.2400    1.3380 C   0  0  0  0  0  0  0  0  0  0  0  0
    3.2320   -4.4440    1.5560 C   0  0  0  0  0  0  0  0  0  0  0  0
    4.5490   -4.6420    1.2890 C   0  0  0  0  0  0  0  0  0  0  0  0
    5.0590   -3.0330    0.6940 S   0  0  0  0  0  0  0  0  0  0  0  0
    2.7290    3.9870   -0.5600 O   0  0  0  0  0  0  0  0  0  0  0  0
    2.3650    5.3350   -0.6960 C   0  0  0  0  0  0  0  0  0  0  0  0
    0.9080    5.5880   -0.8130 C   0  0  0  0  0  0  0  0  0  0  0  0
    0.1280    4.4320   -1.0380 O   0  0  0  0  0  0  0  0  0  0  0  0
   -2.3840   -0.1120   -0.4870 C   0  0  0  0  0  0  0  0  0  0  0  0
   -3.0760    0.9950   -0.8170 F   0  0  0  0  0  0  0  0  0  0  0  0
  2  1  1  1
  2  3  1  0
  2  4  1  0
  4  5  2  0
  4 25  1  0
  5  6  1  0
  6  7  1  0
  7  8  1  0
  7 25  2  0
  8  9  2  0
  8 13  1  0
  9 10  1  0
 10 11  2  0
 10 24  1  0
 11 12  1  0
 11 21  1  0
 12 13  2  0
 13 14  1  0
 14 15  1  0
 15 16  1  0
 16 17  2  0
 16 20  1  0
 17 18  1  0
 18 19  2  0
 19 20  1  0
 21 22  1  0
 22 23  1  0
 23 24  1  0
 25 26  1  0
M  END
