
     RDKit          3D

 25 28  0  0  0  0  0  0  0  0999 V2000
    5.4890    2.1950    1.8690 C   0  0  0  0  0  0  0  0  0  0  0  0
    4.4270    1.2890    1.6470 O   0  0  0  0  0  0  0  0  0  0  0  0
    4.3440    0.5130    0.4920 C   0  0  0  0  0  0  0  0  0  0  0  0
    5.2760    0.6710   -0.3410 O   0  0  0  0  0  0  0  0  0  0  0  0
    3.2340   -0.4480    0.2390 C   0  0  2  0  0  0  0  0  0  0  0  0
    3.1580   -1.5260    1.3060 C   0  0  0  0  0  0  0  0  0  0  0  0
    3.4070   -1.2280   -1.3690 S   0  0  0  0  0  0  0  0  0  0  0  0
    2.0370   -2.3840   -1.6140 C   0  0  0  0  0  0  0  0  0  0  0  0
    0.7720   -1.6230   -1.7090 C   0  0  0  0  0  0  0  0  0  0  0  0
    0.3570   -1.1930   -2.9730 C   0  0  0  0  0  0  0  0  0  0  0  0
   -0.8250   -0.4900   -3.0520 C   0  0  0  0  0  0  0  0  0  0  0  0
   -1.5610   -0.2280   -1.9120 C   0  0  0  0  0  0  0  0  0  0  0  0
   -2.7490    0.4710   -1.9580 C   0  0  0  0  0  0  0  0  0  0  0  0
   -3.4680    0.7180   -0.7990 C   0  0  0  0  0  0  0  0  0  0  0  0
   -4.6630    1.4210   -0.8450 C   0  0  0  0  0  0  0  0  0  0  0  0
   -5.3810    1.6690    0.3030 C   0  0  0  0  0  0  0  0  0  0  0  0
   -4.9500    1.2340    1.5420 C   0  0  0  0  0  0  0  0  0  0  0  0
   -5.4200    1.3240    2.7780 O   0  0  0  0  0  0  0  0  0  0  0  0
   -4.6070    0.7260    3.6120 N   0  0  0  0  0  0  0  0  0  0  0  0
   -3.5720    0.2250    2.9280 C   0  0  0  0  0  0  0  0  0  0  0  0
   -3.7520    0.5270    1.6010 C   0  0  0  0  0  0  0  0  0  0  0  0
   -3.0390    0.2850    0.4350 C   0  0  0  0  0  0  0  0  0  0  0  0
   -1.8540   -0.4160    0.4960 C   0  0  0  0  0  0  0  0  0  0  0  0
   -1.1300   -0.6650   -0.6680 C   0  0  0  0  0  0  0  0  0  0  0  0
    0.0290   -1.3510   -0.6150 N   0  0  0  0  0  0  0  0  0  0  0  0
  1  2  1  0
  2  3  1  0
  3  4  2  0
  3  5  1  0
  5  6  1  1
  5  7  1  0
  7  8  1  0
  8  9  1  0
  9 10  2  0
  9 25  1  0
 10 11  1  0
 11 12  2  0
 12 13  1  0
 12 24  1  0
 13 14  2  0
 14 15  1  0
 14 22  1  0
 15 16  2  0
 16 17  1  0
 17 18  1  0
 17 21  2  0
 18 19  1  0
 19 20  2  0
 20 21  1  0
 21 22  1  0
 22 23  2  0
 23 24  1  0
 24 25  2  0
M  END
