
     RDKit          3D

 20 20  0  0  0  0  0  0  0  0999 V2000
   -6.1040   -1.5040    0.4720 N   0  0  0  0  0  0  0  0  0  0  0  0
   -5.0520   -1.7080   -0.5190 C   0  0  0  0  0  0  0  0  0  0  0  0
   -4.2410   -0.4770   -0.7460 C   0  0  0  0  0  0  0  0  0  0  0  0
   -3.5700   -0.0130    0.5320 C   0  0  1  0  0  0  0  0  0  0  0  0
   -2.7190   -0.9400    1.0470 O   0  0  0  0  0  0  0  0  0  0  0  0
   -2.9170    1.3100    0.2870 C   0  0  0  0  0  0  0  0  0  0  0  0
   -1.8920    1.2650   -0.7700 C   0  0  0  0  0  0  0  0  0  0  0  0
   -0.7130    0.4050   -0.5050 C   0  0  0  0  0  0  0  0  0  0  0  0
    0.1020    0.8900    0.6440 C   0  0  2  0  0  0  0  0  0  0  0  0
   -0.5660    0.9410    1.8360 O   0  0  0  0  0  0  0  0  0  0  0  0
    0.5110    2.3220    0.3030 C   0  0  0  0  0  0  0  0  0  0  0  0
    1.8000    2.5950    1.0050 C   0  0  0  0  0  0  0  0  0  0  0  0
    2.9180    1.8130    0.2940 C   0  0  0  0  0  0  0  0  0  0  0  0
    2.4760    0.4360   -0.0610 C   0  0  1  0  0  0  0  0  0  0  0  0
    3.3930   -0.5470   -0.0120 O   0  0  0  0  0  0  0  0  0  0  0  0
    3.6370   -1.3010   -1.1040 C   0  0  0  0  0  0  0  0  0  0  0  0
    4.7200   -2.3230   -0.7350 C   0  0  0  0  0  0  0  0  0  0  0  0
    5.9890   -1.6520   -0.3030 C   0  0  0  0  0  0  0  0  0  0  0  0
    6.5360   -0.8440   -1.2710 O   0  0  0  0  0  0  0  0  0  0  0  0
    1.3360    0.0320    0.8690 C   0  0  0  0  0  0  0  0  0  0  0  0
  1  2  1  0
  2  3  1  0
  3  4  1  0
  4  5  1  6
  4  6  1  0
  6  7  1  0
  7  8  1  0
  8  9  1  0
  9 10  1  1
  9 11  1  0
  9 20  1  0
 11 12  1  0
 12 13  1  0
 13 14  1  0
 14 15  1  1
 14 20  1  0
 15 16  1  0
 16 17  1  0
 17 18  1  0
 18 19  1  0
M  CHG  1   1   1
M  END
