
     RDKit          3D

 25 28  0  0  0  0  0  0  0  0999 V2000
   -2.5890   -3.4410    0.4210 C   0  0  0  0  0  0  0  0  0  0  0  0
   -1.8720   -2.7990   -0.7440 C   0  0  1  0  0  0  0  0  0  0  0  0
   -2.5220   -3.3540   -1.8950 O   0  0  0  0  0  0  0  0  0  0  0  0
   -2.1000   -1.3380   -0.8000 C   0  0  0  0  0  0  0  0  0  0  0  0
   -3.3130   -0.8340   -1.1710 N   0  0  0  0  0  0  0  0  0  0  0  0
   -3.2720    0.4770   -1.1280 C   0  0  0  0  0  0  0  0  0  0  0  0
   -4.2330    1.4430   -1.4130 C   0  0  0  0  0  0  0  0  0  0  0  0
   -3.9190    2.7400   -1.2880 N   0  0  0  0  0  0  0  0  0  0  0  0
   -2.6980    3.1260   -0.8970 C   0  0  0  0  0  0  0  0  0  0  0  0
   -2.1480    4.3590   -0.6990 N   0  0  0  0  0  0  0  0  0  0  0  0
   -0.8850    4.2110   -0.3040 C   0  0  0  0  0  0  0  0  0  0  0  0
   -0.5840    2.8490   -0.2350 C   0  0  0  0  0  0  0  0  0  0  0  0
   -1.7110    2.1660   -0.6030 C   0  0  0  0  0  0  0  0  0  0  0  0
   -1.9930    0.8090   -0.7180 C   0  0  0  0  0  0  0  0  0  0  0  0
   -1.2670   -0.3260   -0.5170 N   0  0  0  0  0  0  0  0  0  0  0  0
    0.0870   -0.3900   -0.0830 C   0  0  1  0  0  0  0  0  0  0  0  0
    0.5590   -1.6350    0.5900 C   0  0  0  0  0  0  0  0  0  0  0  0
    1.6620   -1.1860    1.5670 C   0  0  0  0  0  0  0  0  0  0  0  0
    2.7170   -0.4700    0.7940 C   0  0  2  0  0  0  0  0  0  0  0  0
    3.0250    0.9110    1.3430 C   0  0  0  0  0  0  0  0  0  0  0  0
    3.5090    0.7550    2.7850 C   0  0  0  0  0  0  0  0  0  0  0  0
    4.7250   -0.1080    2.6630 C   0  0  0  0  0  0  0  0  0  0  0  0
    5.6540   -0.7830    2.5550 N   0  0  0  0  0  0  0  0  0  0  0  0
    2.5000   -0.4720   -0.6650 C   0  0  0  0  0  0  0  0  0  0  0  0
    1.1210   -0.0980   -1.1500 C   0  0  0  0  0  0  0  0  0  0  0  0
  2  1  1  1
  2  3  1  0
  2  4  1  0
  4  5  2  0
  4 15  1  0
  5  6  1  0
  6  7  2  0
  6 14  1  0
  7  8  1  0
  8  9  2  0
  9 10  1  0
  9 13  1  0
 10 11  1  0
 11 12  2  0
 12 13  1  0
 13 14  2  0
 14 15  1  0
 16 15  1  6
 16 17  1  0
 16 25  1  0
 17 18  1  0
 18 19  1  0
 19 20  1  1
 19 24  1  0
 20 21  1  0
 21 22  1  0
 22 23  3  0
 24 25  1  0
M  END
