
     RDKit          3D

 20 20  0  0  0  0  0  0  0  0999 V2000
    3.5130    2.7690    1.5410 C   0  0  0  0  0  0  0  0  0  0  0  0
    3.1050    1.3180    1.2220 C   0  0  0  0  0  0  0  0  0  0  0  0
    1.8120    1.3120    0.5760 C   0  0  0  0  0  0  0  0  0  0  0  0
    1.1860   -0.0190    0.1580 C   0  0  1  0  0  0  0  0  0  0  0  0
    1.0330   -0.8100    1.3990 C   0  0  0  0  0  0  0  0  0  0  0  0
    2.2500   -1.2870    1.9180 O   0  0  0  0  0  0  0  0  0  0  0  0
   -0.1100    0.4080   -0.3140 N   0  0  0  0  0  0  0  0  0  0  0  0
   -1.1460   -0.5270   -0.4250 C   0  0  0  0  0  0  0  0  0  0  0  0
   -2.5000   -0.0740    0.1350 C   0  0  1  0  0  0  0  0  0  0  0  0
   -3.4560   -1.2460   -0.0950 C   0  0  0  0  0  0  0  0  0  0  0  0
   -3.5860   -1.5880   -1.5440 C   0  0  0  0  0  0  0  0  0  0  0  0
   -2.5120    0.2700    1.5680 C   0  0  0  0  0  0  0  0  0  0  0  0
   -3.4990    1.4440    1.6110 C   0  0  0  0  0  0  0  0  0  0  0  0
   -3.2220    2.1290    0.4260 O   0  0  0  0  0  0  0  0  0  0  0  0
   -3.0160    1.1680   -0.5340 C   0  0  0  0  0  0  0  0  0  0  0  0
    2.0000   -0.6510   -0.9140 C   0  0  1  0  0  0  0  0  0  0  0  0
    2.3280    0.3230   -2.0240 C   0  0  0  0  0  0  0  0  0  0  0  0
    3.2750   -1.0510   -0.4120 O   0  0  0  0  0  0  0  0  0  0  0  0
    1.4660   -1.8700   -1.5570 C   0  0  0  0  0  0  0  0  0  0  0  0
    2.3860   -2.2560   -2.5750 O   0  0  0  0  0  0  0  0  0  0  0  0
  1  2  1  0
  2  3  1  0
  4  3  1  1
  4  5  1  0
  4  7  1  0
  4 16  1  0
  5  6  1  0
  7  8  1  0
  9  8  1  6
  9 10  1  0
  9 12  1  0
  9 15  1  0
 10 11  1  0
 12 13  1  0
 13 14  1  0
 14 15  1  0
 16 17  1  6
 16 18  1  0
 16 19  1  0
 19 20  1  0
M  CHG  1   7   1
M  END
