
     RDKit          3D

 20 20  0  0  0  0  0  0  0  0999 V2000
    5.7860   -0.2050    0.6450 C   0  0  0  0  0  0  0  0  0  0  0  0
    4.3620   -0.7020    0.5530 C   0  0  0  0  0  0  0  0  0  0  0  0
    3.4930    0.2160   -0.2840 C   0  0  1  0  0  0  0  0  0  0  0  0
    4.0130    0.3360   -1.6980 C   0  0  0  0  0  0  0  0  0  0  0  0
    2.2280   -0.3440   -0.3540 O   0  0  0  0  0  0  0  0  0  0  0  0
    1.2420    0.5300    0.1610 C   0  0  0  0  0  0  0  0  0  0  0  0
   -0.0680   -0.1870    0.0290 C   0  0  1  0  0  0  0  0  0  0  0  0
   -0.3090   -0.4740   -1.2980 O   0  0  0  0  0  0  0  0  0  0  0  0
    0.0540   -1.4830    0.8430 C   0  0  0  0  0  0  0  0  0  0  0  0
   -1.1190   -2.3400    0.3500 C   0  0  0  0  0  0  0  0  0  0  0  0
   -2.3830   -1.6650    0.7520 C   0  0  2  0  0  0  0  0  0  0  0  0
   -3.5440   -2.4310    0.1980 C   0  0  0  0  0  0  0  0  0  0  0  0
   -3.5440   -2.5330   -1.2940 C   0  0  0  0  0  0  0  0  0  0  0  0
   -4.6870   -3.2760   -1.6550 O   0  0  0  0  0  0  0  0  0  0  0  0
   -2.4770   -0.2270    0.3470 C   0  0  0  0  0  0  0  0  0  0  0  0
   -1.2320    0.5650    0.5990 C   0  0  2  0  0  0  0  0  0  0  0  0
   -1.4090    1.8640   -0.0210 N   0  0  0  0  0  0  0  0  0  0  0  0
   -0.7500    2.9210    0.6820 C   0  0  0  0  0  0  0  0  0  0  0  0
   -1.7220    4.0640    1.0080 C   0  0  0  0  0  0  0  0  0  0  0  0
   -2.2650    4.5990   -0.1680 O   0  0  0  0  0  0  0  0  0  0  0  0
  1  2  1  0
  2  3  1  0
  3  4  1  6
  3  5  1  0
  5  6  1  0
  6  7  1  0
  7  8  1  6
  7  9  1  0
  7 16  1  0
  9 10  1  0
 10 11  1  0
 11 12  1  6
 11 15  1  0
 12 13  1  0
 13 14  1  0
 15 16  1  0
 16 17  1  6
 17 18  1  0
 18 19  1  0
 19 20  1  0
M  CHG  1  17   1
M  END
