
     RDKit          3D

 20 20  0  0  0  0  0  0  0  0999 V2000
   -4.3410   -0.3830   -0.9070 C   0  0  0  0  0  0  0  0  0  0  0  0
   -2.8140   -0.3660   -0.8880 C   0  0  0  0  0  0  0  0  0  0  0  0
   -2.2870    0.5500    0.1960 C   0  0  1  0  0  0  0  0  0  0  0  0
   -2.9190    1.9330   -0.1940 C   0  0  0  0  0  0  0  0  0  0  0  0
   -3.0040    0.2180    1.4550 C   0  0  0  0  0  0  0  0  0  0  0  0
   -2.6170    0.9970    2.5420 O   0  0  0  0  0  0  0  0  0  0  0  0
   -0.8800    0.7720    0.1560 C   0  0  1  0  0  0  0  0  0  0  0  0
   -0.4520    1.6080    1.1870 O   0  0  0  0  0  0  0  0  0  0  0  0
    0.1790   -0.2950   -0.0370 C   0  0  1  0  0  0  0  0  0  0  0  0
    0.1340   -1.3340    1.0050 C   0  0  0  0  0  0  0  0  0  0  0  0
    0.9820   -2.4540    0.9660 N   0  0  0  0  0  0  0  0  0  0  0  0
    0.1970   -0.9190   -1.4000 C   0  0  0  0  0  0  0  0  0  0  0  0
    0.4330    0.0660   -2.5230 C   0  0  0  0  0  0  0  0  0  0  0  0
    0.4170   -0.7130   -3.7090 O   0  0  0  0  0  0  0  0  0  0  0  0
    1.4040    0.5720    0.0410 C   0  0  0  0  0  0  0  0  0  0  0  0
    2.7690    0.0920   -0.0590 C   0  0  1  0  0  0  0  0  0  0  0  0
    3.6950    1.3670   -0.0440 C   0  0  0  0  0  0  0  0  0  0  0  0
    4.9540    0.8140    0.5650 C   0  0  0  0  0  0  0  0  0  0  0  0
    4.4160    0.1670    1.6650 O   0  0  0  0  0  0  0  0  0  0  0  0
    3.3320   -0.5450    1.2070 C   0  0  0  0  0  0  0  0  0  0  0  0
  1  2  1  0
  2  3  1  0
  3  4  1  6
  3  5  1  0
  3  7  1  0
  5  6  1  0
  7  8  1  1
  7  9  1  0
  9 10  1  1
  9 12  1  0
  9 15  1  0
 10 11  1  0
 12 13  1  0
 13 14  1  0
 16 15  1  1
 16 17  1  0
 16 20  1  0
 17 18  1  0
 18 19  1  0
 19 20  1  0
M  CHG  1  11   1
M  END
