
     RDKit          3D

 20 20  0  0  0  0  0  0  0  0999 V2000
    6.0030   -0.6490   -0.1460 C   0  0  0  0  0  0  0  0  0  0  0  0
    5.2510   -1.0140   -1.3840 C   0  0  0  0  0  0  0  0  0  0  0  0
    3.7990   -1.3460   -1.1080 C   0  0  0  0  0  0  0  0  0  0  0  0
    3.1760   -0.1180   -0.4940 C   0  0  0  0  0  0  0  0  0  0  0  0
    1.6900   -0.3610   -0.1760 C   0  0  0  0  0  0  0  0  0  0  0  0
    1.1810    0.8940    0.4170 C   0  0  0  0  0  0  0  0  0  0  0  0
   -0.2770    0.8850    0.8100 C   0  0  1  0  0  0  0  0  0  0  0  0
   -0.5020    2.3080    1.3860 C   0  0  0  0  0  0  0  0  0  0  0  0
   -0.2300    3.3130    0.4060 N   0  0  0  0  0  0  0  0  0  0  0  0
   -1.1590    0.7960   -0.3870 C   0  0  0  0  0  0  0  0  0  0  0  0
   -1.9710   -0.4360   -0.5500 C   0  0  2  0  0  0  0  0  0  0  0  0
   -1.8130   -0.8730   -1.8960 O   0  0  0  0  0  0  0  0  0  0  0  0
   -3.4590   -0.2070   -0.4450 C   0  0  2  0  0  0  0  0  0  0  0  0
   -4.1870   -1.4700   -0.8540 C   0  0  0  0  0  0  0  0  0  0  0  0
   -3.7940    0.7750   -1.4060 O   0  0  0  0  0  0  0  0  0  0  0  0
   -3.9510    0.2310    0.8770 C   0  0  0  0  0  0  0  0  0  0  0  0
   -5.3550    0.3780    0.7580 O   0  0  0  0  0  0  0  0  0  0  0  0
   -1.4910   -1.5580    0.3000 C   0  0  0  0  0  0  0  0  0  0  0  0
   -0.9580   -1.1990    1.6320 C   0  0  0  0  0  0  0  0  0  0  0  0
   -0.5730    0.0670    1.8480 O   0  0  0  0  0  0  0  0  0  0  0  0
  1  2  1  0
  2  3  1  0
  3  4  1  0
  4  5  1  0
  5  6  1  0
  7  6  1  6
  7  8  1  0
  7 10  1  0
  7 20  1  0
  8  9  1  0
 10 11  1  0
 11 12  1  6
 11 13  1  0
 11 18  1  0
 13 14  1  6
 13 15  1  0
 13 16  1  0
 16 17  1  0
 18 19  1  0
 19 20  1  0
M  CHG  1   9   1
M  END
