
     RDKit          3D

 20 20  0  0  0  0  0  0  0  0999 V2000
   -5.1300    2.3950   -1.1280 C   0  0  0  0  0  0  0  0  0  0  0  0
   -4.2510    1.1340   -0.8080 C   0  0  0  0  0  0  0  0  0  0  0  0
   -2.9610    1.2920   -1.4820 C   0  0  0  0  0  0  0  0  0  0  0  0
   -1.8840    0.3380   -1.4560 C   0  0  0  0  0  0  0  0  0  0  0  0
   -1.0690    0.0350   -0.2220 C   0  0  1  0  0  0  0  0  0  0  0  0
   -2.0090   -0.4290    0.8390 C   0  0  0  0  0  0  0  0  0  0  0  0
   -1.5610   -0.8550    2.1640 C   0  0  0  0  0  0  0  0  0  0  0  0
   -0.7500   -2.0210    2.2990 N   0  0  0  0  0  0  0  0  0  0  0  0
    0.0290   -0.9260   -0.5960 C   0  0  0  0  0  0  0  0  0  0  0  0
    1.3910   -0.3510   -0.8330 C   0  0  2  0  0  0  0  0  0  0  0  0
    1.8290   -1.0320   -2.0160 O   0  0  0  0  0  0  0  0  0  0  0  0
    2.4210   -0.8090    0.2050 C   0  0  1  0  0  0  0  0  0  0  0  0
    2.3540   -0.1100    1.4980 C   0  0  0  0  0  0  0  0  0  0  0  0
    2.3380   -2.1870    0.3990 O   0  0  0  0  0  0  0  0  0  0  0  0
    3.8340   -0.6240   -0.3780 C   0  0  0  0  0  0  0  0  0  0  0  0
    4.9150   -1.0440    0.5430 C   0  0  0  0  0  0  0  0  0  0  0  0
    4.8940   -0.3150    1.7270 O   0  0  0  0  0  0  0  0  0  0  0  0
    1.4770    1.0910   -1.1240 C   0  0  0  0  0  0  0  0  0  0  0  0
    0.2260    1.8690   -0.7870 C   0  0  0  0  0  0  0  0  0  0  0  0
   -0.5510    1.2940    0.1620 O   0  0  0  0  0  0  0  0  0  0  0  0
  1  2  1  0
  2  3  1  0
  3  4  1  0
  5  4  1  6
  5  6  1  0
  5  9  1  0
  5 20  1  0
  6  7  1  0
  7  8  1  0
  9 10  1  0
 10 11  1  6
 10 12  1  0
 10 18  1  0
 12 13  1  1
 12 14  1  0
 12 15  1  0
 15 16  1  0
 16 17  1  0
 18 19  1  0
 19 20  1  0
M  CHG  1   8   1
M  END
