
     RDKit          3D

 20 20  0  0  0  0  0  0  0  0999 V2000
   -3.5680   -1.9720   -2.1330 C   0  0  0  0  0  0  0  0  0  0  0  0
   -2.6820   -0.9380   -2.7290 C   0  0  2  0  0  0  0  0  0  0  0  0
   -1.8440   -1.5370   -3.7110 O   0  0  0  0  0  0  0  0  0  0  0  0
   -1.9040   -0.0830   -1.8180 C   0  0  0  0  0  0  0  0  0  0  0  0
   -0.9180   -0.7450   -0.9130 C   0  0  2  0  0  0  0  0  0  0  0  0
   -1.4180   -1.6860    0.0150 N   0  0  0  0  0  0  0  0  0  0  0  0
    0.0150    0.3050   -0.3340 C   0  0  1  0  0  0  0  0  0  0  0  0
   -0.6560    1.3080    0.5570 C   0  0  0  0  0  0  0  0  0  0  0  0
   -1.3330    0.7930    1.7590 C   0  0  0  0  0  0  0  0  0  0  0  0
   -1.9190    1.9040    2.6240 C   0  0  2  0  0  0  0  0  0  0  0  0
   -2.5000    1.1970    3.7490 O   0  0  0  0  0  0  0  0  0  0  0  0
   -3.1170    2.4830    1.9170 C   0  0  0  0  0  0  0  0  0  0  0  0
   -2.7980    3.2710    0.8430 O   0  0  0  0  0  0  0  0  0  0  0  0
    1.0780   -0.2570    0.2770 O   0  0  0  0  0  0  0  0  0  0  0  0
    2.3150   -0.0470   -0.2630 C   0  0  2  0  0  0  0  0  0  0  0  0
    3.0370   -1.2800   -0.7190 C   0  0  0  0  0  0  0  0  0  0  0  0
    4.0470   -1.7690    0.3040 C   0  0  0  0  0  0  0  0  0  0  0  0
    5.1570   -0.7810    0.4670 C   0  0  0  0  0  0  0  0  0  0  0  0
    4.6440    0.5940    0.0630 C   0  0  0  0  0  0  0  0  0  0  0  0
    3.2510    0.7330    0.6380 C   0  0  0  0  0  0  0  0  0  0  0  0
  2  1  1  1
  2  3  1  0
  2  4  1  0
  4  5  1  0
  5  6  1  1
  5  7  1  0
  7  8  1  1
  7 14  1  0
  8  9  1  0
  9 10  1  0
 10 11  1  1
 10 12  1  0
 12 13  1  0
 15 14  1  1
 15 16  1  0
 15 20  1  0
 16 17  1  0
 17 18  1  0
 18 19  1  0
 19 20  1  0
M  CHG  1   6   1
M  END
