
     RDKit          3D

 18 18  0  0  0  0  0  0  0  0999 V2000
    6.2280    0.9700    1.1010 C   0  0  0  0  0  0  0  0  0  0  0  0
    4.4330    1.0250    0.7300 S   0  0  0  0  0  0  0  0  0  0  0  0
    3.7280   -0.6060    1.0090 C   0  0  0  0  0  0  0  0  0  0  0  0
    2.2780   -0.6930    0.7590 C   0  0  0  0  0  0  0  0  0  0  0  0
    1.5090   -0.6140    1.7760 O   0  0  0  0  0  0  0  0  0  0  0  0
    1.6570   -0.8600   -0.4840 N   0  0  0  0  0  0  0  0  0  0  0  0
    0.2440   -0.9410   -0.5540 N   0  0  0  0  0  0  0  0  0  0  0  0
   -0.5330    0.2090   -0.7800 C   0  0  0  0  0  0  0  0  0  0  0  0
    0.1080    1.3080   -0.9000 O   0  0  0  0  0  0  0  0  0  0  0  0
   -1.9920    0.2150   -0.8830 C   0  0  0  0  0  0  0  0  0  0  0  0
   -2.6560   -0.8960   -0.7690 C   0  0  0  0  0  0  0  0  0  0  0  0
   -4.0710   -1.1850   -0.8250 N   0  0  0  0  0  0  0  0  0  0  0  0
   -5.1660   -0.4080   -0.4250 C   0  0  0  0  0  0  0  0  0  0  0  0
   -6.3030   -0.9890   -0.3340 O   0  0  0  0  0  0  0  0  0  0  0  0
   -5.2090    0.9570   -0.0990 N   0  0  0  0  0  0  0  0  0  0  0  0
   -4.3360    1.9960   -0.5350 C   0  0  0  0  0  0  0  0  0  0  0  0
   -4.8810    3.5250   -0.4310 S   0  0  0  0  0  0  0  0  0  0  0  0
   -2.6990    1.8650   -1.1960 S   0  0  0  0  0  0  0  0  0  0  0  0
  1  2  1  0
  2  3  1  0
  3  4  1  0
  4  5  2  0
  4  6  1  0
  6  7  1  0
  7  8  1  0
  8  9  2  0
  8 10  1  0
 10 11  2  0
 10 18  1  0
 11 12  1  0
 12 13  1  0
 13 14  2  0
 13 15  1  0
 15 16  1  0
 16 17  2  0
 16 18  1  0
M  END
