
     RDKit          3D

 18 19  0  0  0  0  0  0  0  0999 V2000
    1.2530    0.7440    1.0900 O   0  0  0  0  0  0  0  0  0  0  0  0
    1.5780   -0.2520    0.4300 C   0  0  0  0  0  0  0  0  0  0  0  0
    2.9820   -0.5700    0.4130 N   0  0  0  0  0  0  0  0  0  0  0  0
    3.9130    0.1900    1.0910 N   0  0  0  0  0  0  0  0  0  0  0  0
    5.1360    0.7420   -0.0190 S   0  0  1  0  0  0  0  0  0  0  0  0
    6.3730    1.0520    0.8080 O   0  0  0  0  0  0  0  0  0  0  0  0
    5.4010   -0.3220   -1.0310 O   0  0  0  0  0  0  0  0  0  0  0  0
    0.6610   -1.0470   -0.2730 N   0  0  0  0  0  0  0  0  0  0  0  0
   -0.7390   -0.8380   -0.3410 C   0  0  0  0  0  0  0  0  0  0  0  0
   -1.4700   -1.9360   -0.8080 C   0  0  0  0  0  0  0  0  0  0  0  0
   -2.8260   -1.7890   -0.9100 C   0  0  0  0  0  0  0  0  0  0  0  0
   -3.4250   -0.5760   -0.5530 C   0  0  0  0  0  0  0  0  0  0  0  0
   -5.0920   -0.0760   -0.5670 S   0  0  0  0  0  0  0  0  0  0  0  0
   -4.7330    1.5890    0.0560 C   0  0  0  0  0  0  0  0  0  0  0  0
   -5.9100    2.7790    0.3380 S   0  0  0  0  0  0  0  0  0  0  0  0
   -3.4300    1.6000    0.2070 N   0  0  0  0  0  0  0  0  0  0  0  0
   -2.7630    0.5030   -0.1010 C   0  0  0  0  0  0  0  0  0  0  0  0
   -1.3590    0.3320   -0.0020 C   0  0  0  0  0  0  0  0  0  0  0  0
  1  2  2  0
  2  3  1  0
  2  8  1  0
  3  4  1  0
  5  4  1  1
  5  6  2  0
  5  7  2  0
  8  9  1  0
  9 10  2  0
  9 18  1  0
 10 11  1  0
 11 12  2  0
 12 13  1  0
 12 17  1  0
 13 14  1  0
 14 15  2  0
 14 16  1  0
 16 17  1  0
 17 18  2  0
M  END
