
     RDKit          3D

 18 18  0  0  0  0  0  0  0  0999 V2000
   -5.9050   -0.0730    0.6210 C   0  0  0  0  0  0  0  0  0  0  0  0
   -4.4420    0.2000   -0.4090 S   0  0  0  0  0  0  0  0  0  0  0  0
   -3.6610   -1.3670   -0.7930 C   0  0  0  0  0  0  0  0  0  0  0  0
   -3.0770   -2.0540    0.4250 C   0  0  0  0  0  0  0  0  0  0  0  0
   -2.0790   -1.2760    1.0800 N   0  0  0  0  0  0  0  0  0  0  0  0
   -0.9250   -0.8870    0.3790 C   0  0  0  0  0  0  0  0  0  0  0  0
   -0.7410   -1.2170   -0.7990 O   0  0  0  0  0  0  0  0  0  0  0  0
    0.0610   -0.1040    0.9800 N   0  0  0  0  0  0  0  0  0  0  0  0
    1.2280    0.1340    0.2490 C   0  0  0  0  0  0  0  0  0  0  0  0
    1.8630    1.1260    0.5650 N   0  0  0  0  0  0  0  0  0  0  0  0
    3.0030    1.4110   -0.1350 C   0  0  0  0  0  0  0  0  0  0  0  0
    3.3130    2.5380   -0.5390 O   0  0  0  0  0  0  0  0  0  0  0  0
    3.8400    0.2010   -0.3690 C   0  0  2  0  0  0  0  0  0  0  0  0
    4.8580    0.4590   -1.8070 S   0  0  0  0  0  0  0  0  0  0  0  0
    6.0270    1.7670   -1.4470 C   0  0  0  0  0  0  0  0  0  0  0  0
    6.0600    2.4300   -0.1910 N   0  0  0  0  0  0  0  0  0  0  0  0
    6.8720    2.1400   -2.3230 O   0  0  0  0  0  0  0  0  0  0  0  0
    2.3700   -0.8480   -0.7940 S   0  0  0  0  0  0  0  0  0  0  0  0
  1  2  1  0
  2  3  1  0
  3  4  1  0
  4  5  1  0
  5  6  1  0
  6  7  2  0
  6  8  1  0
  8  9  1  0
  9 10  2  0
  9 18  1  0
 10 11  1  0
 11 12  2  0
 11 13  1  0
 13 14  1  6
 13 18  1  0
 14 15  1  0
 15 16  1  0
 15 17  2  0
M  END
