
     RDKit          3D

 24 24  0  0  0  0  0  0  0  0999 V2000
   -5.1440    0.1950   -0.3710 O   0  0  0  0  0  0  0  0  0  0  0  0
   -5.0880   -1.0470   -0.4770 C   0  0  0  0  0  0  0  0  0  0  0  0
   -6.2810   -1.7920   -0.5000 O   0  0  0  0  0  0  0  0  0  0  0  0
   -3.8580   -1.6680   -0.5690 O   0  0  0  0  0  0  0  0  0  0  0  0
   -2.6790   -1.0130   -0.5520 O   0  0  0  0  0  0  0  0  0  0  0  0
   -1.9790   -0.8050    0.6280 C   0  0  0  0  0  0  0  0  0  0  0  0
   -2.4990   -1.2570    1.6810 O   0  0  0  0  0  0  0  0  0  0  0  0
   -0.6960   -0.0900    0.6290 C   0  0  2  0  0  0  0  0  0  0  0  0
   -0.3720    0.2940   -0.6870 O   0  0  0  0  0  0  0  0  0  0  0  0
   -0.1960    1.6030   -1.1030 C   0  0  0  0  0  0  0  0  0  0  0  0
   -0.5310    1.9460   -2.2620 O   0  0  0  0  0  0  0  0  0  0  0  0
    0.3850    2.6340   -0.2120 C   0  0  0  0  0  0  0  0  0  0  0  0
    1.6340    3.1460   -0.8260 C   0  0  0  0  0  0  0  0  0  0  0  0
    1.5860    4.1470   -1.5800 O   0  0  0  0  0  0  0  0  0  0  0  0
    2.8630    2.5560   -0.5940 O   0  0  0  0  0  0  0  0  0  0  0  0
    3.1330    1.9120    0.5290 O   0  0  0  0  0  0  0  0  0  0  0  0
    2.3960    0.8470    0.5990 O   0  0  0  0  0  0  0  0  0  0  0  0
    2.8850   -0.2920   -0.5950 P   0  0  0  0  0  0  0  0  0  0  0  0
    4.4790   -0.8130   -0.2480 O   0  0  0  0  0  0  0  0  0  0  0  0
    4.7250   -2.0460   -0.6020 O   0  0  0  0  0  0  0  0  0  0  0  0
    1.6610   -1.7140   -0.5580 C   0  0  0  0  0  0  0  0  0  0  0  0
    1.1010   -1.7900    0.8070 C   0  0  0  0  0  0  0  0  0  0  0  0
    1.3610   -2.8090    1.4820 O   0  0  0  0  0  0  0  0  0  0  0  0
    0.3410   -0.7760    1.2720 O   0  0  0  0  0  0  0  0  0  0  0  0
  1  2  2  0
  2  3  1  0
  2  4  1  0
  4  5  1  0
  5  6  1  0
  6  7  2  0
  8  6  1  6
  8  9  1  0
  8 24  1  0
  9 10  1  0
 10 11  2  0
 10 12  1  0
 12 13  1  0
 13 14  2  0
 13 15  1  0
 15 16  1  0
 16 17  1  0
 17 18  1  0
 18 19  1  0
 18 21  1  0
 19 20  1  0
 21 22  1  0
 22 23  2  0
 22 24  1  0
M  END
