
     RDKit          3D

 24 24  0  0  0  0  0  0  0  0999 V2000
   -3.8590    2.2250    0.5620 O   0  0  0  0  0  0  0  0  0  0  0  0
   -4.2940    1.1620    1.0370 C   0  0  0  0  0  0  0  0  0  0  0  0
   -5.1270    1.2360    2.1680 O   0  0  0  0  0  0  0  0  0  0  0  0
   -3.9630   -0.0470    0.4610 O   0  0  0  0  0  0  0  0  0  0  0  0
   -3.1330   -0.1720   -0.6690 C   0  0  0  0  0  0  0  0  0  0  0  0
   -1.7590    0.3750   -0.3870 C   0  0  2  0  0  0  0  0  0  0  0  0
   -0.8730    0.3110   -1.6120 C   0  0  0  0  0  0  0  0  0  0  0  0
    0.2090    1.1900   -1.5550 O   0  0  0  0  0  0  0  0  0  0  0  0
    1.1210    1.3500   -0.5520 C   0  0  0  0  0  0  0  0  0  0  0  0
    1.3730    2.5230   -0.1000 O   0  0  0  0  0  0  0  0  0  0  0  0
    1.8890    0.2610    0.1030 C   0  0  2  0  0  0  0  0  0  0  0  0
    3.3110    0.7900    0.3430 C   0  0  0  0  0  0  0  0  0  0  0  0
    3.9290    1.0900   -0.8680 O   0  0  0  0  0  0  0  0  0  0  0  0
    5.1270    1.5360   -0.6510 O   0  0  0  0  0  0  0  0  0  0  0  0
    5.9400    0.6790   -0.1110 O   0  0  0  0  0  0  0  0  0  0  0  0
    1.9990   -0.8990   -0.6820 O   0  0  0  0  0  0  0  0  0  0  0  0
    2.0350   -2.2110   -0.2190 C   0  0  0  0  0  0  0  0  0  0  0  0
    3.0750   -2.9600   -0.3690 O   0  0  0  0  0  0  0  0  0  0  0  0
    0.8860   -2.6660    0.4120 O   0  0  0  0  0  0  0  0  0  0  0  0
   -0.3240   -2.8410   -0.1860 O   0  0  0  0  0  0  0  0  0  0  0  0
   -1.5500   -2.6420    0.3410 C   0  0  0  0  0  0  0  0  0  0  0  0
   -2.4290   -3.5370    0.3040 O   0  0  0  0  0  0  0  0  0  0  0  0
   -1.8900   -1.4440    0.9420 O   0  0  0  0  0  0  0  0  0  0  0  0
   -1.2180   -0.3440    0.6750 O   0  0  0  0  0  0  0  0  0  0  0  0
  1  2  2  0
  2  3  1  0
  2  4  1  0
  4  5  1  0
  6  5  1  6
  6  7  1  0
  6 24  1  0
  7  8  1  0
  8  9  1  0
  9 10  2  0
  9 11  1  0
 11 12  1  6
 11 16  1  0
 12 13  1  0
 13 14  1  0
 14 15  1  0
 16 17  1  0
 17 18  2  0
 17 19  1  0
 19 20  1  0
 20 21  1  0
 21 22  2  0
 21 23  1  0
 23 24  1  0
M  END
