
     RDKit          3D

 24 25  0  0  0  0  0  0  0  0999 V2000
   -5.5280    4.3700    1.5410 O   0  0  0  0  0  0  0  0  0  0  0  0
   -4.4780    3.6410    1.8170 O   0  0  0  0  0  0  0  0  0  0  0  0
   -4.0070    3.0370    0.6600 C   0  0  0  0  0  0  0  0  0  0  0  0
   -2.7980    2.1970    0.9770 C   0  0  0  0  0  0  0  0  0  0  0  0
   -2.3040    1.5770   -0.1740 O   0  0  0  0  0  0  0  0  0  0  0  0
   -1.2560    0.8450    0.0800 O   0  0  0  0  0  0  0  0  0  0  0  0
   -0.8190    0.1940   -1.0460 C   0  0  1  0  0  0  0  0  0  0  0  0
    0.4730    0.5450   -1.4160 O   0  0  0  0  0  0  0  0  0  0  0  0
    1.4400    0.0580   -0.5700 C   0  0  2  0  0  0  0  0  0  0  0  0
    2.6860    0.3170   -1.1020 O   0  0  0  0  0  0  0  0  0  0  0  0
    3.7280   -0.1690   -0.3200 C   0  0  1  0  0  0  0  0  0  0  0  0
    3.9430    0.5960    0.8130 O   0  0  0  0  0  0  0  0  0  0  0  0
    5.1510    1.1050    0.7550 O   0  0  0  0  0  0  0  0  0  0  0  0
    5.5170    1.4700    1.9660 O   0  0  0  0  0  0  0  0  0  0  0  0
    6.7900    1.3400    2.1860 O   0  0  0  0  0  0  0  0  0  0  0  0
    3.5250   -1.6200    0.0580 C   0  0  0  0  0  0  0  0  0  0  0  0
    2.2320   -1.8570    0.5180 O   0  0  0  0  0  0  0  0  0  0  0  0
    1.2970   -1.4490   -0.4270 C   0  0  1  0  0  0  0  0  0  0  0  0
    0.0390   -1.6980    0.0770 O   0  0  0  0  0  0  0  0  0  0  0  0
   -0.9070   -1.3070   -0.8730 C   0  0  1  0  0  0  0  0  0  0  0  0
   -2.1390   -1.7100   -0.4280 O   0  0  0  0  0  0  0  0  0  0  0  0
   -2.7740   -2.6050   -1.2780 C   0  0  0  0  0  0  0  0  0  0  0  0
   -2.0570   -3.7750   -1.4730 O   0  0  0  0  0  0  0  0  0  0  0  0
   -1.8460   -4.4290   -0.3630 O   0  0  0  0  0  0  0  0  0  0  0  0
  1  2  1  0
  2  3  1  0
  3  4  1  0
  4  5  1  0
  5  6  1  0
  7  6  1  1
  7  8  1  0
  7 20  1  0
  9  8  1  6
  9 10  1  0
  9 18  1  0
 10 11  1  0
 11 12  1  1
 11 16  1  0
 12 13  1  0
 13 14  1  0
 14 15  1  0
 16 17  1  0
 18 17  1  1
 18 19  1  0
 19 20  1  0
 20 21  1  1
 21 22  1  0
 22 23  1  0
 23 24  1  0
M  END
