
     RDKit          3D

 24 26  0  0  0  0  0  0  0  0999 V2000
    6.2570    1.4320    0.8030 O   0  0  0  0  0  0  0  0  0  0  0  0
    6.6500    0.5580   -0.1010 O   0  0  0  0  0  0  0  0  0  0  0  0
    6.1440   -0.6320    0.1360 O   0  0  0  0  0  0  0  0  0  0  0  0
    5.0180   -0.8270   -0.5170 O   0  0  0  0  0  0  0  0  0  0  0  0
    3.9880   -0.4900    0.3720 C   0  0  0  0  0  0  0  0  0  0  0  0
    2.6250   -0.6870   -0.3060 C   0  0  0  0  0  0  0  0  0  0  0  0
    1.6690   -0.3470    0.5980 O   0  0  0  0  0  0  0  0  0  0  0  0
    0.3960   -0.4330    0.2470 C   0  0  2  0  0  0  0  0  0  0  0  0
    0.0010    0.3670   -0.8630 O   0  0  0  0  0  0  0  0  0  0  0  0
   -1.2350   -0.0730   -0.8460 O   0  0  0  0  0  0  0  0  0  0  0  0
   -1.3390   -1.3350   -0.4080 C   0  0  1  0  0  0  0  0  0  0  0  0
   -1.7350   -1.8130    0.9210 C   0  0  0  0  0  0  0  0  0  0  0  0
   -0.9870   -1.1790    1.9610 O   0  0  0  0  0  0  0  0  0  0  0  0
   -0.5910   -0.0230    1.3010 C   0  0  1  0  0  0  0  0  0  0  0  0
   -0.2380    1.0480    2.0430 O   0  0  0  0  0  0  0  0  0  0  0  0
   -0.6530    2.1930    1.5430 O   0  0  0  0  0  0  0  0  0  0  0  0
   -2.0500    2.3220    1.4250 C   0  0  0  0  0  0  0  0  0  0  0  0
   -2.4950    2.5580    0.1640 O   0  0  0  0  0  0  0  0  0  0  0  0
   -3.5310    1.8370   -0.2770 O   0  0  0  0  0  0  0  0  0  0  0  0
   -3.2460    1.4850   -1.4620 O   0  0  0  0  0  0  0  0  0  0  0  0
   -3.3130    0.2790   -1.9920 C   0  0  0  0  0  0  0  0  0  0  0  0
   -3.3440   -0.9660   -1.2160 C   0  0  0  0  0  0  0  0  0  0  0  0
   -2.2100   -1.8220   -1.3400 O   0  0  0  0  0  0  0  0  0  0  0  0
    0.0130   -1.6400   -0.4200 O   0  0  0  0  0  0  0  0  0  0  0  0
  1  2  1  0
  2  3  1  0
  3  4  1  0
  4  5  1  0
  5  6  1  0
  6  7  1  0
  8  7  1  1
  8  9  1  0
  8 14  1  0
  8 24  1  0
  9 10  1  0
 10 11  1  0
 11 12  1  1
 11 23  1  0
 11 24  1  0
 12 13  1  0
 14 13  1  1
 14 15  1  0
 15 16  1  0
 16 17  1  0
 17 18  1  0
 18 19  1  0
 19 20  1  0
 20 21  1  0
 21 22  1  0
 22 23  1  0
M  END
