
     RDKit          3D

 24 26  0  0  0  0  0  0  0  0999 V2000
    1.7450   -2.6890   -0.5100 O   0  0  0  0  0  0  0  0  0  0  0  0
    0.7280   -1.9610   -0.7590 C   0  0  0  0  0  0  0  0  0  0  0  0
   -0.5960   -2.4450   -0.3290 C   0  0  0  0  0  0  0  0  0  0  0  0
   -1.6430   -1.6290   -0.6050 O   0  0  0  0  0  0  0  0  0  0  0  0
   -1.6480   -0.3790   -0.0570 C   0  0  1  0  0  0  0  0  0  0  0  0
   -1.9900    0.7290   -0.9750 C   0  0  0  0  0  0  0  0  0  0  0  0
   -1.1700    1.2860   -1.7420 O   0  0  0  0  0  0  0  0  0  0  0  0
   -3.3330    1.1710   -0.9710 O   0  0  0  0  0  0  0  0  0  0  0  0
   -3.9680    1.4920    0.1890 O   0  0  0  0  0  0  0  0  0  0  0  0
   -3.1010    1.1020    1.2000 C   0  0  1  0  0  0  0  0  0  0  0  0
   -3.7470    0.9630    2.5450 C   0  0  0  0  0  0  0  0  0  0  0  0
   -3.1220   -0.1270    3.0870 O   0  0  0  0  0  0  0  0  0  0  0  0
   -2.4640   -0.7770    2.1940 O   0  0  0  0  0  0  0  0  0  0  0  0
   -2.8140   -0.3680    0.9460 C   0  0  2  0  0  0  0  0  0  0  0  0
    0.9980   -0.7820   -1.4160 O   0  0  0  0  0  0  0  0  0  0  0  0
    2.2990   -0.4380   -1.7700 C   0  0  1  0  0  0  0  0  0  0  0  0
    2.4630   -0.2900   -3.1520 O   0  0  0  0  0  0  0  0  0  0  0  0
    2.1130    0.9460   -3.3710 O   0  0  0  0  0  0  0  0  0  0  0  0
    2.6140    1.6930   -2.4400 O   0  0  0  0  0  0  0  0  0  0  0  0
    2.7110    0.9330   -1.2780 C   0  0  2  0  0  0  0  0  0  0  0  0
    4.0590    0.8540   -0.9350 O   0  0  0  0  0  0  0  0  0  0  0  0
    4.1950    1.2590    0.2940 O   0  0  0  0  0  0  0  0  0  0  0  0
    5.4380    1.2190    0.7050 O   0  0  0  0  0  0  0  0  0  0  0  0
    5.7600   -0.0160    1.0620 O   0  0  0  0  0  0  0  0  0  0  0  0
  1  2  2  0
  2  3  1  0
  2 15  1  0
  3  4  1  0
  5  4  1  6
  5  6  1  0
  5 14  1  0
  6  7  2  0
  6  8  1  0
  8  9  1  0
  9 10  1  0
 10 11  1  1
 10 14  1  0
 11 12  1  0
 12 13  1  0
 14 13  1  1
 16 15  1  6
 16 17  1  0
 16 20  1  0
 17 18  1  0
 18 19  1  0
 19 20  1  0
 20 21  1  6
 21 22  1  0
 22 23  1  0
 23 24  1  0
M  END
