
     RDKit          3D

 34 37  0  0  0  0  0  0  0  0999 V2000
   -0.4500   -4.2350    1.6900 C   0  0  0  0  0  0  0  0  0  0  0  0
    0.1130   -3.2130    2.6510 C   0  0  0  0  0  0  0  0  0  0  0  0
   -0.2470   -1.8090    2.3550 C   0  0  0  0  0  0  0  0  0  0  0  0
    0.0830   -1.2570    1.0840 N   0  0  0  0  0  0  0  0  0  0  0  0
    1.2770   -0.4830    0.8880 C   0  0  0  0  0  0  0  0  0  0  0  0
    2.4450   -1.1120    0.2700 C   0  0  2  0  0  0  0  0  0  0  0  0
    3.0290   -2.2860    0.9960 C   0  0  0  0  0  0  0  0  0  0  0  0
    3.5250   -0.1160    0.2190 N   0  0  1  0  0  0  0  0  0  0  0  0
    4.5490   -0.6230   -0.6300 C   0  0  0  0  0  0  0  0  0  0  0  0
    5.0230    0.3020   -1.6970 C   0  0  0  0  0  0  0  0  0  0  0  0
    5.2260    1.6520   -1.0940 C   0  0  0  0  0  0  0  0  0  0  0  0
    6.3420    2.4000   -1.3410 C   0  0  0  0  0  0  0  0  0  0  0  0
    6.4250    3.6430   -0.7250 C   0  0  0  0  0  0  0  0  0  0  0  0
    5.4340    4.1100    0.1010 C   0  0  0  0  0  0  0  0  0  0  0  0
    4.3120    3.3350    0.3370 C   0  0  0  0  0  0  0  0  0  0  0  0
    4.2160    2.1020   -0.2670 C   0  0  0  0  0  0  0  0  0  0  0  0
    3.0520    1.1900   -0.0810 C   0  0  0  0  0  0  0  0  0  0  0  0
   -0.8520   -1.3620   -0.0180 C   0  0  0  0  0  0  0  0  0  0  0  0
   -0.5170   -0.8920   -1.1620 O   0  0  0  0  0  0  0  0  0  0  0  0
   -2.1310   -1.9440    0.0410 N   0  0  0  0  0  0  0  0  0  0  0  0
   -2.9730   -1.9980   -1.1020 C   0  0  0  0  0  0  0  0  0  0  0  0
   -3.8920   -1.0020   -1.4500 C   0  0  0  0  0  0  0  0  0  0  0  0
   -4.1460    0.2300   -0.7290 C   0  0  0  0  0  0  0  0  0  0  0  0
   -5.0540    1.0410   -1.2220 C   0  0  0  0  0  0  0  0  0  0  0  0
   -5.5060    2.3540   -0.6900 C   0  0  0  0  0  0  0  0  0  0  0  0
   -6.3650    3.1290   -1.6140 C   0  0  0  0  0  0  0  0  0  0  0  0
   -5.2150    2.8640    0.4930 C   0  0  0  0  0  0  0  0  0  0  0  0
   -4.3950    2.3320    1.6100 C   0  0  0  0  0  0  0  0  0  0  0  0
   -3.1460    1.6410    1.1020 C   0  0  0  0  0  0  0  0  0  0  0  0
   -3.4060    0.4490    0.4250 O   0  0  0  0  0  0  0  0  0  0  0  0
   -4.5180   -1.3730   -2.5820 N   0  0  0  0  0  0  0  0  0  0  0  0
   -4.0350   -2.5680   -2.9730 N   0  0  0  0  0  0  0  0  0  0  0  0
   -3.1050   -2.9430   -2.0810 C   0  0  0  0  0  0  0  0  0  0  0  0
   -2.4580   -4.0120   -2.1500 O   0  0  0  0  0  0  0  0  0  0  0  0
  1  2  1  0
  2  3  1  0
  3  4  1  0
  4  5  1  0
  4 18  1  0
  5  6  1  0
  6  7  1  1
  6  8  1  0
  8  9  1  6
  8 17  1  0
  9 10  1  0
 10 11  1  0
 11 12  2  0
 11 16  1  0
 12 13  1  0
 13 14  2  0
 14 15  1  0
 15 16  2  0
 16 17  1  0
 18 19  2  0
 18 20  1  0
 20 21  1  0
 21 22  2  0
 21 33  1  0
 22 23  1  0
 22 31  1  0
 23 24  2  0
 23 30  1  0
 24 25  1  0
 25 26  1  0
 25 27  2  0
 27 28  1  0
 28 29  1  0
 29 30  1  0
 31 32  1  0
 32 33  1  0
 33 34  2  0
M  CHG  1   8   1
M  END
