
     RDKit          3D

 34 37  0  0  0  0  0  0  0  0999 V2000
    6.5140    1.6000    0.1340 C   0  0  0  0  0  0  0  0  0  0  0  0
    6.5720    0.3230    0.9500 C   0  0  1  0  0  0  0  0  0  0  0  0
    5.9210    0.4430    2.2900 C   0  0  0  0  0  0  0  0  0  0  0  0
    6.2340   -0.8840    0.1510 C   0  0  2  0  0  0  0  0  0  0  0  0
    7.3120   -0.9420   -0.9680 C   0  0  0  0  0  0  0  0  0  0  0  0
    4.9320   -0.8890   -0.5590 C   0  0  1  0  0  0  0  0  0  0  0  0
    4.8570   -2.1230   -1.2610 O   0  0  0  0  0  0  0  0  0  0  0  0
    3.7000   -0.7770    0.2620 C   0  0  2  0  0  0  0  0  0  0  0  0
    3.5660   -1.8530    1.1400 O   0  0  0  0  0  0  0  0  0  0  0  0
    2.4570   -0.5900   -0.5950 C   0  0  1  0  0  0  0  0  0  0  0  0
    2.3130   -1.7550   -1.4870 C   0  0  0  0  0  0  0  0  0  0  0  0
    1.3210   -0.2900    0.3100 C   0  0  1  0  0  0  0  0  0  0  0  0
    1.6590    0.9950    1.0620 C   0  0  0  0  0  0  0  0  0  0  0  0
    0.3610    1.8200    1.0690 C   0  0  0  0  0  0  0  0  0  0  0  0
   -0.6400    0.7870    0.8440 C   0  0  1  0  0  0  0  0  0  0  0  0
   -1.9800    1.1830    0.3310 C   0  0  2  0  0  0  0  0  0  0  0  0
   -2.3530    2.4870    0.9720 C   0  0  0  0  0  0  0  0  0  0  0  0
   -3.3380    3.0830    0.1370 O   0  0  0  0  0  0  0  0  0  0  0  0
   -4.4890    2.4580   -0.3140 C   0  0  0  0  0  0  0  0  0  0  0  0
   -5.0770    3.0650   -1.2650 O   0  0  0  0  0  0  0  0  0  0  0  0
   -5.0660    1.1970    0.1990 C   0  0  1  0  0  0  0  0  0  0  0  0
   -6.4200    1.0440   -0.3860 C   0  0  0  0  0  0  0  0  0  0  0  0
   -7.0740   -0.2630   -0.3280 C   0  0  2  0  0  0  0  0  0  0  0  0
   -8.2520   -0.2300    0.4580 O   0  0  0  0  0  0  0  0  0  0  0  0
   -6.2750   -1.4240    0.1320 C   0  0  2  0  0  0  0  0  0  0  0  0
   -6.9960   -2.2520    1.0050 O   0  0  0  0  0  0  0  0  0  0  0  0
   -4.9980   -1.0780    0.8280 C   0  0  0  0  0  0  0  0  0  0  0  0
   -4.2100   -0.0090    0.0440 C   0  0  1  0  0  0  0  0  0  0  0  0
   -4.1860   -0.3970   -1.4250 C   0  0  0  0  0  0  0  0  0  0  0  0
   -2.8660    0.0250    0.6520 C   0  0  1  0  0  0  0  0  0  0  0  0
   -2.1470   -1.2590    0.3920 C   0  0  0  0  0  0  0  0  0  0  0  0
   -0.9040   -1.2380   -0.3960 C   0  0  0  0  0  0  0  0  0  0  0  0
   -0.0090   -0.0490   -0.2850 C   0  0  2  0  0  0  0  0  0  0  0  0
    0.0670    0.7280   -1.5720 C   0  0  0  0  0  0  0  0  0  0  0  0
  2  1  1  6
  2  3  1  0
  2  4  1  0
  4  5  1  6
  4  6  1  0
  6  7  1  1
  6  8  1  0
  8  9  1  6
  8 10  1  0
 10 11  1  1
 10 12  1  0
 12 13  1  6
 12 33  1  0
 13 14  1  0
 15 14  1  6
 15 16  1  0
 15 33  1  0
 16 17  1  1
 16 30  1  0
 17 18  1  0
 18 19  1  0
 19 20  2  0
 19 21  1  0
 21 22  1  6
 21 28  1  0
 22 23  1  0
 23 24  1  1
 23 25  1  0
 25 26  1  1
 25 27  1  0
 27 28  1  0
 28 29  1  6
 28 30  1  0
 30 31  1  6
 31 32  1  0
 32 33  1  0
 33 34  1  6
M  END
