
     RDKit          3D

 35 37  0  0  0  0  0  0  0  0999 V2000
   -6.7580    4.5270    0.4110 C   0  0  0  0  0  0  0  0  0  0  0  0
   -6.9870    3.4140   -0.5670 C   0  0  0  0  0  0  0  0  0  0  0  0
   -5.6730    2.6770   -0.8660 C   0  0  0  0  0  0  0  0  0  0  0  0
   -5.2140    2.1410    0.4920 C   0  0  0  0  0  0  0  0  0  0  0  0
   -3.9380    1.3850    0.3890 C   0  0  0  0  0  0  0  0  0  0  0  0
   -3.8780    0.1050    0.6110 C   0  0  0  0  0  0  0  0  0  0  0  0
   -4.9930   -0.7420    0.9730 C   0  0  0  0  0  0  0  0  0  0  0  0
   -4.7950   -2.1260    1.2020 N   0  0  0  0  0  0  0  0  0  0  0  0
   -6.1460   -0.3230    1.0990 O   0  0  0  0  0  0  0  0  0  0  0  0
   -2.5600   -0.5750    0.4950 C   0  0  0  0  0  0  0  0  0  0  0  0
   -2.5120   -1.9210    0.7320 N   0  0  0  0  0  0  0  0  0  0  0  0
   -1.3440   -2.5740    0.6390 C   0  0  0  0  0  0  0  0  0  0  0  0
   -1.3160   -4.0350    0.9010 C   0  0  0  0  0  0  0  0  0  0  0  0
   -1.6070   -4.9150   -0.6520 S   0  0  0  0  0  0  0  0  0  0  0  0
   -1.5840   -6.6800   -0.3910 C   0  0  0  0  0  0  0  0  0  0  0  0
   -2.9050   -4.4980   -1.2880 O   0  0  0  0  0  0  0  0  0  0  0  0
   -0.1850   -1.9180    0.3080 C   0  0  0  0  0  0  0  0  0  0  0  0
   -0.1890   -0.5580    0.0600 C   0  0  0  0  0  0  0  0  0  0  0  0
    1.0270    0.1200   -0.2820 C   0  0  0  0  0  0  0  0  0  0  0  0
    1.0740    1.3360   -0.5040 O   0  0  0  0  0  0  0  0  0  0  0  0
    2.2890   -0.6830   -0.3740 C   0  0  0  0  0  0  0  0  0  0  0  0
    3.4100    0.1550   -0.7280 N   0  0  0  0  0  0  0  0  0  0  0  0
    4.6830   -0.4670   -0.8530 C   0  0  0  0  0  0  0  0  0  0  0  0
    4.8060   -1.7240   -0.6560 O   0  0  0  0  0  0  0  0  0  0  0  0
    5.8330    0.3910   -1.2150 C   0  0  1  0  0  0  0  0  0  0  0  0
    5.5570    1.0250   -2.5670 C   0  0  0  0  0  0  0  0  0  0  0  0
    5.9160    1.5340   -0.2160 C   0  0  0  0  0  0  0  0  0  0  0  0
    6.2700    0.9060    1.1240 C   0  0  2  0  0  0  0  0  0  0  0  0
    6.2800    1.8530    2.1390 O   0  0  0  0  0  0  0  0  0  0  0  0
    7.6540    0.2870    0.9420 C   0  0  0  0  0  0  0  0  0  0  0  0
    7.4930   -0.7900   -0.1220 C   0  0  0  0  0  0  0  0  0  0  0  0
    7.0180   -0.3040   -1.3120 O   0  0  0  0  0  0  0  0  0  0  0  0
   -1.4210    0.1050    0.1630 C   0  0  0  0  0  0  0  0  0  0  0  0
   -1.4710    1.5570   -0.0950 C   0  0  0  0  0  0  0  0  0  0  0  0
   -2.7690    2.2270    0.0150 C   0  0  0  0  0  0  0  0  0  0  0  0
  1  2  1  0
  2  3  1  0
  3  4  1  0
  4  5  1  0
  5  6  2  0
  5 35  1  0
  6  7  1  0
  6 10  1  0
  7  8  1  0
  7  9  2  0
 10 11  2  0
 10 33  1  0
 11 12  1  0
 12 13  1  0
 12 17  2  0
 13 14  1  0
 14 15  1  1
 14 16  2  0
 17 18  1  0
 18 19  1  0
 18 33  2  0
 19 20  2  0
 19 21  1  0
 21 22  1  0
 22 23  1  0
 23 24  2  0
 23 25  1  0
 25 26  1  6
 25 27  1  0
 25 32  1  0
 27 28  1  0
 28 29  1  1
 28 30  1  0
 30 31  1  0
 31 32  1  0
 33 34  1  0
 34 35  1  0
M  END
