
     RDKit          3D

 35 38  0  0  0  0  0  0  0  0999 V2000
   -1.3640   -3.1720    1.0550 C   0  0  0  0  0  0  0  0  0  0  0  0
   -2.6950   -2.6060    0.7160 C   0  0  1  0  0  0  0  0  0  0  0  0
   -2.7260   -1.4680   -0.2330 C   0  0  0  0  0  0  0  0  0  0  0  0
   -1.9760   -0.2650    0.2560 C   0  0  1  0  0  0  0  0  0  0  0  0
   -0.6350   -0.5790    0.4630 O   0  0  0  0  0  0  0  0  0  0  0  0
   -0.0120   -0.3420    1.6880 C   0  0  0  0  0  0  0  0  0  0  0  0
   -0.7170    0.1660    2.5830 O   0  0  0  0  0  0  0  0  0  0  0  0
    1.4190   -0.6910    1.8700 C   0  0  0  0  0  0  0  0  0  0  0  0
    2.2460    0.5440    1.6690 C   0  0  0  0  0  0  0  0  0  0  0  0
    3.7010    0.2650    1.8370 C   0  0  0  0  0  0  0  0  0  0  0  0
    4.1150   -0.8910    2.1100 O   0  0  0  0  0  0  0  0  0  0  0  0
    4.6880    1.2790    1.7010 N   0  0  0  0  0  0  0  0  0  0  0  0
    6.0730    1.0080    1.8630 C   0  0  0  0  0  0  0  0  0  0  0  0
    6.6810    0.0040    0.9530 C   0  0  0  0  0  0  0  0  0  0  0  0
    6.6180    0.3280   -0.4810 C   0  0  0  0  0  0  0  0  0  0  0  0
    6.0940    1.3980   -1.0200 C   0  0  0  0  0  0  0  0  0  0  0  0
    6.2460    1.3200   -2.5030 C   0  0  0  0  0  0  0  0  0  0  0  0
    6.9350    0.0390   -2.6990 C   0  0  0  0  0  0  0  0  0  0  0  0
    7.1460   -0.5270   -1.5290 C   0  0  0  0  0  0  0  0  0  0  0  0
   -2.1380    0.7880   -0.7960 C   0  0  0  0  0  0  0  0  0  0  0  0
   -1.1280    1.2560   -1.3400 O   0  0  0  0  0  0  0  0  0  0  0  0
   -3.4210    1.2280   -1.1500 N   0  0  0  0  0  0  0  0  0  0  0  0
   -3.5360    2.2490   -2.1720 C   0  0  1  0  0  0  0  0  0  0  0  0
   -4.3820    1.8560   -3.2930 C   0  0  0  0  0  0  0  0  0  0  0  0
   -4.0990    0.9140   -4.0870 O   0  0  0  0  0  0  0  0  0  0  0  0
   -5.5080    2.7090   -3.2880 N   0  0  0  0  0  0  0  0  0  0  0  0
   -5.4050    3.6520   -2.1580 C   0  0  0  0  0  0  0  0  0  0  0  0
   -6.2810    4.6690   -1.7560 C   0  0  0  0  0  0  0  0  0  0  0  0
   -5.3720    5.2970   -0.2950 S   0  0  0  0  0  0  0  0  0  0  0  0
   -4.0200    4.2240   -0.3630 C   0  0  0  0  0  0  0  0  0  0  0  0
   -4.2940    3.3970   -1.5160 C   0  0  0  0  0  0  0  0  0  0  0  0
   -3.5660   -3.7110    0.1380 C   0  0  0  0  0  0  0  0  0  0  0  0
   -4.1850   -4.2840    1.3860 C   0  0  0  0  0  0  0  0  0  0  0  0
   -3.7480   -3.3620    2.4860 C   0  0  0  0  0  0  0  0  0  0  0  0
   -3.3930   -2.1800    1.8730 O   0  0  0  0  0  0  0  0  0  0  0  0
  2  1  1  1
  2  3  1  0
  2 32  1  0
  2 35  1  0
  4  3  1  6
  4  5  1  0
  4 20  1  0
  5  6  1  0
  6  7  2  0
  6  8  1  0
  8  9  1  0
  9 10  1  0
 10 11  2  0
 10 12  1  0
 12 13  1  0
 13 14  1  0
 14 15  1  0
 15 16  2  0
 15 19  1  0
 16 17  1  0
 17 18  1  0
 18 19  2  0
 20 21  2  0
 20 22  1  0
 23 22  1  1
 23 24  1  0
 23 31  1  0
 24 25  2  0
 24 26  1  0
 26 27  1  0
 27 28  2  0
 27 31  1  0
 28 29  1  0
 29 30  1  0
 30 31  2  0
 32 33  1  0
 33 34  1  0
 34 35  1  0
M  END
