
     RDKit          3D

 19 20  0  0  0  0  0  0  0  0999 V2000
   -5.2380   -0.3290    0.5030 C   0  0  0  0  0  0  0  0  0  0  0  0
   -3.8060   -0.3980    0.2090 N   0  0  0  0  0  0  0  0  0  0  0  0
   -3.1600    0.7700   -0.2750 C   0  0  0  0  0  0  0  0  0  0  0  0
   -3.6850    1.9210   -0.0960 N   0  0  0  0  0  0  0  0  0  0  0  0
   -1.8870    0.6380   -0.9790 C   0  0  0  0  0  0  0  0  0  0  0  0
   -0.8040   -0.0050   -0.1160 C   0  0  0  0  0  0  0  0  0  0  0  0
    0.4730   -0.1260   -0.8580 C   0  0  0  0  0  0  0  0  0  0  0  0
    1.5920   -0.7220   -0.1540 C   0  0  0  0  0  0  0  0  0  0  0  0
    2.7310   -0.0990    0.1090 C   0  0  0  0  0  0  0  0  0  0  0  0
    3.5920   -1.0430    0.8280 C   0  0  0  0  0  0  0  0  0  0  0  0
    4.8000   -0.6630    1.2120 C   0  0  0  0  0  0  0  0  0  0  0  0
    5.2790    0.6730    0.9290 C   0  0  0  0  0  0  0  0  0  0  0  0
    6.4480    0.9550    1.3320 O   0  0  0  0  0  0  0  0  0  0  0  0
    4.4700    1.6050    0.2370 N   0  0  0  0  0  0  0  0  0  0  0  0
    3.2810    1.2490   -0.1470 C   0  0  0  0  0  0  0  0  0  0  0  0
    2.4590    2.1770   -0.8380 N   0  0  0  0  0  0  0  0  0  0  0  0
    2.8640   -2.2520    0.9590 N   0  0  0  0  0  0  0  0  0  0  0  0
    1.7290   -2.0700    0.4010 C   0  0  0  0  0  0  0  0  0  0  0  0
    0.7200   -3.0450    0.3250 N   0  0  0  0  0  0  0  0  0  0  0  0
  1  2  1  0
  2  3  1  0
  3  4  2  0
  3  5  1  0
  5  6  1  0
  6  7  1  0
  7  8  1  0
  8  9  2  0
  8 18  1  0
  9 10  1  0
  9 15  1  0
 10 11  2  0
 10 17  1  0
 11 12  1  0
 12 13  2  0
 12 14  1  0
 14 15  2  0
 15 16  1  0
 17 18  2  0
 18 19  1  0
M  CHG  1   4   1
M  END
