
     RDKit          3D

 20 21  0  0  0  0  0  0  0  0999 V2000
    6.2890    1.4270   -0.1180 N   0  0  0  0  0  0  0  0  0  0  0  0
    6.1620    0.2080    0.4650 N   0  0  0  0  0  0  0  0  0  0  0  0
    5.1430   -0.5200    0.6700 C   0  0  0  0  0  0  0  0  0  0  0  0
    5.3980   -1.7850    1.3340 N   0  0  0  0  0  0  0  0  0  0  0  0
    3.7710   -0.2150    0.3120 C   0  0  0  0  0  0  0  0  0  0  0  0
    3.4120    0.9400   -0.3110 C   0  0  0  0  0  0  0  0  0  0  0  0
    2.0660    1.2020   -0.6440 C   0  0  0  0  0  0  0  0  0  0  0  0
    1.1050    0.2690   -0.3300 C   0  0  0  0  0  0  0  0  0  0  0  0
   -0.3030    0.4540   -0.6340 C   0  0  0  0  0  0  0  0  0  0  0  0
   -1.2370    0.0390    0.1740 C   0  0  0  0  0  0  0  0  0  0  0  0
   -0.8220   -0.6070    1.3730 N   0  0  0  0  0  0  0  0  0  0  0  0
   -2.6780    0.1850   -0.0510 C   0  0  0  0  0  0  0  0  0  0  0  0
   -3.5430   -0.2680    0.8260 C   0  0  0  0  0  0  0  0  0  0  0  0
   -4.9790   -0.1440    0.6410 C   0  0  2  0  0  0  0  0  0  0  0  0
   -5.6730   -1.4240    0.7800 N   0  0  0  0  0  0  0  0  0  0  0  0
   -5.3180    0.4940   -0.5380 O   0  0  0  0  0  0  0  0  0  0  0  0
   -4.4240    0.9640   -1.4480 C   0  0  0  0  0  0  0  0  0  0  0  0
   -3.1100    0.8500   -1.2810 C   0  0  0  0  0  0  0  0  0  0  0  0
    1.5020   -0.8420    0.2780 N   0  0  0  0  0  0  0  0  0  0  0  0
    2.7650   -1.0960    0.5940 N   0  0  0  0  0  0  0  0  0  0  0  0
  1  2  1  0
  2  3  2  3
  3  4  1  0
  3  5  1  0
  5  6  2  0
  5 20  1  0
  6  7  1  0
  7  8  2  0
  8  9  1  0
  8 19  1  0
  9 10  2  3
 10 11  1  0
 10 12  1  0
 12 13  2  0
 12 18  1  0
 13 14  1  0
 14 15  1  6
 14 16  1  0
 16 17  1  0
 17 18  2  0
 19 20  2  0
M  CHG  1  15   1
M  END
