
     RDKit          3D

 18 19  0  0  0  0  0  0  0  0999 V2000
   -3.6180    2.8560    2.0110 C   0  0  0  0  0  0  0  0  0  0  0  0
   -2.7480    1.6220    1.9170 C   0  0  0  0  0  0  0  0  0  0  0  0
   -2.2160    1.5900    0.6390 O   0  0  0  0  0  0  0  0  0  0  0  0
   -1.3850    0.4850    0.4270 C   0  0  2  0  0  0  0  0  0  0  0  0
    0.0070    0.9060    0.1570 C   0  0  0  0  0  0  0  0  0  0  0  0
    0.2580    2.1460    0.1120 O   0  0  0  0  0  0  0  0  0  0  0  0
    1.0990    0.0320   -0.0580 N   0  0  0  0  0  0  0  0  0  0  0  0
    2.4050    0.5320   -0.3120 N   0  0  0  0  0  0  0  0  0  0  0  0
    3.4340   -0.0070    0.2780 C   0  0  0  0  0  0  0  0  0  0  0  0
    3.4360   -1.1220    1.2240 C   0  0  0  0  0  0  0  0  0  0  0  0
    4.4050   -2.1640    0.7170 C   0  0  0  0  0  0  0  0  0  0  0  0
    5.7090   -1.1080   -0.0300 S   0  0  0  0  0  0  0  0  0  0  0  0
    4.8140    0.4960    0.0310 C   0  0  0  0  0  0  0  0  0  0  0  0
   -1.9600   -0.4380   -0.6200 C   0  0  1  0  0  0  0  0  0  0  0  0
   -2.0740    0.2170   -1.9720 C   0  0  0  0  0  0  0  0  0  0  0  0
   -2.1120   -0.9880   -2.8890 C   0  0  0  0  0  0  0  0  0  0  0  0
   -1.4290   -2.0450   -2.0730 C   0  0  0  0  0  0  0  0  0  0  0  0
   -1.1640   -1.5240   -0.8320 O   0  0  0  0  0  0  0  0  0  0  0  0
  1  2  1  0
  2  3  1  0
  4  3  1  6
  4  5  1  0
  4 14  1  0
  5  6  2  0
  5  7  1  0
  7  8  1  0
  8  9  2  3
  9 10  1  0
  9 13  1  0
 10 11  1  0
 11 12  1  0
 12 13  1  0
 14 15  1  6
 14 18  1  0
 15 16  1  0
 16 17  1  0
 17 18  1  0
M  END
