
     RDKit          3D

 18 19  0  0  0  0  0  0  0  0999 V2000
    6.6860    0.2030    0.8780 C   0  0  0  0  0  0  0  0  0  0  0  0
    5.4620    0.8500    0.5970 O   0  0  0  0  0  0  0  0  0  0  0  0
    4.2950    0.1640    0.3100 C   0  0  0  0  0  0  0  0  0  0  0  0
    4.3360   -1.0920    0.3020 O   0  0  0  0  0  0  0  0  0  0  0  0
    3.0110    0.8260    0.0150 C   0  0  0  0  0  0  0  0  0  0  0  0
    1.9150   -0.1800   -0.2600 C   0  0  0  0  0  0  0  0  0  0  0  0
    0.6560    0.5790   -0.5480 C   0  0  0  0  0  0  0  0  0  0  0  0
   -0.5160   -0.3380   -0.8390 C   0  0  1  0  0  0  0  0  0  0  0  0
   -0.2630   -1.2160   -2.0280 C   0  0  0  0  0  0  0  0  0  0  0  0
   -0.7980   -1.1650    0.2920 N   0  0  0  0  0  0  0  0  0  0  0  0
   -1.8860   -0.6130    1.0230 C   0  0  2  0  0  0  0  0  0  0  0  0
   -3.2010   -1.8650    1.3160 S   0  0  0  0  0  0  0  0  0  0  0  0
   -4.6270   -0.8240    0.8120 C   0  0  0  0  0  0  0  0  0  0  0  0
   -3.9470    0.5100    0.6200 C   0  0  2  0  0  0  0  0  0  0  0  0
   -4.7240    1.2790   -0.4060 C   0  0  0  0  0  0  0  0  0  0  0  0
   -2.6310    0.2540    0.0990 N   0  0  0  0  0  0  0  0  0  0  0  0
   -1.7150    0.4930   -0.9700 C   0  0  0  0  0  0  0  0  0  0  0  0
   -1.9220    1.3160   -1.9000 O   0  0  0  0  0  0  0  0  0  0  0  0
  1  2  1  0
  2  3  1  0
  3  4  2  0
  3  5  1  0
  5  6  1  0
  6  7  1  0
  7  8  1  0
  8  9  1  6
  8 10  1  0
  8 17  1  0
 11 10  1  6
 11 12  1  0
 11 16  1  0
 12 13  1  0
 13 14  1  0
 14 15  1  6
 14 16  1  0
 16 17  1  0
 17 18  2  0
M  END
