
     RDKit          3D

 20 21  0  0  0  0  0  0  0  0999 V2000
   -0.7360   -3.3290    0.6630 C   0  0  0  0  0  0  0  0  0  0  0  0
   -1.8480   -2.4800    0.1880 C   0  0  0  0  0  0  0  0  0  0  0  0
   -3.1710   -3.0300    0.1130 N   0  0  0  0  0  0  0  0  0  0  0  0
   -1.6210   -1.2320   -0.1490 C   0  0  0  0  0  0  0  0  0  0  0  0
   -0.2890   -0.6650   -0.0670 C   0  0  0  0  0  0  0  0  0  0  0  0
    0.9140   -1.2810   -0.0220 N   0  0  0  0  0  0  0  0  0  0  0  0
    1.9110   -0.3780    0.0240 C   0  0  0  0  0  0  0  0  0  0  0  0
    3.3160   -0.5700    0.0780 N   0  0  0  0  0  0  0  0  0  0  0  0
    3.9590   -1.8220    0.1040 C   0  0  0  0  0  0  0  0  0  0  0  0
    5.3970   -1.9680    0.1540 N   0  0  0  0  0  0  0  0  0  0  0  0
    3.2320   -2.8590    0.0820 O   0  0  0  0  0  0  0  0  0  0  0  0
    1.2730    0.8650    0.0050 C   0  0  0  0  0  0  0  0  0  0  0  0
    1.9490    2.1070    0.0440 N   0  0  0  0  0  0  0  0  0  0  0  0
   -0.0680    0.6710   -0.0510 N   0  0  0  0  0  0  0  0  0  0  0  0
   -1.0080    1.7250   -0.1050 C   0  0  0  0  0  0  0  0  0  0  0  0
   -1.8720    1.8530   -1.1790 C   0  0  0  0  0  0  0  0  0  0  0  0
   -2.7940    2.8760   -1.2670 C   0  0  0  0  0  0  0  0  0  0  0  0
   -2.8760    3.7990   -0.2810 N   0  0  0  0  0  0  0  0  0  0  0  0
   -2.0600    3.7130    0.7730 C   0  0  0  0  0  0  0  0  0  0  0  0
   -1.1400    2.6940    0.8630 C   0  0  0  0  0  0  0  0  0  0  0  0
  1  2  1  0
  2  3  1  0
  2  4  2  3
  4  5  1  0
  5  6  2  0
  5 14  1  0
  6  7  1  0
  7  8  1  0
  7 12  2  0
  8  9  1  0
  9 10  1  0
  9 11  2  0
 12 13  1  0
 12 14  1  0
 14 15  1  0
 15 16  2  0
 15 20  1  0
 16 17  1  0
 17 18  2  0
 18 19  1  0
 19 20  2  0
M  CHG  1  18   1
M  END
