
     RDKit          3D

 30 33  0  0  0  0  0  0  0  0999 V2000
   -4.4170   -4.4990    1.4070 C   0  0  0  0  0  0  0  0  0  0  0  0
   -3.6900   -4.2120    0.1240 C   0  0  0  0  0  0  0  0  0  0  0  0
   -2.5690   -3.2600    0.3140 C   0  0  0  0  0  0  0  0  0  0  0  0
   -2.4650   -2.0860   -0.2410 C   0  0  0  0  0  0  0  0  0  0  0  0
   -3.5130   -1.5520   -1.1630 C   0  0  0  0  0  0  0  0  0  0  0  0
   -3.6100    0.1610   -0.4250 S   0  0  0  0  0  0  0  0  0  0  0  0
   -1.8300    0.1970   -0.0660 C   0  0  0  0  0  0  0  0  0  0  0  0
   -1.0100    1.2630    0.1270 C   0  0  0  0  0  0  0  0  0  0  0  0
    0.3530    1.0170    0.3150 C   0  0  0  0  0  0  0  0  0  0  0  0
    0.8660   -0.2530    0.2970 C   0  0  0  0  0  0  0  0  0  0  0  0
    2.2930   -0.4400    0.4570 C   0  0  0  0  0  0  0  0  0  0  0  0
    3.0620    0.5480    0.5390 O   0  0  0  0  0  0  0  0  0  0  0  0
    2.9770   -1.6800    0.5430 N   0  0  0  0  0  0  0  0  0  0  0  0
    4.4320   -1.6730    0.6970 C   0  0  0  0  0  0  0  0  0  0  0  0
    5.1200   -1.0160   -0.4370 C   0  0  0  0  0  0  0  0  0  0  0  0
    6.5860   -0.8810   -0.4740 C   0  0  0  0  0  0  0  0  0  0  0  0
    4.4550   -0.5830   -1.3510 O   0  0  0  0  0  0  0  0  0  0  0  0
   -0.0350   -1.3180    0.0960 C   0  0  0  0  0  0  0  0  0  0  0  0
    0.5080   -2.5720    0.0830 O   0  0  0  0  0  0  0  0  0  0  0  0
   -1.4070   -1.1070   -0.0860 C   0  0  0  0  0  0  0  0  0  0  0  0
    1.3080    2.0570    0.7080 C   0  0  0  0  0  0  0  0  0  0  0  0
    2.0590    1.7020    1.6500 O   0  0  0  0  0  0  0  0  0  0  0  0
    1.3870    3.3100    0.1190 O   0  0  0  0  0  0  0  0  0  0  0  0
    0.2470    4.0880   -0.2260 C   0  0  0  0  0  0  0  0  0  0  0  0
    0.5880    5.3670   -0.5800 C   0  0  0  0  0  0  0  0  0  0  0  0
   -0.3850    6.2930   -0.9540 C   0  0  0  0  0  0  0  0  0  0  0  0
   -1.7000    5.9470   -0.9760 C   0  0  0  0  0  0  0  0  0  0  0  0
   -2.0640    4.6590   -0.6210 C   0  0  0  0  0  0  0  0  0  0  0  0
   -1.0920    3.7560   -0.2550 C   0  0  0  0  0  0  0  0  0  0  0  0
   -1.7090    2.5000    0.0630 N   0  0  0  0  0  0  0  0  0  0  0  0
  1  2  1  0
  2  3  1  0
  3  4  2  3
  4  5  1  0
  4 20  1  0
  5  6  1  0
  6  7  1  0
  7  8  2  0
  7 20  1  0
  8  9  1  0
  8 30  1  0
  9 10  2  0
  9 21  1  0
 10 11  1  0
 10 18  1  0
 11 12  2  0
 11 13  1  0
 13 14  1  0
 14 15  1  0
 15 16  1  0
 15 17  2  0
 18 19  1  0
 18 20  2  0
 21 22  2  0
 21 23  1  0
 23 24  1  0
 24 25  2  0
 24 29  1  0
 25 26  1  0
 26 27  2  0
 27 28  1  0
 28 29  2  0
 29 30  1  0
M  END
