
     RDKit          3D

 30 32  0  0  0  0  0  0  0  0999 V2000
   -9.5370   -0.9930    0.4970 C   0  0  0  0  0  0  0  0  0  0  0  0
   -8.0690   -0.8330    0.4300 C   0  0  0  0  0  0  0  0  0  0  0  0
   -7.2480   -1.7200    1.0760 C   0  0  0  0  0  0  0  0  0  0  0  0
   -5.8630   -1.5460    0.9970 C   0  0  0  0  0  0  0  0  0  0  0  0
   -5.3320   -0.5110    0.2890 C   0  0  0  0  0  0  0  0  0  0  0  0
   -3.9620   -0.2650    0.1570 N   0  0  0  0  0  0  0  0  0  0  0  0
   -2.9090   -1.0170    0.7180 C   0  0  0  0  0  0  0  0  0  0  0  0
   -3.1820   -2.0180    1.4130 O   0  0  0  0  0  0  0  0  0  0  0  0
   -1.4870   -0.6480    0.5020 C   0  0  0  0  0  0  0  0  0  0  0  0
   -1.0800    0.3710   -0.2010 C   0  0  0  0  0  0  0  0  0  0  0  0
    0.3750    0.6190   -0.3310 C   0  0  0  0  0  0  0  0  0  0  0  0
    0.7650    1.6480   -1.0430 C   0  0  0  0  0  0  0  0  0  0  0  0
    2.1600    2.0010   -1.2500 C   0  0  0  0  0  0  0  0  0  0  0  0
    3.1050    1.1190   -0.5760 C   0  0  0  0  0  0  0  0  0  0  0  0
    4.3930    1.3750   -0.7060 C   0  0  0  0  0  0  0  0  0  0  0  0
    4.7840    2.4870   -1.4950 N   0  0  0  0  0  0  0  0  0  0  0  0
    5.4350    0.6000   -0.0500 C   0  0  0  0  0  0  0  0  0  0  0  0
    5.0010   -0.6020    0.6760 C   0  0  0  0  0  0  0  0  0  0  0  0
    5.7780   -1.5070    1.2300 C   0  0  0  0  0  0  0  0  0  0  0  0
    7.1840   -1.7170    1.3650 C   0  0  0  0  0  0  0  0  0  0  0  0
    8.3850   -0.6900    0.6730 S   0  0  2  0  0  0  0  0  0  0  0  0
    8.4030    0.7160    1.0840 O   0  0  0  0  0  0  0  0  0  0  0  0
    8.4280   -0.8940   -0.8440 O   0  0  0  0  0  0  0  0  0  0  0  0
    9.9510   -1.2960    1.1330 O   0  0  0  0  0  0  0  0  0  0  0  0
    3.5350   -0.7950    0.7660 C   0  0  0  0  0  0  0  0  0  0  0  0
    2.6430   -0.0180    0.1970 C   0  0  0  0  0  0  0  0  0  0  0  0
    1.2800   -0.2340    0.2990 O   0  0  0  0  0  0  0  0  0  0  0  0
   -6.1770    0.3960   -0.3720 C   0  0  0  0  0  0  0  0  0  0  0  0
   -5.6290    1.5490   -1.1620 C   0  0  0  0  0  0  0  0  0  0  0  0
   -7.5320    0.2160   -0.2880 C   0  0  0  0  0  0  0  0  0  0  0  0
  1  2  1  0
  2  3  2  0
  2 30  1  0
  3  4  1  0
  4  5  2  0
  5  6  1  0
  5 28  1  0
  6  7  1  0
  7  8  2  0
  7  9  1  0
  9 10  2  3
 10 11  1  0
 11 12  2  0
 11 27  1  0
 12 13  1  0
 13 14  1  0
 14 15  2  0
 14 26  1  0
 15 16  1  0
 15 17  1  0
 17 18  1  0
 18 19  2  3
 18 25  1  0
 19 20  1  0
 20 21  1  0
 21 22  2  0
 21 23  2  0
 21 24  1  1
 25 26  2  0
 26 27  1  0
 28 29  1  0
 28 30  2  0
M  END
