
     RDKit          3D

 30 32  0  0  0  0  0  0  0  0999 V2000
   -2.7410   -1.1280    0.8680 C   0  0  0  0  0  0  0  0  0  0  0  0
   -1.8840   -0.0850    0.2520 C   0  0  0  0  0  0  0  0  0  0  0  0
   -1.0080   -0.4360   -0.7100 C   0  0  0  0  0  0  0  0  0  0  0  0
   -0.9030   -1.8060   -1.1480 C   0  0  0  0  0  0  0  0  0  0  0  0
   -2.0420   -2.4870   -1.5490 C   0  0  0  0  0  0  0  0  0  0  0  0
   -1.9130   -3.7890   -1.9440 C   0  0  0  0  0  0  0  0  0  0  0  0
   -3.1230   -4.5470   -2.3810 C   0  0  0  0  0  0  0  0  0  0  0  0
   -0.6810   -4.4030   -1.9410 C   0  0  0  0  0  0  0  0  0  0  0  0
    0.4620   -3.7020   -1.5330 C   0  0  0  0  0  0  0  0  0  0  0  0
    0.3670   -2.3900   -1.1290 C   0  0  0  0  0  0  0  0  0  0  0  0
    1.4870   -1.6310   -0.7100 N   0  0  0  0  0  0  0  0  0  0  0  0
    2.8270   -2.0280   -0.6020 C   0  0  0  0  0  0  0  0  0  0  0  0
    3.0670   -3.2480   -0.9290 O   0  0  0  0  0  0  0  0  0  0  0  0
    3.9710   -1.2720   -0.1800 C   0  0  0  0  0  0  0  0  0  0  0  0
    4.0710   -0.0380    0.2100 C   0  0  0  0  0  0  0  0  0  0  0  0
    5.3090    0.6340    0.6220 C   0  0  0  0  0  0  0  0  0  0  0  0
    5.0540    1.8810    0.9710 C   0  0  0  0  0  0  0  0  0  0  0  0
    6.1950    3.0820    1.5330 S   0  0  2  0  0  0  0  0  0  0  0  0
    7.6040    2.7590    1.0590 O   0  0  0  0  0  0  0  0  0  0  0  0
    6.2440    3.1130    3.0290 O   0  0  0  0  0  0  0  0  0  0  0  0
    3.7010    2.1410    0.8310 O   0  0  0  0  0  0  0  0  0  0  0  0
    3.0230    0.9860    0.3440 C   0  0  0  0  0  0  0  0  0  0  0  0
   -1.9960    1.2940    0.6790 C   0  0  0  0  0  0  0  0  0  0  0  0
   -2.8460    1.6970    1.6000 C   0  0  0  0  0  0  0  0  0  0  0  0
   -3.7610    0.8750    2.2970 N   0  0  0  0  0  0  0  0  0  0  0  0
   -2.8060    3.1740    1.9150 C   0  0  0  0  0  0  0  0  0  0  0  0
   -2.8720    4.0270    0.6700 C   0  0  0  0  0  0  0  0  0  0  0  0
   -1.7340    3.6750   -0.2750 C   0  0  0  0  0  0  0  0  0  0  0  0
   -1.1560    2.3570    0.1190 C   0  0  0  0  0  0  0  0  0  0  0  0
    0.0540    2.1650   -0.0330 O   0  0  0  0  0  0  0  0  0  0  0  0
  1  2  1  0
  2  3  2  3
  2 23  1  0
  3  4  1  0
  4  5  2  0
  4 10  1  0
  5  6  1  0
  6  7  1  0
  6  8  2  0
  8  9  1  0
  9 10  2  0
 10 11  1  0
 11 12  1  0
 12 13  2  0
 12 14  1  0
 14 15  2  3
 15 16  1  0
 15 22  1  0
 16 17  2  0
 18 17  1  1
 17 21  1  0
 18 19  2  0
 18 20  2  0
 21 22  1  0
 23 24  2  0
 23 29  1  0
 24 25  1  0
 24 26  1  0
 26 27  1  0
 27 28  1  0
 28 29  1  0
 29 30  2  0
M  END
