
     RDKit          3D

 21 22  0  0  0  0  0  0  0  0999 V2000
    6.9840    0.5620    0.8820 C   0  0  0  0  0  0  0  0  0  0  0  0
    6.1740   -0.4220    0.5900 C   0  0  0  0  0  0  0  0  0  0  0  0
    4.7310   -0.3200    0.6710 C   0  0  0  0  0  0  0  0  0  0  0  0
    4.0760    0.8320    1.0850 C   0  0  0  0  0  0  0  0  0  0  0  0
    2.6830    0.8890    1.1460 C   0  0  0  0  0  0  0  0  0  0  0  0
    2.1220    2.0830    1.5720 O   0  0  0  0  0  0  0  0  0  0  0  0
    1.9280   -0.2030    0.7940 C   0  0  0  0  0  0  0  0  0  0  0  0
    0.4670   -0.1970    0.8400 C   0  0  0  0  0  0  0  0  0  0  0  0
   -0.1660    0.5580   -0.3050 C   0  0  0  0  0  0  0  0  0  0  0  0
   -1.5570    0.5430   -0.2220 O   0  0  0  0  0  0  0  0  0  0  0  0
   -2.3210    1.0430    0.8030 C   0  0  0  0  0  0  0  0  0  0  0  0
   -1.6960    1.5720    1.7700 O   0  0  0  0  0  0  0  0  0  0  0  0
   -3.7740    0.9950    0.8300 C   0  0  0  0  0  0  0  0  0  0  0  0
   -4.4110    0.4470   -0.1720 C   0  0  0  0  0  0  0  0  0  0  0  0
   -3.8010   -0.1520   -1.3770 C   0  0  0  0  0  0  0  0  0  0  0  0
   -4.9350   -0.6370   -2.2250 C   0  0  0  0  0  0  0  0  0  0  0  0
   -6.2040   -0.0210   -1.6680 C   0  0  0  0  0  0  0  0  0  0  0  0
   -5.8960    0.3420   -0.2510 C   0  0  0  0  0  0  0  0  0  0  0  0
    2.5860   -1.3390    0.3840 C   0  0  0  0  0  0  0  0  0  0  0  0
    3.9540   -1.4280    0.3130 C   0  0  0  0  0  0  0  0  0  0  0  0
    4.6260   -2.6020   -0.1100 N   0  0  0  0  0  0  0  0  0  0  0  0
  1  2  2  0
  2  3  1  0
  3  4  2  0
  3 20  1  0
  4  5  1  0
  5  6  1  0
  5  7  2  0
  7  8  1  0
  7 19  1  0
  8  9  1  0
  9 10  1  0
 10 11  1  0
 11 12  2  0
 11 13  1  0
 13 14  2  3
 14 15  1  0
 14 18  1  0
 15 16  1  0
 16 17  1  0
 17 18  1  0
 19 20  2  0
 20 21  1  0
M  END
