
     RDKit          3D

 17 19  0  0  0  0  0  0  0  0999 V2000
   -3.3380    1.2210   -0.0910 C   0  0  0  0  0  0  0  0  0  0  0  0
   -1.9690    0.6070   -0.0390 C   0  0  2  0  0  0  0  0  0  0  0  0
   -1.8020   -0.3150   -1.1430 N   0  0  0  0  0  0  0  0  0  0  0  0
   -0.8870   -1.3150   -0.6000 C   0  0  1  0  0  0  0  0  0  0  0  0
    0.4720   -0.7290   -0.4350 C   0  0  0  0  0  0  0  0  0  0  0  0
    1.3140   -0.8270    0.6030 N   0  0  0  0  0  0  0  0  0  0  0  0
    2.4360   -0.1400    0.3270 C   0  0  0  0  0  0  0  0  0  0  0  0
    3.5960    0.0730    1.0490 C   0  0  0  0  0  0  0  0  0  0  0  0
    4.5950    0.8400    0.4890 C   0  0  0  0  0  0  0  0  0  0  0  0
    4.4130    1.3740   -0.7750 C   0  0  0  0  0  0  0  0  0  0  0  0
    3.2600    1.1640   -1.4980 C   0  0  0  0  0  0  0  0  0  0  0  0
    2.2580    0.3930   -0.9330 C   0  0  0  0  0  0  0  0  0  0  0  0
    1.0530    0.0230   -1.3810 N   0  0  0  0  0  0  0  0  0  0  0  0
   -1.5410   -1.5880    0.7460 C   0  0  2  0  0  0  0  0  0  0  0  0
   -2.7200   -2.2840    0.4960 O   0  0  0  0  0  0  0  0  0  0  0  0
   -1.8090   -0.1810    1.2300 C   0  0  2  0  0  0  0  0  0  0  0  0
   -2.9470   -0.0750    1.9960 O   0  0  0  0  0  0  0  0  0  0  0  0
  2  1  1  1
  2  3  1  0
  2 16  1  0
  3  4  1  0
  4  5  1  1
  4 14  1  0
  5  6  2  0
  5 13  1  0
  6  7  1  0
  7  8  2  0
  7 12  1  0
  8  9  1  0
  9 10  2  0
 10 11  1  0
 11 12  2  0
 12 13  1  0
 14 15  1  6
 14 16  1  0
 16 17  1  1
M  CHG  1   3   1
M  END
