
     RDKit          3D

 21 23  0  0  0  0  0  0  0  0999 V2000
   -0.7070    4.0370   -2.0790 N   0  0  0  0  0  0  0  0  0  0  0  0
   -1.1080    2.7830   -1.5090 C   0  0  0  0  0  0  0  0  0  0  0  0
   -2.4100    2.5570   -1.1390 C   0  0  0  0  0  0  0  0  0  0  0  0
   -2.7720    1.3440   -0.5940 C   0  0  0  0  0  0  0  0  0  0  0  0
   -1.8900    0.3170   -0.3900 C   0  0  0  0  0  0  0  0  0  0  0  0
   -2.3040   -0.9410    0.1840 C   0  0  0  0  0  0  0  0  0  0  0  0
   -3.1340   -0.9730    1.3020 C   0  0  0  0  0  0  0  0  0  0  0  0
   -3.5150   -2.1690    1.8300 C   0  0  0  0  0  0  0  0  0  0  0  0
   -3.0950   -3.3610    1.2800 C   0  0  0  0  0  0  0  0  0  0  0  0
   -2.2670   -3.3360    0.1640 C   0  0  0  0  0  0  0  0  0  0  0  0
   -1.8470   -4.5520   -0.3860 O   0  0  0  0  0  0  0  0  0  0  0  0
   -1.8730   -2.1340   -0.3820 C   0  0  0  0  0  0  0  0  0  0  0  0
   -0.5460    0.5460   -0.7700 C   0  0  0  0  0  0  0  0  0  0  0  0
    0.3330   -0.4460   -0.5820 O   0  0  0  0  0  0  0  0  0  0  0  0
    1.6840   -0.5840   -0.7950 C   0  0  0  0  0  0  0  0  0  0  0  0
    2.4820    0.3250    0.0760 C   0  0  2  0  0  0  0  0  0  0  0  0
    3.9760    0.1150   -0.0780 C   0  0  0  0  0  0  0  0  0  0  0  0
    4.4610    0.1950    1.3500 C   0  0  0  0  0  0  0  0  0  0  0  0
    3.2340    0.7780    2.0510 C   0  0  0  0  0  0  0  0  0  0  0  0
    2.2180    0.0110    1.4350 O   0  0  0  0  0  0  0  0  0  0  0  0
   -0.1920    1.7570   -1.3140 C   0  0  0  0  0  0  0  0  0  0  0  0
  1  2  1  0
  2  3  2  0
  2 21  1  0
  3  4  1  0
  4  5  2  0
  5  6  1  0
  5 13  1  0
  6  7  2  0
  6 12  1  0
  7  8  1  0
  8  9  2  0
  9 10  1  0
 10 11  1  0
 10 12  2  0
 13 14  1  0
 13 21  2  0
 14 15  1  0
 16 15  1  6
 16 17  1  0
 16 20  1  0
 17 18  1  0
 18 19  1  0
 19 20  1  0
M  END
