
     RDKit          3D

 15 16  0  0  0  0  0  0  0  0999 V2000
    4.3890   -1.0300    1.2220 O   0  0  0  0  0  0  0  0  0  0  0  0
    3.4040   -0.3840    0.7010 C   0  0  0  0  0  0  0  0  0  0  0  0
    3.6800    0.5140   -0.4400 C   0  0  0  0  0  0  0  0  0  0  0  0
    2.4800    1.2320   -0.8500 C   0  0  0  0  0  0  0  0  0  0  0  0
    1.2570    1.0690   -0.3390 C   0  0  0  0  0  0  0  0  0  0  0  0
   -0.0270    2.0720   -1.0230 Cl  0  0  0  0  0  0  0  0  0  0  0  0
    1.0220    0.1510    0.7390 C   0  0  0  0  0  0  0  0  0  0  0  0
   -0.2750   -0.0830    1.3900 C   0  0  0  0  0  0  0  0  0  0  0  0
   -1.2960   -0.8480    0.6430 C   0  0  2  0  0  0  0  0  0  0  0  0
   -0.8390   -2.1270    0.2680 O   0  0  0  0  0  0  0  0  0  0  0  0
   -2.1310   -0.1820   -0.3790 C   0  0  2  0  0  0  0  0  0  0  0  0
   -3.0390    0.9420   -0.0610 C   0  0  0  0  0  0  0  0  0  0  0  0
   -3.6500   -0.4080   -0.3650 C   0  0  0  0  0  0  0  0  0  0  0  0
    2.0670   -0.5350    1.2220 C   0  0  0  0  0  0  0  0  0  0  0  0
    1.8380   -1.6770    2.5470 Cl  0  0  0  0  0  0  0  0  0  0  0  0
  1  2  2  0
  2  3  1  0
  2 14  1  0
  3  4  1  0
  4  5  2  0
  5  6  1  0
  5  7  1  0
  7  8  1  0
  7 14  2  0
  8  9  1  0
  9 10  1  6
  9 11  1  0
 11 12  1  1
 11 13  1  0
 12 13  1  0
 14 15  1  0
M  END
