
     RDKit          3D

 16 17  0  0  0  0  0  0  0  0999 V2000
    4.4140    1.4280    0.6510 O   0  0  0  0  0  0  0  0  0  0  0  0
    3.5910    0.4810    0.7050 C   0  0  0  0  0  0  0  0  0  0  0  0
    3.5980   -0.3070    1.8480 O   0  0  0  0  0  0  0  0  0  0  0  0
    2.6550    0.2270   -0.4160 C   0  0  1  0  0  0  0  0  0  0  0  0
    2.3380   -1.1920   -0.7960 C   0  0  0  0  0  0  0  0  0  0  0  0
    1.3150   -0.3450   -0.1170 C   0  0  2  0  0  0  0  0  0  0  0  0
    0.1520    0.0040   -0.9680 C   0  0  0  0  0  0  0  0  0  0  0  0
    0.3900    0.2290   -2.1950 O   0  0  0  0  0  0  0  0  0  0  0  0
   -1.1900    0.0860   -0.4380 C   0  0  0  0  0  0  0  0  0  0  0  0
   -1.5000   -0.1470    0.8700 C   0  0  0  0  0  0  0  0  0  0  0  0
   -2.8050   -0.0600    1.3510 C   0  0  0  0  0  0  0  0  0  0  0  0
   -3.8280    0.2680    0.5030 C   0  0  0  0  0  0  0  0  0  0  0  0
   -5.4850    0.3910    1.0580 Cl  0  0  0  0  0  0  0  0  0  0  0  0
   -3.5420    0.5130   -0.8440 C   0  0  0  0  0  0  0  0  0  0  0  0
   -4.8710    0.9300   -1.9060 Cl  0  0  0  0  0  0  0  0  0  0  0  0
   -2.2390    0.4170   -1.2850 C   0  0  0  0  0  0  0  0  0  0  0  0
  1  2  2  0
  2  3  1  0
  4  2  1  1
  4  5  1  0
  4  6  1  0
  5  6  1  0
  6  7  1  6
  7  8  2  0
  7  9  1  0
  9 10  2  0
  9 16  1  0
 10 11  1  0
 11 12  2  0
 12 13  1  0
 12 14  1  0
 14 15  1  0
 14 16  2  0
M  END
