
     RDKit          3D

 20 22  0  0  0  0  0  0  0  0999 V2000
   -0.8240    1.6130    0.1020 O   0  0  0  0  0  0  0  0  0  0  0  0
   -0.5110    0.5240    0.7170 C   0  0  0  0  0  0  0  0  0  0  0  0
   -1.5470   -0.0820    1.4220 N   0  0  0  0  0  0  0  0  0  0  0  0
   -2.8440    0.4430    1.4730 N   0  0  0  0  0  0  0  0  0  0  0  0
   -3.7520    0.3220    0.3850 C   0  0  0  0  0  0  0  0  0  0  0  0
   -5.0280    0.8590    0.4410 C   0  0  0  0  0  0  0  0  0  0  0  0
   -5.9140    0.7440   -0.6120 C   0  0  0  0  0  0  0  0  0  0  0  0
   -5.5590    0.0840   -1.7710 C   0  0  0  0  0  0  0  0  0  0  0  0
   -4.2960   -0.4520   -1.8360 C   0  0  0  0  0  0  0  0  0  0  0  0
   -3.4180   -0.3330   -0.7810 C   0  0  0  0  0  0  0  0  0  0  0  0
    0.8470    0.0890    0.5920 C   0  0  0  0  0  0  0  0  0  0  0  0
    1.7250    0.6790   -0.3200 C   0  0  0  0  0  0  0  0  0  0  0  0
    3.0230    0.2940   -0.4940 C   0  0  0  0  0  0  0  0  0  0  0  0
    3.4820   -0.7430    0.2870 C   0  0  0  0  0  0  0  0  0  0  0  0
    2.6590   -1.3350    1.1780 N   0  0  0  0  0  0  0  0  0  0  0  0
    1.3600   -0.9350    1.3370 C   0  0  0  0  0  0  0  0  0  0  0  0
    0.6810   -1.5680    2.2060 O   0  0  0  0  0  0  0  0  0  0  0  0
    4.8970   -1.0530   -0.0100 C   0  0  0  0  0  0  0  0  0  0  0  0
    5.3850    0.1550   -0.7300 C   0  0  0  0  0  0  0  0  0  0  0  0
    4.1460    0.7440   -1.3760 C   0  0  0  0  0  0  0  0  0  0  0  0
  1  2  2  0
  2  3  1  0
  2 11  1  0
  3  4  1  0
  4  5  1  0
  5  6  2  0
  5 10  1  0
  6  7  1  0
  7  8  2  0
  8  9  1  0
  9 10  2  0
 11 12  2  0
 11 16  1  0
 12 13  1  0
 13 14  2  0
 13 20  1  0
 14 15  1  0
 14 18  1  0
 15 16  1  0
 16 17  2  0
 18 19  1  0
 19 20  1  0
M  END
