
     RDKit          3D

 17 18  0  0  0  0  0  0  0  0999 V2000
    3.4620   -1.9030   -0.0980 C   0  0  0  0  0  0  0  0  0  0  0  0
    2.7730   -0.7420    0.4880 N   0  0  0  0  0  0  0  0  0  0  0  0
    2.3930    0.1450   -0.5580 C   0  0  0  0  0  0  0  0  0  0  0  0
    1.0450    0.7510   -0.4870 C   0  0  2  0  0  0  0  0  0  0  0  0
    0.8970    1.5480    0.7860 C   0  0  1  0  0  0  0  0  0  0  0  0
    1.9210    2.6650    0.7440 C   0  0  0  0  0  0  0  0  0  0  0  0
   -0.3780    2.1550    0.8860 O   0  0  0  0  0  0  0  0  0  0  0  0
   -1.2520    2.0170   -0.1760 C   0  0  0  0  0  0  0  0  0  0  0  0
   -1.9020    2.9940   -0.6690 O   0  0  0  0  0  0  0  0  0  0  0  0
   -1.4150    0.6550   -0.7400 C   0  0  1  0  0  0  0  0  0  0  0  0
   -0.1110   -0.0970   -0.8570 C   0  0  2  0  0  0  0  0  0  0  0  0
   -0.2180   -1.4350   -0.2220 C   0  0  0  0  0  0  0  0  0  0  0  0
   -1.4580   -2.1150   -0.8130 C   0  0  0  0  0  0  0  0  0  0  0  0
   -2.7110   -1.3920   -0.4540 C   0  0  0  0  0  0  0  0  0  0  0  0
   -2.4270   -0.0460    0.1520 C   0  0  2  0  0  0  0  0  0  0  0  0
   -3.7240    0.7450    0.0700 C   0  0  0  0  0  0  0  0  0  0  0  0
   -2.0630   -0.0780    1.4740 O   0  0  0  0  0  0  0  0  0  0  0  0
  1  2  1  0
  2  3  1  0
  4  3  1  1
  4  5  1  0
  4 11  1  0
  5  6  1  6
  5  7  1  0
  7  8  1  0
  8  9  2  0
 10  8  1  1
 10 11  1  0
 10 15  1  0
 11 12  1  1
 12 13  1  0
 13 14  1  0
 14 15  1  0
 15 16  1  1
 15 17  1  0
M  CHG  1   2   1
M  END
