
     RDKit          3D

 26 28  0  0  0  0  0  0  0  0999 V2000
   -8.4580    0.3250    0.4270 C   0  0  0  0  0  0  0  0  0  0  0  0
   -7.9760    0.3930   -0.8410 O   0  0  0  0  0  0  0  0  0  0  0  0
   -6.6220    0.5730   -0.8770 C   0  0  0  0  0  0  0  0  0  0  0  0
   -5.8820   -0.5520   -0.2340 C   0  0  0  0  0  0  0  0  0  0  0  0
   -4.4400   -0.2880   -0.3180 N   0  0  0  0  0  0  0  0  0  0  0  0
   -3.4620   -1.1650    0.1990 C   0  0  0  0  0  0  0  0  0  0  0  0
   -3.8560   -2.2140    0.7540 O   0  0  0  0  0  0  0  0  0  0  0  0
   -2.0180   -0.9020    0.1160 C   0  0  0  0  0  0  0  0  0  0  0  0
   -1.1070   -1.8090    0.6470 C   0  0  0  0  0  0  0  0  0  0  0  0
    0.2570   -1.6140    0.5970 C   0  0  0  0  0  0  0  0  0  0  0  0
    0.7290   -0.4670   -0.0070 C   0  0  0  0  0  0  0  0  0  0  0  0
    2.1600   -0.2420   -0.0630 C   0  0  0  0  0  0  0  0  0  0  0  0
    2.9680   -1.2700   -0.4770 C   0  0  0  0  0  0  0  0  0  0  0  0
    4.3290   -1.1180   -0.5450 C   0  0  0  0  0  0  0  0  0  0  0  0
    4.8600    0.1050   -0.1820 C   0  0  0  0  0  0  0  0  0  0  0  0
    6.2490    0.2670   -0.2500 C   0  0  0  0  0  0  0  0  0  0  0  0
    7.0870   -0.8750   -0.7040 C   0  0  0  0  0  0  0  0  0  0  0  0
    6.8060    1.4810    0.1070 C   0  0  0  0  0  0  0  0  0  0  0  0
    5.9620    2.4860    0.5160 C   0  0  0  0  0  0  0  0  0  0  0  0
    6.4480    3.6070    0.8480 O   0  0  0  0  0  0  0  0  0  0  0  0
    4.6320    2.3100    0.5740 N   0  0  0  0  0  0  0  0  0  0  0  0
    4.0610    1.1340    0.2310 C   0  0  0  0  0  0  0  0  0  0  0  0
    2.6940    0.9670    0.2940 C   0  0  0  0  0  0  0  0  0  0  0  0
   -0.1240    0.4650   -0.5490 C   0  0  0  0  0  0  0  0  0  0  0  0
    0.4940    1.9190   -1.3220 Cl  0  0  0  0  0  0  0  0  0  0  0  0
   -1.4930    0.2240   -0.4750 C   0  0  0  0  0  0  0  0  0  0  0  0
  1  2  1  0
  2  3  1  0
  3  4  1  0
  4  5  1  0
  5  6  1  0
  6  7  2  0
  6  8  1  0
  8  9  2  0
  8 26  1  0
  9 10  1  0
 10 11  2  0
 11 12  1  0
 11 24  1  0
 12 13  2  0
 12 23  1  0
 13 14  1  0
 14 15  2  0
 15 16  1  0
 15 22  1  0
 16 17  1  0
 16 18  2  0
 18 19  1  0
 19 20  2  0
 19 21  1  0
 21 22  1  0
 22 23  2  0
 24 25  1  0
 24 26  2  0
M  END
