
     RDKit          3D

 20 22  0  0  0  0  0  0  0  0999 V2000
    6.5340    0.2370    1.9410 C   0  0  0  0  0  0  0  0  0  0  0  0
    5.0960    0.5690    2.2750 C   0  0  0  0  0  0  0  0  0  0  0  0
    4.1980    0.1100    1.1870 C   0  0  0  0  0  0  0  0  0  0  0  0
    4.6130   -0.5370    0.0170 C   0  0  0  0  0  0  0  0  0  0  0  0
    3.4420   -0.7610   -0.6730 C   0  0  0  0  0  0  0  0  0  0  0  0
    2.3890   -0.2650    0.0640 C   0  0  0  0  0  0  0  0  0  0  0  0
    0.9830   -0.3070   -0.3220 C   0  0  0  0  0  0  0  0  0  0  0  0
   -0.0860    0.1570    0.3480 N   0  0  0  0  0  0  0  0  0  0  0  0
   -1.2150   -0.0720   -0.3430 C   0  0  0  0  0  0  0  0  0  0  0  0
   -2.5660    0.2090   -0.0880 C   0  0  0  0  0  0  0  0  0  0  0  0
   -3.5710   -0.1200   -0.9480 C   0  0  0  0  0  0  0  0  0  0  0  0
   -4.9360    0.1580   -0.7260 N   0  0  0  0  0  0  0  0  0  0  0  0
   -5.4690    0.9440    0.3080 C   0  0  0  0  0  0  0  0  0  0  0  0
   -6.9410    1.1770    0.4590 C   0  0  0  0  0  0  0  0  0  0  0  0
   -4.7440    1.4880    1.1550 O   0  0  0  0  0  0  0  0  0  0  0  0
   -3.1620   -0.7690   -2.1220 C   0  0  0  0  0  0  0  0  0  0  0  0
   -1.8410   -1.0500   -2.3820 C   0  0  0  0  0  0  0  0  0  0  0  0
   -0.8450   -0.7040   -1.4920 C   0  0  0  0  0  0  0  0  0  0  0  0
    0.4930   -0.8390   -1.4640 N   0  0  0  0  0  0  0  0  0  0  0  0
    2.8960    0.2420    1.1610 O   0  0  0  0  0  0  0  0  0  0  0  0
  1  2  1  0
  2  3  1  0
  3  4  2  0
  3 20  1  0
  4  5  1  0
  5  6  2  0
  6  7  1  0
  6 20  1  0
  7  8  2  0
  7 19  1  0
  8  9  1  0
  9 10  2  0
  9 18  1  0
 10 11  1  0
 11 12  1  0
 11 16  2  0
 12 13  1  0
 13 14  1  0
 13 15  2  0
 16 17  1  0
 17 18  2  0
 18 19  1  0
M  END
