
     RDKit          3D

 47 52  0  0  0  0  0  0  0  0999 V2000
  -10.0310   -1.4020    1.2760 C   0  0  0  0  0  0  0  0  0  0  0  0
   -9.1310   -0.3560    1.0860 O   0  0  0  0  0  0  0  0  0  0  0  0
   -9.5150    0.9780    1.0810 C   0  0  0  0  0  0  0  0  0  0  0  0
  -10.8430    1.3470    1.2140 C   0  0  0  0  0  0  0  0  0  0  0  0
  -11.1730    2.7030    1.2030 C   0  0  0  0  0  0  0  0  0  0  0  0
  -10.2060    3.6720    1.0630 C   0  0  0  0  0  0  0  0  0  0  0  0
  -10.6030    5.1170    1.0570 C   0  0  0  0  0  0  0  0  0  0  0  0
   -8.9180    3.2610    0.9370 C   0  0  0  0  0  0  0  0  0  0  0  0
   -8.5110    1.9170    0.9410 C   0  0  0  0  0  0  0  0  0  0  0  0
   -7.1900    1.6310    0.8170 O   0  0  0  0  0  0  0  0  0  0  0  0
   -6.3880    1.4780   -0.2780 C   0  0  0  0  0  0  0  0  0  0  0  0
   -6.8990    1.6050   -1.4000 O   0  0  0  0  0  0  0  0  0  0  0  0
   -4.9400    1.1690   -0.0890 C   0  0  0  0  0  0  0  0  0  0  0  0
   -4.0450    2.2220    0.0280 C   0  0  0  0  0  0  0  0  0  0  0  0
   -4.5650    3.6060   -0.1130 C   0  0  0  0  0  0  0  0  0  0  0  0
   -2.7040    2.0140    0.2610 C   0  0  0  0  0  0  0  0  0  0  0  0
   -2.2300    0.6990    0.3840 C   0  0  0  0  0  0  0  0  0  0  0  0
   -3.1050   -0.3380    0.2670 C   0  0  0  0  0  0  0  0  0  0  0  0
   -4.4590   -0.1050    0.0310 C   0  0  0  0  0  0  0  0  0  0  0  0
   -5.4100   -1.2400   -0.1020 C   0  0  0  0  0  0  0  0  0  0  0  0
   -2.6590   -1.7390    0.3690 C   0  0  0  0  0  0  0  0  0  0  0  0
   -1.2460   -1.9260    0.7100 C   0  0  2  0  0  0  0  0  0  0  0  0
   -0.6060   -0.7270    1.3580 C   0  0  0  0  0  0  0  0  0  0  0  0
   -0.8900    0.4520    0.6260 O   0  0  0  0  0  0  0  0  0  0  0  0
   -0.3810   -2.2300   -0.5250 C   0  0  0  0  0  0  0  0  0  0  0  0
    0.8650   -2.6090    0.1720 N   0  0  0  0  0  0  0  0  0  0  0  0
    2.1950   -2.4480   -0.3800 C   0  0  0  0  0  0  0  0  0  0  0  0
    2.7910   -1.1190   -0.0540 C   0  0  0  0  0  0  0  0  0  0  0  0
    4.0570   -0.9020   -0.5920 O   0  0  0  0  0  0  0  0  0  0  0  0
    4.4590    0.3900   -0.1870 C   0  0  0  0  0  0  0  0  0  0  0  0
    5.7760    0.8100   -0.7490 C   0  0  0  0  0  0  0  0  0  0  0  0
    6.7840   -0.0960   -0.3270 O   0  0  0  0  0  0  0  0  0  0  0  0
    8.1030    0.1070   -0.7350 C   0  0  0  0  0  0  0  0  0  0  0  0
    8.4390    1.1730   -1.5370 C   0  0  0  0  0  0  0  0  0  0  0  0
    9.7510    1.3500   -1.9250 C   0  0  0  0  0  0  0  0  0  0  0  0
   10.7410    0.4830   -1.5270 C   0  0  0  0  0  0  0  0  0  0  0  0
   10.4140   -0.5850   -0.7260 C   0  0  0  0  0  0  0  0  0  0  0  0
    9.0730   -0.7580   -0.3350 C   0  0  0  0  0  0  0  0  0  0  0  0
   11.3980   -1.5800   -0.2420 C   0  0  0  0  0  0  0  0  0  0  0  0
   12.7900   -1.2760   -0.6740 C   0  0  0  0  0  0  0  0  0  0  0  0
   12.9980    0.2200   -0.7550 C   0  0  0  0  0  0  0  0  0  0  0  0
   12.1580    0.6780   -1.9500 C   0  0  0  0  0  0  0  0  0  0  0  0
    0.5570   -3.1460    1.4480 C   0  0  0  0  0  0  0  0  0  0  0  0
    1.3200   -3.5460    2.3590 O   0  0  0  0  0  0  0  0  0  0  0  0
   -0.9490   -3.1540    1.5230 C   0  0  1  0  0  0  0  0  0  0  0  0
   -1.4900   -3.1540    2.9000 C   0  0  0  0  0  0  0  0  0  0  0  0
   -1.3490   -4.3230    0.8770 O   0  0  0  0  0  0  0  0  0  0  0  0
  1  2  1  0
  2  3  1  0
  3  4  2  0
  3  9  1  0
  4  5  1  0
  5  6  2  0
  6  7  1  0
  6  8  1  0
  8  9  2  0
  9 10  1  0
 10 11  1  0
 11 12  2  0
 11 13  1  0
 13 14  2  0
 13 19  1  0
 14 15  1  0
 14 16  1  0
 16 17  2  0
 17 18  1  0
 17 24  1  0
 18 19  2  0
 18 21  1  0
 19 20  1  0
 22 21  1  6
 22 23  1  0
 22 25  1  0
 22 45  1  0
 23 24  1  0
 25 26  1  0
 26 27  1  0
 26 43  1  0
 27 28  1  0
 28 29  1  0
 29 30  1  0
 30 31  1  0
 31 32  1  0
 32 33  1  0
 33 34  2  0
 33 38  1  0
 34 35  1  0
 35 36  2  0
 36 37  1  0
 36 42  1  0
 37 38  2  0
 37 39  1  0
 39 40  1  0
 40 41  1  0
 41 42  1  0
 43 44  2  0
 43 45  1  0
 45 46  1  1
 45 47  1  0
M  END
