
     RDKit          3D

 47 49  0  0  0  0  0  0  0  0999 V2000
   -8.2100    5.4930   -3.4100 C   0  0  0  0  0  0  0  0  0  0  0  0
   -7.9020    4.7360   -2.1520 C   0  0  0  0  0  0  0  0  0  0  0  0
   -6.9320    3.7280   -2.3560 O   0  0  0  0  0  0  0  0  0  0  0  0
   -6.5280    2.9310   -1.2920 C   0  0  0  0  0  0  0  0  0  0  0  0
   -7.0340    3.0710   -0.0160 C   0  0  0  0  0  0  0  0  0  0  0  0
   -6.6400    2.2830    1.0540 C   0  0  0  0  0  0  0  0  0  0  0  0
   -5.6790    1.2870    0.8500 C   0  0  0  0  0  0  0  0  0  0  0  0
   -5.2130    0.4490    1.8180 O   0  0  0  0  0  0  0  0  0  0  0  0
   -5.5060    0.3050    3.1460 C   0  0  0  0  0  0  0  0  0  0  0  0
   -6.8960   -0.0860    3.5160 C   0  0  2  0  0  0  0  0  0  0  0  0
   -7.0110   -0.1910    5.0450 C   0  0  0  0  0  0  0  0  0  0  0  0
   -7.2150   -1.5040    3.0200 C   0  0  0  0  0  0  0  0  0  0  0  0
   -5.1560    1.1290   -0.4260 C   0  0  0  0  0  0  0  0  0  0  0  0
   -4.2050    0.1440   -0.6220 O   0  0  0  0  0  0  0  0  0  0  0  0
   -4.5490   -1.1640   -0.9250 C   0  0  0  0  0  0  0  0  0  0  0  0
   -5.7700   -1.4200   -1.0140 O   0  0  0  0  0  0  0  0  0  0  0  0
   -3.4820   -2.1760   -1.1240 C   0  0  0  0  0  0  0  0  0  0  0  0
   -3.1980   -2.9390    0.1410 C   0  0  0  0  0  0  0  0  0  0  0  0
   -2.1480   -3.9700    0.0120 C   0  0  0  0  0  0  0  0  0  0  0  0
   -0.7960   -3.5230   -0.3970 C   0  0  0  0  0  0  0  0  0  0  0  0
   -0.1460   -2.5350    0.5250 C   0  0  0  0  0  0  0  0  0  0  0  0
    1.1840   -2.1800    0.0310 N   0  0  0  0  0  0  0  0  0  0  0  0
    2.2730   -2.9550    0.4610 C   0  0  0  0  0  0  0  0  0  0  0  0
    2.0630   -3.9730    1.2120 O   0  0  0  0  0  0  0  0  0  0  0  0
    3.7080   -2.7140    0.1300 C   0  0  1  0  0  0  0  0  0  0  0  0
    4.1820   -1.5320    0.8720 C   0  0  0  0  0  0  0  0  0  0  0  0
    5.6540   -1.4750    0.9880 C   0  0  0  0  0  0  0  0  0  0  0  0
    6.4590   -2.3900    0.5000 C   0  0  0  0  0  0  0  0  0  0  0  0
    7.9240   -2.2750    0.6460 C   0  0  0  0  0  0  0  0  0  0  0  0
    8.4210   -1.0500    1.3300 C   0  0  0  0  0  0  0  0  0  0  0  0
    8.1300    0.2150    0.6280 C   0  0  0  0  0  0  0  0  0  0  0  0
    7.5950    0.2630   -0.5010 O   0  0  0  0  0  0  0  0  0  0  0  0
    8.4590    1.4680    1.2330 N   0  0  0  0  0  0  0  0  0  0  0  0
    8.2020    2.7150    0.6040 C   0  0  0  0  0  0  0  0  0  0  0  0
    7.6720    2.7160   -0.5210 O   0  0  0  0  0  0  0  0  0  0  0  0
    8.5710    3.9980    1.3060 C   0  0  0  0  0  0  0  0  0  0  0  0
    8.2110    5.1750    0.4450 C   0  0  0  0  0  0  0  0  0  0  0  0
    5.9260   -3.6060   -0.2130 C   0  0  0  0  0  0  0  0  0  0  0  0
    4.5430   -3.9310    0.3760 C   0  0  0  0  0  0  0  0  0  0  0  0
    1.3920   -1.0860   -0.8540 C   0  0  0  0  0  0  0  0  0  0  0  0
    1.7740   -1.3260   -2.1660 C   0  0  0  0  0  0  0  0  0  0  0  0
    1.9720   -0.2900   -3.0430 C   0  0  0  0  0  0  0  0  0  0  0  0
    1.8050    1.0430   -2.6730 C   0  0  0  0  0  0  0  0  0  0  0  0
    2.0220    2.1560   -3.6270 C   0  0  0  0  0  0  0  0  0  0  0  0
    1.4250    1.2360   -1.3600 C   0  0  0  0  0  0  0  0  0  0  0  0
    1.2200    0.2180   -0.4630 C   0  0  0  0  0  0  0  0  0  0  0  0
   -5.5800    1.9370   -1.4540 C   0  0  0  0  0  0  0  0  0  0  0  0
  1  2  1  0
  2  3  1  0
  3  4  1  0
  4  5  2  0
  4 47  1  0
  5  6  1  0
  6  7  2  0
  7  8  1  0
  7 13  1  0
  8  9  1  0
  9 10  1  0
 10 11  1  1
 10 12  1  0
 13 14  1  0
 13 47  2  0
 14 15  1  0
 15 16  2  0
 15 17  1  0
 17 18  1  0
 18 19  1  0
 19 20  1  0
 20 21  1  0
 21 22  1  0
 22 23  1  0
 22 40  1  0
 23 24  2  0
 25 23  1  1
 25 26  1  0
 25 39  1  0
 26 27  1  0
 27 28  2  0
 28 29  1  0
 28 38  1  0
 29 30  1  0
 30 31  1  0
 31 32  2  0
 31 33  1  0
 33 34  1  0
 34 35  2  0
 34 36  1  0
 36 37  1  0
 38 39  1  0
 40 41  2  0
 40 46  1  0
 41 42  1  0
 42 43  2  0
 43 44  1  0
 43 45  1  0
 45 46  2  0
M  END
