
     RDKit          3D

 36 40  0  0  0  0  0  0  0  0999 V2000
    6.1320   -2.3890    0.1650 O   0  0  0  0  0  0  0  0  0  0  0  0
    6.1030   -1.1490    0.0580 C   0  0  0  0  0  0  0  0  0  0  0  0
    4.8530   -0.3410    0.0060 C   0  0  0  0  0  0  0  0  0  0  0  0
    3.7020   -1.1530    0.0890 O   0  0  0  0  0  0  0  0  0  0  0  0
    2.4620   -0.5500    0.0520 C   0  0  0  0  0  0  0  0  0  0  0  0
    2.3700    0.8190   -0.0630 C   0  0  0  0  0  0  0  0  0  0  0  0
    1.1370    1.4290   -0.1000 C   0  0  0  0  0  0  0  0  0  0  0  0
   -0.0640    0.7010   -0.0260 C   0  0  0  0  0  0  0  0  0  0  0  0
   -1.2880    1.4860   -0.0740 C   0  0  0  0  0  0  0  0  0  0  0  0
   -1.3550    2.8120   -0.1490 O   0  0  0  0  0  0  0  0  0  0  0  0
   -2.5880    3.2310   -0.1770 C   0  0  0  0  0  0  0  0  0  0  0  0
   -3.1670    4.4910   -0.2500 C   0  0  0  0  0  0  0  0  0  0  0  0
   -4.5370    4.6290   -0.2620 C   0  0  0  0  0  0  0  0  0  0  0  0
   -5.1540    5.8860   -0.3350 O   0  0  0  0  0  0  0  0  0  0  0  0
   -5.3850    3.5170   -0.2020 C   0  0  0  0  0  0  0  0  0  0  0  0
   -6.8170    3.7100   -0.2180 C   0  0  0  0  0  0  0  0  0  0  0  0
   -7.3090    4.8510   -0.2840 O   0  0  0  0  0  0  0  0  0  0  0  0
   -7.6530    2.6180   -0.1590 O   0  0  0  0  0  0  0  0  0  0  0  0
   -4.8060    2.2710   -0.1300 C   0  0  0  0  0  0  0  0  0  0  0  0
   -3.4410    2.1580   -0.1190 C   0  0  0  0  0  0  0  0  0  0  0  0
   -2.5680    1.0420   -0.0530 C   0  0  0  0  0  0  0  0  0  0  0  0
   -3.0780   -0.3140    0.0160 C   0  0  0  0  0  0  0  0  0  0  0  0
   -3.4970   -1.4430    0.0530 C   0  0  0  0  0  0  0  0  0  0  0  0
   -3.9920   -2.7900    0.0990 C   0  0  0  0  0  0  0  0  0  0  0  0
   -4.1940   -3.4020    1.3120 C   0  0  0  0  0  0  0  0  0  0  0  0
   -4.6690   -4.6980    1.3930 C   0  0  0  0  0  0  0  0  0  0  0  0
   -4.9550   -5.4170    0.2250 C   0  0  0  0  0  0  0  0  0  0  0  0
   -4.7570   -4.8170   -1.0000 C   0  0  0  0  0  0  0  0  0  0  0  0
   -5.1180   -5.7290   -2.4500 Cl  0  0  0  0  0  0  0  0  0  0  0  0
   -4.2830   -3.5270   -1.0290 C   0  0  0  0  0  0  0  0  0  0  0  0
    0.0230   -0.6380    0.0870 C   0  0  0  0  0  0  0  0  0  0  0  0
    1.2770   -1.2400    0.1240 C   0  0  0  0  0  0  0  0  0  0  0  0
    7.3370   -0.4290   -0.0230 N   0  0  0  0  0  0  0  0  0  0  0  0
    8.6210   -1.1420    0.0200 C   0  0  1  0  0  0  0  0  0  0  0  0
    9.7070   -0.6240   -0.9180 C   0  0  0  0  0  0  0  0  0  0  0  0
    9.8150   -0.4020    0.5740 C   0  0  0  0  0  0  0  0  0  0  0  0
  1  2  2  0
  2  3  1  0
  2 33  1  0
  3  4  1  0
  4  5  1  0
  5  6  2  0
  5 32  1  0
  6  7  1  0
  7  8  2  0
  8  9  1  0
  8 31  1  0
  9 10  1  0
  9 21  2  0
 10 11  1  0
 11 12  2  0
 11 20  1  0
 12 13  1  0
 13 14  1  0
 13 15  2  0
 15 16  1  0
 15 19  1  0
 16 17  2  0
 16 18  1  0
 19 20  2  0
 20 21  1  0
 21 22  1  0
 22 23  3  0
 23 24  1  0
 24 25  2  0
 24 30  1  0
 25 26  1  0
 26 27  2  0
 27 28  1  0
 28 29  1  0
 28 30  2  0
 31 32  2  0
 34 33  1  6
 34 35  1  0
 34 36  1  0
 35 36  1  0
M  END
