
     RDKit          3D

 47 52  0  0  0  0  0  0  0  0999 V2000
   13.4100   -1.2570   -1.6520 C   0  0  0  0  0  0  0  0  0  0  0  0
   12.4350   -1.7070   -0.6530 C   0  0  0  0  0  0  0  0  0  0  0  0
   12.4040   -2.9450   -0.3920 O   0  0  0  0  0  0  0  0  0  0  0  0
   11.5190   -0.8410    0.0480 C   0  0  0  0  0  0  0  0  0  0  0  0
   10.6840   -1.3500    1.0420 C   0  0  0  0  0  0  0  0  0  0  0  0
    9.8240   -0.5060    1.6930 C   0  0  0  0  0  0  0  0  0  0  0  0
    9.7350    0.8310    1.4210 C   0  0  0  0  0  0  0  0  0  0  0  0
    8.8370    1.6280    2.1270 O   0  0  0  0  0  0  0  0  0  0  0  0
    7.5100    1.5650    1.6460 C   0  0  0  0  0  0  0  0  0  0  0  0
    7.2400    2.1490    0.4340 C   0  0  0  0  0  0  0  0  0  0  0  0
    5.9720    2.1200   -0.0920 C   0  0  0  0  0  0  0  0  0  0  0  0
    4.9350    1.5040    0.5850 C   0  0  0  0  0  0  0  0  0  0  0  0
    5.2260    0.9180    1.8170 C   0  0  0  0  0  0  0  0  0  0  0  0
    6.4950    0.9490    2.3370 C   0  0  0  0  0  0  0  0  0  0  0  0
    3.9600    0.3270    2.2830 C   0  0  0  0  0  0  0  0  0  0  0  0
    3.8420   -0.2780    3.3580 O   0  0  0  0  0  0  0  0  0  0  0  0
    2.9540    0.5650    1.3260 N   0  0  0  0  0  0  0  0  0  0  0  0
    1.5340    0.1070    1.3530 C   0  0  0  0  0  0  0  0  0  0  0  0
    1.5820   -1.2790    0.7130 C   0  0  1  0  0  0  0  0  0  0  0  0
    2.4860   -1.9530    1.6340 O   0  0  0  0  0  0  0  0  0  0  0  0
    0.3100   -2.0080    0.6780 C   0  0  0  0  0  0  0  0  0  0  0  0
   -0.6640   -1.6930   -0.1970 O   0  0  0  0  0  0  0  0  0  0  0  0
   -1.5090   -0.6570   -0.3790 C   0  0  0  0  0  0  0  0  0  0  0  0
   -1.5070    0.3160    0.3650 O   0  0  0  0  0  0  0  0  0  0  0  0
   -2.4410   -0.8120   -1.5440 C   0  0  0  0  0  0  0  0  0  0  0  0
   -2.0480   -1.5570   -2.6280 C   0  0  0  0  0  0  0  0  0  0  0  0
   -2.8800   -1.7670   -3.7030 C   0  0  0  0  0  0  0  0  0  0  0  0
   -4.1330   -1.2050   -3.6690 C   0  0  0  0  0  0  0  0  0  0  0  0
   -4.5570   -0.4390   -2.5760 C   0  0  0  0  0  0  0  0  0  0  0  0
   -3.7060   -0.2530   -1.5270 C   0  0  0  0  0  0  0  0  0  0  0  0
   -4.0160    0.6450   -0.3750 C   0  0  2  0  0  0  0  0  0  0  0  0
   -4.3710   -0.0800    0.8910 C   0  0  0  0  0  0  0  0  0  0  0  0
   -5.8400   -0.0180    1.1410 C   0  0  0  0  0  0  0  0  0  0  0  0
   -6.3860    0.3280   -0.2750 C   0  0  1  0  0  0  0  0  0  0  0  0
   -7.7430    0.8300   -0.1090 N   0  0  1  0  0  0  0  0  0  0  0  0
   -8.2560    1.2260   -1.3740 C   0  0  0  0  0  0  0  0  0  0  0  0
   -9.4680    0.4370   -1.8400 C   0  0  0  0  0  0  0  0  0  0  0  0
  -10.4450    0.2270   -0.7380 C   0  0  0  0  0  0  0  0  0  0  0  0
   -9.9340   -0.1170    0.4410 C   0  0  0  0  0  0  0  0  0  0  0  0
  -10.8210   -0.3560    1.6220 C   0  0  0  0  0  0  0  0  0  0  0  0
  -10.4750    0.5320    2.6290 O   0  0  0  0  0  0  0  0  0  0  0  0
   -8.4590   -0.2510    0.5460 C   0  0  0  0  0  0  0  0  0  0  0  0
   -5.3760    1.3360   -0.6790 C   0  0  0  0  0  0  0  0  0  0  0  0
    3.5190    1.2910    0.2670 C   0  0  0  0  0  0  0  0  0  0  0  0
    2.9950    1.7160   -0.7820 O   0  0  0  0  0  0  0  0  0  0  0  0
   10.5540    1.3450    0.4410 C   0  0  0  0  0  0  0  0  0  0  0  0
   11.4270    0.5100   -0.2280 C   0  0  0  0  0  0  0  0  0  0  0  0
  1  2  1  0
  2  3  2  0
  2  4  1  0
  4  5  2  0
  4 47  1  0
  5  6  1  0
  6  7  2  0
  7  8  1  0
  7 46  1  0
  8  9  1  0
  9 10  2  0
  9 14  1  0
 10 11  1  0
 11 12  2  0
 12 13  1  0
 12 44  1  0
 13 14  2  0
 13 15  1  0
 15 16  2  0
 15 17  1  0
 17 18  1  0
 17 44  1  0
 18 19  1  0
 19 20  1  1
 19 21  1  0
 21 22  1  0
 22 23  1  0
 23 24  2  0
 23 25  1  0
 25 26  2  0
 25 30  1  0
 26 27  1  0
 27 28  2  0
 28 29  1  0
 29 30  2  0
 31 30  1  6
 31 32  1  0
 31 43  1  0
 32 33  1  0
 34 33  1  1
 34 35  1  0
 34 43  1  0
 35 36  1  6
 35 42  1  0
 36 37  1  0
 37 38  1  0
 38 39  2  0
 39 40  1  0
 39 42  1  0
 40 41  1  0
 44 45  2  0
 46 47  2  0
M  CHG  1  35   1
M  END
