
     RDKit          3D

 34 35  0  0  0  0  0  0  0  0999 V2000
   -3.6850    3.5970    0.2360 C   0  0  0  0  0  0  0  0  0  0  0  0
   -2.3140    3.3990    0.7520 C   0  0  0  0  0  0  0  0  0  0  0  0
   -2.0490    2.1280    1.4660 C   0  0  0  0  0  0  0  0  0  0  0  0
   -2.0770    0.8900    0.6930 C   0  0  1  0  0  0  0  0  0  0  0  0
   -1.7900   -0.3310    1.6050 C   0  0  1  0  0  0  0  0  0  0  0  0
   -2.9380   -0.6430    2.3730 N   0  0  0  0  0  0  0  0  0  0  0  0
   -1.3030   -1.4100    0.7100 C   0  0  1  0  0  0  0  0  0  0  0  0
   -0.7020   -2.5940    1.4000 C   0  0  0  0  0  0  0  0  0  0  0  0
    0.4910   -2.2530    2.2430 C   0  0  0  0  0  0  0  0  0  0  0  0
    1.5590   -1.6560    1.4570 N   0  0  0  0  0  0  0  0  0  0  0  0
    2.7940   -1.2540    2.0780 C   0  0  0  0  0  0  0  0  0  0  0  0
    2.8590   -1.4600    3.3070 O   0  0  0  0  0  0  0  0  0  0  0  0
    3.8640   -0.6500    1.2740 C   0  0  0  0  0  0  0  0  0  0  0  0
    5.0090   -0.2670    1.7970 C   0  0  0  0  0  0  0  0  0  0  0  0
    5.1890   -0.4720    3.2720 C   0  0  0  0  0  0  0  0  0  0  0  0
    6.1090    0.3400    1.0410 C   0  0  0  0  0  0  0  0  0  0  0  0
    5.8230    0.4950   -0.4070 C   0  0  0  0  0  0  0  0  0  0  0  0
    6.8450    1.0940   -1.2790 C   0  0  0  0  0  0  0  0  0  0  0  0
    7.9480    1.4590   -0.7570 O   0  0  0  0  0  0  0  0  0  0  0  0
    6.7270    1.3000   -2.6190 O   0  0  0  0  0  0  0  0  0  0  0  0
    7.6950    1.8690   -3.4520 C   0  0  0  0  0  0  0  0  0  0  0  0
    4.6640    0.1030   -0.9150 C   0  0  0  0  0  0  0  0  0  0  0  0
    4.4340    0.2840   -2.3750 C   0  0  0  0  0  0  0  0  0  0  0  0
    3.7020   -0.4590   -0.0900 O   0  0  0  0  0  0  0  0  0  0  0  0
   -2.4240   -1.8120   -0.2050 C   0  0  0  0  0  0  0  0  0  0  0  0
   -2.8160   -0.6580   -1.1110 C   0  0  1  0  0  0  0  0  0  0  0  0
   -4.0380   -1.0540   -1.8670 C   0  0  0  0  0  0  0  0  0  0  0  0
   -4.5460   -0.0600   -2.8140 C   0  0  0  0  0  0  0  0  0  0  0  0
   -3.9050    0.9920   -3.1200 N   0  0  0  0  0  0  0  0  0  0  0  0
   -6.1350   -0.2730   -3.6480 S   0  0  0  0  0  0  0  0  0  0  0  0
   -6.9030   -1.8480   -3.1070 C   0  0  0  0  0  0  0  0  0  0  0  0
   -6.1600   -2.9320   -3.5360 O   0  0  0  0  0  0  0  0  0  0  0  0
   -3.0740    0.6350   -0.3520 C   0  0  1  0  0  0  0  0  0  0  0  0
   -4.3960    0.6930   -0.0350 O   0  0  0  0  0  0  0  0  0  0  0  0
  1  2  1  0
  2  3  1  0
  4  3  1  1
  4  5  1  0
  4 33  1  0
  5  6  1  6
  5  7  1  0
  7  8  1  1
  7 25  1  0
  8  9  1  0
  9 10  1  0
 10 11  1  0
 11 12  2  0
 11 13  1  0
 13 14  2  0
 13 24  1  0
 14 15  1  0
 14 16  1  0
 16 17  1  0
 17 18  1  0
 17 22  2  0
 18 19  2  0
 18 20  1  0
 20 21  1  0
 22 23  1  0
 22 24  1  0
 25 26  1  0
 26 27  1  1
 26 33  1  0
 27 28  1  0
 28 29  2  0
 28 30  1  0
 30 31  1  0
 31 32  1  0
 33 34  1  1
M  CHG  1   6   1
M  END
