
     RDKit          3D

 35 37  0  0  0  0  0  0  0  0999 V2000
   -5.8680    2.1780   -4.6190 C   0  0  0  0  0  0  0  0  0  0  0  0
   -5.7790    1.7920   -3.1750 C   0  0  0  0  0  0  0  0  0  0  0  0
   -6.8290    1.7170   -2.5000 O   0  0  0  0  0  0  0  0  0  0  0  0
   -4.5410    1.5360   -2.6290 N   0  0  0  0  0  0  0  0  0  0  0  0
   -4.2560    1.1850   -1.2400 C   0  0  0  0  0  0  0  0  0  0  0  0
   -5.1600    1.4680   -0.2600 C   0  0  0  0  0  0  0  0  0  0  0  0
   -4.8380    1.2280    1.0520 C   0  0  0  0  0  0  0  0  0  0  0  0
   -3.6180    0.7030    1.4480 C   0  0  0  0  0  0  0  0  0  0  0  0
   -2.6860    0.3950    0.4440 C   0  0  0  0  0  0  0  0  0  0  0  0
   -1.5110   -0.2290    0.7450 C   0  0  0  0  0  0  0  0  0  0  0  0
   -1.1550   -0.7720    2.0630 C   0  0  0  0  0  0  0  0  0  0  0  0
   -0.6540   -0.5920   -0.3330 C   0  0  0  0  0  0  0  0  0  0  0  0
    0.6480   -1.1640    0.0350 C   0  0  1  0  0  0  0  0  0  0  0  0
    0.9120   -2.4800   -0.6850 C   0  0  0  0  0  0  0  0  0  0  0  0
    2.1990   -2.9030   -0.3970 O   0  0  0  0  0  0  0  0  0  0  0  0
    1.6520   -0.2490   -0.6170 N   0  0  0  0  0  0  0  0  0  0  0  0
    2.6030    0.3120    0.2780 C   0  0  0  0  0  0  0  0  0  0  0  0
    3.9830    0.4850   -0.3330 C   0  0  0  0  0  0  0  0  0  0  0  0
    4.6470   -0.7980   -0.7400 C   0  0  2  0  0  0  0  0  0  0  0  0
    4.7610   -1.5460    0.4530 O   0  0  0  0  0  0  0  0  0  0  0  0
    5.9450   -0.6500   -1.4470 C   0  0  0  0  0  0  0  0  0  0  0  0
    6.9060    0.0410   -0.7890 O   0  0  0  0  0  0  0  0  0  0  0  0
    7.2510   -0.4400    0.4370 C   0  0  0  0  0  0  0  0  0  0  0  0
    8.4530    0.3410    1.0100 C   0  0  0  0  0  0  0  0  0  0  0  0
    8.0860    1.6600    1.0980 O   0  0  0  0  0  0  0  0  0  0  0  0
   -0.9730   -0.3400   -1.6450 C   0  0  0  0  0  0  0  0  0  0  0  0
   -0.1830   -0.6600   -2.6630 O   0  0  0  0  0  0  0  0  0  0  0  0
   -2.1750    0.2850   -1.9120 C   0  0  0  0  0  0  0  0  0  0  0  0
   -3.0250    0.6490   -0.9020 C   0  0  0  0  0  0  0  0  0  0  0  0
   -3.2510    0.5940    2.7950 N   0  0  0  0  0  0  0  0  0  0  0  0
   -4.1580    1.0150    3.8490 C   0  0  0  0  0  0  0  0  0  0  0  0
   -3.7010    1.6690    4.8110 O   0  0  0  0  0  0  0  0  0  0  0  0
   -5.6160    0.6500    3.7510 C   0  0  2  0  0  0  0  0  0  0  0  0
   -5.7960   -0.8110    3.4430 C   0  0  0  0  0  0  0  0  0  0  0  0
   -6.1290    1.5770    2.2640 S   0  0  0  0  0  0  0  0  0  0  0  0
  1  2  1  0
  2  3  2  0
  2  4  1  0
  4  5  1  0
  5  6  2  0
  5 29  1  0
  6  7  1  0
  7  8  2  0
  7 35  1  0
  8  9  1  0
  8 30  1  0
  9 10  2  0
  9 29  1  0
 10 11  1  0
 10 12  1  0
 12 13  1  0
 12 26  2  0
 13 14  1  6
 13 16  1  0
 14 15  1  0
 16 17  1  0
 17 18  1  0
 18 19  1  0
 19 20  1  1
 19 21  1  0
 21 22  1  0
 22 23  1  0
 23 24  1  0
 24 25  1  0
 26 27  1  0
 26 28  1  0
 28 29  2  0
 30 31  1  0
 31 32  2  0
 31 33  1  0
 33 34  1  6
 33 35  1  0
M  CHG  1  16   1
M  END
