
     RDKit          3D

 34 38  0  0  0  0  0  0  0  0999 V2000
   -5.4100   -4.7230   -1.0250 C   0  0  0  0  0  0  0  0  0  0  0  0
   -4.2970   -3.7060   -1.1670 C   0  0  0  0  0  0  0  0  0  0  0  0
   -3.5620   -3.6910    0.0830 N   0  0  0  0  0  0  0  0  0  0  0  0
   -2.5590   -2.6670    0.1230 C   0  0  2  0  0  0  0  0  0  0  0  0
   -1.7450   -2.8860    1.4030 C   0  0  0  0  0  0  0  0  0  0  0  0
   -1.2680   -1.5230    1.7840 C   0  0  1  0  0  0  0  0  0  0  0  0
   -0.0030   -1.2240    1.0100 C   0  0  0  0  0  0  0  0  0  0  0  0
    1.0340   -1.8870    1.2380 O   0  0  0  0  0  0  0  0  0  0  0  0
    0.0330   -0.2100    0.0340 N   0  0  0  0  0  0  0  0  0  0  0  0
    1.2810    0.0280   -0.6850 C   0  0  0  0  0  0  0  0  0  0  0  0
    1.7290   -1.1630   -1.4810 C   0  0  0  0  0  0  0  0  0  0  0  0
    2.9780   -0.9600   -2.2310 C   0  0  0  0  0  0  0  0  0  0  0  0
    4.1870   -0.6940   -1.5620 N   0  0  2  0  0  0  0  0  0  0  0  0
    4.4180   -1.3060   -0.2980 C   0  0  0  0  0  0  0  0  0  0  0  0
    5.5770   -0.4880    0.2350 C   0  0  0  0  0  0  0  0  0  0  0  0
    5.2390    0.8870   -0.1810 C   0  0  1  0  0  0  0  0  0  0  0  0
    4.6550    1.8110    0.8350 C   0  0  0  0  0  0  0  0  0  0  0  0
    5.4590    2.9260    0.1890 C   0  0  0  0  0  0  0  0  0  0  0  0
    6.4000    1.8530   -0.3180 C   0  0  1  0  0  0  0  0  0  0  0  0
    7.4730    1.5680    0.6940 C   0  0  0  0  0  0  0  0  0  0  0  0
    4.4200    0.7170   -1.4310 C   0  0  0  0  0  0  0  0  0  0  0  0
   -2.3300   -0.6110    1.3160 N   0  0  0  0  0  0  0  0  0  0  0  0
   -2.4280    0.6960    1.8260 C   0  0  0  0  0  0  0  0  0  0  0  0
   -1.5750    1.0890    2.7170 O   0  0  0  0  0  0  0  0  0  0  0  0
   -3.4190    1.6780    1.4420 C   0  0  0  0  0  0  0  0  0  0  0  0
   -4.4440    1.5850    0.5360 C   0  0  0  0  0  0  0  0  0  0  0  0
   -5.1090    2.8000    0.5330 C   0  0  0  0  0  0  0  0  0  0  0  0
   -6.2120    3.2420   -0.1930 C   0  0  0  0  0  0  0  0  0  0  0  0
   -6.6940    4.5220   -0.0120 C   0  0  0  0  0  0  0  0  0  0  0  0
   -6.0370    5.3110    0.9030 C   0  0  0  0  0  0  0  0  0  0  0  0
   -4.9490    4.8830    1.6220 C   0  0  0  0  0  0  0  0  0  0  0  0
   -4.4670    3.5830    1.4330 C   0  0  0  0  0  0  0  0  0  0  0  0
   -3.4900    2.9010    1.9430 O   0  0  0  0  0  0  0  0  0  0  0  0
   -3.1420   -1.2790    0.3440 C   0  0  0  0  0  0  0  0  0  0  0  0
  1  2  1  0
  2  3  1  0
  4  3  1  1
  4  5  1  0
  4 34  1  0
  5  6  1  0
  6  7  1  6
  6 22  1  0
  7  8  2  0
  7  9  1  0
  9 10  1  0
 10 11  1  0
 11 12  1  0
 13 12  1  1
 13 14  1  0
 13 21  1  0
 14 15  1  0
 16 15  1  1
 16 17  1  0
 16 19  1  0
 16 21  1  0
 17 18  1  0
 18 19  1  0
 19 20  1  1
 22 23  1  0
 22 34  1  0
 23 24  2  0
 23 25  1  0
 25 26  2  0
 25 33  1  0
 26 27  1  0
 27 28  2  0
 27 32  1  0
 28 29  1  0
 29 30  2  0
 30 31  1  0
 31 32  2  0
 32 33  1  0
M  CHG  2   3   1  13   1
M  END
