
     RDKit          3D

 34 38  0  0  0  0  0  0  0  0999 V2000
    1.4260    2.2530    0.1250 O   0  0  0  0  0  0  0  0  0  0  0  0
    1.4310    1.0240    0.4890 C   0  0  0  0  0  0  0  0  0  0  0  0
    0.1640    0.4020    0.9540 C   0  0  0  0  0  0  0  0  0  0  0  0
   -0.9250    1.4290    0.9230 C   0  0  0  0  0  0  0  0  0  0  0  0
   -0.8090    2.6630    0.6330 N   0  0  0  0  0  0  0  0  0  0  0  0
   -1.9940    3.3720    0.6910 N   0  0  0  0  0  0  0  0  0  0  0  0
   -3.0120    2.4590    1.0720 C   0  0  0  0  0  0  0  0  0  0  0  0
   -4.2450    2.7050    1.2410 O   0  0  0  0  0  0  0  0  0  0  0  0
   -2.3410    1.1770    1.2320 C   0  0  0  0  0  0  0  0  0  0  0  0
   -2.7920    0.0050    1.5580 C   0  0  0  0  0  0  0  0  0  0  0  0
   -4.2350   -0.2210    1.8670 C   0  0  0  0  0  0  0  0  0  0  0  0
   -4.7370   -1.2020    0.8600 C   0  0  0  0  0  0  0  0  0  0  0  0
   -6.1020   -1.6010    0.9620 N   0  0  2  0  0  0  0  0  0  0  0  0
   -6.3880   -2.4450   -0.1770 C   0  0  0  0  0  0  0  0  0  0  0  0
   -7.7930   -2.3580   -0.6700 C   0  0  0  0  0  0  0  0  0  0  0  0
   -8.0260   -0.9310   -1.0540 C   0  0  0  0  0  0  0  0  0  0  0  0
   -7.6410   -0.0330   -0.1270 C   0  0  0  0  0  0  0  0  0  0  0  0
   -7.9120    1.2990   -0.6050 C   0  0  0  0  0  0  0  0  0  0  0  0
   -8.4550    1.2120   -1.8060 C   0  0  0  0  0  0  0  0  0  0  0  0
   -8.5850   -0.2190   -2.2220 C   0  0  0  0  0  0  0  0  0  0  0  0
   -7.0450   -0.5350    1.1360 C   0  0  0  0  0  0  0  0  0  0  0  0
    2.6430    0.2660    0.4440 N   0  0  0  0  0  0  0  0  0  0  0  0
    3.8290    0.9060   -0.0220 C   0  0  2  0  0  0  0  0  0  0  0  0
    4.4020    0.0920   -1.1740 C   0  0  0  0  0  0  0  0  0  0  0  0
    5.8710   -0.1750   -0.7830 C   0  0  0  0  0  0  0  0  0  0  0  0
    6.1470    1.0590    0.0210 C   0  0  2  0  0  0  0  0  0  0  0  0
    7.4410    1.1170    0.7340 C   0  0  0  0  0  0  0  0  0  0  0  0
    8.5510    1.0470   -0.1100 O   0  0  0  0  0  0  0  0  0  0  0  0
    8.9190    0.0440   -0.9650 C   0  0  0  0  0  0  0  0  0  0  0  0
    9.1100   -1.2020   -0.5810 C   0  0  0  0  0  0  0  0  0  0  0  0
    9.4970   -2.0110   -1.7510 C   0  0  0  0  0  0  0  0  0  0  0  0
    9.5020   -1.0480   -2.8720 C   0  0  0  0  0  0  0  0  0  0  0  0
    9.1630    0.1360   -2.3820 C   0  0  0  0  0  0  0  0  0  0  0  0
    4.9520    0.9950    0.9980 C   0  0  0  0  0  0  0  0  0  0  0  0
  1  2  2  0
  2  3  1  0
  2 22  1  0
  3  4  1  0
  4  5  2  0
  4  9  1  0
  5  6  1  0
  6  7  1  0
  7  8  2  0
  7  9  1  0
  9 10  2  3
 10 11  1  0
 11 12  1  0
 13 12  1  6
 13 14  1  0
 13 21  1  0
 14 15  1  0
 15 16  1  0
 16 17  2  0
 16 20  1  0
 17 18  1  0
 17 21  1  0
 18 19  2  0
 19 20  1  0
 23 22  1  1
 23 24  1  0
 23 34  1  0
 24 25  1  0
 25 26  1  0
 26 27  1  1
 26 34  1  0
 27 28  1  0
 28 29  1  0
 29 30  2  0
 29 33  1  0
 30 31  1  0
 31 32  1  0
 32 33  2  0
M  CHG  1  13   1
M  END
