
     RDKit          3D

 36 39  0  0  0  0  0  0  0  0999 V2000
    5.9120   -2.6770   -1.0890 C   0  0  0  0  0  0  0  0  0  0  0  0
    6.1260   -1.2470   -1.4680 C   0  0  0  0  0  0  0  0  0  0  0  0
    5.6490   -0.2230   -0.5290 C   0  0  0  0  0  0  0  0  0  0  0  0
    4.1710   -0.2650   -0.2900 N   0  0  0  0  0  0  0  0  0  0  0  0
    3.3120    0.4500   -0.9770 C   0  0  0  0  0  0  0  0  0  0  0  0
    1.9930    0.3730   -0.6900 C   0  0  0  0  0  0  0  0  0  0  0  0
    0.8690    1.1220   -1.2340 C   0  0  0  0  0  0  0  0  0  0  0  0
    1.1980    2.0550   -2.0320 O   0  0  0  0  0  0  0  0  0  0  0  0
   -0.4750    0.9330   -0.9780 N   0  0  0  0  0  0  0  0  0  0  0  0
   -0.9890   -0.1250   -0.1560 C   0  0  0  0  0  0  0  0  0  0  0  0
   -1.0780   -1.3390   -1.1120 C   0  0  0  0  0  0  0  0  0  0  0  0
   -1.6310   -2.5580   -0.4630 C   0  0  0  0  0  0  0  0  0  0  0  0
   -3.0290   -2.3630    0.0820 C   0  0  0  0  0  0  0  0  0  0  0  0
   -3.4720   -3.6560    0.6640 C   0  0  0  0  0  0  0  0  0  0  0  0
   -4.5160   -4.3310    0.2440 C   0  0  0  0  0  0  0  0  0  0  0  0
   -4.6570   -5.5120    1.0140 N   0  0  0  0  0  0  0  0  0  0  0  0
   -3.6030   -5.5150    1.9550 C   0  0  0  0  0  0  0  0  0  0  0  0
   -2.8940   -4.4200    1.7580 C   0  0  0  0  0  0  0  0  0  0  0  0
   -1.4410    1.8510   -1.5650 C   0  0  0  0  0  0  0  0  0  0  0  0
   -1.6990    3.0720   -0.8310 C   0  0  0  0  0  0  0  0  0  0  0  0
   -1.8940    4.2500   -1.5810 C   0  0  0  0  0  0  0  0  0  0  0  0
   -2.1990    5.4700   -0.9810 C   0  0  0  0  0  0  0  0  0  0  0  0
   -2.3900    6.6110   -1.7240 C   0  0  0  0  0  0  0  0  0  0  0  0
   -2.7000    7.8250   -1.0960 C   0  0  0  0  0  0  0  0  0  0  0  0
   -2.8170    7.8910    0.2810 C   0  0  0  0  0  0  0  0  0  0  0  0
   -2.6240    6.7450    1.0280 C   0  0  0  0  0  0  0  0  0  0  0  0
   -2.3170    5.5460    0.3880 C   0  0  0  0  0  0  0  0  0  0  0  0
   -2.1310    4.4270    1.0890 N   0  0  0  0  0  0  0  0  0  0  0  0
   -1.8310    3.2200    0.5160 C   0  0  0  0  0  0  0  0  0  0  0  0
   -1.6810    2.2460    1.2810 O   0  0  0  0  0  0  0  0  0  0  0  0
    1.9310   -0.7840    0.6360 S   0  0  0  0  0  0  0  0  0  0  0  0
    3.7400   -1.0620    0.6840 C   0  0  0  0  0  0  0  0  0  0  0  0
    4.3440   -1.8420    1.4990 N   0  0  0  0  0  0  0  0  0  0  0  0
    3.7280   -2.5640    2.4150 C   0  0  0  0  0  0  0  0  0  0  0  0
    3.0600   -3.3500    3.4080 C   0  0  0  0  0  0  0  0  0  0  0  0
    4.2570   -3.9030    1.6870 O   0  0  0  0  0  0  0  0  0  0  0  0
  1  2  1  0
  2  3  1  0
  3  4  1  0
  4  5  1  0
  4 32  1  0
  5  6  2  0
  6  7  1  0
  6 31  1  0
  7  8  2  0
  7  9  1  0
  9 10  1  0
  9 19  1  0
 10 11  1  0
 11 12  1  0
 12 13  1  0
 13 14  1  0
 14 15  2  0
 14 18  1  0
 15 16  1  0
 16 17  1  0
 17 18  2  0
 19 20  1  0
 20 21  2  0
 20 29  1  0
 21 22  1  0
 22 23  2  0
 22 27  1  0
 23 24  1  0
 24 25  2  0
 25 26  1  0
 26 27  2  0
 27 28  1  0
 28 29  1  0
 29 30  2  0
 31 32  1  0
 32 33  2  3
 33 34  1  0
 34 35  1  0
 34 36  2  0
M  CHG  1  16   1
M  END
