
     RDKit          3D

 36 39  0  0  0  0  0  0  0  0999 V2000
    1.6340    3.5310   -3.4310 C   0  0  0  0  0  0  0  0  0  0  0  0
    0.8410    2.2050   -3.1670 C   0  0  0  0  0  0  0  0  0  0  0  0
    1.0230    1.7470   -1.9310 O   0  0  0  0  0  0  0  0  0  0  0  0
    0.9450    0.9060   -0.9480 C   0  0  0  0  0  0  0  0  0  0  0  0
   -0.1620    0.6600   -0.1760 C   0  0  0  0  0  0  0  0  0  0  0  0
   -1.3860    1.4180   -0.3960 C   0  0  0  0  0  0  0  0  0  0  0  0
   -2.4270    1.2360    0.6090 N   0  0  0  0  0  0  0  0  0  0  0  0
   -3.7570    1.2650    0.0050 C   0  0  0  0  0  0  0  0  0  0  0  0
   -4.1060    0.1800   -0.9350 C   0  0  0  0  0  0  0  0  0  0  0  0
   -4.4910    0.4980   -2.2430 C   0  0  0  0  0  0  0  0  0  0  0  0
   -4.5960    1.9210   -2.7510 C   0  0  0  0  0  0  0  0  0  0  0  0
   -6.0580    2.3320   -2.4000 C   0  0  0  0  0  0  0  0  0  0  0  0
   -4.7960   -0.6500   -2.7990 N   0  0  0  0  0  0  0  0  0  0  0  0
   -4.6450   -1.6330   -1.9640 O   0  0  0  0  0  0  0  0  0  0  0  0
   -4.2180   -1.1530   -0.7910 C   0  0  0  0  0  0  0  0  0  0  0  0
   -3.9560   -1.9810    0.4710 C   0  0  0  0  0  0  0  0  0  0  0  0
   -5.2910   -1.7040    1.1980 C   0  0  0  0  0  0  0  0  0  0  0  0
   -5.5320   -2.2440    2.4660 N   0  0  0  0  0  0  0  0  0  0  0  0
   -6.4180   -1.2030    3.1300 C   0  0  0  0  0  0  0  0  0  0  0  0
   -6.4460   -3.4080    2.2650 C   0  0  0  0  0  0  0  0  0  0  0  0
   -0.0890   -0.3100    0.8300 C   0  0  0  0  0  0  0  0  0  0  0  0
    1.0080   -1.0320    1.1160 N   0  0  0  0  0  0  0  0  0  0  0  0
    2.1270   -0.7980    0.3870 C   0  0  0  0  0  0  0  0  0  0  0  0
    3.2700   -1.3770    0.7590 N   0  0  0  0  0  0  0  0  0  0  0  0
    4.4290   -1.0600    0.1660 C   0  0  0  0  0  0  0  0  0  0  0  0
    5.6940   -1.6470    0.5360 N   0  0  0  0  0  0  0  0  0  0  0  0
    6.8680   -0.7510    0.4270 C   0  0  2  0  0  0  0  0  0  0  0  0
    8.1950   -1.4020    0.3840 C   0  0  0  0  0  0  0  0  0  0  0  0
    9.0760   -0.6950    1.4440 C   0  0  0  0  0  0  0  0  0  0  0  0
    8.5920   -1.2120    2.7890 C   0  0  0  0  0  0  0  0  0  0  0  0
    7.2700   -0.5760    2.9450 N   0  0  0  0  0  0  0  0  0  0  0  0
    6.7190   -0.0330    1.7760 C   0  0  0  0  0  0  0  0  0  0  0  0
    6.1070    1.0310    1.7830 O   0  0  0  0  0  0  0  0  0  0  0  0
    4.4620   -0.1300   -0.8510 C   0  0  0  0  0  0  0  0  0  0  0  0
    3.2670    0.4690   -1.2350 C   0  0  0  0  0  0  0  0  0  0  0  0
    2.1130    0.1220   -0.6010 C   0  0  0  0  0  0  0  0  0  0  0  0
  1  2  1  0
  2  3  1  0
  3  4  1  0
  4  5  2  0
  4 36  1  0
  5  6  1  0
  5 21  1  0
  6  7  1  0
  7  8  1  0
  8  9  1  0
  9 10  1  0
  9 15  2  0
 10 11  1  0
 10 13  2  0
 11 12  1  0
 13 14  1  0
 14 15  1  0
 15 16  1  0
 16 17  1  0
 17 18  1  0
 18 19  1  0
 18 20  1  0
 21 22  2  0
 22 23  1  0
 23 24  2  0
 23 36  1  0
 24 25  1  0
 25 26  1  0
 25 34  2  0
 27 26  1  1
 27 28  1  0
 27 32  1  0
 28 29  1  0
 29 30  1  0
 30 31  1  0
 31 32  1  0
 32 33  2  0
 34 35  1  0
 35 36  2  0
M  CHG  1   7   1
M  END
