
     RDKit          3D

 37 39  0  0  0  0  0  0  0  0999 V2000
    8.8850   -0.0050    0.4440 C   0  0  0  0  0  0  0  0  0  0  0  0
    7.5860   -0.0050    0.5600 C   0  0  0  0  0  0  0  0  0  0  0  0
    6.9330    0.5860    1.7610 C   0  0  0  0  0  0  0  0  0  0  0  0
    5.4770    0.5220    1.7590 C   0  0  0  0  0  0  0  0  0  0  0  0
    4.7490   -0.0090    0.7980 C   0  0  0  0  0  0  0  0  0  0  0  0
    3.3210   -0.1580    0.6300 N   0  0  0  0  0  0  0  0  0  0  0  0
    3.1100   -0.7480   -0.4920 C   0  0  0  0  0  0  0  0  0  0  0  0
    1.7790   -1.0910   -1.0420 C   0  0  0  0  0  0  0  0  0  0  0  0
    0.7190   -0.6400   -0.0740 C   0  0  0  0  0  0  0  0  0  0  0  0
   -0.6150   -0.9050   -0.4830 N   0  0  2  0  0  0  0  0  0  0  0  0
   -0.8260   -2.0210   -1.3300 C   0  0  0  0  0  0  0  0  0  0  0  0
   -0.8080   -3.3580   -0.7020 C   0  0  0  0  0  0  0  0  0  0  0  0
   -1.8570   -3.5460    0.3640 C   0  0  0  0  0  0  0  0  0  0  0  0
   -3.2070   -3.3700   -0.1900 N   0  0  0  0  0  0  0  0  0  0  0  0
   -4.3640   -3.4900    0.5920 C   0  0  0  0  0  0  0  0  0  0  0  0
   -4.2270   -3.7600    1.8180 O   0  0  0  0  0  0  0  0  0  0  0  0
   -5.6660   -3.3240    0.0720 N   0  0  0  0  0  0  0  0  0  0  0  0
   -6.8450   -3.4580    0.9240 C   0  0  0  0  0  0  0  0  0  0  0  0
   -6.9320   -4.8310    1.5440 C   0  0  0  0  0  0  0  0  0  0  0  0
   -1.1580    0.2860   -1.1060 C   0  0  0  0  0  0  0  0  0  0  0  0
   -1.4260    1.3490   -0.0820 C   0  0  0  0  0  0  0  0  0  0  0  0
   -1.1650    1.0950    1.1020 O   0  0  0  0  0  0  0  0  0  0  0  0
   -1.9590    2.6080   -0.4290 N   0  0  0  0  0  0  0  0  0  0  0  0
   -2.2610    3.6960    0.4190 C   0  0  0  0  0  0  0  0  0  0  0  0
   -2.0410    3.6570    1.7900 C   0  0  0  0  0  0  0  0  0  0  0  0
   -2.3300    4.7130    2.6190 C   0  0  0  0  0  0  0  0  0  0  0  0
   -2.8600    5.8610    2.0700 C   0  0  0  0  0  0  0  0  0  0  0  0
   -3.0830    5.9120    0.7120 C   0  0  0  0  0  0  0  0  0  0  0  0
   -2.7940    4.8450   -0.1460 C   0  0  0  0  0  0  0  0  0  0  0  0
   -3.0390    4.9440   -1.5200 N   0  0  0  0  0  0  0  0  0  0  0  0
   -3.6110    6.2310   -1.9980 C   0  0  0  0  0  0  0  0  0  0  0  0
    4.2980   -1.0240   -1.1240 O   0  0  0  0  0  0  0  0  0  0  0  0
    5.3330   -0.5840   -0.3620 N   0  0  0  0  0  0  0  0  0  0  0  0
    6.7510   -0.5920   -0.4980 C   0  0  0  0  0  0  0  0  0  0  0  0
    7.2950   -1.1160   -1.5570 C   0  0  0  0  0  0  0  0  0  0  0  0
    6.6080   -1.7330   -2.6880 C   0  0  0  0  0  0  0  0  0  0  0  0
    6.9050   -1.0530   -3.8880 F   0  0  0  0  0  0  0  0  0  0  0  0
  1  2  2  0
  2  3  1  0
  2 34  1  0
  3  4  1  0
  4  5  2  0
  5  6  1  0
  5 33  1  0
  6  7  2  0
  7  8  1  0
  7 32  1  0
  8  9  1  0
 10  9  1  6
 10 11  1  0
 10 20  1  0
 11 12  1  0
 12 13  1  0
 13 14  1  0
 14 15  1  0
 15 16  2  0
 15 17  1  0
 17 18  1  0
 18 19  1  0
 20 21  1  0
 21 22  2  0
 21 23  1  0
 23 24  1  0
 24 25  2  0
 24 29  1  0
 25 26  1  0
 26 27  2  0
 27 28  1  0
 28 29  2  0
 29 30  1  0
 30 31  1  0
 32 33  1  0
 33 34  1  0
 34 35  2  3
 35 36  1  0
 36 37  1  0
M  CHG  1  10   1
M  END
