
     RDKit          3D

 37 40  0  0  0  0  0  0  0  0999 V2000
   -0.8050    1.4200    2.1460 C   0  0  0  0  0  0  0  0  0  0  0  0
   -1.6290    0.4540    1.3300 C   0  0  0  0  0  0  0  0  0  0  0  0
   -2.7610   -0.0180    1.8120 N   0  0  0  0  0  0  0  0  0  0  0  0
   -3.3630   -0.8980    0.8750 C   0  0  1  0  0  0  0  0  0  0  0  0
   -3.0540   -2.3110    1.2840 C   0  0  0  0  0  0  0  0  0  0  0  0
   -4.8510   -0.7770    0.8460 C   0  0  0  0  0  0  0  0  0  0  0  0
   -5.5580   -0.3450    1.9490 C   0  0  0  0  0  0  0  0  0  0  0  0
   -6.9210   -0.2490    1.8690 C   0  0  0  0  0  0  0  0  0  0  0  0
   -7.5990   -0.5810    0.6930 C   0  0  0  0  0  0  0  0  0  0  0  0
   -9.3440   -0.4620    0.5730 Cl  0  0  0  0  0  0  0  0  0  0  0  0
   -6.8960   -1.0130   -0.4090 C   0  0  0  0  0  0  0  0  0  0  0  0
   -5.5200   -1.1030   -0.3120 C   0  0  0  0  0  0  0  0  0  0  0  0
   -2.7160   -0.5090   -0.4440 C   0  0  1  0  0  0  0  0  0  0  0  0
   -2.5480   -1.7300   -1.3030 C   0  0  0  0  0  0  0  0  0  0  0  0
   -3.3600    0.5780   -1.1450 C   0  0  0  0  0  0  0  0  0  0  0  0
   -3.9940    1.6150   -0.4490 C   0  0  0  0  0  0  0  0  0  0  0  0
   -4.6120    2.6620   -1.0780 C   0  0  0  0  0  0  0  0  0  0  0  0
   -4.6410    2.7490   -2.4370 C   0  0  0  0  0  0  0  0  0  0  0  0
   -5.4250    4.0750   -3.2830 Cl  0  0  0  0  0  0  0  0  0  0  0  0
   -4.0330    1.7600   -3.1620 C   0  0  0  0  0  0  0  0  0  0  0  0
   -3.3990    0.6880   -2.5100 C   0  0  0  0  0  0  0  0  0  0  0  0
   -1.3810   -0.0400    0.0370 N   0  0  0  0  0  0  0  0  0  0  0  0
   -0.2140    0.0100   -0.7370 C   0  0  0  0  0  0  0  0  0  0  0  0
   -0.4570   -0.1070   -2.0290 O   0  0  0  0  0  0  0  0  0  0  0  0
    1.1280    0.1480   -0.4410 N   0  0  0  0  0  0  0  0  0  0  0  0
    1.6860    0.0980    0.8750 C   0  0  0  0  0  0  0  0  0  0  0  0
    2.9760   -0.7320    0.9010 C   0  0  0  0  0  0  0  0  0  0  0  0
    3.8860   -0.3690   -0.1350 N   0  0  2  0  0  0  0  0  0  0  0  0
    5.2230   -0.0550    0.4000 C   0  0  0  0  0  0  0  0  0  0  0  0
    6.0160   -1.2960    0.5960 C   0  0  0  0  0  0  0  0  0  0  0  0
    7.3670   -1.0960    1.1760 C   0  0  0  0  0  0  0  0  0  0  0  0
    8.4780   -0.0960    0.2820 S   0  0  2  0  0  0  0  0  0  0  0  0
    7.9140    1.5620    0.1370 C   0  0  0  0  0  0  0  0  0  0  0  0
    8.6420   -0.6500   -1.1350 O   0  0  0  0  0  0  0  0  0  0  0  0
    9.8660   -0.1160    0.9070 O   0  0  0  0  0  0  0  0  0  0  0  0
    3.4430    0.7370   -0.9300 C   0  0  0  0  0  0  0  0  0  0  0  0
    2.1040    0.4170   -1.5180 C   0  0  0  0  0  0  0  0  0  0  0  0
  1  2  1  0
  2  3  2  0
  2 22  1  0
  3  4  1  0
  4  5  1  1
  4  6  1  0
  4 13  1  0
  6  7  2  0
  6 12  1  0
  7  8  1  0
  8  9  2  0
  9 10  1  0
  9 11  1  0
 11 12  2  0
 13 14  1  6
 13 15  1  0
 13 22  1  0
 15 16  2  0
 15 21  1  0
 16 17  1  0
 17 18  2  0
 18 19  1  0
 18 20  1  0
 20 21  2  0
 22 23  1  0
 23 24  2  0
 23 25  1  0
 25 26  1  0
 25 37  1  0
 26 27  1  0
 27 28  1  0
 28 29  1  1
 28 36  1  0
 29 30  1  0
 30 31  1  0
 31 32  1  0
 32 33  1  6
 32 34  2  0
 32 35  2  0
 36 37  1  0
M  CHG  1  28   1
M  END
