
     RDKit          3D

 37 41  0  0  0  0  0  0  0  0999 V2000
   -5.4160   -0.4690    1.8660 C   0  0  0  0  0  0  0  0  0  0  0  0
   -4.3500   -0.6440    0.9270 N   0  0  1  0  0  0  0  0  0  0  0  0
   -4.6670   -0.4520   -0.4420 C   0  0  0  0  0  0  0  0  0  0  0  0
   -5.9260    0.2640   -0.7650 C   0  0  0  0  0  0  0  0  0  0  0  0
   -6.0520    1.6310   -0.2750 C   0  0  0  0  0  0  0  0  0  0  0  0
   -7.0310    1.9640    0.5390 C   0  0  0  0  0  0  0  0  0  0  0  0
   -7.2290    3.3190    1.0790 C   0  0  0  0  0  0  0  0  0  0  0  0
   -6.2630    4.1930    0.6170 O   0  0  0  0  0  0  0  0  0  0  0  0
   -5.2340    3.8820   -0.2270 C   0  0  0  0  0  0  0  0  0  0  0  0
   -4.3150    4.8390   -0.6260 F   0  0  0  0  0  0  0  0  0  0  0  0
   -5.1030    2.6460   -0.6780 C   0  0  0  0  0  0  0  0  0  0  0  0
   -3.1930    0.1250    1.3770 C   0  0  0  0  0  0  0  0  0  0  0  0
   -1.9770   -0.6700    1.0660 C   0  0  0  0  0  0  0  0  0  0  0  0
   -2.0570   -1.8110    0.5040 O   0  0  0  0  0  0  0  0  0  0  0  0
   -0.6620   -0.2290    1.3650 N   0  0  0  0  0  0  0  0  0  0  0  0
    0.4720   -1.0310    1.0480 C   0  0  0  0  0  0  0  0  0  0  0  0
    1.7070   -0.5970    1.3370 N   0  0  0  0  0  0  0  0  0  0  0  0
    2.8340   -1.3090    1.0660 C   0  0  0  0  0  0  0  0  0  0  0  0
    4.0800   -0.7440    1.4340 N   0  0  0  0  0  0  0  0  0  0  0  0
    5.3210   -1.3930    1.1480 C   0  0  0  0  0  0  0  0  0  0  0  0
    5.7320   -1.2940   -0.2790 C   0  0  0  0  0  0  0  0  0  0  0  0
    5.9320    0.0760   -0.6630 N   0  0  0  0  0  0  0  0  0  0  0  0
    7.1440    0.6270   -0.4310 C   0  0  0  0  0  0  0  0  0  0  0  0
    7.3350    1.9330   -0.7790 C   0  0  0  0  0  0  0  0  0  0  0  0
    6.3590    2.7170   -1.3520 C   0  0  0  0  0  0  0  0  0  0  0  0
    6.2770    4.0210   -1.7900 C   0  0  0  0  0  0  0  0  0  0  0  0
    5.0360    4.2340   -2.2730 N   0  0  0  0  0  0  0  0  0  0  0  0
    4.3210    3.0800   -2.1480 C   0  0  0  0  0  0  0  0  0  0  0  0
    5.1350    2.1250   -1.5750 C   0  0  0  0  0  0  0  0  0  0  0  0
    4.9500    0.7880   -1.2160 C   0  0  0  0  0  0  0  0  0  0  0  0
    3.8070    0.3280   -1.4570 O   0  0  0  0  0  0  0  0  0  0  0  0
    2.6950   -2.5290    0.4680 C   0  0  0  0  0  0  0  0  0  0  0  0
    1.4210   -3.0010    0.1580 C   0  0  0  0  0  0  0  0  0  0  0  0
    1.2730   -4.3330   -0.4950 C   0  0  1  0  0  0  0  0  0  0  0  0
   -0.0110   -5.0700   -0.3870 C   0  0  0  0  0  0  0  0  0  0  0  0
    0.2250   -4.3300   -1.6370 C   0  0  0  0  0  0  0  0  0  0  0  0
    0.3690   -2.2300    0.4620 N   0  0  0  0  0  0  0  0  0  0  0  0
  2  1  1  1
  2  3  1  0
  2 12  1  0
  3  4  1  0
  4  5  1  0
  5  6  2  0
  5 11  1  0
  6  7  1  0
  7  8  1  0
  8  9  1  0
  9 10  1  0
  9 11  2  0
 12 13  1  0
 13 14  2  0
 13 15  1  0
 15 16  1  0
 16 17  2  0
 16 37  1  0
 17 18  1  0
 18 19  1  0
 18 32  2  0
 19 20  1  0
 20 21  1  0
 21 22  1  0
 22 23  1  0
 22 30  1  0
 23 24  2  0
 24 25  1  0
 25 26  2  0
 25 29  1  0
 26 27  1  0
 27 28  1  0
 28 29  2  0
 29 30  1  0
 30 31  2  0
 32 33  1  0
 34 33  1  1
 33 37  2  0
 34 35  1  0
 34 36  1  0
 35 36  1  0
M  CHG  1   2   1
M  END
