
     RDKit          3D

 37 40  0  0  0  0  0  0  0  0999 V2000
   -5.5630   -3.1820   -0.1920 C   0  0  0  0  0  0  0  0  0  0  0  0
   -6.1440   -2.2830   -1.1510 N   0  0  0  0  0  0  0  0  0  0  0  0
   -5.1910   -1.5350   -1.9110 C   0  0  0  0  0  0  0  0  0  0  0  0
   -5.1980   -0.0840   -1.6890 C   0  0  0  0  0  0  0  0  0  0  0  0
   -4.8950    0.5140   -0.3970 C   0  0  1  0  0  0  0  0  0  0  0  0
   -3.5870    0.2640    0.2210 C   0  0  0  0  0  0  0  0  0  0  0  0
   -2.3970    0.6880   -0.5180 C   0  0  0  0  0  0  0  0  0  0  0  0
   -2.5470    1.2370   -1.6420 O   0  0  0  0  0  0  0  0  0  0  0  0
   -1.0690    0.5250   -0.0590 N   0  0  0  0  0  0  0  0  0  0  0  0
    0.0700    0.9430   -0.7750 C   0  0  0  0  0  0  0  0  0  0  0  0
    0.1310    1.5490   -1.9640 N   0  0  0  0  0  0  0  0  0  0  0  0
    1.4010    1.7800   -2.2900 N   0  0  0  0  0  0  0  0  0  0  0  0
    2.2190    1.3210   -1.3010 C   0  0  0  0  0  0  0  0  0  0  0  0
    3.5870    1.3060   -1.1320 C   0  0  0  0  0  0  0  0  0  0  0  0
    4.1680    0.7530    0.0150 C   0  0  0  0  0  0  0  0  0  0  0  0
    5.6160    0.7750    0.1390 C   0  0  0  0  0  0  0  0  0  0  0  0
    6.3240    1.4780   -0.6610 O   0  0  0  0  0  0  0  0  0  0  0  0
    6.2510    0.0120    1.1550 N   0  0  0  0  0  0  0  0  0  0  0  0
    7.6810    0.0300    1.2840 C   0  0  0  0  0  0  0  0  0  0  0  0
    8.4040   -0.4680    0.0530 C   0  0  0  0  0  0  0  0  0  0  0  0
    9.8890   -0.3970    0.3270 C   0  0  2  0  0  0  0  0  0  0  0  0
   10.7050   -0.8740   -0.8540 C   0  0  0  0  0  0  0  0  0  0  0  0
   10.1690   -1.3340    1.5030 C   0  0  0  0  0  0  0  0  0  0  0  0
    3.3250    0.2310    0.9590 C   0  0  0  0  0  0  0  0  0  0  0  0
    1.9460    0.2460    0.7890 C   0  0  0  0  0  0  0  0  0  0  0  0
    1.3690    0.7930   -0.3470 C   0  0  0  0  0  0  0  0  0  0  0  0
   -5.0400    2.0380   -0.4650 C   0  0  0  0  0  0  0  0  0  0  0  0
   -4.1710    2.9170   -0.4560 O   0  0  0  0  0  0  0  0  0  0  0  0
   -6.4470    2.2070   -0.5440 N   0  0  0  0  0  0  0  0  0  0  0  0
   -7.4470    3.0110   -1.0140 C   0  0  0  0  0  0  0  0  0  0  0  0
   -8.6640    2.4590   -0.6570 C   0  0  0  0  0  0  0  0  0  0  0  0
   -8.3960    1.3290    0.0230 N   0  0  0  0  0  0  0  0  0  0  0  0
   -7.0620    1.1640    0.1000 C   0  0  0  0  0  0  0  0  0  0  0  0
   -5.9700    0.2980    0.6090 C   0  0  0  0  0  0  0  0  0  0  0  0
   -5.9930   -0.4350    1.6990 C   0  0  0  0  0  0  0  0  0  0  0  0
   -7.2240   -0.4590    2.5230 C   0  0  0  0  0  0  0  0  0  0  0  0
   -7.6750   -1.7690    2.5760 F   0  0  0  0  0  0  0  0  0  0  0  0
  1  2  1  0
  2  3  1  0
  3  4  1  0
  5  4  1  6
  5  6  1  0
  5 27  1  0
  5 34  1  0
  6  7  1  0
  7  8  2  0
  7  9  1  0
  9 10  1  0
 10 11  2  0
 10 26  1  0
 11 12  1  0
 12 13  1  0
 13 14  2  0
 13 26  1  0
 14 15  1  0
 15 16  1  0
 15 24  2  0
 16 17  2  0
 16 18  1  0
 18 19  1  0
 19 20  1  0
 20 21  1  0
 21 22  1  6
 21 23  1  0
 24 25  1  0
 25 26  2  0
 27 28  2  0
 27 29  1  0
 29 30  1  0
 29 33  1  0
 30 31  2  0
 31 32  1  0
 32 33  2  0
 33 34  1  0
 34 35  2  3
 35 36  1  0
 36 37  1  0
M  CHG  1   2   1
M  END
