
     RDKit          3D

 28 30  0  0  0  0  0  0  0  0999 V2000
    2.4360   -3.3190    0.7580 C   0  0  0  0  0  0  0  0  0  0  0  0
    1.7830   -2.2190    0.2400 C   0  0  0  0  0  0  0  0  0  0  0  0
    2.3170   -0.9540    0.6630 C   0  0  0  0  0  0  0  0  0  0  0  0
    2.1190    0.2880    0.3950 C   0  0  0  0  0  0  0  0  0  0  0  0
    2.9210    1.3520    1.0830 C   0  0  0  0  0  0  0  0  0  0  0  0
    2.8160    2.6380    0.9180 C   0  0  0  0  0  0  0  0  0  0  0  0
    3.7330    3.3170    1.7340 O   0  0  0  0  0  0  0  0  0  0  0  0
    4.6360    2.3500    2.2240 C   0  0  0  0  0  0  0  0  0  0  0  0
    3.9270    1.1610    2.0220 O   0  0  0  0  0  0  0  0  0  0  0  0
    3.3610   -1.1390    1.6870 O   0  0  0  0  0  0  0  0  0  0  0  0
    2.7640   -1.2300    2.9780 C   0  0  0  0  0  0  0  0  0  0  0  0
    0.8660   -2.5000   -0.8260 C   0  0  0  0  0  0  0  0  0  0  0  0
    1.2490   -3.6740   -1.6580 C   0  0  0  0  0  0  0  0  0  0  0  0
    2.4470   -4.4220   -1.4790 N   0  0  0  0  0  0  0  0  0  0  0  0
    0.5410   -4.0780   -2.5890 O   0  0  0  0  0  0  0  0  0  0  0  0
   -0.0820   -1.7230   -1.3590 C   0  0  0  0  0  0  0  0  0  0  0  0
   -0.8810   -2.3250   -2.5070 C   0  0  0  0  0  0  0  0  0  0  0  0
   -0.6820   -0.5820   -0.6970 C   0  0  0  0  0  0  0  0  0  0  0  0
   -1.4980    0.2950   -1.1820 C   0  0  0  0  0  0  0  0  0  0  0  0
   -2.0630    0.4530   -2.5350 C   0  0  0  0  0  0  0  0  0  0  0  0
   -3.5510    0.3960   -2.5690 C   0  0  0  0  0  0  0  0  0  0  0  0
   -4.1800    1.3200   -1.5700 C   0  0  0  0  0  0  0  0  0  0  0  0
   -3.3030    1.7060   -0.4400 C   0  0  0  0  0  0  0  0  0  0  0  0
   -2.0810    1.2840   -0.1960 C   0  0  0  0  0  0  0  0  0  0  0  0
   -1.3360    1.6890    0.9790 C   0  0  0  0  0  0  0  0  0  0  0  0
   -1.8790    2.5110    1.8580 C   0  0  0  0  0  0  0  0  0  0  0  0
   -3.2200    3.0430    1.7080 C   0  0  0  0  0  0  0  0  0  0  0  0
   -3.9200    2.7070    0.4790 C   0  0  0  0  0  0  0  0  0  0  0  0
  1  2  2  0
  2  3  1  0
  2 12  1  0
  3  4  2  3
  3 10  1  0
  4  5  1  0
  5  6  2  0
  5  9  1  0
  6  7  1  0
  7  8  1  0
  8  9  1  0
 10 11  1  0
 12 13  1  0
 12 16  2  3
 13 14  1  0
 13 15  2  0
 16 17  1  0
 16 18  1  0
 18 19  2  3
 19 20  1  0
 19 24  1  0
 20 21  1  0
 21 22  1  0
 22 23  1  0
 23 24  2  0
 23 28  1  0
 24 25  1  0
 25 26  2  0
 26 27  1  0
 27 28  1  0
M  END
