
     RDKit          3D

 28 30  0  0  0  0  0  0  0  0999 V2000
   -4.1670    2.7030   -1.0390 C   0  0  0  0  0  0  0  0  0  0  0  0
   -3.0300    1.7580   -0.5290 C   0  0  1  0  0  0  0  0  0  0  0  0
   -1.9050    2.5850   -0.0680 C   0  0  0  0  0  0  0  0  0  0  0  0
   -0.5670    2.2870   -0.8180 C   0  0  2  0  0  0  0  0  0  0  0  0
   -0.4170    0.8160   -0.9670 C   0  0  0  0  0  0  0  0  0  0  0  0
   -0.1810    0.2190   -2.3030 C   0  0  0  0  0  0  0  0  0  0  0  0
   -0.0490   -1.1420   -2.1520 O   0  0  0  0  0  0  0  0  0  0  0  0
    0.4650   -1.9790   -1.2160 C   0  0  0  0  0  0  0  0  0  0  0  0
    0.0830   -2.2620    0.0090 C   0  0  0  0  0  0  0  0  0  0  0  0
   -0.9630   -1.8770    0.9100 C   0  0  0  0  0  0  0  0  0  0  0  0
   -2.3910   -1.9940    0.7190 C   0  0  2  0  0  0  0  0  0  0  0  0
   -3.1320   -1.6690   -0.4870 C   0  0  0  0  0  0  0  0  0  0  0  0
   -4.0820   -0.5180   -0.4650 C   0  0  0  0  0  0  0  0  0  0  0  0
   -3.6530    0.7160    0.2980 C   0  0  1  0  0  0  0  0  0  0  0  0
   -3.0730    0.2980    1.5880 C   0  0  0  0  0  0  0  0  0  0  0  0
   -3.0790   -1.1900    1.8580 C   0  0  1  0  0  0  0  0  0  0  0  0
   -4.3250   -1.7010    2.1200 O   0  0  0  0  0  0  0  0  0  0  0  0
    1.7180   -2.6710   -1.7820 C   0  0  0  0  0  0  0  0  0  0  0  0
    2.9540   -2.2950   -0.9520 C   0  0  0  0  0  0  0  0  0  0  0  0
    2.8320   -0.8980   -0.4920 C   0  0  0  0  0  0  0  0  0  0  0  0
    4.0130   -0.1810    0.0300 C   0  0  2  0  0  0  0  0  0  0  0  0
    4.5460   -0.6720    1.3250 C   0  0  0  0  0  0  0  0  0  0  0  0
    5.7570    0.1110    1.7720 C   0  0  0  0  0  0  0  0  0  0  0  0
    5.4600    1.4490    1.9360 O   0  0  0  0  0  0  0  0  0  0  0  0
    3.7300    1.1840   -0.0120 O   0  0  0  0  0  0  0  0  0  0  0  0
    2.5940    1.6110    0.6140 C   0  0  0  0  0  0  0  0  0  0  0  0
    1.7200    2.4360   -0.3220 C   0  0  0  0  0  0  0  0  0  0  0  0
    0.4470    2.6680    0.0970 O   0  0  0  0  0  0  0  0  0  0  0  0
  2  1  1  1
  2  3  1  0
  2 14  1  0
  4  3  1  1
  4  5  1  0
  4 28  1  0
  5  6  1  0
  6  7  1  0
  7  8  1  0
  8  9  2  0
  8 18  1  0
  9 10  1  0
 11 10  1  6
 11 12  1  0
 11 16  1  0
 12 13  1  0
 13 14  1  0
 14 15  1  1
 15 16  1  0
 16 17  1  6
 18 19  1  0
 19 20  1  0
 20 21  1  0
 21 22  1  1
 21 25  1  0
 22 23  1  0
 23 24  1  0
 25 26  1  0
 26 27  1  0
 27 28  1  0
M  END
