
     RDKit          3D

 28 32  0  0  0  0  0  0  0  0999 V2000
    2.6300    2.8900   -1.5580 O   0  0  0  0  0  0  0  0  0  0  0  0
    3.1850    1.6890   -1.8100 C   0  0  0  0  0  0  0  0  0  0  0  0
    2.9170    0.5640   -0.8600 C   0  0  2  0  0  0  0  0  0  0  0  0
    1.4520    0.2930   -0.7970 C   0  0  2  0  0  0  0  0  0  0  0  0
    1.0360   -0.0120   -2.1120 O   0  0  0  0  0  0  0  0  0  0  0  0
    0.5970    1.3920   -0.2950 C   0  0  0  0  0  0  0  0  0  0  0  0
   -0.3190    1.0260    0.8340 C   0  0  0  0  0  0  0  0  0  0  0  0
   -1.2330   -0.1310    0.5860 C   0  0  2  0  0  0  0  0  0  0  0  0
   -2.4460    0.1860   -0.2030 C   0  0  2  0  0  0  0  0  0  0  0  0
   -3.3710    1.2180    0.2950 C   0  0  0  0  0  0  0  0  0  0  0  0
   -4.6930    0.8080   -0.2490 C   0  0  0  0  0  0  0  0  0  0  0  0
   -5.8550    1.4020   -0.4410 C   0  0  0  0  0  0  0  0  0  0  0  0
   -7.0420    0.7100   -1.0270 C   0  0  0  0  0  0  0  0  0  0  0  0
   -6.7860   -0.6300   -1.3410 O   0  0  0  0  0  0  0  0  0  0  0  0
   -5.5890   -1.2760   -1.1540 C   0  0  0  0  0  0  0  0  0  0  0  0
   -4.5660   -0.5880   -0.6250 C   0  0  0  0  0  0  0  0  0  0  0  0
   -3.2670   -0.9640   -0.3250 O   0  0  0  0  0  0  0  0  0  0  0  0
   -1.6400   -0.6820    1.9210 C   0  0  0  0  0  0  0  0  0  0  0  0
   -1.9810   -2.1420    1.9200 C   0  0  0  0  0  0  0  0  0  0  0  0
   -0.8470   -2.8780    1.2440 C   0  0  0  0  0  0  0  0  0  0  0  0
   -0.7960   -2.4340   -0.0550 O   0  0  0  0  0  0  0  0  0  0  0  0
   -0.4170   -1.1290   -0.2190 C   0  0  2  0  0  0  0  0  0  0  0  0
    1.0860   -0.9370    0.0060 C   0  0  0  0  0  0  0  0  0  0  0  0
    3.4300    0.8560    0.5370 C   0  0  0  0  0  0  0  0  0  0  0  0
    4.9120    1.0660    0.5680 C   0  0  0  0  0  0  0  0  0  0  0  0
    5.6700   -0.1470    0.0880 C   0  0  0  0  0  0  0  0  0  0  0  0
    4.6620   -1.1790   -0.3300 C   0  0  0  0  0  0  0  0  0  0  0  0
    3.6750   -0.6290   -1.3610 C   0  0  0  0  0  0  0  0  0  0  0  0
  1  2  1  0
  3  2  1  6
  3  4  1  0
  3 24  1  0
  3 28  1  0
  4  5  1  6
  4  6  1  0
  4 23  1  0
  6  7  1  0
  8  7  1  1
  8  9  1  0
  8 18  1  0
  8 22  1  0
  9 10  1  1
  9 17  1  0
 10 11  1  0
 11 12  2  0
 11 16  1  0
 12 13  1  0
 13 14  1  0
 14 15  1  0
 15 16  2  0
 16 17  1  0
 18 19  1  0
 19 20  1  0
 20 21  1  0
 21 22  1  0
 22 23  1  1
 24 25  1  0
 25 26  1  0
 26 27  1  0
 27 28  1  0
M  END
