
     RDKit          3D

 28 31  0  0  0  0  0  0  0  0999 V2000
   -2.9440   -3.1260   -0.6840 C   0  0  0  0  0  0  0  0  0  0  0  0
   -3.0210   -1.7060   -0.1480 C   0  0  2  0  0  0  0  0  0  0  0  0
   -4.3860   -1.1890   -0.5610 C   0  0  0  0  0  0  0  0  0  0  0  0
   -1.8800   -0.8170   -0.6820 C   0  0  0  0  0  0  0  0  0  0  0  0
   -1.3120   -0.1670    0.5410 C   0  0  2  0  0  0  0  0  0  0  0  0
   -2.3150    0.9220    0.8560 C   0  0  0  0  0  0  0  0  0  0  0  0
   -2.5060    1.9400   -0.2470 C   0  0  0  0  0  0  0  0  0  0  0  0
   -1.2010    2.1980   -0.9240 C   0  0  0  0  0  0  0  0  0  0  0  0
   -0.1460    1.8910    0.1070 C   0  0  2  0  0  0  0  0  0  0  0  0
    0.9810    2.8100   -0.1180 C   0  0  1  0  0  0  0  0  0  0  0  0
    0.4240    4.1200    0.1620 O   0  0  0  0  0  0  0  0  0  0  0  0
    2.0100    2.6280    0.9260 C   0  0  1  0  0  0  0  0  0  0  0  0
    2.3880    3.8420    1.5300 O   0  0  0  0  0  0  0  0  0  0  0  0
    1.6960    1.6410    1.9610 C   0  0  0  0  0  0  0  0  0  0  0  0
    0.8360    0.4830    1.6640 C   0  0  0  0  0  0  0  0  0  0  0  0
    0.1020    0.4280    0.3450 C   0  0  1  0  0  0  0  0  0  0  0  0
    0.8540   -0.3160   -0.6610 C   0  0  0  0  0  0  0  0  0  0  0  0
    2.1880   -0.1850   -1.1770 C   0  0  1  0  0  0  0  0  0  0  0  0
    2.7060    0.8680   -1.8070 O   0  0  0  0  0  0  0  0  0  0  0  0
    3.2960   -0.7740   -0.2810 C   0  0  0  0  0  0  0  0  0  0  0  0
    4.6120   -0.3810   -0.8840 C   0  0  0  0  0  0  0  0  0  0  0  0
    4.4490   -0.3100   -2.2630 O   0  0  0  0  0  0  0  0  0  0  0  0
    3.6580   -1.3120   -2.7660 C   0  0  0  0  0  0  0  0  0  0  0  0
    2.2200   -1.2530   -2.3480 C   0  0  0  0  0  0  0  0  0  0  0  0
   -1.5190   -1.2470    1.4900 C   0  0  1  0  0  0  0  0  0  0  0  0
   -0.7890   -2.5300    1.3350 C   0  0  0  0  0  0  0  0  0  0  0  0
   -1.6760   -1.0120    2.9650 C   0  0  0  0  0  0  0  0  0  0  0  0
   -2.8790   -1.5940    1.1660 O   0  0  0  0  0  0  0  0  0  0  0  0
  2  1  1  1
  2  3  1  0
  2  4  1  0
  2 28  1  0
  5  4  1  6
  5  6  1  0
  5 16  1  0
  5 25  1  0
  6  7  1  0
  7  8  1  0
  9  8  1  6
  9 10  1  0
  9 16  1  0
 10 11  1  1
 10 12  1  0
 12 13  1  1
 12 14  1  0
 14 15  1  0
 15 16  1  0
 16 17  1  6
 17 18  1  0
 18 19  1  6
 18 20  1  0
 18 24  1  0
 20 21  1  0
 21 22  1  0
 22 23  1  0
 23 24  1  0
 25 26  1  1
 25 27  1  0
 25 28  1  0
M  END
