
     RDKit          3D

 23 25  0  0  0  0  0  0  0  0999 V2000
   -4.6020   -1.6990    1.6770 N   0  0  0  0  0  0  0  0  0  0  0  0
   -4.8390   -0.7730    0.6400 C   0  0  0  0  0  0  0  0  0  0  0  0
   -6.1760   -0.4590    0.3220 C   0  0  0  0  0  0  0  0  0  0  0  0
   -6.4690    0.4320   -0.6750 C   0  0  0  0  0  0  0  0  0  0  0  0
   -5.4210    1.0120   -1.3580 C   0  0  0  0  0  0  0  0  0  0  0  0
   -4.1180    0.6980   -1.0400 C   0  0  0  0  0  0  0  0  0  0  0  0
   -3.8010   -0.2080   -0.0270 C   0  0  0  0  0  0  0  0  0  0  0  0
   -2.3960   -0.4900    0.2530 C   0  0  0  0  0  0  0  0  0  0  0  0
   -1.8120   -1.3230    1.1770 C   0  0  0  0  0  0  0  0  0  0  0  0
   -0.4420   -1.2400    1.0460 C   0  0  0  0  0  0  0  0  0  0  0  0
   -0.2310   -0.3400    0.0240 C   0  0  0  0  0  0  0  0  0  0  0  0
    1.1090    0.0430   -0.4440 C   0  0  0  0  0  0  0  0  0  0  0  0
    2.3100   -0.4150    0.0390 C   0  0  0  0  0  0  0  0  0  0  0  0
    3.3240    0.1720   -0.6510 N   0  0  0  0  0  0  0  0  0  0  0  0
    4.7230   -0.0570   -0.4320 C   0  0  0  0  0  0  0  0  0  0  0  0
    5.2430    0.9240    0.5860 C   0  0  0  0  0  0  0  0  0  0  0  0
    6.7250    0.7190    0.8520 C   0  0  2  0  0  0  0  0  0  0  0  0
    7.3250    1.8820    2.0550 Cl  0  0  0  0  0  0  0  0  0  0  0  0
    7.6710    0.8480   -0.6450 Cl  0  0  0  0  0  0  0  0  0  0  0  0
    2.7600    0.9890   -1.5570 C   0  0  0  0  0  0  0  0  0  0  0  0
    3.4100    1.7080   -2.3860 O   0  0  0  0  0  0  0  0  0  0  0  0
    1.4230    0.9050   -1.4260 N   0  0  0  0  0  0  0  0  0  0  0  0
   -1.3830    0.0730   -0.4100 O   0  0  0  0  0  0  0  0  0  0  0  0
  1  2  1  0
  2  3  2  0
  2  7  1  0
  3  4  1  0
  4  5  2  0
  5  6  1  0
  6  7  2  0
  7  8  1  0
  8  9  2  0
  8 23  1  0
  9 10  1  0
 10 11  2  0
 11 12  1  0
 11 23  1  0
 12 13  2  0
 12 22  1  0
 13 14  1  0
 14 15  1  0
 14 20  1  0
 15 16  1  0
 16 17  1  0
 17 18  1  1
 17 19  1  0
 20 21  2  0
 20 22  1  0
M  END
