
     RDKit          3D

 23 25  0  0  0  0  0  0  0  0999 V2000
   -5.7120   -0.7640    0.6610 C   0  0  0  0  0  0  0  0  0  0  0  0
   -5.2610    0.6540    0.3750 C   0  0  0  0  0  0  0  0  0  0  0  0
   -3.7670    0.7810    0.5880 C   0  0  0  0  0  0  0  0  0  0  0  0
   -3.0220   -0.0980   -0.2680 N   0  0  0  0  0  0  0  0  0  0  0  0
   -3.0520    0.2140   -1.6480 C   0  0  0  0  0  0  0  0  0  0  0  0
   -1.7900    0.8220   -2.2100 C   0  0  0  0  0  0  0  0  0  0  0  0
   -0.6780    0.1580   -1.7100 O   0  0  0  0  0  0  0  0  0  0  0  0
   -0.6750    0.4200   -0.3270 C   0  0  2  0  0  0  0  0  0  0  0  0
    0.6230   -0.0170    0.2370 C   0  0  0  0  0  0  0  0  0  0  0  0
    0.8320    0.1410    1.4720 O   0  0  0  0  0  0  0  0  0  0  0  0
    1.6140   -0.6030   -0.5960 N   0  0  0  0  0  0  0  0  0  0  0  0
    2.8390   -1.0060   -0.0060 C   0  0  0  0  0  0  0  0  0  0  0  0
    3.1620   -2.2180    0.5470 C   0  0  0  0  0  0  0  0  0  0  0  0
    2.0950   -3.6010    0.6590 Cl  0  0  0  0  0  0  0  0  0  0  0  0
    4.4270   -2.1410    0.9780 N   0  0  0  0  0  0  0  0  0  0  0  0
    4.9310   -0.9340    0.7260 C   0  0  0  0  0  0  0  0  0  0  0  0
    6.1610   -0.3960    0.9770 C   0  0  0  0  0  0  0  0  0  0  0  0
    6.4270    0.9190    0.5990 C   0  0  0  0  0  0  0  0  0  0  0  0
    5.4280    1.6630   -0.0300 C   0  0  0  0  0  0  0  0  0  0  0  0
    5.7320    3.3120   -0.5160 Cl  0  0  0  0  0  0  0  0  0  0  0  0
    4.1890    1.0990   -0.2740 C   0  0  0  0  0  0  0  0  0  0  0  0
    3.9470   -0.1930    0.1040 C   0  0  0  0  0  0  0  0  0  0  0  0
   -1.7560   -0.4600    0.2500 C   0  0  0  0  0  0  0  0  0  0  0  0
  1  2  1  0
  2  3  1  0
  3  4  1  0
  4  5  1  0
  4 23  1  0
  5  6  1  0
  6  7  1  0
  7  8  1  0
  8  9  1  1
  8 23  1  0
  9 10  2  0
  9 11  1  0
 11 12  1  0
 12 13  2  0
 12 22  1  0
 13 14  1  0
 13 15  1  0
 15 16  1  0
 16 17  2  0
 16 22  1  0
 17 18  1  0
 18 19  2  0
 19 20  1  0
 19 21  1  0
 21 22  2  0
M  END
