
     RDKit          3D

 22 24  0  0  0  0  0  0  0  0999 V2000
    5.1860    1.2600    1.6370 C   0  0  0  0  0  0  0  0  0  0  0  0
    5.3470    1.0880    0.2660 O   0  0  0  0  0  0  0  0  0  0  0  0
    4.3040    0.7420   -0.6070 C   0  0  0  0  0  0  0  0  0  0  0  0
    3.0250    0.5560   -0.1350 C   0  0  0  0  0  0  0  0  0  0  0  0
    1.9440    0.2210   -0.8930 C   0  0  0  0  0  0  0  0  0  0  0  0
    0.5860    0.0300   -0.4070 C   0  0  0  0  0  0  0  0  0  0  0  0
   -0.4230   -0.2910   -1.2680 N   0  0  0  0  0  0  0  0  0  0  0  0
   -1.6860   -0.4610   -0.8530 C   0  0  0  0  0  0  0  0  0  0  0  0
   -2.7620   -0.7940   -1.8200 C   0  0  0  0  0  0  0  0  0  0  0  0
   -2.0340   -0.3200    0.4750 C   0  0  0  0  0  0  0  0  0  0  0  0
   -3.4050   -0.5140    0.8910 C   0  0  0  0  0  0  0  0  0  0  0  0
   -4.5130    0.2800    0.5870 C   0  0  0  0  0  0  0  0  0  0  0  0
   -5.6110   -0.2620    1.2080 C   0  0  0  0  0  0  0  0  0  0  0  0
   -5.2370   -1.3560    1.8840 N   0  0  0  0  0  0  0  0  0  0  0  0
   -3.9130   -1.5190    1.7010 C   0  0  0  0  0  0  0  0  0  0  0  0
   -1.0140    0.0050    1.3540 C   0  0  0  0  0  0  0  0  0  0  0  0
   -1.3130    0.1350    2.5490 O   0  0  0  0  0  0  0  0  0  0  0  0
    0.2590    0.1680    0.8770 N   0  0  0  0  0  0  0  0  0  0  0  0
    2.1990    0.0620   -2.2660 C   0  0  0  0  0  0  0  0  0  0  0  0
    3.4730    0.2450   -2.7590 C   0  0  0  0  0  0  0  0  0  0  0  0
    4.5320    0.5830   -1.9530 C   0  0  0  0  0  0  0  0  0  0  0  0
    6.1180    0.8060   -2.6530 Cl  0  0  0  0  0  0  0  0  0  0  0  0
  1  2  1  0
  2  3  1  0
  3  4  2  0
  3 21  1  0
  4  5  1  0
  5  6  1  0
  5 19  2  0
  6  7  2  0
  6 18  1  0
  7  8  1  0
  8  9  1  0
  8 10  2  0
 10 11  1  0
 10 16  1  0
 11 12  1  0
 11 15  2  0
 12 13  2  0
 13 14  1  0
 14 15  1  0
 16 17  2  0
 16 18  1  0
 19 20  1  0
 20 21  2  0
 21 22  1  0
M  END
