
     RDKit          3D

 23 24  0  0  0  0  0  0  0  0999 V2000
   -5.2790   -0.0730   -2.9480 C   0  0  0  0  0  0  0  0  0  0  0  0
   -4.3890   -0.2220   -1.7700 C   0  0  0  0  0  0  0  0  0  0  0  0
   -3.1050   -0.0220   -1.9160 C   0  0  0  0  0  0  0  0  0  0  0  0
   -2.1480   -0.1370   -0.8460 C   0  0  0  0  0  0  0  0  0  0  0  0
   -0.7420    0.1070   -1.1210 C   0  0  0  0  0  0  0  0  0  0  0  0
   -0.3600    0.4220   -2.2990 O   0  0  0  0  0  0  0  0  0  0  0  0
    0.3020    0.0290   -0.1650 N   0  0  0  0  0  0  0  0  0  0  0  0
    1.7000    0.2960   -0.5450 C   0  0  0  0  0  0  0  0  0  0  0  0
    2.5400    0.1330    0.6690 C   0  0  0  0  0  0  0  0  0  0  0  0
    3.9190    0.3640    0.4370 N   0  0  0  0  0  0  0  0  0  0  0  0
    4.7850    0.2310    1.5350 C   0  0  0  0  0  0  0  0  0  0  0  0
    6.1570   -0.1730    0.9750 C   0  0  0  0  0  0  0  0  0  0  0  0
    6.5500    0.8800    0.1500 O   0  0  0  0  0  0  0  0  0  0  0  0
    5.7510    0.9530   -0.9650 C   0  0  0  0  0  0  0  0  0  0  0  0
    4.2840    1.2210   -0.6050 C   0  0  0  0  0  0  0  0  0  0  0  0
   -2.5770   -0.4690    0.3850 C   0  0  0  0  0  0  0  0  0  0  0  0
   -3.9660   -0.7240    0.7160 C   0  0  0  0  0  0  0  0  0  0  0  0
   -4.4550   -1.0450    1.8610 C   0  0  0  0  0  0  0  0  0  0  0  0
   -3.8130   -1.2500    3.1460 C   0  0  0  0  0  0  0  0  0  0  0  0
   -2.0910   -1.0560    3.2830 Cl  0  0  0  0  0  0  0  0  0  0  0  0
   -4.9180   -0.5920   -0.4270 C   0  0  0  0  0  0  0  0  0  0  0  0
   -6.1370   -0.7580   -0.3940 N   0  0  0  0  0  0  0  0  0  0  0  0
   -7.4330   -1.1410    0.5590 Cl  0  0  0  0  0  0  0  0  0  0  0  0
  1  2  1  0
  2  3  2  0
  2 21  1  0
  3  4  1  0
  4  5  1  0
  4 16  2  0
  5  6  2  0
  5  7  1  0
  7  8  1  0
  8  9  1  0
  9 10  1  0
 10 11  1  0
 10 15  1  0
 11 12  1  0
 12 13  1  0
 13 14  1  0
 14 15  1  0
 16 17  1  0
 17 18  2  3
 17 21  1  0
 18 19  1  0
 19 20  1  0
 21 22  2  3
 22 23  1  0
M  END
