
     RDKit          3D

 26 27  0  0  0  0  0  0  0  0999 V2000
   -5.2070    0.3740    0.8930 C   0  0  0  0  0  0  0  0  0  0  0  0
   -4.0400   -0.1950    0.1090 C   0  0  1  0  0  0  0  0  0  0  0  0
   -4.5110   -1.0140   -1.0290 C   0  0  0  0  0  0  0  0  0  0  0  0
   -5.3440   -0.4040   -1.9910 N   0  0  0  0  0  0  0  0  0  0  0  0
   -4.2150   -2.2250   -1.1950 O   0  0  0  0  0  0  0  0  0  0  0  0
   -3.2310    0.9490   -0.4690 C   0  0  0  0  0  0  0  0  0  0  0  0
   -2.1260    0.3270   -1.2950 C   0  0  0  0  0  0  0  0  0  0  0  0
   -1.2480   -0.5420   -0.4290 C   0  0  1  0  0  0  0  0  0  0  0  0
   -0.3150    0.2400    0.3280 N   0  0  0  0  0  0  0  0  0  0  0  0
    1.0990    0.1520    0.1580 C   0  0  0  0  0  0  0  0  0  0  0  0
    1.4920   -0.6670   -0.7110 O   0  0  0  0  0  0  0  0  0  0  0  0
    2.0140    0.9020    0.8820 N   0  0  0  0  0  0  0  0  0  0  0  0
    3.4820    0.7530    0.6740 C   0  0  0  0  0  0  0  0  0  0  0  0
    3.9890    1.8210    0.1990 C   0  0  0  0  0  0  0  0  0  0  0  0
    5.2380    2.3070   -0.1970 C   0  0  0  0  0  0  0  0  0  0  0  0
    5.2970    3.6920   -0.7160 N   0  0  0  0  0  0  0  0  0  0  0  0
    6.3390    1.7610   -0.1870 O   0  0  0  0  0  0  0  0  0  0  0  0
    4.0480   -0.5730    1.0200 C   0  0  0  0  0  0  0  0  0  0  0  0
    3.2090   -1.4870    1.5420 C   0  0  0  0  0  0  0  0  0  0  0  0
    4.1580   -2.9510    1.8460 S   0  0  0  0  0  0  0  0  0  0  0  0
    3.6440   -4.0200    0.8810 O   0  0  0  0  0  0  0  0  0  0  0  0
    5.6710   -2.3200    1.2480 C   0  0  0  0  0  0  0  0  0  0  0  0
    6.7590   -2.9060    1.1880 O   0  0  0  0  0  0  0  0  0  0  0  0
    5.3540   -0.9990    0.8580 N   0  0  0  0  0  0  0  0  0  0  0  0
   -2.0210   -1.4660    0.4580 C   0  0  0  0  0  0  0  0  0  0  0  0
   -3.2050   -0.9080    1.0210 N   0  0  0  0  0  0  0  0  0  0  0  0
  2  1  1  1
  2  3  1  0
  2  6  1  0
  2 26  1  0
  3  4  1  0
  3  5  2  0
  6  7  1  0
  7  8  1  0
  8  9  1  1
  8 25  1  0
  9 10  1  0
 10 11  2  0
 10 12  1  0
 12 13  1  0
 13 14  2  3
 13 18  1  0
 14 15  1  0
 15 16  1  0
 15 17  2  0
 18 19  2  0
 18 24  1  0
 20 19  1  6
 20 21  2  0
 20 22  1  0
 22 23  2  0
 22 24  1  0
 25 26  1  0
M  CHG  1  26   1
M  END
