
     RDKit          3D

 21 24  0  0  0  0  0  0  0  0999 V2000
    3.4730   -2.1400    1.0040 C   0  0  0  0  0  0  0  0  0  0  0  0
    1.9870   -1.8140    0.7870 C   0  0  2  0  0  0  0  0  0  0  0  0
    1.4980   -2.7910   -0.0350 O   0  0  0  0  0  0  0  0  0  0  0  0
    0.9940   -2.3520   -1.2510 C   0  0  0  0  0  0  0  0  0  0  0  0
   -0.1050   -1.3260   -0.8700 C   0  0  1  0  0  0  0  0  0  0  0  0
   -0.9950   -2.0530    0.0330 C   0  0  0  0  0  0  0  0  0  0  0  0
   -2.1890   -1.2270    0.3590 C   0  0  0  0  0  0  0  0  0  0  0  0
   -3.4490   -1.5800    0.1460 C   0  0  0  0  0  0  0  0  0  0  0  0
   -4.2910   -0.4550    0.6230 C   0  0  0  0  0  0  0  0  0  0  0  0
   -3.3650    0.5690    1.1290 C   0  0  0  0  0  0  0  0  0  0  0  0
   -2.1540    0.0950    0.9640 C   0  0  0  0  0  0  0  0  0  0  0  0
   -0.8810    0.8020    1.3370 C   0  0  0  0  0  0  0  0  0  0  0  0
   -0.1280    1.0410    0.0530 C   0  0  2  0  0  0  0  0  0  0  0  0
    0.7850    2.1840    0.3830 C   0  0  0  0  0  0  0  0  0  0  0  0
    0.0210    3.4520    0.0620 C   0  0  0  0  0  0  0  0  0  0  0  0
   -1.2680    3.0420   -0.6040 C   0  0  0  0  0  0  0  0  0  0  0  0
   -1.1120    1.5780   -0.9550 C   0  0  0  0  0  0  0  0  0  0  0  0
    0.6200   -0.1140   -0.4910 C   0  0  2  0  0  0  0  0  0  0  0  0
    1.0960    0.3430   -1.7610 O   0  0  0  0  0  0  0  0  0  0  0  0
    1.9020   -0.4190    0.2770 C   0  0  2  0  0  0  0  0  0  0  0  0
    3.1560   -0.0490   -0.4550 C   0  0  0  0  0  0  0  0  0  0  0  0
  2  1  1  6
  2  3  1  0
  2 20  1  0
  3  4  1  0
  5  4  1  1
  5  6  1  0
  5 18  1  0
  6  7  1  0
  7  8  2  0
  7 11  1  0
  8  9  1  0
  9 10  1  0
 10 11  2  0
 11 12  1  0
 13 12  1  1
 13 14  1  0
 13 17  1  0
 13 18  1  0
 14 15  1  0
 15 16  1  0
 16 17  1  0
 18 19  1  6
 18 20  1  0
 20 21  1  6
M  END
