
     RDKit          3D

 26 27  0  0  0  0  0  0  0  0999 V2000
   -7.0690    1.3300    0.2090 C   0  0  0  0  0  0  0  0  0  0  0  0
   -6.9120    0.0810   -0.3320 O   0  0  0  0  0  0  0  0  0  0  0  0
   -5.8910    0.0060   -1.2320 C   0  0  0  0  0  0  0  0  0  0  0  0
   -4.5280    0.1640   -0.7280 C   0  0  0  0  0  0  0  0  0  0  0  0
   -3.5620    0.3430   -1.5580 O   0  0  0  0  0  0  0  0  0  0  0  0
   -4.1270    0.1370    0.6300 N   0  0  0  0  0  0  0  0  0  0  0  0
   -2.7470    0.3130    1.0030 C   0  0  0  0  0  0  0  0  0  0  0  0
   -2.2270    0.3130    2.2010 C   0  0  0  0  0  0  0  0  0  0  0  0
   -3.0820    0.1150    3.3690 N   0  0  0  0  0  0  0  0  0  0  0  0
   -0.8030    0.5210    2.3300 C   0  0  0  0  0  0  0  0  0  0  0  0
   -0.0690    0.1520    1.0870 C   0  0  2  0  0  0  0  0  0  0  0  0
    0.1850   -1.2460    0.9480 N   0  0  0  0  0  0  0  0  0  0  0  0
    1.1830   -1.6750    0.0350 C   0  0  0  0  0  0  0  0  0  0  0  0
    1.2290   -2.9100   -0.2420 O   0  0  0  0  0  0  0  0  0  0  0  0
    2.1640   -0.7630   -0.6050 C   0  0  2  0  0  0  0  0  0  0  0  0
    1.6480   -0.2710   -1.9560 C   0  0  0  0  0  0  0  0  0  0  0  0
    3.4880   -1.4580   -0.8450 C   0  0  0  0  0  0  0  0  0  0  0  0
    4.4540   -0.5300   -1.4850 C   0  0  0  0  0  0  0  0  0  0  0  0
    4.1030    0.6480   -1.7450 O   0  0  0  0  0  0  0  0  0  0  0  0
    5.7610   -0.9720   -1.7990 N   0  0  0  0  0  0  0  0  0  0  0  0
    6.7010   -0.0440   -2.4290 C   0  0  0  0  0  0  0  0  0  0  0  0
    6.9090    1.1060   -1.5570 N   0  0  0  0  0  0  0  0  0  0  0  0
    2.3190    0.3910    0.2580 N   0  0  0  0  0  0  0  0  0  0  0  0
    1.1450    0.9300    0.8480 C   0  0  0  0  0  0  0  0  0  0  0  0
    1.1690    2.1550    1.1810 O   0  0  0  0  0  0  0  0  0  0  0  0
   -1.3810    0.5700   -0.1380 S   0  0  0  0  0  0  0  0  0  0  0  0
  1  2  1  0
  2  3  1  0
  3  4  1  0
  4  5  2  0
  4  6  1  0
  6  7  1  0
  7  8  2  0
  7 26  1  0
  8  9  1  0
  8 10  1  0
 11 10  1  1
 11 12  1  0
 11 24  1  0
 11 26  1  0
 12 13  1  0
 13 14  2  0
 13 15  1  0
 15 16  1  6
 15 17  1  0
 15 23  1  0
 17 18  1  0
 18 19  2  0
 18 20  1  0
 20 21  1  0
 21 22  1  0
 23 24  1  0
 24 25  2  0
M  CHG  1   9   1
M  END
