
     RDKit          3D

 26 27  0  0  0  0  0  0  0  0999 V2000
   -5.5950   -1.3960    1.2860 N   0  0  0  0  0  0  0  0  0  0  0  0
   -4.3360   -0.8380    1.4520 C   0  0  0  0  0  0  0  0  0  0  0  0
   -3.7830   -0.9660    2.5860 O   0  0  0  0  0  0  0  0  0  0  0  0
   -3.5780   -0.1000    0.4120 C   0  0  2  0  0  0  0  0  0  0  0  0
   -2.3290    0.2820    0.8910 N   0  0  0  0  0  0  0  0  0  0  0  0
   -1.1080   -0.4390    0.3880 C   0  0  0  0  0  0  0  0  0  0  0  0
   -1.3060   -1.3300   -0.4010 O   0  0  0  0  0  0  0  0  0  0  0  0
    0.0190    0.1420    1.0030 N   0  0  0  0  0  0  0  0  0  0  0  0
    1.1880   -0.9020    0.3060 C   0  0  0  0  0  0  0  0  0  0  0  0
    0.7560   -1.7640   -0.3570 O   0  0  0  0  0  0  0  0  0  0  0  0
    2.4610   -0.5620    0.6480 N   0  0  0  0  0  0  0  0  0  0  0  0
    2.8040    0.6410    1.3150 C   0  0  0  0  0  0  0  0  0  0  0  0
    4.1720    1.1170    0.8150 C   0  0  0  0  0  0  0  0  0  0  0  0
    5.1700    0.2640    1.1480 O   0  0  0  0  0  0  0  0  0  0  0  0
    5.6330   -0.4760    0.0540 C   0  0  2  0  0  0  0  0  0  0  0  0
    6.3440    0.3280   -0.9790 C   0  0  0  0  0  0  0  0  0  0  0  0
    7.5110    1.0180   -0.4590 N   0  0  0  0  0  0  0  0  0  0  0  0
    4.4580   -1.1880   -0.6210 C   0  0  0  0  0  0  0  0  0  0  0  0
    3.4250   -1.6330    0.3270 C   0  0  0  0  0  0  0  0  0  0  0  0
   -4.3140    1.1330   -0.0940 C   0  0  2  0  0  0  0  0  0  0  0  0
   -4.5660    2.0740    0.9780 N   0  0  0  0  0  0  0  0  0  0  0  0
   -5.5070    0.7090   -0.8060 C   0  0  0  0  0  0  0  0  0  0  0  0
   -6.7690    0.9500   -0.5390 C   0  0  0  0  0  0  0  0  0  0  0  0
   -7.6860    0.4300   -1.3750 O   0  0  0  0  0  0  0  0  0  0  0  0
   -7.3250   -0.7530   -2.0580 C   0  0  0  0  0  0  0  0  0  0  0  0
   -5.5340   -0.3190   -2.2700 S   0  0  0  0  0  0  0  0  0  0  0  0
  1  2  1  0
  2  3  2  0
  2  4  1  0
  4  5  1  1
  4 20  1  0
  5  6  1  0
  6  7  2  0
  6  8  1  0
  8  9  1  0
  9 10  2  0
  9 11  1  0
 11 12  1  0
 11 19  1  0
 12 13  1  0
 13 14  1  0
 14 15  1  0
 15 16  1  6
 15 18  1  0
 16 17  1  0
 18 19  1  0
 20 21  1  1
 20 22  1  0
 22 23  2  0
 22 26  1  0
 23 24  1  0
 24 25  1  0
 25 26  1  0
M  CHG  1  17   1
M  END
