
     RDKit          3D

 24 25  0  0  0  0  0  0  0  0999 V2000
   -7.0880   -1.0730    1.7500 C   0  0  0  0  0  0  0  0  0  0  0  0
   -6.0630   -0.8620    0.6860 C   0  0  0  0  0  0  0  0  0  0  0  0
   -6.4710   -0.8230   -0.6330 C   0  0  0  0  0  0  0  0  0  0  0  0
   -5.5220   -0.6290   -1.5970 C   0  0  0  0  0  0  0  0  0  0  0  0
   -5.9130   -0.5850   -2.9610 N   0  0  0  0  0  0  0  0  0  0  0  0
   -4.1800   -0.4780   -1.2200 C   0  0  0  0  0  0  0  0  0  0  0  0
   -3.7480   -0.5120    0.0760 C   0  0  0  0  0  0  0  0  0  0  0  0
   -2.4030   -0.3640    0.4910 N   0  0  0  0  0  0  0  0  0  0  0  0
   -1.2880   -0.1500   -0.3310 C   0  0  0  0  0  0  0  0  0  0  0  0
   -1.4140   -0.0710   -1.5580 O   0  0  0  0  0  0  0  0  0  0  0  0
    0.0710   -0.0140    0.2580 C   0  0  0  0  0  0  0  0  0  0  0  0
    1.0870    0.2000   -0.7070 N   0  0  0  0  0  0  0  0  0  0  0  0
    1.0810    1.4420   -1.4000 C   0  0  0  0  0  0  0  0  0  0  0  0
    1.7770    2.5540   -0.6500 C   0  0  0  0  0  0  0  0  0  0  0  0
    2.7070    2.0130    0.3220 N   0  0  0  0  0  0  0  0  0  0  0  0
    3.3820    0.9080   -0.3070 C   0  0  1  0  0  0  0  0  0  0  0  0
    4.6250    0.4760    0.4100 C   0  0  2  0  0  0  0  0  0  0  0  0
    5.5970    1.5360    0.4920 N   0  0  0  0  0  0  0  0  0  0  0  0
    5.1470   -0.7500   -0.2960 C   0  0  0  0  0  0  0  0  0  0  0  0
    6.4050   -1.3060    0.3100 C   0  0  0  0  0  0  0  0  0  0  0  0
    6.7460   -2.4380   -0.4670 O   0  0  0  0  0  0  0  0  0  0  0  0
    2.4020   -0.2430   -0.3790 C   0  0  0  0  0  0  0  0  0  0  0  0
   -4.7480   -0.7130    1.0470 C   0  0  0  0  0  0  0  0  0  0  0  0
   -4.3640   -0.7650    2.4990 C   0  0  0  0  0  0  0  0  0  0  0  0
  1  2  1  0
  2  3  2  0
  2 23  1  0
  3  4  1  0
  4  5  1  0
  4  6  2  0
  6  7  1  0
  7  8  1  0
  7 23  2  0
  8  9  1  0
  9 10  2  0
  9 11  1  0
 11 12  1  0
 12 13  1  0
 12 22  1  0
 13 14  1  0
 14 15  1  0
 15 16  1  0
 16 17  1  0
 16 22  1  1
 17 18  1  6
 17 19  1  0
 19 20  1  0
 20 21  1  0
 23 24  1  0
M  CHG  2  15   1  18   1
M  END
