
     RDKit          3D

 24 25  0  0  0  0  0  0  0  0999 V2000
   -3.3100    2.8530   -0.5630 C   0  0  0  0  0  0  0  0  0  0  0  0
   -3.4580    1.8180    0.4460 N   0  0  1  0  0  0  0  0  0  0  0  0
   -4.8220    1.7410    0.8590 C   0  0  0  0  0  0  0  0  0  0  0  0
   -2.9500    0.5440   -0.0780 C   0  0  2  0  0  0  0  0  0  0  0  0
   -3.4790   -0.6230    0.7180 C   0  0  0  0  0  0  0  0  0  0  0  0
   -4.2150   -1.5480   -0.1890 C   0  0  0  0  0  0  0  0  0  0  0  0
   -3.5310   -2.8550   -0.4370 C   0  0  0  0  0  0  0  0  0  0  0  0
   -2.0260   -2.7700   -0.3800 C   0  0  0  0  0  0  0  0  0  0  0  0
   -1.5000   -1.6010   -1.1970 C   0  0  0  0  0  0  0  0  0  0  0  0
   -0.7240   -0.6180   -0.3790 C   0  0  1  0  0  0  0  0  0  0  0  0
    0.4590   -0.1520   -1.1200 N   0  0  0  0  0  0  0  0  0  0  0  0
    1.7780   -0.4160   -0.6790 C   0  0  0  0  0  0  0  0  0  0  0  0
    1.9420   -1.0700    0.3820 O   0  0  0  0  0  0  0  0  0  0  0  0
    2.9180    0.0900   -1.4860 C   0  0  0  0  0  0  0  0  0  0  0  0
    4.2380   -0.2510   -0.9140 C   0  0  0  0  0  0  0  0  0  0  0  0
    5.0180   -1.3120   -1.3900 C   0  0  0  0  0  0  0  0  0  0  0  0
    6.1440   -1.3900   -0.6700 N   0  0  0  0  0  0  0  0  0  0  0  0
    6.1330   -0.4340    0.2480 C   0  0  0  0  0  0  0  0  0  0  0  0
    7.1860   -0.2390    1.1800 N   0  0  0  0  0  0  0  0  0  0  0  0
    4.9570    0.2930    0.1200 C   0  0  0  0  0  0  0  0  0  0  0  0
    4.6260    1.4090    0.9520 C   0  0  0  0  0  0  0  0  0  0  0  0
    3.4640    2.2100    0.8860 N   0  0  0  0  0  0  0  0  0  0  0  0
    5.4560    1.7480    1.8700 O   0  0  0  0  0  0  0  0  0  0  0  0
   -1.4680    0.5930    0.0400 C   0  0  0  0  0  0  0  0  0  0  0  0
  2  1  1  6
  2  3  1  0
  2  4  1  0
  4  5  1  1
  4 24  1  0
  5  6  1  0
  6  7  1  0
  7  8  1  0
  8  9  1  0
  9 10  1  0
 10 11  1  6
 10 24  1  0
 11 12  1  0
 12 13  2  0
 12 14  1  0
 14 15  1  0
 15 16  2  0
 15 20  1  0
 16 17  1  0
 17 18  1  0
 18 19  1  0
 18 20  2  0
 20 21  1  0
 21 22  1  0
 21 23  2  0
M  CHG  2   2   1  22   1
M  END
