
     RDKit          3D

 24 25  0  0  0  0  0  0  0  0999 V2000
    4.7500   -3.8920    0.8320 C   0  0  0  0  0  0  0  0  0  0  0  0
    4.1090   -2.5850    0.4520 C   0  0  0  0  0  0  0  0  0  0  0  0
    4.7760   -1.6250   -0.2010 N   0  0  0  0  0  0  0  0  0  0  0  0
    4.1690   -0.4620   -0.5270 C   0  0  0  0  0  0  0  0  0  0  0  0
    4.9130    0.6160   -1.2590 C   0  0  0  0  0  0  0  0  0  0  0  0
    5.5700    1.5380   -0.2410 C   0  0  0  0  0  0  0  0  0  0  0  0
    6.3030    2.6020   -0.9960 C   0  0  0  0  0  0  0  0  0  0  0  0
    6.9060    3.4480   -0.0670 O   0  0  0  0  0  0  0  0  0  0  0  0
    2.8850   -0.2400   -0.2060 N   0  0  0  0  0  0  0  0  0  0  0  0
    2.2040   -1.1990    0.4510 C   0  0  0  0  0  0  0  0  0  0  0  0
    0.7760   -1.0120    0.8370 C   0  0  1  0  0  0  0  0  0  0  0  0
    0.7470   -0.1400    2.0600 C   0  0  0  0  0  0  0  0  0  0  0  0
    0.0670   -0.4490   -0.2810 N   0  0  0  0  0  0  0  0  0  0  0  0
   -0.9640    0.4610    0.0630 C   0  0  0  0  0  0  0  0  0  0  0  0
   -2.3200   -0.2110    0.0860 C   0  0  2  0  0  0  0  0  0  0  0  0
   -2.6730   -0.7960   -1.2570 C   0  0  0  0  0  0  0  0  0  0  0  0
   -3.9360   -0.1890   -1.8270 C   0  0  0  0  0  0  0  0  0  0  0  0
   -5.0940   -0.2080   -0.8960 C   0  0  0  0  0  0  0  0  0  0  0  0
   -4.6960    0.0490    0.5180 C   0  0  2  0  0  0  0  0  0  0  0  0
   -4.4770   -1.2030    1.1370 O   0  0  0  0  0  0  0  0  0  0  0  0
   -5.7760    0.7290    1.3250 C   0  0  0  0  0  0  0  0  0  0  0  0
   -6.1320    2.0230    0.8390 N   0  0  0  0  0  0  0  0  0  0  0  0
   -3.3960    0.7810    0.5480 C   0  0  0  0  0  0  0  0  0  0  0  0
    2.8280   -2.3440    0.7640 N   0  0  0  0  0  0  0  0  0  0  0  0
  1  2  1  0
  2  3  2  0
  2 24  1  0
  3  4  1  0
  4  5  1  0
  4  9  2  0
  5  6  1  0
  6  7  1  0
  7  8  1  0
  9 10  1  0
 10 11  1  0
 10 24  2  0
 11 12  1  1
 11 13  1  0
 13 14  1  0
 15 14  1  6
 15 16  1  0
 15 23  1  0
 16 17  1  0
 17 18  1  0
 18 19  1  0
 19 20  1  1
 19 21  1  0
 19 23  1  0
 21 22  1  0
M  CHG  2  13   1  22   1
M  END
