
     RDKit          3D

 24 26  0  0  0  0  0  0  0  0999 V2000
    1.5220   -0.6910    3.4380 N   0  0  0  0  0  0  0  0  0  0  0  0
    1.4550   -1.0900    2.0270 C   0  0  0  0  0  0  0  0  0  0  0  0
    2.5650   -1.7210    1.4530 N   0  0  0  0  0  0  0  0  0  0  0  0
    2.9980   -1.5400    0.1090 C   0  0  0  0  0  0  0  0  0  0  0  0
    3.3350   -0.1100   -0.1240 C   0  0  0  0  0  0  0  0  0  0  0  0
    3.2890    0.9570    0.7440 C   0  0  0  0  0  0  0  0  0  0  0  0
    3.7110    2.0860    0.0350 C   0  0  0  0  0  0  0  0  0  0  0  0
    3.9920    1.7080   -1.1850 O   0  0  0  0  0  0  0  0  0  0  0  0
    3.7880    0.4420   -1.3210 C   0  0  0  0  0  0  0  0  0  0  0  0
    3.9900   -0.3620   -2.5550 C   0  0  0  0  0  0  0  0  0  0  0  0
    4.4480    0.4750   -3.5820 O   0  0  0  0  0  0  0  0  0  0  0  0
    0.3900   -0.8780    1.3760 N   0  0  0  0  0  0  0  0  0  0  0  0
    0.0030   -1.1270    0.0530 C   0  0  0  0  0  0  0  0  0  0  0  0
   -1.4020   -0.6170   -0.3240 C   0  0  2  0  0  0  0  0  0  0  0  0
   -1.5830    0.8330   -0.2590 C   0  0  2  0  0  0  0  0  0  0  0  0
   -1.3210    1.5700    1.0160 C   0  0  0  0  0  0  0  0  0  0  0  0
   -1.7690    3.0290    0.7000 C   0  0  0  0  0  0  0  0  0  0  0  0
   -3.1990    3.1460    0.8060 N   0  0  0  0  0  0  0  0  0  0  0  0
   -3.7930    1.8860    0.3600 C   0  0  0  0  0  0  0  0  0  0  0  0
   -2.9350    1.3130   -0.7490 C   0  0  0  0  0  0  0  0  0  0  0  0
   -2.4510   -1.4680    0.3140 C   0  0  0  0  0  0  0  0  0  0  0  0
   -3.1070   -2.2880   -0.7750 C   0  0  0  0  0  0  0  0  0  0  0  0
   -2.0050   -2.3150   -1.8130 C   0  0  0  0  0  0  0  0  0  0  0  0
   -1.4870   -0.9890   -1.7550 N   0  0  0  0  0  0  0  0  0  0  0  0
  1  2  1  0
  2  3  1  0
  2 12  2  3
  3  4  1  0
  4  5  1  0
  5  6  1  0
  5  9  2  0
  6  7  2  0
  7  8  1  0
  8  9  1  0
  9 10  1  0
 10 11  1  0
 12 13  1  0
 14 13  1  1
 14 15  1  0
 14 21  1  0
 14 24  1  0
 15 16  1  1
 15 20  1  0
 16 17  1  0
 17 18  1  0
 18 19  1  0
 19 20  1  0
 21 22  1  0
 22 23  1  0
 23 24  1  0
M  CHG  2  12   1  24   1
M  END
