
     RDKit          3D

 24 25  0  0  0  0  0  0  0  0999 V2000
   -6.1450    0.2740    0.5210 C   0  0  0  0  0  0  0  0  0  0  0  0
   -5.6350    1.5560    0.7760 O   0  0  0  0  0  0  0  0  0  0  0  0
   -4.3010    1.8540    0.6430 C   0  0  0  0  0  0  0  0  0  0  0  0
   -3.4320    0.8350    0.2370 C   0  0  0  0  0  0  0  0  0  0  0  0
   -2.0740    1.1130    0.0950 C   0  0  0  0  0  0  0  0  0  0  0  0
   -1.1300    0.1070   -0.3520 C   0  0  0  0  0  0  0  0  0  0  0  0
   -1.4610   -1.0920   -0.7640 C   0  0  0  0  0  0  0  0  0  0  0  0
   -0.5270   -2.1360   -1.2260 C   0  0  1  0  0  0  0  0  0  0  0  0
   -1.2480   -3.4540   -1.4720 C   0  0  0  0  0  0  0  0  0  0  0  0
    0.1200   -1.7700   -2.4750 N   0  0  0  0  0  0  0  0  0  0  0  0
    0.3400    0.4360   -0.3230 C   0  0  0  0  0  0  0  0  0  0  0  0
    0.8240    0.7580    0.9820 N   0  0  0  0  0  0  0  0  0  0  0  0
    1.6000   -0.3590    1.4990 C   0  0  0  0  0  0  0  0  0  0  0  0
    2.8590   -0.4550    0.7470 C   0  0  0  0  0  0  0  0  0  0  0  0
    3.2900    0.3720   -0.1620 N   0  0  0  0  0  0  0  0  0  0  0  0
    4.5390   -0.0640   -0.6500 C   0  0  0  0  0  0  0  0  0  0  0  0
    5.1700    0.4320   -1.6470 N   0  0  0  0  0  0  0  0  0  0  0  0
    5.0010   -1.1960    0.1840 C   0  0  1  0  0  0  0  0  0  0  0  0
    6.0750   -0.6280    1.1190 C   0  0  0  0  0  0  0  0  0  0  0  0
    3.8080   -1.5040    0.9390 N   0  0  0  0  0  0  0  0  0  0  0  0
   -1.6360    2.3910    0.3600 C   0  0  0  0  0  0  0  0  0  0  0  0
   -2.5030    3.4130    0.7660 C   0  0  0  0  0  0  0  0  0  0  0  0
   -3.8370    3.1240    0.9020 C   0  0  0  0  0  0  0  0  0  0  0  0
   -4.7050    4.1180    1.3010 O   0  0  0  0  0  0  0  0  0  0  0  0
  1  2  1  0
  2  3  1  0
  3  4  2  0
  3 23  1  0
  4  5  1  0
  5  6  1  0
  5 21  2  0
  6  7  2  3
  6 11  1  0
  7  8  1  0
  8  9  1  6
  8 10  1  0
 11 12  1  0
 12 13  1  0
 13 14  1  0
 14 15  2  0
 14 20  1  0
 15 16  1  0
 16 17  2  0
 16 18  1  0
 18 19  1  1
 18 20  1  0
 21 22  1  0
 22 23  2  0
 23 24  1  0
M  CHG  2  12   1  15   1
M  END
