
     RDKit          3D

 24 25  0  0  0  0  0  0  0  0999 V2000
   -5.2490    3.4910   -2.3240 N   0  0  0  0  0  0  0  0  0  0  0  0
   -5.3840    3.1310   -1.0710 C   0  0  0  0  0  0  0  0  0  0  0  0
   -5.5250    2.7410    0.2020 C   0  0  0  0  0  0  0  0  0  0  0  0
   -5.0690    1.2500    0.4110 C   0  0  0  0  0  0  0  0  0  0  0  0
   -3.5800    1.2980    0.1040 C   0  0  0  0  0  0  0  0  0  0  0  0
   -3.0090    0.0890    0.0410 O   0  0  0  0  0  0  0  0  0  0  0  0
   -3.1380   -0.7820    1.0600 C   0  0  1  0  0  0  0  0  0  0  0  0
   -4.1760   -1.8420    0.4800 C   0  0  0  0  0  0  0  0  0  0  0  0
   -3.4150   -3.1400    0.2950 C   0  0  0  0  0  0  0  0  0  0  0  0
   -2.0030   -2.6630    0.3030 C   0  0  0  0  0  0  0  0  0  0  0  0
   -1.9720   -1.6270    1.3750 C   0  0  1  0  0  0  0  0  0  0  0  0
   -0.7660   -0.9360    1.5880 N   0  0  0  0  0  0  0  0  0  0  0  0
   -0.1810   -0.2000    0.6080 C   0  0  0  0  0  0  0  0  0  0  0  0
    1.1500   -0.6910    0.0990 C   0  0  0  0  0  0  0  0  0  0  0  0
    2.3020   -0.1170   -0.0030 C   0  0  0  0  0  0  0  0  0  0  0  0
    2.5670    1.2390    0.3930 N   0  0  0  0  0  0  0  0  0  0  0  0
    3.3780   -0.9880   -0.5310 C   0  0  0  0  0  0  0  0  0  0  0  0
    4.5090   -0.8650   -0.9970 C   0  0  0  0  0  0  0  0  0  0  0  0
    5.5190   -0.1540   -1.3770 O   0  0  0  0  0  0  0  0  0  0  0  0
    5.9480    1.0720   -1.7530 C   0  0  0  0  0  0  0  0  0  0  0  0
    5.8180    2.1100   -0.6980 C   0  0  0  0  0  0  0  0  0  0  0  0
    6.6680    1.6530    0.4120 N   0  0  0  0  0  0  0  0  0  0  0  0
    2.5320   -2.2580   -0.7040 N   0  0  0  0  0  0  0  0  0  0  0  0
    1.3740   -2.0490   -0.3640 C   0  0  0  0  0  0  0  0  0  0  0  0
  1  2  3  0
  2  3  1  0
  3  4  1  0
  4  5  1  0
  5  6  1  0
  7  6  1  6
  7  8  1  0
  7 11  1  0
  8  9  1  0
  9 10  1  0
 10 11  1  0
 11 12  1  6
 12 13  1  0
 13 14  1  0
 14 15  2  0
 14 24  1  0
 15 16  1  0
 15 17  1  0
 17 18  2  3
 17 23  1  0
 18 19  1  0
 19 20  1  0
 20 21  1  0
 21 22  1  0
 23 24  2  0
M  CHG  2  22   1  23   1
M  END
