
     RDKit          3D

 24 25  0  0  0  0  0  0  0  0999 V2000
    4.9060    2.2010    1.4090 C   0  0  0  0  0  0  0  0  0  0  0  0
    5.5560    1.0090    0.9450 N   0  0  0  0  0  0  0  0  0  0  0  0
    5.1420    0.0760    0.2100 C   0  0  0  0  0  0  0  0  0  0  0  0
    6.1070   -0.9890   -0.0490 N   0  0  0  0  0  0  0  0  0  0  0  0
    3.8540   -0.1130   -0.4050 C   0  0  0  0  0  0  0  0  0  0  0  0
    2.8520    0.9720   -0.4210 C   0  0  0  0  0  0  0  0  0  0  0  0
    1.5530    0.4950   -1.1460 C   0  0  1  0  0  0  0  0  0  0  0  0
    2.0030    0.1400   -2.5380 C   0  0  0  0  0  0  0  0  0  0  0  0
    1.0400   -0.6560   -0.3680 C   0  0  0  0  0  0  0  0  0  0  0  0
   -0.3630   -0.9560   -0.5160 N   0  0  0  0  0  0  0  0  0  0  0  0
   -1.2080    0.1510   -0.7620 C   0  0  1  0  0  0  0  0  0  0  0  0
   -1.3990    0.3620   -2.2710 C   0  0  0  0  0  0  0  0  0  0  0  0
   -2.5780    0.0760   -0.1950 C   0  0  0  0  0  0  0  0  0  0  0  0
   -3.2760    1.1080   -0.3700 O   0  0  0  0  0  0  0  0  0  0  0  0
   -3.1410   -0.9970    0.4880 N   0  0  0  0  0  0  0  0  0  0  0  0
   -4.4520   -1.1040    1.0470 C   0  0  0  0  0  0  0  0  0  0  0  0
   -5.3930   -0.1220    0.9870 C   0  0  0  0  0  0  0  0  0  0  0  0
   -6.6450   -0.2620    1.5360 C   0  0  0  0  0  0  0  0  0  0  0  0
   -6.9660   -1.4320    2.1700 C   0  0  0  0  0  0  0  0  0  0  0  0
   -6.0520   -2.4550    2.2590 C   0  0  0  0  0  0  0  0  0  0  0  0
   -4.8100   -2.2890    1.7020 C   0  0  0  0  0  0  0  0  0  0  0  0
   -3.8670   -3.3160    1.7810 O   0  0  0  0  0  0  0  0  0  0  0  0
   -0.5010    1.4050   -0.2720 C   0  0  0  0  0  0  0  0  0  0  0  0
    0.6780    1.6270   -1.0880 N   0  0  0  0  0  0  0  0  0  0  0  0
  1  2  1  0
  2  3  2  3
  3  4  1  0
  3  5  1  0
  5  6  1  0
  6  7  1  0
  7  8  1  6
  7  9  1  0
  7 24  1  0
  9 10  1  0
 10 11  1  0
 11 12  1  6
 11 13  1  0
 11 23  1  0
 13 14  2  0
 13 15  1  0
 15 16  1  0
 16 17  2  0
 16 21  1  0
 17 18  1  0
 18 19  2  0
 19 20  1  0
 20 21  2  0
 21 22  1  0
 23 24  1  0
M  CHG  2   2   1  10   1
M  END
