
     RDKit          3D

 24 25  0  0  0  0  0  0  0  0999 V2000
    8.0130   -1.8050    0.7120 C   0  0  0  0  0  0  0  0  0  0  0  0
    7.3060   -0.6750    1.1550 O   0  0  0  0  0  0  0  0  0  0  0  0
    6.0040   -0.4760    0.8140 C   0  0  0  0  0  0  0  0  0  0  0  0
    5.3430   -1.3970    0.0260 C   0  0  0  0  0  0  0  0  0  0  0  0
    4.0240   -1.2180   -0.3430 C   0  0  0  0  0  0  0  0  0  0  0  0
    3.2910   -0.1210    0.0470 C   0  0  0  0  0  0  0  0  0  0  0  0
    1.9350    0.0330   -0.3400 N   0  0  0  0  0  0  0  0  0  0  0  0
    1.5220    1.0990   -1.2000 C   0  0  0  0  0  0  0  0  0  0  0  0
    2.4570    1.8660   -1.5900 O   0  0  0  0  0  0  0  0  0  0  0  0
    0.1470    1.3620   -1.6350 C   0  0  2  0  0  0  0  0  0  0  0  0
   -0.2220    2.8320   -1.4720 C   0  0  0  0  0  0  0  0  0  0  0  0
   -0.8680    0.5480   -1.0650 N   0  0  0  0  0  0  0  0  0  0  0  0
   -1.6470   -0.0770   -2.0770 C   0  0  0  0  0  0  0  0  0  0  0  0
   -2.8720   -0.8140   -1.6260 C   0  0  0  0  0  0  0  0  0  0  0  0
   -3.8650    0.1540   -1.0380 C   0  0  0  0  0  0  0  0  0  0  0  0
   -3.7750    0.0370    0.4670 C   0  0  1  0  0  0  0  0  0  0  0  0
   -4.5170    1.1300    1.0510 N   0  0  0  0  0  0  0  0  0  0  0  0
   -4.3620   -1.2340    0.9210 C   0  0  0  0  0  0  0  0  0  0  0  0
   -4.4120   -1.5760    2.3110 N   0  0  0  0  0  0  0  0  0  0  0  0
   -4.8640   -2.1180    0.1300 N   0  0  0  0  0  0  0  0  0  0  0  0
   -2.3090    0.1210    0.8920 C   0  0  0  0  0  0  0  0  0  0  0  0
   -1.5800    1.1110    0.0070 C   0  0  0  0  0  0  0  0  0  0  0  0
    3.9590    0.7910    0.8350 C   0  0  0  0  0  0  0  0  0  0  0  0
    5.2700    0.6350    1.2140 C   0  0  0  0  0  0  0  0  0  0  0  0
  1  2  1  0
  2  3  1  0
  3  4  2  0
  3 24  1  0
  4  5  1  0
  5  6  2  0
  6  7  1  0
  6 23  1  0
  7  8  1  0
  8  9  2  0
  8 10  1  0
 10 11  1  1
 10 12  1  0
 12 13  1  0
 12 22  1  0
 13 14  1  0
 14 15  1  0
 15 16  1  0
 16 17  1  1
 16 18  1  0
 16 21  1  0
 18 19  1  0
 18 20  2  0
 21 22  1  0
 23 24  2  0
M  CHG  2  17   1  20   1
M  END
