
     RDKit          3D

 24 25  0  0  0  0  0  0  0  0999 V2000
   -2.9580   -2.5720    2.0750 C   0  0  0  0  0  0  0  0  0  0  0  0
   -1.6760   -1.8880    1.7690 C   0  0  0  0  0  0  0  0  0  0  0  0
   -1.7440   -0.5390    1.0920 C   0  0  2  0  0  0  0  0  0  0  0  0
   -2.4650    0.4030    1.9340 C   0  0  0  0  0  0  0  0  0  0  0  0
   -3.8690    0.1980    2.3420 C   0  0  0  0  0  0  0  0  0  0  0  0
   -1.6330   -0.4960   -0.3550 C   0  0  2  0  0  0  0  0  0  0  0  0
   -0.3350   -0.9820   -0.8330 N   0  0  0  0  0  0  0  0  0  0  0  0
    0.7370   -0.0920   -0.6800 C   0  0  0  0  0  0  0  0  0  0  0  0
    2.0840   -0.7060   -0.2540 C   0  0  2  0  0  0  0  0  0  0  0  0
    2.5410   -1.7420   -1.2670 C   0  0  0  0  0  0  0  0  0  0  0  0
    2.0240   -1.3600    1.0870 C   0  0  0  0  0  0  0  0  0  0  0  0
    3.1290    0.3740   -0.3060 C   0  0  0  0  0  0  0  0  0  0  0  0
    4.5140    0.0620    0.0400 C   0  0  1  0  0  0  0  0  0  0  0  0
    5.3840    1.3460   -0.1690 C   0  0  0  0  0  0  0  0  0  0  0  0
    6.5470    0.9520    0.7510 C   0  0  0  0  0  0  0  0  0  0  0  0
    5.8010    0.6770    1.9600 N   0  0  0  0  0  0  0  0  0  0  0  0
    4.7240   -0.2220    1.4870 C   0  0  0  0  0  0  0  0  0  0  0  0
   -2.3410    0.4270   -1.2570 C   0  0  1  0  0  0  0  0  0  0  0  0
   -1.9500    0.1380   -2.7330 C   0  0  0  0  0  0  0  0  0  0  0  0
   -2.6730    1.0690   -3.6690 C   0  0  0  0  0  0  0  0  0  0  0  0
   -3.8430    0.1810   -1.2960 C   0  0  0  0  0  0  0  0  0  0  0  0
   -4.5350    1.4400   -0.9940 C   0  0  0  0  0  0  0  0  0  0  0  0
   -3.5400    2.5290   -0.8070 C   0  0  0  0  0  0  0  0  0  0  0  0
   -2.2260    1.8610   -1.0940 C   0  0  0  0  0  0  0  0  0  0  0  0
  1  2  1  0
  3  2  1  6
  3  4  1  0
  3  6  1  0
  4  5  1  0
  6  7  1  1
  6 18  1  0
  7  8  1  0
  8  9  1  0
  9 10  1  6
  9 11  1  0
  9 12  1  0
 13 12  1  1
 13 14  1  0
 13 17  1  0
 14 15  1  0
 15 16  1  0
 16 17  1  0
 18 19  1  6
 18 21  1  0
 18 24  1  0
 19 20  1  0
 21 22  1  0
 22 23  1  0
 23 24  1  0
M  CHG  2   7   1  16   1
M  END
