
     RDKit          3D

 24 26  0  0  0  0  0  0  0  0999 V2000
    1.6560   -3.9430    0.1260 C   0  0  0  0  0  0  0  0  0  0  0  0
    1.2010   -2.6350    0.7420 C   0  0  0  0  0  0  0  0  0  0  0  0
    1.9790   -1.4650    0.1130 C   0  0  2  0  0  0  0  0  0  0  0  0
    3.3960   -1.7680    0.4540 C   0  0  0  0  0  0  0  0  0  0  0  0
    1.4360   -0.1260    0.4480 C   0  0  2  0  0  0  0  0  0  0  0  0
    1.4210   -0.0530    1.9050 N   0  0  0  0  0  0  0  0  0  0  0  0
    0.1500    0.2130   -0.2180 C   0  0  0  0  0  0  0  0  0  0  0  0
   -1.0630   -0.5810   -0.0610 C   0  0  0  0  0  0  0  0  0  0  0  0
   -2.2540    0.1090   -0.8080 C   0  0  2  0  0  0  0  0  0  0  0  0
   -2.4610    1.4520   -0.2230 C   0  0  0  0  0  0  0  0  0  0  0  0
   -3.8680    1.9710   -0.2820 C   0  0  2  0  0  0  0  0  0  0  0  0
   -4.6230    1.3870    0.8940 C   0  0  0  0  0  0  0  0  0  0  0  0
   -5.3920    0.2100    0.3420 C   0  0  0  0  0  0  0  0  0  0  0  0
   -4.7260   -0.0880   -0.9860 C   0  0  1  0  0  0  0  0  0  0  0  0
   -4.5150    1.3350   -1.5200 C   0  0  0  0  0  0  0  0  0  0  0  0
   -3.4260   -0.7990   -0.8380 C   0  0  2  0  0  0  0  0  0  0  0  0
   -3.5010   -1.7260    0.3560 C   0  0  0  0  0  0  0  0  0  0  0  0
   -3.2770   -1.7140   -2.0620 C   0  0  0  0  0  0  0  0  0  0  0  0
    2.3360    1.0170   -0.0670 C   0  0  0  0  0  0  0  0  0  0  0  0
    3.6160    1.1940    0.3420 N   0  0  2  0  0  0  0  0  0  0  0  0
    3.7280    2.5310    1.0210 C   0  0  0  0  0  0  0  0  0  0  0  0
    5.0920    3.0350    0.7480 C   0  0  0  0  0  0  0  0  0  0  0  0
    5.7090    1.9730   -0.1340 C   0  0  0  0  0  0  0  0  0  0  0  0
    4.4940    1.4350   -0.8250 C   0  0  0  0  0  0  0  0  0  0  0  0
  1  2  1  0
  2  3  1  0
  3  4  1  1
  3  5  1  0
  5  6  1  1
  5  7  1  0
  5 19  1  0
  7  8  1  0
  9  8  1  1
  9 10  1  0
  9 16  1  0
 11 10  1  1
 11 12  1  0
 11 15  1  0
 12 13  1  0
 14 13  1  1
 14 15  1  0
 14 16  1  0
 16 17  1  1
 16 18  1  0
 20 19  1  6
 20 21  1  0
 20 24  1  0
 21 22  1  0
 22 23  1  0
 23 24  1  0
M  CHG  2   6   1  20   1
M  END
