
     RDKit          3D

 24 26  0  0  0  0  0  0  0  0999 V2000
   -3.2610    3.5040   -0.5060 C   0  0  0  0  0  0  0  0  0  0  0  0
   -3.1280    3.1410    0.9560 C   0  0  0  0  0  0  0  0  0  0  0  0
   -2.2310    1.9340    1.0430 C   0  0  0  0  0  0  0  0  0  0  0  0
   -2.7830    0.7450    0.2890 C   0  0  2  0  0  0  0  0  0  0  0  0
   -4.1510    0.3400    0.8540 C   0  0  0  0  0  0  0  0  0  0  0  0
   -4.6700   -0.7270   -0.0790 C   0  0  0  0  0  0  0  0  0  0  0  0
   -3.7870   -1.9090   -0.2120 C   0  0  1  0  0  0  0  0  0  0  0  0
   -3.9810   -2.4730   -1.5590 N   0  0  0  0  0  0  0  0  0  0  0  0
   -5.3240   -2.8880   -1.7900 C   0  0  0  0  0  0  0  0  0  0  0  0
   -2.3610   -1.7380    0.0710 C   0  0  0  0  0  0  0  0  0  0  0  0
   -1.8820   -0.4190    0.5540 C   0  0  1  0  0  0  0  0  0  0  0  0
   -0.5640   -0.0970    0.0110 N   0  0  0  0  0  0  0  0  0  0  0  0
    0.4530   -0.0320    1.0420 C   0  0  0  0  0  0  0  0  0  0  0  0
    1.6500   -0.8610    0.6330 C   0  0  1  0  0  0  0  0  0  0  0  0
    2.2080   -0.3060   -0.6740 C   0  0  0  0  0  0  0  0  0  0  0  0
    3.5130   -0.0030    0.0470 C   0  0  2  0  0  0  0  0  0  0  0  0
    3.9100    1.4380    0.0780 C   0  0  0  0  0  0  0  0  0  0  0  0
    5.0950    1.7000   -0.8050 C   0  0  0  0  0  0  0  0  0  0  0  0
    4.9500    1.0770   -2.1720 C   0  0  0  0  0  0  0  0  0  0  0  0
    4.8160   -0.4060   -2.0010 C   0  0  0  0  0  0  0  0  0  0  0  0
    4.6270   -0.8090   -0.5520 C   0  0  0  0  0  0  0  0  0  0  0  0
    2.9350   -0.5490    1.3240 C   0  0  2  0  0  0  0  0  0  0  0  0
    3.6030   -1.8330    1.8020 C   0  0  0  0  0  0  0  0  0  0  0  0
    2.8590    0.4440    2.4610 C   0  0  0  0  0  0  0  0  0  0  0  0
  1  2  1  0
  2  3  1  0
  4  3  1  1
  4  5  1  0
  4 11  1  0
  5  6  1  0
  6  7  1  0
  7  8  1  6
  7 10  1  0
  8  9  1  0
 10 11  1  0
 11 12  1  6
 12 13  1  0
 14 13  1  1
 14 15  1  0
 14 22  1  0
 16 15  1  6
 16 17  1  0
 16 21  1  0
 16 22  1  0
 17 18  1  0
 18 19  1  0
 19 20  1  0
 20 21  1  0
 22 23  1  1
 22 24  1  0
M  CHG  2   8   1  12   1
M  END
