
     RDKit          3D

 24 26  0  0  0  0  0  0  0  0999 V2000
    3.3560    0.5310    1.9930 C   0  0  0  0  0  0  0  0  0  0  0  0
    3.5500    1.3220    0.7480 C   0  0  0  0  0  0  0  0  0  0  0  0
    3.6510    0.5360   -0.5280 C   0  0  1  0  0  0  0  0  0  0  0  0
    4.8740   -0.3460   -0.4700 C   0  0  1  0  0  0  0  0  0  0  0  0
    6.2310    0.4240   -0.3740 C   0  0  0  0  0  0  0  0  0  0  0  0
    5.7350   -0.5000    0.7010 C   0  0  0  0  0  0  0  0  0  0  0  0
    2.4320   -0.4020   -0.6800 C   0  0  2  0  0  0  0  0  0  0  0  0
    2.6810   -1.0620   -2.0260 C   0  0  0  0  0  0  0  0  0  0  0  0
    1.1430    0.3590   -0.5780 C   0  0  0  0  0  0  0  0  0  0  0  0
   -0.1330   -0.3610   -0.6200 C   0  0  2  0  0  0  0  0  0  0  0  0
   -0.2550   -1.0920   -1.9510 C   0  0  0  0  0  0  0  0  0  0  0  0
   -1.6780   -1.6340   -2.1410 C   0  0  0  0  0  0  0  0  0  0  0  0
   -2.1630   -2.0170   -0.7920 C   0  0  2  0  0  0  0  0  0  0  0  0
   -3.4480   -2.8120   -0.8860 C   0  0  0  0  0  0  0  0  0  0  0  0
   -3.9570   -3.2100    0.4830 C   0  0  0  0  0  0  0  0  0  0  0  0
   -5.1790   -3.9610    0.3070 N   0  0  0  0  0  0  0  0  0  0  0  0
   -2.3090   -0.7930    0.0040 C   0  0  0  0  0  0  0  0  0  0  0  0
   -1.3450    0.2850   -0.3860 N   0  0  1  0  0  0  0  0  0  0  0  0
   -1.6360    1.3080    0.4930 C   0  0  1  0  0  0  0  0  0  0  0  0
   -0.6920    1.9510    1.4090 C   0  0  0  0  0  0  0  0  0  0  0  0
   -1.5380    2.8270    2.3840 C   0  0  0  0  0  0  0  0  0  0  0  0
   -2.2060    3.9390    1.6060 C   0  0  0  0  0  0  0  0  0  0  0  0
   -3.1370    3.2830    0.6090 C   0  0  0  0  0  0  0  0  0  0  0  0
   -2.2790    2.4700   -0.3180 C   0  0  0  0  0  0  0  0  0  0  0  0
  1  2  1  0
  3  2  1  1
  3  4  1  0
  3  7  1  0
  4  5  1  6
  4  6  1  0
  5  6  1  0
  7  8  1  6
  7  9  1  0
 10  9  1  6
 10 11  1  0
 10 18  1  0
 11 12  1  0
 12 13  1  0
 13 14  1  6
 13 17  1  0
 14 15  1  0
 15 16  1  0
 18 17  1  1
 18 19  1  0
 19 20  1  6
 19 24  1  0
 20 21  1  0
 21 22  1  0
 22 23  1  0
 23 24  1  0
M  CHG  2  16   1  18   1
M  END
