
     RDKit          3D

 37 42  0  0  0  0  0  0  0  0999 V2000
    8.6910   -1.1060   -2.1070 C   0  0  0  0  0  0  0  0  0  0  0  0
    7.7630   -0.4240   -2.7570 C   0  0  0  0  0  0  0  0  0  0  0  0
    6.6730   -0.0800   -1.8600 C   0  0  0  0  0  0  0  0  0  0  0  0
    5.4640    0.6790   -2.2420 C   0  0  0  0  0  0  0  0  0  0  0  0
    4.5490    0.8720   -1.0890 C   0  0  0  0  0  0  0  0  0  0  0  0
    4.6260    2.0150   -0.3190 C   0  0  0  0  0  0  0  0  0  0  0  0
    3.7910    2.2100    0.7620 C   0  0  0  0  0  0  0  0  0  0  0  0
    2.8720    1.2910    1.1030 N   0  0  0  0  0  0  0  0  0  0  0  0
    2.7640    0.1630    0.3790 C   0  0  0  0  0  0  0  0  0  0  0  0
    1.8210   -0.8170    0.7210 N   0  0  0  0  0  0  0  0  0  0  0  0
    0.9400   -0.6400    1.8500 C   0  0  0  0  0  0  0  0  0  0  0  0
    0.0180    0.5510    1.5950 C   0  0  0  0  0  0  0  0  0  0  0  0
   -0.7590    0.2060    0.3400 C   0  0  2  0  0  0  0  0  0  0  0  0
   -1.6850    1.3090    0.0040 C   0  0  0  0  0  0  0  0  0  0  0  0
   -2.0640    2.2930    0.8880 C   0  0  0  0  0  0  0  0  0  0  0  0
   -2.9390    3.3140    0.5620 C   0  0  0  0  0  0  0  0  0  0  0  0
   -3.4750    3.3800   -0.6970 C   0  0  0  0  0  0  0  0  0  0  0  0
   -4.3700    4.4210   -1.0380 N   0  0  0  0  0  0  0  0  0  0  0  0
   -4.7110    5.4380   -0.0730 C   0  0  2  0  0  0  0  0  0  0  0  0
   -5.3770    5.0640    1.1970 C   0  0  0  0  0  0  0  0  0  0  0  0
   -6.2260    5.7010    0.1780 C   0  0  0  0  0  0  0  0  0  0  0  0
   -3.1040    2.3980   -1.6020 C   0  0  0  0  0  0  0  0  0  0  0  0
   -2.2320    1.3780   -1.2830 C   0  0  0  0  0  0  0  0  0  0  0  0
   -1.4510   -1.1090    0.4860 C   0  0  0  0  0  0  0  0  0  0  0  0
   -2.1320   -1.4990    1.6160 C   0  0  0  0  0  0  0  0  0  0  0  0
   -2.7430   -2.7390    1.6920 C   0  0  0  0  0  0  0  0  0  0  0  0
   -2.7040   -3.6450    0.6520 C   0  0  0  0  0  0  0  0  0  0  0  0
   -3.3110   -4.9290    0.6960 N   0  0  0  0  0  0  0  0  0  0  0  0
   -4.6280   -5.1690    0.7700 C   0  0  0  0  0  0  0  0  0  0  0  0
   -4.8680   -6.5230    0.7930 C   0  0  0  0  0  0  0  0  0  0  0  0
   -3.6280   -7.1290    0.7290 C   0  0  0  0  0  0  0  0  0  0  0  0
   -2.7000   -6.1250    0.6700 C   0  0  0  0  0  0  0  0  0  0  0  0
   -2.0150   -3.2510   -0.4920 C   0  0  0  0  0  0  0  0  0  0  0  0
   -1.4090   -2.0180   -0.5660 C   0  0  0  0  0  0  0  0  0  0  0  0
    3.6020   -0.0590   -0.7260 C   0  0  0  0  0  0  0  0  0  0  0  0
    6.9570   -0.5630   -0.6670 C   0  0  0  0  0  0  0  0  0  0  0  0
    8.2800   -1.2680   -0.7120 C   0  0  0  0  0  0  0  0  0  0  0  0
  1  2  2  0
  1 37  1  0
  2  3  1  0
  3  4  1  0
  3 36  2  0
  4  5  1  0
  5  6  2  0
  5 35  1  0
  6  7  1  0
  7  8  2  0
  8  9  1  0
  9 10  1  0
  9 35  2  0
 10 11  1  0
 11 12  1  0
 13 12  1  1
 13 14  1  0
 13 24  1  0
 14 15  2  0
 14 23  1  0
 15 16  1  0
 16 17  2  0
 17 18  1  0
 17 22  1  0
 19 18  1  6
 19 20  1  0
 19 21  1  0
 20 21  1  0
 22 23  2  0
 24 25  2  0
 24 34  1  0
 25 26  1  0
 26 27  2  0
 27 28  1  0
 27 33  1  0
 28 29  1  0
 28 32  1  0
 29 30  2  0
 30 31  1  0
 31 32  2  0
 33 34  2  0
 36 37  1  0
M  END
