
     RDKit          3D

 37 42  0  0  0  0  0  0  0  0999 V2000
   -5.2240    3.4190   -2.5220 C   0  0  0  0  0  0  0  0  0  0  0  0
   -4.5030    2.7110   -1.4030 C   0  0  0  0  0  0  0  0  0  0  0  0
   -3.5260    1.6740   -1.9080 C   0  0  0  0  0  0  0  0  0  0  0  0
   -2.9050    1.0720   -0.7370 N   0  0  0  0  0  0  0  0  0  0  0  0
   -1.9640    0.0690   -1.1710 C   0  0  0  0  0  0  0  0  0  0  0  0
   -1.2820   -0.6250   -0.0280 C   0  0  1  0  0  0  0  0  0  0  0  0
   -0.5490    0.3030    0.7980 N   0  0  0  0  0  0  0  0  0  0  0  0
    0.5460    0.9600    0.1230 C   0  0  0  0  0  0  0  0  0  0  0  0
    1.2740    1.8710    1.0490 C   0  0  0  0  0  0  0  0  0  0  0  0
    0.8480    1.8890    2.3550 C   0  0  0  0  0  0  0  0  0  0  0  0
    1.4760    2.6880    3.2850 C   0  0  0  0  0  0  0  0  0  0  0  0
    2.5390    3.4650    2.8640 C   0  0  0  0  0  0  0  0  0  0  0  0
    2.9590    3.4450    1.5680 C   0  0  0  0  0  0  0  0  0  0  0  0
    2.3240    2.6390    0.6320 C   0  0  0  0  0  0  0  0  0  0  0  0
    2.8400    2.6860   -0.7340 C   0  0  0  0  0  0  0  0  0  0  0  0
    3.7110    1.6510   -1.1670 N   0  0  0  0  0  0  0  0  0  0  0  0
    5.0200    1.6180   -0.7780 C   0  0  0  0  0  0  0  0  0  0  0  0
    5.6120    0.5120   -1.2750 C   0  0  0  0  0  0  0  0  0  0  0  0
    7.0480    0.1060   -1.0790 C   0  0  0  0  0  0  0  0  0  0  0  0
    7.1380   -1.0090   -0.0730 C   0  0  0  0  0  0  0  0  0  0  0  0
    4.6700   -0.1870   -2.0010 C   0  0  0  0  0  0  0  0  0  0  0  0
    4.7410   -1.3590   -2.7260 C   0  0  0  0  0  0  0  0  0  0  0  0
    3.6320   -1.8230   -3.3890 C   0  0  0  0  0  0  0  0  0  0  0  0
    2.4660   -1.0850   -3.3030 C   0  0  0  0  0  0  0  0  0  0  0  0
    2.4040    0.0740   -2.5830 C   0  0  0  0  0  0  0  0  0  0  0  0
    3.4990    0.5740   -1.9000 C   0  0  0  0  0  0  0  0  0  0  0  0
   -2.1860   -1.4620    0.7680 C   0  0  0  0  0  0  0  0  0  0  0  0
   -2.3140   -2.8130    0.4520 C   0  0  0  0  0  0  0  0  0  0  0  0
   -3.1720   -3.6370    1.2110 C   0  0  0  0  0  0  0  0  0  0  0  0
   -3.8250   -3.0260    2.2240 C   0  0  0  0  0  0  0  0  0  0  0  0
   -3.7450   -1.7200    2.5830 C   0  0  0  0  0  0  0  0  0  0  0  0
   -4.6050   -1.6330    3.6670 C   0  0  0  0  0  0  0  0  0  0  0  0
   -5.1430   -2.9160    3.8780 C   0  0  0  0  0  0  0  0  0  0  0  0
   -4.6330   -3.7600    2.9560 N   0  0  0  0  0  0  0  0  0  0  0  0
   -4.5960   -5.1400    2.4330 C   0  0  0  0  0  0  0  0  0  0  0  0
   -3.6140   -5.0310    1.2500 C   0  0  0  0  0  0  0  0  0  0  0  0
   -2.9020   -0.9110    1.8360 C   0  0  0  0  0  0  0  0  0  0  0  0
  1  2  1  0
  2  3  1  0
  3  4  1  0
  4  5  1  0
  6  5  1  6
  6  7  1  0
  6 27  1  0
  7  8  1  0
  8  9  1  0
  9 10  2  0
  9 14  1  0
 10 11  1  0
 11 12  2  0
 12 13  1  0
 13 14  2  0
 14 15  1  0
 15 16  1  0
 16 17  1  0
 16 26  1  0
 17 18  2  0
 18 19  1  0
 18 21  1  0
 19 20  1  0
 21 22  2  0
 21 26  1  0
 22 23  1  0
 23 24  2  0
 24 25  1  0
 25 26  2  0
 27 28  2  0
 27 37  1  0
 28 29  1  0
 29 30  2  0
 29 36  1  0
 30 31  1  0
 30 34  1  0
 31 32  1  0
 31 37  2  0
 32 33  2  0
 33 34  1  0
 34 35  1  0
 35 36  1  0
M  END
