
     RDKit          3D

 37 42  0  0  0  0  0  0  0  0999 V2000
    7.4700    2.6550    2.6050 C   0  0  0  0  0  0  0  0  0  0  0  0
    6.2970    1.9680    1.9690 C   0  0  0  0  0  0  0  0  0  0  0  0
    5.0240    2.1030    2.4670 C   0  0  0  0  0  0  0  0  0  0  0  0
    3.9460    1.4650    1.8740 C   0  0  0  0  0  0  0  0  0  0  0  0
    4.1250    0.6620    0.7510 C   0  0  0  0  0  0  0  0  0  0  0  0
    5.3860    0.5260    0.2540 C   0  0  0  0  0  0  0  0  0  0  0  0
    6.4710    1.1750    0.8590 C   0  0  0  0  0  0  0  0  0  0  0  0
    5.6500   -0.2940   -0.9320 C   0  0  0  0  0  0  0  0  0  0  0  0
    4.5760   -1.3150   -1.0990 C   0  0  0  0  0  0  0  0  0  0  0  0
    3.1910   -0.7080   -1.0710 C   0  0  0  0  0  0  0  0  0  0  0  0
    2.9050    0.0160    0.1990 C   0  0  1  0  0  0  0  0  0  0  0  0
    2.3130   -0.8780    1.2680 C   0  0  0  0  0  0  0  0  0  0  0  0
    1.1430   -1.5730    0.8650 N   0  0  0  0  0  0  0  0  0  0  0  0
   -0.0520   -0.9550    0.3800 C   0  0  0  0  0  0  0  0  0  0  0  0
   -0.1390    0.3840    0.2670 N   0  0  0  0  0  0  0  0  0  0  0  0
   -1.2500    0.9940   -0.1880 C   0  0  0  0  0  0  0  0  0  0  0  0
   -1.2750    2.4730   -0.2960 C   0  0  0  0  0  0  0  0  0  0  0  0
   -1.0940    2.8700   -1.7560 C   0  0  0  0  0  0  0  0  0  0  0  0
   -1.1410    4.3640   -1.8030 C   0  0  0  0  0  0  0  0  0  0  0  0
   -1.2890    5.3610   -0.9610 C   0  0  0  0  0  0  0  0  0  0  0  0
   -1.1800    6.3050   -2.0360 C   0  0  0  0  0  0  0  0  0  0  0  0
   -1.0310    5.3090   -2.8850 C   0  0  0  0  0  0  0  0  0  0  0  0
   -2.3500    0.2250   -0.5570 C   0  0  0  0  0  0  0  0  0  0  0  0
   -3.5730    0.8940   -1.0530 C   0  0  0  0  0  0  0  0  0  0  0  0
   -2.2800   -1.1560   -0.4480 C   0  0  0  0  0  0  0  0  0  0  0  0
   -3.4190   -1.9810   -0.8240 C   0  0  0  0  0  0  0  0  0  0  0  0
   -3.9320   -2.0650   -2.1340 C   0  0  0  0  0  0  0  0  0  0  0  0
   -4.9680   -2.9690   -2.1730 C   0  0  0  0  0  0  0  0  0  0  0  0
   -5.7890   -3.3600   -3.3650 C   0  0  0  0  0  0  0  0  0  0  0  0
   -5.0870   -3.4240   -0.9300 N   0  0  0  0  0  0  0  0  0  0  0  0
   -4.1660   -2.8460   -0.0930 C   0  0  0  0  0  0  0  0  0  0  0  0
   -4.1110   -3.1240    1.3210 C   0  0  0  0  0  0  0  0  0  0  0  0
   -4.8200   -4.0500    1.9490 C   0  0  0  0  0  0  0  0  0  0  0  0
   -4.5230   -4.0670    3.3870 C   0  0  0  0  0  0  0  0  0  0  0  0
   -3.5250   -2.9910    3.5340 C   0  0  0  0  0  0  0  0  0  0  0  0
   -3.3190   -2.4820    2.3350 C   0  0  0  0  0  0  0  0  0  0  0  0
   -1.1260   -1.6590    0.0170 N   0  0  0  0  0  0  0  0  0  0  0  0
  1  2  1  0
  2  3  2  0
  2  7  1  0
  3  4  1  0
  4  5  2  0
  5  6  1  0
  5 11  1  0
  6  7  2  0
  6  8  1  0
  8  9  1  0
  9 10  1  0
 10 11  1  0
 11 12  1  1
 12 13  1  0
 13 14  1  0
 14 15  2  0
 14 37  1  0
 15 16  1  0
 16 17  1  0
 16 23  2  0
 17 18  1  0
 18 19  1  0
 19 20  2  0
 19 22  1  0
 20 21  1  0
 21 22  2  0
 23 24  1  0
 23 25  1  0
 25 26  1  0
 25 37  2  0
 26 27  1  0
 26 31  2  0
 27 28  2  0
 28 29  1  0
 28 30  1  0
 30 31  1  0
 31 32  1  0
 32 33  2  0
 32 36  1  0
 33 34  1  0
 34 35  1  0
 35 36  2  0
M  END
