
     RDKit          3D

 34 36  0  0  0  0  0  0  0  0999 V2000
   -3.5330   -0.2470   -4.3180 C   0  0  0  0  0  0  0  0  0  0  0  0
   -4.7570   -0.3640   -3.5100 C   0  0  0  0  0  0  0  0  0  0  0  0
   -4.7610   -0.1380   -2.1900 C   0  0  0  0  0  0  0  0  0  0  0  0
   -3.4770    0.2220   -1.6580 C   0  0  0  0  0  0  0  0  0  0  0  0
   -2.9780    0.1200   -0.4280 C   0  0  0  0  0  0  0  0  0  0  0  0
   -1.6170    0.5910   -0.2510 C   0  0  0  0  0  0  0  0  0  0  0  0
   -0.9590    0.5570    0.8960 C   0  0  0  0  0  0  0  0  0  0  0  0
    0.4060    1.0670    0.9300 C   0  0  0  0  0  0  0  0  0  0  0  0
    1.1940    1.1100    1.9580 C   0  0  0  0  0  0  0  0  0  0  0  0
    2.5400    1.6550    1.8220 C   0  0  0  0  0  0  0  0  0  0  0  0
    3.3090    1.6980    2.7960 O   0  0  0  0  0  0  0  0  0  0  0  0
    3.0330    2.1530    0.6050 N   0  0  0  0  0  0  0  0  0  0  0  0
    4.3960    2.6940    0.5010 C   0  0  0  0  0  0  0  0  0  0  0  0
    5.3710    1.5890    0.4470 C   0  0  0  0  0  0  0  0  0  0  0  0
    6.1130    1.1830    1.5270 C   0  0  0  0  0  0  0  0  0  0  0  0
    7.0250    0.1360    1.4540 C   0  0  0  0  0  0  0  0  0  0  0  0
    7.2060   -0.5280    0.2760 C   0  0  0  0  0  0  0  0  0  0  0  0
    6.4700   -0.1390   -0.8310 C   0  0  0  0  0  0  0  0  0  0  0  0
    6.6720   -0.8690   -2.1170 C   0  0  1  0  0  0  0  0  0  0  0  0
    6.1110   -0.0320   -3.2500 C   0  0  0  0  0  0  0  0  0  0  0  0
    8.0410   -1.0350   -2.3170 O   0  0  0  0  0  0  0  0  0  0  0  0
    5.5760    0.8930   -0.7440 C   0  0  0  0  0  0  0  0  0  0  0  0
    0.7850    0.6230    3.2690 C   0  0  0  0  0  0  0  0  0  0  0  0
    1.5230    0.6280    4.4310 C   0  0  0  0  0  0  0  0  0  0  0  0
    0.7080    0.0620    5.4140 C   0  0  0  0  0  0  0  0  0  0  0  0
   -0.4450   -0.2440    4.8020 N   0  0  0  0  0  0  0  0  0  0  0  0
   -0.3780    0.0880    3.5710 O   0  0  0  0  0  0  0  0  0  0  0  0
   -3.6310   -0.4000    0.7940 C   0  0  2  0  0  0  0  0  0  0  0  0
   -3.3380   -1.7940    1.0480 N   0  0  0  0  0  0  0  0  0  0  0  0
   -3.8700   -2.1090    2.3800 C   0  0  0  0  0  0  0  0  0  0  0  0
   -5.1250   -0.1340    0.7940 C   0  0  0  0  0  0  0  0  0  0  0  0
   -5.9160   -0.9540   -0.1530 C   0  0  0  0  0  0  0  0  0  0  0  0
   -6.0520   -0.2940   -1.5190 C   0  0  2  0  0  0  0  0  0  0  0  0
   -6.9440   -1.1430   -2.2780 N   0  0  0  0  0  0  0  0  0  0  0  0
  1  2  1  0
  2  3  2  3
  3  4  1  0
  3 33  1  0
  4  5  2  0
  5  6  1  0
  5 28  1  0
  6  7  2  3
  7  8  1  0
  8  9  2  3
  9 10  1  0
  9 23  1  0
 10 11  2  0
 10 12  1  0
 12 13  1  0
 13 14  1  0
 14 15  2  0
 14 22  1  0
 15 16  1  0
 16 17  2  0
 17 18  1  0
 18 19  1  0
 18 22  2  0
 19 20  1  6
 19 21  1  0
 23 24  2  0
 23 27  1  0
 24 25  1  0
 25 26  2  0
 26 27  1  0
 28 29  1  6
 28 31  1  0
 29 30  1  0
 31 32  1  0
 32 33  1  0
 33 34  1  6
M  CHG  2  29   1  34   1
M  END
