
     RDKit          3D

 35 38  0  0  0  0  0  0  0  0999 V2000
   -9.6420    2.0050    0.6120 C   0  0  0  0  0  0  0  0  0  0  0  0
   -8.5690    1.3030    0.3250 C   0  0  0  0  0  0  0  0  0  0  0  0
   -7.2390    1.7170    0.6810 C   0  0  0  0  0  0  0  0  0  0  0  0
   -6.1790    0.8680    0.8090 C   0  0  0  0  0  0  0  0  0  0  0  0
   -4.9150    1.4620    1.1730 C   0  0  0  0  0  0  0  0  0  0  0  0
   -4.9140    2.7760    1.2230 O   0  0  0  0  0  0  0  0  0  0  0  0
   -3.7160    0.8380    1.4820 N   0  0  0  0  0  0  0  0  0  0  0  0
   -2.5300    1.6810    1.8100 C   0  0  1  0  0  0  0  0  0  0  0  0
   -2.2730    1.5390    3.3170 C   0  0  0  0  0  0  0  0  0  0  0  0
   -1.3390    1.2460    1.0790 C   0  0  0  0  0  0  0  0  0  0  0  0
   -1.3910    0.8520   -0.2380 C   0  0  0  0  0  0  0  0  0  0  0  0
   -0.2500    0.4430   -0.9270 C   0  0  0  0  0  0  0  0  0  0  0  0
    0.9690    0.4180   -0.3190 C   0  0  0  0  0  0  0  0  0  0  0  0
    2.2180    0.0040   -0.9260 C   0  0  0  0  0  0  0  0  0  0  0  0
    2.2770   -0.4290   -2.1540 C   0  0  0  0  0  0  0  0  0  0  0  0
    3.5090   -0.8550   -2.8050 C   0  0  0  0  0  0  0  0  0  0  0  0
    3.4550   -1.2670   -4.0030 O   0  0  0  0  0  0  0  0  0  0  0  0
    4.7890   -0.8510   -2.2130 N   0  0  0  0  0  0  0  0  0  0  0  0
    5.9830   -1.2890   -2.9100 C   0  0  0  0  0  0  0  0  0  0  0  0
    7.1860   -1.1500   -2.0610 C   0  0  0  0  0  0  0  0  0  0  0  0
    7.7460   -1.9930   -1.1430 C   0  0  0  0  0  0  0  0  0  0  0  0
    8.8630   -1.3620   -0.6440 C   0  0  0  0  0  0  0  0  0  0  0  0
    9.8390   -1.6620    0.2820 C   0  0  0  0  0  0  0  0  0  0  0  0
   10.8400   -0.7560    0.5330 C   0  0  0  0  0  0  0  0  0  0  0  0
   10.8990    0.4480   -0.1150 C   0  0  0  0  0  0  0  0  0  0  0  0
    9.9370    0.7750   -1.0470 C   0  0  0  0  0  0  0  0  0  0  0  0
    8.9340   -0.1510   -1.2870 C   0  0  0  0  0  0  0  0  0  0  0  0
    7.9370   -0.0780   -2.0990 O   0  0  0  0  0  0  0  0  0  0  0  0
    1.0080    0.8220    1.0200 C   0  0  0  0  0  0  0  0  0  0  0  0
   -0.1180    1.2290    1.7130 C   0  0  0  0  0  0  0  0  0  0  0  0
   -6.4680   -0.5070    0.5550 C   0  0  0  0  0  0  0  0  0  0  0  0
   -5.5680   -1.4180    0.5030 N   0  0  0  0  0  0  0  0  0  0  0  0
   -6.0070   -2.8090    0.2390 C   0  0  0  0  0  0  0  0  0  0  0  0
   -7.8160   -0.9150    0.2060 N   0  0  0  0  0  0  0  0  0  0  0  0
   -8.7640    0.0090   -0.4030 C   0  0  0  0  0  0  0  0  0  0  0  0
  1  2  2  0
  2  3  1  0
  2 35  1  0
  3  4  2  0
  4  5  1  0
  4 31  1  0
  5  6  2  0
  5  7  1  0
  7  8  1  0
  8  9  1  1
  8 10  1  0
 10 11  2  0
 10 30  1  0
 11 12  1  0
 12 13  2  0
 13 14  1  0
 13 29  1  0
 14 15  2  3
 15 16  1  0
 16 17  2  0
 16 18  1  0
 18 19  1  0
 19 20  1  0
 20 21  2  0
 20 28  1  0
 21 22  1  0
 22 23  2  0
 22 27  1  0
 23 24  1  0
 24 25  2  0
 25 26  1  0
 26 27  2  0
 27 28  1  0
 29 30  2  0
 31 32  2  3
 31 34  1  0
 32 33  1  0
 34 35  1  0
M  CHG  1  32   1
M  END
