
     RDKit          3D

 34 37  0  0  0  0  0  0  0  0999 V2000
    1.8650    3.5210    1.9380 C   0  0  0  0  0  0  0  0  0  0  0  0
    1.6950    2.0180    2.0250 C   0  0  2  0  0  0  0  0  0  0  0  0
    2.8530    1.4250    2.7870 C   0  0  0  0  0  0  0  0  0  0  0  0
    1.5330    1.4370    0.7500 O   0  0  0  0  0  0  0  0  0  0  0  0
    0.3420    0.7560    0.3890 C   0  0  0  0  0  0  0  0  0  0  0  0
   -0.4980    0.7360    1.2870 O   0  0  0  0  0  0  0  0  0  0  0  0
    0.2500    0.1820   -0.9460 C   0  0  0  0  0  0  0  0  0  0  0  0
   -0.8210   -0.4580   -1.3500 C   0  0  0  0  0  0  0  0  0  0  0  0
   -1.9420   -0.6150   -0.4960 N   0  0  0  0  0  0  0  0  0  0  0  0
   -3.1610   -1.2850   -0.8130 C   0  0  0  0  0  0  0  0  0  0  0  0
   -3.3230   -1.8030   -1.9260 O   0  0  0  0  0  0  0  0  0  0  0  0
   -4.2680   -1.3610    0.2270 C   0  0  2  0  0  0  0  0  0  0  0  0
   -5.4010   -2.1090   -0.3830 C   0  0  0  0  0  0  0  0  0  0  0  0
   -6.6620   -1.3280   -0.5540 C   0  0  0  0  0  0  0  0  0  0  0  0
   -6.9940   -0.7120    0.7590 C   0  0  0  0  0  0  0  0  0  0  0  0
   -8.1020   -0.6530    1.4780 C   0  0  0  0  0  0  0  0  0  0  0  0
   -7.7930    0.1100    2.7090 C   0  0  0  0  0  0  0  0  0  0  0  0
   -6.3630    0.4700    2.5810 C   0  0  0  0  0  0  0  0  0  0  0  0
   -5.9010   -0.0130    1.4380 C   0  0  0  0  0  0  0  0  0  0  0  0
   -4.5900   -0.0010    0.7390 C   0  0  0  0  0  0  0  0  0  0  0  0
   -0.8110   -1.0230   -2.6710 N   0  0  0  0  0  0  0  0  0  0  0  0
    0.3190   -0.8980   -3.5140 C   0  0  0  0  0  0  0  0  0  0  0  0
    1.4040   -0.2610   -3.1190 C   0  0  0  0  0  0  0  0  0  0  0  0
    2.5720   -0.1780   -4.0900 C   0  0  0  0  0  0  0  0  0  0  0  0
    3.7140   -0.8880   -3.5880 N   0  0  0  0  0  0  0  0  0  0  0  0
    1.4410    0.4050   -1.8280 C   0  0  2  0  0  0  0  0  0  0  0  0
    2.6960    0.2890   -1.0620 C   0  0  0  0  0  0  0  0  0  0  0  0
    3.1010   -0.8400   -0.3950 C   0  0  0  0  0  0  0  0  0  0  0  0
    4.2840   -0.8810    0.3080 C   0  0  0  0  0  0  0  0  0  0  0  0
    5.1260    0.2080    0.3810 C   0  0  0  0  0  0  0  0  0  0  0  0
    6.3940    0.1660    1.1340 C   0  0  0  0  0  0  0  0  0  0  0  0
    6.5800   -1.1340    1.7420 N   0  0  0  0  0  0  0  0  0  0  0  0
    4.7370    1.3560   -0.2850 C   0  0  0  0  0  0  0  0  0  0  0  0
    3.5500    1.3900   -0.9870 C   0  0  0  0  0  0  0  0  0  0  0  0
  2  1  1  6
  2  3  1  0
  2  4  1  0
  4  5  1  0
  5  6  2  0
  5  7  1  0
  7  8  2  0
  7 26  1  0
  8  9  1  0
  8 21  1  0
  9 10  1  0
 10 11  2  0
 12 10  1  6
 12 13  1  0
 12 20  1  0
 13 14  1  0
 14 15  1  0
 15 16  2  0
 15 19  1  0
 16 17  1  0
 17 18  1  0
 18 19  2  0
 19 20  1  0
 21 22  1  0
 22 23  2  0
 23 24  1  0
 23 26  1  0
 24 25  1  0
 26 27  1  1
 27 28  2  0
 27 34  1  0
 28 29  1  0
 29 30  2  0
 30 31  1  0
 30 33  1  0
 31 32  1  0
 33 34  2  0
M  CHG  2  25   1  32   1
M  END
