
     RDKit          3D

 34 36  0  0  0  0  0  0  0  0999 V2000
   -5.4330   -3.5110    0.0430 C   0  0  0  0  0  0  0  0  0  0  0  0
   -4.4200   -2.4350    0.2620 C   0  0  0  0  0  0  0  0  0  0  0  0
   -4.0430   -2.0530    1.5140 C   0  0  0  0  0  0  0  0  0  0  0  0
   -3.1000   -1.0460    1.7240 C   0  0  0  0  0  0  0  0  0  0  0  0
   -2.7580   -0.7020    3.0130 O   0  0  0  0  0  0  0  0  0  0  0  0
   -2.4950   -0.3780    0.6680 C   0  0  0  0  0  0  0  0  0  0  0  0
   -1.4510    0.6370    0.8160 C   0  0  2  0  0  0  0  0  0  0  0  0
   -1.3150    1.6150   -0.2910 C   0  0  0  0  0  0  0  0  0  0  0  0
   -2.5630    2.4220   -0.4050 C   0  0  0  0  0  0  0  0  0  0  0  0
   -2.7290    3.4520    0.5450 C   0  0  0  0  0  0  0  0  0  0  0  0
   -3.7950    4.3060    0.5620 C   0  0  0  0  0  0  0  0  0  0  0  0
   -4.7520    4.1500   -0.4000 C   0  0  0  0  0  0  0  0  0  0  0  0
   -4.6300    3.1600   -1.3460 C   0  0  0  0  0  0  0  0  0  0  0  0
   -5.5860    2.9620   -2.3510 O   0  0  0  0  0  0  0  0  0  0  0  0
   -3.5270    2.2910   -1.3480 C   0  0  0  0  0  0  0  0  0  0  0  0
   -0.1840    0.0420    1.2040 N   0  0  0  0  0  0  0  0  0  0  0  0
    0.9400    0.5630    0.4620 C   0  0  0  0  0  0  0  0  0  0  0  0
    2.1310   -0.3580    0.6680 C   0  0  2  0  0  0  0  0  0  0  0  0
    3.2880    0.1300   -0.0570 N   0  0  0  0  0  0  0  0  0  0  0  0
    4.5590    0.2880    0.5670 C   0  0  0  0  0  0  0  0  0  0  0  0
    4.6430   -0.0240    1.7820 O   0  0  0  0  0  0  0  0  0  0  0  0
    5.7130    0.7650   -0.0810 N   0  0  0  0  0  0  0  0  0  0  0  0
    6.9540    0.8800    0.6470 C   0  0  0  0  0  0  0  0  0  0  0  0
    8.0690    1.4190   -0.2230 C   0  0  0  0  0  0  0  0  0  0  0  0
    7.7160    2.7420   -0.7140 N   0  0  0  0  0  0  0  0  0  0  0  0
    1.7650   -1.6900    0.0680 C   0  0  0  0  0  0  0  0  0  0  0  0
    1.7540   -1.7740   -1.3030 C   0  0  0  0  0  0  0  0  0  0  0  0
    1.4300   -2.9470   -1.9570 C   0  0  0  0  0  0  0  0  0  0  0  0
    1.1100   -4.0570   -1.2040 C   0  0  0  0  0  0  0  0  0  0  0  0
    1.1240   -3.9630    0.1770 C   0  0  0  0  0  0  0  0  0  0  0  0
    1.4540   -2.7690    0.8290 C   0  0  0  0  0  0  0  0  0  0  0  0
   -2.9030   -0.7960   -0.5870 C   0  0  0  0  0  0  0  0  0  0  0  0
   -3.8370   -1.7930   -0.8050 C   0  0  0  0  0  0  0  0  0  0  0  0
   -4.2430   -2.2040   -2.1900 C   0  0  0  0  0  0  0  0  0  0  0  0
  1  2  1  0
  2  3  2  0
  2 33  1  0
  3  4  1  0
  4  5  1  0
  4  6  2  0
  6  7  1  0
  6 32  1  0
  7  8  1  6
  7 16  1  0
  8  9  1  0
  9 10  2  0
  9 15  1  0
 10 11  1  0
 11 12  2  0
 12 13  1  0
 13 14  1  0
 13 15  2  0
 16 17  1  0
 18 17  1  6
 18 19  1  0
 18 26  1  0
 19 20  1  0
 20 21  2  0
 20 22  1  0
 22 23  1  0
 23 24  1  0
 24 25  1  0
 26 27  2  0
 26 31  1  0
 27 28  1  0
 28 29  2  0
 29 30  1  0
 30 31  2  0
 32 33  2  0
 33 34  1  0
M  CHG  2  16   1  25   1
M  END
