
     RDKit          3D

 22 22  0  0  0  0  0  0  0  0999 V2000
    5.0580    0.2610   -1.4120 N   0  0  0  0  0  0  0  0  0  0  0  0
    6.0350   -0.5840   -0.8120 C   0  0  0  0  0  0  0  0  0  0  0  0
    5.6170   -1.3120    0.4150 C   0  0  0  0  0  0  0  0  0  0  0  0
    5.2080   -0.4740    1.5720 C   0  0  0  0  0  0  0  0  0  0  0  0
    4.0850    0.3600    1.2610 N   0  0  0  0  0  0  0  0  0  0  0  0
    2.8430   -0.1960    0.8640 C   0  0  0  0  0  0  0  0  0  0  0  0
    2.7460   -1.4410    0.7910 O   0  0  0  0  0  0  0  0  0  0  0  0
    1.7240    0.6910    0.5540 C   0  0  0  0  0  0  0  0  0  0  0  0
    0.5530    0.0460    0.1750 O   0  0  0  0  0  0  0  0  0  0  0  0
   -0.1680   -0.8460    0.9060 C   0  0  0  0  0  0  0  0  0  0  0  0
    0.2510   -1.1370    2.0550 O   0  0  0  0  0  0  0  0  0  0  0  0
   -1.4020   -1.4410    0.3410 C   0  0  0  0  0  0  0  0  0  0  0  0
   -1.7480   -1.0090   -0.9030 O   0  0  0  0  0  0  0  0  0  0  0  0
   -2.0280    0.3140   -1.0620 C   0  0  0  0  0  0  0  0  0  0  0  0
   -3.2050    0.7220   -0.2080 C   0  0  1  0  0  0  0  0  0  0  0  0
   -3.4840    2.1950   -0.3830 C   0  0  0  0  0  0  0  0  0  0  0  0
   -2.6050    2.9530   -0.8260 O   0  0  0  0  0  0  0  0  0  0  0  0
   -4.7140    2.6520   -0.0430 O   0  0  0  0  0  0  0  0  0  0  0  0
   -5.7540    1.8860    0.5190 C   0  0  0  0  0  0  0  0  0  0  0  0
   -5.4880    0.4130    0.5410 C   0  0  0  0  0  0  0  0  0  0  0  0
   -4.4970    0.0570   -0.5750 C   0  0  2  0  0  0  0  0  0  0  0  0
   -4.4530   -1.3400   -0.8100 N   0  0  0  0  0  0  0  0  0  0  0  0
  1  2  1  0
  2  3  1  0
  3  4  1  0
  4  5  1  0
  5  6  1  0
  6  7  2  0
  6  8  1  0
  8  9  1  0
  9 10  1  0
 10 11  2  0
 10 12  1  0
 12 13  1  0
 13 14  1  0
 15 14  1  6
 15 16  1  0
 15 21  1  0
 16 17  2  0
 16 18  1  0
 18 19  1  0
 19 20  1  0
 20 21  1  0
 21 22  1  1
M  CHG  2   1   1  22   1
M  END
