
     RDKit          3D

 23 23  0  0  0  0  0  0  0  0999 V2000
   -5.3420    2.1460   -0.7670 N   0  0  0  0  0  0  0  0  0  0  0  0
   -4.2630    1.4200   -0.1270 C   0  0  0  0  0  0  0  0  0  0  0  0
   -3.1450    1.1130   -1.0860 C   0  0  0  0  0  0  0  0  0  0  0  0
   -2.0760    0.3740   -0.3620 N   0  0  0  0  0  0  0  0  0  0  0  0
   -1.0970    1.2040    0.2270 C   0  0  0  0  0  0  0  0  0  0  0  0
   -1.2090    2.4910    0.0440 O   0  0  0  0  0  0  0  0  0  0  0  0
    0.0580    0.8300    1.0420 C   0  0  2  0  0  0  0  0  0  0  0  0
    0.6150    2.0330    1.5860 O   0  0  0  0  0  0  0  0  0  0  0  0
    1.1830    0.1390    0.3470 C   0  0  0  0  0  0  0  0  0  0  0  0
    1.7870    0.9600   -0.7720 C   0  0  0  0  0  0  0  0  0  0  0  0
    2.8290    0.1950   -1.3470 O   0  0  0  0  0  0  0  0  0  0  0  0
    3.9000   -0.2050   -0.5650 C   0  0  0  0  0  0  0  0  0  0  0  0
    4.5780    0.6870    0.1270 C   0  0  0  0  0  0  0  0  0  0  0  0
    5.6800    0.3230    0.9390 N   0  0  0  0  0  0  0  0  0  0  0  0
    6.0940   -0.8870    1.0590 C   0  0  0  0  0  0  0  0  0  0  0  0
    5.4390   -2.0010    0.3470 C   0  0  0  0  0  0  0  0  0  0  0  0
    4.3300   -1.5520   -0.4560 N   0  0  0  0  0  0  0  0  0  0  0  0
   -2.1620   -1.0390   -0.3890 C   0  0  2  0  0  0  0  0  0  0  0  0
   -2.1840   -1.7510    0.9200 C   0  0  0  0  0  0  0  0  0  0  0  0
   -3.2770   -1.3380    1.6960 O   0  0  0  0  0  0  0  0  0  0  0  0
   -1.2150   -1.6940   -1.3610 C   0  0  0  0  0  0  0  0  0  0  0  0
   -1.1590   -2.9470   -1.3700 O   0  0  0  0  0  0  0  0  0  0  0  0
   -0.4150   -0.9900   -2.2360 O   0  0  0  0  0  0  0  0  0  0  0  0
  1  2  1  0
  2  3  1  0
  3  4  1  0
  4  5  1  0
  4 18  1  0
  5  6  2  0
  5  7  1  0
  7  8  1  6
  7  9  1  0
  9 10  1  0
 10 11  1  0
 11 12  1  0
 12 13  2  0
 12 17  1  0
 13 14  1  0
 14 15  2  0
 15 16  1  0
 16 17  1  0
 18 19  1  1
 18 21  1  0
 19 20  1  0
 21 22  2  0
 21 23  1  0
M  CHG  1   1   1
M  END
