
     RDKit          3D

 17 18  0  0  0  0  0  0  0  0999 V2000
    5.5810   -0.3200    0.0040 C   0  0  0  0  0  0  0  0  0  0  0  0
    4.6690    0.4410    0.7750 O   0  0  0  0  0  0  0  0  0  0  0  0
    3.3320    0.4030    0.4020 C   0  0  0  0  0  0  0  0  0  0  0  0
    2.8580   -0.3260   -0.6630 C   0  0  0  0  0  0  0  0  0  0  0  0
    1.5240   -0.3480   -1.0150 C   0  0  0  0  0  0  0  0  0  0  0  0
    0.6050    0.3760   -0.2950 C   0  0  0  0  0  0  0  0  0  0  0  0
   -0.8300    0.4370   -0.5630 C   0  0  1  0  0  0  0  0  0  0  0  0
   -1.3660   -0.5890   -1.4820 C   0  0  2  0  0  0  0  0  0  0  0  0
   -1.6390   -0.0200   -2.7240 O   0  0  0  0  0  0  0  0  0  0  0  0
   -2.6890   -1.0300   -0.8420 C   0  0  2  0  0  0  0  0  0  0  0  0
   -3.6790   -1.2130   -1.7800 O   0  0  0  0  0  0  0  0  0  0  0  0
   -2.9490    0.0890    0.1140 C   0  0  2  0  0  0  0  0  0  0  0  0
   -3.4110    1.3500   -0.5370 C   0  0  0  0  0  0  0  0  0  0  0  0
   -1.6060    0.2990    0.6720 N   0  0  1  0  0  0  0  0  0  0  0  0
   -1.1270   -0.8700    1.3460 C   0  0  0  0  0  0  0  0  0  0  0  0
    1.0810    1.1140    0.7810 C   0  0  0  0  0  0  0  0  0  0  0  0
    2.4040    1.1360    1.1310 C   0  0  0  0  0  0  0  0  0  0  0  0
  1  2  1  0
  2  3  1  0
  3  4  2  0
  3 17  1  0
  4  5  1  0
  5  6  2  0
  7  6  1  1
  6 16  1  0
  7  8  1  0
  7 14  1  0
  8  9  1  6
  8 10  1  0
 10 11  1  6
 10 12  1  0
 12 13  1  6
 12 14  1  0
 14 15  1  6
 16 17  2  0
M  CHG  1  14   1
M  END
