
     RDKit          3D

 27 29  0  0  0  0  0  0  0  0999 V2000
    2.1690   -0.4230   -1.6380 C   0  0  0  0  0  0  0  0  0  0  0  0
    1.3440   -1.4400   -1.5540 C   0  0  0  0  0  0  0  0  0  0  0  0
   -0.0360   -1.4990   -1.9750 C   0  0  0  0  0  0  0  0  0  0  0  0
   -1.0800   -0.7530   -1.9060 C   0  0  0  0  0  0  0  0  0  0  0  0
   -2.5060   -1.5690   -2.7290 Cl  0  0  0  0  0  0  0  0  0  0  0  0
   -1.3880    0.5140   -1.2700 C   0  0  0  0  0  0  0  0  0  0  0  0
   -2.6200    1.0110   -1.4170 C   0  0  0  0  0  0  0  0  0  0  0  0
   -3.0700    2.2460   -0.8290 C   0  0  0  0  0  0  0  0  0  0  0  0
   -4.3440    2.7510   -1.0140 C   0  0  0  0  0  0  0  0  0  0  0  0
   -4.6470    3.9480   -0.3990 C   0  0  0  0  0  0  0  0  0  0  0  0
   -3.7460    4.6040    0.3510 N   0  0  0  0  0  0  0  0  0  0  0  0
   -2.4960    4.1430    0.5540 C   0  0  0  0  0  0  0  0  0  0  0  0
   -2.1670    2.9350   -0.0570 C   0  0  0  0  0  0  0  0  0  0  0  0
   -0.8740    2.4340    0.1440 N   0  0  0  0  0  0  0  0  0  0  0  0
    0.0060    3.1120    1.1270 C   0  0  0  0  0  0  0  0  0  0  0  0
   -0.3690    1.2920   -0.5630 C   0  0  0  0  0  0  0  0  0  0  0  0
   -0.0850   -2.9620   -2.5250 C   0  0  0  0  0  0  0  0  0  0  0  0
    0.5560   -3.5970   -1.2980 C   0  0  0  0  0  0  0  0  0  0  0  0
    0.1670   -4.5700   -0.6350 O   0  0  0  0  0  0  0  0  0  0  0  0
    1.7160   -2.7810   -1.1130 N   0  0  0  0  0  0  0  0  0  0  0  0
    2.9960   -3.1640   -0.5890 C   0  0  0  0  0  0  0  0  0  0  0  0
    3.0380   -2.9900    0.8800 C   0  0  0  0  0  0  0  0  0  0  0  0
    4.0840   -3.2850    1.4850 O   0  0  0  0  0  0  0  0  0  0  0  0
    1.9040   -2.5000    1.5610 N   0  0  0  0  0  0  0  0  0  0  0  0
    1.9110   -2.3160    2.9880 C   0  0  0  0  0  0  0  0  0  0  0  0
    2.9590   -1.3030    3.3630 C   0  0  0  0  0  0  0  0  0  0  0  0
    2.5240    0.2170    2.5150 Cl  0  0  0  0  0  0  0  0  0  0  0  0
  1  2  2  0
  2  3  1  0
  2 20  1  0
  3  4  2  3
  3 17  1  0
  4  5  1  0
  4  6  1  0
  6  7  2  0
  6 16  1  0
  7  8  1  0
  8  9  2  0
  8 13  1  0
  9 10  1  0
 10 11  2  0
 11 12  1  0
 12 13  2  0
 13 14  1  0
 14 15  1  0
 14 16  1  0
 17 18  1  0
 18 19  2  0
 18 20  1  0
 20 21  1  0
 21 22  1  0
 22 23  2  0
 22 24  1  0
 24 25  1  0
 25 26  1  0
 26 27  1  0
M  CHG  1  11   1
M  END
