
     RDKit          3D

 27 29  0  0  0  0  0  0  0  0999 V2000
   -3.8380    4.8380    0.1890 C   0  0  0  0  0  0  0  0  0  0  0  0
   -2.4520    4.4710    0.3140 N   0  0  0  0  0  0  0  0  0  0  0  0
   -2.0410    3.2450    0.3160 C   0  0  0  0  0  0  0  0  0  0  0  0
   -0.7130    2.7100    0.4300 C   0  0  0  0  0  0  0  0  0  0  0  0
   -0.7240    1.3700    0.3880 C   0  0  0  0  0  0  0  0  0  0  0  0
    0.4170    0.5500    0.4750 N   0  0  0  0  0  0  0  0  0  0  0  0
    1.0770    0.0800   -0.5330 C   0  0  0  0  0  0  0  0  0  0  0  0
    0.7150    0.3450   -1.9030 C   0  0  0  0  0  0  0  0  0  0  0  0
    1.3710   -0.1560   -2.9210 C   0  0  0  0  0  0  0  0  0  0  0  0
    0.9180    0.1800   -4.5910 Cl  0  0  0  0  0  0  0  0  0  0  0  0
    2.2890   -0.7170   -0.2220 C   0  0  2  0  0  0  0  0  0  0  0  0
    2.3440   -1.0220    1.2920 C   0  0  0  0  0  0  0  0  0  0  0  0
    3.3580   -2.0990    1.5290 C   0  0  0  0  0  0  0  0  0  0  0  0
    4.4110   -1.9680    0.5540 N   0  0  0  0  0  0  0  0  0  0  0  0
    4.6900   -0.5950    0.2400 C   0  0  0  0  0  0  0  0  0  0  0  0
    3.5520    0.0940   -0.4630 C   0  0  0  0  0  0  0  0  0  0  0  0
   -2.0640    0.9430    0.2430 N   0  0  0  0  0  0  0  0  0  0  0  0
   -2.5530   -0.3940    0.1560 C   0  0  0  0  0  0  0  0  0  0  0  0
   -3.4170   -0.7200   -0.8970 C   0  0  0  0  0  0  0  0  0  0  0  0
   -3.9380   -1.9880   -1.0460 C   0  0  0  0  0  0  0  0  0  0  0  0
   -5.0240   -2.3420   -2.3930 Cl  0  0  0  0  0  0  0  0  0  0  0  0
   -3.5830   -2.9400   -0.1210 C   0  0  0  0  0  0  0  0  0  0  0  0
   -2.7310   -2.6090    0.9130 C   0  0  0  0  0  0  0  0  0  0  0  0
   -2.2000   -1.3440    1.0780 C   0  0  0  0  0  0  0  0  0  0  0  0
   -1.3540   -1.0670    2.1260 O   0  0  0  0  0  0  0  0  0  0  0  0
   -2.9320    2.0980    0.1940 C   0  0  0  0  0  0  0  0  0  0  0  0
   -4.1880    2.0950    0.0710 O   0  0  0  0  0  0  0  0  0  0  0  0
  1  2  1  0
  2  3  2  3
  3  4  1  0
  3 26  1  0
  4  5  2  0
  5  6  1  0
  5 17  1  0
  6  7  2  3
  7  8  1  0
 11  7  1  1
  8  9  2  3
  9 10  1  0
 11 12  1  0
 11 16  1  0
 12 13  1  0
 13 14  1  0
 14 15  1  0
 15 16  1  0
 17 18  1  0
 17 26  1  0
 18 19  2  0
 18 24  1  0
 19 20  1  0
 20 21  1  0
 20 22  2  0
 22 23  1  0
 23 24  2  0
 24 25  1  0
 26 27  2  0
M  CHG  1  14   1
M  END
