
     RDKit          3D

 29 30  0  0  0  0  0  0  0  0999 V2000
    1.4370    3.9090    1.8700 C   0  0  0  0  0  0  0  0  0  0  0  0
   -0.0290    3.5810    1.7930 C   0  0  0  0  0  0  0  0  0  0  0  0
   -0.2770    2.0840    1.8380 C   0  0  0  0  0  0  0  0  0  0  0  0
    0.4360    1.4820    0.6560 C   0  0  0  0  0  0  0  0  0  0  0  0
    0.3040    0.0080    0.5340 C   0  0  1  0  0  0  0  0  0  0  0  0
   -1.0310   -0.5700    0.3940 C   0  0  0  0  0  0  0  0  0  0  0  0
   -1.9060   -0.2260   -0.7290 C   0  0  2  0  0  0  0  0  0  0  0  0
   -1.4050   -0.5050   -1.9930 O   0  0  0  0  0  0  0  0  0  0  0  0
   -2.6250    1.0710   -0.6990 C   0  0  0  0  0  0  0  0  0  0  0  0
   -3.8420    0.8880   -1.5910 C   0  0  0  0  0  0  0  0  0  0  0  0
   -4.1540   -0.5610   -1.5310 C   0  0  2  0  0  0  0  0  0  0  0  0
   -5.4790   -0.9060   -1.1560 N   0  0  0  0  0  0  0  0  0  0  0  0
   -6.1830    0.0580   -0.3550 C   0  0  0  0  0  0  0  0  0  0  0  0
   -7.1020   -0.6710    0.4950 N   0  0  0  0  0  0  0  0  0  0  0  0
   -8.1410   -1.5060   -0.0230 C   0  0  0  0  0  0  0  0  0  0  0  0
   -8.2440   -1.5950   -1.2710 O   0  0  0  0  0  0  0  0  0  0  0  0
   -9.0190   -2.2030    0.7920 O   0  0  0  0  0  0  0  0  0  0  0  0
   -3.1160   -1.2000   -0.6370 C   0  0  2  0  0  0  0  0  0  0  0  0
   -3.5190   -1.3930    0.6560 O   0  0  0  0  0  0  0  0  0  0  0  0
    1.2580   -0.4270   -0.4790 N   0  0  0  0  0  0  0  0  0  0  0  0
    2.6020   -0.3450    0.0550 C   0  0  0  0  0  0  0  0  0  0  0  0
    3.5500   -1.2670   -0.6870 C   0  0  0  0  0  0  0  0  0  0  0  0
    4.9220   -1.1860   -0.1450 C   0  0  0  0  0  0  0  0  0  0  0  0
    5.3770   -0.4080    0.8920 C   0  0  0  0  0  0  0  0  0  0  0  0
    6.7160   -0.6850    1.0160 C   0  0  0  0  0  0  0  0  0  0  0  0
    7.0250   -1.6320    0.0360 C   0  0  0  0  0  0  0  0  0  0  0  0
    8.3800   -2.2270   -0.1990 C   0  0  0  0  0  0  0  0  0  0  0  0
    9.1390   -1.3870   -1.1930 C   0  0  0  0  0  0  0  0  0  0  0  0
    5.9200   -1.8830   -0.6130 O   0  0  0  0  0  0  0  0  0  0  0  0
  1  2  1  0
  2  3  1  0
  3  4  1  0
  5  4  1  6
  5  6  1  0
  5 20  1  0
  6  7  1  0
  7  8  1  6
  7  9  1  0
  7 18  1  0
  9 10  1  0
 10 11  1  0
 11 12  1  1
 11 18  1  0
 12 13  1  0
 13 14  1  0
 14 15  1  0
 15 16  2  0
 15 17  1  0
 18 19  1  1
 20 21  1  0
 21 22  1  0
 22 23  1  0
 23 24  2  0
 23 29  1  0
 24 25  1  0
 25 26  2  0
 26 27  1  0
 26 29  1  0
 27 28  1  0
M  CHG  2  12   1  20   1
M  END
