
     RDKit          3D

 29 30  0  0  0  0  0  0  0  0999 V2000
   -3.2730   -1.2210   -0.3780 C   0  0  0  0  0  0  0  0  0  0  0  0
   -2.2950   -0.5860    0.5340 C   0  0  1  0  0  0  0  0  0  0  0  0
   -2.9450    0.6000    1.2590 C   0  0  0  0  0  0  0  0  0  0  0  0
   -2.1260   -1.6140    1.6910 C   0  0  0  0  0  0  0  0  0  0  0  0
   -1.5270   -2.8770    1.1930 C   0  0  0  0  0  0  0  0  0  0  0  0
   -1.0560   -2.7290   -0.2300 C   0  0  0  0  0  0  0  0  0  0  0  0
   -1.2670   -3.5250   -1.0300 O   0  0  0  0  0  0  0  0  0  0  0  0
   -0.2790   -1.4750   -0.5600 C   0  0  0  0  0  0  0  0  0  0  0  0
   -0.9290   -0.2730    0.0400 C   0  0  1  0  0  0  0  0  0  0  0  0
   -0.8500    0.9120   -0.8980 C   0  0  0  0  0  0  0  0  0  0  0  0
   -1.5640    0.9070   -2.0970 N   0  0  0  0  0  0  0  0  0  0  0  0
   -2.7360    1.7820   -2.0680 C   0  0  1  0  0  0  0  0  0  0  0  0
   -2.3300    3.2150   -1.8280 C   0  0  0  0  0  0  0  0  0  0  0  0
   -3.1640    4.0370   -2.7520 C   0  0  0  0  0  0  0  0  0  0  0  0
   -3.7350    3.1610   -3.7420 N   0  0  0  0  0  0  0  0  0  0  0  0
   -3.4310    1.8100   -3.4130 C   0  0  0  0  0  0  0  0  0  0  0  0
   -0.1670    0.1540    1.1960 N   0  0  0  0  0  0  0  0  0  0  0  0
    1.2280   -0.0140    1.4570 C   0  0  0  0  0  0  0  0  0  0  0  0
    1.4810   -0.9850    2.3240 C   0  0  0  0  0  0  0  0  0  0  0  0
    2.7520   -1.4290    2.8200 C   0  0  0  0  0  0  0  0  0  0  0  0
    2.9690   -2.9000    2.4240 C   0  0  0  0  0  0  0  0  0  0  0  0
    4.2970   -3.3270    2.9600 C   0  0  0  0  0  0  0  0  0  0  0  0
    4.4140   -3.2380    4.3370 O   0  0  0  0  0  0  0  0  0  0  0  0
    2.2720    0.7840    0.9020 C   0  0  0  0  0  0  0  0  0  0  0  0
    2.2370    1.7540    0.1340 O   0  0  0  0  0  0  0  0  0  0  0  0
    3.6400    0.4730    1.2440 O   0  0  0  0  0  0  0  0  0  0  0  0
    4.7490    1.1360    0.7700 C   0  0  0  0  0  0  0  0  0  0  0  0
    4.9510    1.0330   -0.7380 C   0  0  0  0  0  0  0  0  0  0  0  0
    6.1230    1.7580   -1.0330 O   0  0  0  0  0  0  0  0  0  0  0  0
  2  1  1  6
  2  3  1  0
  2  4  1  0
  2  9  1  0
  4  5  1  0
  5  6  1  0
  6  7  2  0
  6  8  1  0
  8  9  1  0
  9 10  1  6
  9 17  1  0
 10 11  1  0
 12 11  1  6
 12 13  1  0
 12 16  1  0
 13 14  1  0
 14 15  1  0
 15 16  1  0
 17 18  1  0
 18 19  2  3
 18 24  1  0
 19 20  1  0
 20 21  1  0
 21 22  1  0
 22 23  1  0
 24 25  2  0
 24 26  1  0
 26 27  1  0
 27 28  1  0
 28 29  1  0
M  CHG  2  11   1  15   1
M  END
