
     RDKit          3D

 28 29  0  0  0  0  0  0  0  0999 V2000
    4.1290   -3.0490    2.8640 C   0  0  0  0  0  0  0  0  0  0  0  0
    4.2800   -1.6540    3.0590 O   0  0  0  0  0  0  0  0  0  0  0  0
    4.0300   -0.8320    1.9680 C   0  0  0  0  0  0  0  0  0  0  0  0
    5.0230   -0.7420    1.0910 C   0  0  0  0  0  0  0  0  0  0  0  0
    5.2120   -0.0170   -0.1770 C   0  0  0  0  0  0  0  0  0  0  0  0
    6.5420    0.1930   -0.4810 O   0  0  0  0  0  0  0  0  0  0  0  0
    7.2880    1.0080    0.4220 C   0  0  0  0  0  0  0  0  0  0  0  0
    4.4160    0.4840   -1.0980 C   0  0  0  0  0  0  0  0  0  0  0  0
    5.1300    1.0820   -2.1140 O   0  0  0  0  0  0  0  0  0  0  0  0
    5.7500    0.3200   -3.1540 C   0  0  0  0  0  0  0  0  0  0  0  0
    2.9640    0.5150   -1.2250 C   0  0  0  0  0  0  0  0  0  0  0  0
    2.5660    0.6630   -2.5910 N   0  0  0  0  0  0  0  0  0  0  0  0
    1.9400    0.4430   -0.3800 C   0  0  0  0  0  0  0  0  0  0  0  0
    1.8610    0.3000    1.0650 C   0  0  0  0  0  0  0  0  0  0  0  0
    0.6600    0.7880    1.6920 C   0  0  0  0  0  0  0  0  0  0  0  0
   -0.3540    1.3490    1.0850 C   0  0  0  0  0  0  0  0  0  0  0  0
   -1.5500    1.8170    1.8520 C   0  0  0  0  0  0  0  0  0  0  0  0
   -2.7240    1.1010    1.3670 N   0  0  0  0  0  0  0  0  0  0  0  0
   -2.4510    0.3280    0.2010 C   0  0  0  0  0  0  0  0  0  0  0  0
   -3.4220   -0.7220   -0.1710 C   0  0  0  0  0  0  0  0  0  0  0  0
   -4.8090   -0.3410   -0.5080 C   0  0  1  0  0  0  0  0  0  0  0  0
   -5.5540   -1.6320   -0.8730 C   0  0  0  0  0  0  0  0  0  0  0  0
   -4.8930   -2.3360   -1.9340 N   0  0  0  0  0  0  0  0  0  0  0  0
   -5.6300    0.3540    0.5030 C   0  0  0  0  0  0  0  0  0  0  0  0
   -6.0110    1.6490   -0.1790 C   0  0  0  0  0  0  0  0  0  0  0  0
   -5.8930    1.2500   -1.6450 C   0  0  0  0  0  0  0  0  0  0  0  0
   -4.8010    0.4230   -1.6700 O   0  0  0  0  0  0  0  0  0  0  0  0
    2.7030   -0.2130    1.9940 C   0  0  0  0  0  0  0  0  0  0  0  0
  1  2  1  0
  2  3  1  0
  3  4  2  0
  3 28  1  0
  4  5  1  0
  5  6  1  0
  5  8  2  0
  6  7  1  0
  8  9  1  0
  8 11  1  0
  9 10  1  0
 11 12  1  0
 11 13  2  0
 13 14  1  0
 14 15  1  0
 14 28  2  0
 15 16  2  3
 16 17  1  0
 17 18  1  0
 18 19  1  0
 19 20  1  0
 21 20  1  1
 21 22  1  0
 21 24  1  0
 21 27  1  0
 22 23  1  0
 24 25  1  0
 25 26  1  0
 26 27  1  0
M  CHG  2  18   1  23   1
M  END
