
     RDKit          3D

 30 32  0  0  0  0  0  0  0  0999 V2000
   -1.3330    2.1770    3.6820 C   0  0  0  0  0  0  0  0  0  0  0  0
   -1.1500    0.9900    3.1280 C   0  0  0  0  0  0  0  0  0  0  0  0
   -2.2230    0.0060    2.9400 C   0  0  0  0  0  0  0  0  0  0  0  0
   -3.5720    0.4980    3.3580 C   0  0  0  0  0  0  0  0  0  0  0  0
   -1.9520   -1.1460    2.3880 C   0  0  0  0  0  0  0  0  0  0  0  0
   -3.1170   -2.0390    2.2790 C   0  0  0  0  0  0  0  0  0  0  0  0
   -3.8300   -2.2270    3.3760 C   0  0  0  0  0  0  0  0  0  0  0  0
   -5.0180   -3.1070    3.3470 C   0  0  0  0  0  0  0  0  0  0  0  0
   -3.5830   -2.7870    1.1170 C   0  0  0  0  0  0  0  0  0  0  0  0
   -2.5080   -2.9860    0.0870 C   0  0  0  0  0  0  0  0  0  0  0  0
   -2.7910   -3.1760   -1.2070 C   0  0  0  0  0  0  0  0  0  0  0  0
   -1.5260   -3.3360   -1.9290 C   0  0  0  0  0  0  0  0  0  0  0  0
   -0.4810   -3.2180   -0.9020 C   0  0  0  0  0  0  0  0  0  0  0  0
   -1.0730   -3.0130    0.2760 C   0  0  0  0  0  0  0  0  0  0  0  0
   -0.3440   -2.8360    1.5580 C   0  0  0  0  0  0  0  0  0  0  0  0
   -0.5740   -1.3470    1.9170 C   0  0  1  0  0  0  0  0  0  0  0  0
   -0.3260   -0.5560    0.7280 N   0  0  0  0  0  0  0  0  0  0  0  0
    0.9410   -0.0000    0.4340 C   0  0  0  0  0  0  0  0  0  0  0  0
    1.8600   -0.2470    1.2860 O   0  0  0  0  0  0  0  0  0  0  0  0
    1.2410    0.8240   -0.7690 C   0  0  0  0  0  0  0  0  0  0  0  0
    2.6980    1.1970   -0.7330 C   0  0  0  0  0  0  0  0  0  0  0  0
    3.1320    2.0140   -1.8340 N   0  0  0  0  0  0  0  0  0  0  0  0
    3.6240    1.4730   -3.0530 C   0  0  0  0  0  0  0  0  0  0  0  0
    3.2870    0.2990   -3.3840 O   0  0  0  0  0  0  0  0  0  0  0  0
    4.5310    2.2660   -3.9440 C   0  0  0  0  0  0  0  0  0  0  0  0
    4.0280    3.6210   -4.0210 N   0  0  2  0  0  0  0  0  0  0  0  0
    4.9870    4.4460   -4.7770 C   0  0  0  0  0  0  0  0  0  0  0  0
    3.9660    4.1980   -2.7120 C   0  0  0  0  0  0  0  0  0  0  0  0
    3.1070    3.4490   -1.7750 C   0  0  0  0  0  0  0  0  0  0  0  0
    2.3910    4.0480   -0.9690 O   0  0  0  0  0  0  0  0  0  0  0  0
  1  2  2  0
  2  3  1  0
  3  4  1  0
  3  5  2  3
  5  6  1  0
  5 16  1  0
  6  7  2  3
  6  9  1  0
  7  8  1  0
  9 10  1  0
 10 11  2  0
 10 14  1  0
 11 12  1  0
 12 13  1  0
 13 14  2  0
 14 15  1  0
 15 16  1  0
 16 17  1  6
 17 18  1  0
 18 19  2  0
 18 20  1  0
 20 21  1  0
 21 22  1  0
 22 23  1  0
 22 29  1  0
 23 24  2  0
 23 25  1  0
 25 26  1  0
 26 27  1  6
 26 28  1  0
 28 29  1  0
 29 30  2  0
M  CHG  1  26   1
M  END
