
     RDKit          3D

 25 26  0  0  0  0  0  0  0  0999 V2000
    1.1280   -3.3840    3.3910 C   0  0  0  0  0  0  0  0  0  0  0  0
    0.7980   -2.0900    2.7170 C   0  0  0  0  0  0  0  0  0  0  0  0
    1.4130   -1.9630    1.4390 O   0  0  0  0  0  0  0  0  0  0  0  0
    0.9910   -0.4520    0.8000 P   0  0  0  0  0  0  0  0  0  0  0  0
    0.0940   -0.5840   -0.8820 C   0  0  0  0  0  0  0  0  0  0  0  0
   -1.2500   -0.1090   -0.7370 N   0  0  0  0  0  0  0  0  0  0  0  0
   -2.4810   -0.8890   -0.6310 C   0  0  0  0  0  0  0  0  0  0  0  0
   -2.5720   -2.1170   -0.7140 O   0  0  0  0  0  0  0  0  0  0  0  0
   -3.5730    0.0660   -0.4120 C   0  0  0  0  0  0  0  0  0  0  0  0
   -4.7950    0.3740   -0.6440 C   0  0  0  0  0  0  0  0  0  0  0  0
   -5.6880   -0.4250   -1.4940 C   0  0  0  0  0  0  0  0  0  0  0  0
   -6.9350   -0.0850   -1.5890 O   0  0  0  0  0  0  0  0  0  0  0  0
   -5.2800   -1.5130   -2.2150 O   0  0  0  0  0  0  0  0  0  0  0  0
   -5.1700    1.6260    0.0840 C   0  0  0  0  0  0  0  0  0  0  0  0
   -3.8200    2.3640    0.0510 C   0  0  0  0  0  0  0  0  0  0  0  0
   -2.8830    1.2430    0.2400 C   0  0  2  0  0  0  0  0  0  0  0  0
   -1.6680    1.2360   -0.5610 C   0  0  0  0  0  0  0  0  0  0  0  0
   -1.0550    2.2450   -1.0430 O   0  0  0  0  0  0  0  0  0  0  0  0
    2.2350    0.6550    0.4600 O   0  0  0  0  0  0  0  0  0  0  0  0
    3.5340    0.3130    0.3570 C   0  0  0  0  0  0  0  0  0  0  0  0
    3.8220    0.6340   -1.1450 C   0  0  0  0  0  0  0  0  0  0  0  0
    5.1080    0.4030   -1.5270 O   0  0  0  0  0  0  0  0  0  0  0  0
    6.0910    1.3680   -1.3270 C   0  0  0  0  0  0  0  0  0  0  0  0
    7.4510    1.2420   -1.6750 N   0  0  0  0  0  0  0  0  0  0  0  0
    5.6740    2.4590   -0.7660 O   0  0  0  0  0  0  0  0  0  0  0  0
  1  2  1  0
  2  3  1  0
  3  4  1  0
  4  5  1  0
  4 19  1  0
  5  6  1  0
  6  7  1  0
  6 17  1  0
  7  8  2  0
  7  9  1  0
  9 10  2  0
  9 16  1  0
 10 11  1  0
 10 14  1  0
 11 12  2  0
 11 13  1  0
 14 15  1  0
 16 15  1  6
 16 17  1  0
 17 18  2  0
 19 20  1  0
 20 21  1  0
 21 22  1  0
 22 23  1  0
 23 24  1  0
 23 25  2  0
M  END
