
     RDKit          3D

 25 25  0  0  0  0  0  0  0  0999 V2000
    6.0020    1.6320    0.1630 C   0  0  0  0  0  0  0  0  0  0  0  0
    4.6340    1.0360    0.4160 C   0  0  0  0  0  0  0  0  0  0  0  0
    3.8550    1.1860   -0.7040 O   0  0  0  0  0  0  0  0  0  0  0  0
    2.3070    0.5340   -0.4780 P   0  0  0  0  0  0  0  0  0  0  0  0
    2.3040   -1.2830   -0.1070 C   0  0  0  0  0  0  0  0  0  0  0  0
    1.8760   -2.0840   -1.3030 C   0  0  0  0  0  0  0  0  0  0  0  0
    0.9590   -3.1380   -1.0540 N   0  0  0  0  0  0  0  0  0  0  0  0
   -0.4570   -3.1500   -1.2290 C   0  0  0  0  0  0  0  0  0  0  0  0
   -0.9750   -4.0640   -1.9900 O   0  0  0  0  0  0  0  0  0  0  0  0
   -1.3760   -2.2410   -0.6380 N   0  0  0  0  0  0  0  0  0  0  0  0
   -1.5390   -1.9720    0.7560 C   0  0  0  0  0  0  0  0  0  0  0  0
   -2.4140   -0.7740    1.0140 C   0  0  2  0  0  0  0  0  0  0  0  0
   -3.7980   -1.0810    0.5940 C   0  0  0  0  0  0  0  0  0  0  0  0
   -4.7680   -1.0060    1.4120 O   0  0  0  0  0  0  0  0  0  0  0  0
   -4.1820   -1.4690   -0.6800 O   0  0  0  0  0  0  0  0  0  0  0  0
   -1.8900    0.5470    0.6190 C   0  0  2  0  0  0  0  0  0  0  0  0
   -1.4440    1.3580    1.8580 C   0  0  0  0  0  0  0  0  0  0  0  0
   -2.9730    1.3870    0.0400 C   0  0  0  0  0  0  0  0  0  0  0  0
   -4.1600    1.0730   -0.0850 O   0  0  0  0  0  0  0  0  0  0  0  0
   -2.6200    2.6740   -0.4140 O   0  0  0  0  0  0  0  0  0  0  0  0
   -3.5680    3.5170   -0.9650 C   0  0  0  0  0  0  0  0  0  0  0  0
   -4.7490    3.1050   -1.0480 O   0  0  0  0  0  0  0  0  0  0  0  0
   -0.7600    0.5490   -0.3790 C   0  0  0  0  0  0  0  0  0  0  0  0
    0.1210    1.7710   -0.2630 C   0  0  0  0  0  0  0  0  0  0  0  0
    1.2640    1.4540    0.5100 O   0  0  0  0  0  0  0  0  0  0  0  0
  1  2  1  0
  2  3  1  0
  3  4  1  0
  4  5  1  0
  4 25  1  0
  5  6  1  0
  6  7  1  0
  7  8  1  0
  8  9  2  0
  8 10  1  0
 10 11  1  0
 11 12  1  0
 12 13  1  6
 12 16  1  0
 13 14  2  0
 13 15  1  0
 16 17  1  1
 16 18  1  0
 16 23  1  0
 18 19  2  0
 18 20  1  0
 20 21  1  0
 21 22  2  0
 23 24  1  0
 24 25  1  0
M  END
