
     RDKit          3D

 25 26  0  0  0  0  0  0  0  0999 V2000
   -3.5230    3.1040   -1.9560 O   0  0  0  0  0  0  0  0  0  0  0  0
   -3.0980    2.4330   -0.9400 C   0  0  0  0  0  0  0  0  0  0  0  0
   -3.6910    1.1530   -0.7880 N   0  0  0  0  0  0  0  0  0  0  0  0
   -4.2460    0.6590    0.4820 C   0  0  0  0  0  0  0  0  0  0  0  0
   -3.8420   -0.7990    0.5840 C   0  0  0  0  0  0  0  0  0  0  0  0
   -2.0220   -0.8370    0.6530 P   0  0  0  0  0  0  0  0  0  0  0  0
   -1.4930   -1.7540    1.9990 O   0  0  0  0  0  0  0  0  0  0  0  0
   -1.2310   -1.1850   -0.8630 O   0  0  0  0  0  0  0  0  0  0  0  0
   -0.3490   -2.2080   -1.1240 C   0  0  0  0  0  0  0  0  0  0  0  0
    0.9510   -2.2320   -0.8810 C   0  0  0  0  0  0  0  0  0  0  0  0
    1.6700   -3.5230   -1.2680 C   0  0  0  0  0  0  0  0  0  0  0  0
    0.7720   -4.4320   -1.8100 O   0  0  0  0  0  0  0  0  0  0  0  0
    1.7690   -1.1290   -0.2920 C   0  0  0  0  0  0  0  0  0  0  0  0
    2.4280   -1.5240    0.8140 C   0  0  0  0  0  0  0  0  0  0  0  0
    3.3210   -0.8400    1.7140 C   0  0  0  0  0  0  0  0  0  0  0  0
    3.6700    0.4420    1.5630 O   0  0  0  0  0  0  0  0  0  0  0  0
    1.9330    0.2120   -0.8660 C   0  0  0  0  0  0  0  0  0  0  0  0
    1.1070    1.3060   -0.6290 N   0  0  0  0  0  0  0  0  0  0  0  0
    1.7740    2.4120    0.1810 C   0  0  0  0  0  0  0  0  0  0  0  0
    1.0640    3.6670   -0.3130 C   0  0  0  0  0  0  0  0  0  0  0  0
   -0.1630    3.7400    0.3410 O   0  0  0  0  0  0  0  0  0  0  0  0
   -0.8580    2.5050    0.1840 C   0  0  1  0  0  0  0  0  0  0  0  0
   -2.1670    2.8570   -0.0570 O   0  0  0  0  0  0  0  0  0  0  0  0
   -0.1840    1.7390   -0.9440 C   0  0  0  0  0  0  0  0  0  0  0  0
   -0.9420    1.6600   -1.9320 O   0  0  0  0  0  0  0  0  0  0  0  0
  1  2  2  0
  2  3  1  0
  2 23  1  0
  3  4  1  0
  4  5  1  0
  5  6  1  0
  6  7  1  0
  6  8  1  0
  8  9  1  0
  9 10  2  0
 10 11  1  0
 10 13  1  0
 11 12  1  0
 13 14  2  3
 13 17  1  0
 14 15  1  0
 15 16  1  0
 17 18  1  0
 18 19  1  0
 18 24  1  0
 19 20  1  0
 20 21  1  0
 22 21  1  6
 22 23  1  0
 22 24  1  0
 24 25  2  0
M  END
