
     RDKit          3D

 25 26  0  0  0  0  0  0  0  0999 V2000
   -1.2240   -3.1270    2.5200 C   0  0  0  0  0  0  0  0  0  0  0  0
   -1.5500   -2.2710    1.4490 O   0  0  0  0  0  0  0  0  0  0  0  0
   -0.7950   -1.1670    1.0960 C   0  0  0  0  0  0  0  0  0  0  0  0
    0.2340   -0.9200    1.7690 O   0  0  0  0  0  0  0  0  0  0  0  0
   -1.1810   -0.2930   -0.0440 C   0  0  2  0  0  0  0  0  0  0  0  0
   -0.3490    0.7860   -0.3210 N   0  0  0  0  0  0  0  0  0  0  0  0
   -0.9480    2.1350   -0.0860 C   0  0  0  0  0  0  0  0  0  0  0  0
   -0.6600    2.6430    1.2870 C   0  0  0  0  0  0  0  0  0  0  0  0
   -1.4690    4.3090    1.4450 P   0  0  0  0  0  0  0  0  0  0  0  0
   -3.0400    4.1930    2.1540 O   0  0  0  0  0  0  0  0  0  0  0  0
   -1.6460    5.0820   -0.0990 O   0  0  0  0  0  0  0  0  0  0  0  0
    0.9700    0.8240   -0.7660 C   0  0  0  0  0  0  0  0  0  0  0  0
    1.4040    2.0870   -0.9180 O   0  0  0  0  0  0  0  0  0  0  0  0
    1.9630   -0.1320   -1.0970 C   0  0  0  0  0  0  0  0  0  0  0  0
    3.2230    0.3220   -1.5540 C   0  0  0  0  0  0  0  0  0  0  0  0
    4.2430   -0.5410   -1.8890 C   0  0  0  0  0  0  0  0  0  0  0  0
    4.0860   -1.8830   -1.7960 C   0  0  0  0  0  0  0  0  0  0  0  0
    5.1450   -2.7410   -2.1450 O   0  0  0  0  0  0  0  0  0  0  0  0
    2.8970   -2.3780   -1.3640 C   0  0  0  0  0  0  0  0  0  0  0  0
    1.8730   -1.4900   -1.0280 C   0  0  0  0  0  0  0  0  0  0  0  0
   -2.6570    0.0810    0.2760 C   0  0  0  0  0  0  0  0  0  0  0  0
   -3.1390   -1.2640    0.3850 O   0  0  0  0  0  0  0  0  0  0  0  0
   -2.6590   -1.8800   -0.7450 N   0  0  0  0  0  0  0  0  0  0  0  0
   -1.5460   -1.1520   -1.2380 C   0  0  0  0  0  0  0  0  0  0  0  0
   -1.0550   -1.2480   -2.3660 O   0  0  0  0  0  0  0  0  0  0  0  0
  1  2  1  0
  2  3  1  0
  3  4  2  0
  3  5  1  0
  5  6  1  6
  5 21  1  0
  5 24  1  0
  6  7  1  0
  6 12  1  0
  7  8  1  0
  8  9  1  0
  9 10  1  0
  9 11  1  0
 12 13  2  0
 12 14  1  0
 14 15  2  0
 14 20  1  0
 15 16  1  0
 16 17  2  0
 17 18  1  0
 17 19  1  0
 19 20  2  0
 21 22  1  0
 22 23  1  0
 23 24  1  0
 24 25  2  0
M  END
