
     RDKit          3D

 21 22  0  0  0  0  0  0  0  0999 V2000
   -4.9920    1.4760   -0.0040 C   0  0  0  0  0  0  0  0  0  0  0  0
   -4.9230    0.0660   -0.0790 O   0  0  0  0  0  0  0  0  0  0  0  0
   -3.7340   -0.5910   -0.2800 C   0  0  0  0  0  0  0  0  0  0  0  0
   -2.5610    0.1120   -0.4160 C   0  0  0  0  0  0  0  0  0  0  0  0
   -1.3810   -0.5720   -0.6170 C   0  0  0  0  0  0  0  0  0  0  0  0
   -0.0740    0.1600   -0.7700 C   0  0  0  0  0  0  0  0  0  0  0  0
    0.4830    0.3030    0.5240 O   0  0  0  0  0  0  0  0  0  0  0  0
    1.7110    0.9550    0.6600 C   0  0  0  0  0  0  0  0  0  0  0  0
    1.5960    2.2000    1.1310 C   0  0  0  0  0  0  0  0  0  0  0  0
    2.6560    3.1660    1.3980 C   0  0  0  0  0  0  0  0  0  0  0  0
    2.3020    4.2070    2.0040 O   0  0  0  0  0  0  0  0  0  0  0  0
    3.9850    3.0120    1.0350 O   0  0  0  0  0  0  0  0  0  0  0  0
    4.6900    2.1090    0.2620 C   0  0  0  0  0  0  0  0  0  0  0  0
    4.1220    0.7730    0.1450 C   0  0  0  0  0  0  0  0  0  0  0  0
    5.3550   -0.4590   -0.3160 S   0  0  0  0  0  0  0  0  0  0  0  0
    4.6220   -2.1030   -0.4530 C   0  0  0  0  0  0  0  0  0  0  0  0
    2.9140    0.2590    0.2980 C   0  0  0  0  0  0  0  0  0  0  0  0
   -1.4280   -1.9500   -0.6740 C   0  0  0  0  0  0  0  0  0  0  0  0
   -2.5990   -2.6610   -0.5390 C   0  0  0  0  0  0  0  0  0  0  0  0
   -3.7870   -1.9840   -0.3370 C   0  0  0  0  0  0  0  0  0  0  0  0
   -5.0100   -2.6860   -0.1950 N   0  0  0  0  0  0  0  0  0  0  0  0
  1  2  1  0
  2  3  1  0
  3  4  2  0
  3 20  1  0
  4  5  1  0
  5  6  1  0
  5 18  2  0
  6  7  1  0
  7  8  1  0
  8  9  2  0
  8 17  1  0
  9 10  1  0
 10 11  2  0
 10 12  1  0
 12 13  1  0
 13 14  1  0
 14 15  1  0
 14 17  2  0
 15 16  1  0
 18 19  1  0
 19 20  2  0
 20 21  1  0
M  END
