
     RDKit          3D

 21 22  0  0  0  0  0  0  0  0999 V2000
    7.7550   -0.4280    0.3630 C   0  0  0  0  0  0  0  0  0  0  0  0
    6.2700   -0.3190    0.3540 C   0  0  0  0  0  0  0  0  0  0  0  0
    5.4360    0.0650    1.4050 C   0  0  0  0  0  0  0  0  0  0  0  0
    4.1950    0.0300    0.9830 O   0  0  0  0  0  0  0  0  0  0  0  0
    4.1130   -0.3450   -0.2630 C   0  0  0  0  0  0  0  0  0  0  0  0
    2.8790   -0.4970   -1.0630 C   0  0  0  0  0  0  0  0  0  0  0  0
    1.7100   -0.2500   -0.5440 C   0  0  0  0  0  0  0  0  0  0  0  0
    0.5060   -0.4030   -1.3410 C   0  0  0  0  0  0  0  0  0  0  0  0
    0.5920   -0.7720   -2.5280 O   0  0  0  0  0  0  0  0  0  0  0  0
   -0.8040   -0.1330   -0.7830 N   0  0  0  0  0  0  0  0  0  0  0  0
   -1.9250   -0.2900   -1.5730 C   0  0  0  0  0  0  0  0  0  0  0  0
   -1.7470   -0.6710   -2.7860 O   0  0  0  0  0  0  0  0  0  0  0  0
   -3.2870   -0.0450   -1.0970 C   0  0  0  0  0  0  0  0  0  0  0  0
   -4.6970   -0.2610   -2.2010 S   0  0  0  0  0  0  0  0  0  0  0  0
   -5.9290    0.1840   -1.0170 C   0  0  0  0  0  0  0  0  0  0  0  0
   -7.3010    0.2270   -1.2330 O   0  0  0  0  0  0  0  0  0  0  0  0
   -5.2090    0.4580    0.1000 C   0  0  0  0  0  0  0  0  0  0  0  0
   -5.9720    0.8950    1.3540 C   0  0  0  0  0  0  0  0  0  0  0  0
   -3.8600    0.3450    0.0750 C   0  0  0  0  0  0  0  0  0  0  0  0
   -2.9770    0.6250    1.2980 C   0  0  0  0  0  0  0  0  0  0  0  0
    5.4040   -0.5720   -0.6880 C   0  0  0  0  0  0  0  0  0  0  0  0
  1  2  1  0
  2  3  2  0
  2 21  1  0
  3  4  1  0
  4  5  1  0
  5  6  1  0
  5 21  2  0
  6  7  2  3
  7  8  1  0
  8  9  2  0
  8 10  1  0
 10 11  1  0
 11 12  2  0
 11 13  1  0
 13 14  1  0
 13 19  2  0
 14 15  1  0
 15 16  1  0
 15 17  2  0
 17 18  1  0
 17 19  1  0
 19 20  1  0
M  END
