
     RDKit          3D

 21 22  0  0  0  0  0  0  0  0999 V2000
    5.3520   -1.6930    0.1990 C   0  0  0  0  0  0  0  0  0  0  0  0
    4.7120   -0.5760   -0.0190 C   0  0  0  0  0  0  0  0  0  0  0  0
    5.4660    0.6960   -0.0450 C   0  0  0  0  0  0  0  0  0  0  0  0
    6.8010    0.4860    0.1790 O   0  0  0  0  0  0  0  0  0  0  0  0
    3.2820   -0.5970   -0.2300 N   0  0  0  0  0  0  0  0  0  0  0  0
    2.7350   -1.3330   -1.2990 C   0  0  0  0  0  0  0  0  0  0  0  0
    3.2790   -1.8340   -2.3040 O   0  0  0  0  0  0  0  0  0  0  0  0
    0.9840   -1.4420   -0.9550 S   0  0  0  0  0  0  0  0  0  0  0  0
    0.9640   -0.0460    0.2010 C   0  0  0  0  0  0  0  0  0  0  0  0
   -0.0620    0.6700    0.6020 C   0  0  0  0  0  0  0  0  0  0  0  0
   -1.4240    0.4720    0.1760 C   0  0  0  0  0  0  0  0  0  0  0  0
   -2.4510    0.4780    1.1340 C   0  0  0  0  0  0  0  0  0  0  0  0
   -3.7530    0.3160    0.7890 C   0  0  0  0  0  0  0  0  0  0  0  0
   -4.8470    0.3220    1.8120 C   0  0  0  0  0  0  0  0  0  0  0  0
   -4.0940    0.1380   -0.5380 C   0  0  0  0  0  0  0  0  0  0  0  0
   -5.5420   -0.0380   -0.8820 C   0  0  0  0  0  0  0  0  0  0  0  0
   -3.1280    0.1260   -1.5060 C   0  0  0  0  0  0  0  0  0  0  0  0
   -1.7910    0.2960   -1.1230 C   0  0  0  0  0  0  0  0  0  0  0  0
   -0.8320    0.2830   -2.1190 O   0  0  0  0  0  0  0  0  0  0  0  0
    2.3620    0.0910    0.5770 C   0  0  0  0  0  0  0  0  0  0  0  0
    2.7150    0.8070    1.5940 O   0  0  0  0  0  0  0  0  0  0  0  0
  1  2  2  0
  2  3  1  0
  2  5  1  0
  3  4  1  0
  5  6  1  0
  5 20  1  0
  6  7  2  0
  6  8  1  0
  8  9  1  0
  9 10  2  3
  9 20  1  0
 10 11  1  0
 11 12  2  0
 11 18  1  0
 12 13  1  0
 13 14  1  0
 13 15  2  0
 15 16  1  0
 15 17  1  0
 17 18  2  0
 18 19  1  0
 20 21  2  0
M  END
