
     RDKit          3D

 21 22  0  0  0  0  0  0  0  0999 V2000
   -5.3730   -2.6610    0.7570 C   0  0  0  0  0  0  0  0  0  0  0  0
   -4.0850   -2.3330    1.1800 O   0  0  0  0  0  0  0  0  0  0  0  0
   -3.2910   -1.3620    0.5810 C   0  0  0  0  0  0  0  0  0  0  0  0
   -3.7150   -0.6260   -0.5010 C   0  0  0  0  0  0  0  0  0  0  0  0
   -2.8660    0.3140   -1.0280 C   0  0  0  0  0  0  0  0  0  0  0  0
   -1.6110    0.5460   -0.5130 C   0  0  0  0  0  0  0  0  0  0  0  0
   -0.8070    1.5530   -1.1040 O   0  0  0  0  0  0  0  0  0  0  0  0
   -1.2580    2.2900   -2.1960 C   0  0  0  0  0  0  0  0  0  0  0  0
   -1.1620   -0.1690    0.5540 C   0  0  0  0  0  0  0  0  0  0  0  0
    0.1600   -0.1520    1.0810 C   0  0  0  0  0  0  0  0  0  0  0  0
    0.2440   -0.5590    2.3220 O   0  0  0  0  0  0  0  0  0  0  0  0
    1.3910    0.2530    0.4190 C   0  0  0  0  0  0  0  0  0  0  0  0
    2.5430    0.3890    1.0540 C   0  0  0  0  0  0  0  0  0  0  0  0
    3.6800    0.8010    0.2920 C   0  0  0  0  0  0  0  0  0  0  0  0
    4.9420    0.7310    0.4780 C   0  0  0  0  0  0  0  0  0  0  0  0
    5.5060    0.1140    1.7070 C   0  0  0  0  0  0  0  0  0  0  0  0
    5.8430    1.2240   -0.4530 O   0  0  0  0  0  0  0  0  0  0  0  0
    2.8970    1.5370   -1.1820 S   0  0  0  0  0  0  0  0  0  0  0  0
    1.5420    0.3110   -1.0530 C   0  0  0  0  0  0  0  0  0  0  0  0
    0.9810   -0.3430   -1.9940 N   0  0  0  0  0  0  0  0  0  0  0  0
   -2.0430   -1.1250    1.0820 C   0  0  0  0  0  0  0  0  0  0  0  0
  1  2  1  0
  2  3  1  0
  3  4  2  0
  3 21  1  0
  4  5  1  0
  5  6  2  0
  6  7  1  0
  6  9  1  0
  7  8  1  0
  9 10  1  0
  9 21  2  0
 10 11  2  0
 10 12  1  0
 12 13  2  0
 12 19  1  0
 13 14  1  0
 14 15  2  3
 14 18  1  0
 15 16  1  0
 15 17  1  0
 18 19  1  0
 19 20  2  0
M  END
