
     RDKit          3D

 21 22  0  0  0  0  0  0  0  0999 V2000
    1.5350    0.4270   -1.3600 O   0  0  0  0  0  0  0  0  0  0  0  0
    1.4220   -0.0950   -0.2380 C   0  0  0  0  0  0  0  0  0  0  0  0
    0.0450   -0.2270    0.3390 C   0  0  0  0  0  0  0  0  0  0  0  0
   -0.9770    0.3360   -0.6230 C   0  0  0  0  0  0  0  0  0  0  0  0
   -2.3370    0.2200   -0.0830 C   0  0  0  0  0  0  0  0  0  0  0  0
   -2.5250   -0.2990    1.0480 O   0  0  0  0  0  0  0  0  0  0  0  0
   -3.4630    0.6590   -0.7610 O   0  0  0  0  0  0  0  0  0  0  0  0
   -4.7440    0.5320   -0.2160 C   0  0  0  0  0  0  0  0  0  0  0  0
   -5.5080   -0.5170   -0.4030 C   0  0  0  0  0  0  0  0  0  0  0  0
   -6.8630   -0.6740    0.1620 C   0  0  0  0  0  0  0  0  0  0  0  0
   -7.2560    0.4230    0.9260 O   0  0  0  0  0  0  0  0  0  0  0  0
   -6.4540    1.5190    1.1190 C   0  0  0  0  0  0  0  0  0  0  0  0
   -5.2390    1.6330    0.5980 C   0  0  0  0  0  0  0  0  0  0  0  0
    2.5640   -0.5430    0.4550 N   0  0  0  0  0  0  0  0  0  0  0  0
    3.9050   -0.4700    0.0050 C   0  0  0  0  0  0  0  0  0  0  0  0
    4.3350   -0.0390   -1.2160 C   0  0  0  0  0  0  0  0  0  0  0  0
    5.6890    0.0090   -1.5830 C   0  0  0  0  0  0  0  0  0  0  0  0
    6.6570   -0.3900   -0.6940 C   0  0  0  0  0  0  0  0  0  0  0  0
    8.3970   -0.3570   -1.0860 S   0  0  0  0  0  0  0  0  0  0  0  0
    6.2350   -0.8270    0.5410 C   0  0  0  0  0  0  0  0  0  0  0  0
    4.9200   -0.8710    0.8910 C   0  0  0  0  0  0  0  0  0  0  0  0
  1  2  2  0
  2  3  1  0
  2 14  1  0
  3  4  1  0
  4  5  1  0
  5  6  2  0
  5  7  1  0
  7  8  1  0
  8  9  2  0
  8 13  1  0
  9 10  1  0
 10 11  1  0
 11 12  1  0
 12 13  2  0
 14 15  1  0
 15 16  2  0
 15 21  1  0
 16 17  1  0
 17 18  2  0
 18 19  1  0
 18 20  1  0
 20 21  2  0
M  END
