
     RDKit          3D

 21 22  0  0  0  0  0  0  0  0999 V2000
    5.2230   -1.8070   -0.8690 C   0  0  0  0  0  0  0  0  0  0  0  0
    4.0860   -1.4930   -1.6260 O   0  0  0  0  0  0  0  0  0  0  0  0
    3.1410   -0.5960   -1.1160 C   0  0  0  0  0  0  0  0  0  0  0  0
    2.0080   -0.2550   -1.8210 C   0  0  0  0  0  0  0  0  0  0  0  0
    1.0690    0.6270   -1.3290 C   0  0  0  0  0  0  0  0  0  0  0  0
    1.2650    1.1920   -0.0920 C   0  0  0  0  0  0  0  0  0  0  0  0
    0.1360    2.3170    0.6120 S   0  0  2  0  0  0  0  0  0  0  0  0
   -0.5340    3.1600   -0.4410 O   0  0  0  0  0  0  0  0  0  0  0  0
    0.9030    3.2010    1.5640 O   0  0  0  0  0  0  0  0  0  0  0  0
   -1.0070    1.4070    1.5130 N   0  0  0  0  0  0  0  0  0  0  0  0
   -1.8630    0.4360    0.9060 C   0  0  0  0  0  0  0  0  0  0  0  0
   -1.4190   -0.8620    0.8260 C   0  0  0  0  0  0  0  0  0  0  0  0
   -0.1090   -1.3280    1.3270 C   0  0  0  0  0  0  0  0  0  0  0  0
   -2.2630   -1.7810    0.2370 C   0  0  0  0  0  0  0  0  0  0  0  0
   -3.5150   -1.3890   -0.2530 C   0  0  0  0  0  0  0  0  0  0  0  0
   -4.3250   -2.3580   -0.8370 O   0  0  0  0  0  0  0  0  0  0  0  0
   -3.9160   -0.0790   -0.1500 C   0  0  0  0  0  0  0  0  0  0  0  0
   -3.0930    0.8360    0.4280 C   0  0  0  0  0  0  0  0  0  0  0  0
   -3.5440    2.2680    0.5350 C   0  0  0  0  0  0  0  0  0  0  0  0
    2.3910    0.8570    0.6150 C   0  0  0  0  0  0  0  0  0  0  0  0
    3.3270   -0.0290    0.1160 C   0  0  0  0  0  0  0  0  0  0  0  0
  1  2  1  0
  2  3  1  0
  3  4  2  0
  3 21  1  0
  4  5  1  0
  5  6  2  0
  6  7  1  0
  6 20  1  0
  7  8  2  0
  7  9  2  0
  7 10  1  1
 10 11  1  0
 11 12  2  0
 11 18  1  0
 12 13  1  0
 12 14  1  0
 14 15  2  0
 15 16  1  0
 15 17  1  0
 17 18  2  0
 18 19  1  0
 20 21  2  0
M  END
