
     RDKit          3D

 21 22  0  0  0  0  0  0  0  0999 V2000
    3.4280   -0.1020   -2.2770 C   0  0  0  0  0  0  0  0  0  0  0  0
    4.1310    0.3200   -1.2410 C   0  0  0  0  0  0  0  0  0  0  0  0
    5.1500    1.2510   -1.4150 O   0  0  0  0  0  0  0  0  0  0  0  0
    5.8990    1.7090   -0.3590 C   0  0  0  0  0  0  0  0  0  0  0  0
    5.6590    1.2670    0.8530 C   0  0  0  0  0  0  0  0  0  0  0  0
    4.6090    0.2980    1.0800 C   0  0  0  0  0  0  0  0  0  0  0  0
    3.8590   -0.1770    0.1010 C   0  0  0  0  0  0  0  0  0  0  0  0
    2.8140   -1.1520    0.3940 C   0  0  0  0  0  0  0  0  0  0  0  0
    1.4860   -0.6880    0.0210 N   0  0  0  0  0  0  0  0  0  0  0  0
    0.3630   -1.5270    0.2500 C   0  0  0  0  0  0  0  0  0  0  0  0
    0.5820   -2.6550    0.7760 O   0  0  0  0  0  0  0  0  0  0  0  0
   -1.0350   -1.1180   -0.1070 C   0  0  0  0  0  0  0  0  0  0  0  0
   -1.8010   -0.2150    1.2790 S   0  0  0  0  0  0  0  0  0  0  0  0
   -3.4650    0.2140    0.7520 C   0  0  0  0  0  0  0  0  0  0  0  0
   -3.7580    1.3850    0.0940 C   0  0  0  0  0  0  0  0  0  0  0  0
   -5.0290    1.7330   -0.3170 C   0  0  0  0  0  0  0  0  0  0  0  0
   -5.2750    2.9450   -0.9880 O   0  0  0  0  0  0  0  0  0  0  0  0
   -6.0470    0.8480   -0.0450 C   0  0  0  0  0  0  0  0  0  0  0  0
   -5.7830   -0.3430    0.6190 C   0  0  0  0  0  0  0  0  0  0  0  0
   -4.5040   -0.6710    1.0210 C   0  0  0  0  0  0  0  0  0  0  0  0
   -4.2540   -1.8620    1.6820 O   0  0  0  0  0  0  0  0  0  0  0  0
  1  2  2  0
  2  3  1  0
  2  7  1  0
  3  4  1  0
  4  5  2  0
  5  6  1  0
  6  7  2  0
  7  8  1  0
  8  9  1  0
  9 10  1  0
 10 11  2  0
 10 12  1  0
 12 13  1  0
 13 14  1  0
 14 15  2  0
 14 20  1  0
 15 16  1  0
 16 17  1  0
 16 18  2  0
 18 19  1  0
 19 20  2  0
 20 21  1  0
M  END
