
     RDKit          3D

 21 22  0  0  0  0  0  0  0  0999 V2000
    5.3250    2.2870   -1.0060 C   0  0  0  0  0  0  0  0  0  0  0  0
    4.1780    1.3700   -0.7010 C   0  0  0  0  0  0  0  0  0  0  0  0
    2.5500    1.5820   -1.2820 S   0  0  0  0  0  0  0  0  0  0  0  0
    1.8410    0.1010   -0.4890 C   0  0  0  0  0  0  0  0  0  0  0  0
    0.4690   -0.1260   -0.6840 N   0  0  0  0  0  0  0  0  0  0  0  0
   -0.1780   -1.3340   -0.7080 C   0  0  0  0  0  0  0  0  0  0  0  0
    0.3880   -2.4320   -0.6030 O   0  0  0  0  0  0  0  0  0  0  0  0
   -1.6640   -1.3810   -0.8710 C   0  0  0  0  0  0  0  0  0  0  0  0
   -2.3030   -2.5300   -0.8970 C   0  0  0  0  0  0  0  0  0  0  0  0
   -1.6160   -3.7180   -0.7750 O   0  0  0  0  0  0  0  0  0  0  0  0
   -2.3810   -0.2030   -0.9960 O   0  0  0  0  0  0  0  0  0  0  0  0
   -3.7220   -0.0720   -0.5620 C   0  0  1  0  0  0  0  0  0  0  0  0
   -3.8150   -0.3430    0.9210 C   0  0  0  0  0  0  0  0  0  0  0  0
   -3.4340    0.9940    1.5200 C   0  0  0  0  0  0  0  0  0  0  0  0
   -4.2690    1.9460    0.6680 C   0  0  0  0  0  0  0  0  0  0  0  0
   -4.1620    1.3660   -0.7380 C   0  0  0  0  0  0  0  0  0  0  0  0
    2.9090   -0.4040    0.1480 C   0  0  0  0  0  0  0  0  0  0  0  0
    2.7550   -1.5100    1.1610 C   0  0  0  0  0  0  0  0  0  0  0  0
    1.6520   -1.8910    1.5430 O   0  0  0  0  0  0  0  0  0  0  0  0
    4.1040    0.2630    0.0200 C   0  0  0  0  0  0  0  0  0  0  0  0
    5.3720   -0.2610    0.6980 C   0  0  0  0  0  0  0  0  0  0  0  0
  1  2  1  0
  2  3  1  0
  2 20  2  0
  3  4  1  0
  4  5  1  0
  4 17  2  0
  5  6  1  0
  6  7  2  0
  6  8  1  0
  8  9  2  3
  8 11  1  0
  9 10  1  0
 12 11  1  1
 12 13  1  0
 12 16  1  0
 13 14  1  0
 14 15  1  0
 15 16  1  0
 17 18  1  0
 17 20  1  0
 18 19  2  0
 20 21  1  0
M  END
