
     RDKit          3D

 39 44  0  0  0  0  0  0  0  0999 V2000
    7.4260    3.4790   -1.8800 C   0  0  0  0  0  0  0  0  0  0  0  0
    7.0700    2.2210   -1.1470 C   0  0  0  0  0  0  0  0  0  0  0  0
    8.0460    1.2800   -0.8160 C   0  0  0  0  0  0  0  0  0  0  0  0
    7.7040    0.1280   -0.1410 C   0  0  0  0  0  0  0  0  0  0  0  0
    6.3830   -0.0880    0.2040 C   0  0  0  0  0  0  0  0  0  0  0  0
    5.3860    0.8150   -0.1040 C   0  0  0  0  0  0  0  0  0  0  0  0
    4.0120    0.5480    0.2780 C   0  0  0  0  0  0  0  0  0  0  0  0
    3.5240   -0.5480    0.9480 C   0  0  0  0  0  0  0  0  0  0  0  0
    2.1480   -0.3920    1.1050 C   0  0  0  0  0  0  0  0  0  0  0  0
    1.2330   -1.3440    1.7720 C   0  0  0  0  0  0  0  0  0  0  0  0
    0.7430   -2.2750    0.7770 N   0  0  0  0  0  0  0  0  0  0  0  0
    0.0060   -1.8500   -0.3690 C   0  0  0  0  0  0  0  0  0  0  0  0
   -1.2870   -1.1940   -0.0670 C   0  0  0  0  0  0  0  0  0  0  0  0
   -1.7140   -1.2060    1.2040 N   0  0  0  0  0  0  0  0  0  0  0  0
   -2.8940   -0.6170    1.5330 C   0  0  0  0  0  0  0  0  0  0  0  0
   -3.6220   -0.0180    0.5200 C   0  0  0  0  0  0  0  0  0  0  0  0
   -3.1910   -0.0030   -0.7870 C   0  0  0  0  0  0  0  0  0  0  0  0
   -3.9060    0.6090   -1.8950 C   0  0  0  0  0  0  0  0  0  0  0  0
   -5.2250    0.4390   -2.1650 C   0  0  0  0  0  0  0  0  0  0  0  0
   -5.8030    1.0790   -3.2410 C   0  0  0  0  0  0  0  0  0  0  0  0
   -5.0970    1.9080   -4.0870 C   0  0  0  0  0  0  0  0  0  0  0  0
   -5.6500    2.5440   -5.1470 F   0  0  0  0  0  0  0  0  0  0  0  0
   -3.7580    2.0750   -3.8060 C   0  0  0  0  0  0  0  0  0  0  0  0
   -3.0460    2.8900   -4.6310 F   0  0  0  0  0  0  0  0  0  0  0  0
   -3.1780    1.4490   -2.7470 C   0  0  0  0  0  0  0  0  0  0  0  0
   -2.0120   -0.6060   -1.0350 N   0  0  0  0  0  0  0  0  0  0  0  0
   -4.8860    0.6270    0.8970 C   0  0  0  0  0  0  0  0  0  0  0  0
   -4.6920    1.2780    2.1820 N   0  0  1  0  0  0  0  0  0  0  0  0
   -5.8860    2.0080    2.4980 C   0  0  0  0  0  0  0  0  0  0  0  0
   -4.4490    0.2960    3.2240 C   0  0  0  0  0  0  0  0  0  0  0  0
   -3.3840   -0.6080    2.8620 N   0  0  0  0  0  0  0  0  0  0  0  0
    0.9980   -3.6490    0.9350 C   0  0  0  0  0  0  0  0  0  0  0  0
    0.7180   -4.7590    0.2520 N   0  0  0  0  0  0  0  0  0  0  0  0
    1.0620   -5.9210    0.5980 C   0  0  0  0  0  0  0  0  0  0  0  0
    1.7780   -6.1620    1.7430 C   0  0  0  0  0  0  0  0  0  0  0  0
    1.9200   -4.3810    2.3270 S   0  0  0  0  0  0  0  0  0  0  0  0
    1.8530    0.7810    0.5300 N   0  0  0  0  0  0  0  0  0  0  0  0
    2.9510    1.3330    0.0440 N   0  0  0  0  0  0  0  0  0  0  0  0
    5.7690    1.9530   -0.7780 C   0  0  0  0  0  0  0  0  0  0  0  0
  1  2  1  0
  2  3  2  0
  2 39  1  0
  3  4  1  0
  4  5  2  0
  5  6  1  0
  6  7  1  0
  6 39  2  0
  7  8  2  0
  7 38  1  0
  8  9  1  0
  9 10  1  0
  9 37  2  0
 10 11  1  0
 11 12  1  0
 11 32  1  0
 12 13  1  0
 13 14  2  0
 13 26  1  0
 14 15  1  0
 15 16  2  0
 15 31  1  0
 16 17  1  0
 16 27  1  0
 17 18  1  0
 17 26  2  0
 18 19  2  0
 18 25  1  0
 19 20  1  0
 20 21  2  0
 21 22  1  0
 21 23  1  0
 23 24  1  0
 23 25  2  0
 27 28  1  0
 28 29  1  1
 28 30  1  0
 30 31  1  0
 32 33  2  0
 32 36  1  0
 33 34  1  0
 34 35  2  0
 35 36  1  0
 37 38  1  0
M  CHG  1  28   1
M  END
