
     RDKit          3D

 40 45  0  0  0  0  0  0  0  0999 V2000
   -2.1550   -3.2450    0.3730 C   0  0  0  0  0  0  0  0  0  0  0  0
   -1.1200   -2.3130    0.0200 N   0  0  0  0  0  0  0  0  0  0  0  0
   -1.5400   -1.2210   -0.8660 C   0  0  2  0  0  0  0  0  0  0  0  0
   -0.2510   -0.9550   -1.6580 C   0  0  0  0  0  0  0  0  0  0  0  0
    0.7110   -0.4080   -0.6410 C   0  0  0  0  0  0  0  0  0  0  0  0
    2.0360   -0.4700   -1.0770 C   0  0  0  0  0  0  0  0  0  0  0  0
    3.0180    0.0320   -0.2770 C   0  0  0  0  0  0  0  0  0  0  0  0
    2.7350    0.5980    0.9400 C   0  0  0  0  0  0  0  0  0  0  0  0
    1.4040    0.6480    1.3600 C   0  0  0  0  0  0  0  0  0  0  0  0
    0.3840    0.1430    0.5690 C   0  0  0  0  0  0  0  0  0  0  0  0
   -1.0540    0.2080    1.0750 C   0  0  0  0  0  0  0  0  0  0  0  0
   -1.8690    0.0550   -0.1540 C   0  0  2  0  0  0  0  0  0  0  0  0
   -3.0990    0.6830   -0.2980 N   0  0  0  0  0  0  0  0  0  0  0  0
   -3.0940    1.7620   -1.2030 C   0  0  0  0  0  0  0  0  0  0  0  0
   -4.2150    0.2810    0.3340 C   0  0  0  0  0  0  0  0  0  0  0  0
   -5.5710    0.7560    0.0880 C   0  0  0  0  0  0  0  0  0  0  0  0
   -6.0180    1.6780   -0.7980 C   0  0  0  0  0  0  0  0  0  0  0  0
   -7.3540    2.0400   -0.8840 N   0  0  0  0  0  0  0  0  0  0  0  0
   -8.2720    1.5020   -0.1020 C   0  0  0  0  0  0  0  0  0  0  0  0
   -9.6920    1.9250   -0.2110 C   0  0  1  0  0  0  0  0  0  0  0  0
   -9.7950    3.0930    0.5500 F   0  0  0  0  0  0  0  0  0  0  0  0
   -9.8850    2.3300   -1.5190 F   0  0  0  0  0  0  0  0  0  0  0  0
  -10.5940    1.0070    0.2140 F   0  0  0  0  0  0  0  0  0  0  0  0
   -7.8610    0.5900    0.7810 N   0  0  0  0  0  0  0  0  0  0  0  0
   -6.5960    0.2010    0.9100 C   0  0  0  0  0  0  0  0  0  0  0  0
   -6.1900   -0.8140    1.8270 N   0  0  0  0  0  0  0  0  0  0  0  0
   -6.6430   -2.4730    1.4960 S   0  0  0  0  0  0  0  0  0  0  0  0
   -6.0750   -3.1600   -0.0260 C   0  0  0  0  0  0  0  0  0  0  0  0
    3.8890    0.9900    1.4670 N   0  0  0  0  0  0  0  0  0  0  0  0
    4.8670    0.6790    0.6110 C   0  0  0  0  0  0  0  0  0  0  0  0
    6.2610    0.7430    0.4370 C   0  0  0  0  0  0  0  0  0  0  0  0
    7.2520    1.2530    1.2480 C   0  0  0  0  0  0  0  0  0  0  0  0
    8.5500    1.1710    0.8000 C   0  0  0  0  0  0  0  0  0  0  0  0
    9.6700    1.7130    1.6380 C   0  0  0  0  0  0  0  0  0  0  0  0
    8.8370    0.5990   -0.4110 C   0  0  0  0  0  0  0  0  0  0  0  0
   10.2660    0.5170   -0.8430 C   0  0  0  0  0  0  0  0  0  0  0  0
    7.8280    0.0980   -1.2030 C   0  0  0  0  0  0  0  0  0  0  0  0
    6.4940    0.1650   -0.7770 C   0  0  0  0  0  0  0  0  0  0  0  0
    5.3370   -0.2260   -1.3230 N   0  0  0  0  0  0  0  0  0  0  0  0
    4.3670    0.0850   -0.4830 N   0  0  0  0  0  0  0  0  0  0  0  0
  1  2  1  0
  3  2  1  1
  3  4  1  0
  3 12  1  0
  4  5  1  0
  5  6  2  0
  5 10  1  0
  6  7  1  0
  7  8  2  0
  7 40  1  0
  8  9  1  0
  8 29  1  0
  9 10  2  0
 10 11  1  0
 11 12  1  0
 12 13  1  1
 13 14  1  0
 13 15  1  0
 15 16  1  0
 16 17  2  0
 16 25  1  0
 17 18  1  0
 18 19  2  0
 19 20  1  0
 19 24  1  0
 20 21  1  1
 20 22  1  0
 20 23  1  0
 24 25  2  0
 25 26  1  0
 26 27  1  0
 27 28  1  0
 29 30  2  0
 30 31  1  0
 30 40  1  0
 31 32  2  0
 31 38  1  0
 32 33  1  0
 33 34  1  0
 33 35  2  0
 35 36  1  0
 35 37  1  0
 37 38  2  0
 38 39  1  0
 39 40  1  0
M  CHG  1   2   1
M  END
