
     RDKit          3D

 40 44  0  0  0  0  0  0  0  0999 V2000
   -8.3850    0.3890   -1.8130 C   0  0  0  0  0  0  0  0  0  0  0  0
   -7.1550    0.0560   -0.9830 C   0  0  0  0  0  0  0  0  0  0  0  0
   -6.0090    0.8590   -1.5620 C   0  0  1  0  0  0  0  0  0  0  0  0
   -6.3840    2.3290   -1.4460 C   0  0  0  0  0  0  0  0  0  0  0  0
   -4.7850    0.5850   -0.7150 C   0  0  0  0  0  0  0  0  0  0  0  0
   -3.5560    1.1780   -1.3340 C   0  0  1  0  0  0  0  0  0  0  0  0
   -2.2830    0.5950   -0.7020 C   0  0  1  0  0  0  0  0  0  0  0  0
   -1.2070    1.2080   -1.4180 O   0  0  0  0  0  0  0  0  0  0  0  0
   -1.2210    2.5370   -0.9590 C   0  0  0  0  0  0  0  0  0  0  0  0
   -1.0260    3.6000   -1.6020 O   0  0  0  0  0  0  0  0  0  0  0  0
   -1.5250    2.5070    0.5040 C   0  0  0  0  0  0  0  0  0  0  0  0
   -2.1480    1.1570    0.6780 C   0  0  2  0  0  0  0  0  0  0  0  0
   -1.3520    0.2380    1.4990 C   0  0  0  0  0  0  0  0  0  0  0  0
   -1.9040   -0.2040    2.5650 O   0  0  0  0  0  0  0  0  0  0  0  0
   -0.0160   -0.1910    1.1930 N   0  0  0  0  0  0  0  0  0  0  0  0
    0.6330   -1.0660    2.0460 C   0  0  0  0  0  0  0  0  0  0  0  0
   -0.1330   -1.6690    3.6090 S   0  0  0  0  0  0  0  0  0  0  0  0
    1.2440   -2.7070    4.0810 C   0  0  0  0  0  0  0  0  0  0  0  0
    1.4060   -3.5160    5.1950 C   0  0  0  0  0  0  0  0  0  0  0  0
    2.5760   -4.2390    5.3460 C   0  0  0  0  0  0  0  0  0  0  0  0
    3.4960   -4.0930    4.3650 C   0  0  0  0  0  0  0  0  0  0  0  0
    3.3240   -3.2900    3.2690 C   0  0  0  0  0  0  0  0  0  0  0  0
    2.1270   -2.5370    3.0920 C   0  0  0  0  0  0  0  0  0  0  0  0
    1.8400   -1.7160    2.0560 C   0  0  0  0  0  0  0  0  0  0  0  0
    2.7470   -1.4640    0.8900 C   0  0  0  0  0  0  0  0  0  0  0  0
    3.8460   -2.0310    0.8480 O   0  0  0  0  0  0  0  0  0  0  0  0
    2.4110   -0.6220   -0.1450 O   0  0  0  0  0  0  0  0  0  0  0  0
    3.3390   -0.4580   -1.2150 C   0  0  0  0  0  0  0  0  0  0  0  0
    4.6120    0.0780   -0.6870 C   0  0  0  0  0  0  0  0  0  0  0  0
    4.6680    0.4200    0.5320 O   0  0  0  0  0  0  0  0  0  0  0  0
    5.7940    0.2430   -1.4360 N   0  0  0  0  0  0  0  0  0  0  0  0
    7.0060    0.7590   -0.9070 C   0  0  1  0  0  0  0  0  0  0  0  0
    8.0600   -0.2880   -0.6270 C   0  0  0  0  0  0  0  0  0  0  0  0
    9.2440    0.6220   -0.3530 C   0  0  0  0  0  0  0  0  0  0  0  0
    9.1010    1.5440   -1.4480 O   0  0  0  0  0  0  0  0  0  0  0  0
    7.7390    1.7200   -1.7200 C   0  0  0  0  0  0  0  0  0  0  0  0
    7.2300    2.5620   -2.5280 O   0  0  0  0  0  0  0  0  0  0  0  0
   -3.4810    0.9870   -2.8040 C   0  0  0  0  0  0  0  0  0  0  0  0
   -4.6150    0.1600   -3.2990 C   0  0  0  0  0  0  0  0  0  0  0  0
   -5.8630    0.4860   -2.8680 O   0  0  0  0  0  0  0  0  0  0  0  0
  1  2  1  0
  2  3  1  0
  3  4  1  6
  3  5  1  0
  3 40  1  0
  6  5  1  1
  6  7  1  0
  6 38  1  0
  7  8  1  6
  7 12  1  0
  8  9  1  0
  9 10  2  0
  9 11  1  0
 11 12  1  0
 12 13  1  1
 13 14  2  0
 13 15  1  0
 15 16  1  0
 16 17  1  0
 16 24  2  0
 17 18  1  0
 18 19  2  0
 18 23  1  0
 19 20  1  0
 20 21  2  0
 21 22  1  0
 22 23  2  0
 23 24  1  0
 24 25  1  0
 25 26  2  0
 25 27  1  0
 27 28  1  0
 28 29  1  0
 29 30  2  0
 29 31  1  0
 32 31  1  6
 32 33  1  0
 32 36  1  0
 33 34  1  0
 34 35  1  0
 35 36  1  0
 36 37  2  0
 38 39  1  0
 39 40  1  0
M  END
