
     RDKit          3D

 40 44  0  0  0  0  0  0  0  0999 V2000
    5.3880   -1.3680   -2.1820 C   0  0  0  0  0  0  0  0  0  0  0  0
    3.9780   -1.0080   -2.2280 C   0  0  0  0  0  0  0  0  0  0  0  0
    3.0940   -1.5890   -3.2550 C   0  0  0  0  0  0  0  0  0  0  0  0
    2.4270   -2.0060   -4.0240 N   0  0  0  0  0  0  0  0  0  0  0  0
    3.3990   -0.1740   -1.3140 C   0  0  0  0  0  0  0  0  0  0  0  0
    4.2410    0.3280   -0.3000 C   0  0  0  0  0  0  0  0  0  0  0  0
    4.2830    1.0580    0.7190 C   0  0  0  0  0  0  0  0  0  0  0  0
    5.6280    1.2200    1.4720 C   0  0  0  0  0  0  0  0  0  0  0  0
    5.3330    0.6970    2.8360 N   0  0  0  0  0  0  0  0  0  0  0  0
    4.3000    1.3960    3.5240 C   0  0  0  0  0  0  0  0  0  0  0  0
    3.2870    1.9250    2.8600 C   0  0  0  0  0  0  0  0  0  0  0  0
    3.2310    1.7790    1.3820 C   0  0  0  0  0  0  0  0  0  0  0  0
    2.2700    2.3550    0.6910 C   0  0  0  0  0  0  0  0  0  0  0  0
    1.2220    3.0740    1.4530 C   0  0  2  0  0  0  0  0  0  0  0  0
    0.3290    3.6550    0.5410 F   0  0  0  0  0  0  0  0  0  0  0  0
    1.7440    4.1690    2.1480 F   0  0  0  0  0  0  0  0  0  0  0  0
    0.5450    2.2970    2.3560 F   0  0  0  0  0  0  0  0  0  0  0  0
    2.0450    0.1120   -1.5480 N   0  0  0  0  0  0  0  0  0  0  0  0
    1.7660    0.9780   -2.7040 C   0  0  0  0  0  0  0  0  0  0  0  0
    0.5940    1.2680   -2.9620 N   0  0  0  0  0  0  0  0  0  0  0  0
   -0.5340    0.8110   -2.2000 C   0  0  0  0  0  0  0  0  0  0  0  0
   -2.1240    1.2990   -2.8010 S   0  0  0  0  0  0  0  0  0  0  0  0
   -3.3570    1.5740   -1.5640 C   0  0  0  0  0  0  0  0  0  0  0  0
   -3.6770    0.3680   -0.7700 C   0  0  2  0  0  0  0  0  0  0  0  0
   -4.2000   -0.7830   -1.5400 C   0  0  0  0  0  0  0  0  0  0  0  0
   -5.6830   -0.7110   -1.8620 C   0  0  0  0  0  0  0  0  0  0  0  0
   -6.4340   -0.8520   -0.5720 C   0  0  0  0  0  0  0  0  0  0  0  0
   -6.9190    0.5260   -0.1780 C   0  0  0  0  0  0  0  0  0  0  0  0
   -5.7700    1.4480    0.1440 C   0  0  0  0  0  0  0  0  0  0  0  0
   -4.4920    0.7440    0.4530 C   0  0  0  0  0  0  0  0  0  0  0  0
   -0.3540    0.0640   -1.1970 N   0  0  0  0  0  0  0  0  0  0  0  0
    0.9680   -0.3480   -0.7910 C   0  0  0  0  0  0  0  0  0  0  0  0
    1.1110   -1.1660    0.2620 C   0  0  0  0  0  0  0  0  0  0  0  0
    2.2960   -1.7620    0.8820 C   0  0  0  0  0  0  0  0  0  0  0  0
    1.7940   -3.0010    1.4690 N   0  0  0  0  0  0  0  0  0  0  0  0
    0.4520   -2.7810    1.6960 N   0  0  0  0  0  0  0  0  0  0  0  0
   -0.5700   -3.3330    2.4120 C   0  0  0  0  0  0  0  0  0  0  0  0
   -1.6840   -2.5380    2.1470 C   0  0  0  0  0  0  0  0  0  0  0  0
   -1.3220   -1.5580    1.3080 N   0  0  0  0  0  0  0  0  0  0  0  0
   -0.0100   -1.7180    1.0380 C   0  0  0  0  0  0  0  0  0  0  0  0
  1  2  1  0
  2  3  1  0
  2  5  2  3
  3  4  3  0
  5  6  1  0
  5 18  1  0
  6  7  2  3
  7  8  1  0
  7 12  1  0
  8  9  1  0
  9 10  1  0
 10 11  2  0
 11 12  1  0
 12 13  2  3
 13 14  1  0
 14 15  1  6
 14 16  1  0
 14 17  1  0
 18 19  1  0
 18 32  1  0
 19 20  2  0
 20 21  1  0
 21 22  1  0
 21 31  2  0
 22 23  1  0
 24 23  1  6
 24 25  1  0
 24 30  1  0
 25 26  1  0
 26 27  1  0
 27 28  1  0
 28 29  1  0
 29 30  1  0
 31 32  1  0
 32 33  2  3
 33 34  1  0
 33 40  1  0
 34 35  1  0
 35 36  1  0
 36 37  1  0
 36 40  1  0
 37 38  2  0
 38 39  1  0
 39 40  2  0
M  CHG  1  35   1
M  END
