
     RDKit          3D

 39 42  0  0  0  0  0  0  0  0999 V2000
    4.9790    4.1760    3.4340 C   0  0  0  0  0  0  0  0  0  0  0  0
    4.4980    3.0350    2.7800 O   0  0  0  0  0  0  0  0  0  0  0  0
    3.2520    3.0270    2.2070 C   0  0  0  0  0  0  0  0  0  0  0  0
    2.5670    4.1110    2.2990 O   0  0  0  0  0  0  0  0  0  0  0  0
    2.6300    1.9190    1.5090 C   0  0  0  0  0  0  0  0  0  0  0  0
    3.4800    0.7290    1.2230 C   0  0  2  0  0  0  0  0  0  0  0  0
    4.0050    0.1630    2.5380 C   0  0  0  0  0  0  0  0  0  0  0  0
    4.5330    0.9030    0.1930 C   0  0  2  0  0  0  0  0  0  0  0  0
    5.4240    1.9280    0.6010 O   0  0  0  0  0  0  0  0  0  0  0  0
    4.0700    1.2790   -1.1620 C   0  0  0  0  0  0  0  0  0  0  0  0
    3.1580    0.2760   -1.8190 C   0  0  0  0  0  0  0  0  0  0  0  0
    2.8830   -0.7680   -1.2040 O   0  0  0  0  0  0  0  0  0  0  0  0
    2.6270    0.5050   -3.0900 N   0  0  0  0  0  0  0  0  0  0  0  0
    1.7200   -0.2560   -3.8620 C   0  0  0  0  0  0  0  0  0  0  0  0
    1.8740   -0.2450   -5.6740 S   0  0  0  0  0  0  0  0  0  0  0  0
    0.4920   -1.3040   -5.9880 C   0  0  0  0  0  0  0  0  0  0  0  0
    0.0220   -1.5810   -4.7660 C   0  0  0  0  0  0  0  0  0  0  0  0
    0.6500   -1.0380   -3.6730 C   0  0  0  0  0  0  0  0  0  0  0  0
   -0.0080   -1.0950   -2.3160 C   0  0  0  0  0  0  0  0  0  0  0  0
    0.3330   -0.4100   -1.3520 O   0  0  0  0  0  0  0  0  0  0  0  0
   -1.0850   -1.9710   -2.0940 O   0  0  0  0  0  0  0  0  0  0  0  0
   -1.6750   -1.9640   -0.7850 C   0  0  0  0  0  0  0  0  0  0  0  0
   -2.2420   -0.6220   -0.5010 C   0  0  0  0  0  0  0  0  0  0  0  0
   -2.1890    0.2630   -1.3730 O   0  0  0  0  0  0  0  0  0  0  0  0
   -2.8670   -0.3000    0.7790 N   0  0  0  0  0  0  0  0  0  0  0  0
   -2.8710   -1.3550    1.7090 C   0  0  1  0  0  0  0  0  0  0  0  0
   -2.4000   -1.1370    3.0960 C   0  0  0  0  0  0  0  0  0  0  0  0
   -3.1370   -2.1870    3.9470 C   0  0  0  0  0  0  0  0  0  0  0  0
   -4.1940   -2.7990    3.0860 C   0  0  0  0  0  0  0  0  0  0  0  0
   -4.3350   -1.8080    1.9390 C   0  0  0  0  0  0  0  0  0  0  0  0
   -3.3920    1.0250    0.8860 C   0  0  2  0  0  0  0  0  0  0  0  0
   -2.6610    1.9310    1.8520 C   0  0  0  0  0  0  0  0  0  0  0  0
   -3.7190    2.3250    2.8320 C   0  0  0  0  0  0  0  0  0  0  0  0
   -4.9440    1.7600    2.4100 O   0  0  0  0  0  0  0  0  0  0  0  0
   -4.8210    1.1470    1.1750 C   0  0  0  0  0  0  0  0  0  0  0  0
   -5.7580    0.7580    0.4240 O   0  0  0  0  0  0  0  0  0  0  0  0
   -1.1840   -2.4950   -5.0170 C   0  0  0  0  0  0  0  0  0  0  0  0
   -0.7570   -3.2020   -6.2750 C   0  0  0  0  0  0  0  0  0  0  0  0
   -0.2890   -1.9740   -7.0790 C   0  0  0  0  0  0  0  0  0  0  0  0
  1  2  1  0
  2  3  1  0
  3  4  2  0
  3  5  1  0
  5  6  1  0
  6  7  1  1
  6  8  1  0
  8  9  1  1
  8 10  1  0
 10 11  1  0
 11 12  2  0
 11 13  1  0
 13 14  1  0
 14 15  1  0
 14 18  2  0
 15 16  1  0
 16 17  2  0
 16 39  1  0
 17 18  1  0
 17 37  1  0
 18 19  1  0
 19 20  2  0
 19 21  1  0
 21 22  1  0
 22 23  1  0
 23 24  2  0
 23 25  1  0
 26 25  1  6
 31 25  1  1
 26 27  1  0
 26 30  1  0
 27 28  1  0
 28 29  1  0
 29 30  1  0
 31 32  1  0
 31 35  1  0
 32 33  1  0
 33 34  1  0
 34 35  1  0
 35 36  2  0
 37 38  1  0
 38 39  1  0
M  END
