
     RDKit          3D

 35 38  0  0  0  0  0  0  0  0999 V2000
    9.3350    1.6340    2.1670 C   0  0  0  0  0  0  0  0  0  0  0  0
    8.0960    1.5230    1.5110 O   0  0  0  0  0  0  0  0  0  0  0  0
    7.7910    0.3570    0.8640 C   0  0  0  0  0  0  0  0  0  0  0  0
    8.6360   -0.7540    0.8280 C   0  0  0  0  0  0  0  0  0  0  0  0
    8.2980   -1.8970    0.1650 C   0  0  0  0  0  0  0  0  0  0  0  0
    7.1140   -2.0170   -0.4980 C   0  0  0  0  0  0  0  0  0  0  0  0
    6.7700   -3.1780   -1.1610 O   0  0  0  0  0  0  0  0  0  0  0  0
    6.2390   -0.9160   -0.4800 C   0  0  0  0  0  0  0  0  0  0  0  0
    5.0490   -1.0400   -1.2220 N   0  0  0  0  0  0  0  0  0  0  0  0
    3.9570   -0.1780   -1.2920 C   0  0  0  0  0  0  0  0  0  0  0  0
    3.1170    0.0610   -0.0700 C   0  0  0  0  0  0  0  0  0  0  0  0
    3.6590    0.3090    0.9960 O   0  0  0  0  0  0  0  0  0  0  0  0
    1.6450   -0.0160   -0.2300 C   0  0  0  0  0  0  0  0  0  0  0  0
    1.0170   -0.4050   -1.3290 N   0  0  0  0  0  0  0  0  0  0  0  0
   -0.3420   -0.3760   -1.1850 C   0  0  0  0  0  0  0  0  0  0  0  0
   -1.2910   -0.7760   -2.2900 C   0  0  0  0  0  0  0  0  0  0  0  0
   -0.5890    0.0610    0.0870 C   0  0  0  0  0  0  0  0  0  0  0  0
   -1.8120    0.2680    0.7850 C   0  0  0  0  0  0  0  0  0  0  0  0
   -1.6480    0.7810    1.9990 O   0  0  0  0  0  0  0  0  0  0  0  0
   -3.1970    0.0840    0.5290 C   0  0  0  0  0  0  0  0  0  0  0  0
   -3.7170   -0.9050   -0.2530 C   0  0  0  0  0  0  0  0  0  0  0  0
   -5.0630   -1.0230   -0.5650 C   0  0  0  0  0  0  0  0  0  0  0  0
   -5.9350   -0.0930   -0.0540 C   0  0  0  0  0  0  0  0  0  0  0  0
   -5.4740    0.9260    0.7460 C   0  0  0  0  0  0  0  0  0  0  0  0
   -6.4680    1.8870    1.2690 C   0  0  1  0  0  0  0  0  0  0  0  0
   -5.8880    2.9720    2.1200 C   0  0  0  0  0  0  0  0  0  0  0  0
   -7.1650    2.4560    0.1850 O   0  0  0  0  0  0  0  0  0  0  0  0
   -4.1420    1.0180    1.0350 C   0  0  0  0  0  0  0  0  0  0  0  0
   -7.2250   -0.3960   -0.4860 O   0  0  0  0  0  0  0  0  0  0  0  0
   -7.2310   -1.7690   -0.9270 C   0  0  1  0  0  0  0  0  0  0  0  0
   -8.1840   -2.0060   -2.0660 C   0  0  0  0  0  0  0  0  0  0  0  0
   -5.8180   -1.9820   -1.4280 C   0  0  0  0  0  0  0  0  0  0  0  0
    0.6740    0.2970    0.6970 C   0  0  0  0  0  0  0  0  0  0  0  0
    0.9960    0.8370    2.0340 C   0  0  0  0  0  0  0  0  0  0  0  0
    6.5730    0.2310    0.1830 C   0  0  0  0  0  0  0  0  0  0  0  0
  1  2  1  0
  2  3  1  0
  3  4  2  0
  3 35  1  0
  4  5  1  0
  5  6  2  0
  6  7  1  0
  6  8  1  0
  8  9  1  0
  8 35  2  0
  9 10  1  0
 10 11  1  0
 11 12  2  0
 11 13  1  0
 13 14  1  0
 13 33  2  0
 14 15  1  0
 15 16  1  0
 15 17  2  0
 17 18  1  0
 17 33  1  0
 18 19  2  0
 18 20  1  0
 20 21  2  0
 20 28  1  0
 21 22  1  0
 22 23  2  0
 22 32  1  0
 23 24  1  0
 23 29  1  0
 24 25  1  0
 24 28  2  0
 25 26  1  6
 25 27  1  0
 29 30  1  0
 30 31  1  6
 30 32  1  0
 33 34  1  0
M  END
