
     RDKit          3D

 35 39  0  0  0  0  0  0  0  0999 V2000
   -0.5120    2.4200   -1.6630 C   0  0  0  0  0  0  0  0  0  0  0  0
   -0.0200    1.7220   -0.3710 C   0  0  2  0  0  0  0  0  0  0  0  0
   -0.8970    2.2910    0.7470 C   0  0  0  0  0  0  0  0  0  0  0  0
   -2.2520    2.3940    0.1410 C   0  0  0  0  0  0  0  0  0  0  0  0
   -3.2720    1.5790    0.3560 C   0  0  0  0  0  0  0  0  0  0  0  0
   -3.2790    0.4020    1.2400 C   0  0  1  0  0  0  0  0  0  0  0  0
   -4.2000    0.7950    2.4090 C   0  0  0  0  0  0  0  0  0  0  0  0
   -5.3760    1.3500    1.8960 O   0  0  0  0  0  0  0  0  0  0  0  0
   -6.0360    0.4570    1.0650 C   0  0  0  0  0  0  0  0  0  0  0  0
   -5.3290   -0.8360    0.9790 C   0  0  0  0  0  0  0  0  0  0  0  0
   -3.9290   -0.7930    0.5960 N   0  0  0  0  0  0  0  0  0  0  0  0
   -3.0610   -1.5810   -0.1720 C   0  0  0  0  0  0  0  0  0  0  0  0
   -2.4200   -2.6940    0.0640 C   0  0  0  0  0  0  0  0  0  0  0  0
   -0.8980   -2.3800    0.1880 C   0  0  0  0  0  0  0  0  0  0  0  0
   -0.4680   -2.3080   -1.1640 N   0  0  2  0  0  0  0  0  0  0  0  0
    0.7100   -1.5590   -1.4690 C   0  0  0  0  0  0  0  0  0  0  0  0
    1.5490   -1.2280   -0.3280 C   0  0  0  0  0  0  0  0  0  0  0  0
    1.3620   -2.0580    0.6790 O   0  0  0  0  0  0  0  0  0  0  0  0
    2.5010   -0.2560   -0.0440 N   0  0  0  0  0  0  0  0  0  0  0  0
    3.7740   -0.9040    0.4080 C   0  0  0  0  0  0  0  0  0  0  0  0
    3.7920   -1.2550    1.7220 C   0  0  0  0  0  0  0  0  0  0  0  0
    4.9120   -1.8800    2.2380 C   0  0  0  0  0  0  0  0  0  0  0  0
    5.9660   -2.1220    1.3990 C   0  0  0  0  0  0  0  0  0  0  0  0
    5.9260   -1.7570    0.0730 C   0  0  0  0  0  0  0  0  0  0  0  0
    7.0340   -2.0170   -0.7780 N   0  0  0  0  0  0  0  0  0  0  0  0
    4.7970   -1.1280   -0.4440 C   0  0  0  0  0  0  0  0  0  0  0  0
    2.4740    1.1590   -0.0870 C   0  0  0  0  0  0  0  0  0  0  0  0
    3.7360    1.7860    0.0160 C   0  0  0  0  0  0  0  0  0  0  0  0
    3.9420    3.1390    0.0100 C   0  0  0  0  0  0  0  0  0  0  0  0
    2.8800    3.9840   -0.1020 C   0  0  0  0  0  0  0  0  0  0  0  0
    1.6360    3.4210   -0.2050 C   0  0  0  0  0  0  0  0  0  0  0  0
    1.4240    2.0220   -0.2000 C   0  0  0  0  0  0  0  0  0  0  0  0
   -1.5280   -1.9380   -2.0320 C   0  0  0  0  0  0  0  0  0  0  0  0
   -2.6330   -1.0510   -1.5390 C   0  0  1  0  0  0  0  0  0  0  0  0
   -3.6540   -1.2330   -2.4990 O   0  0  0  0  0  0  0  0  0  0  0  0
  2  1  1  6
  2  3  1  0
  2 32  1  0
  3  4  1  0
  4  5  2  0
  5  6  1  0
  6  7  1  1
  6 11  1  0
  7  8  1  0
  8  9  1  0
  9 10  1  0
 10 11  1  0
 11 12  1  0
 12 13  2  0
 12 34  1  0
 13 14  1  0
 14 15  1  0
 15 16  1  1
 15 33  1  0
 16 17  1  0
 17 18  2  0
 17 19  1  0
 19 20  1  0
 19 27  1  0
 20 21  2  0
 20 26  1  0
 21 22  1  0
 22 23  2  0
 23 24  1  0
 24 25  1  0
 24 26  2  0
 27 28  2  0
 27 32  1  0
 28 29  1  0
 29 30  2  0
 30 31  1  0
 31 32  2  0
 33 34  1  0
 34 35  1  6
M  CHG  1  15   1
M  END
