
     RDKit          3D

 35 38  0  0  0  0  0  0  0  0999 V2000
   -1.1430    1.1620   -4.0160 C   0  0  0  0  0  0  0  0  0  0  0  0
   -1.7280    1.1530   -2.8510 O   0  0  0  0  0  0  0  0  0  0  0  0
   -2.2800    1.2220   -1.6800 C   0  0  0  0  0  0  0  0  0  0  0  0
   -3.1740    2.1860   -1.3660 C   0  0  0  0  0  0  0  0  0  0  0  0
   -3.7990    2.2700   -0.0500 C   0  0  0  0  0  0  0  0  0  0  0  0
   -4.6660    3.2400    0.1830 C   0  0  0  0  0  0  0  0  0  0  0  0
   -5.4180    3.5740    1.3290 C   0  0  0  0  0  0  0  0  0  0  0  0
   -6.3460    4.7720    1.2740 C   0  0  0  0  0  0  0  0  0  0  0  0
   -5.4080    2.9840    2.4080 O   0  0  0  0  0  0  0  0  0  0  0  0
   -3.3920    1.2470    0.8890 C   0  0  0  0  0  0  0  0  0  0  0  0
   -3.8500    1.2090    2.0370 O   0  0  0  0  0  0  0  0  0  0  0  0
   -2.4110    0.1850    0.5490 C   0  0  0  0  0  0  0  0  0  0  0  0
   -2.0910   -0.8330    1.5480 C   0  0  0  0  0  0  0  0  0  0  0  0
   -1.6200   -0.5020    2.8050 C   0  0  0  0  0  0  0  0  0  0  0  0
   -1.3480   -1.4430    3.7610 C   0  0  0  0  0  0  0  0  0  0  0  0
   -0.8590   -1.1440    5.0720 N   0  0  0  0  0  0  0  0  0  0  0  0
   -1.5460   -2.7770    3.4750 C   0  0  0  0  0  0  0  0  0  0  0  0
   -2.0130   -3.1330    2.2370 C   0  0  0  0  0  0  0  0  0  0  0  0
   -2.2910   -2.1550    1.2570 C   0  0  0  0  0  0  0  0  0  0  0  0
   -2.8290   -2.7050   -0.0020 C   0  0  0  0  0  0  0  0  0  0  0  0
   -1.9120    0.2060   -0.6590 C   0  0  0  0  0  0  0  0  0  0  0  0
   -0.9820   -0.7750   -1.0090 O   0  0  0  0  0  0  0  0  0  0  0  0
    0.3950   -0.5880   -0.8420 C   0  0  0  0  0  0  0  0  0  0  0  0
    0.7540    0.5000   -0.3690 O   0  0  0  0  0  0  0  0  0  0  0  0
    1.3350   -1.5640   -1.1830 N   0  0  0  0  0  0  0  0  0  0  0  0
    2.7270   -1.5030   -1.0770 C   0  0  0  0  0  0  0  0  0  0  0  0
    3.4910   -2.6510   -1.1680 C   0  0  0  0  0  0  0  0  0  0  0  0
    4.8450   -2.6140   -1.0910 C   0  0  0  0  0  0  0  0  0  0  0  0
    5.5040   -1.4150   -0.9180 C   0  0  0  0  0  0  0  0  0  0  0  0
    4.7980   -0.2520   -0.8230 C   0  0  0  0  0  0  0  0  0  0  0  0
    3.3990   -0.3320   -0.9070 C   0  0  0  0  0  0  0  0  0  0  0  0
    5.7370    0.8970   -0.6490 C   0  0  2  0  0  0  0  0  0  0  0  0
    6.0770    1.4770   -1.8710 O   0  0  0  0  0  0  0  0  0  0  0  0
    6.9760    0.2160   -0.1170 C   0  0  0  0  0  0  0  0  0  0  0  0
    6.9570   -1.1180   -0.8090 C   0  0  0  0  0  0  0  0  0  0  0  0
  1  2  1  0
  2  3  1  0
  3  4  2  0
  3 21  1  0
  4  5  1  0
  5  6  2  3
  5 10  1  0
  6  7  1  0
  7  8  1  0
  7  9  2  0
 10 11  2  0
 10 12  1  0
 12 13  1  0
 12 21  2  0
 13 14  2  0
 13 19  1  0
 14 15  1  0
 15 16  1  0
 15 17  2  0
 17 18  1  0
 18 19  2  0
 19 20  1  0
 21 22  1  0
 22 23  1  0
 23 24  2  0
 23 25  1  0
 25 26  1  0
 26 27  2  0
 26 31  1  0
 27 28  1  0
 28 29  2  0
 29 30  1  0
 29 35  1  0
 30 31  2  0
 30 32  1  0
 32 33  1  6
 32 34  1  0
 34 35  1  0
M  END
