
     RDKit          3D

 35 40  0  0  0  0  0  0  0  0999 V2000
   -5.5210    2.4810    0.7470 C   0  0  0  0  0  0  0  0  0  0  0  0
   -4.8180    1.5910   -0.2470 C   0  0  0  0  0  0  0  0  0  0  0  0
   -5.6300    0.8190   -1.0220 C   0  0  0  0  0  0  0  0  0  0  0  0
   -5.0660   -0.0130   -1.9510 C   0  0  0  0  0  0  0  0  0  0  0  0
   -3.6990   -0.0150   -2.0420 C   0  0  0  0  0  0  0  0  0  0  0  0
   -2.8640    0.7730   -1.2510 C   0  0  0  0  0  0  0  0  0  0  0  0
   -3.3930    1.6060   -0.3240 C   0  0  0  0  0  0  0  0  0  0  0  0
   -2.6980    2.4850    0.5670 N   0  0  0  0  0  0  0  0  0  0  0  0
   -1.5170    2.4970    1.2790 C   0  0  0  0  0  0  0  0  0  0  0  0
   -1.6250    3.2030    2.4140 O   0  0  0  0  0  0  0  0  0  0  0  0
   -0.1590    1.9800    1.1800 C   0  0  0  0  0  0  0  0  0  0  0  0
    0.2970    0.7500    1.3330 C   0  0  0  0  0  0  0  0  0  0  0  0
   -0.5130   -0.4750    1.6730 C   0  0  0  0  0  0  0  0  0  0  0  0
   -1.8480   -0.3210    1.4900 O   0  0  0  0  0  0  0  0  0  0  0  0
   -2.3480   -1.3760    0.7290 C   0  0  2  0  0  0  0  0  0  0  0  0
   -2.4150   -2.6490    1.5630 C   0  0  0  0  0  0  0  0  0  0  0  0
   -1.2970   -3.5180    1.1020 C   0  0  0  0  0  0  0  0  0  0  0  0
   -1.0960   -3.0680   -0.2330 N   0  0  0  0  0  0  0  0  0  0  0  0
   -1.4650   -1.6740   -0.4020 C   0  0  0  0  0  0  0  0  0  0  0  0
   -1.0860   -0.8880   -1.3700 C   0  0  0  0  0  0  0  0  0  0  0  0
   -1.4370    0.5320   -1.6110 C   0  0  0  0  0  0  0  0  0  0  0  0
    1.7450    0.7100    1.0930 C   0  0  0  0  0  0  0  0  0  0  0  0
    2.6570   -0.0950    1.4560 N   0  0  0  0  0  0  0  0  0  0  0  0
    4.0110    0.0800    1.0910 C   0  0  0  0  0  0  0  0  0  0  0  0
    4.9510    0.6590    1.9160 C   0  0  0  0  0  0  0  0  0  0  0  0
    6.2740    0.8110    1.5150 C   0  0  0  0  0  0  0  0  0  0  0  0
    6.6590    0.3890    0.3010 N   0  0  0  0  0  0  0  0  0  0  0  0
    5.7700   -0.1750   -0.5190 C   0  0  0  0  0  0  0  0  0  0  0  0
    6.1780   -0.6090   -1.7740 C   0  0  0  0  0  0  0  0  0  0  0  0
    5.2730   -1.1980   -2.6410 C   0  0  0  0  0  0  0  0  0  0  0  0
    3.9540   -1.3620   -2.2720 C   0  0  0  0  0  0  0  0  0  0  0  0
    3.5620   -0.9250   -1.0190 C   0  0  0  0  0  0  0  0  0  0  0  0
    4.4340   -0.3430   -0.1470 C   0  0  0  0  0  0  0  0  0  0  0  0
    1.9660    1.9200    0.2570 C   0  0  0  0  0  0  0  0  0  0  0  0
    1.0380    2.7350    0.8890 O   0  0  0  0  0  0  0  0  0  0  0  0
  1  2  1  0
  2  3  2  0
  2  7  1  0
  3  4  1  0
  4  5  2  0
  5  6  1  0
  6  7  2  0
  6 21  1  0
  7  8  1  0
  8  9  1  0
  9 10  2  0
  9 11  1  0
 11 12  2  0
 11 35  1  0
 12 13  1  0
 12 22  1  0
 13 14  1  0
 14 15  1  0
 15 16  1  1
 15 19  1  0
 16 17  1  0
 17 18  1  0
 18 19  1  0
 19 20  2  0
 20 21  1  0
 22 23  2  3
 22 34  1  0
 23 24  1  0
 24 25  2  0
 24 33  1  0
 25 26  1  0
 26 27  2  0
 27 28  1  0
 28 29  2  0
 28 33  1  0
 29 30  1  0
 30 31  2  0
 31 32  1  0
 32 33  2  0
 34 35  1  0
M  CHG  1  27   1
M  END
