
     RDKit          3D

 10 10  0  0  0  0  0  0  0  0999 V2000
    2.9940   -1.1370    0.4850 C   0  0  0  0  0  0  0  0  0  0  0  0
    1.6120   -0.7590    0.4080 O   0  0  0  0  0  0  0  0  0  0  0  0
    1.1880    0.2120   -0.4760 C   0  0  0  0  0  0  0  0  0  0  0  0
    2.0100    0.7740   -1.2220 O   0  0  0  0  0  0  0  0  0  0  0  0
   -0.2080    0.6220   -0.5820 C   0  0  0  0  0  0  0  0  0  0  0  0
   -0.8580    1.8710   -1.6970 S   0  0  0  0  0  0  0  0  0  0  0  0
   -2.6290    1.7030   -1.1380 C   0  0  0  0  0  0  0  0  0  0  0  0
   -2.5100    0.7220   -0.1770 C   0  0  0  0  0  0  0  0  0  0  0  0
   -1.3290    0.1870    0.1020 C   0  0  0  0  0  0  0  0  0  0  0  0
   -1.1620   -0.8470    1.1070 N   0  0  0  0  0  0  0  0  0  0  0  0
  1  2  1  0
  2  3  1  0
  3  4  2  0
  3  5  1  0
  5  6  1  0
  5  9  2  0
  6  7  1  0
  7  8  2  0
  8  9  1  0
  9 10  1  0
M  END
