
     RDKit          3D

 10 10  0  0  0  0  0  0  0  0999 V2000
    3.2000    0.6720    0.4090 C   0  0  0  0  0  0  0  0  0  0  0  0
    1.8650    0.0700    0.1130 C   0  0  0  0  0  0  0  0  0  0  0  0
    1.4880   -1.1260   -0.3860 C   0  0  0  0  0  0  0  0  0  0  0  0
    0.1910   -1.3950   -0.5450 C   0  0  0  0  0  0  0  0  0  0  0  0
   -0.7150   -0.4370   -0.1920 C   0  0  0  0  0  0  0  0  0  0  0  0
   -2.1440   -0.4470   -0.2510 N   0  0  0  0  0  0  0  0  0  0  0  0
   -2.8680    0.6950    0.1840 C   0  0  0  0  0  0  0  0  0  0  0  0
   -2.2020    1.6960    0.6160 O   0  0  0  0  0  0  0  0  0  0  0  0
   -4.2560    0.7290    0.1450 O   0  0  0  0  0  0  0  0  0  0  0  0
    0.3050    0.8930    0.3870 S   0  0  0  0  0  0  0  0  0  0  0  0
  1  2  1  0
  2  3  2  0
  2 10  1  0
  3  4  1  0
  4  5  2  0
  5  6  1  0
  5 10  1  0
  6  7  1  0
  7  8  2  0
  7  9  1  0
M  END
