
     RDKit          3D

 10 11  0  0  0  0  0  0  0  0999 V2000
    3.1130    0.0060   -0.1770 N   0  0  0  0  0  0  0  0  0  0  0  0
    1.7220    0.2230   -0.0210 C   0  0  0  0  0  0  0  0  0  0  0  0
    0.8600   -0.8280   -0.0500 C   0  0  0  0  0  0  0  0  0  0  0  0
   -0.4950   -0.6450    0.0990 C   0  0  0  0  0  0  0  0  0  0  0  0
   -0.9880    0.6270    0.2800 C   0  0  0  0  0  0  0  0  0  0  0  0
   -0.0800    1.6690    0.3020 C   0  0  0  0  0  0  0  0  0  0  0  0
    1.2390    1.4720    0.1560 N   0  0  0  0  0  0  0  0  0  0  0  0
   -2.3920    0.5820    0.4090 O   0  0  0  0  0  0  0  0  0  0  0  0
   -2.7620   -0.6780   -0.1200 C   0  0  0  0  0  0  0  0  0  0  0  0
   -1.6090   -1.4990    0.1150 O   0  0  0  0  0  0  0  0  0  0  0  0
  1  2  1  0
  2  3  2  0
  2  7  1  0
  3  4  1  0
  4  5  2  0
  4 10  1  0
  5  6  1  0
  5  8  1  0
  6  7  2  0
  8  9  1  0
  9 10  1  0
M  END
