
     RDKit          3D

 10 10  0  0  0  0  0  0  0  0999 V2000
   -2.8570    0.1770    0.7610 N   0  0  0  0  0  0  0  0  0  0  0  0
   -1.9750   -0.1030   -0.7040 S   0  0  1  0  0  0  0  0  0  0  0  0
   -2.3090   -1.4910   -1.1850 O   0  0  0  0  0  0  0  0  0  0  0  0
   -2.2940    0.9490   -1.6970 O   0  0  0  0  0  0  0  0  0  0  0  0
   -0.2500   -0.0670   -0.3200 C   0  0  0  0  0  0  0  0  0  0  0  0
    0.4320   -1.2090    0.0450 C   0  0  0  0  0  0  0  0  0  0  0  0
    1.7750   -1.1850    0.3440 C   0  0  0  0  0  0  0  0  0  0  0  0
    2.4580    0.0120    0.2780 C   0  0  0  0  0  0  0  0  0  0  0  0
    1.7810    1.1660   -0.0880 C   0  0  0  0  0  0  0  0  0  0  0  0
    0.4330    1.1390   -0.3880 C   0  0  0  0  0  0  0  0  0  0  0  0
  2  1  1  1
  2  3  2  0
  2  4  2  0
  2  5  1  0
  5  6  2  0
  5 10  1  0
  6  7  1  0
  7  8  2  0
  8  9  1  0
  9 10  2  0
M  END
