
     RDKit          3D

 10 10  0  0  0  0  0  0  0  0999 V2000
    3.0070   -0.4210    0.2280 C   0  0  0  0  0  0  0  0  0  0  0  0
    1.8640   -0.2590   -1.1860 S   0  0  0  0  0  0  0  0  0  0  0  0
    0.1830   -0.2190   -0.5860 C   0  0  0  0  0  0  0  0  0  0  0  0
   -0.5790   -1.3550   -0.4200 C   0  0  0  0  0  0  0  0  0  0  0  0
   -1.8490   -1.2570    0.0400 N   0  0  0  0  0  0  0  0  0  0  0  0
   -2.4060   -0.0710    0.3480 C   0  0  0  0  0  0  0  0  0  0  0  0
   -3.5800    0.0570    0.7760 O   0  0  0  0  0  0  0  0  0  0  0  0
   -1.6490    1.0870    0.1860 C   0  0  0  0  0  0  0  0  0  0  0  0
   -0.3570    1.0210   -0.2790 C   0  0  0  0  0  0  0  0  0  0  0  0
    0.3660    2.1930   -0.4280 O   0  0  0  0  0  0  0  0  0  0  0  0
  1  2  1  0
  2  3  1  0
  3  4  2  0
  3  9  1  0
  4  5  1  0
  5  6  1  0
  6  7  2  0
  6  8  1  0
  8  9  2  0
  9 10  1  0
M  END
