
     RDKit          3D

 10 10  0  0  0  0  0  0  0  0999 V2000
   -1.9280   -1.2050    0.0440 C   0  0  0  0  0  0  0  0  0  0  0  0
   -0.4890   -0.8350   -0.0040 C   0  0  0  0  0  0  0  0  0  0  0  0
    0.8030   -1.9510   -0.0620 S   0  0  0  0  0  0  0  0  0  0  0  0
    2.3330   -1.2150   -0.1100 C   0  0  0  0  0  0  0  0  0  0  0  0
    3.4140   -1.8950   -0.1560 O   0  0  0  0  0  0  0  0  0  0  0  0
    2.3310    0.1190   -0.0970 N   0  0  0  0  0  0  0  0  0  0  0  0
    1.2430    0.8900   -0.0500 C   0  0  0  0  0  0  0  0  0  0  0  0
    1.3980    2.1550   -0.0430 O   0  0  0  0  0  0  0  0  0  0  0  0
   -0.0650    0.4780   -0.0070 C   0  0  0  0  0  0  0  0  0  0  0  0
   -1.1940    1.4890    0.0440 C   0  0  0  0  0  0  0  0  0  0  0  0
  1  2  1  0
  2  3  1  0
  2  9  2  0
  3  4  1  0
  4  5  2  0
  4  6  1  0
  6  7  1  0
  7  8  2  0
  7  9  1  0
  9 10  1  0
M  END
