
     RDKit          3D

 32 35  0  0  0  0  0  0  0  0999 V2000
    0.9330   -2.2530   -0.9820 C   0  0  0  0  0  0  0  0  0  0  0  0
    0.3150   -1.3780    0.0260 N   0  0  1  0  0  0  0  0  0  0  0  0
    0.3240   -0.0560   -0.4840 C   0  0  0  0  0  0  0  0  0  0  0  0
    1.6520    0.5570   -0.1800 C   0  0  0  0  0  0  0  0  0  0  0  0
    1.8170    1.1910    1.0300 C   0  0  0  0  0  0  0  0  0  0  0  0
    3.0100    1.7850    1.3940 C   0  0  0  0  0  0  0  0  0  0  0  0
    4.0540    1.7400    0.5260 C   0  0  0  0  0  0  0  0  0  0  0  0
    3.8610    1.0920   -0.6920 C   0  0  0  0  0  0  0  0  0  0  0  0
    2.6920    0.5220   -1.0220 N   0  0  0  0  0  0  0  0  0  0  0  0
    4.8990    0.9690   -1.7190 C   0  0  0  0  0  0  0  0  0  0  0  0
    4.4720    0.5000   -2.8710 C   0  0  0  0  0  0  0  0  0  0  0  0
    5.3540    0.3510   -3.8790 F   0  0  0  0  0  0  0  0  0  0  0  0
    3.1850    0.1650   -3.0740 F   0  0  0  0  0  0  0  0  0  0  0  0
    6.3240    1.2950   -1.6310 C   0  0  0  0  0  0  0  0  0  0  0  0
    7.0360    1.3100   -2.7680 F   0  0  0  0  0  0  0  0  0  0  0  0
    6.9430    1.5750   -0.4810 C   0  0  0  0  0  0  0  0  0  0  0  0
    6.4120    1.6310    0.9060 C   0  0  0  0  0  0  0  0  0  0  0  0
    5.2100    2.3910    1.0370 N   0  0  0  0  0  0  0  0  0  0  0  0
   -0.8890   -1.9660    0.4310 C   0  0  2  0  0  0  0  0  0  0  0  0
   -1.6600   -2.7320   -0.6370 C   0  0  0  0  0  0  0  0  0  0  0  0
   -2.5420   -3.7110    0.1280 C   0  0  0  0  0  0  0  0  0  0  0  0
   -3.3820   -3.0360    1.1530 C   0  0  0  0  0  0  0  0  0  0  0  0
   -2.6360   -2.0770    2.0580 C   0  0  1  0  0  0  0  0  0  0  0  0
   -1.6490   -2.7380    2.8520 N   0  0  0  0  0  0  0  0  0  0  0  0
   -1.9160   -1.0850    1.0990 C   0  0  2  0  0  0  0  0  0  0  0  0
   -2.9070   -0.7830    0.1890 O   0  0  0  0  0  0  0  0  0  0  0  0
   -3.3090    0.4860    0.0420 C   0  0  1  0  0  0  0  0  0  0  0  0
   -3.0690    0.9450   -1.3770 C   0  0  0  0  0  0  0  0  0  0  0  0
   -2.8240    2.4330   -1.3240 C   0  0  0  0  0  0  0  0  0  0  0  0
   -3.8900    3.0120   -0.4010 C   0  0  0  0  0  0  0  0  0  0  0  0
   -5.0970    2.0920   -0.3230 C   0  0  0  0  0  0  0  0  0  0  0  0
   -4.7360    0.7870    0.4030 C   0  0  0  0  0  0  0  0  0  0  0  0
  2  1  1  6
  2  3  1  0
  2 19  1  0
  3  4  1  0
  4  5  2  0
  4  9  1  0
  5  6  1  0
  6  7  2  0
  7  8  1  0
  7 18  1  0
  8  9  2  0
  8 10  1  0
 10 11  2  3
 10 14  1  0
 11 12  1  0
 11 13  1  0
 14 15  1  0
 14 16  2  0
 16 17  1  0
 17 18  1  0
 19 20  1  6
 19 25  1  0
 20 21  1  0
 21 22  1  0
 22 23  1  0
 23 24  1  6
 23 25  1  0
 25 26  1  6
 27 26  1  6
 27 28  1  0
 27 32  1  0
 28 29  1  0
 29 30  1  0
 30 31  1  0
 31 32  1  0
M  CHG  2   2   1  18   1
M  END
