
     RDKit          3D

 33 36  0  0  0  0  0  0  0  0999 V2000
   -8.4920   -0.5420    0.4300 C   0  0  0  0  0  0  0  0  0  0  0  0
   -7.1400   -1.0000    0.3480 N   0  0  1  0  0  0  0  0  0  0  0  0
   -6.9970   -2.2800   -0.2920 C   0  0  0  0  0  0  0  0  0  0  0  0
   -5.6700   -2.8850    0.1050 C   0  0  0  0  0  0  0  0  0  0  0  0
   -4.6230   -1.8240    0.1790 C   0  0  0  0  0  0  0  0  0  0  0  0
   -3.3330   -2.2560    0.5050 C   0  0  0  0  0  0  0  0  0  0  0  0
   -2.3360   -1.3170    0.5850 C   0  0  0  0  0  0  0  0  0  0  0  0
   -2.5450    0.0530    0.3570 C   0  0  0  0  0  0  0  0  0  0  0  0
   -1.4280    0.9750    0.3980 C   0  0  0  0  0  0  0  0  0  0  0  0
   -1.3890    2.2480    0.4130 C   0  0  0  0  0  0  0  0  0  0  0  0
   -2.4190    3.2690    0.4050 C   0  0  0  0  0  0  0  0  0  0  0  0
   -2.4420    4.3230   -0.4970 C   0  0  0  0  0  0  0  0  0  0  0  0
   -3.5390    5.0940   -0.2180 C   0  0  0  0  0  0  0  0  0  0  0  0
   -4.1610    4.4880    0.8520 C   0  0  0  0  0  0  0  0  0  0  0  0
   -3.4650    3.4280    1.1740 O   0  0  0  0  0  0  0  0  0  0  0  0
   -0.1420    0.3330    0.4230 O   0  0  0  0  0  0  0  0  0  0  0  0
    0.7520    0.5120   -0.6600 C   0  0  0  0  0  0  0  0  0  0  0  0
    1.9800   -0.3320   -0.3380 C   0  0  0  0  0  0  0  0  0  0  0  0
    2.5630    0.1940    0.9520 C   0  0  0  0  0  0  0  0  0  0  0  0
    3.6620   -0.4500    1.4280 O   0  0  0  0  0  0  0  0  0  0  0  0
    4.8880   -0.5810    0.9020 C   0  0  0  0  0  0  0  0  0  0  0  0
    5.8090   -1.3490    1.6220 C   0  0  0  0  0  0  0  0  0  0  0  0
    7.1000   -1.5660    1.2010 C   0  0  0  0  0  0  0  0  0  0  0  0
    7.4580   -0.9660   -0.0140 C   0  0  0  0  0  0  0  0  0  0  0  0
    8.8390   -1.1740   -0.5170 C   0  0  1  0  0  0  0  0  0  0  0  0
    8.7840   -1.4870   -1.8790 O   0  0  0  0  0  0  0  0  0  0  0  0
    9.6430    0.1200   -0.3690 C   0  0  0  0  0  0  0  0  0  0  0  0
   11.3240   -0.0820   -0.9640 S   0  0  0  0  0  0  0  0  0  0  0  0
    6.5760   -0.2090   -0.7390 C   0  0  0  0  0  0  0  0  0  0  0  0
    5.2630   -0.0060   -0.2800 C   0  0  0  0  0  0  0  0  0  0  0  0
   -3.8300    0.4210    0.0390 C   0  0  0  0  0  0  0  0  0  0  0  0
   -4.8860   -0.4960   -0.0560 C   0  0  0  0  0  0  0  0  0  0  0  0
   -6.2680   -0.0800   -0.4030 C   0  0  0  0  0  0  0  0  0  0  0  0
  2  1  1  6
  2  3  1  0
  2 33  1  0
  3  4  1  0
  4  5  1  0
  5  6  2  0
  5 32  1  0
  6  7  1  0
  7  8  2  0
  8  9  1  0
  8 31  1  0
  9 10  2  3
  9 16  1  0
 10 11  1  0
 11 12  2  0
 11 15  1  0
 12 13  1  0
 13 14  2  0
 14 15  1  0
 16 17  1  0
 17 18  1  0
 18 19  1  0
 19 20  1  0
 20 21  1  0
 21 22  2  0
 21 30  1  0
 22 23  1  0
 23 24  2  0
 24 25  1  0
 24 29  1  0
 25 26  1  6
 25 27  1  0
 27 28  1  0
 29 30  2  0
 31 32  2  0
 32 33  1  0
M  CHG  1   2   1
M  END
