
     RDKit          3D

 33 36  0  0  0  0  0  0  0  0999 V2000
    6.4990   -0.3490   -4.1350 C   0  0  0  0  0  0  0  0  0  0  0  0
    5.8250   -1.3590   -3.3560 N   0  0  0  0  0  0  0  0  0  0  0  0
    5.2690   -0.8620   -2.1570 C   0  0  0  0  0  0  0  0  0  0  0  0
    5.9060    0.1020   -1.4080 C   0  0  0  0  0  0  0  0  0  0  0  0
    5.2760    0.5300   -0.2360 C   0  0  0  0  0  0  0  0  0  0  0  0
    4.0800    0.0240    0.1610 C   0  0  0  0  0  0  0  0  0  0  0  0
    3.4310   -0.9400   -0.5770 C   0  0  0  0  0  0  0  0  0  0  0  0
    4.0540   -1.3670   -1.7410 C   0  0  0  0  0  0  0  0  0  0  0  0
    2.2140   -1.2840    0.0650 O   0  0  0  0  0  0  0  0  0  0  0  0
    2.5230   -1.0460    1.4620 C   0  0  2  0  0  0  0  0  0  0  0  0
    1.3140   -1.1530    2.3360 C   0  0  1  0  0  0  0  0  0  0  0  0
    1.6970   -0.9150    3.8050 C   0  0  0  0  0  0  0  0  0  0  0  0
   -0.1070   -0.2230    1.8650 S   0  0  0  0  0  0  0  0  0  0  0  0
   -0.1320    1.4900    2.1420 C   0  0  0  0  0  0  0  0  0  0  0  0
    0.7950    2.2240    2.8400 C   0  0  0  0  0  0  0  0  0  0  0  0
    0.7080    3.5990    3.0130 C   0  0  0  0  0  0  0  0  0  0  0  0
   -0.3580    4.2630    2.4580 C   0  0  0  0  0  0  0  0  0  0  0  0
   -1.3160    3.5680    1.7470 C   0  0  0  0  0  0  0  0  0  0  0  0
   -1.1920    2.2230    1.6020 C   0  0  0  0  0  0  0  0  0  0  0  0
   -2.1680    1.5510    0.8840 O   0  0  0  0  0  0  0  0  0  0  0  0
   -3.2730    0.9810    1.4520 C   0  0  0  0  0  0  0  0  0  0  0  0
   -3.4090    1.0730    2.7010 O   0  0  0  0  0  0  0  0  0  0  0  0
   -4.3070    0.2740    0.7160 C   0  0  0  0  0  0  0  0  0  0  0  0
   -4.2180    0.1500   -0.6440 C   0  0  0  0  0  0  0  0  0  0  0  0
   -5.2060   -0.5290   -1.3770 C   0  0  0  0  0  0  0  0  0  0  0  0
   -6.2990   -1.0990   -0.7950 C   0  0  0  0  0  0  0  0  0  0  0  0
   -7.3670   -1.8040   -1.4760 C   0  0  0  0  0  0  0  0  0  0  0  0
   -7.5930   -2.0470   -2.7070 C   0  0  0  0  0  0  0  0  0  0  0  0
   -6.9410   -1.7560   -3.9410 C   0  0  0  0  0  0  0  0  0  0  0  0
   -7.4760   -2.1800   -5.0600 O   0  0  0  0  0  0  0  0  0  0  0  0
   -6.3730   -0.9590    0.6120 C   0  0  0  0  0  0  0  0  0  0  0  0
   -5.4030   -0.2950    1.3160 C   0  0  0  0  0  0  0  0  0  0  0  0
    3.1800    0.2830    1.3390 C   0  0  0  0  0  0  0  0  0  0  0  0
  1  2  1  0
  2  3  1  0
  3  4  2  0
  3  8  1  0
  4  5  1  0
  5  6  2  0
  6  7  1  0
  6 33  1  0
  7  8  2  0
  7  9  1  0
  9 10  1  0
 10 11  1  0
 10 33  1  6
 11 12  1  1
 11 13  1  0
 13 14  1  0
 14 15  2  0
 14 19  1  0
 15 16  1  0
 16 17  2  0
 17 18  1  0
 18 19  2  0
 19 20  1  0
 20 21  1  0
 21 22  2  0
 21 23  1  0
 23 24  2  0
 23 32  1  0
 24 25  1  0
 25 26  2  0
 26 27  1  0
 26 31  1  0
 27 28  2  3
 28 29  1  0
 29 30  2  0
 31 32  2  0
M  CHG  1   2   1
M  END
