
     RDKit          3D

 33 36  0  0  0  0  0  0  0  0999 V2000
   11.0330   -1.0600   -0.3570 C   0  0  0  0  0  0  0  0  0  0  0  0
   10.1350   -0.1290    0.9050 S   0  0  0  0  0  0  0  0  0  0  0  0
    8.3860    0.0530    0.4620 C   0  0  2  0  0  0  0  0  0  0  0  0
    8.1760    0.9020   -0.7540 C   0  0  0  0  0  0  0  0  0  0  0  0
    7.1190    0.3530   -1.6810 C   0  0  0  0  0  0  0  0  0  0  0  0
    5.7740    0.3760   -1.1030 C   0  0  0  0  0  0  0  0  0  0  0  0
    4.8130    0.4790   -2.0900 C   0  0  0  0  0  0  0  0  0  0  0  0
    3.4660    0.5240   -1.8450 C   0  0  0  0  0  0  0  0  0  0  0  0
    3.0370    0.4620   -0.5250 C   0  0  0  0  0  0  0  0  0  0  0  0
    1.6010    0.5090   -0.2260 C   0  0  0  0  0  0  0  0  0  0  0  0
    0.7550    0.6030   -1.1310 O   0  0  0  0  0  0  0  0  0  0  0  0
    1.1970    0.4400    1.1850 C   0  0  0  0  0  0  0  0  0  0  0  0
   -0.2960    0.3460    1.2890 C   0  0  0  0  0  0  0  0  0  0  0  0
   -0.8100   -0.9140    0.6650 C   0  0  0  0  0  0  0  0  0  0  0  0
   -2.2110   -1.0400    0.7350 O   0  0  0  0  0  0  0  0  0  0  0  0
   -3.1060   -0.1680    0.1540 C   0  0  0  0  0  0  0  0  0  0  0  0
   -2.6530    0.8140   -0.4890 O   0  0  0  0  0  0  0  0  0  0  0  0
   -4.5670   -0.3660    0.2730 C   0  0  0  0  0  0  0  0  0  0  0  0
   -4.9910   -1.4580    0.9910 C   0  0  0  0  0  0  0  0  0  0  0  0
   -6.3310   -1.7460    1.1670 C   0  0  0  0  0  0  0  0  0  0  0  0
   -7.2250   -0.8720    0.5790 C   0  0  0  0  0  0  0  0  0  0  0  0
   -6.7980    0.2250   -0.1420 C   0  0  0  0  0  0  0  0  0  0  0  0
   -5.4500    0.4910   -0.3030 C   0  0  0  0  0  0  0  0  0  0  0  0
   -7.6230    1.2390   -0.8230 C   0  0  0  0  0  0  0  0  0  0  0  0
   -8.9540    1.3450   -0.1350 C   0  0  0  0  0  0  0  0  0  0  0  0
   -9.9170    0.2520   -0.5280 C   0  0  0  0  0  0  0  0  0  0  0  0
   -9.3500   -1.1240   -0.4150 C   0  0  0  0  0  0  0  0  0  0  0  0
   -8.5810   -1.2490    0.8120 N   0  0  0  0  0  0  0  0  0  0  0  0
    3.9560    0.3590    0.4880 C   0  0  0  0  0  0  0  0  0  0  0  0
    5.3000    0.3170    0.2030 C   0  0  0  0  0  0  0  0  0  0  0  0
    6.1540    0.2070    1.3830 C   0  0  0  0  0  0  0  0  0  0  0  0
    5.5440   -0.3170    2.3740 O   0  0  0  0  0  0  0  0  0  0  0  0
    7.5770    0.5910    1.6220 C   0  0  0  0  0  0  0  0  0  0  0  0
  1  2  1  0
  3  2  1  1
  3  4  1  0
  3 33  1  0
  4  5  1  0
  5  6  1  0
  6  7  2  0
  6 30  1  0
  7  8  1  0
  8  9  2  0
  9 10  1  0
  9 29  1  0
 10 11  2  0
 10 12  1  0
 12 13  1  0
 13 14  1  0
 14 15  1  0
 15 16  1  0
 16 17  2  0
 16 18  1  0
 18 19  2  0
 18 23  1  0
 19 20  1  0
 20 21  2  0
 21 22  1  0
 21 28  1  0
 22 23  2  0
 22 24  1  0
 24 25  1  0
 25 26  1  0
 26 27  1  0
 27 28  1  0
 29 30  2  0
 30 31  1  0
 31 32  2  0
 31 33  1  0
M  CHG  1  28   1
M  END
