
     RDKit          3D

 32 35  0  0  0  0  0  0  0  0999 V2000
    6.5610   -2.2490    0.2480 C   0  0  0  0  0  0  0  0  0  0  0  0
    7.0270   -0.8870   -0.2220 C   0  0  0  0  0  0  0  0  0  0  0  0
    6.2660   -0.3090   -1.3450 C   0  0  2  0  0  0  0  0  0  0  0  0
    6.9070    1.0700   -1.6550 C   0  0  0  0  0  0  0  0  0  0  0  0
    6.8530    1.9100   -0.6010 F   0  0  0  0  0  0  0  0  0  0  0  0
    4.8140   -0.2880   -1.4210 C   0  0  2  0  0  0  0  0  0  0  0  0
    4.4220    0.2540   -2.6830 N   0  0  0  0  0  0  0  0  0  0  0  0
    3.0850    0.5710   -2.9620 C   0  0  0  0  0  0  0  0  0  0  0  0
    2.1930    0.7210   -2.0610 N   0  0  0  0  0  0  0  0  0  0  0  0
    2.6430    0.5290   -0.6950 C   0  0  0  0  0  0  0  0  0  0  0  0
    3.9340    0.1920   -0.3710 C   0  0  0  0  0  0  0  0  0  0  0  0
    4.2660    0.2140    0.9710 C   0  0  0  0  0  0  0  0  0  0  0  0
    3.3360    0.5520    1.9210 C   0  0  0  0  0  0  0  0  0  0  0  0
    2.0410    0.8850    1.6190 C   0  0  0  0  0  0  0  0  0  0  0  0
    1.6990    0.8720    0.2970 C   0  0  0  0  0  0  0  0  0  0  0  0
    0.2490    1.2560    0.1590 C   0  0  1  0  0  0  0  0  0  0  0  0
   -0.5960    0.0220    0.0700 C   0  0  0  0  0  0  0  0  0  0  0  0
   -2.0220    0.3220   -0.0670 C   0  0  0  0  0  0  0  0  0  0  0  0
   -2.3950    1.5160   -0.0970 O   0  0  0  0  0  0  0  0  0  0  0  0
   -3.0300   -0.6840   -0.1710 N   0  0  0  0  0  0  0  0  0  0  0  0
   -4.4280   -0.4140   -0.3060 C   0  0  2  0  0  0  0  0  0  0  0  0
   -4.7500    0.3900   -1.5460 C   0  0  0  0  0  0  0  0  0  0  0  0
   -4.9860    0.3490    0.8790 C   0  0  0  0  0  0  0  0  0  0  0  0
   -6.2680   -0.3640    1.2550 C   0  0  2  0  0  0  0  0  0  0  0  0
   -7.4410    0.0650    0.4200 C   0  0  0  0  0  0  0  0  0  0  0  0
   -6.6020   -0.1930    2.7060 C   0  0  0  0  0  0  0  0  0  0  0  0
   -5.8780   -1.8080    0.9750 C   0  0  2  0  0  0  0  0  0  0  0  0
   -7.0220   -2.5460    0.8520 F   0  0  0  0  0  0  0  0  0  0  0  0
   -5.0590   -2.2400    1.9780 F   0  0  0  0  0  0  0  0  0  0  0  0
   -5.1800   -1.7250   -0.3670 C   0  0  0  0  0  0  0  0  0  0  0  0
    0.0500    1.9890    1.4680 C   0  0  0  0  0  0  0  0  0  0  0  0
    0.8970    1.2620    2.3760 N   0  0  0  0  0  0  0  0  0  0  0  0
  1  2  1  0
  3  2  1  1
  3  4  1  0
  3  6  1  0
  4  5  1  0
  6  7  1  6
  6 11  1  0
  7  8  1  0
  8  9  2  0
  9 10  1  0
 10 11  2  0
 10 15  1  0
 11 12  1  0
 12 13  2  0
 13 14  1  0
 14 15  2  0
 14 32  1  0
 15 16  1  0
 16 17  1  1
 16 31  1  0
 17 18  1  0
 18 19  2  0
 18 20  1  0
 20 21  1  0
 21 22  1  6
 21 23  1  0
 21 30  1  0
 23 24  1  0
 24 25  1  6
 24 26  1  0
 24 27  1  0
 27 28  1  6
 27 29  1  0
 27 30  1  0
 31 32  1  0
M  CHG  2   9   1  32   1
M  END
