
     RDKit          3D

 33 36  0  0  0  0  0  0  0  0999 V2000
    4.2420   -1.6350   -2.6690 C   0  0  0  0  0  0  0  0  0  0  0  0
    4.4350   -1.2620   -1.3320 O   0  0  0  0  0  0  0  0  0  0  0  0
    5.6460   -0.8830   -0.8100 C   0  0  0  0  0  0  0  0  0  0  0  0
    6.7810   -0.8490   -1.5830 C   0  0  0  0  0  0  0  0  0  0  0  0
    7.9910   -0.4680   -1.0540 C   0  0  0  0  0  0  0  0  0  0  0  0
    8.0730   -0.1120    0.2730 C   0  0  0  0  0  0  0  0  0  0  0  0
    6.9130   -0.1520    1.0440 C   0  0  0  0  0  0  0  0  0  0  0  0
    5.6860   -0.5290    0.5480 C   0  0  0  0  0  0  0  0  0  0  0  0
    4.4360   -0.5990    1.3310 C   0  0  1  0  0  0  0  0  0  0  0  0
    4.6140   -0.2640    2.7940 C   0  0  0  0  0  0  0  0  0  0  0  0
    5.5530   -1.1120    3.3310 O   0  0  0  0  0  0  0  0  0  0  0  0
    3.4360    0.2880    0.8520 O   0  0  0  0  0  0  0  0  0  0  0  0
    2.1730   -0.1580    0.4870 C   0  0  0  0  0  0  0  0  0  0  0  0
    1.9830   -1.3940    0.6100 O   0  0  0  0  0  0  0  0  0  0  0  0
    1.1010    0.6840   -0.0070 C   0  0  0  0  0  0  0  0  0  0  0  0
    1.3780    1.9980   -0.1250 C   0  0  0  0  0  0  0  0  0  0  0  0
   -0.0280    3.0050   -0.7480 S   0  0  0  0  0  0  0  0  0  0  0  0
   -1.4110    2.2170    0.2250 C   0  0  0  0  0  0  0  0  0  0  0  0
   -1.4560    0.7890   -0.1960 C   0  0  2  0  0  0  0  0  0  0  0  0
   -2.3230    0.6760   -1.4550 C   0  0  0  0  0  0  0  0  0  0  0  0
   -3.7140    1.1280   -1.1340 C   0  0  0  0  0  0  0  0  0  0  0  0
   -4.5940    1.0150   -2.2980 N   0  0  2  0  0  0  0  0  0  0  0  0
   -5.8200    1.7030   -1.9150 C   0  0  0  0  0  0  0  0  0  0  0  0
   -6.6090    0.7490   -1.0580 C   0  0  0  0  0  0  0  0  0  0  0  0
   -6.0460   -0.6190   -1.3650 C   0  0  0  0  0  0  0  0  0  0  0  0
   -5.0770   -0.3420   -2.4900 C   0  0  0  0  0  0  0  0  0  0  0  0
   -2.2270    0.0050    0.8360 C   0  0  0  0  0  0  0  0  0  0  0  0
   -2.7940    0.6350    1.8940 C   0  0  0  0  0  0  0  0  0  0  0  0
   -3.5040   -0.1030    2.8390 C   0  0  0  0  0  0  0  0  0  0  0  0
   -3.6180   -1.4690    2.6800 C   0  0  0  0  0  0  0  0  0  0  0  0
   -3.0560   -2.1190    1.6220 C   0  0  0  0  0  0  0  0  0  0  0  0
   -2.3460   -1.3430    0.6860 C   0  0  0  0  0  0  0  0  0  0  0  0
   -0.1680    0.0990   -0.3750 C   0  0  0  0  0  0  0  0  0  0  0  0
  1  2  1  0
  2  3  1  0
  3  4  2  0
  3  8  1  0
  4  5  1  0
  5  6  2  0
  6  7  1  0
  7  8  2  0
  8  9  1  0
  9 10  1  1
  9 12  1  0
 10 11  1  0
 12 13  1  0
 13 14  2  0
 13 15  1  0
 15 16  2  0
 15 33  1  0
 16 17  1  0
 17 18  1  0
 18 19  1  0
 19 20  1  6
 19 27  1  0
 19 33  1  0
 20 21  1  0
 22 21  1  1
 22 23  1  0
 22 26  1  0
 23 24  1  0
 24 25  1  0
 25 26  1  0
 27 28  2  0
 27 32  1  0
 28 29  1  0
 29 30  2  0
 30 31  1  0
 31 32  2  0
M  CHG  1  22   1
M  END
