
     RDKit          3D

 33 36  0  0  0  0  0  0  0  0999 V2000
   -9.2870   -1.6000    2.3510 C   0  0  0  0  0  0  0  0  0  0  0  0
   -8.6130   -0.9590    1.2470 N   0  0  0  0  0  0  0  0  0  0  0  0
   -7.2740   -0.5100    1.6310 C   0  0  0  0  0  0  0  0  0  0  0  0
   -6.3880   -0.4480    0.3770 C   0  0  2  0  0  0  0  0  0  0  0  0
   -7.0260    0.5220   -0.5620 C   0  0  0  0  0  0  0  0  0  0  0  0
   -6.2840   -1.8450   -0.1370 C   0  0  0  0  0  0  0  0  0  0  0  0
   -5.0780    0.1190    0.8360 C   0  0  0  0  0  0  0  0  0  0  0  0
   -4.1180    0.2270   -0.3180 C   0  0  0  0  0  0  0  0  0  0  0  0
   -4.3590   -0.1350   -1.6290 C   0  0  0  0  0  0  0  0  0  0  0  0
   -3.1880    0.1500   -2.3010 C   0  0  0  0  0  0  0  0  0  0  0  0
   -2.2770    0.6740   -1.3830 C   0  0  0  0  0  0  0  0  0  0  0  0
   -0.9170    1.1000   -1.7080 C   0  0  0  0  0  0  0  0  0  0  0  0
   -0.0950    1.6050   -0.7280 C   0  0  0  0  0  0  0  0  0  0  0  0
    1.1990    2.0210   -0.9870 C   0  0  0  0  0  0  0  0  0  0  0  0
    1.6540    1.9150   -2.2840 C   0  0  0  0  0  0  0  0  0  0  0  0
    3.2770    2.3730   -2.8260 S   0  0  0  0  0  0  0  0  0  0  0  0
    4.3540    2.8990   -1.4990 C   0  0  0  0  0  0  0  0  0  0  0  0
    4.7720    1.8160   -0.5530 C   0  0  0  0  0  0  0  0  0  0  0  0
    5.5110    0.7390   -1.2730 C   0  0  0  0  0  0  0  0  0  0  0  0
    5.6630    0.8650   -2.4790 O   0  0  0  0  0  0  0  0  0  0  0  0
    6.0590   -0.4540   -0.6080 C   0  0  2  0  0  0  0  0  0  0  0  0
    4.9690   -1.2130    0.0960 C   0  0  0  0  0  0  0  0  0  0  0  0
    5.4350   -2.2010    1.1060 C   0  0  0  0  0  0  0  0  0  0  0  0
    6.8980   -2.5100    1.0270 C   0  0  0  0  0  0  0  0  0  0  0  0
    7.6260   -1.2180    1.1970 C   0  0  0  0  0  0  0  0  0  0  0  0
    8.6000   -0.7760    1.9400 C   0  0  0  0  0  0  0  0  0  0  0  0
    8.8700    0.6490    1.6230 C   0  0  0  0  0  0  0  0  0  0  0  0
    7.8980    0.9500    0.5680 C   0  0  0  0  0  0  0  0  0  0  0  0
    7.1710   -0.1200    0.3170 C   0  0  0  0  0  0  0  0  0  0  0  0
    0.7820    1.3950   -3.2490 C   0  0  0  0  0  0  0  0  0  0  0  0
    1.2060    1.2990   -4.4460 O   0  0  0  0  0  0  0  0  0  0  0  0
   -0.4160    1.0300   -2.9120 O   0  0  0  0  0  0  0  0  0  0  0  0
   -2.8960    0.6870   -0.2430 O   0  0  0  0  0  0  0  0  0  0  0  0
  1  2  1  0
  2  3  1  0
  3  4  1  0
  4  5  1  6
  4  6  1  0
  4  7  1  0
  7  8  1  0
  8  9  2  0
  8 33  1  0
  9 10  1  0
 10 11  2  0
 11 12  1  0
 11 33  1  0
 12 13  2  0
 12 32  1  0
 13 14  1  0
 14 15  2  0
 15 16  1  0
 15 30  1  0
 16 17  1  0
 17 18  1  0
 18 19  1  0
 19 20  2  0
 21 19  1  1
 21 22  1  0
 21 29  1  0
 22 23  1  0
 23 24  1  0
 24 25  1  0
 25 26  2  0
 25 29  1  0
 26 27  1  0
 27 28  1  0
 28 29  2  0
 30 31  2  0
 30 32  1  0
M  CHG  1   2   1
M  END
