
     RDKit          3D

 12 12  0  0  0  0  0  0  0  0999 V2000
   -3.6030    1.4270    1.3480 C   0  0  0  0  0  0  0  0  0  0  0  0
   -2.6120    0.7620    0.4630 C   0  0  1  0  0  0  0  0  0  0  0  0
   -1.1850    1.0080    0.8180 C   0  0  0  0  0  0  0  0  0  0  0  0
   -0.3430    0.5870   -0.2790 N   0  0  0  0  0  0  0  0  0  0  0  0
    1.0590    0.6230    0.0810 C   0  0  0  0  0  0  0  0  0  0  0  0
    1.8690    0.2190   -1.1110 C   0  0  0  0  0  0  0  0  0  0  0  0
    3.3590    0.2490   -0.8400 C   0  0  0  0  0  0  0  0  0  0  0  0
    3.7200   -0.6820    0.2690 C   0  0  0  0  0  0  0  0  0  0  0  0
    5.1190   -0.5820    0.4350 O   0  0  0  0  0  0  0  0  0  0  0  0
   -0.6460   -0.6880   -0.8110 C   0  0  0  0  0  0  0  0  0  0  0  0
   -2.0770   -1.1260   -0.7630 C   0  0  0  0  0  0  0  0  0  0  0  0
   -2.7650   -0.7010    0.4390 N   0  0  0  0  0  0  0  0  0  0  0  0
  2  1  1  1
  2  3  1  0
  2 12  1  0
  3  4  1  0
  4  5  1  0
  4 10  1  0
  5  6  1  0
  6  7  1  0
  7  8  1  0
  8  9  1  0
 10 11  1  0
 11 12  1  0
M  CHG  1  12   1
M  END
