
     RDKit          3D

 10 11  0  0  0  0  0  0  0  0999 V2000
   -3.0710   -0.4020   -0.2570 N   0  0  0  0  0  0  0  0  0  0  0  0
   -1.7250    0.0420   -0.1300 C   0  0  0  0  0  0  0  0  0  0  0  0
   -0.7450   -0.9320   -0.0920 C   0  0  0  0  0  0  0  0  0  0  0  0
    0.5720   -0.5560    0.0290 C   0  0  0  0  0  0  0  0  0  0  0  0
    0.8730    0.7840    0.1090 C   0  0  0  0  0  0  0  0  0  0  0  0
   -0.1270    1.7340    0.0680 C   0  0  0  0  0  0  0  0  0  0  0  0
   -1.4080    1.3570   -0.0500 N   0  0  0  0  0  0  0  0  0  0  0  0
    2.2790    0.8960    0.2270 O   0  0  0  0  0  0  0  0  0  0  0  0
    2.8250   -0.3670   -0.1090 C   0  0  0  0  0  0  0  0  0  0  0  0
    1.7730   -1.2940    0.0940 O   0  0  0  0  0  0  0  0  0  0  0  0
  1  2  1  0
  2  3  2  0
  2  7  1  0
  3  4  1  0
  4  5  2  0
  4 10  1  0
  5  6  1  0
  5  8  1  0
  6  7  2  0
  8  9  1  0
  9 10  1  0
M  END
