
     RDKit          3D

 10 10  0  0  0  0  0  0  0  0999 V2000
    3.1150   -0.1810   -0.0950 C   0  0  0  0  0  0  0  0  0  0  0  0
    1.7470    0.4430    0.0540 C   0  0  0  0  0  0  0  0  0  0  0  0
    1.7080    1.6630    0.2920 O   0  0  0  0  0  0  0  0  0  0  0  0
    0.5830   -0.3110   -0.0680 N   0  0  0  0  0  0  0  0  0  0  0  0
   -0.7630    0.2390    0.0660 C   0  0  0  0  0  0  0  0  0  0  0  0
   -0.9210    1.5740    0.3290 C   0  0  0  0  0  0  0  0  0  0  0  0
   -2.7590    1.7080    0.3920 S   0  0  0  0  0  0  0  0  0  0  0  0
   -3.0720    0.0600    0.0780 C   0  0  0  0  0  0  0  0  0  0  0  0
   -1.8950   -0.5140   -0.0580 C   0  0  0  0  0  0  0  0  0  0  0  0
   -1.7890   -1.9110   -0.3310 O   0  0  0  0  0  0  0  0  0  0  0  0
  1  2  1  0
  2  3  2  0
  2  4  1  0
  4  5  1  0
  5  6  2  0
  5  9  1  0
  6  7  1  0
  7  8  1  0
  8  9  2  0
  9 10  1  0
M  END
