
     RDKit          3D

 10 10  0  0  0  0  0  0  0  0999 V2000
    3.0700   -0.3920    0.1970 C   0  0  0  0  0  0  0  0  0  0  0  0
    1.9070    0.9420    0.5230 S   0  0  0  0  0  0  0  0  0  0  0  0
    0.2450    0.3560    0.1460 C   0  0  0  0  0  0  0  0  0  0  0  0
    0.0130   -0.9200   -0.3110 C   0  0  0  0  0  0  0  0  0  0  0  0
   -1.2250   -1.3840   -0.6010 N   0  0  0  0  0  0  0  0  0  0  0  0
   -2.2930   -0.5760   -0.4430 C   0  0  0  0  0  0  0  0  0  0  0  0
   -3.4470   -1.0000   -0.7100 O   0  0  0  0  0  0  0  0  0  0  0  0
   -2.0730    0.7090    0.0160 C   0  0  0  0  0  0  0  0  0  0  0  0
   -0.8300    1.2010    0.3160 C   0  0  0  0  0  0  0  0  0  0  0  0
   -0.6210    2.5080    0.7800 O   0  0  0  0  0  0  0  0  0  0  0  0
  1  2  1  0
  2  3  1  0
  3  4  2  0
  3  9  1  0
  4  5  1  0
  5  6  1  0
  6  7  2  0
  6  8  1  0
  8  9  2  0
  9 10  1  0
M  END
