
     RDKit          3D

 10 10  0  0  0  0  0  0  0  0999 V2000
   -0.5500    2.8430   -0.1680 O   0  0  0  0  0  0  0  0  0  0  0  0
   -0.3800    1.6030   -0.0310 C   0  0  0  0  0  0  0  0  0  0  0  0
    0.9230    1.1240   -0.0400 C   0  0  0  0  0  0  0  0  0  0  0  0
    1.4010   -0.1770   -0.1010 C   0  0  0  0  0  0  0  0  0  0  0  0
    2.7690   -0.3450    0.0760 O   0  0  0  0  0  0  0  0  0  0  0  0
    0.6220   -1.2970   -0.3210 C   0  0  0  0  0  0  0  0  0  0  0  0
   -0.7700   -1.4280   -0.2640 C   0  0  0  0  0  0  0  0  0  0  0  0
   -1.7010   -0.4640    0.0540 C   0  0  0  0  0  0  0  0  0  0  0  0
   -3.2030   -1.0050    0.4020 S   0  0  0  0  0  0  0  0  0  0  0  0
   -1.5220    0.8680    0.1130 N   0  0  0  0  0  0  0  0  0  0  0  0
  1  2  2  0
  2  3  1  0
  2 10  1  0
  3  4  2  0
  4  5  1  0
  4  6  1  0
  6  7  2  0
  7  8  1  0
  8  9  2  0
  8 10  1  0
M  END
