
     RDKit          3D

  9  9  0  0  0  0  0  0  0  0999 V2000
    2.9850    0.1950   -0.9510 C   0  0  0  0  0  0  0  0  0  0  0  0
    2.2350   -0.3180    0.2130 C   0  0  0  0  0  0  0  0  0  0  0  0
    0.9140   -0.2120    0.2290 C   0  0  0  0  0  0  0  0  0  0  0  0
    0.1770   -0.7360    1.4130 C   0  0  0  0  0  0  0  0  0  0  0  0
   -1.1910    0.3670    1.7890 S   0  0  0  0  0  0  0  0  0  0  0  0
   -2.7160   -0.0910    0.9450 C   0  0  0  0  0  0  0  0  0  0  0  0
   -2.6720    0.1410   -0.5320 C   0  0  0  0  0  0  0  0  0  0  0  0
   -1.2060   -0.5460   -1.3230 S   0  0  0  0  0  0  0  0  0  0  0  0
    0.2760    0.4300   -0.9560 C   0  0  0  0  0  0  0  0  0  0  0  0
  1  2  1  0
  2  3  2  3
  3  4  1  0
  3  9  1  0
  4  5  1  0
  5  6  1  0
  6  7  1  0
  7  8  1  0
  8  9  1  0
M  END
