
     RDKit          3D

 20 22  0  0  0  0  0  0  0  0999 V2000
    1.0860    1.5740    0.4470 O   0  0  0  0  0  0  0  0  0  0  0  0
    0.5850    0.5070    0.0110 C   0  0  0  0  0  0  0  0  0  0  0  0
    1.4550   -0.5030   -0.3700 O   0  0  0  0  0  0  0  0  0  0  0  0
    2.8290   -0.3260   -0.2680 C   0  0  0  0  0  0  0  0  0  0  0  0
    3.5970    0.2000   -1.2950 C   0  0  0  0  0  0  0  0  0  0  0  0
    4.9650    0.3730   -1.1830 C   0  0  0  0  0  0  0  0  0  0  0  0
    5.6150    0.0150   -0.0140 C   0  0  0  0  0  0  0  0  0  0  0  0
    4.8760   -0.5100    1.0220 C   0  0  0  0  0  0  0  0  0  0  0  0
    5.5730   -0.8530    2.1740 O   0  0  0  0  0  0  0  0  0  0  0  0
    3.5190   -0.6710    0.8860 C   0  0  0  0  0  0  0  0  0  0  0  0
   -0.8790    0.3400   -0.0890 C   0  0  0  0  0  0  0  0  0  0  0  0
   -1.7970    1.3030    0.2720 C   0  0  0  0  0  0  0  0  0  0  0  0
   -3.0690    0.7810    0.0360 C   0  0  0  0  0  0  0  0  0  0  0  0
   -4.3480    1.2350    0.1860 C   0  0  0  0  0  0  0  0  0  0  0  0
   -5.4430    0.4600   -0.1470 C   0  0  0  0  0  0  0  0  0  0  0  0
   -5.2270   -0.8060   -0.6460 C   0  0  0  0  0  0  0  0  0  0  0  0
   -6.3450   -1.5730   -0.9760 O   0  0  0  0  0  0  0  0  0  0  0  0
   -3.9470   -1.2480   -0.7910 C   0  0  0  0  0  0  0  0  0  0  0  0
   -2.8340   -0.4840   -0.4620 C   0  0  0  0  0  0  0  0  0  0  0  0
   -1.5420   -0.6900   -0.5140 O   0  0  0  0  0  0  0  0  0  0  0  0
  1  2  2  0
  2  3  1  0
  2 11  1  0
  3  4  1  0
  4  5  2  0
  4 10  1  0
  5  6  1  0
  6  7  2  0
  7  8  1  0
  8  9  1  0
  8 10  2  0
 11 12  2  0
 11 20  1  0
 12 13  1  0
 13 14  2  0
 13 19  1  0
 14 15  1  0
 15 16  2  0
 16 17  1  0
 16 18  1  0
 18 19  2  0
 19 20  1  0
M  END
