
     RDKit          3D

 20 22  0  0  0  0  0  0  0  0999 V2000
    3.2210    2.4510    1.3050 O   0  0  0  0  0  0  0  0  0  0  0  0
    3.4390    1.2940    0.8700 C   0  0  0  0  0  0  0  0  0  0  0  0
    4.7220    0.5800    0.9900 C   0  0  0  0  0  0  0  0  0  0  0  0
    4.3420   -0.7710    0.8480 O   0  0  0  0  0  0  0  0  0  0  0  0
    3.1080   -0.8420    0.1770 C   0  0  0  0  0  0  0  0  0  0  0  0
    2.4150   -1.8760   -0.4410 C   0  0  0  0  0  0  0  0  0  0  0  0
    1.1740   -1.6590   -1.0460 C   0  0  0  0  0  0  0  0  0  0  0  0
    0.5990   -0.4040   -1.0460 C   0  0  0  0  0  0  0  0  0  0  0  0
   -0.7230   -0.2330   -1.7010 C   0  0  2  0  0  0  0  0  0  0  0  0
   -0.7180    0.9030   -2.5390 O   0  0  0  0  0  0  0  0  0  0  0  0
   -1.8200   -0.0960   -0.7220 C   0  0  0  0  0  0  0  0  0  0  0  0
   -2.4590    1.1150   -0.5750 C   0  0  0  0  0  0  0  0  0  0  0  0
   -3.4890    1.2860    0.3290 C   0  0  0  0  0  0  0  0  0  0  0  0
   -4.1160    2.5080    0.4600 O   0  0  0  0  0  0  0  0  0  0  0  0
   -3.8930    0.2380    1.1020 C   0  0  0  0  0  0  0  0  0  0  0  0
   -3.2750   -0.9880    0.9810 C   0  0  0  0  0  0  0  0  0  0  0  0
   -2.2320   -1.1520    0.0610 C   0  0  0  0  0  0  0  0  0  0  0  0
   -1.6160   -2.3730   -0.0590 O   0  0  0  0  0  0  0  0  0  0  0  0
    1.2900    0.6180   -0.4330 C   0  0  0  0  0  0  0  0  0  0  0  0
    2.5240    0.4050    0.1700 C   0  0  0  0  0  0  0  0  0  0  0  0
  1  2  2  0
  2  3  1  0
  2 20  1  0
  3  4  1  0
  4  5  1  0
  5  6  2  0
  5 20  1  0
  6  7  1  0
  7  8  2  0
  8  9  1  0
  8 19  1  0
  9 10  1  1
  9 11  1  0
 11 12  2  0
 11 17  1  0
 12 13  1  0
 13 14  1  0
 13 15  2  0
 15 16  1  0
 16 17  2  0
 17 18  1  0
 19 20  2  0
M  END
