
     RDKit          3D

 17 17  0  0  0  0  0  0  0  0999 V2000
   -3.9480    0.6530    0.3790 C   0  0  0  0  0  0  0  0  0  0  0  0
   -2.8340   -0.0750   -0.3510 C   0  0  1  0  0  0  0  0  0  0  0  0
   -2.4510    0.6740   -1.4490 O   0  0  0  0  0  0  0  0  0  0  0  0
   -1.6480   -0.3200    0.5680 C   0  0  2  0  0  0  0  0  0  0  0  0
   -2.0470   -1.1070    1.7890 C   0  0  0  0  0  0  0  0  0  0  0  0
   -1.1490    0.9290    1.0030 O   0  0  0  0  0  0  0  0  0  0  0  0
    0.1030    1.3890    0.6290 C   0  0  0  0  0  0  0  0  0  0  0  0
    0.2630    2.6290    0.5380 O   0  0  0  0  0  0  0  0  0  0  0  0
    1.1590    0.4100    0.3620 C   0  0  2  0  0  0  0  0  0  0  0  0
    1.9200    0.9040   -0.8600 C   0  0  0  0  0  0  0  0  0  0  0  0
    3.0650    0.0890   -1.1830 N   0  0  0  0  0  0  0  0  0  0  0  0
    4.1470   -0.0980   -0.2820 C   0  0  0  0  0  0  0  0  0  0  0  0
    5.2500   -0.9130   -0.6490 N   0  0  0  0  0  0  0  0  0  0  0  0
    4.1720    0.4390    0.8530 O   0  0  0  0  0  0  0  0  0  0  0  0
    0.6840   -0.9040    0.1600 O   0  0  0  0  0  0  0  0  0  0  0  0
   -0.6350   -1.0690   -0.2140 C   0  0  0  0  0  0  0  0  0  0  0  0
   -1.0300   -1.8050   -1.1640 O   0  0  0  0  0  0  0  0  0  0  0  0
  2  1  1  1
  2  3  1  0
  2  4  1  0
  4  5  1  1
  4  6  1  0
  4 16  1  0
  6  7  1  0
  7  8  2  0
  7  9  1  0
  9 10  1  6
  9 15  1  0
 10 11  1  0
 11 12  1  0
 12 13  1  0
 12 14  2  0
 15 16  1  0
 16 17  2  0
M  END
