
     RDKit          3D

 16 17  0  0  0  0  0  0  0  0999 V2000
   -3.6770    0.2930    1.6550 C   0  0  0  0  0  0  0  0  0  0  0  0
   -2.5670    0.5690    2.3140 C   0  0  0  0  0  0  0  0  0  0  0  0
   -2.5640    1.0720    3.6180 O   0  0  0  0  0  0  0  0  0  0  0  0
   -1.2230    1.1290    4.0780 C   0  0  0  0  0  0  0  0  0  0  0  0
   -0.4100    0.8630    2.9660 O   0  0  0  0  0  0  0  0  0  0  0  0
   -1.1860    0.4300    1.8830 C   0  0  0  0  0  0  0  0  0  0  0  0
   -0.7570   -0.0110    0.7180 C   0  0  0  0  0  0  0  0  0  0  0  0
    0.6660   -0.0760    0.4760 C   0  0  0  0  0  0  0  0  0  0  0  0
    1.0950   -0.5230   -0.7050 C   0  0  0  0  0  0  0  0  0  0  0  0
    0.2790   -0.9540   -1.7820 N   0  0  0  0  0  0  0  0  0  0  0  0
    1.0880   -1.6710   -2.6720 N   0  0  0  0  0  0  0  0  0  0  0  0
    2.3610   -1.0280   -2.4980 C   0  0  1  0  0  0  0  0  0  0  0  0
    2.4570    0.1330   -3.3830 C   0  0  0  0  0  0  0  0  0  0  0  0
    1.5000    0.4270   -4.1410 O   0  0  0  0  0  0  0  0  0  0  0  0
    3.5900    0.9540   -3.4300 O   0  0  0  0  0  0  0  0  0  0  0  0
    2.4310   -0.6550   -1.1170 O   0  0  0  0  0  0  0  0  0  0  0  0
  1  2  2  0
  2  3  1  0
  2  6  1  0
  3  4  1  0
  4  5  1  0
  5  6  1  0
  6  7  2  3
  7  8  1  0
  8  9  2  3
  9 10  1  0
  9 16  1  0
 10 11  1  0
 11 12  1  0
 12 13  1  6
 12 16  1  0
 13 14  2  0
 13 15  1  0
M  END
