
     RDKit          3D

 17 18  0  0  0  0  0  0  0  0999 V2000
    4.8040   -0.4680   -0.2560 C   0  0  0  0  0  0  0  0  0  0  0  0
    3.3880   -0.4870   -0.2880 O   0  0  0  0  0  0  0  0  0  0  0  0
    2.5980    0.5760    0.0940 C   0  0  0  0  0  0  0  0  0  0  0  0
    3.1810    1.6150    0.4910 O   0  0  0  0  0  0  0  0  0  0  0  0
    1.1300    0.5200    0.0470 C   0  0  0  0  0  0  0  0  0  0  0  0
    0.4350    1.5830    0.4310 C   0  0  0  0  0  0  0  0  0  0  0  0
   -1.0260    1.5360    0.3820 C   0  0  0  0  0  0  0  0  0  0  0  0
   -1.8090    2.6350    0.7870 O   0  0  0  0  0  0  0  0  0  0  0  0
   -1.6480    0.4680   -0.0410 C   0  0  0  0  0  0  0  0  0  0  0  0
   -3.1210    0.3800   -0.0950 C   0  0  0  0  0  0  0  0  0  0  0  0
   -3.7920    1.4190   -0.2100 O   0  0  0  0  0  0  0  0  0  0  0  0
   -3.6920   -0.9130   -0.0090 N   0  0  0  0  0  0  0  0  0  0  0  0
   -2.8440   -2.0470    0.1200 C   0  0  0  0  0  0  0  0  0  0  0  0
   -3.3160   -3.2350    0.2040 O   0  0  0  0  0  0  0  0  0  0  0  0
   -1.4060   -1.8880    0.1630 N   0  0  0  0  0  0  0  0  0  0  0  0
   -0.9170   -0.7140   -0.5490 C   0  0  2  0  0  0  0  0  0  0  0  0
    0.4450   -0.5880   -0.3720 O   0  0  0  0  0  0  0  0  0  0  0  0
  1  2  1  0
  2  3  1  0
  3  4  2  0
  3  5  1  0
  5  6  2  0
  5 17  1  0
  6  7  1  0
  7  8  1  0
  7  9  2  0
  9 10  1  0
  9 16  1  0
 10 11  2  0
 10 12  1  0
 12 13  1  0
 13 14  2  0
 13 15  1  0
 16 15  1  1
 16 17  1  0
M  END
