
     RDKit          3D

 17 17  0  0  0  0  0  0  0  0999 V2000
    5.0660    0.7140   -0.6380 C   0  0  0  0  0  0  0  0  0  0  0  0
    3.7880    0.0300   -0.8470 N   0  0  0  0  0  0  0  0  0  0  0  0
    2.7140    0.1530    0.0890 C   0  0  0  0  0  0  0  0  0  0  0  0
    2.8510    0.8590    1.1160 O   0  0  0  0  0  0  0  0  0  0  0  0
    1.4300   -0.5470   -0.1420 C   0  0  2  0  0  0  0  0  0  0  0  0
    0.9410   -0.1410   -1.5070 C   0  0  0  0  0  0  0  0  0  0  0  0
   -0.3400   -0.5990   -1.7870 O   0  0  0  0  0  0  0  0  0  0  0  0
   -1.0430   -0.9010   -0.6120 C   0  0  2  0  0  0  0  0  0  0  0  0
   -2.4740   -1.0590   -0.8390 C   0  0  0  0  0  0  0  0  0  0  0  0
   -3.3940   -1.4220    0.1710 N   0  0  0  0  0  0  0  0  0  0  0  0
   -2.9320   -0.8650   -2.0080 O   0  0  0  0  0  0  0  0  0  0  0  0
   -0.6510    0.1780    0.3650 C   0  0  1  0  0  0  0  0  0  0  0  0
   -1.6220    0.4660    1.4130 C   0  0  0  0  0  0  0  0  0  0  0  0
   -1.3870    0.2790    2.6470 O   0  0  0  0  0  0  0  0  0  0  0  0
   -2.8820    0.9720    1.1290 O   0  0  0  0  0  0  0  0  0  0  0  0
   -3.8440    1.2640    2.1090 C   0  0  0  0  0  0  0  0  0  0  0  0
    0.5800   -0.2640    0.8930 O   0  0  0  0  0  0  0  0  0  0  0  0
  1  2  1  0
  2  3  1  0
  3  4  2  0
  5  3  1  1
  5  6  1  0
  5 17  1  0
  6  7  1  0
  7  8  1  0
  8  9  1  6
  8 12  1  0
  9 10  1  0
  9 11  2  0
 12 13  1  1
 12 17  1  0
 13 14  2  0
 13 15  1  0
 15 16  1  0
M  END
