
     RDKit          3D

 17 17  0  0  0  0  0  0  0  0999 V2000
   -1.7350    1.9690    2.1410 O   0  0  0  0  0  0  0  0  0  0  0  0
   -0.8380    1.9040    1.2480 C   0  0  0  0  0  0  0  0  0  0  0  0
   -1.4310    1.7340   -0.1150 C   0  0  0  0  0  0  0  0  0  0  0  0
   -2.5270    0.8970   -0.1020 O   0  0  0  0  0  0  0  0  0  0  0  0
   -2.9410   -0.0850   -0.9080 C   0  0  0  0  0  0  0  0  0  0  0  0
   -4.1670   -0.1610   -1.2340 O   0  0  0  0  0  0  0  0  0  0  0  0
   -2.0770   -1.0690   -1.4350 N   0  0  0  0  0  0  0  0  0  0  0  0
   -1.0290   -1.7710   -0.7690 C   0  0  0  0  0  0  0  0  0  0  0  0
   -0.9480   -1.5970    0.7050 C   0  0  1  0  0  0  0  0  0  0  0  0
   -1.1680   -2.8300    1.3200 O   0  0  0  0  0  0  0  0  0  0  0  0
    0.4470   -1.1370    1.1520 C   0  0  0  0  0  0  0  0  0  0  0  0
    0.9810   -0.4760    0.0270 O   0  0  0  0  0  0  0  0  0  0  0  0
    1.8560    0.6040    0.0080 C   0  0  0  0  0  0  0  0  0  0  0  0
    3.1090    0.5220   -0.8420 C   0  0  0  0  0  0  0  0  0  0  0  0
    2.7540    0.3340   -2.1870 O   0  0  0  0  0  0  0  0  0  0  0  0
    1.6420    1.7110    0.7030 C   0  0  0  0  0  0  0  0  0  0  0  0
    0.5420    1.9860    1.5490 N   0  0  0  0  0  0  0  0  0  0  0  0
  1  2  2  0
  2  3  1  0
  2 17  1  0
  3  4  1  0
  4  5  1  0
  5  6  2  0
  5  7  1  0
  7  8  1  0
  8  9  1  0
  9 10  1  1
  9 11  1  0
 11 12  1  0
 12 13  1  0
 13 14  1  0
 13 16  2  0
 14 15  1  0
 16 17  1  0
M  END
