
     RDKit          3D

 16 16  0  0  0  0  0  0  0  0999 V2000
    2.8460    1.6020    1.6460 C   0  0  0  0  0  0  0  0  0  0  0  0
    2.3610    0.8140    0.5650 O   0  0  0  0  0  0  0  0  0  0  0  0
    1.8130   -0.4260    0.6730 C   0  0  0  0  0  0  0  0  0  0  0  0
    1.7210   -0.9460    1.8690 O   0  0  0  0  0  0  0  0  0  0  0  0
    1.3120   -1.2010   -0.4830 C   0  0  2  0  0  0  0  0  0  0  0  0
    2.4540   -1.8110   -1.2180 C   0  0  0  0  0  0  0  0  0  0  0  0
    0.4440   -0.5690   -1.3180 N   0  0  0  0  0  0  0  0  0  0  0  0
   -0.8300   -0.1100   -1.1710 C   0  0  1  0  0  0  0  0  0  0  0  0
   -1.8400   -1.1940   -0.9470 C   0  0  0  0  0  0  0  0  0  0  0  0
   -1.6670   -2.4210   -1.0230 O   0  0  0  0  0  0  0  0  0  0  0  0
   -3.0440   -0.5450   -0.6160 N   0  0  0  0  0  0  0  0  0  0  0  0
   -2.8340    0.9150   -0.6960 C   0  0  0  0  0  0  0  0  0  0  0  0
   -1.3240    0.9410   -0.2820 C   0  0  2  0  0  0  0  0  0  0  0  0
   -0.8760    2.2400   -0.4700 O   0  0  0  0  0  0  0  0  0  0  0  0
   -1.3720    0.5390    1.1790 C   0  0  0  0  0  0  0  0  0  0  0  0
   -1.7560   -0.7700    1.3290 O   0  0  0  0  0  0  0  0  0  0  0  0
  1  2  1  0
  2  3  1  0
  3  4  2  0
  3  5  1  0
  5  6  1  6
  5  7  1  0
  8  7  1  1
  8  9  1  0
  8 13  1  0
  9 10  2  0
  9 11  1  0
 11 12  1  0
 12 13  1  0
 13 14  1  1
 13 15  1  0
 15 16  1  0
M  END
