
     RDKit          3D

 22 23  0  0  0  0  0  0  0  0999 V2000
    4.5830   -0.6980   -1.0390 C   0  0  0  0  0  0  0  0  0  0  0  0
    4.4650    0.2990   -0.0430 O   0  0  0  0  0  0  0  0  0  0  0  0
    3.2890    0.5970    0.6040 C   0  0  0  0  0  0  0  0  0  0  0  0
    2.0860   -0.0530    0.3470 C   0  0  0  0  0  0  0  0  0  0  0  0
    0.9290    0.2710    1.0140 C   0  0  0  0  0  0  0  0  0  0  0  0
   -0.2470   -0.3720    0.7550 O   0  0  0  0  0  0  0  0  0  0  0  0
   -1.1760    0.0200   -0.1920 C   0  0  0  0  0  0  0  0  0  0  0  0
   -1.0410    1.1050   -0.9970 C   0  0  0  0  0  0  0  0  0  0  0  0
   -2.0060    1.4510   -1.9300 C   0  0  0  0  0  0  0  0  0  0  0  0
   -1.8410    2.8710   -2.9910 S   0  0  0  0  0  0  0  0  0  0  0  0
   -3.1260    0.6510   -2.0230 C   0  0  0  0  0  0  0  0  0  0  0  0
   -3.3050   -0.4690   -1.2180 C   0  0  0  0  0  0  0  0  0  0  0  0
   -2.3200   -0.7780   -0.3020 C   0  0  0  0  0  0  0  0  0  0  0  0
   -2.4710   -1.9250    0.5370 N   0  0  0  0  0  0  0  0  0  0  0  0
   -3.9060   -2.8320    0.6930 S   0  0  1  0  0  0  0  0  0  0  0  0
   -3.9460   -3.5360    2.0300 O   0  0  0  0  0  0  0  0  0  0  0  0
   -5.1320   -1.9990    0.5690 O   0  0  0  0  0  0  0  0  0  0  0  0
   -3.9590   -4.0250   -0.5140 O   0  0  0  0  0  0  0  0  0  0  0  0
    0.9600    1.2650    1.9610 C   0  0  0  0  0  0  0  0  0  0  0  0
    2.1690    1.9210    2.2210 C   0  0  0  0  0  0  0  0  0  0  0  0
    3.3280    1.6020    1.5590 C   0  0  0  0  0  0  0  0  0  0  0  0
    4.5330    2.2610    1.8240 O   0  0  0  0  0  0  0  0  0  0  0  0
  1  2  1  0
  2  3  1  0
  3  4  2  0
  3 21  1  0
  4  5  1  0
  5  6  1  0
  5 19  2  0
  6  7  1  0
  7  8  2  0
  7 13  1  0
  8  9  1  0
  9 10  1  0
  9 11  2  0
 11 12  1  0
 12 13  2  0
 13 14  1  0
 14 15  1  0
 15 16  2  0
 15 17  2  0
 15 18  1  6
 19 20  1  0
 20 21  2  0
 21 22  1  0
M  END
