
     RDKit          3D

 22 23  0  0  0  0  0  0  0  0999 V2000
   -1.6270   -0.7390    2.8870 C   0  0  0  0  0  0  0  0  0  0  0  0
   -0.7680   -0.3750    1.8230 O   0  0  0  0  0  0  0  0  0  0  0  0
   -1.3460   -0.0260    0.6050 C   0  0  0  0  0  0  0  0  0  0  0  0
   -2.7130   -0.0220    0.4000 C   0  0  0  0  0  0  0  0  0  0  0  0
   -3.2760    0.3250   -0.8110 C   0  0  0  0  0  0  0  0  0  0  0  0
   -5.0130    0.3130   -1.0170 S   0  0  2  0  0  0  0  0  0  0  0  0
   -5.5680   -1.2290   -1.5620 N   0  0  0  0  0  0  0  0  0  0  0  0
   -5.4680    1.3340   -2.0190 O   0  0  0  0  0  0  0  0  0  0  0  0
   -5.7060    0.5940    0.2890 O   0  0  0  0  0  0  0  0  0  0  0  0
   -2.4140    0.6760   -1.8300 C   0  0  0  0  0  0  0  0  0  0  0  0
   -1.0460    0.6710   -1.6230 C   0  0  0  0  0  0  0  0  0  0  0  0
   -0.2020    1.0350   -2.6880 O   0  0  0  0  0  0  0  0  0  0  0  0
   -0.4850    0.3240   -0.4120 C   0  0  0  0  0  0  0  0  0  0  0  0
    0.8930    0.3370   -0.2590 O   0  0  0  0  0  0  0  0  0  0  0  0
    1.7370   -0.7440   -0.5050 C   0  0  0  0  0  0  0  0  0  0  0  0
    3.1380   -0.2890   -0.2120 C   0  0  0  0  0  0  0  0  0  0  0  0
    4.0290    0.2820   -1.0640 C   0  0  0  0  0  0  0  0  0  0  0  0
    5.2420    0.6180   -0.5930 C   0  0  0  0  0  0  0  0  0  0  0  0
    5.5280    0.3770    0.6980 C   0  0  0  0  0  0  0  0  0  0  0  0
    6.7320    0.6180    1.5070 C   0  0  0  0  0  0  0  0  0  0  0  0
    6.7710    0.3040    2.7210 O   0  0  0  0  0  0  0  0  0  0  0  0
    3.9980   -0.3690    1.2960 S   0  0  0  0  0  0  0  0  0  0  0  0
  1  2  1  0
  2  3  1  0
  3  4  2  0
  3 13  1  0
  4  5  1  0
  5  6  1  0
  5 10  2  0
  6  7  1  6
  6  8  2  0
  6  9  2  0
 10 11  1  0
 11 12  1  0
 11 13  2  0
 13 14  1  0
 14 15  1  0
 15 16  1  0
 16 17  2  0
 16 22  1  0
 17 18  1  0
 18 19  2  0
 19 20  1  0
 19 22  1  0
 20 21  2  0
M  END
