
     RDKit          3D

 22 23  0  0  0  0  0  0  0  0999 V2000
   -3.1620    2.9970    0.1430 C   0  0  0  0  0  0  0  0  0  0  0  0
   -3.1240    1.7190    0.7560 O   0  0  0  0  0  0  0  0  0  0  0  0
   -2.2940    0.7260    0.2610 C   0  0  0  0  0  0  0  0  0  0  0  0
   -1.4740    0.9500   -0.8490 C   0  0  0  0  0  0  0  0  0  0  0  0
   -0.6750   -0.0540   -1.3010 C   0  0  0  0  0  0  0  0  0  0  0  0
   -0.6430   -1.2950   -0.7000 C   0  0  0  0  0  0  0  0  0  0  0  0
    0.1660   -2.3520   -1.1520 N   0  0  0  0  0  0  0  0  0  0  0  0
    1.5700   -2.0600   -2.1060 S   0  0  2  0  0  0  0  0  0  0  0  0
    1.2120   -1.4100   -3.4010 O   0  0  0  0  0  0  0  0  0  0  0  0
    2.2050   -3.4140   -2.3940 O   0  0  0  0  0  0  0  0  0  0  0  0
    2.6830   -1.0950   -1.1510 C   0  0  0  0  0  0  0  0  0  0  0  0
    2.8180    0.1940   -1.0740 C   0  0  0  0  0  0  0  0  0  0  0  0
    3.8110    0.7270   -0.2110 C   0  0  0  0  0  0  0  0  0  0  0  0
    4.2960    1.9580   -0.2650 C   0  0  0  0  0  0  0  0  0  0  0  0
    3.8440    2.8700   -1.2250 O   0  0  0  0  0  0  0  0  0  0  0  0
    4.3060   -0.2450    0.8240 C   0  0  0  0  0  0  0  0  0  0  0  0
    3.9090   -1.8110   -0.0530 S   0  0  0  0  0  0  0  0  0  0  0  0
   -1.4760   -1.4840    0.4080 C   0  0  0  0  0  0  0  0  0  0  0  0
   -1.4350   -2.7370    1.0050 O   0  0  0  0  0  0  0  0  0  0  0  0
   -2.2960   -0.4980    0.8940 C   0  0  0  0  0  0  0  0  0  0  0  0
   -3.0960   -0.7300    1.9850 O   0  0  0  0  0  0  0  0  0  0  0  0
   -4.4130   -1.2320    1.8150 C   0  0  0  0  0  0  0  0  0  0  0  0
  1  2  1  0
  2  3  1  0
  3  4  2  0
  3 20  1  0
  4  5  1  0
  5  6  2  0
  6  7  1  0
  6 18  1  0
  8  7  1  1
  8  9  2  0
  8 10  2  0
  8 11  1  0
 11 12  2  0
 11 17  1  0
 12 13  1  0
 13 14  2  3
 13 16  1  0
 14 15  1  0
 16 17  1  0
 18 19  1  0
 18 20  2  0
 20 21  1  0
 21 22  1  0
M  END
