
     RDKit          3D

 22 23  0  0  0  0  0  0  0  0999 V2000
    5.5230    0.5650   -0.6270 N   0  0  0  0  0  0  0  0  0  0  0  0
    5.0030   -0.7240   -0.3760 C   0  0  0  0  0  0  0  0  0  0  0  0
    6.0040   -1.9410    0.1220 S   0  0  0  0  0  0  0  0  0  0  0  0
    3.5610   -1.0120   -0.5510 C   0  0  0  0  0  0  0  0  0  0  0  0
    2.8750   -0.1290    0.3430 O   0  0  0  0  0  0  0  0  0  0  0  0
    3.1560   -0.2270    1.6940 C   0  0  0  0  0  0  0  0  0  0  0  0
    3.9900   -1.0780    2.0690 O   0  0  0  0  0  0  0  0  0  0  0  0
    2.4900    0.6490    2.6890 C   0  0  0  0  0  0  0  0  0  0  0  0
    1.3580    1.7440    1.8330 S   0  0  0  0  0  0  0  0  0  0  0  0
    0.0290    0.8120    1.1170 C   0  0  0  0  0  0  0  0  0  0  0  0
   -0.0110   -0.5530    1.2710 C   0  0  0  0  0  0  0  0  0  0  0  0
   -1.0600   -1.2430    0.7000 C   0  0  0  0  0  0  0  0  0  0  0  0
   -2.0740   -0.6120   -0.0220 C   0  0  0  0  0  0  0  0  0  0  0  0
   -1.9920    0.7570   -0.1500 C   0  0  0  0  0  0  0  0  0  0  0  0
   -0.9620    1.4810    0.4040 C   0  0  0  0  0  0  0  0  0  0  0  0
   -2.9850    1.4190   -0.8630 O   0  0  0  0  0  0  0  0  0  0  0  0
   -4.2100    0.7460   -1.0870 C   0  0  2  0  0  0  0  0  0  0  0  0
   -4.9510    0.6710    0.2010 C   0  0  0  0  0  0  0  0  0  0  0  0
   -4.4690    1.1610    1.2520 O   0  0  0  0  0  0  0  0  0  0  0  0
   -6.1950    0.0580    0.2820 O   0  0  0  0  0  0  0  0  0  0  0  0
   -3.9550   -0.6800   -1.5290 C   0  0  0  0  0  0  0  0  0  0  0  0
   -3.1160   -1.3150   -0.5860 O   0  0  0  0  0  0  0  0  0  0  0  0
  1  2  1  0
  2  3  2  0
  2  4  1  0
  4  5  1  0
  5  6  1  0
  6  7  2  0
  6  8  1  0
  8  9  1  0
  9 10  1  0
 10 11  2  0
 10 15  1  0
 11 12  1  0
 12 13  2  0
 13 14  1  0
 13 22  1  0
 14 15  2  0
 14 16  1  0
 16 17  1  0
 17 18  1  1
 17 21  1  0
 18 19  2  0
 18 20  1  0
 21 22  1  0
M  END
