
     RDKit          3D

 22 23  0  0  0  0  0  0  0  0999 V2000
   -3.4390   -2.0570   -1.6750 C   0  0  0  0  0  0  0  0  0  0  0  0
   -3.0680   -0.8860   -1.1900 C   0  0  0  0  0  0  0  0  0  0  0  0
   -2.9090   -0.6870    0.2160 C   0  0  0  0  0  0  0  0  0  0  0  0
   -2.2910   -1.7340    0.9400 O   0  0  0  0  0  0  0  0  0  0  0  0
   -1.1690   -1.4970    1.7630 C   0  0  0  0  0  0  0  0  0  0  0  0
   -0.0260   -0.9450    0.9760 C   0  0  0  0  0  0  0  0  0  0  0  0
   -0.1930   -0.7710   -0.2500 O   0  0  0  0  0  0  0  0  0  0  0  0
    1.2110   -0.6210    1.5570 N   0  0  0  0  0  0  0  0  0  0  0  0
    2.3470   -0.0980    0.9220 C   0  0  0  0  0  0  0  0  0  0  0  0
    3.5210    0.0210    1.6760 C   0  0  0  0  0  0  0  0  0  0  0  0
    4.6940    0.5270    1.1550 C   0  0  0  0  0  0  0  0  0  0  0  0
    4.7630    0.9440   -0.1490 C   0  0  0  0  0  0  0  0  0  0  0  0
    5.9470    1.4500   -0.6590 O   0  0  0  0  0  0  0  0  0  0  0  0
    3.6360    0.8390   -0.9040 C   0  0  0  0  0  0  0  0  0  0  0  0
    3.6650    1.2500   -2.2280 O   0  0  0  0  0  0  0  0  0  0  0  0
    2.4420    0.3260   -0.3810 C   0  0  0  0  0  0  0  0  0  0  0  0
   -3.3100    0.4080    0.8330 C   0  0  0  0  0  0  0  0  0  0  0  0
   -3.9630    1.5720    0.2430 C   0  0  0  0  0  0  0  0  0  0  0  0
   -3.1330    2.1560   -1.2900 S   0  0  0  0  0  0  0  0  0  0  0  0
   -2.7710    0.3810   -2.3770 S   0  0  1  0  0  0  0  0  0  0  0  0
   -1.3720    0.3420   -2.8930 O   0  0  0  0  0  0  0  0  0  0  0  0
   -3.7920    0.3380   -3.4790 O   0  0  0  0  0  0  0  0  0  0  0  0
  1  2  2  0
  2  3  1  0
  2 20  1  0
  3  4  1  0
  3 17  2  0
  4  5  1  0
  5  6  1  0
  6  7  2  0
  6  8  1  0
  8  9  1  0
  9 10  2  0
  9 16  1  0
 10 11  1  0
 11 12  2  0
 12 13  1  0
 12 14  1  0
 14 15  1  0
 14 16  2  0
 17 18  1  0
 18 19  1  0
 20 19  1  1
 20 21  2  0
 20 22  2  0
M  END
