
     RDKit          3D

 22 23  0  0  0  0  0  0  0  0999 V2000
   -5.6560    2.7070    0.8570 C   0  0  0  0  0  0  0  0  0  0  0  0
   -4.6690    1.6750    0.3520 C   0  0  0  0  0  0  0  0  0  0  0  0
   -4.7810    0.7750   -0.6030 C   0  0  0  0  0  0  0  0  0  0  0  0
   -3.7470   -0.0610   -0.8870 C   0  0  0  0  0  0  0  0  0  0  0  0
   -3.8140   -1.1060   -1.9620 C   0  0  0  0  0  0  0  0  0  0  0  0
   -4.8280   -1.2730   -2.6680 O   0  0  0  0  0  0  0  0  0  0  0  0
   -2.7310   -1.9100   -2.1860 O   0  0  0  0  0  0  0  0  0  0  0  0
   -2.6080    0.0910   -0.1330 C   0  0  0  0  0  0  0  0  0  0  0  0
   -1.3590   -0.5520   -0.1090 N   0  0  0  0  0  0  0  0  0  0  0  0
   -0.3820   -0.1060    0.8330 C   0  0  0  0  0  0  0  0  0  0  0  0
   -0.6390    0.8280    1.6080 O   0  0  0  0  0  0  0  0  0  0  0  0
    0.9310   -0.7800    0.8600 C   0  0  0  0  0  0  0  0  0  0  0  0
    2.2200    0.4640    0.6980 S   0  0  0  0  0  0  0  0  0  0  0  0
    3.8560   -0.2550    0.6580 C   0  0  0  0  0  0  0  0  0  0  0  0
    4.0050   -1.6170    0.7360 C   0  0  0  0  0  0  0  0  0  0  0  0
    5.2260   -2.1010    0.7020 O   0  0  0  0  0  0  0  0  0  0  0  0
    6.3070   -1.3740    0.5990 C   0  0  0  0  0  0  0  0  0  0  0  0
    7.4360   -1.8850    0.5720 O   0  0  0  0  0  0  0  0  0  0  0  0
    6.1900    0.0040    0.5190 C   0  0  0  0  0  0  0  0  0  0  0  0
    7.3070    0.8250    0.4090 O   0  0  0  0  0  0  0  0  0  0  0  0
    4.9420    0.5650    0.5490 C   0  0  0  0  0  0  0  0  0  0  0  0
   -3.0750    1.4490    0.9710 S   0  0  0  0  0  0  0  0  0  0  0  0
  1  2  1  0
  2  3  2  0
  2 22  1  0
  3  4  1  0
  4  5  1  0
  4  8  2  0
  5  6  2  0
  5  7  1  0
  8  9  1  0
  8 22  1  0
  9 10  1  0
 10 11  2  0
 10 12  1  0
 12 13  1  0
 13 14  1  0
 14 15  2  0
 14 21  1  0
 15 16  1  0
 16 17  1  0
 17 18  2  0
 17 19  1  0
 19 20  1  0
 19 21  2  0
M  END
