
     RDKit          3D

 22 23  0  0  0  0  0  0  0  0999 V2000
    6.3080   -0.1340   -0.7910 O   0  0  0  0  0  0  0  0  0  0  0  0
    5.6970   -0.2260    0.2920 C   0  0  0  0  0  0  0  0  0  0  0  0
    6.3960   -0.2290    1.4870 O   0  0  0  0  0  0  0  0  0  0  0  0
    4.2450   -0.3280    0.2610 C   0  0  0  0  0  0  0  0  0  0  0  0
    3.5430   -0.3250   -0.9240 C   0  0  0  0  0  0  0  0  0  0  0  0
    2.1610   -0.4210   -0.9610 C   0  0  0  0  0  0  0  0  0  0  0  0
    1.4370   -0.5250    0.2050 C   0  0  0  0  0  0  0  0  0  0  0  0
   -0.0390   -0.6290    0.2460 C   0  0  0  0  0  0  0  0  0  0  0  0
   -0.6680   -0.4660   -1.0110 N   0  0  0  0  0  0  0  0  0  0  0  0
   -2.3500   -0.5580   -1.0620 S   0  0  1  0  0  0  0  0  0  0  0  0
   -2.8890   -0.5850   -2.4370 O   0  0  0  0  0  0  0  0  0  0  0  0
   -2.7490   -1.8630   -0.3750 O   0  0  0  0  0  0  0  0  0  0  0  0
   -3.0540    0.7710   -0.1020 C   0  0  0  0  0  0  0  0  0  0  0  0
   -2.3680    1.7850    0.3950 C   0  0  0  0  0  0  0  0  0  0  0  0
   -3.0030    2.7920    1.1080 C   0  0  0  0  0  0  0  0  0  0  0  0
   -4.7190    2.2370    1.0570 S   0  0  0  0  0  0  0  0  0  0  0  0
   -4.4530    0.7700    0.1270 C   0  0  0  0  0  0  0  0  0  0  0  0
   -5.4540   -0.1760   -0.3020 C   0  0  0  0  0  0  0  0  0  0  0  0
   -6.6770   -0.0070    0.0220 O   0  0  0  0  0  0  0  0  0  0  0  0
   -5.1470   -1.2650   -1.0550 O   0  0  0  0  0  0  0  0  0  0  0  0
    2.1460   -0.5270    1.3890 C   0  0  0  0  0  0  0  0  0  0  0  0
    3.5140   -0.4320    1.4260 C   0  0  0  0  0  0  0  0  0  0  0  0
  1  2  2  0
  2  3  1  0
  2  4  1  0
  4  5  2  0
  4 22  1  0
  5  6  1  0
  6  7  2  0
  7  8  1  0
  7 21  1  0
  8  9  1  0
 10  9  1  6
 10 11  2  0
 10 12  2  0
 10 13  1  0
 13 14  1  0
 13 17  2  0
 14 15  2  0
 15 16  1  0
 16 17  1  0
 17 18  1  0
 18 19  2  0
 18 20  1  0
 21 22  2  0
M  END
