
     RDKit          3D

 22 23  0  0  0  0  0  0  0  0999 V2000
    0.7890   -3.3250   -1.5270 C   0  0  0  0  0  0  0  0  0  0  0  0
    0.9890   -1.8560   -1.2510 C   0  0  1  0  0  0  0  0  0  0  0  0
   -0.1990   -1.2120   -0.8460 O   0  0  0  0  0  0  0  0  0  0  0  0
   -0.7780   -0.1910   -1.5970 C   0  0  0  0  0  0  0  0  0  0  0  0
   -0.2060    0.1530   -2.6700 O   0  0  0  0  0  0  0  0  0  0  0  0
   -1.9950    0.4790   -1.1960 C   0  0  0  0  0  0  0  0  0  0  0  0
   -2.6180    1.4890   -1.8860 C   0  0  0  0  0  0  0  0  0  0  0  0
   -3.7380    1.8470   -1.1680 C   0  0  0  0  0  0  0  0  0  0  0  0
   -3.7430    1.0290   -0.0660 C   0  0  0  0  0  0  0  0  0  0  0  0
   -4.7790    1.0380    1.0280 C   0  0  0  0  0  0  0  0  0  0  0  0
   -5.7580    2.0390    0.7300 N   0  0  0  0  0  0  0  0  0  0  0  0
   -2.6980    0.2380   -0.1210 O   0  0  0  0  0  0  0  0  0  0  0  0
    2.0700   -1.6440   -0.2260 C   0  0  0  0  0  0  0  0  0  0  0  0
    3.2070   -2.1140   -0.3600 O   0  0  0  0  0  0  0  0  0  0  0  0
    1.7850   -0.9050    0.8920 O   0  0  0  0  0  0  0  0  0  0  0  0
    2.6590   -0.6090    1.9360 C   0  0  0  0  0  0  0  0  0  0  0  0
    3.8640    0.1510    1.4930 C   0  0  0  0  0  0  0  0  0  0  0  0
    5.0240   -0.3070    1.1390 C   0  0  0  0  0  0  0  0  0  0  0  0
    6.1410    0.9880    0.6930 S   0  0  0  0  0  0  0  0  0  0  0  0
    5.3910    2.4160    0.8530 C   0  0  0  0  0  0  0  0  0  0  0  0
    5.7290    3.7100    0.6630 O   0  0  0  0  0  0  0  0  0  0  0  0
    3.8450    1.9680    1.3900 S   0  0  0  0  0  0  0  0  0  0  0  0
  2  1  1  1
  2  3  1  0
  2 13  1  0
  3  4  1  0
  4  5  2  0
  4  6  1  0
  6  7  2  0
  6 12  1  0
  7  8  1  0
  8  9  2  0
  9 10  1  0
  9 12  1  0
 10 11  1  0
 13 14  2  0
 13 15  1  0
 15 16  1  0
 16 17  1  0
 17 18  2  0
 17 22  1  0
 18 19  1  0
 19 20  1  0
 20 21  2  0
 20 22  1  0
M  END
