
     RDKit          3D

 32 33  0  0  0  0  0  0  0  0999 V2000
    5.1430   -0.5840   -0.4470 C   0  0  0  0  0  0  0  0  0  0  0  0
    3.9000   -0.1060   -0.8030 O   0  0  0  0  0  0  0  0  0  0  0  0
    3.4200    0.8040    0.1220 C   0  0  0  0  0  0  0  0  0  0  0  0
    2.0360    1.3300   -0.2760 C   0  0  0  0  0  0  0  0  0  0  0  0
    1.1600    0.2230   -0.3490 N   0  0  0  0  0  0  0  0  0  0  0  0
    1.4180   -0.6470   -1.4230 C   0  0  0  0  0  0  0  0  0  0  0  0
    0.2800   -1.1710   -2.1720 C   0  0  0  0  0  0  0  0  0  0  0  0
    0.5290   -1.8530   -3.2050 O   0  0  0  0  0  0  0  0  0  0  0  0
   -0.9850   -0.9080   -1.7350 O   0  0  0  0  0  0  0  0  0  0  0  0
   -1.2250   -0.4150   -0.4200 C   0  0  2  0  0  0  0  0  0  0  0  0
   -1.7200   -1.4500    0.3000 O   0  0  0  0  0  0  0  0  0  0  0  0
   -1.0220   -2.6000    0.4560 C   0  0  1  0  0  0  0  0  0  0  0  0
   -1.2440   -3.2100    1.6790 O   0  0  0  0  0  0  0  0  0  0  0  0
   -2.4440   -3.6270    1.1960 O   0  0  0  0  0  0  0  0  0  0  0  0
   -1.8110   -3.8290    0.0110 C   0  0  0  0  0  0  0  0  0  0  0  0
   -1.8040   -4.5670   -0.9580 O   0  0  0  0  0  0  0  0  0  0  0  0
   -2.7710    0.6710   -0.7090 P   0  0  0  0  0  0  0  0  0  0  0  0
   -3.9370   -0.3040   -1.5540 O   0  0  0  0  0  0  0  0  0  0  0  0
   -5.2050   -0.6740   -0.4290 P   0  0  0  0  0  0  0  0  0  0  0  0
   -4.7790   -1.3310    0.9260 O   0  0  0  0  0  0  0  0  0  0  0  0
   -2.4380    2.0390   -1.6550 O   0  0  0  0  0  0  0  0  0  0  0  0
   -3.6410    3.2560   -1.2900 P   0  0  0  0  0  0  0  0  0  0  0  0
   -5.0240    2.4660   -0.5940 O   0  0  0  0  0  0  0  0  0  0  0  0
   -0.1480    0.3520    0.1680 C   0  0  2  0  0  0  0  0  0  0  0  0
   -0.5300    2.2080   -0.1670 P   0  0  0  0  0  0  0  0  0  0  0  0
   -0.2410    3.2830    0.8720 O   0  0  0  0  0  0  0  0  0  0  0  0
   -0.0410    0.2890    1.6660 C   0  0  1  0  0  0  0  0  0  0  0  0
    0.5790   -0.9020    2.0140 O   0  0  0  0  0  0  0  0  0  0  0  0
    0.8040    1.2990    2.1730 O   0  0  0  0  0  0  0  0  0  0  0  0
    0.9070    1.2630    3.4620 O   0  0  0  0  0  0  0  0  0  0  0  0
   -1.6820    0.3070    2.5060 P   0  0  0  0  0  0  0  0  0  0  0  0
   -2.7480    1.3890    2.3200 O   0  0  0  0  0  0  0  0  0  0  0  0
  1  2  1  0
  2  3  1  0
  3  4  1  0
  4  5  1  0
  5  6  1  0
  5 24  1  0
  6  7  1  0
  7  8  2  0
  7  9  1  0
  9 10  1  0
 10 11  1  1
 10 17  1  0
 10 24  1  0
 12 11  1  1
 12 13  1  0
 12 15  1  0
 13 14  1  0
 14 15  1  0
 15 16  2  0
 17 18  1  0
 17 21  1  0
 18 19  1  0
 19 20  2  0
 21 22  1  0
 22 23  1  0
 24 25  1  1
 24 27  1  0
 25 26  2  0
 27 28  1  6
 27 29  1  0
 27 31  1  0
 29 30  1  0
 31 32  2  0
M  END
