
     RDKit          3D

 31 32  0  0  0  0  0  0  0  0999 V2000
    5.4610    0.8030   -1.0040 C   0  0  0  0  0  0  0  0  0  0  0  0
    5.2150   -0.5500   -0.8350 O   0  0  0  0  0  0  0  0  0  0  0  0
    5.5360   -1.0470    0.7830 P   0  0  0  0  0  0  0  0  0  0  0  0
    4.4250   -0.3030    1.8840 O   0  0  0  0  0  0  0  0  0  0  0  0
    2.7810   -0.5760    1.4250 P   0  0  0  0  0  0  0  0  0  0  0  0
    2.5480   -2.1530    0.7470 O   0  0  0  0  0  0  0  0  0  0  0  0
    2.1640    0.6670    0.4080 O   0  0  0  0  0  0  0  0  0  0  0  0
    0.4650    0.8010    0.6850 P   0  0  0  0  0  0  0  0  0  0  0  0
   -0.4820    0.1300   -0.5520 O   0  0  0  0  0  0  0  0  0  0  0  0
   -1.3740   -0.8260   -0.2410 C   0  0  1  0  0  0  0  0  0  0  0  0
   -0.8570   -2.0850    0.3860 C   0  0  0  0  0  0  0  0  0  0  0  0
   -2.1280   -2.6480    0.9890 C   0  0  0  0  0  0  0  0  0  0  0  0
   -3.0830   -1.6640    1.0190 O   0  0  0  0  0  0  0  0  0  0  0  0
   -2.4670   -0.4480    0.7370 C   0  0  1  0  0  0  0  0  0  0  0  0
   -1.9320    0.0560    2.0610 C   0  0  0  0  0  0  0  0  0  0  0  0
   -3.3170    0.4610    0.0840 N   0  0  0  0  0  0  0  0  0  0  0  0
   -4.6760    0.4880    0.3920 C   0  0  0  0  0  0  0  0  0  0  0  0
   -5.0170    0.7670    1.6940 O   0  0  0  0  0  0  0  0  0  0  0  0
   -6.7230    0.7560    1.8820 S   0  0  0  0  0  0  0  0  0  0  0  0
   -2.9040    0.9980   -1.0370 O   0  0  0  0  0  0  0  0  0  0  0  0
   -2.5780    0.0010   -1.9100 N   0  0  0  0  0  0  0  0  0  0  0  0
   -2.7850    0.2000   -3.2870 C   0  0  0  0  0  0  0  0  0  0  0  0
   -2.4810   -0.7300   -4.0940 O   0  0  0  0  0  0  0  0  0  0  0  0
   -3.3320    1.4300   -3.7970 C   0  0  0  0  0  0  0  0  0  0  0  0
   -3.6330    2.3470   -3.0060 O   0  0  0  0  0  0  0  0  0  0  0  0
   -3.5350    1.6250   -5.1550 O   0  0  0  0  0  0  0  0  0  0  0  0
   -2.0630   -1.1590   -1.4350 O   0  0  0  0  0  0  0  0  0  0  0  0
    7.5770   -0.5250    1.4200 P   0  0  0  0  0  0  0  0  0  0  0  0
    7.6190    1.0690    2.1040 O   0  0  0  0  0  0  0  0  0  0  0  0
    8.8920   -0.5500   -0.3360 P   0  0  0  0  0  0  0  0  0  0  0  0
    8.3130   -0.1930   -1.7310 O   0  0  0  0  0  0  0  0  0  0  0  0
  1  2  1  0
  2  3  1  0
  3  4  1  0
  3 28  1  0
  4  5  1  0
  5  6  1  0
  5  7  1  0
  7  8  1  0
  8  9  1  0
 10  9  1  6
 10 11  1  0
 10 14  1  0
 10 27  1  0
 11 12  1  0
 12 13  1  0
 13 14  1  0
 14 15  1  1
 14 16  1  0
 16 17  1  0
 16 20  1  0
 17 18  1  0
 18 19  1  0
 20 21  1  0
 21 22  1  0
 21 27  1  0
 22 23  2  0
 22 24  1  0
 24 25  2  0
 24 26  1  0
 28 29  1  0
 28 30  1  0
 30 31  2  0
M  END
