
     RDKit          3D

 30 31  0  0  0  0  0  0  0  0999 V2000
    6.7150    0.1530   -1.4100 N   0  0  0  0  0  0  0  0  0  0  0  0
    5.3800   -0.0350   -1.6890 O   0  0  0  0  0  0  0  0  0  0  0  0
    4.4380   -0.3050   -0.7390 C   0  0  0  0  0  0  0  0  0  0  0  0
    3.2510    0.2790   -0.7230 C   0  0  0  0  0  0  0  0  0  0  0  0
    2.1830    0.0980    0.1950 N   0  0  0  0  0  0  0  0  0  0  0  0
    1.1690    0.8670   -0.1370 C   0  0  0  0  0  0  0  0  0  0  0  0
    0.0380    0.8290    0.6390 O   0  0  0  0  0  0  0  0  0  0  0  0
   -0.6880   -0.3360    0.8850 C   0  0  1  0  0  0  0  0  0  0  0  0
    0.0440   -1.3460    1.4600 O   0  0  0  0  0  0  0  0  0  0  0  0
    0.7140   -0.8940    2.9940 P   0  0  0  0  0  0  0  0  0  0  0  0
   -2.1900    0.0450    2.0110 P   0  0  0  0  0  0  0  0  0  0  0  0
   -3.3370    1.0320    1.3280 C   0  0  0  0  0  0  0  0  0  0  0  0
   -4.5180    1.4780    1.8900 O   0  0  0  0  0  0  0  0  0  0  0  0
   -2.9430    1.5690   -0.3830 P   0  0  0  0  0  0  0  0  0  0  0  0
   -2.2870    3.1580   -0.2940 O   0  0  0  0  0  0  0  0  0  0  0  0
   -3.4870    4.3740   -0.5960 P   0  0  0  0  0  0  0  0  0  0  0  0
   -4.7520    4.3440    0.5860 O   0  0  0  0  0  0  0  0  0  0  0  0
   -2.7330    5.9200   -0.5520 O   0  0  0  0  0  0  0  0  0  0  0  0
   -1.7650    0.3930   -1.1340 C   0  0  0  0  0  0  0  0  0  0  0  0
   -1.3190    0.5770   -2.2390 O   0  0  0  0  0  0  0  0  0  0  0  0
   -1.3480   -0.8170   -0.3640 C   0  0  2  0  0  0  0  0  0  0  0  0
   -2.5380   -1.5200   -0.0410 O   0  0  0  0  0  0  0  0  0  0  0  0
   -0.4380   -1.6940   -1.1660 C   0  0  0  0  0  0  0  0  0  0  0  0
    0.0410   -3.1600   -0.1400 P   0  0  0  0  0  0  0  0  0  0  0  0
    0.6330   -4.3830   -1.2400 O   0  0  0  0  0  0  0  0  0  0  0  0
   -1.3280   -3.8260    0.6770 O   0  0  0  0  0  0  0  0  0  0  0  0
   -1.0510   -5.0170    1.1460 O   0  0  0  0  0  0  0  0  0  0  0  0
    1.4950    1.6020   -1.2840 O   0  0  0  0  0  0  0  0  0  0  0  0
    2.7770    1.2740   -1.6870 C   0  0  0  0  0  0  0  0  0  0  0  0
    3.4670    1.6790   -2.6470 O   0  0  0  0  0  0  0  0  0  0  0  0
  1  2  1  0
  2  3  1  0
  3  4  2  3
  4  5  1  0
  4 29  1  0
  5  6  2  0
  6  7  1  0
  6 28  1  0
  8  7  1  6
  8  9  1  0
  8 11  1  0
  8 21  1  0
  9 10  1  0
 11 12  2  0
 12 13  1  0
 12 14  1  0
 14 15  1  0
 14 19  1  0
 15 16  1  0
 16 17  1  0
 16 18  1  0
 19 20  2  0
 19 21  1  0
 21 22  1  1
 21 23  1  0
 23 24  1  0
 24 25  1  0
 24 26  1  0
 26 27  1  0
 28 29  1  0
 29 30  2  0
M  END
