
     RDKit          3D

 31 32  0  0  0  0  0  0  0  0999 V2000
   -2.3510   -2.7330    2.4610 C   0  0  0  0  0  0  0  0  0  0  0  0
   -1.6910   -2.4290    1.2760 O   0  0  0  0  0  0  0  0  0  0  0  0
   -2.2150   -0.9470    0.5810 P   0  0  0  0  0  0  0  0  0  0  0  0
   -3.7720   -1.1400   -0.1600 O   0  0  0  0  0  0  0  0  0  0  0  0
   -4.7950   -0.6870    0.6900 C   0  0  0  0  0  0  0  0  0  0  0  0
   -4.5520    1.1160    1.0790 P   0  0  0  0  0  0  0  0  0  0  0  0
   -3.4750    1.8730   -0.0530 O   0  0  0  0  0  0  0  0  0  0  0  0
   -6.4940    2.1760    1.0850 P   0  0  0  0  0  0  0  0  0  0  0  0
   -7.8080    1.0430    1.0820 O   0  0  0  0  0  0  0  0  0  0  0  0
   -6.6120    3.2650   -0.2480 O   0  0  0  0  0  0  0  0  0  0  0  0
   -6.6060    4.8810    0.3160 S   0  0  0  0  0  0  0  0  0  0  0  0
   -0.7830   -0.3860   -0.9970 P   0  0  0  0  0  0  0  0  0  0  0  0
    0.7590   -1.1660   -0.6750 O   0  0  0  0  0  0  0  0  0  0  0  0
    1.4770   -1.1190   -1.8250 N   0  0  0  0  0  0  0  0  0  0  0  0
    2.7990   -0.5190   -1.8240 C   0  0  2  0  0  0  0  0  0  0  0  0
    3.7160   -1.1270   -0.8180 C   0  0  0  0  0  0  0  0  0  0  0  0
    4.7330   -0.2220   -0.5500 O   0  0  0  0  0  0  0  0  0  0  0  0
    4.3260    0.7990    0.3160 C   0  0  1  0  0  0  0  0  0  0  0  0
    3.8270    0.3730    1.5000 O   0  0  0  0  0  0  0  0  0  0  0  0
    4.5320   -0.3540    2.2750 O   0  0  0  0  0  0  0  0  0  0  0  0
    5.3030    1.7300    0.4030 O   0  0  0  0  0  0  0  0  0  0  0  0
    6.5410    1.4500    0.8340 C   0  0  0  0  0  0  0  0  0  0  0  0
    6.6280    0.9690    2.1230 O   0  0  0  0  0  0  0  0  0  0  0  0
    3.1840    1.5080   -0.3400 N   0  0  0  0  0  0  0  0  0  0  0  0
    2.6190    0.9190   -1.4640 C   0  0  0  0  0  0  0  0  0  0  0  0
    1.9020    1.6080   -2.2600 O   0  0  0  0  0  0  0  0  0  0  0  0
    0.9230   -1.6570   -3.0140 C   0  0  0  0  0  0  0  0  0  0  0  0
    1.7900   -2.1860   -3.8100 O   0  0  0  0  0  0  0  0  0  0  0  0
   -0.4810   -1.6530   -3.3740 C   0  0  0  0  0  0  0  0  0  0  0  0
   -1.3640   -1.1180   -2.5680 C   0  0  0  0  0  0  0  0  0  0  0  0
   -2.7360   -1.0980   -2.8900 O   0  0  0  0  0  0  0  0  0  0  0  0
  1  2  1  0
  2  3  1  0
  3  4  1  0
  3 12  1  0
  4  5  1  0
  5  6  1  0
  6  7  1  0
  6  8  1  0
  8  9  1  0
  8 10  1  0
 10 11  1  0
 12 13  1  0
 12 30  1  0
 13 14  1  0
 15 14  1  1
 14 27  1  0
 15 16  1  0
 15 25  1  0
 16 17  1  0
 17 18  1  0
 18 19  1  1
 18 21  1  0
 18 24  1  0
 19 20  1  0
 21 22  1  0
 22 23  1  0
 24 25  1  0
 25 26  2  0
 27 28  2  0
 27 29  1  0
 29 30  2  0
 30 31  1  0
M  END
