
     RDKit          3D

 32 34  0  0  0  0  0  0  0  0999 V2000
   -7.9910   -1.1280   -1.6690 N   0  0  0  0  0  0  0  0  0  0  0  0
   -7.2290   -0.7020   -0.5470 C   0  0  0  0  0  0  0  0  0  0  0  0
   -5.9250   -0.4050   -0.6630 N   0  0  0  0  0  0  0  0  0  0  0  0
   -5.1970   -0.0010    0.3990 C   0  0  0  0  0  0  0  0  0  0  0  0
   -5.8480    0.0990    1.6330 C   0  0  0  0  0  0  0  0  0  0  0  0
   -4.8830    0.5170    2.4790 N   0  0  0  0  0  0  0  0  0  0  0  0
   -3.7250    0.6620    1.8130 C   0  0  0  0  0  0  0  0  0  0  0  0
   -3.9060    0.3460    0.5300 N   0  0  0  0  0  0  0  0  0  0  0  0
   -2.8680    0.3860   -0.4890 C   0  0  2  0  0  0  0  0  0  0  0  0
   -1.8510   -0.4910   -0.2450 O   0  0  0  0  0  0  0  0  0  0  0  0
   -0.6450    0.1510   -0.4780 C   0  0  2  0  0  0  0  0  0  0  0  0
    0.3800   -0.4000    0.5000 C   0  0  0  0  0  0  0  0  0  0  0  0
    1.6040    0.1850    0.3340 O   0  0  0  0  0  0  0  0  0  0  0  0
    2.8010   -0.3130    1.3250 P   0  0  0  0  0  0  0  0  0  0  0  0
    3.8010    0.8070    2.0600 O   0  0  0  0  0  0  0  0  0  0  0  0
    2.9700   -1.8930    1.7610 O   0  0  0  0  0  0  0  0  0  0  0  0
    3.7950   -0.4520    0.1870 O   0  0  0  0  0  0  0  0  0  0  0  0
    5.0470   -1.5170    0.1170 P   0  0  0  0  0  0  0  0  0  0  0  0
    5.1100   -1.6330    1.6330 O   0  0  0  0  0  0  0  0  0  0  0  0
    4.7130   -3.1570    0.0010 O   0  0  0  0  0  0  0  0  0  0  0  0
    6.6280   -1.0130   -0.1430 N   0  0  0  0  0  0  0  0  0  0  0  0
    6.6880    0.4300   -0.9980 P   0  0  0  0  0  0  0  0  0  0  0  0
    8.1090    1.2220   -1.1900 O   0  0  0  0  0  0  0  0  0  0  0  0
    6.7750   -0.2350   -2.3640 O   0  0  0  0  0  0  0  0  0  0  0  0
    5.2640    1.1770   -1.4590 O   0  0  0  0  0  0  0  0  0  0  0  0
   -0.8860    1.6220   -0.2430 C   0  0  1  0  0  0  0  0  0  0  0  0
   -0.1060    2.4210   -1.0640 O   0  0  0  0  0  0  0  0  0  0  0  0
   -2.3310    1.7630   -0.6720 C   0  0  1  0  0  0  0  0  0  0  0  0
   -2.3360    2.1490   -2.0270 O   0  0  0  0  0  0  0  0  0  0  0  0
   -7.1780   -0.2070    1.7380 C   0  0  0  0  0  0  0  0  0  0  0  0
   -7.7550   -0.1160    2.8410 O   0  0  0  0  0  0  0  0  0  0  0  0
   -7.8580   -0.6030    0.6590 N   0  0  0  0  0  0  0  0  0  0  0  0
  1  2  1  0
  2  3  1  0
  2 32  2  0
  3  4  1  0
  4  5  2  0
  4  8  1  0
  5  6  1  0
  5 30  1  0
  6  7  2  0
  7  8  1  0
  9  8  1  1
  9 10  1  0
  9 28  1  0
 10 11  1  0
 11 12  1  1
 11 26  1  0
 12 13  1  0
 13 14  1  0
 14 15  1  0
 14 16  1  0
 14 17  1  0
 17 18  1  0
 18 19  1  0
 18 20  1  0
 18 21  1  0
 21 22  1  0
 22 23  1  0
 22 24  1  0
 22 25  1  0
 26 27  1  6
 26 28  1  0
 28 29  1  6
 30 31  2  0
 30 32  1  0
M  CHG  1  32   1
M  END
