
     RDKit          3D

 32 33  0  0  0  0  0  0  0  0999 V2000
    6.9620   -0.6680   -0.6130 C   0  0  0  0  0  0  0  0  0  0  0  0
    6.1410   -1.6180   -0.0220 O   0  0  0  0  0  0  0  0  0  0  0  0
    4.8360   -2.1030   -1.0580 P   0  0  0  0  0  0  0  0  0  0  0  0
    4.8240   -3.8380   -1.0920 O   0  0  0  0  0  0  0  0  0  0  0  0
    3.3610   -1.5890   -0.3210 O   0  0  0  0  0  0  0  0  0  0  0  0
    3.2650    0.0960    0.0090 P   0  0  0  0  0  0  0  0  0  0  0  0
    4.4810    1.1500    0.4140 O   0  0  0  0  0  0  0  0  0  0  0  0
    4.1100    2.3670    0.7000 C   0  0  0  0  0  0  0  0  0  0  0  0
    5.1370    3.1110    1.0040 O   0  0  0  0  0  0  0  0  0  0  0  0
    2.9990    2.9440    0.7390 O   0  0  0  0  0  0  0  0  0  0  0  0
    1.7850    2.6780    0.5440 O   0  0  0  0  0  0  0  0  0  0  0  0
    1.4590    1.1170    0.0950 P   0  0  0  0  0  0  0  0  0  0  0  0
   -0.1260    0.1840    0.2470 C   0  0  2  0  0  0  0  0  0  0  0  0
   -0.2890   -0.6120    1.9140 P   0  0  0  0  0  0  0  0  0  0  0  0
    0.3380   -0.0380    3.1970 O   0  0  0  0  0  0  0  0  0  0  0  0
   -0.2530   -0.9430   -0.7790 C   0  0  0  0  0  0  0  0  0  0  0  0
   -1.7450   -1.8720   -0.3280 S   0  0  0  0  0  0  0  0  0  0  0  0
   -3.0660   -0.6730   -0.0040 C   0  0  1  0  0  0  0  0  0  0  0  0
   -4.0090   -1.2490    0.9300 N   0  0  0  0  0  0  0  0  0  0  0  0
   -5.3450   -1.4190    0.5170 C   0  0  0  0  0  0  0  0  0  0  0  0
   -5.7490   -1.0950   -0.6180 O   0  0  0  0  0  0  0  0  0  0  0  0
   -6.2490   -1.9750    1.4210 O   0  0  0  0  0  0  0  0  0  0  0  0
   -7.5190   -2.1370    1.0320 O   0  0  0  0  0  0  0  0  0  0  0  0
   -7.5550   -2.9110   -0.0300 O   0  0  0  0  0  0  0  0  0  0  0  0
   -2.5130    0.5920    0.6300 C   0  0  0  0  0  0  0  0  0  0  0  0
   -1.3130    1.0330   -0.0180 N   0  0  0  0  0  0  0  0  0  0  0  0
   -1.1520    2.1380   -0.8650 C   0  0  0  0  0  0  0  0  0  0  0  0
   -0.0010    2.4190   -1.3660 O   0  0  0  0  0  0  0  0  0  0  0  0
   -2.2140    3.0380   -1.2470 C   0  0  0  0  0  0  0  0  0  0  0  0
   -3.4100    2.9440   -0.8860 O   0  0  0  0  0  0  0  0  0  0  0  0
   -1.8590    4.4830   -2.3680 P   0  0  0  0  0  0  0  0  0  0  0  0
   -1.6260    5.8430   -1.6350 O   0  0  0  0  0  0  0  0  0  0  0  0
  1  2  1  0
  2  3  1  0
  3  4  1  0
  3  5  1  0
  5  6  1  0
  6  7  1  0
  6 12  1  0
  7  8  1  0
  8  9  2  0
  8 10  1  0
 10 11  1  0
 11 12  1  0
 13 12  1  1
 13 14  1  0
 13 16  1  0
 13 26  1  0
 14 15  2  0
 16 17  1  0
 17 18  1  0
 18 19  1  1
 18 25  1  0
 19 20  1  0
 20 21  2  0
 20 22  1  0
 22 23  1  0
 23 24  1  0
 25 26  1  0
 26 27  1  0
 27 28  2  0
 27 29  1  0
 29 30  2  0
 29 31  1  0
 31 32  2  0
M  END
