
     RDKit          3D

 32 33  0  0  0  0  0  0  0  0999 V2000
   -7.2970    2.0690    0.0570 C   0  0  0  0  0  0  0  0  0  0  0  0
   -6.6540    0.7840   -1.1270 P   0  0  0  0  0  0  0  0  0  0  0  0
   -7.0530    1.2190   -2.7420 O   0  0  0  0  0  0  0  0  0  0  0  0
   -4.9270    0.5520   -0.9240 O   0  0  0  0  0  0  0  0  0  0  0  0
   -4.3730    1.7870    0.1290 P   0  0  0  0  0  0  0  0  0  0  0  0
   -2.6140    1.6410    0.5640 C   0  0  0  0  0  0  0  0  0  0  0  0
   -2.0520    2.6830    1.0320 O   0  0  0  0  0  0  0  0  0  0  0  0
   -1.8750    0.4900    0.4180 O   0  0  0  0  0  0  0  0  0  0  0  0
   -0.5230    0.4900    0.7890 C   0  0  1  0  0  0  0  0  0  0  0  0
   -0.3110    0.7960    2.1360 O   0  0  0  0  0  0  0  0  0  0  0  0
   -1.0890   -0.3490    3.1690 P   0  0  0  0  0  0  0  0  0  0  0  0
   -0.0400   -0.7890    4.5080 O   0  0  0  0  0  0  0  0  0  0  0  0
   -1.4540   -1.8240    2.3300 O   0  0  0  0  0  0  0  0  0  0  0  0
   -2.7300   -1.8490    1.9160 O   0  0  0  0  0  0  0  0  0  0  0  0
   -3.2540   -2.9780    1.3210 C   0  0  0  0  0  0  0  0  0  0  0  0
   -2.5140   -3.9860    1.1710 O   0  0  0  0  0  0  0  0  0  0  0  0
    0.0570   -0.8230    0.5790 O   0  0  0  0  0  0  0  0  0  0  0  0
    1.2700   -0.5570   -0.0740 C   0  0  0  0  0  0  0  0  0  0  0  0
    2.4960   -0.9960   -0.0810 C   0  0  0  0  0  0  0  0  0  0  0  0
    2.8390   -2.0340    0.7500 O   0  0  0  0  0  0  0  0  0  0  0  0
    3.5400   -0.4390   -0.9170 N   0  0  0  0  0  0  0  0  0  0  0  0
    4.8370   -0.9910   -0.8640 C   0  0  0  0  0  0  0  0  0  0  0  0
    5.0770   -1.9850   -0.0750 O   0  0  0  0  0  0  0  0  0  0  0  0
    5.9550   -0.5740   -1.5980 N   0  0  0  0  0  0  0  0  0  0  0  0
    7.5710   -1.3510   -1.4550 P   0  0  0  0  0  0  0  0  0  0  0  0
    8.7810   -0.0520   -0.1190 P   0  0  0  0  0  0  0  0  0  0  0  0
    3.1710    0.6340   -1.7430 C   0  0  0  0  0  0  0  0  0  0  0  0
    3.9910    1.1890   -2.5100 O   0  0  0  0  0  0  0  0  0  0  0  0
    1.8370    1.1050   -1.7120 O   0  0  0  0  0  0  0  0  0  0  0  0
    0.8240    0.5660   -0.9770 C   0  0  1  0  0  0  0  0  0  0  0  0
   -0.1670    0.0900   -1.8530 O   0  0  0  0  0  0  0  0  0  0  0  0
    0.1850    1.3570   -0.0420 O   0  0  0  0  0  0  0  0  0  0  0  0
  1  2  1  0
  2  3  1  0
  2  4  1  0
  4  5  1  0
  5  6  1  0
  6  7  2  0
  6  8  1  0
  9  8  1  6
  9 10  1  0
  9 17  1  0
  9 32  1  0
 10 11  1  0
 11 12  1  0
 11 13  1  0
 13 14  1  0
 14 15  1  0
 15 16  2  0
 17 18  1  0
 18 19  2  0
 18 30  1  0
 19 20  1  0
 19 21  1  0
 21 22  1  0
 21 27  1  0
 22 23  2  0
 22 24  1  0
 24 25  1  0
 25 26  1  0
 27 28  2  0
 27 29  1  0
 29 30  1  0
 30 31  1  6
 30 32  1  0
M  END
