
     RDKit          3D

 28 30  0  0  0  0  0  0  0  0999 V2000
    6.8340    1.4540   -0.1400 N   0  0  0  0  0  0  0  0  0  0  0  0
    5.9820    0.3760    0.2680 C   0  0  0  0  0  0  0  0  0  0  0  0
    4.6450    0.5320    0.3370 N   0  0  0  0  0  0  0  0  0  0  0  0
    3.8720   -0.4940    0.7230 C   0  0  0  0  0  0  0  0  0  0  0  0
    4.3980   -1.7250    1.0570 C   0  0  0  0  0  0  0  0  0  0  0  0
    3.3770   -2.5020    1.3870 N   0  0  0  0  0  0  0  0  0  0  0  0
    2.2370   -1.7700    1.2610 C   0  0  0  0  0  0  0  0  0  0  0  0
    2.5280   -0.5220    0.8490 N   0  0  0  0  0  0  0  0  0  0  0  0
    1.6210    0.5790    0.5880 C   0  0  2  0  0  0  0  0  0  0  0  0
    0.3600    0.1810    0.9660 O   0  0  0  0  0  0  0  0  0  0  0  0
   -0.5280    0.7200    0.0650 C   0  0  2  0  0  0  0  0  0  0  0  0
   -1.8030   -0.0960   -0.0530 C   0  0  0  0  0  0  0  0  0  0  0  0
   -2.6180    0.5030   -0.9570 O   0  0  0  0  0  0  0  0  0  0  0  0
   -4.0760   -0.2680   -1.2110 P   0  0  0  0  0  0  0  0  0  0  0  0
   -5.3670    0.6950   -1.6070 O   0  0  0  0  0  0  0  0  0  0  0  0
   -4.1940   -1.8800   -1.3470 O   0  0  0  0  0  0  0  0  0  0  0  0
   -4.3780   -0.1950    0.2690 O   0  0  0  0  0  0  0  0  0  0  0  0
   -5.8470   -0.0410    0.9350 P   0  0  0  0  0  0  0  0  0  0  0  0
   -6.6900    1.3710    0.8960 O   0  0  0  0  0  0  0  0  0  0  0  0
   -6.6360   -0.6330   -0.2260 O   0  0  0  0  0  0  0  0  0  0  0  0
   -6.4570   -1.2780    1.8960 O   0  0  0  0  0  0  0  0  0  0  0  0
    0.1720    0.5960   -1.2940 C   0  0  1  0  0  0  0  0  0  0  0  0
   -0.3090    1.5300   -2.1820 O   0  0  0  0  0  0  0  0  0  0  0  0
    1.6110    0.8490   -0.8870 C   0  0  1  0  0  0  0  0  0  0  0  0
    1.9100    2.1780   -1.1820 O   0  0  0  0  0  0  0  0  0  0  0  0
    5.7640   -1.8840    0.9870 C   0  0  0  0  0  0  0  0  0  0  0  0
    6.3110   -3.0000    1.2840 O   0  0  0  0  0  0  0  0  0  0  0  0
    6.4890   -0.8250    0.5950 N   0  0  0  0  0  0  0  0  0  0  0  0
  1  2  1  0
  2  3  1  0
  2 28  2  0
  3  4  1  0
  4  5  2  0
  4  8  1  0
  5  6  1  0
  5 26  1  0
  6  7  2  0
  7  8  1  0
  9  8  1  6
  9 10  1  0
  9 24  1  0
 10 11  1  0
 11 12  1  6
 11 22  1  0
 12 13  1  0
 13 14  1  0
 14 15  1  0
 14 16  1  0
 14 17  1  0
 17 18  1  0
 18 19  1  0
 18 20  1  0
 18 21  1  0
 22 23  1  6
 22 24  1  0
 24 25  1  1
 26 27  2  0
 26 28  1  0
M  CHG  1  28   1
M  END
