
     RDKit          3D

 11 10  0  0  0  0  0  0  0  0999 V2000
   -1.4600   -1.4190    2.2880 C   0  0  0  0  0  0  0  0  0  0  0  0
   -0.8680   -0.8770    1.1450 O   0  0  0  0  0  0  0  0  0  0  0  0
   -0.7510    0.5050    1.3750 C   0  0  0  0  0  0  0  0  0  0  0  0
   -0.1100    1.1310    0.1510 C   0  0  1  0  0  0  0  0  0  0  0  0
    0.0060    2.5010    0.3800 O   0  0  0  0  0  0  0  0  0  0  0  0
   -0.6180    3.1680   -0.5380 O   0  0  0  0  0  0  0  0  0  0  0  0
    1.1870    0.6470    0.0010 O   0  0  0  0  0  0  0  0  0  0  0  0
    1.2840    0.1410   -1.2310 O   0  0  0  0  0  0  0  0  0  0  0  0
    2.0140   -1.0040   -1.4670 C   0  0  0  0  0  0  0  0  0  0  0  0
    2.5790   -1.5340   -0.4500 O   0  0  0  0  0  0  0  0  0  0  0  0
    2.1490   -1.5760   -2.7300 O   0  0  0  0  0  0  0  0  0  0  0  0
  1  2  1  0
  2  3  1  0
  4  3  1  1
  4  5  1  0
  4  7  1  0
  5  6  1  0
  7  8  1  0
  8  9  1  0
  9 10  2  0
  9 11  1  0
M  END
