
     RDKit          3D

 11 12  0  0  0  0  0  0  0  0999 V2000
   -0.3950    2.7610   -0.5350 C   0  0  0  0  0  0  0  0  0  0  0  0
   -0.7750    1.5200   -0.2330 C   0  0  0  0  0  0  0  0  0  0  0  0
   -2.1110    1.1600   -0.1210 O   0  0  0  0  0  0  0  0  0  0  0  0
   -2.4950   -0.1290    0.1920 O   0  0  0  0  0  0  0  0  0  0  0  0
   -1.5610   -1.1280    0.4110 C   0  0  0  0  0  0  0  0  0  0  0  0
   -1.9040   -2.3720    0.7130 C   0  0  0  0  0  0  0  0  0  0  0  0
   -0.1540   -0.7590    0.2960 C   0  0  0  0  0  0  0  0  0  0  0  0
    0.2190    0.4780   -0.0050 C   0  0  0  0  0  0  0  0  0  0  0  0
    1.7160    0.5310   -0.0460 C   0  0  0  0  0  0  0  0  0  0  0  0
    2.0380   -0.9290   -0.2990 C   0  0  0  0  0  0  0  0  0  0  0  0
    0.9920   -1.5530    0.4620 O   0  0  0  0  0  0  0  0  0  0  0  0
  1  2  2  0
  2  3  1  0
  2  8  1  0
  3  4  1  0
  4  5  1  0
  5  6  2  0
  5  7  1  0
  7  8  2  0
  7 11  1  0
  8  9  1  0
  9 10  1  0
 10 11  1  0
M  END
