
     RDKit          3D

 11 12  0  0  0  0  0  0  0  0999 V2000
   -2.0270    2.3990   -0.5690 O   0  0  0  0  0  0  0  0  0  0  0  0
   -1.3120    1.4780   -0.0940 C   0  0  0  0  0  0  0  0  0  0  0  0
    0.1190    1.6400   -0.3110 C   0  0  0  0  0  0  0  0  0  0  0  0
    0.9960    0.6520   -0.3880 C   0  0  0  0  0  0  0  0  0  0  0  0
    2.3720    0.8210   -0.5970 O   0  0  0  0  0  0  0  0  0  0  0  0
    2.9870   -0.3620   -0.1180 C   0  0  0  0  0  0  0  0  0  0  0  0
    2.0450   -1.3800   -0.4360 O   0  0  0  0  0  0  0  0  0  0  0  0
    0.8140   -0.8010   -0.2860 C   0  0  0  0  0  0  0  0  0  0  0  0
   -0.3550   -1.3890   -0.0860 C   0  0  0  0  0  0  0  0  0  0  0  0
   -1.7320   -0.9760    0.0930 C   0  0  0  0  0  0  0  0  0  0  0  0
   -1.9780    0.3870    0.6000 C   0  0  0  0  0  0  0  0  0  0  0  0
  1  2  2  0
  2  3  1  0
  2 11  1  0
  3  4  2  0
  4  5  1  0
  4  8  1  0
  5  6  1  0
  6  7  1  0
  7  8  1  0
  8  9  2  0
  9 10  1  0
 10 11  1  0
M  END
