
     RDKit          3D

 11 12  0  0  0  0  0  0  0  0999 V2000
    3.2150    0.2490   -1.5120 O   0  0  0  0  0  0  0  0  0  0  0  0
    2.2450    0.1410   -0.8060 C   0  0  0  0  0  0  0  0  0  0  0  0
    2.1640   -0.6470    0.4460 C   0  0  0  0  0  0  0  0  0  0  0  0
    1.1450    0.1400    1.2280 C   0  0  0  0  0  0  0  0  0  0  0  0
    0.0630    0.3450    0.1650 C   0  0  1  0  0  0  0  0  0  0  0  0
   -0.6010   -0.9560   -0.0990 C   0  0  0  0  0  0  0  0  0  0  0  0
   -2.0360   -0.8570   -0.4990 C   0  0  0  0  0  0  0  0  0  0  0  0
   -2.2940    0.4870   -0.8480 O   0  0  0  0  0  0  0  0  0  0  0  0
   -2.0750    1.2220    0.3050 C   0  0  0  0  0  0  0  0  0  0  0  0
   -0.7500    1.3510    0.5990 O   0  0  0  0  0  0  0  0  0  0  0  0
    0.9190    0.7640   -1.0210 C   0  0  0  0  0  0  0  0  0  0  0  0
  1  2  2  0
  2  3  1  0
  2 11  1  0
  3  4  1  0
  5  4  1  1
  5  6  1  0
  5 10  1  0
  5 11  1  0
  6  7  1  0
  7  8  1  0
  8  9  1  0
  9 10  1  0
M  END
