
     RDKit          3D

 40 42  0  0  0  0  0  0  0  0999 V2000
    7.3490   -1.4990   -3.5460 C   0  0  0  0  0  0  0  0  0  0  0  0
    7.3230   -2.4450   -2.3690 C   0  0  0  0  0  0  0  0  0  0  0  0
    7.1360   -1.7180   -1.1760 O   0  0  0  0  0  0  0  0  0  0  0  0
    6.0160   -0.9450   -0.9890 C   0  0  0  0  0  0  0  0  0  0  0  0
    5.1760   -0.9280   -1.9420 O   0  0  0  0  0  0  0  0  0  0  0  0
    5.7680   -0.1550    0.2550 C   0  0  1  0  0  0  0  0  0  0  0  0
    4.5020    0.5290    0.1020 N   0  0  0  0  0  0  0  0  0  0  0  0
    3.2840   -0.2010   -0.0910 C   0  0  0  0  0  0  0  0  0  0  0  0
    3.3550   -1.4340   -0.1200 O   0  0  0  0  0  0  0  0  0  0  0  0
    2.0410    0.4430   -0.2430 N   0  0  0  0  0  0  0  0  0  0  0  0
    0.7790   -0.1650   -0.4430 C   0  0  0  0  0  0  0  0  0  0  0  0
    0.6010   -1.4920   -0.7250 C   0  0  0  0  0  0  0  0  0  0  0  0
   -0.6420   -2.0920   -0.8990 C   0  0  0  0  0  0  0  0  0  0  0  0
   -1.7560   -1.3030   -0.7810 C   0  0  0  0  0  0  0  0  0  0  0  0
   -2.9940   -1.8660   -0.9500 O   0  0  0  0  0  0  0  0  0  0  0  0
   -3.1090   -3.2390   -1.2400 C   0  0  0  0  0  0  0  0  0  0  0  0
   -1.6480    0.0650   -0.4940 C   0  0  0  0  0  0  0  0  0  0  0  0
   -2.8460    0.9090   -0.3700 C   0  0  0  0  0  0  0  0  0  0  0  0
   -3.6060    0.9410    0.8820 C   0  0  1  0  0  0  0  0  0  0  0  0
   -4.7950    1.8710    0.7400 C   0  0  0  0  0  0  0  0  0  0  0  0
   -5.7750    1.5020   -0.3060 C   0  0  0  0  0  0  0  0  0  0  0  0
   -6.8670    2.4030   -0.3820 O   0  0  0  0  0  0  0  0  0  0  0  0
   -7.9030    2.2570   -1.2690 C   0  0  0  0  0  0  0  0  0  0  0  0
   -8.0050    1.2290   -2.1810 C   0  0  0  0  0  0  0  0  0  0  0  0
   -9.1370    1.4320   -2.8550 N   0  0  0  0  0  0  0  0  0  0  0  0
   -9.7540    2.5170   -2.4290 N   0  0  0  0  0  0  0  0  0  0  0  0
   -9.0050    3.0570   -1.4350 C   0  0  0  0  0  0  0  0  0  0  0  0
   -9.3140    4.2850   -0.6620 C   0  0  0  0  0  0  0  0  0  0  0  0
   -3.9140   -0.2830    1.6310 C   0  0  0  0  0  0  0  0  0  0  0  0
   -2.8020   -1.0670    2.1850 C   0  0  0  0  0  0  0  0  0  0  0  0
   -1.6220   -0.6630    2.2720 O   0  0  0  0  0  0  0  0  0  0  0  0
   -3.0030   -2.3760    2.6730 O   0  0  0  0  0  0  0  0  0  0  0  0
   -1.9190   -3.1120    3.2010 C   0  0  0  0  0  0  0  0  0  0  0  0
   -0.3870    0.5870   -0.3350 C   0  0  0  0  0  0  0  0  0  0  0  0
    5.7430   -1.0970    1.4480 C   0  0  0  0  0  0  0  0  0  0  0  0
    5.2790   -0.2880    2.6300 C   0  0  0  0  0  0  0  0  0  0  0  0
    6.3970    0.7070    2.9270 C   0  0  0  0  0  0  0  0  0  0  0  0
    6.5490    1.6210    1.7520 C   0  0  1  0  0  0  0  0  0  0  0  0
    7.8820    2.8080    2.0930 S   0  0  0  0  0  0  0  0  0  0  0  0
    6.8650    0.8380    0.5160 C   0  0  0  0  0  0  0  0  0  0  0  0
  1  2  1  0
  2  3  1  0
  3  4  1  0
  4  5  2  0
  4  6  1  0
  6  7  1  6
  6 35  1  0
  6 40  1  0
  7  8  1  0
  8  9  2  0
  8 10  1  0
 10 11  1  0
 11 12  2  0
 11 34  1  0
 12 13  1  0
 13 14  2  0
 14 15  1  0
 14 17  1  0
 15 16  1  0
 17 18  1  0
 17 34  2  0
 19 18  1  6
 19 20  1  0
 19 29  1  0
 20 21  1  0
 21 22  1  0
 22 23  1  0
 23 24  2  0
 23 27  1  0
 24 25  1  0
 25 26  1  0
 26 27  2  0
 27 28  1  0
 29 30  1  0
 30 31  2  0
 30 32  1  0
 32 33  1  0
 35 36  1  0
 36 37  1  0
 37 38  1  0
 38 39  1  1
 38 40  1  0
M  END
