
     RDKit          3D

 47 51  0  0  0  0  0  0  0  0999 V2000
    4.5620    2.3060   -0.3960 C   0  0  0  0  0  0  0  0  0  0  0  0
    5.5890    1.2850   -0.6810 C   0  0  0  0  0  0  0  0  0  0  0  0
    6.8920    1.6830   -0.9070 C   0  0  0  0  0  0  0  0  0  0  0  0
    7.8150    0.7140   -1.1660 C   0  0  0  0  0  0  0  0  0  0  0  0
    7.4940   -0.6370   -1.2100 C   0  0  0  0  0  0  0  0  0  0  0  0
    8.5600   -1.6530   -1.5000 C   0  0  0  0  0  0  0  0  0  0  0  0
    6.1940   -0.9930   -0.9810 C   0  0  0  0  0  0  0  0  0  0  0  0
    5.7810   -2.4370   -1.0130 C   0  0  0  0  0  0  0  0  0  0  0  0
    4.4240   -2.5210   -0.7500 O   0  0  0  0  0  0  0  0  0  0  0  0
    3.6280   -3.6340   -0.6970 C   0  0  0  0  0  0  0  0  0  0  0  0
    4.1670   -4.7460   -0.9130 O   0  0  0  0  0  0  0  0  0  0  0  0
    2.1690   -3.5680   -0.3950 C   0  0  1  0  0  0  0  0  0  0  0  0
    1.8510   -4.4330    0.8060 C   0  0  0  0  0  0  0  0  0  0  0  0
    1.7680   -2.2480   -0.1180 O   0  0  0  0  0  0  0  0  0  0  0  0
    0.7800   -1.5800   -0.9010 C   0  0  0  0  0  0  0  0  0  0  0  0
    0.3330   -2.2580   -1.7970 O   0  0  0  0  0  0  0  0  0  0  0  0
    0.4820   -0.1570   -0.4730 C   0  0  0  0  0  0  0  0  0  0  0  0
    0.4690   -0.1410    0.9790 C   0  0  0  0  0  0  0  0  0  0  0  0
    0.1560    0.9250    1.7730 C   0  0  0  0  0  0  0  0  0  0  0  0
   -0.1630    2.0390    1.0380 C   0  0  0  0  0  0  0  0  0  0  0  0
   -0.1710    2.1050   -0.3850 C   0  0  0  0  0  0  0  0  0  0  0  0
    0.1570    0.9960   -1.1360 C   0  0  0  0  0  0  0  0  0  0  0  0
    0.1600    1.2260   -2.6390 C   0  0  0  0  0  0  0  0  0  0  0  0
   -1.1440    0.9260   -3.2870 C   0  0  0  0  0  0  0  0  0  0  0  0
   -0.9990    0.6870   -4.5540 O   0  0  0  0  0  0  0  0  0  0  0  0
   -2.3000    0.9080   -2.6580 O   0  0  0  0  0  0  0  0  0  0  0  0
   -3.2180    0.0900   -2.0750 C   0  0  1  0  0  0  0  0  0  0  0  0
   -2.7670   -1.2700   -1.6330 C   0  0  0  0  0  0  0  0  0  0  0  0
   -4.0030    0.8140   -0.9740 C   0  0  1  0  0  0  0  0  0  0  0  0
   -4.0530    2.1890   -1.3540 N   0  0  2  0  0  0  0  0  0  0  0  0
   -4.3970    3.1190   -0.3020 C   0  0  0  0  0  0  0  0  0  0  0  0
   -5.6780    3.4070   -1.0630 C   0  0  0  0  0  0  0  0  0  0  0  0
   -5.0810    2.6390   -2.2320 C   0  0  0  0  0  0  0  0  0  0  0  0
   -5.2860    0.1510   -0.6590 C   0  0  0  0  0  0  0  0  0  0  0  0
   -5.6030   -0.0040    0.7840 C   0  0  0  0  0  0  0  0  0  0  0  0
   -6.4610    0.8400    1.2580 O   0  0  0  0  0  0  0  0  0  0  0  0
   -5.1070   -0.9160    1.6520 O   0  0  0  0  0  0  0  0  0  0  0  0
   -3.9320   -1.2150    2.2060 C   0  0  0  0  0  0  0  0  0  0  0  0
   -3.1310   -2.1250    1.7470 O   0  0  0  0  0  0  0  0  0  0  0  0
   -3.3550   -0.5580    3.4330 C   0  0  2  0  0  0  0  0  0  0  0  0
   -3.2400   -1.3850    4.6800 C   0  0  0  0  0  0  0  0  0  0  0  0
   -3.6910    0.9150    3.5770 C   0  0  0  0  0  0  0  0  0  0  0  0
   -2.3960    0.4890    3.0780 C   0  0  1  0  0  0  0  0  0  0  0  0
   -1.1420    0.5010    3.8800 C   0  0  0  0  0  0  0  0  0  0  0  0
   -1.2650    0.1890    5.0750 O   0  0  0  0  0  0  0  0  0  0  0  0
    0.1250    0.8680    3.2380 N   0  0  0  0  0  0  0  0  0  0  0  0
    5.2300   -0.0440   -0.7150 C   0  0  0  0  0  0  0  0  0  0  0  0
  1  2  1  0
  2  3  2  0
  2 47  1  0
  3  4  1  0
  4  5  2  0
  5  6  1  0
  5  7  1  0
  7  8  1  0
  7 47  2  0
  8  9  1  0
  9 10  1  0
 10 11  2  0
 10 12  1  0
 12 13  1  1
 12 14  1  0
 14 15  1  0
 15 16  2  0
 15 17  1  0
 17 18  2  0
 17 22  1  0
 18 19  1  0
 19 20  2  0
 19 46  1  0
 20 21  1  0
 21 22  2  0
 22 23  1  0
 23 24  1  0
 24 25  2  0
 24 26  1  0
 26 27  1  0
 27 28  1  1
 27 29  1  0
 29 30  1  0
 29 34  1  6
 30 31  1  1
 30 33  1  0
 31 32  1  0
 32 33  1  0
 34 35  1  0
 35 36  2  0
 35 37  1  0
 37 38  1  0
 38 39  2  0
 38 40  1  0
 40 41  1  1
 40 42  1  0
 40 43  1  0
 43 42  1  1
 43 44  1  0
 44 45  2  0
 44 46  1  0
M  CHG  1  30   1
M  END
