
     RDKit          3D

 46 49  0  0  0  0  0  0  0  0999 V2000
  -10.5660    2.1520    1.8000 C   0  0  0  0  0  0  0  0  0  0  0  0
   -9.3170    1.3710    1.6440 C   0  0  0  0  0  0  0  0  0  0  0  0
   -8.0120    1.8560    1.6020 C   0  0  0  0  0  0  0  0  0  0  0  0
   -7.1640    0.7810    1.4440 C   0  0  0  0  0  0  0  0  0  0  0  0
   -5.6970    0.8540    1.3530 C   0  0  0  0  0  0  0  0  0  0  0  0
   -5.1330    1.9720    1.4200 O   0  0  0  0  0  0  0  0  0  0  0  0
   -4.9350   -0.2750    1.1960 O   0  0  0  0  0  0  0  0  0  0  0  0
   -3.5100   -0.2850    1.0970 C   0  0  0  0  0  0  0  0  0  0  0  0
   -3.0300    0.4790   -0.0960 C   0  0  0  0  0  0  0  0  0  0  0  0
   -3.9420    1.0870   -0.7060 O   0  0  0  0  0  0  0  0  0  0  0  0
   -1.6310    0.4900   -0.4880 C   0  0  0  0  0  0  0  0  0  0  0  0
   -1.2060    1.1640   -1.5300 C   0  0  0  0  0  0  0  0  0  0  0  0
   -2.0800    2.0010   -2.4270 C   0  0  0  0  0  0  0  0  0  0  0  0
   -2.1630    1.4050   -3.8170 C   0  0  1  0  0  0  0  0  0  0  0  0
   -2.7480    0.0110   -3.7020 C   0  0  0  0  0  0  0  0  0  0  0  0
   -2.9890    2.2440   -4.7430 C   0  0  0  0  0  0  0  0  0  0  0  0
   -0.7850    1.2690   -4.4350 C   0  0  0  0  0  0  0  0  0  0  0  0
    0.1620    1.1110   -1.8570 O   0  0  0  0  0  0  0  0  0  0  0  0
    1.1180    0.4060   -1.1750 C   0  0  0  0  0  0  0  0  0  0  0  0
    2.5290    0.3910   -1.5780 C   0  0  0  0  0  0  0  0  0  0  0  0
    2.9390    1.0270   -2.5700 O   0  0  0  0  0  0  0  0  0  0  0  0
    3.4260   -0.3480   -0.8370 O   0  0  0  0  0  0  0  0  0  0  0  0
    4.8000   -0.3890   -1.1870 C   0  0  2  0  0  0  0  0  0  0  0  0
    5.1240   -1.8210   -1.5710 C   0  0  0  0  0  0  0  0  0  0  0  0
    5.6700   -0.0240    0.0030 C   0  0  1  0  0  0  0  0  0  0  0  0
    5.4020   -1.0210    1.0840 C   0  0  0  0  0  0  0  0  0  0  0  0
    7.0770    0.0270   -0.4350 C   0  0  0  0  0  0  0  0  0  0  0  0
    7.3480   -0.2490   -1.6430 O   0  0  0  0  0  0  0  0  0  0  0  0
    8.1610    0.3710    0.4200 N   0  0  0  0  0  0  0  0  0  0  0  0
    9.5170    0.4040   -0.0850 C   0  0  0  0  0  0  0  0  0  0  0  0
   10.5100   -0.3010    0.7850 C   0  0  2  0  0  0  0  0  0  0  0  0
   10.4990   -1.7720    0.4380 C   0  0  0  0  0  0  0  0  0  0  0  0
   10.2890   -0.0580    2.2530 C   0  0  0  0  0  0  0  0  0  0  0  0
    8.8340   -0.2610    2.6290 C   0  0  1  0  0  0  0  0  0  0  0  0
    8.6530   -0.0630    4.1170 C   0  0  0  0  0  0  0  0  0  0  0  0
    7.9840    0.7080    1.8190 C   0  0  0  0  0  0  0  0  0  0  0  0
    0.7090   -0.2690   -0.1230 C   0  0  0  0  0  0  0  0  0  0  0  0
   -0.6930   -0.2920    0.3440 C   0  0  1  0  0  0  0  0  0  0  0  0
   -0.6710    0.1670    1.7980 C   0  0  0  0  0  0  0  0  0  0  0  0
   -7.8980   -0.2900    1.3940 O   0  0  0  0  0  0  0  0  0  0  0  0
   -9.1680   -0.0030    1.5060 C   0  0  0  0  0  0  0  0  0  0  0  0
  -10.3310   -0.9190    1.4980 C   0  0  2  0  0  0  0  0  0  0  0  0
   -9.9170   -2.3670    1.3390 C   0  0  0  0  0  0  0  0  0  0  0  0
  -11.0420   -2.9850    0.8000 O   0  0  0  0  0  0  0  0  0  0  0  0
  -11.8150   -2.0120    0.2050 C   0  0  0  0  0  0  0  0  0  0  0  0
  -11.1400   -0.7530    0.2800 N   0  0  0  0  0  0  0  0  0  0  0  0
  1  2  1  0
  2  3  1  0
  2 41  2  0
  3  4  2  0
  4  5  1  0
  4 40  1  0
  5  6  2  0
  5  7  1  0
  7  8  1  0
  8  9  1  0
  9 10  2  0
  9 11  1  0
 11 12  2  0
 11 38  1  0
 12 13  1  0
 12 18  1  0
 13 14  1  0
 14 15  1  1
 14 16  1  0
 14 17  1  0
 18 19  1  0
 19 20  1  0
 19 37  2  0
 20 21  2  0
 20 22  1  0
 22 23  1  0
 23 24  1  1
 23 25  1  0
 25 26  1  1
 25 27  1  0
 27 28  2  0
 27 29  1  0
 29 30  1  0
 29 36  1  0
 30 31  1  0
 31 32  1  1
 31 33  1  0
 33 34  1  0
 34 35  1  1
 34 36  1  0
 37 38  1  0
 38 39  1  1
 40 41  1  0
 42 41  1  6
 42 43  1  0
 42 46  1  0
 43 44  1  0
 44 45  1  0
 45 46  1  0
M  CHG  1  46   1
M  END
