
     RDKit          3D

 46 48  0  0  0  0  0  0  0  0999 V2000
    8.1560    1.6780    1.5990 C   0  0  0  0  0  0  0  0  0  0  0  0
    8.0900    0.6020    0.5310 C   0  0  0  0  0  0  0  0  0  0  0  0
    7.5270   -0.6650    1.0380 C   0  0  0  0  0  0  0  0  0  0  0  0
    6.2020   -0.9640    0.6970 C   0  0  0  0  0  0  0  0  0  0  0  0
    5.6250   -2.1220    1.1460 C   0  0  0  0  0  0  0  0  0  0  0  0
    4.2400   -2.3760    0.7600 N   0  0  0  0  0  0  0  0  0  0  0  0
    4.0930   -3.5970    0.0070 C   0  0  0  0  0  0  0  0  0  0  0  0
    4.4340   -3.2840   -1.4810 C   0  0  0  0  0  0  0  0  0  0  0  0
    5.7320   -2.8230   -1.5750 O   0  0  0  0  0  0  0  0  0  0  0  0
    3.2630   -1.4330    1.0220 C   0  0  0  0  0  0  0  0  0  0  0  0
    3.7010   -0.2290    1.2520 O   0  0  0  0  0  0  0  0  0  0  0  0
    1.8410   -1.5650    1.0780 C   0  0  0  0  0  0  0  0  0  0  0  0
    1.1980   -2.7520    1.2270 C   0  0  0  0  0  0  0  0  0  0  0  0
   -0.1850   -2.7910    1.1930 C   0  0  0  0  0  0  0  0  0  0  0  0
   -0.9910   -1.6860    1.0150 C   0  0  0  0  0  0  0  0  0  0  0  0
   -2.4500   -1.8340    1.0460 C   0  0  0  0  0  0  0  0  0  0  0  0
   -3.2750   -0.8950    0.9560 O   0  0  0  0  0  0  0  0  0  0  0  0
   -3.0910   -3.1160    1.1880 N   0  0  0  0  0  0  0  0  0  0  0  0
   -4.5250   -3.2620    1.2180 C   0  0  0  0  0  0  0  0  0  0  0  0
   -5.1980   -2.7980    0.0160 C   0  0  0  0  0  0  0  0  0  0  0  0
   -4.5440   -2.3140   -0.9320 O   0  0  0  0  0  0  0  0  0  0  0  0
   -6.6030   -2.8830   -0.1110 N   0  0  0  0  0  0  0  0  0  0  0  0
   -7.3360   -2.4420   -1.2910 C   0  0  1  0  0  0  0  0  0  0  0  0
   -8.0730   -3.6440   -1.9130 C   0  0  0  0  0  0  0  0  0  0  0  0
   -8.3850   -1.4550   -0.9140 C   0  0  0  0  0  0  0  0  0  0  0  0
   -9.4040   -2.0370    0.0700 C   0  0  0  0  0  0  0  0  0  0  0  0
  -10.3300   -1.0220    0.3390 F   0  0  0  0  0  0  0  0  0  0  0  0
   -0.3510   -0.4630    0.8610 C   0  0  0  0  0  0  0  0  0  0  0  0
   -1.1200    0.7010    0.5930 N   0  0  0  0  0  0  0  0  0  0  0  0
   -0.6510    2.0390    0.6900 C   0  0  0  0  0  0  0  0  0  0  0  0
    0.5100    2.2780    1.0440 O   0  0  0  0  0  0  0  0  0  0  0  0
   -1.5240    3.1450    0.3760 N   0  0  0  0  0  0  0  0  0  0  0  0
   -2.8840    2.8800   -0.0490 C   0  0  0  0  0  0  0  0  0  0  0  0
   -1.0180    4.4680    0.4990 C   0  0  0  0  0  0  0  0  0  0  0  0
   -0.3690    5.0520   -0.7010 C   0  0  2  0  0  0  0  0  0  0  0  0
    0.0890    6.4530   -0.3400 C   0  0  0  0  0  0  0  0  0  0  0  0
    0.9980    6.4040    0.7230 O   0  0  0  0  0  0  0  0  0  0  0  0
   -1.2420    5.1490   -1.9230 C   0  0  0  0  0  0  0  0  0  0  0  0
   -0.1950    5.1980   -3.0310 C   0  0  0  0  0  0  0  0  0  0  0  0
    1.0400    4.9740   -2.4400 O   0  0  0  0  0  0  0  0  0  0  0  0
    0.8070    4.2990   -1.2290 C   0  0  0  0  0  0  0  0  0  0  0  0
    1.0160   -0.4400    0.8960 C   0  0  0  0  0  0  0  0  0  0  0  0
    6.3510   -2.9760    1.9250 C   0  0  0  0  0  0  0  0  0  0  0  0
    7.6680   -2.6940    2.2730 C   0  0  0  0  0  0  0  0  0  0  0  0
    8.2420   -1.5410    1.8250 C   0  0  0  0  0  0  0  0  0  0  0  0
    9.5050   -1.2470    2.1480 F   0  0  0  0  0  0  0  0  0  0  0  0
  1  2  1  0
  2  3  1  0
  3  4  2  0
  3 45  1  0
  4  5  1  0
  5  6  1  0
  5 43  2  0
  6  7  1  0
  6 10  1  0
  7  8  1  0
  8  9  1  0
 10 11  2  0
 10 12  1  0
 12 13  2  0
 12 42  1  0
 13 14  1  0
 14 15  2  0
 15 16  1  0
 15 28  1  0
 16 17  2  0
 16 18  1  0
 18 19  1  0
 19 20  1  0
 20 21  2  0
 20 22  1  0
 22 23  1  0
 23 24  1  1
 23 25  1  0
 25 26  1  0
 26 27  1  0
 28 29  1  0
 28 42  2  0
 29 30  1  0
 30 31  2  0
 30 32  1  0
 32 33  1  0
 32 34  1  0
 35 34  1  1
 35 36  1  0
 35 38  1  0
 35 41  1  0
 36 37  1  0
 38 39  1  0
 39 40  1  0
 40 41  1  0
 43 44  1  0
 44 45  2  0
 45 46  1  0
M  END
