
     RDKit          3D

 46 50  0  0  0  0  0  0  0  0999 V2000
    9.3080    0.0100   -0.5640 C   0  0  0  0  0  0  0  0  0  0  0  0
    8.7670   -1.3410   -0.5760 C   0  0  0  0  0  0  0  0  0  0  0  0
    9.6760   -2.3170   -0.6520 O   0  0  0  0  0  0  0  0  0  0  0  0
    7.4500   -1.7570   -0.5230 N   0  0  0  0  0  0  0  0  0  0  0  0
    7.3230   -3.3010   -0.5640 C   0  0  0  0  0  0  0  0  0  0  0  0
    6.2510   -1.1070   -0.4260 C   0  0  0  0  0  0  0  0  0  0  0  0
    5.7440    0.0820   -0.3310 C   0  0  0  0  0  0  0  0  0  0  0  0
    6.5070    1.3690   -0.2970 C   0  0  0  0  0  0  0  0  0  0  0  0
    5.5180    2.4620   -0.1800 N   0  0  0  0  0  0  0  0  0  0  0  0
    4.7560    2.3450    1.0200 C   0  0  0  0  0  0  0  0  0  0  0  0
    4.0580    1.0080    1.1300 C   0  0  0  0  0  0  0  0  0  0  0  0
    4.2420    0.3160   -0.2320 C   0  0  2  0  0  0  0  0  0  0  0  0
    3.4310   -0.9030   -0.3330 C   0  0  1  0  0  0  0  0  0  0  0  0
    3.5710   -1.8690    0.7340 N   0  0  0  0  0  0  0  0  0  0  0  0
    2.7730   -3.0410    0.5790 C   0  0  0  0  0  0  0  0  0  0  0  0
    3.0060   -4.0820    1.1940 O   0  0  0  0  0  0  0  0  0  0  0  0
    1.6800   -2.9880   -0.3190 O   0  0  0  0  0  0  0  0  0  0  0  0
    1.5200   -1.9550   -1.2120 N   0  0  0  0  0  0  0  0  0  0  0  0
    1.9320   -0.7160   -0.4900 C   0  0  2  0  0  0  0  0  0  0  0  0
    1.4940    0.4690   -1.1850 C   0  0  0  0  0  0  0  0  0  0  0  0
    0.3870    1.1180   -0.9130 C   0  0  0  0  0  0  0  0  0  0  0  0
   -0.6180    0.7910    0.1370 C   0  0  0  0  0  0  0  0  0  0  0  0
   -1.8860    0.5210   -0.5380 N   0  0  1  0  0  0  0  0  0  0  0  0
   -1.9410   -0.9210   -0.7020 C   0  0  0  0  0  0  0  0  0  0  0  0
   -2.8790   -1.6620    0.1340 C   0  0  0  0  0  0  0  0  0  0  0  0
   -2.7880   -1.7540    1.4990 C   0  0  0  0  0  0  0  0  0  0  0  0
   -3.6910   -2.5070    2.1890 C   0  0  0  0  0  0  0  0  0  0  0  0
   -4.7060   -3.1920    1.5710 C   0  0  0  0  0  0  0  0  0  0  0  0
   -4.7910   -3.0980    0.2130 C   0  0  0  0  0  0  0  0  0  0  0  0
   -5.8650   -3.8180   -0.5660 C   0  0  1  0  0  0  0  0  0  0  0  0
   -6.9210   -2.7760   -0.8370 C   0  0  0  0  0  0  0  0  0  0  0  0
   -5.1860   -4.2920   -1.8450 C   0  0  0  0  0  0  0  0  0  0  0  0
   -6.3340   -4.9520    0.2770 C   0  0  0  0  0  0  0  0  0  0  0  0
   -3.9060   -2.3530   -0.5140 C   0  0  0  0  0  0  0  0  0  0  0  0
   -3.0210    1.1320   -0.0270 C   0  0  2  0  0  0  0  0  0  0  0  0
   -4.1930    1.2820   -0.9790 C   0  0  0  0  0  0  0  0  0  0  0  0
   -5.0760    2.2090   -0.1600 C   0  0  0  0  0  0  0  0  0  0  0  0
   -4.4140    2.4030    1.0580 O   0  0  0  0  0  0  0  0  0  0  0  0
   -3.0330    2.4040    0.6750 C   0  0  2  0  0  0  0  0  0  0  0  0
   -2.8660    3.6820    0.0310 C   0  0  0  0  0  0  0  0  0  0  0  0
   -2.4370    3.9890   -1.2250 C   0  0  0  0  0  0  0  0  0  0  0  0
   -2.3270    5.2670   -1.7150 C   0  0  0  0  0  0  0  0  0  0  0  0
   -2.6630    6.3260   -0.9110 C   0  0  0  0  0  0  0  0  0  0  0  0
   -3.0990    6.0820    0.3600 C   0  0  0  0  0  0  0  0  0  0  0  0
   -3.1980    4.7940    0.8220 C   0  0  0  0  0  0  0  0  0  0  0  0
   -3.6920    4.6330    2.2270 C   0  0  0  0  0  0  0  0  0  0  0  0
  1  2  1  0
  2  3  2  0
  2  4  1  0
  4  5  1  0
  4  6  1  0
  6  7  2  3
  7  8  1  0
  7 12  1  0
  8  9  1  0
  9 10  1  0
 10 11  1  0
 12 11  1  1
 12 13  1  0
 13 14  1  1
 13 19  1  0
 14 15  1  0
 15 16  2  0
 15 17  1  0
 17 18  1  0
 18 19  1  0
 19 20  1  6
 20 21  2  3
 21 22  1  0
 23 22  1  1
 23 24  1  0
 23 35  1  0
 24 25  1  0
 25 26  2  0
 25 34  1  0
 26 27  1  0
 27 28  2  0
 28 29  1  0
 29 30  1  0
 29 34  2  0
 30 31  1  6
 30 32  1  0
 30 33  1  0
 35 36  1  6
 35 39  1  0
 36 37  1  0
 37 38  1  0
 38 39  1  0
 39 40  1  6
 40 41  2  0
 40 45  1  0
 41 42  1  0
 42 43  2  0
 43 44  1  0
 44 45  2  0
 45 46  1  0
M  CHG  2   9   1  23   1
M  END
