
     RDKit          3D

 46 48  0  0  0  0  0  0  0  0999 V2000
   10.7870    3.5710    0.1420 C   0  0  0  0  0  0  0  0  0  0  0  0
   10.6800    3.0750   -1.1190 O   0  0  0  0  0  0  0  0  0  0  0  0
   10.1950    1.7600   -1.2030 C   0  0  0  0  0  0  0  0  0  0  0  0
    8.6750    1.8610   -1.0240 C   0  0  0  0  0  0  0  0  0  0  0  0
    7.9490    0.6450   -1.2280 N   0  0  0  0  0  0  0  0  0  0  0  0
    8.1690   -0.5150   -0.4040 C   0  0  0  0  0  0  0  0  0  0  0  0
    9.1070   -0.4250    0.4160 O   0  0  0  0  0  0  0  0  0  0  0  0
    7.3070   -1.7240   -0.4390 N   0  0  0  0  0  0  0  0  0  0  0  0
    7.5230   -2.6880    0.5840 C   0  0  0  0  0  0  0  0  0  0  0  0
    8.6810   -2.7230    1.3360 C   0  0  0  0  0  0  0  0  0  0  0  0
    8.6340   -3.3170    2.5900 C   0  0  0  0  0  0  0  0  0  0  0  0
    7.5000   -3.8680    3.0740 C   0  0  0  0  0  0  0  0  0  0  0  0
    7.4500   -4.2190    4.4070 F   0  0  0  0  0  0  0  0  0  0  0  0
    6.3440   -3.8940    2.3310 C   0  0  0  0  0  0  0  0  0  0  0  0
    6.3870   -3.2600    1.0330 C   0  0  0  0  0  0  0  0  0  0  0  0
    5.0920   -3.3610    0.2630 C   0  0  0  0  0  0  0  0  0  0  0  0
    4.2680   -2.2280    0.6560 C   0  0  0  0  0  0  0  0  0  0  0  0
    3.0880   -1.7670    0.1390 N   0  0  0  0  0  0  0  0  0  0  0  0
    2.6110   -0.4710    0.4300 C   0  0  0  0  0  0  0  0  0  0  0  0
    3.3560    0.3480    1.0040 O   0  0  0  0  0  0  0  0  0  0  0  0
    1.2670   -0.1230    0.0790 C   0  0  0  0  0  0  0  0  0  0  0  0
    0.5080    0.1470    1.2120 C   0  0  0  0  0  0  0  0  0  0  0  0
   -0.9130    0.1470    1.0670 C   0  0  0  0  0  0  0  0  0  0  0  0
   -1.4640   -0.1390   -0.1260 C   0  0  0  0  0  0  0  0  0  0  0  0
   -2.7820   -0.1580   -0.5480 O   0  0  0  0  0  0  0  0  0  0  0  0
   -3.8940    0.2540    0.1510 C   0  0  0  0  0  0  0  0  0  0  0  0
   -4.9390    0.1590   -0.7550 C   0  0  0  0  0  0  0  0  0  0  0  0
   -4.9400   -1.0490   -1.3840 O   0  0  0  0  0  0  0  0  0  0  0  0
   -5.9370    0.9480   -1.2540 N   0  0  0  0  0  0  0  0  0  0  0  0
   -6.6760    0.7790   -2.4770 C   0  0  0  0  0  0  0  0  0  0  0  0
   -7.9910    0.2840   -2.1380 C   0  0  0  0  0  0  0  0  0  0  0  0
   -8.6170    0.8650   -0.9170 C   0  0  1  0  0  0  0  0  0  0  0  0
   -9.9000    1.3850   -1.3950 O   0  0  0  0  0  0  0  0  0  0  0  0
   -8.9900   -0.2410   -0.0260 C   0  0  0  0  0  0  0  0  0  0  0  0
   -7.8260   -1.1380    0.4850 C   0  0  0  0  0  0  0  0  0  0  0  0
   -8.5140   -2.1490    1.2100 O   0  0  0  0  0  0  0  0  0  0  0  0
   -7.9670    2.0570   -0.3010 C   0  0  1  0  0  0  0  0  0  0  0  0
   -8.1480    2.2960    1.1310 C   0  0  0  0  0  0  0  0  0  0  0  0
   -9.4410    2.6090    1.7660 C   0  0  0  0  0  0  0  0  0  0  0  0
   -9.9370    3.8980    1.4150 C   0  0  0  0  0  0  0  0  0  0  0  0
  -10.3280    4.9710    1.1300 N   0  0  0  0  0  0  0  0  0  0  0  0
   -6.4090    2.1210   -0.4700 C   0  0  0  0  0  0  0  0  0  0  0  0
   -0.6060   -0.4510   -1.2950 C   0  0  0  0  0  0  0  0  0  0  0  0
   -1.2870   -0.6100   -2.4140 F   0  0  0  0  0  0  0  0  0  0  0  0
    0.6970   -0.4050   -1.0930 C   0  0  0  0  0  0  0  0  0  0  0  0
    1.5610   -0.4230   -2.3510 C   0  0  0  0  0  0  0  0  0  0  0  0
  1  2  1  0
  2  3  1  0
  3  4  1  0
  4  5  1  0
  5  6  1  0
  6  7  2  0
  6  8  1  0
  8  9  1  0
  9 10  2  0
  9 15  1  0
 10 11  1  0
 11 12  2  0
 12 13  1  0
 12 14  1  0
 14 15  2  0
 15 16  1  0
 16 17  1  0
 17 18  1  0
 18 19  1  0
 19 20  2  0
 19 21  1  0
 21 22  2  0
 21 45  1  0
 22 23  1  0
 23 24  2  0
 24 25  1  0
 24 43  1  0
 25 26  1  0
 26 27  1  0
 27 28  2  0
 27 29  1  0
 29 30  1  0
 29 42  1  0
 30 31  1  0
 31 32  1  0
 32 33  1  6
 32 34  1  0
 32 37  1  0
 34 35  1  0
 35 36  1  0
 37 38  1  1
 37 42  1  0
 38 39  1  0
 39 40  1  0
 40 41  3  0
 43 44  1  0
 43 45  2  0
 45 46  1  0
M  END
