
     RDKit          3D

 37 40  0  0  0  0  0  0  0  0999 V2000
   -2.9840    0.2000    1.0950 C   0  0  0  0  0  0  0  0  0  0  0  0
   -3.9840   -0.6730    0.3570 C   0  0  2  0  0  0  0  0  0  0  0  0
   -3.4570   -0.8910   -0.9600 N   0  0  0  0  0  0  0  0  0  0  0  0
   -2.2430   -1.6210   -1.1020 C   0  0  0  0  0  0  0  0  0  0  0  0
   -1.6180   -1.7120   -2.3440 C   0  0  0  0  0  0  0  0  0  0  0  0
   -0.4520   -2.4170   -2.5140 C   0  0  0  0  0  0  0  0  0  0  0  0
    0.1410   -3.0690   -1.4250 C   0  0  0  0  0  0  0  0  0  0  0  0
   -0.4520   -2.9970   -0.1880 C   0  0  0  0  0  0  0  0  0  0  0  0
    0.1490   -3.6590    0.9090 N   0  0  0  0  0  0  0  0  0  0  0  0
    1.4050   -4.3250    0.7420 C   0  0  0  0  0  0  0  0  0  0  0  0
    2.4850   -3.3490    0.5500 C   0  0  0  0  0  0  0  0  0  0  0  0
    3.6370   -3.7960    0.3530 O   0  0  0  0  0  0  0  0  0  0  0  0
    2.2780   -1.9570    0.5800 N   0  0  0  0  0  0  0  0  0  0  0  0
    3.2380   -0.9410    0.4080 C   0  0  0  0  0  0  0  0  0  0  0  0
    2.7990    0.3690    0.2110 C   0  0  0  0  0  0  0  0  0  0  0  0
    3.6690    1.4210    0.0510 C   0  0  0  0  0  0  0  0  0  0  0  0
    5.0500    1.2010    0.0810 C   0  0  0  0  0  0  0  0  0  0  0  0
    5.4500   -0.0930    0.2760 C   0  0  0  0  0  0  0  0  0  0  0  0
    4.5740   -1.1650    0.4400 C   0  0  0  0  0  0  0  0  0  0  0  0
    6.8450   -0.3680    0.3170 N   0  0  0  0  0  0  0  0  0  0  0  0
    7.7170    0.7390    0.1490 C   0  0  0  0  0  0  0  0  0  0  0  0
    8.9470    0.5130    0.1910 O   0  0  0  0  0  0  0  0  0  0  0  0
    7.2690    2.1140   -0.0670 C   0  0  2  0  0  0  0  0  0  0  0  0
    7.8530    2.5630   -1.4130 C   0  0  0  0  0  0  0  0  0  0  0  0
    7.9680    2.9850    0.9770 C   0  0  0  0  0  0  0  0  0  0  0  0
    5.8630    2.3220   -0.0900 N   0  0  0  0  0  0  0  0  0  0  0  0
   -1.6210   -2.2800   -0.0570 C   0  0  0  0  0  0  0  0  0  0  0  0
   -5.3140   -0.0780    0.3880 C   0  0  0  0  0  0  0  0  0  0  0  0
   -5.6120    0.9200    1.2900 C   0  0  0  0  0  0  0  0  0  0  0  0
   -6.8830    1.5080    1.3330 C   0  0  0  0  0  0  0  0  0  0  0  0
   -7.8770    1.1020    0.4700 C   0  0  0  0  0  0  0  0  0  0  0  0
   -9.2400    1.7010    0.4840 C   0  0  0  0  0  0  0  0  0  0  0  0
   -9.3210    3.0870   -0.6090 S   0  0  1  0  0  0  0  0  0  0  0  0
  -10.6520    3.7700   -0.3620 O   0  0  0  0  0  0  0  0  0  0  0  0
   -8.2590    4.0760   -0.2610 O   0  0  0  0  0  0  0  0  0  0  0  0
   -7.5640    0.1030   -0.4260 C   0  0  0  0  0  0  0  0  0  0  0  0
   -6.3340   -0.4660   -0.4690 C   0  0  0  0  0  0  0  0  0  0  0  0
  2  1  1  1
  2  3  1  0
  2 28  1  0
  3  4  1  0
  4  5  2  0
  4 27  1  0
  5  6  1  0
  6  7  2  0
  7  8  1  0
  8  9  1  0
  8 27  2  0
  9 10  1  0
 10 11  1  0
 11 12  2  0
 11 13  1  0
 13 14  1  0
 14 15  2  0
 14 19  1  0
 15 16  1  0
 16 17  2  0
 17 18  1  0
 17 26  1  0
 18 19  2  0
 18 20  1  0
 20 21  1  0
 21 22  2  0
 21 23  1  0
 23 24  1  6
 23 25  1  0
 23 26  1  0
 28 29  2  0
 28 37  1  0
 29 30  1  0
 30 31  2  0
 31 32  1  0
 31 36  1  0
 33 32  1  1
 33 34  2  0
 33 35  2  0
 36 37  2  0
M  CHG  1  26   1
M  END
