
     RDKit          3D

 37 40  0  0  0  0  0  0  0  0999 V2000
    1.4920   -4.5820   -3.1250 C   0  0  0  0  0  0  0  0  0  0  0  0
    1.0500   -4.1780   -1.7640 C   0  0  0  0  0  0  0  0  0  0  0  0
    0.8460   -5.1000   -0.7820 C   0  0  0  0  0  0  0  0  0  0  0  0
    0.4370   -4.7200    0.4770 C   0  0  0  0  0  0  0  0  0  0  0  0
    0.2340   -3.3610    0.7260 C   0  0  0  0  0  0  0  0  0  0  0  0
    0.4300   -2.4080   -0.2400 C   0  0  0  0  0  0  0  0  0  0  0  0
    0.2120   -0.9650    0.1280 C   0  0  1  0  0  0  0  0  0  0  0  0
    1.0860   -0.1410   -0.5890 N   0  0  0  0  0  0  0  0  0  0  0  0
    1.9170    0.7870    0.0870 C   0  0  0  0  0  0  0  0  0  0  0  0
    1.9050    0.9060    1.3550 O   0  0  0  0  0  0  0  0  0  0  0  0
    2.8560    1.6770   -0.6540 C   0  0  0  0  0  0  0  0  0  0  0  0
    3.6180    2.5110    0.2250 N   0  0  0  0  0  0  0  0  0  0  0  0
    3.1380    3.7160    0.5720 C   0  0  0  0  0  0  0  0  0  0  0  0
    2.0380    4.1640    0.1650 O   0  0  0  0  0  0  0  0  0  0  0  0
    3.8330    4.5380    1.4040 N   0  0  0  0  0  0  0  0  0  0  0  0
    5.0250    4.1460    1.8940 C   0  0  0  0  0  0  0  0  0  0  0  0
    5.9110    5.0860    2.8980 S   0  0  0  0  0  0  0  0  0  0  0  0
    5.5160    2.9290    1.5480 N   0  0  0  0  0  0  0  0  0  0  0  0
    4.8130    2.1310    0.7230 C   0  0  0  0  0  0  0  0  0  0  0  0
    5.2440    1.0130    0.3930 O   0  0  0  0  0  0  0  0  0  0  0  0
   -1.1870   -0.7020    0.3080 C   0  0  0  0  0  0  0  0  0  0  0  0
   -1.6960   -0.8180    1.6180 C   0  0  0  0  0  0  0  0  0  0  0  0
   -3.0080   -0.6790    1.9600 C   0  0  0  0  0  0  0  0  0  0  0  0
   -3.4250   -0.8250    3.3700 C   0  0  0  0  0  0  0  0  0  0  0  0
   -2.4500   -1.0970    4.3630 N   0  0  0  0  0  0  0  0  0  0  0  0
   -4.6340   -0.7010    3.6370 O   0  0  0  0  0  0  0  0  0  0  0  0
   -3.9250   -0.4050    0.9770 C   0  0  0  0  0  0  0  0  0  0  0  0
   -5.3900   -0.2390    1.2800 C   0  0  0  0  0  0  0  0  0  0  0  0
   -3.4840   -0.2800   -0.3110 C   0  0  0  0  0  0  0  0  0  0  0  0
   -2.1020   -0.4300   -0.6380 C   0  0  0  0  0  0  0  0  0  0  0  0
   -1.7350   -0.1870   -2.0520 C   0  0  0  0  0  0  0  0  0  0  0  0
   -1.3600    1.2480   -2.1960 C   0  0  0  0  0  0  0  0  0  0  0  0
   -0.3530    1.8800   -2.6960 C   0  0  0  0  0  0  0  0  0  0  0  0
   -0.4910    3.3510   -2.5700 C   0  0  0  0  0  0  0  0  0  0  0  0
   -1.7960    3.4960   -1.8870 C   0  0  0  0  0  0  0  0  0  0  0  0
   -2.2660    2.2880   -1.6870 C   0  0  0  0  0  0  0  0  0  0  0  0
    0.8370   -2.8390   -1.4700 C   0  0  0  0  0  0  0  0  0  0  0  0
  1  2  1  0
  2  3  2  0
  2 37  1  0
  3  4  1  0
  4  5  2  0
  5  6  1  0
  6  7  1  0
  6 37  2  0
  7  8  1  6
  7 21  1  0
  8  9  1  0
  9 10  2  0
  9 11  1  0
 11 12  1  0
 12 13  1  0
 12 19  1  0
 13 14  2  0
 13 15  1  0
 15 16  1  0
 16 17  2  0
 16 18  1  0
 18 19  1  0
 19 20  2  0
 21 22  2  0
 21 30  1  0
 22 23  1  0
 23 24  1  0
 23 27  2  0
 24 25  1  0
 24 26  2  0
 27 28  1  0
 27 29  1  0
 29 30  2  0
 30 31  1  0
 31 32  1  0
 32 33  2  0
 32 36  1  0
 33 34  1  0
 34 35  1  0
 35 36  2  0
M  CHG  1  25   1
M  END
