
     RDKit          3D

 37 40  0  0  0  0  0  0  0  0999 V2000
   -4.2230    2.8620    0.1190 C   0  0  0  0  0  0  0  0  0  0  0  0
   -4.3870    2.2280    1.4810 C   0  0  0  0  0  0  0  0  0  0  0  0
   -3.9840    0.7310    1.3860 C   0  0  0  0  0  0  0  0  0  0  0  0
   -2.6250    0.6520    0.9660 N   0  0  0  0  0  0  0  0  0  0  0  0
   -1.9750   -0.2740    0.4120 C   0  0  0  0  0  0  0  0  0  0  0  0
   -0.5670    0.0030    0.1170 N   0  0  0  0  0  0  0  0  0  0  0  0
    0.1110    1.1540    0.6220 C   0  0  0  0  0  0  0  0  0  0  0  0
    1.5470    1.1400    0.1290 C   0  0  1  0  0  0  0  0  0  0  0  0
    2.3070    2.3510    0.6440 C   0  0  0  0  0  0  0  0  0  0  0  0
    1.7120    3.6210    0.2070 C   0  0  0  0  0  0  0  0  0  0  0  0
    0.7500    4.2130    0.9970 C   0  0  0  0  0  0  0  0  0  0  0  0
    0.1490    5.4120    0.6420 C   0  0  0  0  0  0  0  0  0  0  0  0
    0.5180    6.0360   -0.5320 C   0  0  0  0  0  0  0  0  0  0  0  0
   -0.1050    7.3340   -0.9570 C   0  0  0  0  0  0  0  0  0  0  0  0
    1.4770    5.4640   -1.3370 C   0  0  0  0  0  0  0  0  0  0  0  0
    2.0610    4.2660   -0.9580 C   0  0  0  0  0  0  0  0  0  0  0  0
    2.2580   -0.0220    0.5900 N   0  0  0  0  0  0  0  0  0  0  0  0
    2.8030   -0.9280   -0.3290 C   0  0  0  0  0  0  0  0  0  0  0  0
    2.6510   -0.6930   -1.5660 O   0  0  0  0  0  0  0  0  0  0  0  0
    3.5370   -2.1300    0.0420 C   0  0  0  0  0  0  0  0  0  0  0  0
    3.7750   -2.4580    1.3660 C   0  0  0  0  0  0  0  0  0  0  0  0
    4.4760   -3.6070    1.7170 C   0  0  0  0  0  0  0  0  0  0  0  0
    4.9480   -4.4430    0.7290 C   0  0  0  0  0  0  0  0  0  0  0  0
    5.6420   -5.5990    0.7460 N   0  0  0  0  0  0  0  0  0  0  0  0
    5.8470   -6.0050   -0.5210 C   0  0  0  0  0  0  0  0  0  0  0  0
    6.4610   -7.0450   -0.8500 O   0  0  0  0  0  0  0  0  0  0  0  0
    5.2800   -5.1030   -1.3340 N   0  0  0  0  0  0  0  0  0  0  0  0
    4.7210   -4.1330   -0.5830 C   0  0  0  0  0  0  0  0  0  0  0  0
    4.0250   -2.9920   -0.9150 C   0  0  0  0  0  0  0  0  0  0  0  0
   -2.3980   -1.6190   -0.0060 C   0  0  1  0  0  0  0  0  0  0  0  0
   -3.7260   -2.0730    0.4470 C   0  0  0  0  0  0  0  0  0  0  0  0
   -3.7780   -3.6010    0.4830 C   0  0  0  0  0  0  0  0  0  0  0  0
   -3.0080   -4.2500   -0.6160 C   0  0  0  0  0  0  0  0  0  0  0  0
   -3.0690   -3.1780   -2.0340 S   0  0  2  0  0  0  0  0  0  0  0  0
   -4.4830   -2.8510   -2.3330 O   0  0  0  0  0  0  0  0  0  0  0  0
   -2.3550   -3.7900   -3.2050 O   0  0  0  0  0  0  0  0  0  0  0  0
   -2.2500   -1.6630   -1.5240 C   0  0  0  0  0  0  0  0  0  0  0  0
  1  2  1  0
  2  3  1  0
  3  4  1  0
  4  5  2  3
  5  6  1  0
 30  5  1  6
  6  7  1  0
  8  7  1  1
  8  9  1  0
  8 17  1  0
  9 10  1  0
 10 11  2  0
 10 16  1  0
 11 12  1  0
 12 13  2  0
 13 14  1  0
 13 15  1  0
 15 16  2  0
 17 18  1  0
 18 19  2  0
 18 20  1  0
 20 21  2  0
 20 29  1  0
 21 22  1  0
 22 23  2  0
 23 24  1  0
 23 28  1  0
 24 25  1  0
 25 26  2  0
 25 27  1  0
 27 28  1  0
 28 29  2  0
 30 31  1  0
 30 37  1  0
 31 32  1  0
 32 33  1  0
 34 33  1  1
 34 35  2  0
 34 36  2  0
 34 37  1  0
M  CHG  1   4   1
M  END
