
     RDKit          3D

 37 40  0  0  0  0  0  0  0  0999 V2000
    7.9320    1.7650   -2.4080 C   0  0  0  0  0  0  0  0  0  0  0  0
    8.0320    0.9780   -1.1560 C   0  0  0  0  0  0  0  0  0  0  0  0
    8.7660    1.5000   -0.1170 C   0  0  0  0  0  0  0  0  0  0  0  0
    8.8550    0.7560    1.0530 C   0  0  0  0  0  0  0  0  0  0  0  0
    8.2110   -0.4470    1.1070 C   0  0  0  0  0  0  0  0  0  0  0  0
    8.3070   -1.2410    2.3600 C   0  0  0  0  0  0  0  0  0  0  0  0
    7.4920   -0.9510    0.0800 N   0  0  0  0  0  0  0  0  0  0  0  0
    6.8000   -2.0840   -0.0700 C   0  0  0  0  0  0  0  0  0  0  0  0
    6.2300   -2.1350   -1.3340 C   0  0  0  0  0  0  0  0  0  0  0  0
    5.3950   -3.2010   -1.9030 C   0  0  0  0  0  0  0  0  0  0  0  0
    3.9870   -3.0020   -1.6640 N   0  0  0  0  0  0  0  0  0  0  0  0
    3.4510   -1.8880   -0.9640 C   0  0  0  0  0  0  0  0  0  0  0  0
    4.2450   -1.0330   -0.5300 O   0  0  0  0  0  0  0  0  0  0  0  0
    2.0120   -1.7030   -0.7300 C   0  0  0  0  0  0  0  0  0  0  0  0
    1.1820   -2.5460   -1.1510 O   0  0  0  0  0  0  0  0  0  0  0  0
    1.5860   -0.5620   -0.0250 N   0  0  0  0  0  0  0  0  0  0  0  0
    0.2510   -0.2470    0.2820 C   0  0  0  0  0  0  0  0  0  0  0  0
   -0.7800   -1.1170    0.2000 C   0  0  0  0  0  0  0  0  0  0  0  0
   -2.0740   -0.6690    0.5170 C   0  0  0  0  0  0  0  0  0  0  0  0
   -2.3480    0.6040    0.9060 C   0  0  0  0  0  0  0  0  0  0  0  0
   -3.7270    1.0830    1.2450 C   0  0  0  0  0  0  0  0  0  0  0  0
   -4.7410    0.2870    1.1810 C   0  0  0  0  0  0  0  0  0  0  0  0
   -6.0980    0.7340    1.5080 C   0  0  0  0  0  0  0  0  0  0  0  0
   -7.4290   -0.3790    1.4070 S   0  0  2  0  0  0  0  0  0  0  0  0
   -8.4840   -0.0050    2.4330 O   0  0  0  0  0  0  0  0  0  0  0  0
   -6.9420   -1.7680    1.6870 O   0  0  0  0  0  0  0  0  0  0  0  0
   -8.1710   -0.3730   -0.2070 C   0  0  1  0  0  0  0  0  0  0  0  0
   -9.3210   -1.3280   -0.2590 C   0  0  0  0  0  0  0  0  0  0  0  0
   -8.6350    0.9980   -0.6100 C   0  0  0  0  0  0  0  0  0  0  0  0
   -9.2210    0.8830   -1.9370 N   0  0  0  0  0  0  0  0  0  0  0  0
   -6.2510    1.9890    1.8730 C   0  0  0  0  0  0  0  0  0  0  0  0
   -5.1660    2.8870    1.9530 N   0  0  0  0  0  0  0  0  0  0  0  0
   -3.8360    2.4990    1.6460 C   0  0  0  0  0  0  0  0  0  0  0  0
   -1.2770    1.4880    0.9870 C   0  0  0  0  0  0  0  0  0  0  0  0
   -0.0100    1.0750    0.6840 C   0  0  0  0  0  0  0  0  0  0  0  0
    6.6100   -0.9690   -1.9560 C   0  0  0  0  0  0  0  0  0  0  0  0
    7.3990   -0.2360   -1.0630 C   0  0  0  0  0  0  0  0  0  0  0  0
  1  2  1  0
  2  3  2  0
  2 37  1  0
  3  4  1  0
  4  5  2  0
  5  6  1  0
  5  7  1  0
  7  8  1  0
  7 37  1  0
  8  9  2  0
  9 10  1  0
  9 36  1  0
 10 11  1  0
 11 12  1  0
 12 13  2  0
 12 14  1  0
 14 15  2  0
 14 16  1  0
 16 17  1  0
 17 18  2  0
 17 35  1  0
 18 19  1  0
 19 20  2  0
 20 21  1  0
 20 34  1  0
 21 22  2  0
 21 33  1  0
 22 23  1  0
 24 23  1  6
 23 31  2  0
 24 25  2  0
 24 26  2  0
 24 27  1  0
 27 28  1  1
 27 29  1  0
 29 30  1  0
 31 32  1  0
 32 33  1  0
 34 35  2  0
 36 37  2  0
M  CHG  1  30   1
M  END
