
     RDKit          3D

 29 32  0  0  0  0  0  0  0  0999 V2000
   -6.0960   -1.6240   -0.8070 C   0  0  0  0  0  0  0  0  0  0  0  0
   -5.0620   -0.9320    0.0530 C   0  0  0  0  0  0  0  0  0  0  0  0
   -3.6800   -0.9090   -0.1080 C   0  0  0  0  0  0  0  0  0  0  0  0
   -2.9600   -0.2330    0.7750 C   0  0  0  0  0  0  0  0  0  0  0  0
   -1.4770   -0.0990    0.7140 C   0  0  0  0  0  0  0  0  0  0  0  0
   -0.8640    0.2520   -0.3880 C   0  0  0  0  0  0  0  0  0  0  0  0
   -1.6710    0.4970   -1.5050 O   0  0  0  0  0  0  0  0  0  0  0  0
   -1.5470   -0.1390   -2.7210 C   0  0  0  0  0  0  0  0  0  0  0  0
   -0.6760   -1.1170   -3.1360 C   0  0  0  0  0  0  0  0  0  0  0  0
   -0.9760   -1.4110   -4.4620 C   0  0  0  0  0  0  0  0  0  0  0  0
   -1.9770   -0.6520   -4.8330 O   0  0  0  0  0  0  0  0  0  0  0  0
   -2.3510    0.1170   -3.8430 C   0  0  0  0  0  0  0  0  0  0  0  0
    0.5870    0.3950   -0.4950 C   0  0  0  0  0  0  0  0  0  0  0  0
    1.0350    0.7500   -1.6240 O   0  0  0  0  0  0  0  0  0  0  0  0
    1.4320    0.1540    0.5830 N   0  0  0  0  0  0  0  0  0  0  0  0
    2.8570    0.2580    0.5680 C   0  0  0  0  0  0  0  0  0  0  0  0
    3.5990    0.2970   -0.5700 C   0  0  0  0  0  0  0  0  0  0  0  0
    4.9860    0.4160   -0.5340 C   0  0  0  0  0  0  0  0  0  0  0  0
    5.6410    0.4960    0.6610 C   0  0  0  0  0  0  0  0  0  0  0  0
    4.8840    0.4550    1.8140 C   0  0  0  0  0  0  0  0  0  0  0  0
    3.5360    0.3410    1.7950 C   0  0  0  0  0  0  0  0  0  0  0  0
    5.7780    0.5530    2.8730 O   0  0  0  0  0  0  0  0  0  0  0  0
    7.0560    0.8760    2.4010 C   0  0  0  0  0  0  0  0  0  0  0  0
    6.9750    0.6160    1.0260 O   0  0  0  0  0  0  0  0  0  0  0  0
   -3.6260    0.4170    1.8170 C   0  0  0  0  0  0  0  0  0  0  0  0
   -3.0970    1.2100    2.8870 C   0  0  0  0  0  0  0  0  0  0  0  0
   -1.7120    1.4360    2.9710 N   0  0  0  0  0  0  0  0  0  0  0  0
   -3.8520    1.7040    3.7480 O   0  0  0  0  0  0  0  0  0  0  0  0
   -5.3210    0.0330    1.4970 S   0  0  0  0  0  0  0  0  0  0  0  0
  1  2  1  0
  2  3  2  0
  2 29  1  0
  3  4  1  0
  4  5  1  0
  4 25  2  0
  5  6  2  3
  6  7  1  0
  6 13  1  0
  7  8  1  0
  8  9  1  0
  8 12  2  0
  9 10  2  0
 10 11  1  0
 11 12  1  0
 13 14  2  0
 13 15  1  0
 15 16  1  0
 16 17  2  0
 16 21  1  0
 17 18  1  0
 18 19  2  0
 19 20  1  0
 19 24  1  0
 20 21  2  0
 20 22  1  0
 22 23  1  0
 23 24  1  0
 25 26  1  0
 25 29  1  0
 26 27  1  0
 26 28  2  0
M  END
