
     RDKit          3D

 31 33  0  0  0  0  0  0  0  0999 V2000
    0.6750    2.9590    0.9310 C   0  0  0  0  0  0  0  0  0  0  0  0
    1.5040    1.8670    0.2840 C   0  0  0  0  0  0  0  0  0  0  0  0
    2.8140    1.8850    0.4570 C   0  0  0  0  0  0  0  0  0  0  0  0
    3.7930    0.9540   -0.0590 C   0  0  0  0  0  0  0  0  0  0  0  0
    4.9610    1.2780   -0.7700 C   0  0  0  0  0  0  0  0  0  0  0  0
    5.4800    2.6130   -1.1810 C   0  0  0  0  0  0  0  0  0  0  0  0
    5.6020    0.1790   -1.0560 O   0  0  0  0  0  0  0  0  0  0  0  0
    4.9850   -0.8670   -0.6080 C   0  0  0  0  0  0  0  0  0  0  0  0
    5.4360   -2.2690   -0.7560 C   0  0  0  0  0  0  0  0  0  0  0  0
    3.8240   -0.4060    0.0350 C   0  0  0  0  0  0  0  0  0  0  0  0
    2.8310   -1.2770    0.7130 C   0  0  0  0  0  0  0  0  0  0  0  0
    2.0750   -2.1450   -0.2290 C   0  0  0  0  0  0  0  0  0  0  0  0
    2.5970   -2.2750   -1.3700 O   0  0  0  0  0  0  0  0  0  0  0  0
    0.9050   -2.7630    0.0900 O   0  0  0  0  0  0  0  0  0  0  0  0
    0.5830   -3.5400    1.1980 C   0  0  0  0  0  0  0  0  0  0  0  0
   -0.7980   -3.2520    1.7460 C   0  0  0  0  0  0  0  0  0  0  0  0
   -1.8240   -3.0880    0.6710 C   0  0  0  0  0  0  0  0  0  0  0  0
   -1.8880   -1.6470    0.2130 C   0  0  0  0  0  0  0  0  0  0  0  0
   -3.2320   -1.3130   -0.3020 C   0  0  0  0  0  0  0  0  0  0  0  0
   -4.0410   -2.2890   -0.5050 O   0  0  0  0  0  0  0  0  0  0  0  0
   -3.7120   -0.0190   -0.5950 N   0  0  0  0  0  0  0  0  0  0  0  0
   -4.4940    0.4740   -1.7430 C   0  0  0  0  0  0  0  0  0  0  0  0
   -5.6090    1.2230   -1.0530 C   0  0  0  0  0  0  0  0  0  0  0  0
   -5.0340    1.6040    0.2850 C   0  0  0  0  0  0  0  0  0  0  0  0
   -3.5510    1.1670    0.2120 C   0  0  1  0  0  0  0  0  0  0  0  0
   -3.1410    0.9230    1.6240 C   0  0  0  0  0  0  0  0  0  0  0  0
   -2.7420    2.2330   -0.4330 C   0  0  0  0  0  0  0  0  0  0  0  0
   -3.4030    3.1640   -0.9750 O   0  0  0  0  0  0  0  0  0  0  0  0
   -1.3790    2.1320   -0.3930 O   0  0  0  0  0  0  0  0  0  0  0  0
   -0.4800    1.4530   -1.1930 C   0  0  0  0  0  0  0  0  0  0  0  0
    0.7300    0.8980   -0.4960 C   0  0  0  0  0  0  0  0  0  0  0  0
  1  2  1  0
  2  3  2  0
  2 31  1  0
  3  4  1  0
  4  5  2  0
  4 10  1  0
  5  6  1  0
  5  7  1  0
  7  8  1  0
  8  9  1  0
  8 10  2  0
 10 11  1  0
 11 12  1  0
 12 13  2  0
 12 14  1  0
 14 15  1  0
 15 16  1  0
 16 17  1  0
 17 18  1  0
 18 19  1  0
 19 20  2  0
 19 21  1  0
 21 22  1  0
 21 25  1  0
 22 23  1  0
 23 24  1  0
 24 25  1  0
 25 26  1  1
 25 27  1  0
 27 28  2  0
 27 29  1  0
 29 30  1  0
 30 31  1  0
M  END
