
     RDKit          3D

 31 32  0  0  0  0  0  0  0  0999 V2000
   -4.7660   -0.9240   -1.8910 C   0  0  0  0  0  0  0  0  0  0  0  0
   -3.7410   -1.4990   -1.3240 C   0  0  0  0  0  0  0  0  0  0  0  0
   -2.7150   -2.2590   -2.1430 C   0  0  0  0  0  0  0  0  0  0  0  0
   -1.7210   -2.7020   -1.1310 C   0  0  0  0  0  0  0  0  0  0  0  0
   -1.9010   -1.6570    0.0650 C   0  0  1  0  0  0  0  0  0  0  0  0
   -0.7650   -0.8000    0.1040 C   0  0  0  0  0  0  0  0  0  0  0  0
   -0.6690    0.5500    0.1210 C   0  0  0  0  0  0  0  0  0  0  0  0
   -1.9110    1.3360    0.0980 C   0  0  0  0  0  0  0  0  0  0  0  0
   -2.0240    2.8250   -0.0320 C   0  0  0  0  0  0  0  0  0  0  0  0
   -3.0120    0.8280    0.1730 O   0  0  0  0  0  0  0  0  0  0  0  0
    0.5810    1.3240    0.2610 N   0  0  0  0  0  0  0  0  0  0  0  0
    0.8530    1.8720    1.5940 C   0  0  0  0  0  0  0  0  0  0  0  0
    0.3930    3.2090    1.9750 C   0  0  0  0  0  0  0  0  0  0  0  0
    0.9380    3.3790    3.3140 O   0  0  0  0  0  0  0  0  0  0  0  0
    0.4850    4.6690    3.6640 C   0  0  0  0  0  0  0  0  0  0  0  0
    1.5750    1.6660   -0.6990 C   0  0  0  0  0  0  0  0  0  0  0  0
    1.9880    2.9590   -0.5220 O   0  0  0  0  0  0  0  0  0  0  0  0
    2.2950    1.1130   -1.8020 C   0  0  0  0  0  0  0  0  0  0  0  0
    3.4930    0.5260   -1.9640 C   0  0  0  0  0  0  0  0  0  0  0  0
    4.5250    0.2340   -1.0120 C   0  0  0  0  0  0  0  0  0  0  0  0
    4.7690   -0.8100   -0.2400 C   0  0  0  0  0  0  0  0  0  0  0  0
    5.9820   -0.7870    0.6830 C   0  0  0  0  0  0  0  0  0  0  0  0
    4.0360   -1.9740   -0.1610 O   0  0  0  0  0  0  0  0  0  0  0  0
    3.5470   -2.6880   -1.2890 C   0  0  0  0  0  0  0  0  0  0  0  0
    2.1020   -2.3410   -1.5810 C   0  0  0  0  0  0  0  0  0  0  0  0
    1.6530   -1.6480   -0.4500 O   0  0  0  0  0  0  0  0  0  0  0  0
    0.5230   -1.6180    0.2620 C   0  0  0  0  0  0  0  0  0  0  0  0
    0.4640   -2.4210    1.3030 O   0  0  0  0  0  0  0  0  0  0  0  0
   -3.3220   -1.5620    0.0700 C   0  0  0  0  0  0  0  0  0  0  0  0
   -4.1590   -1.6220    1.0700 C   0  0  0  0  0  0  0  0  0  0  0  0
   -5.6140   -1.6340    0.9050 C   0  0  0  0  0  0  0  0  0  0  0  0
  1  2  2  0
  2  3  1  0
  2 29  1  0
  3  4  1  0
  4  5  1  0
  5  6  1  6
  5 29  1  0
  6  7  2  0
  6 27  1  0
  7  8  1  0
  7 11  1  0
  8  9  1  0
  8 10  2  0
 11 12  1  0
 11 16  1  0
 12 13  1  0
 13 14  1  0
 14 15  1  0
 16 17  2  0
 16 18  1  0
 18 19  2  0
 19 20  1  0
 20 21  2  0
 21 22  1  0
 21 23  1  0
 23 24  1  0
 24 25  1  0
 25 26  1  0
 26 27  1  0
 27 28  2  0
 29 30  2  3
 30 31  1  0
M  END
