
     RDKit          3D

 31 33  0  0  0  0  0  0  0  0999 V2000
   -1.6410   -4.7180    0.6750 C   0  0  0  0  0  0  0  0  0  0  0  0
   -2.5130   -4.2470   -0.4880 C   0  0  0  0  0  0  0  0  0  0  0  0
   -2.7360   -2.7860   -0.2640 C   0  0  0  0  0  0  0  0  0  0  0  0
   -3.8860   -2.3550    0.2030 O   0  0  0  0  0  0  0  0  0  0  0  0
   -3.8490   -1.0520    0.3150 C   0  0  0  0  0  0  0  0  0  0  0  0
   -4.9900   -0.2560    0.8130 C   0  0  0  0  0  0  0  0  0  0  0  0
   -2.5830   -0.6110   -0.1110 C   0  0  0  0  0  0  0  0  0  0  0  0
   -1.8920   -1.7140   -0.4730 C   0  0  0  0  0  0  0  0  0  0  0  0
   -0.5130   -1.7770   -0.9960 C   0  0  0  0  0  0  0  0  0  0  0  0
   -0.2810   -2.6940   -1.8880 O   0  0  0  0  0  0  0  0  0  0  0  0
    0.5120   -0.9810   -0.6400 O   0  0  0  0  0  0  0  0  0  0  0  0
    1.2540   -0.7690    0.4940 C   0  0  1  0  0  0  0  0  0  0  0  0
    1.6970   -1.9710    1.2660 C   0  0  0  0  0  0  0  0  0  0  0  0
    2.4810   -2.7410    0.4050 O   0  0  0  0  0  0  0  0  0  0  0  0
    3.7380   -2.1670    0.3900 C   0  0  2  0  0  0  0  0  0  0  0  0
    4.5880   -2.7350   -0.7560 C   0  0  0  0  0  0  0  0  0  0  0  0
    4.5220   -2.4200    1.6570 C   0  0  0  0  0  0  0  0  0  0  0  0
    3.6220   -0.7070    0.0950 C   0  0  0  0  0  0  0  0  0  0  0  0
    4.9290   -0.0320   -0.2610 C   0  0  0  0  0  0  0  0  0  0  0  0
    2.5020   -0.0170    0.1280 C   0  0  0  0  0  0  0  0  0  0  0  0
    2.4930    1.3290   -0.1620 O   0  0  0  0  0  0  0  0  0  0  0  0
    1.4780    1.9930   -0.8850 C   0  0  0  0  0  0  0  0  0  0  0  0
    0.4780    2.6330   -0.0110 C   0  0  0  0  0  0  0  0  0  0  0  0
    0.7640    2.6350    1.2400 O   0  0  0  0  0  0  0  0  0  0  0  0
   -0.7280    3.2290   -0.3900 N   0  0  0  0  0  0  0  0  0  0  0  0
   -1.1930    4.3750    0.3690 C   0  0  2  0  0  0  0  0  0  0  0  0
   -2.5440    4.2300    0.9690 C   0  0  0  0  0  0  0  0  0  0  0  0
   -1.2640    5.5500   -0.5980 C   0  0  0  0  0  0  0  0  0  0  0  0
   -1.4880    2.7510   -1.4980 C   0  0  0  0  0  0  0  0  0  0  0  0
   -1.8520    1.3160   -1.5280 C   0  0  0  0  0  0  0  0  0  0  0  0
   -2.1330    0.7960   -0.1420 C   0  0  0  0  0  0  0  0  0  0  0  0
  1  2  1  0
  2  3  1  0
  3  4  1  0
  3  8  2  0
  4  5  1  0
  5  6  1  0
  5  7  2  0
  7  8  1  0
  7 31  1  0
  8  9  1  0
  9 10  2  0
  9 11  1  0
 11 12  1  0
 12 13  1  6
 12 20  1  0
 13 14  1  0
 14 15  1  0
 15 16  1  6
 15 17  1  0
 15 18  1  0
 18 19  1  0
 18 20  2  0
 20 21  1  0
 21 22  1  0
 22 23  1  0
 23 24  2  0
 23 25  1  0
 25 26  1  0
 25 29  1  0
 26 27  1  6
 26 28  1  0
 29 30  1  0
 30 31  1  0
M  END
