
     RDKit          3D

 31 33  0  0  0  0  0  0  0  0999 V2000
   -7.8720    1.3520    2.8600 C   0  0  0  0  0  0  0  0  0  0  0  0
   -6.4640    1.1250    2.4540 C   0  0  0  0  0  0  0  0  0  0  0  0
   -6.1960    0.3920    1.3870 C   0  0  0  0  0  0  0  0  0  0  0  0
   -7.1850   -0.2640    0.5020 C   0  0  0  0  0  0  0  0  0  0  0  0
   -6.4020   -1.4100   -0.0560 C   0  0  0  0  0  0  0  0  0  0  0  0
   -4.9750   -0.9700    0.0290 C   0  0  0  0  0  0  0  0  0  0  0  0
   -3.8250   -1.4520   -0.5910 C   0  0  0  0  0  0  0  0  0  0  0  0
   -2.5750   -0.9110   -0.3890 C   0  0  0  0  0  0  0  0  0  0  0  0
   -2.4450    0.1600    0.4700 C   0  0  0  0  0  0  0  0  0  0  0  0
   -3.5960    0.6260    1.0750 C   0  0  0  0  0  0  0  0  0  0  0  0
   -4.8520    0.0890    0.8760 C   0  0  0  0  0  0  0  0  0  0  0  0
   -1.2160    0.7560    0.7270 O   0  0  0  0  0  0  0  0  0  0  0  0
   -0.0720    0.1250    1.2740 C   0  0  0  0  0  0  0  0  0  0  0  0
    1.1190    1.0170    0.9950 C   0  0  0  0  0  0  0  0  0  0  0  0
    2.2860    0.3120    1.2680 O   0  0  0  0  0  0  0  0  0  0  0  0
    3.4100    1.1230    1.2520 C   0  0  1  0  0  0  0  0  0  0  0  0
    3.0670    2.5970    1.3490 C   0  0  0  0  0  0  0  0  0  0  0  0
    4.2720    0.7650    2.4290 C   0  0  0  0  0  0  0  0  0  0  0  0
    4.2080    0.9590   -0.0390 C   0  0  0  0  0  0  0  0  0  0  0  0
    4.1340   -0.5090   -0.4060 C   0  0  0  0  0  0  0  0  0  0  0  0
    4.7060   -0.7840   -1.6990 N   0  0  0  0  0  0  0  0  0  0  0  0
    5.8480   -0.0110   -2.1360 C   0  0  0  0  0  0  0  0  0  0  0  0
    7.0830   -0.6920   -1.7020 C   0  0  0  0  0  0  0  0  0  0  0  0
    7.0090   -1.7300   -1.0820 O   0  0  0  0  0  0  0  0  0  0  0  0
    4.2060   -1.7900   -2.5890 C   0  0  0  0  0  0  0  0  0  0  0  0
    5.0110   -2.3560   -3.4100 O   0  0  0  0  0  0  0  0  0  0  0  0
    2.8610   -2.1520   -2.5630 O   0  0  0  0  0  0  0  0  0  0  0  0
    1.7900   -1.2280   -2.6820 C   0  0  0  0  0  0  0  0  0  0  0  0
    0.6270   -1.8040   -1.9180 C   0  0  0  0  0  0  0  0  0  0  0  0
   -0.5530   -0.8510   -1.8710 C   0  0  0  0  0  0  0  0  0  0  0  0
   -1.5270   -1.4840   -1.0690 O   0  0  0  0  0  0  0  0  0  0  0  0
  1  2  1  0
  2  3  2  3
  3  4  1  0
  3 11  1  0
  4  5  1  0
  5  6  1  0
  6  7  2  0
  6 11  1  0
  7  8  1  0
  8  9  2  0
  8 31  1  0
  9 10  1  0
  9 12  1  0
 10 11  2  0
 12 13  1  0
 13 14  1  0
 14 15  1  0
 15 16  1  0
 16 17  1  1
 16 18  1  0
 16 19  1  0
 19 20  1  0
 20 21  1  0
 21 22  1  0
 21 25  1  0
 22 23  1  0
 23 24  2  0
 25 26  2  0
 25 27  1  0
 27 28  1  0
 28 29  1  0
 29 30  1  0
 30 31  1  0
M  END
