
     RDKit          3D

 25 25  0  0  0  0  0  0  0  0999 V2000
   -5.6360    0.3150    2.5260 C   0  0  0  0  0  0  0  0  0  0  0  0
   -4.5370   -0.1870    1.7870 O   0  0  0  0  0  0  0  0  0  0  0  0
   -3.9860    0.5690    0.7620 C   0  0  0  0  0  0  0  0  0  0  0  0
   -4.4700    1.6930    0.5000 O   0  0  0  0  0  0  0  0  0  0  0  0
   -2.8530    0.0430    0.0060 C   0  0  0  0  0  0  0  0  0  0  0  0
   -2.3590   -1.0960    0.2670 O   0  0  0  0  0  0  0  0  0  0  0  0
   -2.2890    0.8330   -1.0530 C   0  0  0  0  0  0  0  0  0  0  0  0
   -2.7650    1.9620   -1.3260 O   0  0  0  0  0  0  0  0  0  0  0  0
   -1.1260    0.3130   -1.8420 C   0  0  1  0  0  0  0  0  0  0  0  0
   -0.7720    1.2780   -2.8130 O   0  0  0  0  0  0  0  0  0  0  0  0
   -0.7650    0.9720   -4.1660 C   0  0  0  0  0  0  0  0  0  0  0  0
   -1.0920   -0.2120   -4.4820 O   0  0  0  0  0  0  0  0  0  0  0  0
   -0.4300    1.8660   -5.1600 O   0  0  0  0  0  0  0  0  0  0  0  0
   -0.0430    0.2150   -0.9400 O   0  0  0  0  0  0  0  0  0  0  0  0
    0.6580   -0.9230   -0.6760 C   0  0  0  0  0  0  0  0  0  0  0  0
    0.3610   -1.9940   -1.2510 O   0  0  0  0  0  0  0  0  0  0  0  0
    1.7760   -0.8970    0.2930 C   0  0  2  0  0  0  0  0  0  0  0  0
    2.8000    0.0690   -0.1910 C   0  0  0  0  0  0  0  0  0  0  0  0
    4.0930   -0.3750   -0.1490 O   0  0  0  0  0  0  0  0  0  0  0  0
    4.4880   -1.2390    1.2880 P   0  0  0  0  0  0  0  0  0  0  0  0
    5.0140   -0.2230    2.5870 O   0  0  0  0  0  0  0  0  0  0  0  0
    5.6450    1.0020    2.4120 C   0  0  0  0  0  0  0  0  0  0  0  0
    5.8310    1.3660    1.2120 O   0  0  0  0  0  0  0  0  0  0  0  0
    3.1110   -2.2120    1.7140 O   0  0  0  0  0  0  0  0  0  0  0  0
    2.3160   -2.2800    0.5600 C   0  0  0  0  0  0  0  0  0  0  0  0
  1  2  1  0
  2  3  1  0
  3  4  2  0
  3  5  1  0
  5  6  2  0
  5  7  1  0
  7  8  2  0
  7  9  1  0
  9 10  1  6
  9 14  1  0
 10 11  1  0
 11 12  2  0
 11 13  1  0
 14 15  1  0
 15 16  2  0
 17 15  1  6
 17 18  1  0
 17 25  1  0
 18 19  1  0
 19 20  1  0
 20 21  1  0
 20 24  1  0
 21 22  1  0
 22 23  2  0
 24 25  1  0
M  END
