
     RDKit          3D

 24 24  0  0  0  0  0  0  0  0999 V2000
   -5.9940   -0.4880   -0.2740 C   0  0  0  0  0  0  0  0  0  0  0  0
   -4.5830   -0.7260    0.0310 C   0  0  0  0  0  0  0  0  0  0  0  0
   -3.7080    0.3080    0.0760 C   0  0  0  0  0  0  0  0  0  0  0  0
   -4.2990    1.6250   -0.2010 C   0  0  0  0  0  0  0  0  0  0  0  0
   -2.3250    0.0190    0.3830 C   0  0  0  0  0  0  0  0  0  0  0  0
   -2.0730   -1.3860    0.6070 O   0  0  0  0  0  0  0  0  0  0  0  0
   -1.3030    0.8300    0.4820 C   0  0  0  0  0  0  0  0  0  0  0  0
   -1.4290    2.2830    0.2750 C   0  0  0  0  0  0  0  0  0  0  0  0
    0.0110    0.2910    0.8070 N   0  0  0  0  0  0  0  0  0  0  0  0
    0.7780   -0.4540   -0.1720 C   0  0  1  0  0  0  0  0  0  0  0  0
    1.0900    0.3780   -1.4260 C   0  0  0  0  0  0  0  0  0  0  0  0
    2.3950    0.4980   -0.8130 C   0  0  0  0  0  0  0  0  0  0  0  0
    3.4110    1.2470   -1.1020 C   0  0  0  0  0  0  0  0  0  0  0  0
    4.4130    2.0470   -1.3480 C   0  0  0  0  0  0  0  0  0  0  0  0
    5.3110    1.5620   -2.1930 F   0  0  0  0  0  0  0  0  0  0  0  0
    4.3900    3.6320   -0.5080 P   0  0  0  0  0  0  0  0  0  0  0  0
    4.8510    4.9740   -1.1300 O   0  0  0  0  0  0  0  0  0  0  0  0
    2.1840   -0.4480    0.1800 N   0  0  0  0  0  0  0  0  0  0  0  0
    2.9540   -1.0850    1.0800 O   0  0  0  0  0  0  0  0  0  0  0  0
    3.2240   -2.3640    0.7200 N   0  0  0  0  0  0  0  0  0  0  0  0
    4.3720   -2.7600    1.4060 O   0  0  0  0  0  0  0  0  0  0  0  0
    5.2690   -3.6600    0.8520 C   0  0  0  0  0  0  0  0  0  0  0  0
    4.9970   -4.1010   -0.2960 O   0  0  0  0  0  0  0  0  0  0  0  0
    6.4210   -4.0790    1.4990 O   0  0  0  0  0  0  0  0  0  0  0  0
  1  2  1  0
  2  3  2  3
  3  4  1  0
  3  5  1  0
  5  6  1  0
  5  7  2  3
  7  8  1  0
  7  9  1  0
 10  9  1  1
 10 11  1  0
 10 18  1  0
 11 12  1  0
 12 13  2  0
 12 18  1  0
 13 14  2  0
 14 15  1  0
 14 16  1  0
 16 17  2  0
 18 19  1  0
 19 20  1  0
 20 21  1  0
 21 22  1  0
 22 23  2  0
 22 24  1  0
M  END
