
     RDKit          3D

 24 24  0  0  0  0  0  0  0  0999 V2000
   -6.2720   -1.3240    0.3940 C   0  0  0  0  0  0  0  0  0  0  0  0
   -5.0070   -0.9970    0.3780 C   0  0  0  0  0  0  0  0  0  0  0  0
   -4.0710   -2.0350    0.6630 O   0  0  0  0  0  0  0  0  0  0  0  0
   -3.6030   -2.7210   -0.4430 C   0  0  0  0  0  0  0  0  0  0  0  0
   -3.9040   -2.3880   -1.6470 N   0  0  0  0  0  0  0  0  0  0  0  0
   -4.4270    0.2950    0.1040 C   0  0  0  0  0  0  0  0  0  0  0  0
   -5.2220    1.4420   -0.2000 C   0  0  0  0  0  0  0  0  0  0  0  0
   -6.4580    1.4060   -0.2490 O   0  0  0  0  0  0  0  0  0  0  0  0
   -3.1070    0.4220    0.1370 C   0  0  0  0  0  0  0  0  0  0  0  0
   -2.5470    1.6580   -0.1250 O   0  0  0  0  0  0  0  0  0  0  0  0
   -1.2360    1.9390    0.3130 C   0  0  0  0  0  0  0  0  0  0  0  0
   -0.5060    0.8990    0.4980 N   0  0  0  0  0  0  0  0  0  0  0  0
    0.8400    1.0890    0.9430 C   0  0  0  0  0  0  0  0  0  0  0  0
    1.6980    0.0210    1.1670 O   0  0  0  0  0  0  0  0  0  0  0  0
    2.7480   -0.2750    0.3190 C   0  0  0  0  0  0  0  0  0  0  0  0
    2.7000    0.1840   -0.8920 N   0  0  0  0  0  0  0  0  0  0  0  0
    3.8450   -1.0330    0.6900 O   0  0  0  0  0  0  0  0  0  0  0  0
    5.1890   -1.1790   -0.4050 P   0  0  0  0  0  0  0  0  0  0  0  0
    5.8170   -2.9180   -0.5200 C   0  0  0  0  0  0  0  0  0  0  0  0
    6.5420    0.0230   -0.0250 C   0  0  0  0  0  0  0  0  0  0  0  0
    1.3110    2.3040    1.1540 C   0  0  0  0  0  0  0  0  0  0  0  0
    2.6120    2.4750    1.5830 F   0  0  0  0  0  0  0  0  0  0  0  0
    0.5080    3.5030    0.9530 C   0  0  0  0  0  0  0  0  0  0  0  0
   -0.7770    3.1970    0.5230 O   0  0  0  0  0  0  0  0  0  0  0  0
  1  2  2  0
  2  3  1  0
  2  6  1  0
  3  4  1  0
  4  5  2  0
  6  7  1  0
  6  9  2  3
  7  8  2  0
  9 10  1  0
 10 11  1  0
 11 12  2  0
 11 24  1  0
 12 13  1  0
 13 14  1  0
 13 21  2  0
 14 15  1  0
 15 16  2  0
 15 17  1  0
 17 18  1  0
 18 19  1  0
 18 20  1  0
 21 22  1  0
 21 23  1  0
 23 24  1  0
M  END
