
     RDKit          3D

 14 13  0  0  0  0  0  0  0  0999 V2000
   -3.0010   -1.3990    2.0070 C   0  0  0  0  0  0  0  0  0  0  0  0
   -2.6840   -1.1240    0.7580 C   0  0  0  0  0  0  0  0  0  0  0  0
   -3.5750   -0.2350   -0.0310 C   0  0  0  0  0  0  0  0  0  0  0  0
   -1.4510   -1.7040    0.1730 C   0  0  0  0  0  0  0  0  0  0  0  0
   -0.5650   -0.5500   -0.2440 C   0  0  0  0  0  0  0  0  0  0  0  0
    0.6200   -1.0300   -0.8070 O   0  0  0  0  0  0  0  0  0  0  0  0
    1.5860    0.2820   -1.2620 P   0  0  1  0  0  0  0  0  0  0  0  0
    2.8620   -0.1810   -1.8960 O   0  0  0  0  0  0  0  0  0  0  0  0
    0.7360    1.2300   -2.3810 O   0  0  0  0  0  0  0  0  0  0  0  0
    1.9270    1.2290    0.1010 O   0  0  0  0  0  0  0  0  0  0  0  0
    3.5470    1.7040    0.0070 P   0  0  1  0  0  0  0  0  0  0  0  0
    3.7230    2.8140   -1.0210 O   0  0  0  0  0  0  0  0  0  0  0  0
    4.0130    2.2430    1.5570 O   0  0  0  0  0  0  0  0  0  0  0  0
    4.5300    0.3980   -0.3870 O   0  0  0  0  0  0  0  0  0  0  0  0
  1  2  2  0
  2  3  1  0
  2  4  1  0
  4  5  1  0
  5  6  1  0
  6  7  1  0
  7  8  2  0
  7  9  1  6
  7 10  1  0
 10 11  1  0
 11 12  2  0
 11 13  1  1
 11 14  1  0
M  END
