
     RDKit          3D

 23 23  0  0  0  0  0  0  0  0999 V2000
    3.5570   -0.9810    1.5890 C   0  0  0  0  0  0  0  0  0  0  0  0
    3.5920   -0.1480    0.3040 C   0  0  2  0  0  0  0  0  0  0  0  0
    3.2930   -1.0380   -0.8890 C   0  0  0  0  0  0  0  0  0  0  0  0
    5.0180    0.3360    0.1450 C   0  0  0  0  0  0  0  0  0  0  0  0
    2.5220    1.2850    0.3840 S   0  0  0  0  0  0  0  0  0  0  0  0
    0.7930    0.8560    0.4680 C   0  0  0  0  0  0  0  0  0  0  0  0
    0.0970    1.8760    0.5210 N   0  0  0  0  0  0  0  0  0  0  0  0
   -1.1130    1.9310    0.8420 C   0  0  0  0  0  0  0  0  0  0  0  0
   -1.4300    3.4660    1.6990 S   0  0  0  0  0  0  0  0  0  0  0  0
   -3.0870    3.5420    2.1340 O   0  0  0  0  0  0  0  0  0  0  0  0
   -3.6980    4.2610    1.2150 O   0  0  0  0  0  0  0  0  0  0  0  0
   -2.3180    1.1080    0.7150 C   0  0  0  0  0  0  0  0  0  0  0  0
   -2.4500    0.3970   -0.5960 C   0  0  1  0  0  0  0  0  0  0  0  0
   -3.9240    0.1910   -0.8690 C   0  0  0  0  0  0  0  0  0  0  0  0
   -1.9390    1.1600   -1.6710 O   0  0  0  0  0  0  0  0  0  0  0  0
   -2.1110    0.4330   -2.7580 O   0  0  0  0  0  0  0  0  0  0  0  0
   -1.7600   -0.9340   -0.5470 C   0  0  0  0  0  0  0  0  0  0  0  0
   -0.5380   -1.2290   -0.1000 C   0  0  0  0  0  0  0  0  0  0  0  0
   -0.2230   -2.5930   -0.2090 O   0  0  0  0  0  0  0  0  0  0  0  0
   -1.1690   -3.5470   -0.0280 N   0  0  0  0  0  0  0  0  0  0  0  0
   -1.5540   -4.3490   -0.9470 C   0  0  0  0  0  0  0  0  0  0  0  0
   -2.2010   -4.6550   -1.9770 O   0  0  0  0  0  0  0  0  0  0  0  0
    0.5330   -0.5260    0.4590 O   0  0  0  0  0  0  0  0  0  0  0  0
  2  1  1  1
  2  3  1  0
  2  4  1  0
  2  5  1  0
  5  6  1  0
  6  7  2  0
  6 23  1  0
  7  8  2  0
  8  9  1  0
  8 12  1  0
  9 10  1  0
 10 11  1  0
 12 13  1  0
 13 14  1  6
 13 15  1  0
 13 17  1  0
 15 16  1  0
 17 18  2  0
 18 19  1  0
 18 23  1  0
 19 20  1  0
 20 21  2  0
 21 22  2  0
M  CHG  1   7   1
M  END
