
     RDKit          3D

 22 23  0  0  0  0  0  0  0  0999 V2000
    3.8430    1.6310    0.9690 C   0  0  0  0  0  0  0  0  0  0  0  0
    3.6460    0.1680    1.1480 C   0  0  0  0  0  0  0  0  0  0  0  0
    2.6980   -0.4260    0.0800 C   0  0  1  0  0  0  0  0  0  0  0  0
    2.6320   -1.8910    0.4320 C   0  0  0  0  0  0  0  0  0  0  0  0
    2.0430   -2.6810   -0.5320 O   0  0  0  0  0  0  0  0  0  0  0  0
    1.4120    0.2400    0.1300 C   0  0  0  0  0  0  0  0  0  0  0  0
    0.3060   -0.1330   -0.7880 C   0  0  2  0  0  0  0  0  0  0  0  0
    0.5920    0.0030   -2.2300 C   0  0  0  0  0  0  0  0  0  0  0  0
    0.4870    1.4740   -2.3710 C   0  0  0  0  0  0  0  0  0  0  0  0
    1.1540    2.2140   -3.0840 O   0  0  0  0  0  0  0  0  0  0  0  0
   -0.5630    1.7850   -1.4830 N   0  0  0  0  0  0  0  0  0  0  0  0
   -0.6920    0.9050   -0.5860 N   0  0  0  0  0  0  0  0  0  0  0  0
   -1.5650    0.7820    0.4820 O   0  0  0  0  0  0  0  0  0  0  0  0
   -2.4380   -0.2830    0.6980 C   0  0  1  0  0  0  0  0  0  0  0  0
   -3.8450    0.2100    0.3700 C   0  0  1  0  0  0  0  0  0  0  0  0
   -4.7920   -0.9410    0.5700 C   0  0  0  0  0  0  0  0  0  0  0  0
   -4.2450    1.3500    1.2670 C   0  0  0  0  0  0  0  0  0  0  0  0
   -3.9220    0.6310   -0.9660 O   0  0  0  0  0  0  0  0  0  0  0  0
   -2.1870   -1.3730   -0.1260 O   0  0  0  0  0  0  0  0  0  0  0  0
   -0.5410   -1.6770   -0.3580 S   0  0  0  0  0  0  0  0  0  0  0  0
    3.4140   -0.3450   -1.1090 O   0  0  0  0  0  0  0  0  0  0  0  0
    4.8460   -1.2090   -1.0470 Cl  0  0  0  0  0  0  0  0  0  0  0  0
  1  2  1  0
  3  2  1  1
  3  4  1  0
  3  6  1  0
  3 21  1  0
  4  5  1  0
  7  6  1  1
  7  8  1  0
  7 12  1  0
  7 20  1  0
  8  9  1  0
  9 10  2  0
  9 11  1  0
 11 12  2  0
 12 13  1  0
 14 13  1  6
 14 15  1  0
 14 19  1  0
 15 16  1  6
 15 17  1  0
 15 18  1  0
 19 20  1  0
 21 22  1  0
M  CHG  1  12   1
M  END
