
     RDKit          3D

 24 26  0  0  0  0  0  0  0  0999 V2000
    0.9630   -2.5090   -0.7250 C   0  0  0  0  0  0  0  0  0  0  0  0
    0.6290   -1.8780    0.4390 O   0  0  0  0  0  0  0  0  0  0  0  0
   -0.3620   -0.9080    0.3450 C   0  0  2  0  0  0  0  0  0  0  0  0
   -0.4930   -0.4630    1.7340 N   0  0  0  0  0  0  0  0  0  0  0  0
    0.5890    0.0920    2.2460 O   0  0  0  0  0  0  0  0  0  0  0  0
   -1.6080   -1.6300    0.0200 C   0  0  0  0  0  0  0  0  0  0  0  0
   -2.4890   -2.1210    1.1140 C   0  0  0  0  0  0  0  0  0  0  0  0
   -2.0360   -1.9550   -1.3240 S   0  0  0  0  0  0  0  0  0  0  0  0
    0.0330    0.1430   -0.5220 N   0  0  0  0  0  0  0  0  0  0  0  0
   -0.6460    0.8960   -1.3560 C   0  0  0  0  0  0  0  0  0  0  0  0
   -2.0170    0.8140   -1.5880 O   0  0  0  0  0  0  0  0  0  0  0  0
   -2.9800    1.1840   -0.6600 C   0  0  1  0  0  0  0  0  0  0  0  0
   -4.6670    0.8970   -1.1960 Cl  0  0  0  0  0  0  0  0  0  0  0  0
   -2.7570    1.2830    0.6710 O   0  0  0  0  0  0  0  0  0  0  0  0
   -2.7040    2.6300    0.7500 C   0  0  0  0  0  0  0  0  0  0  0  0
   -2.9140    2.7010   -0.5380 C   0  0  0  0  0  0  0  0  0  0  0  0
   -3.0560    4.0480   -1.6430 Cl  0  0  0  0  0  0  0  0  0  0  0  0
    0.4920    1.5630   -1.7000 O   0  0  0  0  0  0  0  0  0  0  0  0
    1.2660    0.7940   -0.8240 C   0  0  0  0  0  0  0  0  0  0  0  0
    2.5300    0.7940   -0.5280 C   0  0  0  0  0  0  0  0  0  0  0  0
    3.5290    1.7460   -1.1580 C   0  0  0  0  0  0  0  0  0  0  0  0
    4.5910    1.6170   -0.2680 O   0  0  0  0  0  0  0  0  0  0  0  0
    4.6510    0.3540    0.0440 O   0  0  0  0  0  0  0  0  0  0  0  0
    3.3330   -0.0090    0.4000 C   0  0  0  0  0  0  0  0  0  0  0  0
  1  2  1  0
  2  3  1  0
  3  4  1  1
  3  6  1  0
  3  9  1  0
  4  5  1  0
  6  7  1  0
  6  8  2  0
  9 10  2  0
  9 19  1  0
 10 11  1  0
 10 18  1  0
 11 12  1  0
 12 13  1  1
 12 14  1  0
 12 16  1  0
 14 15  1  0
 15 16  2  0
 16 17  1  0
 18 19  1  0
 19 20  2  3
 20 21  1  0
 20 24  1  0
 21 22  1  0
 22 23  1  0
 23 24  1  0
M  CHG  1   9   1
M  END
