
     RDKit          3D

 23 23  0  0  0  0  0  0  0  0999 V2000
    5.8700    1.1870    0.2980 C   0  0  0  0  0  0  0  0  0  0  0  0
    4.4520    0.7880    0.1560 C   0  0  0  0  0  0  0  0  0  0  0  0
    4.1680   -0.4420   -0.1670 C   0  0  0  0  0  0  0  0  0  0  0  0
    2.8690   -0.8520   -0.3080 O   0  0  0  0  0  0  0  0  0  0  0  0
    1.7450   -0.0210   -0.1260 N   0  0  0  0  0  0  0  0  0  0  0  0
    0.4600   -0.6170   -0.3270 C   0  0  1  0  0  0  0  0  0  0  0  0
    0.4750   -0.9890   -1.8430 C   0  0  0  0  0  0  0  0  0  0  0  0
    0.5330   -2.0190    0.3090 C   0  0  0  0  0  0  0  0  0  0  0  0
   -0.7740    0.0290    0.0520 C   0  0  1  0  0  0  0  0  0  0  0  0
   -0.8420    0.3740    1.3800 O   0  0  0  0  0  0  0  0  0  0  0  0
   -0.7650   -0.6280    2.1860 O   0  0  0  0  0  0  0  0  0  0  0  0
   -1.2590    1.0550   -0.7400 O   0  0  0  0  0  0  0  0  0  0  0  0
   -1.5060    0.7020   -1.9690 O   0  0  0  0  0  0  0  0  0  0  0  0
   -2.6420    1.6720   -2.7490 Cl  0  0  0  0  0  0  0  0  0  0  0  0
   -2.1450   -1.2530   -0.0910 S   0  0  0  0  0  0  0  0  0  0  0  0
   -3.6360   -0.6020   -0.5300 N   0  0  0  0  0  0  0  0  0  0  0  0
   -4.5960   -0.0270    0.0150 C   0  0  0  0  0  0  0  0  0  0  0  0
   -5.7480    0.3660   -0.8970 C   0  0  0  0  0  0  0  0  0  0  0  0
   -4.6850    0.2830    1.4130 C   0  0  0  0  0  0  0  0  0  0  0  0
   -3.7840   -0.0010    2.2340 O   0  0  0  0  0  0  0  0  0  0  0  0
    2.0070    1.1870    0.1930 C   0  0  0  0  0  0  0  0  0  0  0  0
    0.7780    2.3870    0.4660 Cl  0  0  0  0  0  0  0  0  0  0  0  0
    3.3650    1.6710    0.3530 N   0  0  0  0  0  0  0  0  0  0  0  0
  1  2  1  0
  2  3  2  0
  2 23  1  0
  3  4  1  0
  4  5  1  0
  5  6  1  0
  5 21  2  0
  6  7  1  6
  6  8  1  0
  6  9  1  0
  9 10  1  1
  9 12  1  0
  9 15  1  0
 10 11  1  0
 12 13  1  0
 13 14  1  0
 15 16  1  0
 16 17  2  3
 17 18  1  0
 17 19  1  0
 19 20  2  0
 21 22  1  0
 21 23  1  0
M  CHG  1   5   1
M  END
