
     RDKit          3D

 22 23  0  0  0  0  0  0  0  0999 V2000
    2.4630   -1.1880   -2.2610 C   0  0  0  0  0  0  0  0  0  0  0  0
    2.2810   -0.2170   -1.3870 C   0  0  0  0  0  0  0  0  0  0  0  0
    1.2320    0.6680   -1.5550 N   0  0  0  0  0  0  0  0  0  0  0  0
    0.3270    1.1180   -0.8360 C   0  0  0  0  0  0  0  0  0  0  0  0
   -0.8060    2.2740   -1.5660 Cl  0  0  0  0  0  0  0  0  0  0  0  0
    0.1530    0.7750    0.5710 C   0  0  1  0  0  0  0  0  0  0  0  0
    1.3310    1.2140    1.2080 O   0  0  0  0  0  0  0  0  0  0  0  0
    1.1770    2.5610    0.8510 O   0  0  0  0  0  0  0  0  0  0  0  0
   -0.1270    2.7880    1.3840 C   0  0  0  0  0  0  0  0  0  0  0  0
   -0.5940    3.9770    1.9600 O   0  0  0  0  0  0  0  0  0  0  0  0
   -2.0150    4.0920    2.1270 C   0  0  0  0  0  0  0  0  0  0  0  0
   -0.7870    1.7100    1.2380 N   0  0  0  0  0  0  0  0  0  0  0  0
   -1.9450    0.9830    1.4320 O   0  0  0  0  0  0  0  0  0  0  0  0
   -1.4610   -0.3150    1.9020 C   0  0  0  0  0  0  0  0  0  0  0  0
   -0.3390   -0.5590    0.9220 C   0  0  2  0  0  0  0  0  0  0  0  0
    0.7420   -1.1760    1.6370 O   0  0  0  0  0  0  0  0  0  0  0  0
   -0.6490   -1.4240   -0.0660 O   0  0  0  0  0  0  0  0  0  0  0  0
   -1.6450   -1.1970   -0.9410 C   0  0  1  0  0  0  0  0  0  0  0  0
   -1.1690   -1.3610   -2.3610 C   0  0  0  0  0  0  0  0  0  0  0  0
   -2.7620   -2.2770   -0.7960 C   0  0  0  0  0  0  0  0  0  0  0  0
    3.4430   -0.1190   -0.0330 S   0  0  0  0  0  0  0  0  0  0  0  0
    4.6790   -1.4080   -0.1000 C   0  0  0  0  0  0  0  0  0  0  0  0
  1  2  2  0
  2  3  1  0
  2 21  1  0
  3  4  2  3
  4  5  1  0
  6  4  1  6
  6  7  1  0
  6 12  1  0
  6 15  1  0
  7  8  1  0
  8  9  1  0
  9 10  1  0
  9 12  2  0
 10 11  1  0
 12 13  1  0
 13 14  1  0
 14 15  1  0
 15 16  1  1
 15 17  1  0
 17 18  1  0
 18 19  1  6
 18 20  1  0
 21 22  1  0
M  CHG  1  12   1
M  END
