
     RDKit          3D

 20 21  0  0  0  0  0  0  0  0999 V2000
    5.4300    1.9220   -0.6370 C   0  0  0  0  0  0  0  0  0  0  0  0
    4.1600    1.3550   -0.3440 O   0  0  0  0  0  0  0  0  0  0  0  0
    3.9090   -0.0040   -0.4420 C   0  0  0  0  0  0  0  0  0  0  0  0
    4.8430   -0.7520   -0.8030 O   0  0  0  0  0  0  0  0  0  0  0  0
    2.5460   -0.5630   -0.1220 C   0  0  2  0  0  0  0  0  0  0  0  0
    2.3020   -0.1810    1.3230 C   0  0  0  0  0  0  0  0  0  0  0  0
    2.6610   -2.0620   -0.2840 C   0  0  0  0  0  0  0  0  0  0  0  0
    1.6240    0.0990   -1.0740 C   0  0  0  0  0  0  0  0  0  0  0  0
    0.1820   -0.3450   -0.8870 C   0  0  0  0  0  0  0  0  0  0  0  0
   -0.7150    0.4650   -0.5650 N   0  0  0  0  0  0  0  0  0  0  0  0
   -2.0230    0.0410   -0.3990 C   0  0  0  0  0  0  0  0  0  0  0  0
   -3.0640    0.5990    0.2070 C   0  0  0  0  0  0  0  0  0  0  0  0
   -2.9980    1.8930    0.8730 C   0  0  0  0  0  0  0  0  0  0  0  0
   -2.2270    2.8460    0.7180 O   0  0  0  0  0  0  0  0  0  0  0  0
   -4.3610    1.8510    2.0650 S   0  0  0  0  0  0  0  0  0  0  0  0
   -4.9400    0.1490    1.6780 C   0  0  0  0  0  0  0  0  0  0  0  0
   -4.4030   -0.0100    0.2810 C   0  0  1  0  0  0  0  0  0  0  0  0
   -5.3420    0.5600   -0.7590 C   0  0  0  0  0  0  0  0  0  0  0  0
   -2.0240   -1.5670   -1.2490 S   0  0  0  0  0  0  0  0  0  0  0  0
   -0.1940   -1.7470   -1.0810 C   0  0  0  0  0  0  0  0  0  0  0  0
  1  2  1  0
  2  3  1  0
  3  4  2  0
  3  5  1  0
  5  6  1  1
  5  7  1  0
  5  8  1  0
  8  9  1  0
  9 10  2  0
  9 20  1  0
 10 11  1  0
 11 12  2  3
 11 19  1  0
 12 13  1  0
 12 17  1  0
 13 14  2  0
 13 15  1  0
 15 16  1  0
 16 17  1  0
 17 18  1  6
 19 20  1  0
M  END
