
     RDKit          3D

 20 21  0  0  0  0  0  0  0  0999 V2000
    4.3750   -1.1250    0.2760 C   0  0  0  0  0  0  0  0  0  0  0  0
    4.4240    0.3960    0.3340 C   0  0  0  0  0  0  0  0  0  0  0  0
    3.9600    1.1940   -0.5490 C   0  0  0  0  0  0  0  0  0  0  0  0
    3.1140    0.8050   -2.0990 S   0  0  0  0  0  0  0  0  0  0  0  0
    2.3680   -0.7830   -2.2130 C   0  0  0  0  0  0  0  0  0  0  0  0
    1.1730   -0.8500   -1.2910 C   0  0  0  0  0  0  0  0  0  0  0  0
    0.5290   -1.9220   -1.2400 O   0  0  0  0  0  0  0  0  0  0  0  0
    0.7770    0.2200   -0.5170 O   0  0  0  0  0  0  0  0  0  0  0  0
   -0.3320    0.1780    0.3470 C   0  0  0  0  0  0  0  0  0  0  0  0
   -1.5960   -0.1150   -0.3830 C   0  0  0  0  0  0  0  0  0  0  0  0
   -1.5390   -0.2940   -1.6360 O   0  0  0  0  0  0  0  0  0  0  0  0
   -2.8250   -0.1890    0.3010 N   0  0  0  0  0  0  0  0  0  0  0  0
   -3.0290   -0.0040    1.7140 C   0  0  0  0  0  0  0  0  0  0  0  0
   -4.2080   -0.8900    2.0320 C   0  0  0  0  0  0  0  0  0  0  0  0
   -4.6710   -1.4780    0.6980 C   0  0  0  0  0  0  0  0  0  0  0  0
   -4.1110   -0.4670   -0.2840 C   0  0  1  0  0  0  0  0  0  0  0  0
   -5.0250    0.7500   -0.2420 C   0  0  0  0  0  0  0  0  0  0  0  0
    4.2280    2.6750   -0.3220 C   0  0  0  0  0  0  0  0  0  0  0  0
    4.3860    2.6630    1.4920 S   0  0  0  0  0  0  0  0  0  0  0  0
    5.0750    0.9830    1.5600 C   0  0  0  0  0  0  0  0  0  0  0  0
  1  2  1  0
  2  3  2  0
  2 20  1  0
  3  4  1  0
  3 18  1  0
  4  5  1  0
  5  6  1  0
  6  7  2  0
  6  8  1  0
  8  9  1  0
  9 10  1  0
 10 11  2  0
 10 12  1  0
 12 13  1  0
 12 16  1  0
 13 14  1  0
 14 15  1  0
 15 16  1  0
 16 17  1  1
 18 19  1  0
 19 20  1  0
M  END
