
     RDKit          3D

 20 21  0  0  0  0  0  0  0  0999 V2000
    5.5230    0.9290    1.0350 C   0  0  0  0  0  0  0  0  0  0  0  0
    5.5170   -0.2340    0.0730 C   0  0  0  0  0  0  0  0  0  0  0  0
    4.4160    0.0500   -1.3290 S   0  0  0  0  0  0  0  0  0  0  0  0
    2.6790    0.1160   -0.8400 C   0  0  0  0  0  0  0  0  0  0  0  0
    2.1830   -1.1820   -0.3400 C   0  0  0  0  0  0  0  0  0  0  0  0
    2.9380   -2.1830   -0.2770 O   0  0  0  0  0  0  0  0  0  0  0  0
    0.8430   -1.3040    0.0730 N   0  0  0  0  0  0  0  0  0  0  0  0
    0.3730   -2.5760    0.5600 C   0  0  0  0  0  0  0  0  0  0  0  0
   -0.9980   -2.9340    0.0600 C   0  0  0  0  0  0  0  0  0  0  0  0
   -1.8050   -1.7220   -0.3340 C   0  0  0  0  0  0  0  0  0  0  0  0
   -1.3660   -0.4980    0.4650 C   0  0  2  0  0  0  0  0  0  0  0  0
   -2.3750    0.5950    0.2510 C   0  0  0  0  0  0  0  0  0  0  0  0
   -2.0630    1.7280   -0.2940 C   0  0  0  0  0  0  0  0  0  0  0  0
   -2.8670    2.9050   -0.5920 C   0  0  0  0  0  0  0  0  0  0  0  0
   -4.5400    2.6850   -0.1150 S   0  0  2  0  0  0  0  0  0  0  0  0
   -5.4330    2.7610   -1.3370 O   0  0  0  0  0  0  0  0  0  0  0  0
   -4.9880    3.7520    0.8640 O   0  0  0  0  0  0  0  0  0  0  0  0
   -4.7350    1.1180    0.5840 C   0  0  0  0  0  0  0  0  0  0  0  0
   -3.7230    0.2990    0.6890 C   0  0  0  0  0  0  0  0  0  0  0  0
   -0.0080   -0.1290   -0.0170 C   0  0  0  0  0  0  0  0  0  0  0  0
  1  2  1  0
  2  3  1  0
  3  4  1  0
  4  5  1  0
  5  6  2  0
  5  7  1  0
  7  8  1  0
  7 20  1  0
  8  9  1  0
  9 10  1  0
 10 11  1  0
 11 12  1  6
 11 20  1  0
 12 13  2  0
 12 19  1  0
 13 14  1  0
 15 14  1  6
 15 16  2  0
 15 17  2  0
 15 18  1  0
 18 19  2  0
M  END
