
     RDKit          3D

 20 21  0  0  0  0  0  0  0  0999 V2000
   -1.7770    3.0850    1.6370 C   0  0  0  0  0  0  0  0  0  0  0  0
   -1.5780    1.8240    1.0210 O   0  0  0  0  0  0  0  0  0  0  0  0
   -2.1550    1.4890   -0.1980 C   0  0  0  0  0  0  0  0  0  0  0  0
   -2.8760    2.4220   -0.7020 O   0  0  0  0  0  0  0  0  0  0  0  0
   -2.0120    0.2290   -0.8940 C   0  0  1  0  0  0  0  0  0  0  0  0
   -1.9120    0.3740   -2.3920 C   0  0  0  0  0  0  0  0  0  0  0  0
   -2.1790   -1.3810   -2.9500 S   0  0  0  0  0  0  0  0  0  0  0  0
   -2.2440   -2.3110   -1.3970 C   0  0  0  0  0  0  0  0  0  0  0  0
   -1.0440   -1.9670   -0.4760 C   0  0  1  0  0  0  0  0  0  0  0  0
    0.0920   -2.7630   -1.1220 C   0  0  0  0  0  0  0  0  0  0  0  0
   -0.8200   -0.5740   -0.4900 N   0  0  0  0  0  0  0  0  0  0  0  0
    0.2810    0.2220   -0.1330 C   0  0  0  0  0  0  0  0  0  0  0  0
    0.2460    1.4610   -0.5810 O   0  0  0  0  0  0  0  0  0  0  0  0
    1.4730   -0.0560    0.6490 C   0  0  0  0  0  0  0  0  0  0  0  0
    1.5620   -1.2150    1.2550 C   0  0  0  0  0  0  0  0  0  0  0  0
    2.6380   -1.7720    2.0980 C   0  0  0  0  0  0  0  0  0  0  0  0
    4.0480   -0.6760    2.3080 S   0  0  0  0  0  0  0  0  0  0  0  0
    3.6450    0.7960    1.3870 C   0  0  0  0  0  0  0  0  0  0  0  0
    2.5170    0.9740    0.7050 C   0  0  0  0  0  0  0  0  0  0  0  0
    2.4020    2.2980   -0.0040 C   0  0  0  0  0  0  0  0  0  0  0  0
  1  2  1  0
  2  3  1  0
  3  4  2  0
  5  3  1  1
  5  6  1  0
  5 11  1  0
  6  7  1  0
  7  8  1  0
  8  9  1  0
  9 10  1  6
  9 11  1  0
 11 12  1  0
 12 13  2  0
 12 14  1  0
 14 15  2  0
 14 19  1  0
 15 16  1  0
 16 17  1  0
 17 18  1  0
 18 19  2  0
 19 20  1  0
M  END
