
     RDKit          3D

 26 29  0  0  0  0  0  0  0  0999 V2000
    2.8700    1.1120    1.1670 O   0  0  0  0  0  0  0  0  0  0  0  0
    2.6830    0.9920   -0.0630 C   0  0  0  0  0  0  0  0  0  0  0  0
    3.5750    0.2170   -0.8130 N   0  0  0  0  0  0  0  0  0  0  0  0
    4.7120   -0.4900   -0.3340 C   0  0  0  0  0  0  0  0  0  0  0  0
    4.9370   -0.8230    0.9770 C   0  0  0  0  0  0  0  0  0  0  0  0
    6.0960   -1.4820    1.3430 C   0  0  0  0  0  0  0  0  0  0  0  0
    7.0420   -1.8150    0.4050 C   0  0  0  0  0  0  0  0  0  0  0  0
    8.1940   -2.4550    0.7130 F   0  0  0  0  0  0  0  0  0  0  0  0
    6.8320   -1.4870   -0.9300 C   0  0  0  0  0  0  0  0  0  0  0  0
    5.6870   -0.8380   -1.2810 C   0  0  0  0  0  0  0  0  0  0  0  0
    1.5340    1.6940   -0.6130 C   0  0  0  0  0  0  0  0  0  0  0  0
    1.6430    2.8250   -1.4260 C   0  0  0  0  0  0  0  0  0  0  0  0
    0.3960    3.1700   -1.7590 N   0  0  0  0  0  0  0  0  0  0  0  0
   -0.4930    2.3320   -1.2080 N   0  0  0  0  0  0  0  0  0  0  0  0
   -1.8280    2.2820   -1.2300 C   0  0  0  0  0  0  0  0  0  0  0  0
   -2.4820    3.2390   -1.9640 O   0  0  0  0  0  0  0  0  0  0  0  0
   -2.4680    1.2820   -0.5200 C   0  0  0  0  0  0  0  0  0  0  0  0
   -1.7810    0.3390    0.2060 C   0  0  0  0  0  0  0  0  0  0  0  0
   -2.5690   -0.6780    0.9530 C   0  0  1  0  0  0  0  0  0  0  0  0
   -3.5530   -0.0240    1.8800 C   0  0  0  0  0  0  0  0  0  0  0  0
   -4.9300   -0.5780    1.8700 C   0  0  0  0  0  0  0  0  0  0  0  0
   -5.3710   -0.7480    0.5170 N   0  0  0  0  0  0  0  0  0  0  0  0
   -4.5590   -1.5660   -0.3140 C   0  0  0  0  0  0  0  0  0  0  0  0
   -3.1530   -1.7530    0.1070 C   0  0  0  0  0  0  0  0  0  0  0  0
   -0.4450    0.4320    0.1970 N   0  0  0  0  0  0  0  0  0  0  0  0
    0.2000    1.4200   -0.5020 C   0  0  0  0  0  0  0  0  0  0  0  0
  1  2  2  0
  2  3  1  0
  2 11  1  0
  3  4  1  0
  4  5  2  0
  4 10  1  0
  5  6  1  0
  6  7  2  0
  7  8  1  0
  7  9  1  0
  9 10  2  0
 11 12  1  0
 11 26  2  0
 12 13  2  0
 13 14  1  0
 14 15  1  0
 14 26  1  0
 15 16  1  0
 15 17  2  0
 17 18  1  0
 19 18  1  6
 18 25  2  0
 19 20  1  0
 19 24  1  0
 20 21  1  0
 21 22  1  0
 22 23  1  0
 23 24  1  0
 25 26  1  0
M  CHG  1  22   1
M  END
