
     RDKit          3D

 27 29  0  0  0  0  0  0  0  0999 V2000
    8.4220    1.3510   -0.6410 O   0  0  0  0  0  0  0  0  0  0  0  0
    7.1800    1.2110   -0.8490 C   0  0  0  0  0  0  0  0  0  0  0  0
    6.3500    2.1180   -0.2320 O   0  0  0  0  0  0  0  0  0  0  0  0
    6.7130    0.1140   -1.7180 C   0  0  0  0  0  0  0  0  0  0  0  0
    5.3160    0.0450   -1.8050 O   0  0  0  0  0  0  0  0  0  0  0  0
    4.5240   -0.2100   -0.6690 C   0  0  0  0  0  0  0  0  0  0  0  0
    5.0800   -0.4220    0.5650 C   0  0  0  0  0  0  0  0  0  0  0  0
    4.2720   -0.6570    1.6050 N   0  0  0  0  0  0  0  0  0  0  0  0
    2.9130   -0.6890    1.4560 C   0  0  0  0  0  0  0  0  0  0  0  0
    2.3020   -0.4900    0.2650 C   0  0  0  0  0  0  0  0  0  0  0  0
    0.8680   -0.5590    0.0250 C   0  0  0  0  0  0  0  0  0  0  0  0
    0.3260   -0.1170   -1.1620 N   0  0  0  0  0  0  0  0  0  0  0  0
   -0.9420   -0.3110   -1.1300 N   0  0  0  0  0  0  0  0  0  0  0  0
   -1.3330   -0.8690    0.0150 C   0  0  0  0  0  0  0  0  0  0  0  0
   -0.1650   -1.0160    0.7280 N   0  0  0  0  0  0  0  0  0  0  0  0
   -0.2960   -1.6410    2.0130 C   0  0  0  0  0  0  0  0  0  0  0  0
   -1.4050   -0.8590    2.7020 C   0  0  0  0  0  0  0  0  0  0  0  0
   -1.2350   -0.3380    3.8260 O   0  0  0  0  0  0  0  0  0  0  0  0
   -2.6240   -0.7740    1.9720 N   0  0  0  0  0  0  0  0  0  0  0  0
   -2.5830   -1.3030    0.6220 C   0  0  1  0  0  0  0  0  0  0  0  0
   -3.8050   -1.0180   -0.1680 C   0  0  0  0  0  0  0  0  0  0  0  0
   -4.0620    0.4180   -0.4620 C   0  0  0  0  0  0  0  0  0  0  0  0
   -5.3470    0.4970   -1.2720 C   0  0  0  0  0  0  0  0  0  0  0  0
   -5.7680    2.2490   -1.6980 P   0  0  0  0  0  0  0  0  0  0  0  0
   -5.1940    3.3560   -0.5020 O   0  0  0  0  0  0  0  0  0  0  0  0
   -7.4800    2.3610   -1.9170 O   0  0  0  0  0  0  0  0  0  0  0  0
    3.1460   -0.2440   -0.8170 C   0  0  0  0  0  0  0  0  0  0  0  0
  1  2  2  0
  2  3  1  0
  2  4  1  0
  4  5  1  0
  5  6  1  0
  6  7  2  0
  6 27  1  0
  7  8  1  0
  8  9  2  0
  9 10  1  0
 10 11  1  0
 10 27  2  0
 11 12  2  0
 11 15  1  0
 12 13  1  0
 13 14  2  0
 14 15  1  0
 14 20  1  0
 15 16  1  0
 16 17  1  0
 17 18  2  0
 17 19  1  0
 19 20  1  0
 20 21  1  6
 21 22  1  0
 22 23  1  0
 23 24  1  0
 24 25  1  0
 24 26  1  0
M  END
