
     RDKit          3D

 28 30  0  0  0  0  0  0  0  0999 V2000
    4.3600    0.1470   -2.2390 C   0  0  0  0  0  0  0  0  0  0  0  0
    3.4120    0.9470   -1.3860 C   0  0  2  0  0  0  0  0  0  0  0  0
    3.9440    1.2840   -0.0410 C   0  0  0  0  0  0  0  0  0  0  0  0
    4.2960    0.1570    0.8550 C   0  0  0  0  0  0  0  0  0  0  0  0
    5.6150   -0.9200    0.1260 P   0  0  0  0  0  0  0  0  0  0  0  0
    7.1720   -0.1500    0.2480 O   0  0  0  0  0  0  0  0  0  0  0  0
    5.7190   -2.4550    0.9010 O   0  0  0  0  0  0  0  0  0  0  0  0
    2.1580    0.2470   -1.2900 N   0  0  0  0  0  0  0  0  0  0  0  0
    1.0000    0.7510   -0.6260 C   0  0  0  0  0  0  0  0  0  0  0  0
    0.9630    1.9520   -0.0160 N   0  0  0  0  0  0  0  0  0  0  0  0
   -0.1300    2.4210    0.6080 C   0  0  0  0  0  0  0  0  0  0  0  0
   -1.2650    1.6380    0.6250 C   0  0  0  0  0  0  0  0  0  0  0  0
   -2.5420    1.7660    1.1460 C   0  0  0  0  0  0  0  0  0  0  0  0
   -3.2800    0.6410    0.8520 C   0  0  0  0  0  0  0  0  0  0  0  0
   -2.4720   -0.1830    0.1540 N   0  0  0  0  0  0  0  0  0  0  0  0
   -1.2430    0.4030    0.0040 C   0  0  0  0  0  0  0  0  0  0  0  0
   -0.1170    0.0030   -0.5970 N   0  0  0  0  0  0  0  0  0  0  0  0
   -2.7640   -1.4650   -0.3790 C   0  0  0  0  0  0  0  0  0  0  0  0
   -1.7630   -2.2220   -0.4610 O   0  0  0  0  0  0  0  0  0  0  0  0
   -4.0910   -1.9530   -0.8210 C   0  0  0  0  0  0  0  0  0  0  0  0
   -5.1270   -1.8690    0.2490 C   0  0  0  0  0  0  0  0  0  0  0  0
   -5.7970   -2.9130    0.4960 O   0  0  0  0  0  0  0  0  0  0  0  0
   -5.4850   -0.7560    1.0590 N   0  0  0  0  0  0  0  0  0  0  0  0
   -6.7250   -0.8100    1.7330 C   0  0  0  0  0  0  0  0  0  0  0  0
   -7.1090    0.1270    2.4620 O   0  0  0  0  0  0  0  0  0  0  0  0
   -7.5310   -1.9210    1.5850 O   0  0  0  0  0  0  0  0  0  0  0  0
   -4.6880    0.4130    1.2430 C   0  0  0  0  0  0  0  0  0  0  0  0
   -5.2430    1.3740    1.8080 O   0  0  0  0  0  0  0  0  0  0  0  0
  2  1  1  1
  2  3  1  0
  2  8  1  0
  3  4  1  0
  4  5  1  0
  5  6  1  0
  5  7  1  0
  8  9  1  0
  9 10  2  0
  9 17  1  0
 10 11  1  0
 11 12  2  0
 12 13  1  0
 12 16  1  0
 13 14  2  0
 14 15  1  0
 14 27  1  0
 15 16  1  0
 15 18  1  0
 16 17  2  0
 18 19  2  0
 18 20  1  0
 20 21  1  0
 21 22  2  0
 21 23  1  0
 23 24  1  0
 23 27  1  0
 24 25  2  0
 24 26  1  0
 27 28  2  0
M  END
