
     RDKit          3D

 28 30  0  0  0  0  0  0  0  0999 V2000
    5.4330   -1.3840   -1.7500 C   0  0  0  0  0  0  0  0  0  0  0  0
    5.4010   -0.3050   -0.7010 C   0  0  2  0  0  0  0  0  0  0  0  0
    6.3460   -0.5570    0.3780 N   0  0  0  0  0  0  0  0  0  0  0  0
    7.3620    0.3690    0.6540 C   0  0  0  0  0  0  0  0  0  0  0  0
    7.4680    1.4380   -0.0380 O   0  0  0  0  0  0  0  0  0  0  0  0
    8.3080    0.2180    1.6590 O   0  0  0  0  0  0  0  0  0  0  0  0
    9.5630    1.4320    1.9470 P   0  0  0  0  0  0  0  0  0  0  0  0
    9.2540    2.8850    1.4620 O   0  0  0  0  0  0  0  0  0  0  0  0
    4.1480   -0.2000   -0.1230 O   0  0  0  0  0  0  0  0  0  0  0  0
    3.5600    1.0250   -0.3060 C   0  0  0  0  0  0  0  0  0  0  0  0
    2.2350    1.0440    0.3410 C   0  0  0  0  0  0  0  0  0  0  0  0
    1.6910    0.0140    1.0080 N   0  0  0  0  0  0  0  0  0  0  0  0
    0.4880    0.3680    1.4660 C   0  0  0  0  0  0  0  0  0  0  0  0
   -0.4330   -0.4870    2.2510 C   0  0  0  0  0  0  0  0  0  0  0  0
   -1.3720   -1.2730    1.3480 C   0  0  1  0  0  0  0  0  0  0  0  0
   -2.2070   -2.0550    2.2040 N   0  0  0  0  0  0  0  0  0  0  0  0
   -3.4290   -1.7070    2.1110 C   0  0  0  0  0  0  0  0  0  0  0  0
   -3.6000   -0.6460    1.1840 N   0  0  0  0  0  0  0  0  0  0  0  0
   -4.8390   -0.0240    0.8400 C   0  0  0  0  0  0  0  0  0  0  0  0
   -5.5930   -0.6360   -0.2890 C   0  0  1  0  0  0  0  0  0  0  0  0
   -6.8680    0.2120   -0.4500 C   0  0  0  0  0  0  0  0  0  0  0  0
   -6.3050    1.3960   -1.1960 C   0  0  0  0  0  0  0  0  0  0  0  0
   -5.1210    1.0260   -1.7960 O   0  0  0  0  0  0  0  0  0  0  0  0
   -4.9700   -0.3430   -1.6360 C   0  0  0  0  0  0  0  0  0  0  0  0
   -2.3120   -0.3470    0.6840 C   0  0  0  0  0  0  0  0  0  0  0  0
   -2.0750    0.5490   -0.1650 O   0  0  0  0  0  0  0  0  0  0  0  0
    0.3160    1.6330    1.0610 N   0  0  0  0  0  0  0  0  0  0  0  0
    1.3580    2.0290    0.3930 O   0  0  0  0  0  0  0  0  0  0  0  0
  2  1  1  6
  2  3  1  0
  2  9  1  0
  3  4  1  0
  4  5  2  0
  4  6  1  0
  6  7  1  0
  7  8  2  0
  9 10  1  0
 10 11  1  0
 11 12  2  0
 11 28  1  0
 12 13  1  0
 13 14  1  0
 13 27  2  0
 15 14  1  1
 15 16  1  0
 15 25  1  0
 16 17  2  0
 17 18  1  0
 18 19  1  0
 18 25  1  0
 20 19  1  1
 20 21  1  0
 20 24  1  0
 21 22  1  0
 22 23  1  0
 23 24  1  0
 25 26  2  0
 27 28  1  0
M  END
