
     RDKit          3D

 27 29  0  0  0  0  0  0  0  0999 V2000
    7.6130   -0.3180    1.9020 C   0  0  0  0  0  0  0  0  0  0  0  0
    6.2920   -1.0760    1.6680 C   0  0  0  0  0  0  0  0  0  0  0  0
    6.3290   -1.4060    0.2890 O   0  0  0  0  0  0  0  0  0  0  0  0
    5.9590   -0.1000   -0.6960 P   0  0  0  0  0  0  0  0  0  0  0  0
    6.9140   -0.1130   -2.1040 O   0  0  0  0  0  0  0  0  0  0  0  0
    4.5100    0.6630   -0.7160 O   0  0  0  0  0  0  0  0  0  0  0  0
    3.4460   -0.2490   -0.6410 C   0  0  0  0  0  0  0  0  0  0  0  0
    2.1720    0.4600   -0.9190 C   0  0  0  0  0  0  0  0  0  0  0  0
    1.0680   -0.5230   -0.9580 N   0  0  0  0  0  0  0  0  0  0  0  0
    0.0530    0.1440   -1.7610 C   0  0  0  0  0  0  0  0  0  0  0  0
   -1.2930   -0.1410   -1.0900 C   0  0  2  0  0  0  0  0  0  0  0  0
   -2.1180    0.7780   -1.5690 O   0  0  0  0  0  0  0  0  0  0  0  0
   -3.2400    0.6190   -2.2470 C   0  0  0  0  0  0  0  0  0  0  0  0
   -4.0080   -0.6430   -2.1410 C   0  0  0  0  0  0  0  0  0  0  0  0
   -5.0650   -0.7620   -1.1040 C   0  0  0  0  0  0  0  0  0  0  0  0
   -5.5330    0.3600   -0.4220 O   0  0  0  0  0  0  0  0  0  0  0  0
   -5.7420    0.4850    0.9760 C   0  0  0  0  0  0  0  0  0  0  0  0
   -6.8530    0.4350    1.7330 N   0  0  0  0  0  0  0  0  0  0  0  0
   -6.4390    0.6290    2.9710 N   0  0  0  0  0  0  0  0  0  0  0  0
   -5.1570    0.7990    3.0860 C   0  0  0  0  0  0  0  0  0  0  0  0
   -4.6910    0.7010    1.7900 N   0  0  0  0  0  0  0  0  0  0  0  0
   -3.4420    0.8600    1.1650 C   0  0  0  0  0  0  0  0  0  0  0  0
   -2.2340    1.2100    1.8100 C   0  0  0  0  0  0  0  0  0  0  0  0
   -2.2330    1.7700    2.9340 O   0  0  0  0  0  0  0  0  0  0  0  0
   -0.9840    0.9260    1.1680 N   0  0  0  0  0  0  0  0  0  0  0  0
   -0.8980   -0.2060    0.3340 C   0  0  2  0  0  0  0  0  0  0  0  0
    0.5310   -0.7660    0.3130 C   0  0  0  0  0  0  0  0  0  0  0  0
  1  2  1  0
  2  3  1  0
  3  4  1  0
  4  5  1  0
  4  6  1  0
  6  7  1  0
  7  8  1  0
  8  9  1  0
  9 10  1  0
  9 27  1  0
 11 10  1  6
 11 12  1  0
 11 26  1  0
 12 13  1  0
 13 14  1  0
 14 15  1  0
 15 16  1  0
 16 17  1  0
 17 18  2  0
 17 21  1  0
 18 19  1  0
 19 20  2  0
 20 21  1  0
 21 22  1  0
 22 23  1  0
 23 24  2  0
 23 25  1  0
 25 26  1  0
 26 27  1  6
M  END
