
     RDKit          3D

 28 30  0  0  0  0  0  0  0  0999 V2000
    1.4600    6.0670   -0.3060 C   0  0  0  0  0  0  0  0  0  0  0  0
    0.6920    5.0430   -1.0440 C   0  0  0  0  0  0  0  0  0  0  0  0
    0.3500    5.2820   -2.2290 O   0  0  0  0  0  0  0  0  0  0  0  0
    0.3630    3.8250   -0.3970 N   0  0  0  0  0  0  0  0  0  0  0  0
    0.6840    3.4970    0.8430 N   0  0  0  0  0  0  0  0  0  0  0  0
    0.1850    2.2480    1.0860 C   0  0  0  0  0  0  0  0  0  0  0  0
    0.3290    1.6720    2.1710 O   0  0  0  0  0  0  0  0  0  0  0  0
   -0.4440    1.8080   -0.0090 N   0  0  0  0  0  0  0  0  0  0  0  0
   -1.0880    0.5590   -0.1460 C   0  0  0  0  0  0  0  0  0  0  0  0
   -2.4180    0.4250   -0.2820 N   0  0  0  0  0  0  0  0  0  0  0  0
   -3.0550   -0.7510   -0.4140 C   0  0  0  0  0  0  0  0  0  0  0  0
   -4.5320   -0.8040   -0.5620 C   0  0  1  0  0  0  0  0  0  0  0  0
   -5.0820   -2.1600   -0.1760 C   0  0  0  0  0  0  0  0  0  0  0  0
   -6.3470   -1.8730    0.3300 O   0  0  0  0  0  0  0  0  0  0  0  0
   -6.3780   -0.5410    0.6610 C   0  0  0  0  0  0  0  0  0  0  0  0
   -5.1720    0.0500    0.3270 O   0  0  0  0  0  0  0  0  0  0  0  0
   -2.3470   -1.9330   -0.4160 C   0  0  0  0  0  0  0  0  0  0  0  0
   -0.9800   -1.8350   -0.2780 C   0  0  0  0  0  0  0  0  0  0  0  0
   -0.3250   -0.6050   -0.1410 C   0  0  0  0  0  0  0  0  0  0  0  0
    1.0770   -0.5830   -0.0040 N   0  0  0  0  0  0  0  0  0  0  0  0
    1.8170   -1.8100   -0.0060 C   0  0  0  0  0  0  0  0  0  0  0  0
    3.2940   -1.6180    0.1480 C   0  0  0  0  0  0  0  0  0  0  0  0
    3.9300   -3.0140    0.1270 C   0  0  0  0  0  0  0  0  0  0  0  0
    5.7520   -2.8370    0.3140 P   0  0  0  0  0  0  0  0  0  0  0  0
    6.5780   -3.9680   -0.7000 O   0  0  0  0  0  0  0  0  0  0  0  0
    6.1860   -3.0840    1.9900 O   0  0  0  0  0  0  0  0  0  0  0  0
   -0.3380    2.7760   -0.9260 C   0  0  0  0  0  0  0  0  0  0  0  0
   -0.7770    2.8010   -2.1030 O   0  0  0  0  0  0  0  0  0  0  0  0
  1  2  1  0
  2  3  2  0
  2  4  1  0
  4  5  1  0
  4 27  1  0
  5  6  1  0
  6  7  2  0
  6  8  1  0
  8  9  1  0
  8 27  1  0
  9 10  2  0
  9 19  1  0
 10 11  1  0
 12 11  1  1
 11 17  2  0
 12 13  1  0
 12 16  1  0
 13 14  1  0
 14 15  1  0
 15 16  1  0
 17 18  1  0
 18 19  2  0
 19 20  1  0
 20 21  1  0
 21 22  1  0
 22 23  1  0
 23 24  1  0
 24 25  1  0
 24 26  1  0
 27 28  2  0
M  END
