
     RDKit          3D

 27 29  0  0  0  0  0  0  0  0999 V2000
   -6.2270    2.2900    1.9430 C   0  0  0  0  0  0  0  0  0  0  0  0
   -5.7990    1.3050    0.8760 C   0  0  0  0  0  0  0  0  0  0  0  0
   -4.3130    1.4500    0.5670 C   0  0  0  0  0  0  0  0  0  0  0  0
   -4.0170    0.4780   -0.4470 N   0  0  0  0  0  0  0  0  0  0  0  0
   -2.6430    0.4870   -0.8640 C   0  0  0  0  0  0  0  0  0  0  0  0
   -1.7630   -0.0210    0.3060 C   0  0  2  0  0  0  0  0  0  0  0  0
   -0.4020    0.0050   -0.1720 N   0  0  0  0  0  0  0  0  0  0  0  0
    0.2590    1.2480   -0.3860 N   0  0  0  0  0  0  0  0  0  0  0  0
    1.4480    1.3490   -0.8550 C   0  0  0  0  0  0  0  0  0  0  0  0
    2.2640    0.2420   -1.2230 N   0  0  0  0  0  0  0  0  0  0  0  0
    3.6140    0.3950   -1.7550 C   0  0  0  0  0  0  0  0  0  0  0  0
    4.6370    0.3990   -0.6300 C   0  0  0  0  0  0  0  0  0  0  0  0
    5.8990    0.5450   -1.1770 O   0  0  0  0  0  0  0  0  0  0  0  0
    6.8910    0.5590   -0.1870 C   0  0  0  0  0  0  0  0  0  0  0  0
    8.5770    0.7510   -0.9210 P   0  0  0  0  0  0  0  0  0  0  0  0
    9.6450    1.5150    0.1940 O   0  0  0  0  0  0  0  0  0  0  0  0
    8.5610    1.6410   -2.3880 O   0  0  0  0  0  0  0  0  0  0  0  0
    1.6750   -1.0400   -1.0380 C   0  0  0  0  0  0  0  0  0  0  0  0
    2.2880   -2.0940   -1.3240 O   0  0  0  0  0  0  0  0  0  0  0  0
    0.3540   -1.1150   -0.5150 N   0  0  0  0  0  0  0  0  0  0  0  0
   -0.2770   -2.3730   -0.2460 C   0  0  0  0  0  0  0  0  0  0  0  0
   -1.4540   -2.4680    0.2850 C   0  0  0  0  0  0  0  0  0  0  0  0
   -2.3330   -3.6450    0.6580 C   0  0  0  0  0  0  0  0  0  0  0  0
   -3.6630   -2.9490    0.8340 C   0  0  0  0  0  0  0  0  0  0  0  0
   -3.5410   -1.6400    0.3930 O   0  0  0  0  0  0  0  0  0  0  0  0
   -2.2150   -1.3200    0.7610 C   0  0  2  0  0  0  0  0  0  0  0  0
   -2.1640   -1.3120    2.1990 O   0  0  0  0  0  0  0  0  0  0  0  0
  1  2  1  0
  2  3  1  0
  3  4  1  0
  4  5  1  0
  6  5  1  6
  6  7  1  0
  6 26  1  0
  7  8  1  0
  7 20  1  0
  8  9  2  0
  9 10  1  0
 10 11  1  0
 10 18  1  0
 11 12  1  0
 12 13  1  0
 13 14  1  0
 14 15  1  0
 15 16  1  0
 15 17  1  0
 18 19  2  0
 18 20  1  0
 20 21  1  0
 21 22  2  0
 22 23  1  0
 22 26  1  0
 23 24  1  0
 24 25  1  0
 25 26  1  0
 26 27  1  1
M  END
