
     RDKit          3D

 27 29  0  0  0  0  0  0  0  0999 V2000
    7.8110    0.5900    0.8290 C   0  0  0  0  0  0  0  0  0  0  0  0
    7.2190    0.4080   -0.5550 C   0  0  0  0  0  0  0  0  0  0  0  0
    5.7440    0.4410   -0.4730 N   0  0  0  0  0  0  0  0  0  0  0  0
    4.9240    1.6110   -0.5860 C   0  0  0  0  0  0  0  0  0  0  0  0
    3.5390    1.1240   -0.4380 C   0  0  0  0  0  0  0  0  0  0  0  0
    3.4900   -0.1610   -0.2590 C   0  0  0  0  0  0  0  0  0  0  0  0
    2.4060   -1.0360   -0.0760 N   0  0  0  0  0  0  0  0  0  0  0  0
    1.0310   -0.6050   -0.0540 C   0  0  0  0  0  0  0  0  0  0  0  0
    0.8630    0.5990   -0.2080 O   0  0  0  0  0  0  0  0  0  0  0  0
   -0.0040   -1.5810    0.1410 N   0  0  0  0  0  0  0  0  0  0  0  0
    0.2760   -2.8950    0.3050 N   0  0  0  0  0  0  0  0  0  0  0  0
   -0.8220   -3.6040    0.4700 C   0  0  0  0  0  0  0  0  0  0  0  0
   -1.8520   -2.6580    0.4010 C   0  0  0  0  0  0  0  0  0  0  0  0
   -1.3280   -1.3900    0.1940 C   0  0  0  0  0  0  0  0  0  0  0  0
   -2.0550   -0.1480    0.0540 C   0  0  0  0  0  0  0  0  0  0  0  0
   -1.3910    0.9190   -0.1690 O   0  0  0  0  0  0  0  0  0  0  0  0
   -3.4570    0.0390    0.1360 N   0  0  0  0  0  0  0  0  0  0  0  0
   -4.4630   -0.9480    0.3900 C   0  0  0  0  0  0  0  0  0  0  0  0
   -5.8090   -0.2190    0.3890 C   0  0  0  0  0  0  0  0  0  0  0  0
   -5.5210    0.9510   -0.4850 C   0  0  1  0  0  0  0  0  0  0  0  0
   -6.7080    2.3260   -0.3360 P   0  0  0  0  0  0  0  0  0  0  0  0
   -6.3990    3.3790    0.9830 O   0  0  0  0  0  0  0  0  0  0  0  0
   -8.3160    1.6840   -0.2450 O   0  0  0  0  0  0  0  0  0  0  0  0
   -4.1480    1.3070   -0.0340 C   0  0  0  0  0  0  0  0  0  0  0  0
   -3.6060    2.3940    0.1820 O   0  0  0  0  0  0  0  0  0  0  0  0
    4.8860   -0.6610   -0.2730 C   0  0  0  0  0  0  0  0  0  0  0  0
    5.2850   -1.8510   -0.1330 O   0  0  0  0  0  0  0  0  0  0  0  0
  1  2  1  0
  2  3  1  0
  3  4  1  0
  3 26  1  0
  4  5  1  0
  5  6  2  0
  6  7  1  0
  6 26  1  0
  7  8  1  0
  8  9  2  0
  8 10  1  0
 10 11  1  0
 10 14  1  0
 11 12  2  0
 12 13  1  0
 13 14  2  0
 14 15  1  0
 15 16  2  0
 15 17  1  0
 17 18  1  0
 17 24  1  0
 18 19  1  0
 19 20  1  0
 20 21  1  1
 20 24  1  0
 21 22  1  0
 21 23  1  0
 24 25  2  0
 26 27  2  0
M  END
