
     RDKit          3D

 18 18  0  0  0  0  0  0  0  0999 V2000
   -2.5930   -1.8080   -1.7410 O   0  0  0  0  0  0  0  0  0  0  0  0
   -2.6420   -0.8170   -0.6220 P   0  0  2  0  0  0  0  0  0  0  0  0
   -2.7850   -1.6810    0.8490 O   0  0  0  0  0  0  0  0  0  0  0  0
   -3.8900    0.2880   -0.7510 O   0  0  0  0  0  0  0  0  0  0  0  0
   -1.0140    0.0270   -0.5350 C   0  0  2  0  0  0  0  0  0  0  0  0
   -0.8100    0.6100   -1.7840 O   0  0  0  0  0  0  0  0  0  0  0  0
   -0.0340   -1.0490   -0.2240 C   0  0  0  0  0  0  0  0  0  0  0  0
    1.3320   -0.6070   -0.1080 N   0  0  0  0  0  0  0  0  0  0  0  0
    1.7930   -0.2190    1.0950 C   0  0  0  0  0  0  0  0  0  0  0  0
    3.0950    0.2200    1.2930 C   0  0  0  0  0  0  0  0  0  0  0  0
    3.9510    0.2600    0.2100 C   0  0  0  0  0  0  0  0  0  0  0  0
    3.4880   -0.1370   -1.0370 C   0  0  0  0  0  0  0  0  0  0  0  0
    4.3500   -0.0870   -2.0830 F   0  0  0  0  0  0  0  0  0  0  0  0
    2.1930   -0.5540   -1.1400 C   0  0  0  0  0  0  0  0  0  0  0  0
   -1.1440    1.2910    0.7340 P   0  0  2  0  0  0  0  0  0  0  0  0
    0.0950    2.1230    0.8660 O   0  0  0  0  0  0  0  0  0  0  0  0
   -1.4510    0.5870    2.2410 O   0  0  0  0  0  0  0  0  0  0  0  0
   -2.4110    2.3680    0.4240 O   0  0  0  0  0  0  0  0  0  0  0  0
  1  2  2  0
  2  3  1  1
  2  4  1  0
  2  5  1  0
  5  6  1  6
  5  7  1  0
  5 15  1  0
  7  8  1  0
  8  9  2  0
  8 14  1  0
  9 10  1  0
 10 11  2  0
 11 12  1  0
 12 13  1  0
 12 14  2  0
 15 16  2  0
 15 17  1  1
 15 18  1  0
M  CHG  1   8   1
M  END
