
     RDKit          3D

 31 34  0  0  0  0  0  0  0  0999 V2000
    0.1200   -0.7970   -3.9920 C   0  0  0  0  0  0  0  0  0  0  0  0
    0.1860    0.2310   -2.8870 C   0  0  0  0  0  0  0  0  0  0  0  0
   -0.5930   -0.1630   -1.7440 N   0  0  0  0  0  0  0  0  0  0  0  0
   -1.9550    0.2610   -1.7220 C   0  0  0  0  0  0  0  0  0  0  0  0
   -2.3500    0.9410   -2.7020 O   0  0  0  0  0  0  0  0  0  0  0  0
   -2.9040   -0.0170   -0.6890 C   0  0  0  0  0  0  0  0  0  0  0  0
   -3.7100   -1.1330   -0.6980 C   0  0  0  0  0  0  0  0  0  0  0  0
   -3.5930   -2.0900   -1.8220 C   0  0  0  0  0  0  0  0  0  0  0  0
   -4.6270   -1.3890    0.3110 C   0  0  0  0  0  0  0  0  0  0  0  0
   -4.7410   -0.5030    1.3590 C   0  0  0  0  0  0  0  0  0  0  0  0
   -3.9590    0.6090    1.3970 C   0  0  0  0  0  0  0  0  0  0  0  0
   -3.0420    0.8380    0.3610 C   0  0  0  0  0  0  0  0  0  0  0  0
   -2.2270    2.0390    0.4470 C   0  0  0  0  0  0  0  0  0  0  0  0
   -3.1450    3.1950    0.7900 C   0  0  0  0  0  0  0  0  0  0  0  0
   -3.8710    2.9310    2.0740 C   0  0  0  0  0  0  0  0  0  0  0  0
   -3.9860    1.5670    2.3970 O   0  0  0  0  0  0  0  0  0  0  0  0
   -0.1420   -0.9460   -0.6230 C   0  0  1  0  0  0  0  0  0  0  0  0
    0.0820   -2.4060   -0.9470 C   0  0  0  0  0  0  0  0  0  0  0  0
    0.9300   -3.1440    0.0020 C   0  0  0  0  0  0  0  0  0  0  0  0
    1.3510   -2.4280    1.2330 C   0  0  0  0  0  0  0  0  0  0  0  0
    0.6840   -1.2070    1.5280 N   0  0  0  0  0  0  0  0  0  0  0  0
    0.8140   -0.3330    0.3190 C   0  0  1  0  0  0  0  0  0  0  0  0
    2.2060   -0.2050    0.0390 C   0  0  0  0  0  0  0  0  0  0  0  0
    2.8700   -0.7180   -0.9590 N   0  0  0  0  0  0  0  0  0  0  0  0
    4.2940   -0.4960   -1.1070 C   0  0  0  0  0  0  0  0  0  0  0  0
    4.9240   -0.8160    0.2190 C   0  0  0  0  0  0  0  0  0  0  0  0
    4.3740    0.0790    1.2650 C   0  0  0  0  0  0  0  0  0  0  0  0
    3.0180    0.5840    0.9520 N   0  0  0  0  0  0  0  0  0  0  0  0
    2.5880    1.7970    1.5640 C   0  0  2  0  0  0  0  0  0  0  0  0
    2.3070    1.6910    3.0500 C   0  0  0  0  0  0  0  0  0  0  0  0
    1.6410    2.6600    0.8050 C   0  0  0  0  0  0  0  0  0  0  0  0
  1  2  1  0
  2  3  1  0
  3  4  1  0
 17  3  1  6
  4  5  2  0
  4  6  1  0
  6  7  2  0
  6 12  1  0
  7  8  1  0
  7  9  1  0
  9 10  2  0
 10 11  1  0
 11 12  2  0
 11 16  1  0
 12 13  1  0
 13 14  1  0
 14 15  1  0
 15 16  1  0
 17 18  1  0
 17 22  1  0
 18 19  1  0
 19 20  1  0
 20 21  1  0
 21 22  1  0
 22 23  1  6
 23 24  2  0
 23 28  1  0
 24 25  1  0
 25 26  1  0
 26 27  1  0
 27 28  1  0
 28 29  1  0
 29 30  1  1
 29 31  1  0
M  CHG  1  24   1
M  END
