
     RDKit          3D

 12 12  0  0  0  0  0  0  0  0999 V2000
   -0.9240   -1.4850    1.6250 C   0  0  0  0  0  0  0  0  0  0  0  0
   -1.1980   -0.6580    0.6400 C   0  0  0  0  0  0  0  0  0  0  0  0
   -2.5430   -0.3740    0.2780 N   0  0  0  0  0  0  0  0  0  0  0  0
   -2.8730    0.8780   -0.3540 C   0  0  0  0  0  0  0  0  0  0  0  0
   -1.8680    1.0720   -1.4290 C   0  0  0  0  0  0  0  0  0  0  0  0
   -2.1300    1.4450   -2.5910 O   0  0  0  0  0  0  0  0  0  0  0  0
   -0.4640    0.8000   -1.0790 C   0  0  0  0  0  0  0  0  0  0  0  0
   -0.0870   -0.0140   -0.1050 C   0  0  0  0  0  0  0  0  0  0  0  0
    1.2390   -0.3000    0.2600 N   0  0  0  0  0  0  0  0  0  0  0  0
    2.3720    0.2320   -0.3520 C   0  0  0  0  0  0  0  0  0  0  0  0
    3.7690   -0.1260    0.0990 C   0  0  0  0  0  0  0  0  0  0  0  0
    2.3110    1.0270   -1.2970 O   0  0  0  0  0  0  0  0  0  0  0  0
  1  2  2  0
  2  3  1  0
  2  8  1  0
  3  4  1  0
  4  5  1  0
  5  6  2  0
  5  7  1  0
  7  8  2  0
  8  9  1  0
  9 10  1  0
 10 11  1  0
 10 12  2  0
M  END
