
     RDKit          3D

 12 12  0  0  0  0  0  0  0  0999 V2000
   -3.8120   -0.7000   -0.7650 C   0  0  0  0  0  0  0  0  0  0  0  0
   -2.9440    0.0660    0.2280 C   0  0  0  0  0  0  0  0  0  0  0  0
   -1.7900    0.6880   -0.4220 C   0  0  0  0  0  0  0  0  0  0  0  0
   -0.5290    0.4400   -0.2160 C   0  0  0  0  0  0  0  0  0  0  0  0
    0.4740    1.1620   -0.9570 N   0  0  0  0  0  0  0  0  0  0  0  0
    1.8040    0.8870   -0.7380 N   0  0  0  0  0  0  0  0  0  0  0  0
    2.2680    0.0250    0.0880 C   0  0  0  0  0  0  0  0  0  0  0  0
    3.7310   -0.1990    0.2510 C   0  0  0  0  0  0  0  0  0  0  0  0
    4.4780    0.6110   -0.5880 O   0  0  0  0  0  0  0  0  0  0  0  0
    1.3750   -0.7850    0.9330 C   0  0  0  0  0  0  0  0  0  0  0  0
   -0.0580   -0.5470    0.7260 C   0  0  0  0  0  0  0  0  0  0  0  0
   -0.8200   -1.2760    1.4370 O   0  0  0  0  0  0  0  0  0  0  0  0
  1  2  1  0
  2  3  1  0
  3  4  2  3
  4  5  1  0
  4 11  1  0
  5  6  1  0
  6  7  2  0
  7  8  1  0
  7 10  1  0
  8  9  1  0
 10 11  1  0
 11 12  2  0
M  END
