
     RDKit          3D

 12 12  0  0  0  0  0  0  0  0999 V2000
   -1.6210   -1.6010   -1.2210 C   0  0  0  0  0  0  0  0  0  0  0  0
   -1.1640   -0.9690   -0.1590 C   0  0  0  0  0  0  0  0  0  0  0  0
   -0.9480   -1.6880    1.0000 O   0  0  0  0  0  0  0  0  0  0  0  0
   -0.8980    0.4830   -0.2410 C   0  0  1  0  0  0  0  0  0  0  0  0
   -1.7090    1.2770    0.7430 C   0  0  0  0  0  0  0  0  0  0  0  0
   -3.1160    1.0480    0.4600 N   0  0  0  0  0  0  0  0  0  0  0  0
    0.5200    0.6860   -0.1200 N   0  0  0  0  0  0  0  0  0  0  0  0
    1.2370    0.0780   -1.1800 C   0  0  0  0  0  0  0  0  0  0  0  0
    2.7080   -0.0080   -0.9880 C   0  0  0  0  0  0  0  0  0  0  0  0
    3.1590    0.3810    0.2590 O   0  0  0  0  0  0  0  0  0  0  0  0
    2.2880   -0.2420    1.1840 C   0  0  0  0  0  0  0  0  0  0  0  0
    1.0430    0.6170    1.1840 C   0  0  0  0  0  0  0  0  0  0  0  0
  1  2  2  0
  2  3  1  0
  2  4  1  0
  4  5  1  1
  4  7  1  0
  5  6  1  0
  7  8  1  0
  7 12  1  0
  8  9  1  0
  9 10  1  0
 10 11  1  0
 11 12  1  0
M  END
