
     RDKit          3D

 12 12  0  0  0  0  0  0  0  0999 V2000
    2.2280    0.7420   -1.5920 C   0  0  0  0  0  0  0  0  0  0  0  0
    1.5150   -0.0600   -0.7380 C   0  0  0  0  0  0  0  0  0  0  0  0
    0.1970    0.3560   -0.4550 C   0  0  0  0  0  0  0  0  0  0  0  0
   -0.8020   -0.1080    0.2460 C   0  0  0  0  0  0  0  0  0  0  0  0
   -0.9360   -1.3090    1.0410 C   0  0  0  0  0  0  0  0  0  0  0  0
   -0.1340   -2.2380    1.2420 O   0  0  0  0  0  0  0  0  0  0  0  0
   -2.2580   -1.2730    1.6190 N   0  0  0  0  0  0  0  0  0  0  0  0
   -2.8740   -0.1140    1.1880 N   0  0  0  0  0  0  0  0  0  0  0  0
   -2.1240    0.5820    0.4220 C   0  0  0  0  0  0  0  0  0  0  0  0
   -2.4760    1.8820   -0.2160 C   0  0  0  0  0  0  0  0  0  0  0  0
    2.2980   -1.2180   -0.2680 C   0  0  0  0  0  0  0  0  0  0  0  0
    2.4770   -1.2480    1.1030 O   0  0  0  0  0  0  0  0  0  0  0  0
  1  2  2  0
  2  3  1  0
  2 11  1  0
  3  4  2  3
  4  5  1  0
  4  9  1  0
  5  6  2  0
  5  7  1  0
  7  8  1  0
  8  9  2  0
  9 10  1  0
 11 12  1  0
M  END
