
     RDKit          3D

 10 10  0  0  0  0  0  0  0  0999 V2000
   -0.7540   -2.1970   -0.0980 N   0  0  0  0  0  0  0  0  0  0  0  0
   -0.3330   -0.9380    0.5400 C   0  0  2  0  0  0  0  0  0  0  0  0
   -1.5770   -0.2830    1.0560 C   0  0  0  0  0  0  0  0  0  0  0  0
   -1.3910    1.0440    1.4000 O   0  0  0  0  0  0  0  0  0  0  0  0
   -0.9820    1.8080    0.3280 C   0  0  0  0  0  0  0  0  0  0  0  0
    0.2660    1.3440   -0.3280 C   0  0  0  0  0  0  0  0  0  0  0  0
    0.4070   -0.1250   -0.4780 C   0  0  2  0  0  0  0  0  0  0  0  0
    0.0220   -0.5380   -1.7460 O   0  0  0  0  0  0  0  0  0  0  0  0
    1.8930   -0.4770   -0.3250 C   0  0  0  0  0  0  0  0  0  0  0  0
    2.3660   -0.0930    0.9340 O   0  0  0  0  0  0  0  0  0  0  0  0
  2  1  1  6
  2  3  1  0
  2  7  1  0
  3  4  1  0
  4  5  1  0
  5  6  1  0
  6  7  1  0
  7  8  1  6
  7  9  1  0
  9 10  1  0
M  END
