
     RDKit          3D

 10 10  0  0  0  0  0  0  0  0999 V2000
    2.0270   -1.1880    0.8910 N   0  0  0  0  0  0  0  0  0  0  0  0
    1.3350   -0.8110   -0.3010 C   0  0  0  0  0  0  0  0  0  0  0  0
    0.2130    0.1670   -0.0740 C   0  0  1  0  0  0  0  0  0  0  0  0
    0.6840    1.4560    0.5380 C   0  0  0  0  0  0  0  0  0  0  0  0
   -0.3970    2.3150    0.7210 O   0  0  0  0  0  0  0  0  0  0  0  0
   -0.4690    0.3960   -1.4050 C   0  0  0  0  0  0  0  0  0  0  0  0
   -1.5060   -0.4840   -1.5060 O   0  0  0  0  0  0  0  0  0  0  0  0
   -1.7050   -1.1250   -0.3180 C   0  0  0  0  0  0  0  0  0  0  0  0
   -0.9050   -0.3920    0.7400 C   0  0  2  0  0  0  0  0  0  0  0  0
   -1.7010    0.6550    1.1910 O   0  0  0  0  0  0  0  0  0  0  0  0
  1  2  1  0
  3  2  1  6
  3  4  1  0
  3  6  1  0
  3  9  1  0
  4  5  1  0
  6  7  1  0
  7  8  1  0
  8  9  1  0
  9 10  1  6
M  END
