
     RDKit          3D

 10 10  0  0  0  0  0  0  0  0999 V2000
    3.2790    0.0400    0.3510 O   0  0  0  0  0  0  0  0  0  0  0  0
    2.2780    0.3440   -0.5000 N   0  0  0  0  0  0  0  0  0  0  0  0
    0.9720    0.3250    0.1780 C   0  0  2  0  0  0  0  0  0  0  0  0
    0.7680   -1.0400    0.7150 C   0  0  0  0  0  0  0  0  0  0  0  0
   -0.6330   -1.4800    0.8830 C   0  0  0  0  0  0  0  0  0  0  0  0
   -1.5570   -1.0130   -0.2300 C   0  0  0  0  0  0  0  0  0  0  0  0
   -1.4120    0.5150   -0.2330 C   0  0  2  0  0  0  0  0  0  0  0  0
   -2.4220    1.1370   -0.9040 O   0  0  0  0  0  0  0  0  0  0  0  0
   -0.0430    0.7660   -0.8330 C   0  0  1  0  0  0  0  0  0  0  0  0
    0.1250    2.1010   -1.1190 O   0  0  0  0  0  0  0  0  0  0  0  0
  1  2  1  0
  3  2  1  6
  3  4  1  0
  3  9  1  0
  4  5  1  0
  5  6  1  0
  6  7  1  0
  7  8  1  6
  7  9  1  0
  9 10  1  1
M  END
