
     RDKit          3D

 10 10  0  0  0  0  0  0  0  0999 V2000
    1.8530    0.3680   -1.4890 N   0  0  0  0  0  0  0  0  0  0  0  0
    1.6410   -0.7780   -0.6450 C   0  0  0  0  0  0  0  0  0  0  0  0
    0.9600   -0.4740    0.6470 C   0  0  1  0  0  0  0  0  0  0  0  0
    1.7490    0.4310    1.3520 O   0  0  0  0  0  0  0  0  0  0  0  0
   -0.4580   -0.0770    0.5670 C   0  0  1  0  0  0  0  0  0  0  0  0
   -0.9720    0.0200    1.8590 O   0  0  0  0  0  0  0  0  0  0  0  0
   -0.7450    1.2050   -0.1410 C   0  0  0  0  0  0  0  0  0  0  0  0
   -2.2520    1.0110   -0.3780 C   0  0  0  0  0  0  0  0  0  0  0  0
   -2.4270   -0.3230   -0.6450 O   0  0  0  0  0  0  0  0  0  0  0  0
   -1.3340   -1.0300   -0.1960 C   0  0  0  0  0  0  0  0  0  0  0  0
  1  2  1  0
  2  3  1  0
  3  4  1  6
  3  5  1  0
  5  6  1  1
  5  7  1  0
  5 10  1  0
  7  8  1  0
  8  9  1  0
  9 10  1  0
M  END
