
     RDKit          3D

 10 10  0  0  0  0  0  0  0  0999 V2000
   -2.4520   -1.8320    0.2470 O   0  0  0  0  0  0  0  0  0  0  0  0
   -1.2570   -1.5540   -0.4200 C   0  0  0  0  0  0  0  0  0  0  0  0
   -0.6780   -0.3200    0.1980 C   0  0  2  0  0  0  0  0  0  0  0  0
   -1.5560    0.8840   -0.1620 C   0  0  0  0  0  0  0  0  0  0  0  0
   -0.5770    2.0250    0.1500 C   0  0  0  0  0  0  0  0  0  0  0  0
    0.7680    1.3580    0.3510 C   0  0  0  0  0  0  0  0  0  0  0  0
    0.5660    0.1020   -0.3830 N   0  0  0  0  0  0  0  0  0  0  0  0
    1.6780   -0.7420   -0.0900 C   0  0  2  0  0  0  0  0  0  0  0  0
    2.8390   -0.0600   -0.5260 O   0  0  0  0  0  0  0  0  0  0  0  0
    1.6410   -1.9220   -0.8460 O   0  0  0  0  0  0  0  0  0  0  0  0
  1  2  1  0
  3  2  1  6
  3  4  1  0
  3  7  1  0
  4  5  1  0
  5  6  1  0
  6  7  1  0
  7  8  1  0
  8  9  1  6
  8 10  1  0
M  END
