
     RDKit          3D

 44 46  0  0  0  0  0  0  0  0999 V2000
    5.1380   -2.1730   -2.7830 C   0  0  0  0  0  0  0  0  0  0  0  0
    5.0130   -1.7810   -1.3690 C   0  0  0  0  0  0  0  0  0  0  0  0
    4.4300   -0.6470   -1.0200 C   0  0  0  0  0  0  0  0  0  0  0  0
    4.3570   -0.3480    0.4130 C   0  0  0  0  0  0  0  0  0  0  0  0
    5.4950   -0.6210    1.0040 O   0  0  0  0  0  0  0  0  0  0  0  0
    3.3570    0.1420    1.2010 N   0  0  0  0  0  0  0  0  0  0  0  0
    2.1460    0.3260    1.3380 C   0  0  0  0  0  0  0  0  0  0  0  0
    1.6230    0.9760    2.5330 N   0  0  0  0  0  0  0  0  0  0  0  0
    2.3380    2.0350    3.1560 C   0  0  0  0  0  0  0  0  0  0  0  0
    3.6540    2.0400    3.2770 C   0  0  0  0  0  0  0  0  0  0  0  0
    4.1100    3.2850    3.9740 C   0  0  0  0  0  0  0  0  0  0  0  0
    2.8400    3.9860    4.2310 C   0  0  0  0  0  0  0  0  0  0  0  0
    1.8530    3.2540    3.7570 C   0  0  0  0  0  0  0  0  0  0  0  0
    1.1250   -0.0680    0.3260 C   0  0  1  0  0  0  0  0  0  0  0  0
    0.1860   -1.0560    0.8500 C   0  0  0  0  0  0  0  0  0  0  0  0
   -0.9820   -1.3890    0.1740 N   0  0  0  0  0  0  0  0  0  0  0  0
   -1.1910   -2.8060    0.0140 C   0  0  0  0  0  0  0  0  0  0  0  0
   -0.3740   -3.6470    0.4590 O   0  0  0  0  0  0  0  0  0  0  0  0
   -2.2980   -3.3170   -0.6370 O   0  0  0  0  0  0  0  0  0  0  0  0
   -2.5810   -4.6680   -0.8380 C   0  0  1  0  0  0  0  0  0  0  0  0
   -1.4870   -5.3820   -1.6450 C   0  0  0  0  0  0  0  0  0  0  0  0
   -2.8180   -5.4620    0.4080 C   0  0  0  0  0  0  0  0  0  0  0  0
   -3.8110   -4.7100   -1.7590 C   0  0  0  0  0  0  0  0  0  0  0  0
   -2.0420   -0.6320   -0.3970 C   0  0  0  0  0  0  0  0  0  0  0  0
   -3.1610   -1.2180   -0.4380 O   0  0  0  0  0  0  0  0  0  0  0  0
   -1.9400    0.7450   -0.9290 C   0  0  1  0  0  0  0  0  0  0  0  0
   -1.6180    0.5630   -2.4160 C   0  0  0  0  0  0  0  0  0  0  0  0
   -3.2220    1.5330   -0.9160 C   0  0  1  0  0  0  0  0  0  0  0  0
   -4.3500    0.9910   -1.6950 C   0  0  0  0  0  0  0  0  0  0  0  0
   -3.7210    1.9970    0.4130 C   0  0  0  0  0  0  0  0  0  0  0  0
   -4.0290    0.9740    1.4330 C   0  0  0  0  0  0  0  0  0  0  0  0
   -4.6290    1.9140    2.9550 P   0  0  0  0  0  0  0  0  0  0  0  0
   -3.5050    3.2070    3.2330 O   0  0  0  0  0  0  0  0  0  0  0  0
   -4.7520    0.8970    4.3190 O   0  0  0  0  0  0  0  0  0  0  0  0
   -0.8670    1.4210   -0.1550 C   0  0  0  0  0  0  0  0  0  0  0  0
    0.5380    1.1330   -0.3720 C   0  0  2  0  0  0  0  0  0  0  0  0
    1.0110    1.2350   -1.7420 N   0  0  0  0  0  0  0  0  0  0  0  0
    1.5560    2.4160   -2.2960 C   0  0  0  0  0  0  0  0  0  0  0  0
    1.2680    2.6950   -3.4860 O   0  0  0  0  0  0  0  0  0  0  0  0
    2.4480    3.3460   -1.5600 C   0  0  0  0  0  0  0  0  0  0  0  0
    3.7590    2.5740   -1.3280 C   0  0  0  0  0  0  0  0  0  0  0  0
    3.9080    1.5390   -2.2220 O   0  0  0  0  0  0  0  0  0  0  0  0
    3.9230    0.1900   -2.0840 C   0  0  0  0  0  0  0  0  0  0  0  0
    3.3900   -0.4360   -3.0850 O   0  0  0  0  0  0  0  0  0  0  0  0
  1  2  1  0
  2  3  2  3
  3  4  1  0
  3 43  1  0
  4  5  2  0
  4  6  1  0
  6  7  2  0
  7  8  1  0
  7 14  1  0
  8  9  1  0
  9 10  2  0
  9 13  1  0
 10 11  1  0
 11 12  1  0
 12 13  2  0
 14 15  1  1
 14 36  1  0
 15 16  1  0
 16 17  1  0
 16 24  1  0
 17 18  2  0
 17 19  1  0
 19 20  1  0
 20 21  1  6
 20 22  1  0
 20 23  1  0
 24 25  2  0
 24 26  1  0
 26 27  1  6
 26 28  1  0
 26 35  1  0
 28 29  1  1
 28 30  1  0
 30 31  1  0
 31 32  1  0
 32 33  1  0
 32 34  1  0
 36 35  1  6
 36 37  1  0
 37 38  1  0
 38 39  2  0
 38 40  1  0
 40 41  1  0
 41 42  1  0
 42 43  1  0
 43 44  2  0
M  END
