
     RDKit          3D

 43 45  0  0  0  0  0  0  0  0999 V2000
   -5.6220    1.3040    3.4840 C   0  0  0  0  0  0  0  0  0  0  0  0
   -6.2900    1.6340    2.1610 C   0  0  0  0  0  0  0  0  0  0  0  0
   -5.2690    1.7620    1.0580 C   0  0  0  0  0  0  0  0  0  0  0  0
   -4.5510    0.5670    0.8880 O   0  0  0  0  0  0  0  0  0  0  0  0
   -3.4230    0.8030   -0.3620 P   0  0  0  0  0  0  0  0  0  0  0  0
   -3.7770    2.1620   -1.3420 O   0  0  0  0  0  0  0  0  0  0  0  0
   -1.6450    0.6770    0.0940 C   0  0  2  0  0  0  0  0  0  0  0  0
   -1.5040    2.0350    0.8830 C   0  0  0  0  0  0  0  0  0  0  0  0
   -1.8160    3.1010    0.0950 O   0  0  0  0  0  0  0  0  0  0  0  0
   -0.7100    0.8370   -1.0530 C   0  0  1  0  0  0  0  0  0  0  0  0
    0.5780    1.5130   -0.7730 C   0  0  0  0  0  0  0  0  0  0  0  0
    1.4810    1.1170    0.2890 C   0  0  0  0  0  0  0  0  0  0  0  0
    1.2800   -0.0450    1.0620 N   0  0  0  0  0  0  0  0  0  0  0  0
    2.3740   -0.7180    1.6500 C   0  0  0  0  0  0  0  0  0  0  0  0
    2.0660   -1.8100    2.2860 O   0  0  0  0  0  0  0  0  0  0  0  0
    3.7430   -0.4280    1.6810 N   0  0  0  0  0  0  0  0  0  0  0  0
    4.6240    0.1560    0.7610 C   0  0  0  0  0  0  0  0  0  0  0  0
    5.2690    1.1850    1.2790 O   0  0  0  0  0  0  0  0  0  0  0  0
    4.9400   -0.1770   -0.6260 C   0  0  0  0  0  0  0  0  0  0  0  0
    5.0010    0.9260   -1.5780 C   0  0  0  0  0  0  0  0  0  0  0  0
    4.7950    2.1830   -1.3980 C   0  0  0  0  0  0  0  0  0  0  0  0
    4.4500    2.8680   -0.2600 O   0  0  0  0  0  0  0  0  0  0  0  0
    4.9480    4.1560    0.0020 C   0  0  0  0  0  0  0  0  0  0  0  0
    5.1780   -1.4210   -1.0950 C   0  0  0  0  0  0  0  0  0  0  0  0
    5.1670   -2.6700   -0.3550 C   0  0  0  0  0  0  0  0  0  0  0  0
    4.0890   -3.4410   -0.1230 C   0  0  0  0  0  0  0  0  0  0  0  0
    2.6880   -3.3190   -0.4950 C   0  0  0  0  0  0  0  0  0  0  0  0
    1.9700   -4.4750   -0.0680 C   0  0  0  0  0  0  0  0  0  0  0  0
    0.6360   -4.6550   -0.2610 C   0  0  0  0  0  0  0  0  0  0  0  0
   -0.0150   -3.6450   -0.9060 C   0  0  0  0  0  0  0  0  0  0  0  0
    0.6070   -2.4520   -1.3720 C   0  0  0  0  0  0  0  0  0  0  0  0
    1.9620   -2.3380   -1.1430 C   0  0  0  0  0  0  0  0  0  0  0  0
   -0.3740   -1.5470   -2.0210 C   0  0  0  0  0  0  0  0  0  0  0  0
   -1.2320   -2.2540   -2.7870 O   0  0  0  0  0  0  0  0  0  0  0  0
   -0.6690   -0.1830   -2.0710 N   0  0  0  0  0  0  0  0  0  0  0  0
   -0.9830    0.3270   -3.4390 C   0  0  0  0  0  0  0  0  0  0  0  0
   -2.4510    0.1670   -3.7630 C   0  0  0  0  0  0  0  0  0  0  0  0
    0.0340   -0.7160    1.3730 C   0  0  0  0  0  0  0  0  0  0  0  0
    0.1480   -1.8130    1.9150 O   0  0  0  0  0  0  0  0  0  0  0  0
   -1.2960   -0.2370    1.1170 N   0  0  0  0  0  0  0  0  0  0  0  0
   -2.3140   -0.7440    2.0160 C   0  0  0  0  0  0  0  0  0  0  0  0
   -2.9920   -1.9870    1.5750 C   0  0  0  0  0  0  0  0  0  0  0  0
   -2.1040   -3.0680    1.4330 O   0  0  0  0  0  0  0  0  0  0  0  0
  1  2  1  0
  2  3  1  0
  3  4  1  0
  4  5  1  0
  5  6  1  0
  5  7  1  0
  7  8  1  1
  7 10  1  0
  7 40  1  0
  8  9  1  0
 10 11  1  0
 10 35  1  1
 11 12  1  0
 12 13  1  0
 13 14  1  0
 13 38  1  0
 14 15  2  0
 14 16  1  0
 16 17  1  0
 17 18  2  0
 17 19  1  0
 19 20  1  0
 19 24  2  0
 20 21  2  3
 21 22  1  0
 22 23  1  0
 24 25  1  0
 25 26  2  0
 26 27  1  0
 27 28  2  0
 27 32  1  0
 28 29  1  0
 29 30  2  0
 30 31  1  0
 31 32  2  0
 31 33  1  0
 33 34  2  0
 33 35  1  0
 35 36  1  0
 36 37  1  0
 38 39  2  0
 38 40  1  0
 40 41  1  0
 41 42  1  0
 42 43  1  0
M  END
