
     RDKit          3D

 17 18  0  0  0  0  0  0  0  0999 V2000
   -2.4420   -1.5840    0.6110 N   0  0  0  0  0  0  0  0  0  0  0  0
   -2.1540   -0.1650    0.8060 C   0  0  1  0  0  0  0  0  0  0  0  0
   -0.6990   -0.0150    0.5080 C   0  0  0  0  0  0  0  0  0  0  0  0
   -0.1670    1.0030   -0.2380 C   0  0  0  0  0  0  0  0  0  0  0  0
    1.2000    1.0100   -0.4310 C   0  0  0  0  0  0  0  0  0  0  0  0
    2.0190    0.0300    0.1030 C   0  0  0  0  0  0  0  0  0  0  0  0
    3.4250    0.0140   -0.0810 N   0  0  0  0  0  0  0  0  0  0  0  0
    4.0400   -0.4380   -1.2050 C   0  0  0  0  0  0  0  0  0  0  0  0
    5.4060   -0.3150   -1.0570 C   0  0  0  0  0  0  0  0  0  0  0  0
    5.5960    0.2260    0.1890 C   0  0  0  0  0  0  0  0  0  0  0  0
    4.3860    0.4070    0.7400 N   0  0  0  0  0  0  0  0  0  0  0  0
    1.4690   -0.9900    0.8530 C   0  0  0  0  0  0  0  0  0  0  0  0
    0.1110   -1.0180    1.0590 C   0  0  0  0  0  0  0  0  0  0  0  0
   -3.3060    0.7260   -0.0880 P   0  0  0  0  0  0  0  0  0  0  0  0
   -3.3350    2.3900   -0.0400 O   0  0  0  0  0  0  0  0  0  0  0  0
   -4.3400   -0.0950   -1.1480 O   0  0  0  0  0  0  0  0  0  0  0  0
   -4.4790    0.6900    0.9200 O   0  0  0  0  0  0  0  0  0  0  0  0
  2  1  1  6
  2  3  1  0
  2 14  1  0
  3  4  2  0
  3 13  1  0
  4  5  1  0
  5  6  2  0
  6  7  1  0
  6 12  1  0
  7  8  1  0
  7 11  1  0
  8  9  2  0
  9 10  1  0
 10 11  2  0
 12 13  2  0
 14 15  1  0
 14 16  1  0
 14 17  1  0
M  CHG  1   1   1
M  END
