
     RDKit          3D

 20 21  0  0  0  0  0  0  0  0999 V2000
    2.9680    1.8000   -0.0090 C   0  0  0  0  0  0  0  0  0  0  0  0
    2.9970    0.9050   -1.2270 C   0  0  1  0  0  0  0  0  0  0  0  0
    4.3080    0.6250   -1.5240 O   0  0  0  0  0  0  0  0  0  0  0  0
    2.2690   -0.3830   -0.9560 C   0  0  0  0  0  0  0  0  0  0  0  0
    2.9030   -1.4600   -1.0310 O   0  0  0  0  0  0  0  0  0  0  0  0
    0.8990   -0.3120   -0.6300 N   0  0  0  0  0  0  0  0  0  0  0  0
    0.0780   -1.4180   -0.3550 C   0  0  0  0  0  0  0  0  0  0  0  0
    0.4940   -2.7400   -0.5450 C   0  0  0  0  0  0  0  0  0  0  0  0
   -0.3850   -3.7890   -0.3020 C   0  0  0  0  0  0  0  0  0  0  0  0
   -1.6500   -3.5310    0.1200 C   0  0  0  0  0  0  0  0  0  0  0  0
   -2.0570   -2.2280    0.3080 C   0  0  0  0  0  0  0  0  0  0  0  0
   -1.2140   -1.1590    0.0780 C   0  0  0  0  0  0  0  0  0  0  0  0
   -1.6330    0.2090    0.3170 C   0  0  0  0  0  0  0  0  0  0  0  0
   -2.7870    0.6690   -0.3300 C   0  0  0  0  0  0  0  0  0  0  0  0
   -3.2860    1.9200   -0.1560 C   0  0  0  0  0  0  0  0  0  0  0  0
   -2.6450    2.7950    0.6890 C   0  0  0  0  0  0  0  0  0  0  0  0
   -3.1450    4.0440    0.8610 F   0  0  0  0  0  0  0  0  0  0  0  0
   -1.5060    2.3780    1.3420 C   0  0  0  0  0  0  0  0  0  0  0  0
   -0.5950    3.5870    2.5290 Br  0  0  0  0  0  0  0  0  0  0  0  0
   -1.0180    1.1020    1.1500 C   0  0  0  0  0  0  0  0  0  0  0  0
  2  1  1  1
  2  3  1  0
  2  4  1  0
  4  5  2  0
  4  6  1  0
  6  7  1  0
  7  8  2  0
  7 12  1  0
  8  9  1  0
  9 10  2  0
 10 11  1  0
 11 12  2  0
 12 13  1  0
 13 14  2  0
 13 20  1  0
 14 15  1  0
 15 16  2  0
 16 17  1  0
 16 18  1  0
 18 19  1  0
 18 20  2  0
M  END
