
     RDKit          3D

 20 21  0  0  0  0  0  0  0  0999 V2000
   -6.2630   -0.3220    0.1400 C   0  0  0  0  0  0  0  0  0  0  0  0
   -4.8720   -0.0180    0.2910 O   0  0  0  0  0  0  0  0  0  0  0  0
   -3.8810   -0.8580   -0.1320 C   0  0  0  0  0  0  0  0  0  0  0  0
   -4.1460   -1.9460   -0.6770 O   0  0  0  0  0  0  0  0  0  0  0  0
   -2.4740   -0.4670    0.0630 C   0  0  0  0  0  0  0  0  0  0  0  0
   -2.1340    0.7250    0.6600 C   0  0  0  0  0  0  0  0  0  0  0  0
   -0.8270    1.0790    0.8360 C   0  0  0  0  0  0  0  0  0  0  0  0
    0.2110    0.2530    0.4210 C   0  0  0  0  0  0  0  0  0  0  0  0
    1.5810    0.7720    0.6710 C   0  0  2  0  0  0  0  0  0  0  0  0
    1.6090    2.1120    0.1990 N   0  0  0  0  0  0  0  0  0  0  0  0
    2.7580    2.3120   -0.6180 C   0  0  0  0  0  0  0  0  0  0  0  0
    3.0560    0.9150   -1.1050 C   0  0  0  0  0  0  0  0  0  0  0  0
    3.5800    0.6350   -2.2780 C   0  0  0  0  0  0  0  0  0  0  0  0
    3.8920    1.6200   -3.1410 F   0  0  0  0  0  0  0  0  0  0  0  0
    2.6410    0.0420   -0.0120 C   0  0  0  0  0  0  0  0  0  0  0  0
    3.1920   -1.1300    0.2200 C   0  0  0  0  0  0  0  0  0  0  0  0
    2.7980   -2.0340    1.3450 C   0  0  0  0  0  0  0  0  0  0  0  0
    4.2990   -2.3560    2.4960 Br  0  0  0  0  0  0  0  0  0  0  0  0
   -0.1140   -0.9200   -0.1670 C   0  0  0  0  0  0  0  0  0  0  0  0
   -1.4470   -1.2930   -0.3520 C   0  0  0  0  0  0  0  0  0  0  0  0
  1  2  1  0
  2  3  1  0
  3  4  2  0
  3  5  1  0
  5  6  2  0
  5 20  1  0
  6  7  1  0
  7  8  2  0
  9  8  1  6
  8 19  1  0
  9 10  1  0
  9 15  1  0
 10 11  1  0
 11 12  1  0
 12 13  2  3
 12 15  1  0
 13 14  1  0
 15 16  2  3
 16 17  1  0
 17 18  1  0
 19 20  2  0
M  END
