
     RDKit          3D

 20 21  0  0  0  0  0  0  0  0999 V2000
   -2.3170    1.7500    1.7970 C   0  0  0  0  0  0  0  0  0  0  0  0
   -2.6750    1.1590    0.7310 C   0  0  0  0  0  0  0  0  0  0  0  0
   -2.3300    0.3600   -0.3430 C   0  0  0  0  0  0  0  0  0  0  0  0
   -3.4490    0.1490   -1.2070 C   0  0  0  0  0  0  0  0  0  0  0  0
   -4.7160    0.7240   -0.9260 C   0  0  0  0  0  0  0  0  0  0  0  0
   -1.1870   -0.3180   -0.9290 C   0  0  0  0  0  0  0  0  0  0  0  0
    0.0500   -0.5150   -0.6440 C   0  0  0  0  0  0  0  0  0  0  0  0
    0.7330   -0.0440    0.5290 C   0  0  0  0  0  0  0  0  0  0  0  0
    0.1310    0.5180    1.4630 O   0  0  0  0  0  0  0  0  0  0  0  0
    2.1740   -0.1510    0.7800 C   0  0  0  0  0  0  0  0  0  0  0  0
    2.6540    0.1790    2.0650 C   0  0  0  0  0  0  0  0  0  0  0  0
    3.9920    0.1780    2.3720 C   0  0  0  0  0  0  0  0  0  0  0  0
    4.4380    0.5010    3.6230 F   0  0  0  0  0  0  0  0  0  0  0  0
    4.8940   -0.1560    1.3960 C   0  0  0  0  0  0  0  0  0  0  0  0
    4.4640   -0.4810    0.1390 C   0  0  0  0  0  0  0  0  0  0  0  0
    5.7540   -0.9330   -1.1620 Br  0  0  0  0  0  0  0  0  0  0  0  0
    3.0930   -0.4800   -0.1760 C   0  0  0  0  0  0  0  0  0  0  0  0
    0.6590   -1.3810   -1.7150 C   0  0  0  0  0  0  0  0  0  0  0  0
   -0.5490   -2.0340   -2.2450 N   0  0  0  0  0  0  0  0  0  0  0  0
   -1.4450   -0.9860   -2.2000 O   0  0  0  0  0  0  0  0  0  0  0  0
  1  2  2  0
  2  3  1  0
  3  4  2  3
  3  6  1  0
  4  5  1  0
  6  7  2  0
  6 20  1  0
  7  8  1  0
  7 18  1  0
  8  9  2  0
  8 10  1  0
 10 11  2  0
 10 17  1  0
 11 12  1  0
 12 13  1  0
 12 14  2  0
 14 15  1  0
 15 16  1  0
 15 17  2  0
 18 19  1  0
 19 20  1  0
M  END
