
     RDKit          3D

 20 20  0  0  0  0  0  0  0  0999 V2000
   -3.6210   -2.0890    0.3400 C   0  0  0  0  0  0  0  0  0  0  0  0
   -3.5610   -0.7680   -0.3660 C   0  0  0  0  0  0  0  0  0  0  0  0
   -2.7240    0.2500    0.3880 C   0  0  2  0  0  0  0  0  0  0  0  0
   -3.2450    0.5340    1.7560 C   0  0  0  0  0  0  0  0  0  0  0  0
   -2.6720    1.4850   -0.4780 C   0  0  0  0  0  0  0  0  0  0  0  0
   -4.0610    2.0360   -0.7430 C   0  0  0  0  0  0  0  0  0  0  0  0
   -1.3280   -0.3140    0.4610 C   0  0  0  0  0  0  0  0  0  0  0  0
   -0.8030   -0.5570    1.5930 O   0  0  0  0  0  0  0  0  0  0  0  0
   -0.5790   -0.5890   -0.6630 O   0  0  0  0  0  0  0  0  0  0  0  0
    0.6820   -1.0940   -0.6990 C   0  0  0  0  0  0  0  0  0  0  0  0
    1.7800   -0.2030   -0.2670 C   0  0  0  0  0  0  0  0  0  0  0  0
    1.7060    1.0330    0.1330 C   0  0  0  0  0  0  0  0  0  0  0  0
    0.4470    1.5990    0.1530 F   0  0  0  0  0  0  0  0  0  0  0  0
    2.8450    1.8360    0.5680 C   0  0  0  0  0  0  0  0  0  0  0  0
    4.1810    1.2420    0.4670 C   0  0  0  0  0  0  0  0  0  0  0  0
    4.2210   -0.1400    0.0200 C   0  0  0  0  0  0  0  0  0  0  0  0
    5.5200   -0.8860   -0.0810 C   0  0  0  0  0  0  0  0  0  0  0  0
    6.3160   -0.9310    1.6540 Br  0  0  0  0  0  0  0  0  0  0  0  0
    3.1500   -0.8000   -0.3130 C   0  0  0  0  0  0  0  0  0  0  0  0
    3.2210   -2.1750   -0.7560 N   0  0  0  0  0  0  0  0  0  0  0  0
  1  2  1  0
  2  3  1  0
  3  4  1  1
  3  5  1  0
  3  7  1  0
  5  6  1  0
  7  8  2  0
  7  9  1  0
  9 10  1  0
 10 11  1  0
 11 12  2  0
 11 19  1  0
 12 13  1  0
 12 14  1  0
 14 15  1  0
 15 16  1  0
 16 17  1  0
 16 19  2  0
 17 18  1  0
 19 20  1  0
M  END
