
     RDKit          3D

 20 21  0  0  0  0  0  0  0  0999 V2000
    1.6130   -3.6550    0.1770 C   0  0  0  0  0  0  0  0  0  0  0  0
    0.4720   -2.8880   -0.0170 O   0  0  0  0  0  0  0  0  0  0  0  0
    0.5330   -1.4480   -0.1850 C   0  0  0  0  0  0  0  0  0  0  0  0
    1.7060   -0.9310   -0.2090 C   0  0  0  0  0  0  0  0  0  0  0  0
    2.2060    0.3950   -0.3640 C   0  0  0  0  0  0  0  0  0  0  0  0
    1.4870    1.4610   -0.6310 F   0  0  0  0  0  0  0  0  0  0  0  0
    3.5500    0.6150   -0.3100 C   0  0  0  0  0  0  0  0  0  0  0  0
    4.3600   -0.5200   -0.1000 N   0  0  0  0  0  0  0  0  0  0  0  0
    4.1530    1.9370   -0.4580 C   0  0  0  0  0  0  0  0  0  0  0  0
    4.8960    2.3190    0.6750 O   0  0  0  0  0  0  0  0  0  0  0  0
   -0.7710   -0.8480   -0.2740 C   0  0  0  0  0  0  0  0  0  0  0  0
   -1.8400   -1.6660   -0.7300 C   0  0  0  0  0  0  0  0  0  0  0  0
   -3.1280   -1.2400   -0.7790 C   0  0  0  0  0  0  0  0  0  0  0  0
   -4.5270   -2.4060   -1.4090 Br  0  0  0  0  0  0  0  0  0  0  0  0
   -3.4130    0.0430   -0.3690 C   0  0  0  0  0  0  0  0  0  0  0  0
   -2.4360    0.8970    0.0860 C   0  0  0  0  0  0  0  0  0  0  0  0
   -1.1190    0.4160    0.1230 C   0  0  0  0  0  0  0  0  0  0  0  0
   -3.0130    2.2040    0.4530 C   0  0  0  0  0  0  0  0  0  0  0  0
   -4.2570    2.2080   -0.4520 C   0  0  0  0  0  0  0  0  0  0  0  0
   -4.7010    0.7690   -0.3080 C   0  0  0  0  0  0  0  0  0  0  0  0
  1  2  1  0
  2  3  1  0
  3  4  2  3
  3 11  1  0
  4  5  1  0
  5  6  1  0
  5  7  2  3
  7  8  1  0
  7  9  1  0
  9 10  1  0
 11 12  2  0
 11 17  1  0
 12 13  1  0
 13 14  1  0
 13 15  2  0
 15 16  1  0
 15 20  1  0
 16 17  2  0
 16 18  1  0
 18 19  1  0
 19 20  1  0
M  END
