
     RDKit          3D

 23 24  0  0  0  0  0  0  0  0999 V2000
   -5.2500   -2.0140    0.1530 C   0  0  0  0  0  0  0  0  0  0  0  0
   -3.8260   -1.6420   -0.1260 C   0  0  0  0  0  0  0  0  0  0  0  0
   -3.6280   -0.1650    0.0300 C   0  0  1  0  0  0  0  0  0  0  0  0
   -4.4500    0.6490   -0.8950 C   0  0  0  0  0  0  0  0  0  0  0  0
   -6.2580    0.4930   -0.7720 P   0  0  0  0  0  0  0  0  0  0  0  0
   -3.8470    0.1290    1.3760 O   0  0  0  0  0  0  0  0  0  0  0  0
   -3.7230    1.3580    1.7170 O   0  0  0  0  0  0  0  0  0  0  0  0
   -2.1670    0.1230   -0.2110 C   0  0  0  0  0  0  0  0  0  0  0  0
   -1.2180   -0.6730   -0.4840 N   0  0  0  0  0  0  0  0  0  0  0  0
    0.0390    0.0580   -0.6350 C   0  0  1  0  0  0  0  0  0  0  0  0
    0.4530    0.1020   -1.9480 O   0  0  0  0  0  0  0  0  0  0  0  0
    1.6820   -0.3390   -2.1110 O   0  0  0  0  0  0  0  0  0  0  0  0
    2.4160   -0.2190   -1.0330 O   0  0  0  0  0  0  0  0  0  0  0  0
    3.6840    0.3000   -1.3180 C   0  0  0  0  0  0  0  0  0  0  0  0
    4.4330    0.3910    0.0060 C   0  0  1  0  0  0  0  0  0  0  0  0
    3.6950    1.2950    0.9550 C   0  0  0  0  0  0  0  0  0  0  0  0
    4.5270   -1.0330    0.5680 C   0  0  0  0  0  0  0  0  0  0  0  0
    5.7140   -1.1180    1.2660 O   0  0  0  0  0  0  0  0  0  0  0  0
    6.7700   -1.0150    0.5080 O   0  0  0  0  0  0  0  0  0  0  0  0
    6.6300   -0.2190   -0.5060 O   0  0  0  0  0  0  0  0  0  0  0  0
    5.8430    0.8830   -0.1800 C   0  0  0  0  0  0  0  0  0  0  0  0
   -0.2910    1.3290   -0.1880 O   0  0  0  0  0  0  0  0  0  0  0  0
   -1.6350    1.3900   -0.1630 O   0  0  0  0  0  0  0  0  0  0  0  0
  1  2  1  0
  3  2  1  1
  3  4  1  0
  3  6  1  0
  3  8  1  0
  4  5  1  0
  6  7  1  0
  8  9  2  0
  8 23  1  0
  9 10  1  0
 10 11  1  6
 10 22  1  0
 11 12  1  0
 12 13  1  0
 13 14  1  0
 14 15  1  0
 15 16  1  1
 15 17  1  0
 15 21  1  0
 17 18  1  0
 18 19  1  0
 19 20  1  0
 20 21  1  0
 22 23  1  0
M  END
