
     RDKit          3D

 23 24  0  0  0  0  0  0  0  0999 V2000
   -4.3880    2.1860    0.8140 C   0  0  0  0  0  0  0  0  0  0  0  0
   -3.5160    1.3680   -0.0510 C   0  0  0  0  0  0  0  0  0  0  0  0
   -3.4900    0.0450   -0.0640 C   0  0  0  0  0  0  0  0  0  0  0  0
   -4.3630   -0.7060    0.8210 C   0  0  0  0  0  0  0  0  0  0  0  0
   -5.1520   -0.1050    1.6060 O   0  0  0  0  0  0  0  0  0  0  0  0
   -4.3030   -2.0960    0.7760 O   0  0  0  0  0  0  0  0  0  0  0  0
   -2.6110   -0.6700   -0.9370 N   0  0  0  0  0  0  0  0  0  0  0  0
   -3.0170   -1.0540   -2.2100 N   0  0  0  0  0  0  0  0  0  0  0  0
   -2.3420   -0.8310   -3.2320 O   0  0  0  0  0  0  0  0  0  0  0  0
   -0.9770   -1.0620   -0.3630 P   0  0  0  0  0  0  0  0  0  0  0  0
   -0.9550   -2.2440    0.8760 O   0  0  0  0  0  0  0  0  0  0  0  0
   -0.6810   -3.4240    0.3190 O   0  0  0  0  0  0  0  0  0  0  0  0
   -0.0270    0.3200   -0.0190 O   0  0  0  0  0  0  0  0  0  0  0  0
    1.3230    0.1340   -0.2310 C   0  0  2  0  0  0  0  0  0  0  0  0
    1.4830   -0.1960   -1.5870 O   0  0  0  0  0  0  0  0  0  0  0  0
    1.7620   -0.8710    0.6080 O   0  0  0  0  0  0  0  0  0  0  0  0
    3.0750   -1.2910    0.2860 C   0  0  0  0  0  0  0  0  0  0  0  0
    3.7940   -0.0370   -0.1510 C   0  0  2  0  0  0  0  0  0  0  0  0
    5.0850    0.0620    0.3020 O   0  0  0  0  0  0  0  0  0  0  0  0
    5.2990    1.4580    0.2160 C   0  0  0  0  0  0  0  0  0  0  0  0
    4.1010    2.0620    0.5760 O   0  0  0  0  0  0  0  0  0  0  0  0
    3.1370    1.0980    0.6530 C   0  0  1  0  0  0  0  0  0  0  0  0
    1.9450    1.3740    0.0470 O   0  0  0  0  0  0  0  0  0  0  0  0
  1  2  1  0
  2  3  2  3
  3  4  1  0
  3  7  1  0
  4  5  2  0
  4  6  1  0
  7  8  1  0
  7 10  1  0
  8  9  2  0
 10 11  1  0
 10 13  1  0
 11 12  1  0
 13 14  1  0
 14 15  1  6
 14 16  1  0
 14 23  1  0
 16 17  1  0
 18 17  1  1
 18 19  1  0
 18 22  1  0
 19 20  1  0
 20 21  1  0
 22 21  1  6
 22 23  1  0
M  END
