
     RDKit          3D

 15 15  0  0  0  0  0  0  0  0999 V2000
    4.3310   -0.7230   -0.6810 N   0  0  0  0  0  0  0  0  0  0  0  0
    3.5840    0.4710   -0.5300 C   0  0  0  0  0  0  0  0  0  0  0  0
    4.1750    1.5940   -0.7060 N   0  0  0  0  0  0  0  0  0  0  0  0
    2.1820    0.3880   -0.1850 C   0  0  0  0  0  0  0  0  0  0  0  0
    1.3760    1.5120   -0.0180 C   0  0  0  0  0  0  0  0  0  0  0  0
    0.0460    1.3440    0.3120 C   0  0  0  0  0  0  0  0  0  0  0  0
   -0.5190    0.1020    0.4840 C   0  0  0  0  0  0  0  0  0  0  0  0
   -1.9620   -0.0100    0.8410 C   0  0  2  0  0  0  0  0  0  0  0  0
   -1.9930   -1.0240    1.9130 N   0  0  0  0  0  0  0  0  0  0  0  0
   -3.1110   -0.2410   -0.4340 P   0  0  0  0  0  0  0  0  0  0  0  0
   -4.1670    0.9990   -0.8730 O   0  0  0  0  0  0  0  0  0  0  0  0
   -3.3790   -1.7490   -1.0630 O   0  0  0  0  0  0  0  0  0  0  0  0
   -2.2330    0.1470   -1.6120 O   0  0  0  0  0  0  0  0  0  0  0  0
    0.2810   -1.0040    0.3180 C   0  0  0  0  0  0  0  0  0  0  0  0
    1.5970   -0.8600   -0.0080 C   0  0  0  0  0  0  0  0  0  0  0  0
  1  2  1  0
  2  3  2  0
  2  4  1  0
  4  5  2  0
  4 15  1  0
  5  6  1  0
  6  7  2  0
  7  8  1  0
  7 14  1  0
  8  9  1  1
  8 10  1  0
 10 11  1  0
 10 12  1  0
 10 13  1  0
 14 15  2  0
M  CHG  2   3   1   9   1
M  END
