
     RDKit          3D

 23 23  0  0  0  0  0  0  0  0999 V2000
   -6.2170    0.0140    0.1800 C   0  0  0  0  0  0  0  0  0  0  0  0
   -5.0180    0.7950    0.6050 C   0  0  0  0  0  0  0  0  0  0  0  0
   -3.9120    0.8030   -0.4150 C   0  0  0  0  0  0  0  0  0  0  0  0
   -3.4070   -0.5830   -0.7250 C   0  0  0  0  0  0  0  0  0  0  0  0
   -2.3990   -0.5960   -1.6520 O   0  0  0  0  0  0  0  0  0  0  0  0
   -1.2640    0.0930   -1.3500 C   0  0  0  0  0  0  0  0  0  0  0  0
   -0.5260   -0.3420   -0.1610 C   0  0  0  0  0  0  0  0  0  0  0  0
   -0.8210   -1.2940    0.5970 O   0  0  0  0  0  0  0  0  0  0  0  0
    0.6360    0.4010    0.1470 O   0  0  0  0  0  0  0  0  0  0  0  0
    1.3770    0.0740    1.2200 O   0  0  0  0  0  0  0  0  0  0  0  0
    1.7500   -1.1740    1.0640 O   0  0  0  0  0  0  0  0  0  0  0  0
    3.1580   -1.1590    0.9220 C   0  0  2  0  0  0  0  0  0  0  0  0
    3.5050   -2.5210    0.7570 O   0  0  0  0  0  0  0  0  0  0  0  0
    2.9250   -3.0200   -0.2950 O   0  0  0  0  0  0  0  0  0  0  0  0
    3.6720   -0.6430    2.1090 O   0  0  0  0  0  0  0  0  0  0  0  0
    4.9450   -0.0900    2.1020 C   0  0  0  0  0  0  0  0  0  0  0  0
    5.6780   -0.1150    3.1240 O   0  0  0  0  0  0  0  0  0  0  0  0
    5.3590    0.5000    0.8740 N   0  0  0  0  0  0  0  0  0  0  0  0
    4.4020    0.4370   -0.1750 N   0  0  0  0  0  0  0  0  0  0  0  0
    4.5000    1.3980   -1.2170 C   0  0  0  0  0  0  0  0  0  0  0  0
    3.6720    1.3720   -2.1590 O   0  0  0  0  0  0  0  0  0  0  0  0
    5.4780    2.3800   -1.2500 O   0  0  0  0  0  0  0  0  0  0  0  0
    3.4370   -0.4690   -0.2180 O   0  0  0  0  0  0  0  0  0  0  0  0
  1  2  1  0
  2  3  1  0
  3  4  1  0
  4  5  1  0
  5  6  1  0
  6  7  1  0
  7  8  2  0
  7  9  1  0
  9 10  1  0
 10 11  1  0
 12 11  1  1
 12 13  1  0
 12 15  1  0
 12 23  1  0
 13 14  1  0
 15 16  1  0
 16 17  2  0
 16 18  1  0
 18 19  1  0
 19 20  1  0
 19 23  1  0
 20 21  2  0
 20 22  1  0
M  END
