
     RDKit          3D

 23 24  0  0  0  0  0  0  0  0999 V2000
   -4.0130    2.9270    0.7870 C   0  0  0  0  0  0  0  0  0  0  0  0
   -3.2250    2.7710   -0.4880 C   0  0  0  0  0  0  0  0  0  0  0  0
   -2.2860    1.7430   -0.3310 O   0  0  0  0  0  0  0  0  0  0  0  0
   -1.6340    1.6520   -1.4620 O   0  0  0  0  0  0  0  0  0  0  0  0
   -0.9420    0.1100   -1.7330 P   0  0  0  0  0  0  0  0  0  0  0  0
    0.2620   -0.3510   -0.4830 N   0  0  0  0  0  0  0  0  0  0  0  0
    0.0430    0.3190    0.7560 C   0  0  0  0  0  0  0  0  0  0  0  0
    1.0730   -0.0430    1.7860 C   0  0  0  0  0  0  0  0  0  0  0  0
    2.3120    0.2810    1.4180 O   0  0  0  0  0  0  0  0  0  0  0  0
    2.9750   -0.2420    0.3830 C   0  0  1  0  0  0  0  0  0  0  0  0
    3.4550    0.7350   -0.6890 C   0  0  1  0  0  0  0  0  0  0  0  0
    2.8380    1.9600   -0.6860 O   0  0  0  0  0  0  0  0  0  0  0  0
    5.1700    0.7320    0.0260 P   0  0  0  0  0  0  0  0  0  0  0  0
    6.4260    0.4560   -1.1360 O   0  0  0  0  0  0  0  0  0  0  0  0
    4.3590   -0.8140    0.6630 C   0  0  1  0  0  0  0  0  0  0  0  0
    4.6540   -1.0480    1.9790 O   0  0  0  0  0  0  0  0  0  0  0  0
   -2.0700   -1.1260   -2.0790 O   0  0  0  0  0  0  0  0  0  0  0  0
   -2.8220   -1.5450   -1.0120 C   0  0  1  0  0  0  0  0  0  0  0  0
   -3.5940   -0.5400   -0.4340 O   0  0  0  0  0  0  0  0  0  0  0  0
   -3.6790   -2.5600   -1.4960 O   0  0  0  0  0  0  0  0  0  0  0  0
   -2.7360   -3.5970   -1.6690 C   0  0  0  0  0  0  0  0  0  0  0  0
   -1.9290   -3.4770   -0.5580 O   0  0  0  0  0  0  0  0  0  0  0  0
   -2.0640   -2.2480   -0.1030 O   0  0  0  0  0  0  0  0  0  0  0  0
  1  2  1  0
  2  3  1  0
  3  4  1  0
  4  5  1  0
  5  6  1  0
  5 17  1  0
  6  7  1  0
  7  8  1  0
  8  9  1  0
 10  9  1  1
 10 11  1  0
 10 15  1  0
 11 12  1  1
 11 13  1  0
 13 14  1  0
 13 15  1  0
 15 16  1  1
 17 18  1  0
 18 19  1  1
 18 20  1  0
 18 23  1  0
 20 21  1  0
 21 22  1  0
 22 23  1  0
M  END
