
     RDKit          3D

 12 13  0  0  0  0  0  0  0  0999 V2000
   -3.7220    0.1070    0.0930 O   0  0  0  0  0  0  0  0  0  0  0  0
   -2.6580   -0.3550   -0.3510 N   0  0  0  0  0  0  0  0  0  0  0  0
   -2.6820   -1.5110   -1.0700 O   0  0  0  0  0  0  0  0  0  0  0  0
   -1.4270    0.3030   -0.1220 C   0  0  0  0  0  0  0  0  0  0  0  0
   -1.1740    1.6380    0.0860 C   0  0  0  0  0  0  0  0  0  0  0  0
    0.1310    1.8060    0.2610 N   0  0  0  0  0  0  0  0  0  0  0  0
    0.7810    0.6210    0.1770 C   0  0  0  0  0  0  0  0  0  0  0  0
    2.1030    0.2200    0.2770 C   0  0  0  0  0  0  0  0  0  0  0  0
    2.4910   -1.0930    0.1450 C   0  0  0  0  0  0  0  0  0  0  0  0
    1.5340   -2.0110   -0.0900 N   0  0  0  0  0  0  0  0  0  0  0  0
    0.2240   -1.6470   -0.1930 C   0  0  0  0  0  0  0  0  0  0  0  0
   -0.1880   -0.3340   -0.0640 C   0  0  0  0  0  0  0  0  0  0  0  0
  1  2  2  0
  2  3  1  0
  2  4  1  0
  4  5  2  0
  4 12  1  0
  5  6  1  0
  6  7  1  0
  7  8  2  0
  7 12  1  0
  8  9  1  0
  9 10  2  0
 10 11  1  0
 11 12  2  0
M  CHG  2   2   1   3  -1
M  END
