
     RDKit          3D

 12 13  0  0  0  0  0  0  0  0999 V2000
    3.2700   -1.4640    0.2260 O   0  0  0  0  0  0  0  0  0  0  0  0
    2.8440   -0.2960    0.1570 N   0  0  0  0  0  0  0  0  0  0  0  0
    3.7680    0.7140    0.1630 O   0  0  0  0  0  0  0  0  0  0  0  0
    1.4630    0.0140    0.0740 C   0  0  0  0  0  0  0  0  0  0  0  0
    1.0480    1.3260   -0.0000 C   0  0  0  0  0  0  0  0  0  0  0  0
   -0.3090    1.5470   -0.0780 C   0  0  0  0  0  0  0  0  0  0  0  0
   -1.2510    0.5390   -0.0850 C   0  0  0  0  0  0  0  0  0  0  0  0
   -2.6230    0.4510   -0.1520 C   0  0  0  0  0  0  0  0  0  0  0  0
   -2.9440   -0.8330   -0.1160 N   0  0  0  0  0  0  0  0  0  0  0  0
   -1.8810   -1.5890   -0.0320 N   0  0  0  0  0  0  0  0  0  0  0  0
   -0.8180   -0.7700   -0.0110 C   0  0  0  0  0  0  0  0  0  0  0  0
    0.5380   -1.0080    0.0680 C   0  0  0  0  0  0  0  0  0  0  0  0
  1  2  2  0
  2  3  1  0
  2  4  1  0
  4  5  2  0
  4 12  1  0
  5  6  1  0
  6  7  2  0
  7  8  1  0
  7 11  1  0
  8  9  2  0
  9 10  1  0
 10 11  1  0
 11 12  2  0
M  CHG  2   2   1   3  -1
M  END
