
     RDKit          3D

 11 12  0  0  0  0  0  0  0  0999 V2000
   -2.5430   -0.5770   -0.0400 C   0  0  0  0  0  0  0  0  0  0  0  0
   -1.3000    0.2150    0.0520 C   0  0  0  0  0  0  0  0  0  0  0  0
   -1.1660    1.5520    0.2400 N   0  0  0  0  0  0  0  0  0  0  0  0
    0.1470    1.8570    0.2610 C   0  0  0  0  0  0  0  0  0  0  0  0
    0.9060    0.7120    0.0860 C   0  0  0  0  0  0  0  0  0  0  0  0
    2.2300    0.3870    0.0180 C   0  0  0  0  0  0  0  0  0  0  0  0
    2.7000   -0.8580   -0.1670 N   0  0  0  0  0  0  0  0  0  0  0  0
    4.0690   -1.1170   -0.2260 O   0  0  0  0  0  0  0  0  0  0  0  0
    1.8070   -1.8270   -0.2890 N   0  0  0  0  0  0  0  0  0  0  0  0
    0.4830   -1.5770   -0.2320 C   0  0  0  0  0  0  0  0  0  0  0  0
   -0.0250   -0.3070   -0.0430 C   0  0  0  0  0  0  0  0  0  0  0  0
  1  2  1  0
  2  3  1  0
  2 11  2  0
  3  4  1  0
  4  5  2  0
  5  6  1  0
  5 11  1  0
  6  7  2  0
  7  8  1  0
  7  9  1  0
  9 10  2  0
 10 11  1  0
M  CHG  2   7   1   8  -1
M  END
