
     RDKit          3D

 12 12  0  0  0  0  0  0  0  0999 V2000
   -3.2330    0.1190   -0.3020 C   0  0  0  0  0  0  0  0  0  0  0  0
   -1.9080    0.1200   -0.2700 C   0  0  0  0  0  0  0  0  0  0  0  0
   -1.2370   -1.1570    0.0020 C   0  0  0  0  0  0  0  0  0  0  0  0
   -0.0710   -1.0430    0.9480 C   0  0  0  0  0  0  0  0  0  0  0  0
    1.0650   -0.2910    0.3960 C   0  0  0  0  0  0  0  0  0  0  0  0
    2.3560   -0.8780    0.5220 N   0  0  0  0  0  0  0  0  0  0  0  0
    1.0800    0.8950   -0.2250 C   0  0  0  0  0  0  0  0  0  0  0  0
    2.3350    1.3750   -0.6520 N   0  0  0  0  0  0  0  0  0  0  0  0
    3.2340    1.5770    0.1740 O   0  0  0  0  0  0  0  0  0  0  0  0
    2.5860    1.6260   -1.9720 O   0  0  0  0  0  0  0  0  0  0  0  0
   -0.1010    1.7220   -0.4920 C   0  0  0  0  0  0  0  0  0  0  0  0
   -1.3560    1.4190   -0.5160 N   0  0  0  0  0  0  0  0  0  0  0  0
  1  2  2  0
  2  3  1  0
  2 12  1  0
  3  4  1  0
  4  5  1  0
  5  6  1  0
  5  7  2  0
  7  8  1  0
  7 11  1  0
  8  9  2  0
  8 10  1  0
 11 12  2  0
M  CHG  2   8   1  10  -1
M  END
