
     RDKit          3D

 12 13  0  0  0  0  0  0  0  0999 V2000
   -3.9550    0.1980   -1.5690 O   0  0  0  0  0  0  0  0  0  0  0  0
   -2.9780   -0.3900   -1.0760 N   0  0  0  0  0  0  0  0  0  0  0  0
   -2.8680   -1.7320   -1.2280 O   0  0  0  0  0  0  0  0  0  0  0  0
   -2.0080    0.3780   -0.3660 C   0  0  0  0  0  0  0  0  0  0  0  0
   -2.1680    1.5340    0.2900 N   0  0  0  0  0  0  0  0  0  0  0  0
   -1.0360    1.9340    0.8210 N   0  0  0  0  0  0  0  0  0  0  0  0
   -0.0550    1.0360    0.5310 C   0  0  0  0  0  0  0  0  0  0  0  0
   -0.6540    0.0520   -0.2150 C   0  0  0  0  0  0  0  0  0  0  0  0
    0.0780   -1.1390   -0.7440 C   0  0  0  0  0  0  0  0  0  0  0  0
    1.3160   -1.3620    0.0640 C   0  0  0  0  0  0  0  0  0  0  0  0
    2.1230   -0.1290    0.2850 C   0  0  0  0  0  0  0  0  0  0  0  0
    1.3980    1.0110    0.8880 C   0  0  0  0  0  0  0  0  0  0  0  0
  1  2  2  0
  2  3  1  0
  2  4  1  0
  4  5  2  0
  4  8  1  0
  5  6  1  0
  6  7  1  0
  7  8  2  0
  7 12  1  0
  8  9  1  0
  9 10  1  0
 10 11  1  0
 11 12  1  0
M  CHG  2   2   1   3  -1
M  END
