
     RDKit          3D

 12 13  0  0  0  0  0  0  0  0999 V2000
   -3.1600   -1.7750   -1.2860 O   0  0  0  0  0  0  0  0  0  0  0  0
   -2.3520   -1.7230   -0.3400 N   0  0  0  0  0  0  0  0  0  0  0  0
   -2.5250   -2.5540    0.7130 O   0  0  0  0  0  0  0  0  0  0  0  0
   -1.2680   -0.8020   -0.3790 C   0  0  0  0  0  0  0  0  0  0  0  0
   -1.0920    0.0480   -1.4580 C   0  0  0  0  0  0  0  0  0  0  0  0
   -0.0250    0.9280   -1.4530 C   0  0  0  0  0  0  0  0  0  0  0  0
    0.8790    0.9960   -0.4120 C   0  0  0  0  0  0  0  0  0  0  0  0
    1.9830    1.7430   -0.1570 N   0  0  0  0  0  0  0  0  0  0  0  0
    2.4980    1.3890    1.0380 C   0  0  0  0  0  0  0  0  0  0  0  0
    1.7080    0.4140    1.5300 N   0  0  0  0  0  0  0  0  0  0  0  0
    0.7050    0.1470    0.6690 C   0  0  0  0  0  0  0  0  0  0  0  0
   -0.3620   -0.7270    0.6560 C   0  0  0  0  0  0  0  0  0  0  0  0
  1  2  2  0
  2  3  1  0
  2  4  1  0
  4  5  2  0
  4 12  1  0
  5  6  1  0
  6  7  2  0
  7  8  1  0
  7 11  1  0
  8  9  2  0
  9 10  1  0
 10 11  1  0
 11 12  2  0
M  CHG  2   2   1   3  -1
M  END
