
     RDKit          3D

 16 15  0  0  0  0  0  0  0  0999 V2000
    4.2410    0.4780    0.5500 C   0  0  0  0  0  0  0  0  0  0  0  0
    2.8610    0.5540    0.3570 O   0  0  0  0  0  0  0  0  0  0  0  0
    2.0030   -0.4900    0.2080 C   0  0  0  0  0  0  0  0  0  0  0  0
    2.5080   -1.7400    0.1670 C   0  0  0  0  0  0  0  0  0  0  0  0
    3.8730   -1.9700    0.2730 O   0  0  0  0  0  0  0  0  0  0  0  0
    0.5820   -0.3130    0.0920 C   0  0  0  0  0  0  0  0  0  0  0  0
   -0.0950    0.7980    0.1130 C   0  0  0  0  0  0  0  0  0  0  0  0
   -1.5650    0.7570   -0.0270 C   0  0  0  0  0  0  0  0  0  0  0  0
   -2.1590    1.8640    0.0110 O   0  0  0  0  0  0  0  0  0  0  0  0
   -2.3600   -0.4550   -0.2050 C   0  0  1  0  0  0  0  0  0  0  0  0
   -1.9930   -1.1580   -1.4980 C   0  0  0  0  0  0  0  0  0  0  0  0
   -2.3060   -1.4080    0.9440 C   0  0  0  0  0  0  0  0  0  0  0  0
   -3.8280   -0.0130   -0.3410 C   0  0  0  0  0  0  0  0  0  0  0  0
    0.4980    2.1370    0.2670 C   0  0  1  0  0  0  0  0  0  0  0  0
    0.4560    2.8870   -0.8980 O   0  0  0  0  0  0  0  0  0  0  0  0
   -0.4000    2.8420    1.1450 O   0  0  0  0  0  0  0  0  0  0  0  0
  1  2  1  0
  2  3  1  0
  3  4  2  3
  3  6  1  0
  4  5  1  0
  6  7  2  3
  7  8  1  0
  7 14  1  0
  8  9  2  0
  8 10  1  0
 10 11  1  6
 10 12  1  0
 10 13  1  0
 14 15  1  6
 14 16  1  0
M  END
