
     RDKit          3D

 17 16  0  0  0  0  0  0  0  0999 V2000
   -2.6620    2.6050   -0.4740 C   0  0  0  0  0  0  0  0  0  0  0  0
   -1.6150    1.6020   -0.4650 C   0  0  0  0  0  0  0  0  0  0  0  0
   -1.5000    0.4320    0.1150 C   0  0  0  0  0  0  0  0  0  0  0  0
   -0.2300   -0.2970   -0.1410 C   0  0  0  0  0  0  0  0  0  0  0  0
    0.0630   -1.3810    0.3000 O   0  0  0  0  0  0  0  0  0  0  0  0
    0.7060    0.3340   -0.9700 O   0  0  0  0  0  0  0  0  0  0  0  0
    1.9200   -0.3070   -1.2460 C   0  0  0  0  0  0  0  0  0  0  0  0
    2.0060   -1.1020   -2.2870 C   0  0  0  0  0  0  0  0  0  0  0  0
    3.2160   -1.7240   -2.5390 O   0  0  0  0  0  0  0  0  0  0  0  0
    3.0290   -0.0450   -0.3420 C   0  0  0  0  0  0  0  0  0  0  0  0
    2.8980    0.7240    0.6410 O   0  0  0  0  0  0  0  0  0  0  0  0
    4.2850   -0.6220   -0.5110 O   0  0  0  0  0  0  0  0  0  0  0  0
    5.3720   -0.3820    0.3520 C   0  0  0  0  0  0  0  0  0  0  0  0
   -2.4770   -0.1680    0.9570 C   0  0  0  0  0  0  0  0  0  0  0  0
   -3.7680    0.5250    1.2650 C   0  0  0  0  0  0  0  0  0  0  0  0
   -2.3270   -1.3490    1.5220 C   0  0  0  0  0  0  0  0  0  0  0  0
   -3.3850   -1.8440    2.3490 O   0  0  0  0  0  0  0  0  0  0  0  0
  1  2  1  0
  2  3  2  3
  3  4  1  0
  3 14  1  0
  4  5  2  0
  4  6  1  0
  6  7  1  0
  7  8  2  3
  7 10  1  0
  8  9  1  0
 10 11  2  0
 10 12  1  0
 12 13  1  0
 14 15  1  0
 14 16  2  3
 16 17  1  0
M  END
