
     RDKit          3D

 17 17  0  0  0  0  0  0  0  0999 V2000
    4.2820    0.0740   -0.9530 O   0  0  0  0  0  0  0  0  0  0  0  0
    4.5410    0.1610    0.2820 C   0  0  0  0  0  0  0  0  0  0  0  0
    5.9570    0.0870    0.7680 C   0  0  0  0  0  0  0  0  0  0  0  0
    5.9570    0.2080    2.1520 O   0  0  0  0  0  0  0  0  0  0  0  0
    3.5360    0.3230    1.1950 O   0  0  0  0  0  0  0  0  0  0  0  0
    2.1900    0.3990    0.8340 C   0  0  0  0  0  0  0  0  0  0  0  0
    1.6540   -0.8320    0.1500 C   0  0  0  0  0  0  0  0  0  0  0  0
    0.3390   -0.7400   -0.1990 O   0  0  0  0  0  0  0  0  0  0  0  0
   -0.5670   -0.5520    0.8260 C   0  0  0  0  0  0  0  0  0  0  0  0
   -1.9380   -0.5070    0.1800 C   0  0  2  0  0  0  0  0  0  0  0  0
   -2.1630   -1.6990   -0.4730 O   0  0  0  0  0  0  0  0  0  0  0  0
   -1.9870    0.6450   -0.8010 C   0  0  0  0  0  0  0  0  0  0  0  0
   -3.3330    0.5160   -1.5280 C   0  0  0  0  0  0  0  0  0  0  0  0
   -4.3920    0.8770   -0.5240 C   0  0  0  0  0  0  0  0  0  0  0  0
   -4.1140    0.3440    0.8220 C   0  0  0  0  0  0  0  0  0  0  0  0
   -3.0110   -0.2880    1.1730 C   0  0  0  0  0  0  0  0  0  0  0  0
   -2.9010   -0.7340    2.4970 O   0  0  0  0  0  0  0  0  0  0  0  0
  1  2  2  0
  2  3  1  0
  2  5  1  0
  3  4  1  0
  5  6  1  0
  6  7  1  0
  7  8  1  0
  8  9  1  0
  9 10  1  0
 10 11  1  6
 10 12  1  0
 10 16  1  0
 12 13  1  0
 13 14  1  0
 14 15  1  0
 15 16  2  0
 16 17  1  0
M  END
