
     RDKit          3D

 17 17  0  0  0  0  0  0  0  0999 V2000
   -3.1200    1.1160   -1.8100 C   0  0  0  0  0  0  0  0  0  0  0  0
   -3.6210    0.2240   -0.9590 C   0  0  0  0  0  0  0  0  0  0  0  0
   -4.8960   -0.2620   -1.1940 O   0  0  0  0  0  0  0  0  0  0  0  0
   -5.4160   -1.1950   -0.3000 C   0  0  0  0  0  0  0  0  0  0  0  0
   -4.7550   -1.6370    0.7550 C   0  0  0  0  0  0  0  0  0  0  0  0
   -3.4100   -1.1440    1.0280 C   0  0  0  0  0  0  0  0  0  0  0  0
   -2.8710   -0.2430    0.1930 C   0  0  0  0  0  0  0  0  0  0  0  0
   -1.6000    0.2620    0.3980 O   0  0  0  0  0  0  0  0  0  0  0  0
   -0.4400   -0.3700   -0.1340 C   0  0  0  0  0  0  0  0  0  0  0  0
    0.7690    0.4220    0.2650 C   0  0  2  0  0  0  0  0  0  0  0  0
    0.6940    1.7110   -0.2200 O   0  0  0  0  0  0  0  0  0  0  0  0
    2.0410   -0.2330   -0.1830 C   0  0  0  0  0  0  0  0  0  0  0  0
    3.1300    0.5210    0.3100 O   0  0  0  0  0  0  0  0  0  0  0  0
    4.4470    0.1940    0.0800 C   0  0  0  0  0  0  0  0  0  0  0  0
    4.7080   -0.8330   -0.6060 O   0  0  0  0  0  0  0  0  0  0  0  0
    5.5030    1.0660    0.6510 C   0  0  0  0  0  0  0  0  0  0  0  0
    6.7580    0.5380    0.2880 O   0  0  0  0  0  0  0  0  0  0  0  0
  1  2  2  0
  2  3  1  0
  2  7  1  0
  3  4  1  0
  4  5  2  0
  5  6  1  0
  6  7  2  0
  7  8  1  0
  8  9  1  0
  9 10  1  0
 10 11  1  6
 10 12  1  0
 12 13  1  0
 13 14  1  0
 14 15  2  0
 14 16  1  0
 16 17  1  0
M  END
