
     RDKit          3D

 17 17  0  0  0  0  0  0  0  0999 V2000
    5.7290    0.8320    0.9910 C   0  0  0  0  0  0  0  0  0  0  0  0
    4.8420    0.6660   -0.0940 O   0  0  0  0  0  0  0  0  0  0  0  0
    3.4520    0.5000    0.1100 C   0  0  0  0  0  0  0  0  0  0  0  0
    3.0970    0.5140    1.2900 O   0  0  0  0  0  0  0  0  0  0  0  0
    2.5610    0.3320   -1.0090 C   0  0  0  0  0  0  0  0  0  0  0  0
    3.1110    0.3370   -2.3210 O   0  0  0  0  0  0  0  0  0  0  0  0
    1.2880    0.1770   -0.8920 C   0  0  0  0  0  0  0  0  0  0  0  0
    0.5620    0.0250   -2.1010 O   0  0  0  0  0  0  0  0  0  0  0  0
    0.5200    0.1400    0.3200 C   0  0  0  0  0  0  0  0  0  0  0  0
   -0.8170   -0.0320    0.2700 C   0  0  0  0  0  0  0  0  0  0  0  0
   -1.6130   -0.1880   -0.8550 O   0  0  0  0  0  0  0  0  0  0  0  0
   -2.9500   -0.3410   -0.5230 C   0  0  0  0  0  0  0  0  0  0  0  0
   -4.0920   -0.5330   -1.4880 C   0  0  0  0  0  0  0  0  0  0  0  0
   -3.0500   -0.2880    0.7950 C   0  0  0  0  0  0  0  0  0  0  0  0
   -4.3630   -0.4190    1.5060 C   0  0  0  0  0  0  0  0  0  0  0  0
   -1.7390   -0.0930    1.3950 C   0  0  0  0  0  0  0  0  0  0  0  0
   -1.4720    0.0020    2.6150 O   0  0  0  0  0  0  0  0  0  0  0  0
  1  2  1  0
  2  3  1  0
  3  4  2  0
  3  5  1  0
  5  6  1  0
  5  7  2  3
  7  8  1  0
  7  9  1  0
  9 10  2  3
 10 11  1  0
 10 16  1  0
 11 12  1  0
 12 13  1  0
 12 14  2  0
 14 15  1  0
 14 16  1  0
 16 17  2  0
M  END
