
     RDKit          3D

 36 40  0  0  0  0  0  0  0  0999 V2000
    3.4540   -0.7150   -1.8960 O   0  0  0  0  0  0  0  0  0  0  0  0
    3.2030   -1.2040   -0.7800 C   0  0  0  0  0  0  0  0  0  0  0  0
    2.5330   -0.4360    0.1650 O   0  0  0  0  0  0  0  0  0  0  0  0
    2.0970    0.8590   -0.0150 C   0  0  0  0  0  0  0  0  0  0  0  0
    3.0920    1.8320   -0.1880 C   0  0  0  0  0  0  0  0  0  0  0  0
    2.8410    3.1640   -0.3760 C   0  0  0  0  0  0  0  0  0  0  0  0
    3.9250    4.1340   -0.5550 C   0  0  0  0  0  0  0  0  0  0  0  0
    5.1870    3.8720   -0.5620 N   0  0  0  0  0  0  0  0  0  0  0  0
    5.9170    5.0350   -0.7560 N   0  0  0  0  0  0  0  0  0  0  0  0
    5.1680    6.0390   -0.8730 N   0  0  0  0  0  0  0  0  0  0  0  0
    3.8020    5.5920   -0.7590 C   0  0  0  0  0  0  0  0  0  0  0  0
    1.5180    3.5600   -0.3920 C   0  0  0  0  0  0  0  0  0  0  0  0
    0.5280    2.6370   -0.2260 C   0  0  0  0  0  0  0  0  0  0  0  0
    0.7900    1.2630   -0.0330 C   0  0  0  0  0  0  0  0  0  0  0  0
   -0.2440    0.4050    0.1280 O   0  0  0  0  0  0  0  0  0  0  0  0
   -0.3890   -0.9500    0.2630 C   0  0  1  0  0  0  0  0  0  0  0  0
   -0.5680   -1.2660    1.7310 C   0  0  0  0  0  0  0  0  0  0  0  0
   -1.9660   -1.2440    2.2280 C   0  0  0  0  0  0  0  0  0  0  0  0
   -2.8080   -0.3770    1.3530 C   0  0  0  0  0  0  0  0  0  0  0  0
   -2.9020   -1.0530    0.0030 C   0  0  1  0  0  0  0  0  0  0  0  0
   -3.7870   -2.2700    0.1000 C   0  0  0  0  0  0  0  0  0  0  0  0
   -4.0020   -2.8480   -1.1420 O   0  0  0  0  0  0  0  0  0  0  0  0
   -3.5780   -0.0900   -0.8660 N   0  0  0  0  0  0  0  0  0  0  0  0
   -4.8670    0.3640   -0.4720 C   0  0  0  0  0  0  0  0  0  0  0  0
   -5.9880   -0.2780   -0.7220 C   0  0  0  0  0  0  0  0  0  0  0  0
   -7.1020    0.5090   -0.1550 C   0  0  0  0  0  0  0  0  0  0  0  0
   -6.5060    1.5530    0.3960 C   0  0  0  0  0  0  0  0  0  0  0  0
   -5.2190    1.5720    0.2510 C   0  0  0  0  0  0  0  0  0  0  0  0
   -1.5720   -1.3600   -0.5880 C   0  0  0  0  0  0  0  0  0  0  0  0
    3.5540   -2.5530   -0.3440 C   0  0  0  0  0  0  0  0  0  0  0  0
    4.3370   -2.7480    0.7670 C   0  0  0  0  0  0  0  0  0  0  0  0
    4.6300   -4.0000    1.1530 N   0  0  0  0  0  0  0  0  0  0  0  0
    4.1990   -5.0860    0.5110 C   0  0  0  0  0  0  0  0  0  0  0  0
    3.4120   -4.9140   -0.6070 C   0  0  0  0  0  0  0  0  0  0  0  0
    3.0890   -3.6470   -1.0350 C   0  0  0  0  0  0  0  0  0  0  0  0
    2.0810   -3.4860   -2.4670 Cl  0  0  0  0  0  0  0  0  0  0  0  0
  1  2  2  0
  2  3  1  0
  2 30  1  0
  3  4  1  0
  4  5  2  0
  4 14  1  0
  5  6  1  0
  6  7  1  0
  6 12  2  0
  7  8  2  0
  7 11  1  0
  8  9  1  0
  9 10  2  0
 10 11  1  0
 12 13  1  0
 13 14  2  0
 14 15  1  0
 16 15  1  1
 16 17  1  0
 16 29  1  0
 17 18  1  0
 18 19  1  0
 19 20  1  0
 20 21  1  1
 20 23  1  0
 20 29  1  0
 21 22  1  0
 23 24  1  0
 24 25  2  0
 24 28  1  0
 25 26  1  0
 26 27  2  0
 27 28  2  0
 30 31  2  0
 30 35  1  0
 31 32  1  0
 32 33  2  0
 33 34  1  0
 34 35  2  0
 35 36  1  0
M  CHG  1  10   1
M  END
