
     RDKit          3D

 36 39  0  0  0  0  0  0  0  0999 V2000
   11.5670    0.7790   -0.3570 C   0  0  0  0  0  0  0  0  0  0  0  0
   10.5210   -0.0750   -0.7790 O   0  0  0  0  0  0  0  0  0  0  0  0
    9.2000    0.2340   -0.4790 C   0  0  0  0  0  0  0  0  0  0  0  0
    8.8920    1.3670    0.2300 C   0  0  0  0  0  0  0  0  0  0  0  0
    7.5610    1.7090    0.5510 C   0  0  0  0  0  0  0  0  0  0  0  0
    6.5050    0.9250    0.1690 C   0  0  0  0  0  0  0  0  0  0  0  0
    5.1480    1.2100    0.4350 N   0  0  0  0  0  0  0  0  0  0  0  0
    4.5730    2.3850    0.9310 C   0  0  0  0  0  0  0  0  0  0  0  0
    5.3780    3.3480    1.1810 O   0  0  0  0  0  0  0  0  0  0  0  0
    3.1720    2.6080    1.1820 C   0  0  0  0  0  0  0  0  0  0  0  0
    2.6290    4.1680    1.8140 Cl  0  0  0  0  0  0  0  0  0  0  0  0
    2.2320    1.6850    0.9610 C   0  0  0  0  0  0  0  0  0  0  0  0
    0.8510    1.9490    1.2250 C   0  0  0  0  0  0  0  0  0  0  0  0
   -0.2430    1.3000    1.1230 C   0  0  0  0  0  0  0  0  0  0  0  0
   -0.5960   -0.0140    0.6920 C   0  0  0  0  0  0  0  0  0  0  0  0
   -1.9650   -0.3560    0.6820 C   0  0  0  0  0  0  0  0  0  0  0  0
   -2.3920   -1.5990    0.2910 C   0  0  0  0  0  0  0  0  0  0  0  0
   -3.7840   -1.9460    0.2800 N   0  0  0  0  0  0  0  0  0  0  0  0
   -4.1570   -3.2750   -0.1360 C   0  0  0  0  0  0  0  0  0  0  0  0
   -5.3870   -3.8100    0.5210 C   0  0  0  0  0  0  0  0  0  0  0  0
   -6.3510   -2.7670    0.9990 C   0  0  0  0  0  0  0  0  0  0  0  0
   -6.1560   -1.4290    0.3150 C   0  0  2  0  0  0  0  0  0  0  0  0
   -6.2330   -1.5540   -1.0470 O   0  0  0  0  0  0  0  0  0  0  0  0
   -7.1880   -0.7870   -1.6710 C   0  0  0  0  0  0  0  0  0  0  0  0
   -7.0090    0.6750   -1.4890 C   0  0  0  0  0  0  0  0  0  0  0  0
   -6.8310    1.5320   -2.4750 C   0  0  0  0  0  0  0  0  0  0  0  0
   -6.6920    2.8860   -1.9140 C   0  0  0  0  0  0  0  0  0  0  0  0
   -6.8210    2.6490   -0.4520 C   0  0  0  0  0  0  0  0  0  0  0  0
   -6.9990    1.3890   -0.2630 N   0  0  0  0  0  0  0  0  0  0  0  0
   -4.7600   -0.9640    0.6790 C   0  0  0  0  0  0  0  0  0  0  0  0
   -1.4490   -2.4760   -0.0810 N   0  0  0  0  0  0  0  0  0  0  0  0
   -0.1490   -2.1700   -0.0770 C   0  0  0  0  0  0  0  0  0  0  0  0
    0.2900   -0.9340    0.3100 N   0  0  0  0  0  0  0  0  0  0  0  0
    6.8530   -0.2290   -0.5550 C   0  0  0  0  0  0  0  0  0  0  0  0
    8.1480   -0.5610   -0.8670 C   0  0  0  0  0  0  0  0  0  0  0  0
    8.4560   -1.7110   -1.5860 O   0  0  0  0  0  0  0  0  0  0  0  0
  1  2  1  0
  2  3  1  0
  3  4  2  0
  3 35  1  0
  4  5  1  0
  5  6  2  0
  6  7  1  0
  6 34  1  0
  7  8  1  0
  8  9  2  0
  8 10  1  0
 10 11  1  0
 10 12  2  3
 12 13  1  0
 13 14  2  3
 14 15  1  0
 15 16  2  0
 15 33  1  0
 16 17  1  0
 17 18  1  0
 17 31  2  0
 18 19  1  0
 18 30  1  0
 19 20  1  0
 20 21  1  0
 21 22  1  0
 22 23  1  6
 22 30  1  0
 23 24  1  0
 24 25  1  0
 25 26  2  0
 25 29  1  0
 26 27  1  0
 27 28  1  0
 28 29  2  0
 31 32  1  0
 32 33  2  0
 34 35  2  0
 35 36  1  0
M  CHG  1  33   1
M  END
