
     RDKit          3D

 36 40  0  0  0  0  0  0  0  0999 V2000
    9.4870    2.1520    1.0830 C   0  0  0  0  0  0  0  0  0  0  0  0
    9.1310    1.0320    0.3080 O   0  0  0  0  0  0  0  0  0  0  0  0
    7.8160    0.6840    0.0600 C   0  0  0  0  0  0  0  0  0  0  0  0
    6.7470    1.4030    0.5500 C   0  0  0  0  0  0  0  0  0  0  0  0
    5.4210    1.0760    0.3150 C   0  0  0  0  0  0  0  0  0  0  0  0
    5.1540   -0.0330   -0.4500 C   0  0  0  0  0  0  0  0  0  0  0  0
    3.9210   -0.4630   -0.7490 O   0  0  0  0  0  0  0  0  0  0  0  0
    2.6350   -0.0740   -0.4570 C   0  0  0  0  0  0  0  0  0  0  0  0
    2.2810   -0.1580    1.0090 C   0  0  0  0  0  0  0  0  0  0  0  0
    1.0160    0.2160    1.3590 O   0  0  0  0  0  0  0  0  0  0  0  0
   -0.2360   -0.2240    1.0950 C   0  0  0  0  0  0  0  0  0  0  0  0
   -0.4720   -1.3200    0.3160 C   0  0  0  0  0  0  0  0  0  0  0  0
   -1.7810   -1.7460    0.0590 C   0  0  0  0  0  0  0  0  0  0  0  0
   -2.8270   -1.0420    0.6050 C   0  0  0  0  0  0  0  0  0  0  0  0
   -2.6030    0.0740    1.4030 C   0  0  0  0  0  0  0  0  0  0  0  0
   -1.2860    0.4830    1.6460 C   0  0  0  0  0  0  0  0  0  0  0  0
   -3.6880    0.7140    1.9860 N   0  0  0  0  0  0  0  0  0  0  0  0
   -5.0350    0.4890    1.6110 C   0  0  1  0  0  0  0  0  0  0  0  0
   -5.4410    1.6820    0.7650 C   0  0  0  0  0  0  0  0  0  0  0  0
   -5.9360    1.5460   -0.5040 C   0  0  0  0  0  0  0  0  0  0  0  0
   -6.3080    2.6820   -1.2280 C   0  0  0  0  0  0  0  0  0  0  0  0
   -6.1830    3.9130   -0.6890 N   0  0  0  0  0  0  0  0  0  0  0  0
   -5.6950    4.0230    0.5550 C   0  0  0  0  0  0  0  0  0  0  0  0
   -5.3310    2.9300    1.2690 N   0  0  0  0  0  0  0  0  0  0  0  0
   -5.1970   -0.7200    0.7800 C   0  0  0  0  0  0  0  0  0  0  0  0
   -4.2270   -1.4320    0.3020 C   0  0  0  0  0  0  0  0  0  0  0  0
   -4.3620   -2.6380   -0.5690 C   0  0  1  0  0  0  0  0  0  0  0  0
   -3.8470   -4.1150    0.2730 Cl  0  0  0  0  0  0  0  0  0  0  0  0
   -5.7610   -2.8480   -1.0630 C   0  0  0  0  0  0  0  0  0  0  0  0
   -6.7850   -2.3360   -0.2100 N   0  0  0  0  0  0  0  0  0  0  0  0
   -6.5880   -1.1620    0.5330 C   0  0  0  0  0  0  0  0  0  0  0  0
   -7.5800   -0.4790    1.0040 N   0  0  0  0  0  0  0  0  0  0  0  0
    6.2350   -0.7820   -0.9590 C   0  0  0  0  0  0  0  0  0  0  0  0
    7.5360   -0.4260   -0.7060 C   0  0  0  0  0  0  0  0  0  0  0  0
    8.5550   -1.2030   -1.2360 O   0  0  0  0  0  0  0  0  0  0  0  0
    8.3530   -2.3370   -2.0190 C   0  0  0  0  0  0  0  0  0  0  0  0
  1  2  1  0
  2  3  1  0
  3  4  2  0
  3 34  1  0
  4  5  1  0
  5  6  2  0
  6  7  1  0
  6 33  1  0
  7  8  1  0
  8  9  1  0
  9 10  1  0
 10 11  1  0
 11 12  2  0
 11 16  1  0
 12 13  1  0
 13 14  2  0
 14 15  1  0
 14 26  1  0
 15 16  2  0
 15 17  1  0
 17 18  1  0
 18 19  1  6
 18 25  1  0
 19 20  2  0
 19 24  1  0
 20 21  1  0
 21 22  2  0
 22 23  1  0
 23 24  2  0
 25 26  2  0
 25 31  1  0
 26 27  1  0
 27 28  1  1
 27 29  1  0
 29 30  1  0
 30 31  1  0
 31 32  2  0
 33 34  2  0
 34 35  1  0
 35 36  1  0
M  CHG  1  22   1
M  END
