
     RDKit          3D

 36 39  0  0  0  0  0  0  0  0999 V2000
   13.2600   -0.2470   -0.1480 C   0  0  0  0  0  0  0  0  0  0  0  0
   11.9000   -0.2110   -0.1560 C   0  0  0  0  0  0  0  0  0  0  0  0
   11.1920   -1.0270    0.7790 C   0  0  0  0  0  0  0  0  0  0  0  0
    9.9370   -1.1400    0.9360 C   0  0  0  0  0  0  0  0  0  0  0  0
    8.8570   -0.5060    0.2450 C   0  0  0  0  0  0  0  0  0  0  0  0
    9.1190    0.6450   -1.0260 Cl  0  0  0  0  0  0  0  0  0  0  0  0
    7.5840   -0.7940    0.5900 C   0  0  0  0  0  0  0  0  0  0  0  0
    7.3390   -1.7020    1.6110 O   0  0  0  0  0  0  0  0  0  0  0  0
    6.4310   -0.2050   -0.0520 C   0  0  0  0  0  0  0  0  0  0  0  0
    6.3250    0.1050   -1.3850 C   0  0  0  0  0  0  0  0  0  0  0  0
    5.0560    0.6490   -1.5930 C   0  0  0  0  0  0  0  0  0  0  0  0
    4.4460    0.6410   -0.3660 C   0  0  0  0  0  0  0  0  0  0  0  0
    3.0960    1.1080   -0.0600 C   0  0  0  0  0  0  0  0  0  0  0  0
    2.1950    1.6270   -0.9290 C   0  0  0  0  0  0  0  0  0  0  0  0
    1.0490    1.8980   -0.2680 N   0  0  0  0  0  0  0  0  0  0  0  0
   -0.1230    2.4890   -0.8690 C   0  0  0  0  0  0  0  0  0  0  0  0
   -0.9440    1.4450   -1.5000 C   0  0  0  0  0  0  0  0  0  0  0  0
   -1.0770    1.5170   -2.7950 O   0  0  0  0  0  0  0  0  0  0  0  0
   -1.6110    0.3630   -0.8780 N   0  0  0  0  0  0  0  0  0  0  0  0
   -2.3870   -0.5170   -1.7320 C   0  0  0  0  0  0  0  0  0  0  0  0
   -3.4950   -1.2500   -1.0300 C   0  0  0  0  0  0  0  0  0  0  0  0
   -3.8000   -0.5810    0.2690 C   0  0  1  0  0  0  0  0  0  0  0  0
   -4.9430   -1.1110    0.9630 N   0  0  2  0  0  0  0  0  0  0  0  0
   -5.6480   -2.1680    0.3540 C   0  0  0  0  0  0  0  0  0  0  0  0
   -6.8950   -1.7790   -0.3940 C   0  0  0  0  0  0  0  0  0  0  0  0
   -7.9420   -1.1420    0.4840 C   0  0  0  0  0  0  0  0  0  0  0  0
   -7.8780    0.3580    0.3210 C   0  0  0  0  0  0  0  0  0  0  0  0
   -6.4070    0.7510    0.2800 C   0  0  1  0  0  0  0  0  0  0  0  0
   -6.3280    2.2590    0.5480 C   0  0  0  0  0  0  0  0  0  0  0  0
   -6.8500    2.5970    1.7790 O   0  0  0  0  0  0  0  0  0  0  0  0
   -5.7350    0.0130    1.4080 C   0  0  0  0  0  0  0  0  0  0  0  0
   -2.5480   -0.6960    1.1160 C   0  0  0  0  0  0  0  0  0  0  0  0
   -1.4700    0.1630    0.5440 C   0  0  0  0  0  0  0  0  0  0  0  0
    1.2700    1.5420    0.9920 N   0  0  0  0  0  0  0  0  0  0  0  0
    2.4830    1.0630    1.1620 N   0  0  0  0  0  0  0  0  0  0  0  0
    5.2820    0.1350    0.5140 O   0  0  0  0  0  0  0  0  0  0  0  0
  1  2  2  0
  2  3  1  0
  3  4  2  3
  4  5  1  0
  5  6  1  0
  5  7  2  3
  7  8  1  0
  7  9  1  0
  9 10  2  0
  9 36  1  0
 10 11  1  0
 11 12  2  0
 12 13  1  0
 12 36  1  0
 13 14  2  0
 13 35  1  0
 14 15  1  0
 15 16  1  0
 15 34  1  0
 16 17  1  0
 17 18  2  0
 17 19  1  0
 19 20  1  0
 19 33  1  0
 20 21  1  0
 22 21  1  6
 22 23  1  0
 22 32  1  0
 23 24  1  6
 23 31  1  0
 24 25  1  0
 25 26  1  0
 26 27  1  0
 27 28  1  0
 28 29  1  1
 28 31  1  0
 29 30  1  0
 32 33  1  0
 34 35  2  0
M  CHG  1  23   1
M  END
