
     RDKit          3D

 36 40  0  0  0  0  0  0  0  0999 V2000
   -4.9310    3.2770    1.9000 C   0  0  0  0  0  0  0  0  0  0  0  0
   -3.7600    3.3260    1.1790 O   0  0  0  0  0  0  0  0  0  0  0  0
   -3.2340    2.1030    0.8500 C   0  0  0  0  0  0  0  0  0  0  0  0
   -4.1290    1.2510    0.0130 C   0  0  0  0  0  0  0  0  0  0  0  0
   -3.4780   -0.0380   -0.2870 N   0  0  0  0  0  0  0  0  0  0  0  0
   -4.2400   -0.9370   -1.0930 C   0  0  0  0  0  0  0  0  0  0  0  0
   -5.4470   -1.4950   -0.4590 C   0  0  0  0  0  0  0  0  0  0  0  0
   -6.7330   -1.3160   -0.8520 C   0  0  0  0  0  0  0  0  0  0  0  0
   -7.5670   -2.0560    0.0810 C   0  0  0  0  0  0  0  0  0  0  0  0
   -6.7500   -2.3280    1.0890 C   0  0  0  0  0  0  0  0  0  0  0  0
   -5.4870   -2.3920    0.6760 C   0  0  0  0  0  0  0  0  0  0  0  0
   -4.2770   -3.3880    1.4030 Cl  0  0  0  0  0  0  0  0  0  0  0  0
   -2.2030   -0.2590    0.2370 C   0  0  0  0  0  0  0  0  0  0  0  0
   -1.0750    0.0150   -0.4430 C   0  0  0  0  0  0  0  0  0  0  0  0
   -1.1450    0.5680   -1.7940 C   0  0  0  0  0  0  0  0  0  0  0  0
   -2.1200    0.2310   -2.4820 O   0  0  0  0  0  0  0  0  0  0  0  0
   -0.0780    1.4830   -2.2720 C   0  0  0  0  0  0  0  0  0  0  0  0
    1.0160    1.4390   -1.2320 C   0  0  0  0  0  0  0  0  0  0  0  0
    1.1990   -0.0260   -0.7900 C   0  0  1  0  0  0  0  0  0  0  0  0
    2.5830   -0.1360   -0.2500 C   0  0  0  0  0  0  0  0  0  0  0  0
    2.7180   -0.3640    0.9690 O   0  0  0  0  0  0  0  0  0  0  0  0
    3.7270    0.0030   -1.0400 N   0  0  0  0  0  0  0  0  0  0  0  0
    5.0800   -0.0760   -0.6380 C   0  0  0  0  0  0  0  0  0  0  0  0
    6.0710   -0.0670   -1.6330 C   0  0  0  0  0  0  0  0  0  0  0  0
    7.4040   -0.1320   -1.3140 C   0  0  0  0  0  0  0  0  0  0  0  0
    7.8590   -0.2090   -0.0160 C   0  0  0  0  0  0  0  0  0  0  0  0
    9.0840   -0.2840    0.6130 C   0  0  0  0  0  0  0  0  0  0  0  0
   10.1960   -0.2980    0.0250 O   0  0  0  0  0  0  0  0  0  0  0  0
    8.8690   -0.3370    1.9450 N   0  0  0  0  0  0  0  0  0  0  0  0
    7.5650   -0.2980    2.1360 N   0  0  0  0  0  0  0  0  0  0  0  0
    6.9020   -0.2190    0.9710 C   0  0  0  0  0  0  0  0  0  0  0  0
    5.5370   -0.1530    0.6500 C   0  0  0  0  0  0  0  0  0  0  0  0
    0.1770   -0.2470    0.2060 N   0  0  2  0  0  0  0  0  0  0  0  0
    0.2530   -1.5260    0.8360 C   0  0  0  0  0  0  0  0  0  0  0  0
   -1.0790   -2.0400    1.3590 C   0  0  0  0  0  0  0  0  0  0  0  0
   -1.9350   -0.8080    1.6120 C   0  0  0  0  0  0  0  0  0  0  0  0
  1  2  1  0
  2  3  1  0
  3  4  1  0
  4  5  1  0
  5  6  1  0
  5 13  1  0
  6  7  1  0
  7  8  2  0
  7 11  1  0
  8  9  1  0
  9 10  2  0
 10 11  2  0
 11 12  1  0
 13 14  2  0
 13 36  1  0
 14 15  1  0
 14 33  1  0
 15 16  2  0
 15 17  1  0
 17 18  1  0
 18 19  1  0
 19 20  1  1
 19 33  1  0
 20 21  2  0
 20 22  1  0
 22 23  1  0
 23 24  2  0
 23 32  1  0
 24 25  1  0
 25 26  2  0
 26 27  1  0
 26 31  1  0
 27 28  2  0
 27 29  1  0
 29 30  1  0
 30 31  1  0
 31 32  2  0
 33 34  1  6
 34 35  1  0
 35 36  1  0
M  CHG  1  33   1
M  END
