
     RDKit          3D

 33 36  0  0  0  0  0  0  0  0999 V2000
    8.9640   -2.5070   -0.7830 C   0  0  0  0  0  0  0  0  0  0  0  0
    8.4290   -1.1330   -0.5510 C   0  0  0  0  0  0  0  0  0  0  0  0
    7.5330   -0.4790   -1.3540 C   0  0  0  0  0  0  0  0  0  0  0  0
    7.3000    0.7380   -0.8050 N   0  0  0  0  0  0  0  0  0  0  0  0
    6.3910    1.7020   -1.3950 C   0  0  0  0  0  0  0  0  0  0  0  0
    4.9920    1.5180   -0.9030 C   0  0  0  0  0  0  0  0  0  0  0  0
    4.8370    1.6610    0.5780 C   0  0  0  0  0  0  0  0  0  0  0  0
    3.4560    1.4700    0.9200 N   0  0  0  0  0  0  0  0  0  0  0  0
    2.7540    0.2580    0.6580 C   0  0  0  0  0  0  0  0  0  0  0  0
    3.2690   -0.8500    0.0700 N   0  0  0  0  0  0  0  0  0  0  0  0
    2.3240   -1.7400    0.0060 N   0  0  0  0  0  0  0  0  0  0  0  0
    1.1970   -1.2400    0.5400 C   0  0  0  0  0  0  0  0  0  0  0  0
   -0.0880   -1.9180    0.6620 C   0  0  0  0  0  0  0  0  0  0  0  0
   -0.2500   -3.2110    0.2060 C   0  0  0  0  0  0  0  0  0  0  0  0
   -1.4720   -3.8320    0.3310 C   0  0  0  0  0  0  0  0  0  0  0  0
   -2.4740   -3.1610    0.8940 N   0  0  0  0  0  0  0  0  0  0  0  0
   -2.3890   -1.9020    1.3600 C   0  0  0  0  0  0  0  0  0  0  0  0
   -3.5230   -1.2390    1.9600 N   0  0  0  0  0  0  0  0  0  0  0  0
   -4.7930   -1.8770    2.0940 C   0  0  0  0  0  0  0  0  0  0  0  0
   -5.4530   -2.2820    0.8190 C   0  0  0  0  0  0  0  0  0  0  0  0
   -5.7440   -1.1520   -0.1020 C   0  0  0  0  0  0  0  0  0  0  0  0
   -6.9650   -0.8020   -0.5410 C   0  0  0  0  0  0  0  0  0  0  0  0
   -6.8180    0.3680   -1.4330 C   0  0  1  0  0  0  0  0  0  0  0  0
   -6.9170    1.5580   -0.6400 N   0  0  1  0  0  0  0  0  0  0  0  0
   -7.3970    2.6830   -1.4110 C   0  0  0  0  0  0  0  0  0  0  0  0
   -7.7400    1.3320    0.5440 C   0  0  0  0  0  0  0  0  0  0  0  0
   -5.3820    0.2270   -1.9090 C   0  0  0  0  0  0  0  0  0  0  0  0
   -4.7780   -0.2730   -0.6610 N   0  0  0  0  0  0  0  0  0  0  0  0
   -1.1690   -1.2740    1.2380 C   0  0  0  0  0  0  0  0  0  0  0  0
    1.5060   -0.0310    0.9190 O   0  0  0  0  0  0  0  0  0  0  0  0
    8.0330    0.8350    0.3080 C   0  0  0  0  0  0  0  0  0  0  0  0
    8.0610    2.0230    1.1980 C   0  0  0  0  0  0  0  0  0  0  0  0
    8.7240   -0.3240    0.4550 N   0  0  0  0  0  0  0  0  0  0  0  0
  1  2  1  0
  2  3  2  0
  2 33  1  0
  3  4  1  0
  4  5  1  0
  4 31  1  0
  5  6  1  0
  6  7  1  0
  7  8  1  0
  8  9  1  0
  9 10  2  0
  9 30  1  0
 10 11  1  0
 11 12  2  0
 12 13  1  0
 12 30  1  0
 13 14  2  0
 13 29  1  0
 14 15  1  0
 15 16  2  0
 16 17  1  0
 17 18  1  0
 17 29  2  0
 18 19  1  0
 19 20  1  0
 20 21  1  0
 21 22  2  0
 21 28  1  0
 22 23  1  0
 23 24  1  0
 23 27  1  1
 24 25  1  6
 24 26  1  0
 27 28  1  0
 31 32  1  0
 31 33  2  0
M  CHG  1  24   1
M  END
