
     RDKit          3D

 33 36  0  0  0  0  0  0  0  0999 V2000
   -6.6790   -3.1780    0.6570 C   0  0  0  0  0  0  0  0  0  0  0  0
   -7.5220   -1.9360    0.4480 C   0  0  0  0  0  0  0  0  0  0  0  0
   -7.2650   -1.2850   -0.8710 C   0  0  0  0  0  0  0  0  0  0  0  0
   -5.8400   -0.8570   -1.0250 C   0  0  0  0  0  0  0  0  0  0  0  0
   -4.9540   -1.5590   -1.8150 C   0  0  0  0  0  0  0  0  0  0  0  0
   -3.6350   -1.1430   -1.9490 C   0  0  0  0  0  0  0  0  0  0  0  0
   -2.5890   -1.6380   -2.6470 N   0  0  0  0  0  0  0  0  0  0  0  0
   -1.5300   -0.8640   -2.4450 N   0  0  0  0  0  0  0  0  0  0  0  0
   -1.8540    0.1460   -1.6170 C   0  0  0  0  0  0  0  0  0  0  0  0
   -0.9670    1.2370   -1.1410 C   0  0  0  0  0  0  0  0  0  0  0  0
   -0.0770    0.8510   -0.0970 N   0  0  1  0  0  0  0  0  0  0  0  0
   -0.6870    0.2570    1.0520 C   0  0  0  0  0  0  0  0  0  0  0  0
    0.3270    0.3120    2.1780 C   0  0  0  0  0  0  0  0  0  0  0  0
    1.6110   -0.1700    1.8140 N   0  0  0  0  0  0  0  0  0  0  0  0
    2.7350    0.5600    2.2850 C   0  0  0  0  0  0  0  0  0  0  0  0
    2.8770    1.9170    1.6730 C   0  0  0  0  0  0  0  0  0  0  0  0
    4.0570    2.6830    2.1650 C   0  0  0  0  0  0  0  0  0  0  0  0
    5.3190    2.0540    1.9250 N   0  0  0  0  0  0  0  0  0  0  0  0
    5.7410    1.7600    0.6040 C   0  0  0  0  0  0  0  0  0  0  0  0
    4.9550    2.0780   -0.3300 O   0  0  0  0  0  0  0  0  0  0  0  0
    6.9780    1.1410    0.3040 N   0  0  0  0  0  0  0  0  0  0  0  0
    7.4050    0.8390   -1.0390 C   0  0  0  0  0  0  0  0  0  0  0  0
    6.6790   -0.3560   -1.5190 C   0  0  0  0  0  0  0  0  0  0  0  0
    5.4950   -0.3910   -2.2230 C   0  0  0  0  0  0  0  0  0  0  0  0
    5.1660   -1.6790   -2.4710 N   0  0  0  0  0  0  0  0  0  0  0  0
    6.1150   -2.4590   -1.9400 C   0  0  0  0  0  0  0  0  0  0  0  0
    7.0410   -1.6400   -1.3570 N   0  0  0  0  0  0  0  0  0  0  0  0
    1.7200   -0.7140    0.5060 C   0  0  0  0  0  0  0  0  0  0  0  0
    1.0210    0.0340   -0.5720 C   0  0  0  0  0  0  0  0  0  0  0  0
   -3.1650   -0.0520   -1.3250 N   0  0  0  0  0  0  0  0  0  0  0  0
   -4.0150    0.6460   -0.5500 C   0  0  0  0  0  0  0  0  0  0  0  0
   -5.3520    0.2620   -0.3870 C   0  0  0  0  0  0  0  0  0  0  0  0
   -6.2290    1.0680    0.4750 C   0  0  0  0  0  0  0  0  0  0  0  0
  1  2  1  0
  2  3  1  0
  3  4  1  0
  4  5  2  0
  4 32  1  0
  5  6  1  0
  6  7  2  0
  6 30  1  0
  7  8  1  0
  8  9  2  0
  9 10  1  0
  9 30  1  0
 11 10  1  6
 11 12  1  0
 11 29  1  0
 12 13  1  0
 13 14  1  0
 14 15  1  0
 14 28  1  0
 15 16  1  0
 16 17  1  0
 17 18  1  0
 18 19  1  0
 19 20  2  0
 19 21  1  0
 21 22  1  0
 22 23  1  0
 23 24  2  0
 23 27  1  0
 24 25  1  0
 25 26  1  0
 26 27  2  0
 28 29  1  0
 30 31  1  0
 31 32  2  0
 32 33  1  0
M  CHG  1  11   1
M  END
