
     RDKit          3D

 33 36  0  0  0  0  0  0  0  0999 V2000
   -3.4720   -3.3720   -1.7320 C   0  0  0  0  0  0  0  0  0  0  0  0
   -3.8590   -2.3570   -1.0000 C   0  0  0  0  0  0  0  0  0  0  0  0
   -3.1470   -1.9500    0.2380 C   0  0  0  0  0  0  0  0  0  0  0  0
   -2.7720   -0.5170    0.2380 C   0  0  1  0  0  0  0  0  0  0  0  0
   -1.9240    0.0010   -0.7410 N   0  0  0  0  0  0  0  0  0  0  0  0
   -0.5760   -0.3530   -0.8410 C   0  0  1  0  0  0  0  0  0  0  0  0
   -0.1800   -1.7450   -1.1510 C   0  0  0  0  0  0  0  0  0  0  0  0
    1.0970   -1.8390   -1.9560 C   0  0  0  0  0  0  0  0  0  0  0  0
    2.0950   -0.9030   -1.6360 N   0  0  2  0  0  0  0  0  0  0  0  0
    3.0080   -1.2770   -0.5940 C   0  0  0  0  0  0  0  0  0  0  0  0
    2.9580   -2.4520    0.1060 C   0  0  0  0  0  0  0  0  0  0  0  0
    3.8950   -2.7020    1.0720 N   0  0  0  0  0  0  0  0  0  0  0  0
    4.8770   -1.8350    1.3700 C   0  0  0  0  0  0  0  0  0  0  0  0
    4.9300   -0.6570    0.6710 C   0  0  0  0  0  0  0  0  0  0  0  0
    5.9480    0.3400    0.8970 N   0  0  0  0  0  0  0  0  0  0  0  0
    5.7700    1.6470    0.3140 C   0  0  0  0  0  0  0  0  0  0  0  0
    7.0140    2.4400    0.1260 C   0  0  0  0  0  0  0  0  0  0  0  0
    8.2340    1.7330    0.4030 N   0  0  0  0  0  0  0  0  0  0  0  0
    8.2660    0.7690    1.4360 C   0  0  0  0  0  0  0  0  0  0  0  0
    9.3090    0.6260    2.1280 O   0  0  0  0  0  0  0  0  0  0  0  0
    7.0810   -0.0600    1.6950 C   0  0  0  0  0  0  0  0  0  0  0  0
    4.0170   -0.4140   -0.2690 N   0  0  0  0  0  0  0  0  0  0  0  0
    1.6340    0.4500   -1.4370 C   0  0  0  0  0  0  0  0  0  0  0  0
    0.1880    0.5310   -1.8470 C   0  0  0  0  0  0  0  0  0  0  0  0
   -3.9640    0.3810    0.3470 C   0  0  0  0  0  0  0  0  0  0  0  0
   -5.2400   -0.0290    0.5910 C   0  0  0  0  0  0  0  0  0  0  0  0
   -6.3130    0.8440    0.6660 C   0  0  0  0  0  0  0  0  0  0  0  0
   -7.6100    0.3520    0.9200 N   0  0  0  0  0  0  0  0  0  0  0  0
   -8.7590    1.2080    1.0060 C   0  0  0  0  0  0  0  0  0  0  0  0
   -6.0680    2.1450    0.4880 N   0  0  0  0  0  0  0  0  0  0  0  0
   -4.8020    2.5670    0.2440 C   0  0  0  0  0  0  0  0  0  0  0  0
   -4.6320    4.0370    0.0590 C   0  0  0  0  0  0  0  0  0  0  0  0
   -3.7730    1.7070    0.1750 N   0  0  0  0  0  0  0  0  0  0  0  0
  1  2  2  0
  2  3  1  0
  4  3  1  6
  4  5  1  0
  4 25  1  0
  6  5  1  6
  6  7  1  0
  6 24  1  0
  7  8  1  0
  8  9  1  0
  9 10  1  1
  9 23  1  0
 10 11  2  0
 10 22  1  0
 11 12  1  0
 12 13  2  0
 13 14  1  0
 14 15  1  0
 14 22  2  0
 15 16  1  0
 15 21  1  0
 16 17  1  0
 17 18  1  0
 18 19  1  0
 19 20  2  0
 19 21  1  0
 23 24  1  0
 25 26  2  0
 25 33  1  0
 26 27  1  0
 27 28  1  0
 27 30  2  0
 28 29  1  0
 30 31  1  0
 31 32  1  0
 31 33  2  0
M  CHG  1   9   1
M  END
