
     RDKit          3D

 33 36  0  0  0  0  0  0  0  0999 V2000
   -7.8360    0.5480    2.5220 C   0  0  0  0  0  0  0  0  0  0  0  0
   -7.8660   -0.4180    1.3400 C   0  0  0  0  0  0  0  0  0  0  0  0
   -7.0210    0.1280    0.2170 C   0  0  0  0  0  0  0  0  0  0  0  0
   -7.4350    0.7090   -0.9050 N   0  0  0  0  0  0  0  0  0  0  0  0
   -6.4050    1.0550   -1.6430 N   0  0  0  0  0  0  0  0  0  0  0  0
   -6.4940    1.7180   -2.9440 C   0  0  0  0  0  0  0  0  0  0  0  0
   -5.2420    0.7070   -1.0210 C   0  0  0  0  0  0  0  0  0  0  0  0
   -3.8990    0.9430   -1.6160 C   0  0  0  0  0  0  0  0  0  0  0  0
   -5.6170    0.1190    0.1600 C   0  0  0  0  0  0  0  0  0  0  0  0
   -4.7810   -0.4740    1.2060 C   0  0  0  0  0  0  0  0  0  0  0  0
   -3.3690   -0.3590    1.0650 N   0  0  0  0  0  0  0  0  0  0  0  0
   -2.6500    0.8440    1.1540 C   0  0  0  0  0  0  0  0  0  0  0  0
   -3.3360    1.9030    1.3930 O   0  0  0  0  0  0  0  0  0  0  0  0
   -1.2140    0.9670    0.9980 C   0  0  0  0  0  0  0  0  0  0  0  0
   -0.5330    2.1440    1.1640 N   0  0  0  0  0  0  0  0  0  0  0  0
    0.7540    1.9770    0.9500 N   0  0  0  0  0  0  0  0  0  0  0  0
    0.9490    0.7100    0.6430 C   0  0  0  0  0  0  0  0  0  0  0  0
    2.2700    0.0710    0.2920 C   0  0  0  0  0  0  0  0  0  0  0  0
    2.3920   -0.0270   -1.1920 C   0  0  0  0  0  0  0  0  0  0  0  0
    3.5950   -0.6980   -1.6890 C   0  0  0  0  0  0  0  0  0  0  0  0
    4.9520   -0.2100   -1.4000 C   0  0  0  0  0  0  0  0  0  0  0  0
    5.4300   -0.2230   -0.0470 N   0  0  2  0  0  0  0  0  0  0  0  0
    5.8850    1.0670    0.3640 C   0  0  0  0  0  0  0  0  0  0  0  0
    7.2200    1.0770    1.0750 C   0  0  0  0  0  0  0  0  0  0  0  0
    8.3160    0.3830    0.3110 C   0  0  0  0  0  0  0  0  0  0  0  0
    7.7220   -0.6070   -0.6860 C   0  0  0  0  0  0  0  0  0  0  0  0
    6.5270   -1.2130    0.0100 C   0  0  0  0  0  0  0  0  0  0  0  0
   -0.2570    0.0460    0.6630 C   0  0  0  0  0  0  0  0  0  0  0  0
   -0.4470   -1.3460    0.4010 C   0  0  0  0  0  0  0  0  0  0  0  0
   -0.7600   -1.9380   -0.7600 N   0  0  0  0  0  0  0  0  0  0  0  0
   -0.8420   -3.2680   -0.5930 C   0  0  0  0  0  0  0  0  0  0  0  0
   -0.5800   -3.5250    0.6810 N   0  0  0  0  0  0  0  0  0  0  0  0
   -0.3390   -2.3750    1.2960 N   0  0  0  0  0  0  0  0  0  0  0  0
  1  2  1  0
  2  3  1  0
  3  4  2  0
  3  9  1  0
  4  5  1  0
  5  6  1  0
  5  7  1  0
  7  8  1  0
  7  9  2  0
  9 10  1  0
 10 11  1  0
 11 12  1  0
 12 13  2  0
 12 14  1  0
 14 15  2  0
 14 28  1  0
 15 16  1  0
 16 17  1  0
 17 18  1  0
 17 28  2  0
 18 19  1  0
 19 20  1  0
 20 21  1  0
 22 21  1  6
 22 23  1  0
 22 27  1  0
 23 24  1  0
 24 25  1  0
 25 26  1  0
 26 27  1  0
 28 29  1  0
 29 30  1  0
 29 33  2  0
 30 31  2  0
 31 32  1  0
 32 33  1  0
M  CHG  1  22   1
M  END
