
     RDKit          3D

 30 31  0  0  0  0  0  0  0  0999 V2000
   -2.9550    1.7360   -2.0640 C   0  0  0  0  0  0  0  0  0  0  0  0
   -1.9460    1.0110   -1.4930 O   0  0  0  0  0  0  0  0  0  0  0  0
   -2.1050    0.7170   -0.1470 C   0  0  1  0  0  0  0  0  0  0  0  0
   -3.3280   -0.0580    0.0440 C   0  0  0  0  0  0  0  0  0  0  0  0
   -4.2490    0.3280    0.6800 O   0  0  0  0  0  0  0  0  0  0  0  0
   -3.3290   -1.6800   -0.7810 P   0  0  0  0  0  0  0  0  0  0  0  0
   -4.2180   -2.8750    0.0400 O   0  0  0  0  0  0  0  0  0  0  0  0
   -1.6530   -2.0320   -0.9960 O   0  0  0  0  0  0  0  0  0  0  0  0
   -0.9260   -1.5310    0.0450 C   0  0  2  0  0  0  0  0  0  0  0  0
    0.4150   -1.9910   -0.1470 O   0  0  0  0  0  0  0  0  0  0  0  0
   -1.3550   -2.2750    1.2780 C   0  0  0  0  0  0  0  0  0  0  0  0
   -0.5590   -3.2330    1.9330 N   0  0  0  0  0  0  0  0  0  0  0  0
   -2.4860   -2.0390    1.7650 O   0  0  0  0  0  0  0  0  0  0  0  0
   -0.8670   -0.0750    0.2600 C   0  0  1  0  0  0  0  0  0  0  0  0
    0.4020    0.6060   -0.1000 C   0  0  2  0  0  0  0  0  0  0  0  0
    0.7670    0.7000   -1.5320 C   0  0  0  0  0  0  0  0  0  0  0  0
    0.8310   -0.4820   -2.2400 O   0  0  0  0  0  0  0  0  0  0  0  0
    1.4390   -0.2030    0.5100 O   0  0  0  0  0  0  0  0  0  0  0  0
    2.7490    0.2620    0.3020 C   0  0  0  0  0  0  0  0  0  0  0  0
    2.9400    1.6320    0.4110 O   0  0  0  0  0  0  0  0  0  0  0  0
    3.7610   -0.5050    0.0210 C   0  0  0  0  0  0  0  0  0  0  0  0
    3.6540   -1.9800   -0.1160 C   0  0  0  0  0  0  0  0  0  0  0  0
    5.0150    0.0470   -0.1670 O   0  0  0  0  0  0  0  0  0  0  0  0
    6.0160   -0.3460    0.7170 N   0  0  0  0  0  0  0  0  0  0  0  0
    0.5640    1.8730    0.4740 O   0  0  0  0  0  0  0  0  0  0  0  0
   -0.3480    2.7570    0.9300 C   0  0  0  0  0  0  0  0  0  0  0  0
   -0.0660    3.8930    1.3280 O   0  0  0  0  0  0  0  0  0  0  0  0
   -2.1160    2.2110    0.9490 P   0  0  0  0  0  0  0  0  0  0  0  0
   -3.2180    3.4200    0.5390 O   0  0  0  0  0  0  0  0  0  0  0  0
   -2.8060    4.5760    1.0240 O   0  0  0  0  0  0  0  0  0  0  0  0
  1  2  1  0
  3  2  1  6
  3  4  1  0
  3 14  1  0
  3 28  1  0
  4  5  2  0
  4  6  1  0
  6  7  1  0
  6  8  1  0
  8  9  1  0
  9 10  1  6
  9 11  1  0
 14  9  1  6
 11 12  1  0
 11 13  2  0
 14 15  1  0
 15 16  1  6
 15 18  1  0
 15 25  1  0
 16 17  1  0
 18 19  1  0
 19 20  1  0
 19 21  2  3
 21 22  1  0
 21 23  1  0
 23 24  1  0
 25 26  1  0
 26 27  2  0
 26 28  1  0
 28 29  1  0
 29 30  1  0
M  END
