
     RDKit          3D

 32 33  0  0  0  0  0  0  0  0999 V2000
   -1.0120   -0.0410    1.9310 C   0  0  0  0  0  0  0  0  0  0  0  0
   -1.5090   -0.2050    0.5040 C   0  0  1  0  0  0  0  0  0  0  0  0
   -2.9270    0.4060    0.5390 C   0  0  0  0  0  0  0  0  0  0  0  0
   -3.5650    0.2270   -0.6730 O   0  0  0  0  0  0  0  0  0  0  0  0
   -5.1290    0.9210   -0.5770 P   0  0  0  0  0  0  0  0  0  0  0  0
   -5.5460    1.6500   -2.1010 O   0  0  0  0  0  0  0  0  0  0  0  0
   -6.3550   -0.2410   -0.2020 O   0  0  0  0  0  0  0  0  0  0  0  0
   -0.6920    0.3530   -0.4620 O   0  0  0  0  0  0  0  0  0  0  0  0
   -0.3870    1.7000   -0.6720 C   0  0  0  0  0  0  0  0  0  0  0  0
   -0.6410    2.2790   -1.7920 N   0  0  0  0  0  0  0  0  0  0  0  0
   -0.3660    3.5750   -2.0380 O   0  0  0  0  0  0  0  0  0  0  0  0
   -1.1320    4.6050   -1.6670 O   0  0  0  0  0  0  0  0  0  0  0  0
    0.2300    2.4620    0.4000 C   0  0  0  0  0  0  0  0  0  0  0  0
    1.3420    2.1830    1.0470 C   0  0  0  0  0  0  0  0  0  0  0  0
    2.2100    1.0390    0.8250 C   0  0  0  0  0  0  0  0  0  0  0  0
    2.4700    0.3010    1.8250 O   0  0  0  0  0  0  0  0  0  0  0  0
    2.8200    0.6610   -0.4680 C   0  0  2  0  0  0  0  0  0  0  0  0
    4.1880    0.4840   -0.2090 O   0  0  0  0  0  0  0  0  0  0  0  0
    4.8120    1.5910   -0.7310 C   0  0  0  0  0  0  0  0  0  0  0  0
    3.8480    2.3670   -1.3390 O   0  0  0  0  0  0  0  0  0  0  0  0
    2.7550    1.6840   -1.4130 O   0  0  0  0  0  0  0  0  0  0  0  0
    2.3390   -0.5920   -1.0550 C   0  0  0  0  0  0  0  0  0  0  0  0
    2.5040   -0.7360   -2.2710 O   0  0  0  0  0  0  0  0  0  0  0  0
    1.6710   -1.7160   -0.3370 C   0  0  2  0  0  0  0  0  0  0  0  0
    2.2700   -2.9790   -0.9180 C   0  0  0  0  0  0  0  0  0  0  0  0
    1.7250   -4.1460   -0.3950 O   0  0  0  0  0  0  0  0  0  0  0  0
    0.3420   -1.5500   -0.5200 O   0  0  0  0  0  0  0  0  0  0  0  0
   -0.5580   -2.3110    0.1200 C   0  0  2  0  0  0  0  0  0  0  0  0
   -0.2630   -2.8150    1.4090 N   0  0  0  0  0  0  0  0  0  0  0  0
   -1.1550   -3.7590   -0.9340 P   0  0  0  0  0  0  0  0  0  0  0  0
   -2.2130   -4.7370   -0.4100 O   0  0  0  0  0  0  0  0  0  0  0  0
   -1.7350   -1.5390    0.2620 O   0  0  0  0  0  0  0  0  0  0  0  0
  2  1  1  1
  2  3  1  0
  2  8  1  0
  2 32  1  0
  3  4  1  0
  4  5  1  0
  5  6  1  0
  5  7  1  0
  8  9  1  0
  9 10  2  3
  9 13  1  0
 10 11  1  0
 11 12  1  0
 13 14  2  0
 14 15  1  0
 15 16  2  0
 15 17  1  0
 17 18  1  1
 17 21  1  0
 17 22  1  0
 18 19  1  0
 19 20  1  0
 20 21  1  0
 22 23  2  0
 22 24  1  0
 24 25  1  6
 24 27  1  0
 25 26  1  0
 27 28  1  0
 28 29  1  1
 28 30  1  0
 28 32  1  0
 30 31  2  0
M  END
