
     RDKit          3D

 43 46  0  0  0  0  0  0  0  0999 V2000
   12.6930    0.7530   -0.0890 C   0  0  0  0  0  0  0  0  0  0  0  0
   11.5260    1.7170    0.0790 C   0  0  0  0  0  0  0  0  0  0  0  0
   10.3680    1.2690   -0.7110 N   0  0  0  0  0  0  0  0  0  0  0  0
    9.2370    1.0170    0.1620 C   0  0  2  0  0  0  0  0  0  0  0  0
    9.4130   -0.2600    0.9520 C   0  0  0  0  0  0  0  0  0  0  0  0
    9.1760   -1.5120    0.1430 C   0  0  0  0  0  0  0  0  0  0  0  0
    8.0350   -1.4020   -0.8180 C   0  0  0  0  0  0  0  0  0  0  0  0
    7.1590   -0.2460   -0.3770 C   0  0  2  0  0  0  0  0  0  0  0  0
    5.9500   -0.3270   -1.0770 O   0  0  0  0  0  0  0  0  0  0  0  0
    4.7240   -0.5570   -0.4200 C   0  0  0  0  0  0  0  0  0  0  0  0
    4.8110   -0.6690    0.8120 O   0  0  0  0  0  0  0  0  0  0  0  0
    3.4820   -0.6510   -1.1510 C   0  0  0  0  0  0  0  0  0  0  0  0
    2.3090   -0.8710   -0.6440 C   0  0  0  0  0  0  0  0  0  0  0  0
    2.0080   -1.0670    0.7580 C   0  0  0  0  0  0  0  0  0  0  0  0
    1.2540    0.1640    1.2460 C   0  0  0  0  0  0  0  0  0  0  0  0
    0.1080    0.4690    0.6400 C   0  0  0  0  0  0  0  0  0  0  0  0
   -0.7880    1.5950    0.9330 C   0  0  2  0  0  0  0  0  0  0  0  0
   -0.1210    2.6670    1.7620 C   0  0  0  0  0  0  0  0  0  0  0  0
   -1.9810    1.1380    1.5700 O   0  0  0  0  0  0  0  0  0  0  0  0
   -3.2000    1.1760    0.9330 C   0  0  0  0  0  0  0  0  0  0  0  0
   -3.2620    1.6150   -0.2430 O   0  0  0  0  0  0  0  0  0  0  0  0
   -4.4510    0.7110    1.5830 C   0  0  0  0  0  0  0  0  0  0  0  0
   -5.4600    0.3810    0.5220 N   0  0  0  0  0  0  0  0  0  0  0  0
   -6.7040   -0.0680    0.8810 C   0  0  0  0  0  0  0  0  0  0  0  0
   -6.8250   -0.0950    2.1950 O   0  0  0  0  0  0  0  0  0  0  0  0
   -7.8860   -0.5250    0.2190 C   0  0  0  0  0  0  0  0  0  0  0  0
   -8.0480   -0.6680   -1.0660 C   0  0  0  0  0  0  0  0  0  0  0  0
   -7.0740   -0.4170   -2.0940 C   0  0  0  0  0  0  0  0  0  0  0  0
   -7.4660   -0.6110   -3.3400 O   0  0  0  0  0  0  0  0  0  0  0  0
   -5.8130   -0.0210   -2.0720 O   0  0  0  0  0  0  0  0  0  0  0  0
   -4.9780    0.1710   -3.2320 C   0  0  0  0  0  0  0  0  0  0  0  0
   -9.3860   -1.0630   -1.5750 N   0  0  0  0  0  0  0  0  0  0  0  0
  -10.4290   -1.2650   -0.6640 C   0  0  0  0  0  0  0  0  0  0  0  0
  -11.8020   -1.6590   -1.1510 C   0  0  0  0  0  0  0  0  0  0  0  0
  -10.2570   -1.1280    0.6100 C   0  0  0  0  0  0  0  0  0  0  0  0
  -11.1360   -1.2500    1.8020 C   0  0  0  0  0  0  0  0  0  0  0  0
  -12.0810   -2.0440    1.8900 O   0  0  0  0  0  0  0  0  0  0  0  0
  -10.6260   -0.2380    2.7980 C   0  0  0  0  0  0  0  0  0  0  0  0
   -9.1520   -0.0620    2.3910 C   0  0  0  0  0  0  0  0  0  0  0  0
   -8.9580   -0.9220    1.1950 C   0  0  2  0  0  0  0  0  0  0  0  0
   -0.3650   -0.6710   -0.6980 S   0  0  0  0  0  0  0  0  0  0  0  0
    1.1640   -0.9390   -1.6340 C   0  0  0  0  0  0  0  0  0  0  0  0
    7.9090    1.0420   -0.5720 C   0  0  0  0  0  0  0  0  0  0  0  0
  1  2  1  0
  2  3  1  0
  4  3  1  6
  4  5  1  0
  4 43  1  0
  5  6  1  0
  6  7  1  0
  7  8  1  0
  8  9  1  6
  8 43  1  0
  9 10  1  0
 10 11  2  0
 10 12  1  0
 12 13  2  3
 13 14  1  0
 13 42  1  0
 14 15  1  0
 15 16  2  0
 16 17  1  0
 16 41  1  0
 17 18  1  1
 17 19  1  0
 19 20  1  0
 20 21  2  0
 20 22  1  0
 22 23  1  0
 23 24  1  0
 24 25  2  0
 24 26  1  0
 26 27  2  0
 26 40  1  0
 27 28  1  0
 27 32  1  0
 28 29  2  0
 28 30  1  0
 30 31  1  0
 32 33  1  0
 33 34  1  0
 33 35  2  0
 35 36  1  0
 35 40  1  0
 36 37  2  0
 36 38  1  0
 38 39  1  0
 40 39  1  1
 41 42  1  0
M  CHG  1   3   1
M  END
