
     RDKit          3D

 43 46  0  0  0  0  0  0  0  0999 V2000
   -7.1120    2.2680   -2.0520 C   0  0  0  0  0  0  0  0  0  0  0  0
   -7.1240    2.7430   -0.7230 O   0  0  0  0  0  0  0  0  0  0  0  0
   -6.3640    2.0800    0.2210 C   0  0  0  0  0  0  0  0  0  0  0  0
   -5.6140    0.9890   -0.1110 C   0  0  0  0  0  0  0  0  0  0  0  0
   -4.8260    0.2800    0.7990 C   0  0  0  0  0  0  0  0  0  0  0  0
   -4.1320   -0.8960    0.3510 C   0  0  0  0  0  0  0  0  0  0  0  0
   -4.9170   -1.9320   -0.1850 O   0  0  0  0  0  0  0  0  0  0  0  0
   -4.8300   -2.2340   -1.5480 C   0  0  0  0  0  0  0  0  0  0  0  0
   -5.7930   -3.3920   -1.8220 C   0  0  2  0  0  0  0  0  0  0  0  0
   -7.0560   -2.9340   -1.4660 O   0  0  0  0  0  0  0  0  0  0  0  0
   -5.3940   -4.5430   -0.9360 C   0  0  0  0  0  0  0  0  0  0  0  0
   -6.3250   -5.5880   -1.0800 O   0  0  0  0  0  0  0  0  0  0  0  0
   -2.8470   -1.0610    0.4070 C   0  0  0  0  0  0  0  0  0  0  0  0
   -2.2870   -2.2930   -0.0680 O   0  0  0  0  0  0  0  0  0  0  0  0
   -1.8570   -0.1010    0.9160 C   0  0  2  0  0  0  0  0  0  0  0  0
   -1.6790   -0.1590    2.2930 O   0  0  0  0  0  0  0  0  0  0  0  0
   -1.9470    1.2810    0.3480 C   0  0  0  0  0  0  0  0  0  0  0  0
   -0.7800    2.0030    0.6230 O   0  0  0  0  0  0  0  0  0  0  0  0
    0.4640    1.7010    0.1570 C   0  0  0  0  0  0  0  0  0  0  0  0
    0.6490    0.7200   -0.5900 O   0  0  0  0  0  0  0  0  0  0  0  0
    1.6200    2.5010    0.5050 N   0  0  0  0  0  0  0  0  0  0  0  0
    2.9300    2.1860    0.0350 C   0  0  0  0  0  0  0  0  0  0  0  0
    3.4730    0.8920    0.4930 C   0  0  0  0  0  0  0  0  0  0  0  0
    2.8020    0.1270    1.3310 C   0  0  0  0  0  0  0  0  0  0  0  0
    3.3790   -1.1350    1.7470 C   0  0  0  0  0  0  0  0  0  0  0  0
    2.9820   -1.7580    2.7810 O   0  0  0  0  0  0  0  0  0  0  0  0
    4.4670   -1.7240    0.9460 C   0  0  1  0  0  0  0  0  0  0  0  0
    3.8550   -2.6110   -0.1020 C   0  0  0  0  0  0  0  0  0  0  0  0
    5.3340   -0.6600    0.3410 C   0  0  0  0  0  0  0  0  0  0  0  0
    4.7800    0.4950   -0.0240 C   0  0  0  0  0  0  0  0  0  0  0  0
    5.6640    1.5120   -1.1400 S   0  0  1  0  0  0  0  0  0  0  0  0
    5.2290    1.2330   -2.5710 O   0  0  0  0  0  0  0  0  0  0  0  0
    5.5870    2.9560   -0.8170 O   0  0  0  0  0  0  0  0  0  0  0  0
    7.3700    0.9380   -1.0550 C   0  0  1  0  0  0  0  0  0  0  0  0
    8.2350    1.5930   -2.0740 C   0  0  0  0  0  0  0  0  0  0  0  0
    7.8360    1.1620    0.3690 C   0  0  0  0  0  0  0  0  0  0  0  0
    7.6410   -0.1390    1.1030 C   0  0  0  0  0  0  0  0  0  0  0  0
    6.7610   -0.9570    0.1820 C   0  0  2  0  0  0  0  0  0  0  0  0
    7.2930   -0.5680   -1.1820 C   0  0  0  0  0  0  0  0  0  0  0  0
   -4.8250    0.7340    2.1230 C   0  0  0  0  0  0  0  0  0  0  0  0
   -5.5790    1.8370    2.4730 C   0  0  0  0  0  0  0  0  0  0  0  0
   -6.3430    2.5050    1.5300 C   0  0  0  0  0  0  0  0  0  0  0  0
   -7.1280    3.6420    1.8600 N   0  0  0  0  0  0  0  0  0  0  0  0
  1  2  1  0
  2  3  1  0
  3  4  2  0
  3 42  1  0
  4  5  1  0
  5  6  1  0
  5 40  2  0
  6  7  1  0
  6 13  2  3
  7  8  1  0
  8  9  1  0
  9 10  1  1
  9 11  1  0
 11 12  1  0
 13 14  1  0
 13 15  1  0
 15 16  1  1
 15 17  1  0
 17 18  1  0
 18 19  1  0
 19 20  2  0
 19 21  1  0
 21 22  1  0
 22 23  1  0
 23 24  2  0
 23 30  1  0
 24 25  1  0
 25 26  2  0
 25 27  1  0
 27 28  1  6
 27 29  1  0
 29 30  2  0
 29 38  1  0
 31 30  1  1
 31 32  2  0
 31 33  2  0
 31 34  1  0
 34 35  1  6
 34 36  1  0
 34 39  1  0
 36 37  1  0
 38 37  1  1
 38 39  1  0
 40 41  1  0
 41 42  2  0
 42 43  1  0
M  END
