
     RDKit          3D

 43 46  0  0  0  0  0  0  0  0999 V2000
   -7.7900    2.0820    3.0720 C   0  0  0  0  0  0  0  0  0  0  0  0
   -7.3600    2.6270    1.9010 O   0  0  0  0  0  0  0  0  0  0  0  0
   -7.7720    1.9580    0.8030 C   0  0  0  0  0  0  0  0  0  0  0  0
   -7.2320    0.5880    0.6980 C   0  0  0  0  0  0  0  0  0  0  0  0
   -6.4150    0.0210    1.5340 O   0  0  0  0  0  0  0  0  0  0  0  0
   -5.9230   -1.1790    1.4660 C   0  0  0  0  0  0  0  0  0  0  0  0
   -5.1350   -1.5890    2.3660 O   0  0  0  0  0  0  0  0  0  0  0  0
   -6.2710   -1.9910    0.4090 C   0  0  0  0  0  0  0  0  0  0  0  0
   -5.7310   -3.3300    0.3130 C   0  0  0  0  0  0  0  0  0  0  0  0
   -4.4320   -3.6140   -0.2950 C   0  0  0  0  0  0  0  0  0  0  0  0
   -3.2440   -2.9830    0.1740 N   0  0  0  0  0  0  0  0  0  0  0  0
   -2.8820   -1.6280    0.0720 C   0  0  0  0  0  0  0  0  0  0  0  0
   -3.6440   -0.8330   -0.5120 O   0  0  0  0  0  0  0  0  0  0  0  0
   -1.6060   -1.1190    0.6460 C   0  0  0  0  0  0  0  0  0  0  0  0
   -0.8370   -1.8960    1.2490 O   0  0  0  0  0  0  0  0  0  0  0  0
   -1.2400    0.2270    0.5270 N   0  0  0  0  0  0  0  0  0  0  0  0
   -0.1140    0.9320    0.9590 C   0  0  0  0  0  0  0  0  0  0  0  0
    1.2460    0.6270    0.3900 C   0  0  2  0  0  0  0  0  0  0  0  0
    1.7760   -0.7240    0.5770 C   0  0  0  0  0  0  0  0  0  0  0  0
    2.0920    1.7920    0.7300 C   0  0  1  0  0  0  0  0  0  0  0  0
    2.2810    2.1580    2.1470 C   0  0  0  0  0  0  0  0  0  0  0  0
    3.2060    3.3830    1.9810 C   0  0  0  0  0  0  0  0  0  0  0  0
    3.6240    3.3320    0.5000 C   0  0  0  0  0  0  0  0  0  0  0  0
    3.4220    1.8710    0.2050 N   0  0  1  0  0  0  0  0  0  0  0  0
    4.4460    1.2260    0.9380 C   0  0  0  0  0  0  0  0  0  0  0  0
    5.3980    0.5350    0.0080 C   0  0  0  0  0  0  0  0  0  0  0  0
    5.3490    0.2210   -1.2950 C   0  0  0  0  0  0  0  0  0  0  0  0
    6.4190   -0.4150   -1.8350 C   0  0  0  0  0  0  0  0  0  0  0  0
    7.4640   -0.7050   -1.0780 C   0  0  0  0  0  0  0  0  0  0  0  0
    8.7680   -1.3860   -1.3940 C   0  0  2  0  0  0  0  0  0  0  0  0
    9.6910   -1.1110   -0.2470 C   0  0  0  0  0  0  0  0  0  0  0  0
   11.1430   -1.2430   -0.5450 C   0  0  0  0  0  0  0  0  0  0  0  0
   11.4270   -0.6620   -1.9080 C   0  0  0  0  0  0  0  0  0  0  0  0
   10.2270    0.1230   -2.3450 C   0  0  0  0  0  0  0  0  0  0  0  0
    9.2070   -0.7960   -2.5830 O   0  0  0  0  0  0  0  0  0  0  0  0
    7.0000   -0.0780    0.5140 S   0  0  0  0  0  0  0  0  0  0  0  0
   -7.1440   -1.4980   -0.5600 C   0  0  0  0  0  0  0  0  0  0  0  0
   -7.5520   -2.3380   -1.7230 C   0  0  0  0  0  0  0  0  0  0  0  0
   -7.6070   -0.2160   -0.3950 C   0  0  0  0  0  0  0  0  0  0  0  0
   -8.5210    0.3780   -1.3600 C   0  0  0  0  0  0  0  0  0  0  0  0
   -8.1250    1.0190   -2.3610 O   0  0  0  0  0  0  0  0  0  0  0  0
   -9.8850    0.2310   -1.1690 O   0  0  0  0  0  0  0  0  0  0  0  0
  -10.7720    0.8210   -2.1270 C   0  0  0  0  0  0  0  0  0  0  0  0
  1  2  1  0
  2  3  1  0
  3  4  1  0
  4  5  1  0
  4 39  2  0
  5  6  1  0
  6  7  2  0
  6  8  1  0
  8  9  1  0
  8 37  2  0
  9 10  1  0
 10 11  1  0
 11 12  1  0
 12 13  2  0
 12 14  1  0
 14 15  2  0
 14 16  1  0
 16 17  1  0
 17 18  1  0
 18 19  1  1
 18 20  1  0
 20 21  1  1
 20 24  1  0
 21 22  1  0
 22 23  1  0
 23 24  1  0
 24 25  1  1
 25 26  1  0
 26 27  2  0
 26 36  1  0
 27 28  1  0
 28 29  2  0
 30 29  1  1
 29 36  1  0
 30 31  1  0
 30 35  1  0
 31 32  1  0
 32 33  1  0
 33 34  1  0
 34 35  1  0
 37 38  1  0
 37 39  1  0
 39 40  1  0
 40 41  2  0
 40 42  1  0
 42 43  1  0
M  CHG  1  24   1
M  END
