
     RDKit          3D

 43 46  0  0  0  0  0  0  0  0999 V2000
    1.9660   -2.4340    2.5640 C   0  0  0  0  0  0  0  0  0  0  0  0
    1.6510   -2.6150    1.2200 O   0  0  0  0  0  0  0  0  0  0  0  0
    2.7140   -2.2620    0.3650 C   0  0  0  0  0  0  0  0  0  0  0  0
    3.0940   -0.8560    0.3850 C   0  0  1  0  0  0  0  0  0  0  0  0
    4.2800   -0.4520   -0.4940 C   0  0  0  0  0  0  0  0  0  0  0  0
    5.5160   -1.0780   -0.2730 N   0  0  0  0  0  0  0  0  0  0  0  0
    5.9230   -2.3960   -0.5750 C   0  0  0  0  0  0  0  0  0  0  0  0
    5.0970   -3.1540   -1.1670 O   0  0  0  0  0  0  0  0  0  0  0  0
    7.2330   -2.9740   -0.2600 C   0  0  0  0  0  0  0  0  0  0  0  0
    8.6060   -2.4020   -1.2520 S   0  0  0  0  0  0  0  0  0  0  0  0
    8.9860   -0.6750   -0.8390 C   0  0  1  0  0  0  0  0  0  0  0  0
    9.4360   -0.5830    0.6160 C   0  0  0  0  0  0  0  0  0  0  0  0
   10.4570    0.5140    0.5950 C   0  0  0  0  0  0  0  0  0  0  0  0
   11.0980    0.3250   -0.6400 O   0  0  0  0  0  0  0  0  0  0  0  0
   10.2340   -0.2380   -1.5570 C   0  0  0  0  0  0  0  0  0  0  0  0
   10.4590   -0.3580   -2.7780 O   0  0  0  0  0  0  0  0  0  0  0  0
    1.9700    0.1280   -0.0270 C   0  0  0  0  0  0  0  0  0  0  0  0
    0.8160    0.1450    0.7420 N   0  0  0  0  0  0  0  0  0  0  0  0
   -0.2730    0.9970    0.3220 C   0  0  2  0  0  0  0  0  0  0  0  0
    0.0920    2.2350   -0.3840 C   0  0  0  0  0  0  0  0  0  0  0  0
   -0.8660    2.9080   -0.9490 O   0  0  0  0  0  0  0  0  0  0  0  0
    1.3280    2.7920   -0.5330 O   0  0  0  0  0  0  0  0  0  0  0  0
    1.5980    3.9720   -1.2180 C   0  0  0  0  0  0  0  0  0  0  0  0
   -1.0330    1.4570    1.5680 C   0  0  0  0  0  0  0  0  0  0  0  0
   -1.7210    0.3550    2.2920 C   0  0  0  0  0  0  0  0  0  0  0  0
   -2.4230   -0.6230    1.4110 C   0  0  0  0  0  0  0  0  0  0  0  0
   -2.5050   -0.1570   -0.0280 C   0  0  1  0  0  0  0  0  0  0  0  0
   -3.5250    0.9080   -0.1420 C   0  0  0  0  0  0  0  0  0  0  0  0
   -4.1180    1.2910    0.8940 O   0  0  0  0  0  0  0  0  0  0  0  0
   -3.8930    1.5440   -1.3560 N   0  0  0  0  0  0  0  0  0  0  0  0
   -4.8940    2.5890   -1.4270 C   0  0  0  0  0  0  0  0  0  0  0  0
   -6.1940    2.1020   -0.9230 C   0  0  0  0  0  0  0  0  0  0  0  0
   -7.0110    2.7990   -0.0170 C   0  0  0  0  0  0  0  0  0  0  0  0
   -8.1390    2.0460    0.2240 C   0  0  0  0  0  0  0  0  0  0  0  0
   -7.9620    0.9010   -0.5590 C   0  0  0  0  0  0  0  0  0  0  0  0
   -8.8790   -0.2050   -0.6550 C   0  0  0  0  0  0  0  0  0  0  0  0
   -8.6550   -1.3020   -1.4460 C   0  0  0  0  0  0  0  0  0  0  0  0
   -9.5240   -2.3580   -1.5410 C   0  0  0  0  0  0  0  0  0  0  0  0
  -10.6920   -2.3130   -0.7970 C   0  0  0  0  0  0  0  0  0  0  0  0
  -10.9470   -1.2130    0.0160 C   0  0  0  0  0  0  0  0  0  0  0  0
  -10.0470   -0.1720    0.0820 C   0  0  0  0  0  0  0  0  0  0  0  0
   -6.8210    1.0060   -1.1900 O   0  0  0  0  0  0  0  0  0  0  0  0
   -1.1660    0.1920   -0.5900 C   0  0  0  0  0  0  0  0  0  0  0  0
  1  2  1  0
  2  3  1  0
  4  3  1  6
  4  5  1  0
  4 17  1  0
  5  6  1  0
  6  7  1  0
  7  8  2  0
  7  9  1  0
  9 10  1  0
 11 10  1  6
 11 12  1  0
 11 15  1  0
 12 13  1  0
 13 14  1  0
 14 15  1  0
 15 16  2  0
 17 18  1  0
 19 18  1  1
 19 20  1  0
 19 24  1  0
 19 43  1  0
 20 21  2  0
 20 22  1  0
 22 23  1  0
 24 25  1  0
 25 26  1  0
 26 27  1  0
 27 28  1  1
 27 43  1  0
 28 29  2  0
 28 30  1  0
 30 31  1  0
 31 32  1  0
 32 33  2  0
 32 42  1  0
 33 34  1  0
 34 35  2  0
 35 36  1  0
 35 42  1  0
 36 37  2  0
 36 41  1  0
 37 38  1  0
 38 39  2  0
 39 40  1  0
 40 41  2  0
M  CHG  1  18   1
M  END
