
     RDKit          3D

 43 46  0  0  0  0  0  0  0  0999 V2000
    8.5430    4.6150    0.4040 C   0  0  0  0  0  0  0  0  0  0  0  0
    7.0430    4.5460    0.2550 C   0  0  0  0  0  0  0  0  0  0  0  0
    6.6030    3.3160   -0.1730 O   0  0  0  0  0  0  0  0  0  0  0  0
    6.9500    2.2680    0.7150 C   0  0  2  0  0  0  0  0  0  0  0  0
    7.8210    1.3360   -0.0240 C   0  0  0  0  0  0  0  0  0  0  0  0
    7.3620   -0.0690   -0.1410 C   0  0  0  0  0  0  0  0  0  0  0  0
    5.9150   -0.2380   -0.4540 C   0  0  0  0  0  0  0  0  0  0  0  0
    5.1830   -0.5880    0.8410 C   0  0  2  0  0  0  0  0  0  0  0  0
    5.4520   -2.0160    1.1750 C   0  0  0  0  0  0  0  0  0  0  0  0
    3.7310   -0.3020    0.7180 C   0  0  0  0  0  0  0  0  0  0  0  0
    3.2880    0.2330   -0.3150 O   0  0  0  0  0  0  0  0  0  0  0  0
    2.8890   -0.6310    1.7500 O   0  0  0  0  0  0  0  0  0  0  0  0
    1.5210   -0.4010    1.7320 C   0  0  0  0  0  0  0  0  0  0  0  0
    1.0410    0.7190    2.3650 C   0  0  0  0  0  0  0  0  0  0  0  0
   -0.3120    0.9960    2.3760 C   0  0  0  0  0  0  0  0  0  0  0  0
   -1.2380    0.1560    1.7500 C   0  0  0  0  0  0  0  0  0  0  0  0
   -2.5940    0.4860    1.8140 N   0  0  0  0  0  0  0  0  0  0  0  0
   -3.6380   -0.0420    1.0120 C   0  0  0  0  0  0  0  0  0  0  0  0
   -3.3490   -0.8910    0.1430 O   0  0  0  0  0  0  0  0  0  0  0  0
   -5.0370    0.3890    1.1860 C   0  0  0  0  0  0  0  0  0  0  0  0
   -5.2320    1.2500    2.0800 O   0  0  0  0  0  0  0  0  0  0  0  0
   -6.1210   -0.1090    0.4130 N   0  0  0  0  0  0  0  0  0  0  0  0
   -5.8450   -1.1430   -0.5590 C   0  0  0  0  0  0  0  0  0  0  0  0
   -7.0090   -1.7570   -1.2450 C   0  0  2  0  0  0  0  0  0  0  0  0
   -7.2600   -1.1570   -2.5950 C   0  0  0  0  0  0  0  0  0  0  0  0
   -8.3750   -1.7520   -3.2230 O   0  0  0  0  0  0  0  0  0  0  0  0
   -8.5020   -1.8900   -0.2170 S   0  0  0  0  0  0  0  0  0  0  0  0
   -8.3030   -0.7100    1.1930 C   0  0  0  0  0  0  0  0  0  0  0  0
   -7.4330    0.3980    0.5740 C   0  0  1  0  0  0  0  0  0  0  0  0
   -7.6070    1.7110    1.2510 C   0  0  0  0  0  0  0  0  0  0  0  0
   -6.9320    2.7390    0.5270 N   0  0  0  0  0  0  0  0  0  0  0  0
   -7.9100    3.4990   -0.2780 C   0  0  0  0  0  0  0  0  0  0  0  0
   -0.7240   -0.9570    1.1260 C   0  0  0  0  0  0  0  0  0  0  0  0
    0.6280   -1.2770    1.0880 C   0  0  0  0  0  0  0  0  0  0  0  0
    1.1360   -2.3540    0.4810 O   0  0  0  0  0  0  0  0  0  0  0  0
    0.6980   -3.4100   -0.2510 C   0  0  0  0  0  0  0  0  0  0  0  0
    0.0500   -3.1130   -1.5820 C   0  0  1  0  0  0  0  0  0  0  0  0
    1.0620   -2.5140   -2.5410 C   0  0  0  0  0  0  0  0  0  0  0  0
    1.2470   -3.6160   -3.5840 C   0  0  0  0  0  0  0  0  0  0  0  0
   -0.0970   -4.3140   -3.4730 C   0  0  0  0  0  0  0  0  0  0  0  0
   -0.3000   -4.3680   -2.1170 O   0  0  0  0  0  0  0  0  0  0  0  0
    5.7140    0.3910    1.8750 C   0  0  0  0  0  0  0  0  0  0  0  0
    5.6760    1.7520    1.2640 C   0  0  0  0  0  0  0  0  0  0  0  0
  1  2  1  0
  2  3  1  0
  4  3  1  6
  4  5  1  0
  4 43  1  0
  5  6  1  0
  6  7  1  0
  7  8  1  0
  8  9  1  1
  8 10  1  0
  8 42  1  0
 10 11  2  0
 10 12  1  0
 12 13  1  0
 13 14  2  0
 13 34  1  0
 14 15  1  0
 15 16  2  0
 16 17  1  0
 16 33  1  0
 17 18  1  0
 18 19  2  0
 18 20  1  0
 20 21  2  0
 20 22  1  0
 22 23  1  0
 22 29  1  0
 23 24  1  0
 24 25  1  6
 24 27  1  0
 25 26  1  0
 27 28  1  0
 28 29  1  0
 29 30  1  1
 30 31  1  0
 31 32  1  0
 33 34  2  0
 34 35  1  0
 35 36  1  0
 37 36  1  1
 37 38  1  0
 37 41  1  0
 38 39  1  0
 39 40  1  0
 40 41  1  0
 42 43  1  0
M  CHG  1  31   1
M  END
