
     RDKit          3D

 20 22  0  0  0  0  0  0  0  0999 V2000
    4.6390   -0.9160   -0.3680 C   0  0  0  0  0  0  0  0  0  0  0  0
    3.8000   -0.8740    0.7990 O   0  0  0  0  0  0  0  0  0  0  0  0
    2.4910   -0.4120    0.6100 C   0  0  0  0  0  0  0  0  0  0  0  0
    2.1770    0.9180    0.7290 C   0  0  0  0  0  0  0  0  0  0  0  0
    3.2140    1.7950    1.0410 O   0  0  0  0  0  0  0  0  0  0  0  0
    0.9030    1.3830    0.5530 C   0  0  0  0  0  0  0  0  0  0  0  0
   -0.1610    0.5060    0.2380 C   0  0  0  0  0  0  0  0  0  0  0  0
   -1.4950    1.1040    0.1330 C   0  0  0  0  0  0  0  0  0  0  0  0
   -1.6390    2.3610   -0.3750 C   0  0  0  0  0  0  0  0  0  0  0  0
   -3.0310    2.7440   -0.3650 C   0  0  0  0  0  0  0  0  0  0  0  0
   -3.7310    1.6300    0.2870 C   0  0  0  0  0  0  0  0  0  0  0  0
   -2.8060    0.7260    0.5350 C   0  0  0  0  0  0  0  0  0  0  0  0
    0.1390   -0.8200    0.1070 C   0  0  0  0  0  0  0  0  0  0  0  0
    1.4620   -1.2720    0.2960 C   0  0  0  0  0  0  0  0  0  0  0  0
    1.5080   -2.6450    0.1080 O   0  0  0  0  0  0  0  0  0  0  0  0
    0.2770   -3.1360   -0.2130 C   0  0  0  0  0  0  0  0  0  0  0  0
   -0.0620   -4.3210   -0.4520 O   0  0  0  0  0  0  0  0  0  0  0  0
   -0.6620   -1.9840   -0.2380 C   0  0  0  0  0  0  0  0  0  0  0  0
   -1.8880   -2.0500   -0.6880 C   0  0  0  0  0  0  0  0  0  0  0  0
   -2.4320   -3.3410   -0.9310 O   0  0  0  0  0  0  0  0  0  0  0  0
  1  2  1  0
  2  3  1  0
  3  4  2  0
  3 14  1  0
  4  5  1  0
  4  6  1  0
  6  7  2  0
  7  8  1  0
  7 13  1  0
  8  9  2  0
  8 12  1  0
  9 10  1  0
 10 11  1  0
 11 12  2  0
 13 14  2  0
 13 18  1  0
 14 15  1  0
 15 16  1  0
 16 17  2  0
 16 18  1  0
 18 19  2  3
 19 20  1  0
M  END
