
     RDKit          3D

 17 17  0  0  0  0  0  0  0  0999 V2000
   -0.7040   -2.7290   -2.0610 O   0  0  0  0  0  0  0  0  0  0  0  0
   -0.8800   -2.0800   -0.9690 C   0  0  0  0  0  0  0  0  0  0  0  0
    0.2770   -2.0640   -0.0450 C   0  0  0  0  0  0  0  0  0  0  0  0
    1.2260   -1.0290   -0.3140 N   0  0  0  0  0  0  0  0  0  0  0  0
    1.8870   -0.6420    0.9100 C   0  0  0  0  0  0  0  0  0  0  0  0
    2.6600    0.6460    0.7380 C   0  0  2  0  0  0  0  0  0  0  0  0
    3.0830    1.0740    1.9950 O   0  0  0  0  0  0  0  0  0  0  0  0
    1.8850    1.7190    0.0270 C   0  0  0  0  0  0  0  0  0  0  0  0
    0.6620    2.0380    0.6570 O   0  0  0  0  0  0  0  0  0  0  0  0
   -0.4890    2.4640   -0.0200 C   0  0  0  0  0  0  0  0  0  0  0  0
   -1.0350    3.5090    0.4950 O   0  0  0  0  0  0  0  0  0  0  0  0
   -1.0240    1.8570   -1.1320 N   0  0  0  0  0  0  0  0  0  0  0  0
   -1.7560    0.8790   -1.3850 C   0  0  0  0  0  0  0  0  0  0  0  0
   -2.3740   -0.0820   -0.4170 C   0  0  2  0  0  0  0  0  0  0  0  0
   -2.0430    0.2400    1.0220 C   0  0  0  0  0  0  0  0  0  0  0  0
   -2.8760   -0.6010    1.7980 O   0  0  0  0  0  0  0  0  0  0  0  0
   -2.1320   -1.4610   -0.7670 N   0  0  0  0  0  0  0  0  0  0  0  0
  1  2  2  0
  2  3  1  0
  2 17  1  0
  3  4  1  0
  4  5  1  0
  5  6  1  0
  6  7  1  1
  6  8  1  0
  8  9  1  0
  9 10  1  0
 10 11  2  0
 10 12  1  0
 12 13  2  0
 13 14  1  0
 14 15  1  1
 14 17  1  0
 15 16  1  0
M  CHG  1   4   1
M  END
