
     RDKit          3D

 29 32  0  0  0  0  0  0  0  0999 V2000
    2.3880    2.1250    1.2190 O   0  0  0  0  0  0  0  0  0  0  0  0
    1.3320    1.4430    0.9730 C   0  0  0  0  0  0  0  0  0  0  0  0
    0.4210    1.1100    2.0800 C   0  0  0  0  0  0  0  0  0  0  0  0
   -0.7590    0.3800    1.6960 N   0  0  0  0  0  0  0  0  0  0  0  0
   -1.7470    0.9120    0.8150 C   0  0  0  0  0  0  0  0  0  0  0  0
   -1.5380    2.0910    0.3820 O   0  0  0  0  0  0  0  0  0  0  0  0
   -2.9040    0.1690    0.4390 N   0  0  0  0  0  0  0  0  0  0  0  0
   -3.0510   -1.1600    0.9840 C   0  0  0  0  0  0  0  0  0  0  0  0
   -4.4360   -1.7260    0.7770 C   0  0  0  0  0  0  0  0  0  0  0  0
   -5.4280   -0.5640    0.8240 C   0  0  0  0  0  0  0  0  0  0  0  0
   -5.2120    0.2300   -0.4360 C   0  0  2  0  0  0  0  0  0  0  0  0
   -3.8380    0.8020   -0.4590 C   0  0  0  0  0  0  0  0  0  0  0  0
   -6.2160    1.1830   -0.6450 O   0  0  0  0  0  0  0  0  0  0  0  0
   -7.3000    0.3550   -0.9810 C   0  0  0  0  0  0  0  0  0  0  0  0
   -6.6930   -0.9010   -1.5470 C   0  0  0  0  0  0  0  0  0  0  0  0
   -5.3270   -0.6210   -1.5590 O   0  0  0  0  0  0  0  0  0  0  0  0
    1.1700    1.0800   -0.3840 N   0  0  0  0  0  0  0  0  0  0  0  0
    2.1400    1.4730   -1.3960 C   0  0  0  0  0  0  0  0  0  0  0  0
    3.4570    0.8980   -1.0230 C   0  0  0  0  0  0  0  0  0  0  0  0
    4.6630    1.0170   -1.6960 C   0  0  0  0  0  0  0  0  0  0  0  0
    5.6000    0.3120   -0.9670 C   0  0  0  0  0  0  0  0  0  0  0  0
    4.9510   -0.2050    0.1090 C   0  0  0  0  0  0  0  0  0  0  0  0
    3.7030    0.1670    0.0280 O   0  0  0  0  0  0  0  0  0  0  0  0
    5.4850   -0.9490    1.0640 C   0  0  0  0  0  0  0  0  0  0  0  0
    4.5360   -1.3000    1.9990 F   0  0  0  0  0  0  0  0  0  0  0  0
    6.7900   -1.4870    1.3830 C   0  0  0  0  0  0  0  0  0  0  0  0
    7.8920   -1.1970    0.4810 C   0  0  0  0  0  0  0  0  0  0  0  0
    7.9740   -0.5050   -0.6400 C   0  0  0  0  0  0  0  0  0  0  0  0
    6.8950    0.1990   -1.3120 C   0  0  0  0  0  0  0  0  0  0  0  0
  1  2  2  0
  2  3  1  0
  2 17  1  0
  3  4  1  0
  4  5  1  0
  5  6  2  0
  5  7  1  0
  7  8  1  0
  7 12  1  0
  8  9  1  0
  9 10  1  0
 11 10  1  1
 11 12  1  0
 11 13  1  0
 11 16  1  0
 13 14  1  0
 14 15  1  0
 15 16  1  0
 17 18  1  0
 18 19  1  0
 19 20  2  0
 19 23  1  0
 20 21  1  0
 21 22  1  0
 21 29  2  0
 22 23  1  0
 22 24  2  0
 24 25  1  0
 24 26  1  0
 26 27  1  0
 27 28  2  0
 28 29  1  0
M  END
