
     RDKit          3D

 28 31  0  0  0  0  0  0  0  0999 V2000
    7.7450    1.0090   -1.0690 O   0  0  0  0  0  0  0  0  0  0  0  0
    6.9240    0.2460   -0.5390 C   0  0  0  0  0  0  0  0  0  0  0  0
    7.5100   -1.0610   -0.0740 C   0  0  0  0  0  0  0  0  0  0  0  0
    6.7330   -1.4190    1.1880 C   0  0  0  0  0  0  0  0  0  0  0  0
    5.5680   -2.1060    0.9110 O   0  0  0  0  0  0  0  0  0  0  0  0
    4.7860   -1.5050   -0.0690 C   0  0  0  0  0  0  0  0  0  0  0  0
    4.5490   -0.0480    0.1550 C   0  0  2  0  0  0  0  0  0  0  0  0
    3.2260    0.4100   -0.3270 C   0  0  0  0  0  0  0  0  0  0  0  0
    3.2060    1.3360   -1.1610 O   0  0  0  0  0  0  0  0  0  0  0  0
    2.0350   -0.1750    0.1350 N   0  0  0  0  0  0  0  0  0  0  0  0
    0.7170    0.1730   -0.2480 C   0  0  0  0  0  0  0  0  0  0  0  0
   -0.3250   -0.5850    0.2860 C   0  0  0  0  0  0  0  0  0  0  0  0
   -1.6470   -0.3400   -0.0100 C   0  0  0  0  0  0  0  0  0  0  0  0
   -1.9670    0.6870   -0.8610 C   0  0  0  0  0  0  0  0  0  0  0  0
   -0.9520    1.4810   -1.4250 C   0  0  0  0  0  0  0  0  0  0  0  0
    0.3620    1.1880   -1.0910 C   0  0  0  0  0  0  0  0  0  0  0  0
   -1.0560    2.5810   -2.3190 N   0  0  0  0  0  0  0  0  0  0  0  0
   -2.1280    3.2060   -2.6490 C   0  0  0  0  0  0  0  0  0  0  0  0
   -3.5030    2.9870   -2.2260 C   0  0  0  0  0  0  0  0  0  0  0  0
   -4.0190    1.9740   -1.5580 C   0  0  0  0  0  0  0  0  0  0  0  0
   -3.3640    0.7880   -1.0540 N   0  0  0  0  0  0  0  0  0  0  0  0
   -4.1630   -0.3430   -0.7660 C   0  0  0  0  0  0  0  0  0  0  0  0
   -5.1440   -0.2090    0.3570 C   0  0  2  0  0  0  0  0  0  0  0  0
   -4.6320    0.2890    1.6520 C   0  0  0  0  0  0  0  0  0  0  0  0
   -4.5970   -0.9470    2.5260 C   0  0  0  0  0  0  0  0  0  0  0  0
   -5.4520   -1.9110    1.7820 C   0  0  0  0  0  0  0  0  0  0  0  0
   -5.8610   -1.3760    0.5850 O   0  0  0  0  0  0  0  0  0  0  0  0
    5.6060    0.6790   -0.4430 O   0  0  0  0  0  0  0  0  0  0  0  0
  1  2  2  0
  2  3  1  0
  2 28  1  0
  3  4  1  0
  4  5  1  0
  5  6  1  0
  6  7  1  0
  7  8  1  6
  7 28  1  0
  8  9  2  0
  8 10  1  0
 10 11  1  0
 11 12  2  0
 11 16  1  0
 12 13  1  0
 13 14  2  0
 14 15  1  0
 14 21  1  0
 15 16  2  0
 15 17  1  0
 17 18  2  0
 18 19  1  0
 19 20  2  0
 20 21  1  0
 21 22  1  0
 23 22  1  6
 23 24  1  0
 23 27  1  0
 24 25  1  0
 25 26  1  0
 26 27  1  0
M  END
