
     RDKit          3D

 29 32  0  0  0  0  0  0  0  0999 V2000
   -2.6250    0.6420    0.1060 O   0  0  0  0  0  0  0  0  0  0  0  0
   -2.7940   -0.2900   -0.6900 C   0  0  0  0  0  0  0  0  0  0  0  0
   -4.1460   -0.7080   -1.1730 C   0  0  0  0  0  0  0  0  0  0  0  0
   -5.1990    0.0670   -0.6280 N   0  0  0  0  0  0  0  0  0  0  0  0
   -5.2790    1.4300   -1.0310 C   0  0  0  0  0  0  0  0  0  0  0  0
   -6.7440    1.8190   -1.1030 C   0  0  0  0  0  0  0  0  0  0  0  0
   -7.2980    1.5670    0.1940 O   0  0  0  0  0  0  0  0  0  0  0  0
   -6.8720    0.4950    0.9610 C   0  0  0  0  0  0  0  0  0  0  0  0
   -7.5930    0.1170    1.9070 O   0  0  0  0  0  0  0  0  0  0  0  0
   -5.5970   -0.2210    0.7050 C   0  0  0  0  0  0  0  0  0  0  0  0
   -1.6970   -1.0240   -1.1960 N   0  0  0  0  0  0  0  0  0  0  0  0
   -0.3320   -0.8160   -0.8940 C   0  0  0  0  0  0  0  0  0  0  0  0
    0.6040   -1.8040   -1.2400 C   0  0  0  0  0  0  0  0  0  0  0  0
    1.9540   -1.6710   -0.9960 C   0  0  0  0  0  0  0  0  0  0  0  0
    2.3790   -0.5190   -0.3910 C   0  0  0  0  0  0  0  0  0  0  0  0
    1.4830    0.4740   -0.0380 C   0  0  0  0  0  0  0  0  0  0  0  0
    0.1170    0.3270   -0.2910 C   0  0  0  0  0  0  0  0  0  0  0  0
    1.8980    1.6330    0.5690 C   0  0  0  0  0  0  0  0  0  0  0  0
    1.1330    2.5620    0.9090 O   0  0  0  0  0  0  0  0  0  0  0  0
    3.2270    1.8130    0.8320 N   0  0  0  0  0  0  0  0  0  0  0  0
    4.1380    0.8690    0.5030 C   0  0  0  0  0  0  0  0  0  0  0  0
    5.4690    1.0850    0.7820 C   0  0  0  0  0  0  0  0  0  0  0  0
    5.9420    2.2180    1.3840 O   0  0  0  0  0  0  0  0  0  0  0  0
    6.4020    0.0910    0.4330 C   0  0  0  0  0  0  0  0  0  0  0  0
    6.0070   -1.0590   -0.1660 C   0  0  0  0  0  0  0  0  0  0  0  0
    6.9950   -2.0900   -0.5290 C   0  0  0  0  0  0  0  0  0  0  0  0
    7.1920   -2.9960    0.5130 F   0  0  0  0  0  0  0  0  0  0  0  0
    4.6540   -1.2510   -0.4370 C   0  0  0  0  0  0  0  0  0  0  0  0
    3.7110   -0.3220   -0.1200 C   0  0  0  0  0  0  0  0  0  0  0  0
  1  2  2  0
  2  3  1  0
  2 11  1  0
  3  4  1  0
  4  5  1  0
  4 10  1  0
  5  6  1  0
  6  7  1  0
  7  8  1  0
  8  9  2  0
  8 10  1  0
 11 12  1  0
 12 13  2  0
 12 17  1  0
 13 14  1  0
 14 15  2  0
 15 16  1  0
 15 29  1  0
 16 17  2  0
 16 18  1  0
 18 19  2  0
 18 20  1  0
 20 21  1  0
 21 22  2  0
 21 29  1  0
 22 23  1  0
 22 24  1  0
 24 25  2  0
 25 26  1  0
 25 28  1  0
 26 27  1  0
 28 29  2  0
M  END
