
     RDKit          3D

 30 33  0  0  0  0  0  0  0  0999 V2000
   -2.7610   -0.8130   -3.0230 C   0  0  0  0  0  0  0  0  0  0  0  0
   -2.7640   -1.0590   -1.5080 C   0  0  0  0  0  0  0  0  0  0  0  0
   -3.2360    0.1350   -0.8960 N   0  0  0  0  0  0  0  0  0  0  0  0
   -3.0040    0.2220    0.5370 C   0  0  1  0  0  0  0  0  0  0  0  0
   -4.1520   -0.3260    1.2930 C   0  0  0  0  0  0  0  0  0  0  0  0
   -5.5870    0.0560    1.2060 C   0  0  0  0  0  0  0  0  0  0  0  0
   -3.6940   -1.2490    2.0960 C   0  0  0  0  0  0  0  0  0  0  0  0
   -2.2570   -1.3720    1.9300 C   0  0  0  0  0  0  0  0  0  0  0  0
   -1.8430   -0.4990    1.0040 C   0  0  0  0  0  0  0  0  0  0  0  0
   -0.4040   -0.4460    0.5880 C   0  0  0  0  0  0  0  0  0  0  0  0
    0.4260   -1.2580    1.1200 N   0  0  0  0  0  0  0  0  0  0  0  0
    1.8090   -1.3650    0.8320 C   0  0  0  0  0  0  0  0  0  0  0  0
    2.5620   -2.1930    1.4250 N   0  0  0  0  0  0  0  0  0  0  0  0
    3.9250   -2.4380    1.2770 C   0  0  0  0  0  0  0  0  0  0  0  0
    4.8170   -1.7110    1.9480 N   0  0  0  0  0  0  0  0  0  0  0  0
    6.1240   -1.9290    1.8330 C   0  0  0  0  0  0  0  0  0  0  0  0
    6.5590   -2.9170    1.0090 N   0  0  0  0  0  0  0  0  0  0  0  0
    5.6540   -3.6430    0.3370 C   0  0  0  0  0  0  0  0  0  0  0  0
    6.1090   -4.5520   -0.4190 O   0  0  0  0  0  0  0  0  0  0  0  0
    4.3390   -3.4180    0.4590 N   0  0  0  0  0  0  0  0  0  0  0  0
    2.3140   -0.4610   -0.1920 C   0  0  0  0  0  0  0  0  0  0  0  0
    3.5180   -0.3490   -0.8700 C   0  0  0  0  0  0  0  0  0  0  0  0
    3.3780    0.5600   -1.8480 N   0  0  0  0  0  0  0  0  0  0  0  0
    2.1460    1.0320   -1.8230 N   0  0  0  0  0  0  0  0  0  0  0  0
    1.4550    0.4190   -0.7960 C   0  0  0  0  0  0  0  0  0  0  0  0
    0.1040    0.6310   -0.2720 C   0  0  2  0  0  0  0  0  0  0  0  0
    0.0670    1.9500    0.5260 C   0  0  0  0  0  0  0  0  0  0  0  0
    0.5920    3.0500   -0.3380 C   0  0  0  0  0  0  0  0  0  0  0  0
    0.5250    4.4010    0.3760 C   0  0  0  0  0  0  0  0  0  0  0  0
    1.1830    5.6510   -0.7630 S   0  0  0  0  0  0  0  0  0  0  0  0
  1  2  1  0
  2  3  1  0
  4  3  1  6
  4  5  1  0
  4  9  1  0
  5  6  1  0
  5  7  2  0
  7  8  1  0
  8  9  2  0
  9 10  1  0
 10 11  2  0
 10 26  1  0
 11 12  1  0
 12 13  2  3
 12 21  1  0
 13 14  1  0
 14 15  2  0
 14 20  1  0
 15 16  1  0
 16 17  2  0
 17 18  1  0
 18 19  2  0
 18 20  1  0
 21 22  1  0
 21 25  2  0
 22 23  2  0
 23 24  1  0
 24 25  1  0
 25 26  1  0
 26 27  1  1
 27 28  1  0
 28 29  1  0
 29 30  1  0
M  CHG  1   3   1
M  END
