
     RDKit          3D

 12 12  0  0  0  0  0  0  0  0999 V2000
   -3.2580    1.2160    0.1170 C   0  0  0  0  0  0  0  0  0  0  0  0
   -1.8070    1.3290   -0.0970 C   0  0  0  0  0  0  0  0  0  0  0  0
   -1.0400    0.3020    0.2000 C   0  0  0  0  0  0  0  0  0  0  0  0
    0.4070    0.4560   -0.0290 C   0  0  0  0  0  0  0  0  0  0  0  0
    1.3290   -0.4890   -0.0490 C   0  0  0  0  0  0  0  0  0  0  0  0
    2.6740   -0.0450   -0.2990 N   0  0  0  0  0  0  0  0  0  0  0  0
    3.1250    1.2880   -0.1040 C   0  0  0  0  0  0  0  0  0  0  0  0
    1.1600   -1.9190    0.1480 C   0  0  0  0  0  0  0  0  0  0  0  0
    2.1830   -2.6180   -0.0620 O   0  0  0  0  0  0  0  0  0  0  0  0
    0.0090   -2.5530    0.5350 O   0  0  0  0  0  0  0  0  0  0  0  0
   -1.3180   -2.1880    0.6620 C   0  0  0  0  0  0  0  0  0  0  0  0
   -1.6220   -0.8440    0.7020 O   0  0  0  0  0  0  0  0  0  0  0  0
  1  2  1  0
  2  3  2  3
  3  4  1  0
  3 12  1  0
  4  5  2  0
  5  6  1  0
  5  8  1  0
  6  7  1  0
  8  9  2  0
  8 10  1  0
 10 11  1  0
 11 12  1  0
M  END
