
     RDKit          3D

 12 13  0  0  0  0  0  0  0  0999 V2000
   -1.7210   -1.6780    0.1670 C   0  0  0  0  0  0  0  0  0  0  0  0
   -1.1490   -0.3730   -0.0100 N   0  0  0  0  0  0  0  0  0  0  0  0
   -1.9480    0.7870   -0.1810 C   0  0  0  0  0  0  0  0  0  0  0  0
   -3.1660    0.6460   -0.4100 O   0  0  0  0  0  0  0  0  0  0  0  0
   -1.4040    2.1610   -0.1000 C   0  0  0  0  0  0  0  0  0  0  0  0
   -0.0190    2.2060   -0.3620 O   0  0  0  0  0  0  0  0  0  0  0  0
    0.8380    1.1330   -0.2030 C   0  0  0  0  0  0  0  0  0  0  0  0
    2.1480    1.3130   -0.2160 C   0  0  0  0  0  0  0  0  0  0  0  0
    2.9300    0.1910   -0.0520 O   0  0  0  0  0  0  0  0  0  0  0  0
    2.5060   -1.1180    0.1280 C   0  0  0  0  0  0  0  0  0  0  0  0
    1.0380   -1.2580    0.1340 C   0  0  0  0  0  0  0  0  0  0  0  0
    0.2840   -0.1990   -0.0220 C   0  0  0  0  0  0  0  0  0  0  0  0
  1  2  1  0
  2  3  1  0
  2 12  1  0
  3  4  2  0
  3  5  1  0
  5  6  1  0
  6  7  1  0
  7  8  2  0
  7 12  1  0
  8  9  1  0
  9 10  1  0
 10 11  1  0
 11 12  2  0
M  END
