
     RDKit          3D

 12 13  0  0  0  0  0  0  0  0999 V2000
    0.3720   -0.4230   -2.4140 O   0  0  0  0  0  0  0  0  0  0  0  0
    0.8050   -0.5530   -1.2550 C   0  0  0  0  0  0  0  0  0  0  0  0
    2.0000   -1.1930   -1.0410 O   0  0  0  0  0  0  0  0  0  0  0  0
    2.7410   -0.8130    0.1300 C   0  0  0  0  0  0  0  0  0  0  0  0
    2.2290    0.5930    0.4640 C   0  0  0  0  0  0  0  0  0  0  0  0
    0.8900    0.4370    0.9430 N   0  0  0  0  0  0  0  0  0  0  0  0
    0.0320   -0.0180   -0.1200 C   0  0  2  0  0  0  0  0  0  0  0  0
   -0.8190   -1.1320    0.4200 C   0  0  0  0  0  0  0  0  0  0  0  0
   -2.0340   -0.7020    1.1410 C   0  0  0  0  0  0  0  0  0  0  0  0
   -2.5010    0.5500    0.8400 O   0  0  0  0  0  0  0  0  0  0  0  0
   -2.2580    0.9330   -0.4760 C   0  0  0  0  0  0  0  0  0  0  0  0
   -0.7710    1.1660   -0.5910 C   0  0  0  0  0  0  0  0  0  0  0  0
  1  2  2  0
  2  3  1  0
  2  7  1  0
  3  4  1  0
  4  5  1  0
  5  6  1  0
  6  7  1  0
  7  8  1  1
  7 12  1  0
  8  9  1  0
  9 10  1  0
 10 11  1  0
 11 12  1  0
M  END
