
     RDKit          3D

 15 17  0  0  0  0  0  0  0  0999 V2000
    4.4060    0.5820   -0.0110 C   0  0  0  0  0  0  0  0  0  0  0  0
    3.5010   -0.6380   -0.1280 C   0  0  0  0  0  0  0  0  0  0  0  0
    2.0780   -0.1850   -0.1320 C   0  0  0  0  0  0  0  0  0  0  0  0
    1.6520    1.0980   -0.0460 N   0  0  0  0  0  0  0  0  0  0  0  0
    0.3280    1.1190   -0.0800 N   0  0  0  0  0  0  0  0  0  0  0  0
   -0.7220    1.9220   -0.0480 N   0  0  0  0  0  0  0  0  0  0  0  0
   -1.8510    1.1990   -0.1340 C   0  0  0  0  0  0  0  0  0  0  0  0
   -1.4920   -0.1030   -0.2230 C   0  0  0  0  0  0  0  0  0  0  0  0
   -0.1090   -0.1510   -0.1890 C   0  0  0  0  0  0  0  0  0  0  0  0
    0.9980   -0.9460   -0.2200 N   0  0  0  0  0  0  0  0  0  0  0  0
   -2.4160   -1.2190   -0.3300 C   0  0  0  0  0  0  0  0  0  0  0  0
   -2.1500   -2.2140   -1.0280 O   0  0  0  0  0  0  0  0  0  0  0  0
   -3.7310   -1.2310    0.3930 C   0  0  0  0  0  0  0  0  0  0  0  0
   -4.1570    0.4290    0.9810 S   0  0  0  0  0  0  0  0  0  0  0  0
   -3.3070    1.5850   -0.1500 C   0  0  0  0  0  0  0  0  0  0  0  0
  1  2  1  0
  2  3  1  0
  3  4  2  0
  3 10  1  0
  4  5  1  0
  5  6  1  0
  5  9  1  0
  6  7  2  0
  7  8  1  0
  7 15  1  0
  8  9  2  0
  8 11  1  0
  9 10  1  0
 11 12  2  0
 11 13  1  0
 13 14  1  0
 14 15  1  0
M  END
