
     RDKit          3D

 15 17  0  0  0  0  0  0  0  0999 V2000
   -4.6070    0.1360    0.0740 O   0  0  0  0  0  0  0  0  0  0  0  0
   -3.1980    0.1790    0.0410 C   0  0  0  0  0  0  0  0  0  0  0  0
   -2.5550    1.3710    0.2680 C   0  0  0  0  0  0  0  0  0  0  0  0
   -1.2140    1.3860    0.2310 N   0  0  0  0  0  0  0  0  0  0  0  0
   -0.4460    0.3200   -0.0130 C   0  0  0  0  0  0  0  0  0  0  0  0
   -1.0840   -0.8770   -0.2430 C   0  0  0  0  0  0  0  0  0  0  0  0
   -2.4690   -0.9620   -0.2180 C   0  0  0  0  0  0  0  0  0  0  0  0
   -0.3370   -1.9780   -0.4940 N   0  0  0  0  0  0  0  0  0  0  0  0
    1.0090   -1.9130   -0.5210 C   0  0  0  0  0  0  0  0  0  0  0  0
    1.7010   -0.7440   -0.2990 C   0  0  0  0  0  0  0  0  0  0  0  0
    2.9860   -0.3680   -0.2600 N   0  0  0  0  0  0  0  0  0  0  0  0
    3.0770    0.9540    0.0110 C   0  0  0  0  0  0  0  0  0  0  0  0
    4.5470    1.9600    0.1760 S   0  0  0  0  0  0  0  0  0  0  0  0
    1.8150    1.3940    0.1410 N   0  0  0  0  0  0  0  0  0  0  0  0
    0.9250    0.3890   -0.0410 C   0  0  0  0  0  0  0  0  0  0  0  0
  1  2  1  0
  2  3  2  0
  2  7  1  0
  3  4  1  0
  4  5  2  0
  5  6  1  0
  5 15  1  0
  6  7  2  0
  6  8  1  0
  8  9  2  0
  9 10  1  0
 10 11  1  0
 10 15  2  0
 11 12  1  0
 12 13  1  0
 12 14  2  0
 14 15  1  0
M  END
