
     RDKit          3D

 15 17  0  0  0  0  0  0  0  0999 V2000
   -4.7060    0.1930    0.5890 C   0  0  0  0  0  0  0  0  0  0  0  0
   -3.3250    0.3410    0.6680 O   0  0  0  0  0  0  0  0  0  0  0  0
   -2.4320   -0.3280   -0.1870 C   0  0  0  0  0  0  0  0  0  0  0  0
   -2.7440   -1.1830   -1.1780 N   0  0  0  0  0  0  0  0  0  0  0  0
   -1.6650   -1.6350   -1.7900 N   0  0  0  0  0  0  0  0  0  0  0  0
   -0.5550   -1.1100   -1.2450 C   0  0  0  0  0  0  0  0  0  0  0  0
    0.7650   -1.2080   -1.4540 N   0  0  0  0  0  0  0  0  0  0  0  0
    1.6730   -0.5250   -0.7080 C   0  0  0  0  0  0  0  0  0  0  0  0
    1.1970    0.2920    0.2940 C   0  0  0  0  0  0  0  0  0  0  0  0
   -0.1420    0.4520    0.5770 C   0  0  0  0  0  0  0  0  0  0  0  0
   -1.0570   -0.2360   -0.1740 C   0  0  0  0  0  0  0  0  0  0  0  0
    2.3120    0.9140    0.9600 N   0  0  0  0  0  0  0  0  0  0  0  0
    2.3070    2.4060    1.8590 S   0  0  0  0  0  0  0  0  0  0  0  0
    3.4350    0.0270    0.7190 C   0  0  0  0  0  0  0  0  0  0  0  0
    3.1390   -0.4190   -0.6940 C   0  0  0  0  0  0  0  0  0  0  0  0
  1  2  1  0
  2  3  1  0
  3  4  2  0
  3 11  1  0
  4  5  1  0
  5  6  2  0
  6  7  1  0
  6 11  1  0
  7  8  1  0
  8  9  2  0
  8 15  1  0
  9 10  1  0
  9 12  1  0
 10 11  2  0
 12 13  1  0
 12 14  1  0
 14 15  1  0
M  END
