
     RDKit          3D

 15 17  0  0  0  0  0  0  0  0999 V2000
    3.1760    2.1660   -0.5770 O   0  0  0  0  0  0  0  0  0  0  0  0
    2.7590    0.8770   -0.2760 C   0  0  0  0  0  0  0  0  0  0  0  0
    1.4100    0.5320   -0.2520 C   0  0  0  0  0  0  0  0  0  0  0  0
    0.9480   -0.7110    0.0360 C   0  0  0  0  0  0  0  0  0  0  0  0
   -0.4690   -1.0930    0.0670 C   0  0  0  0  0  0  0  0  0  0  0  0
   -0.8510   -2.3640    0.3590 N   0  0  0  0  0  0  0  0  0  0  0  0
   -2.1740   -2.4440    0.3210 N   0  0  0  0  0  0  0  0  0  0  0  0
   -2.5970   -1.2190    0.0050 C   0  0  0  0  0  0  0  0  0  0  0  0
   -1.5840   -0.3870   -0.1530 N   0  0  0  0  0  0  0  0  0  0  0  0
   -1.8840    0.9550   -0.4920 C   0  0  0  0  0  0  0  0  0  0  0  0
   -3.3150    1.2670   -0.5300 C   0  0  0  0  0  0  0  0  0  0  0  0
   -4.1150   -0.3450   -0.2740 S   0  0  0  0  0  0  0  0  0  0  0  0
    1.9300   -1.6650    0.3190 C   0  0  0  0  0  0  0  0  0  0  0  0
    3.2670   -1.3380    0.3000 C   0  0  0  0  0  0  0  0  0  0  0  0
    3.6600   -0.0740    0.0030 N   0  0  0  0  0  0  0  0  0  0  0  0
  1  2  1  0
  2  3  2  0
  2 15  1  0
  3  4  1  0
  4  5  1  0
  4 13  2  0
  5  6  2  0
  5  9  1  0
  6  7  1  0
  7  8  2  0
  8  9  1  0
  8 12  1  0
  9 10  1  0
 10 11  1  0
 11 12  1  0
 13 14  1  0
 14 15  2  0
M  END
