
     RDKit          3D

 15 17  0  0  0  0  0  0  0  0999 V2000
   -2.8420    1.1580    1.5600 C   0  0  0  0  0  0  0  0  0  0  0  0
   -1.5450    0.8130    0.9850 C   0  0  0  0  0  0  0  0  0  0  0  0
   -0.4810    1.6110    1.3220 N   0  0  0  0  0  0  0  0  0  0  0  0
    0.7290    1.3330    0.8180 C   0  0  0  0  0  0  0  0  0  0  0  0
    2.3450    2.1280    1.0170 S   0  0  0  0  0  0  0  0  0  0  0  0
    3.2590    0.9500   -0.0870 C   0  0  0  0  0  0  0  0  0  0  0  0
    4.4180    0.6910   -0.5650 N   0  0  0  0  0  0  0  0  0  0  0  0
    4.2760   -0.4000   -1.3460 C   0  0  0  0  0  0  0  0  0  0  0  0
    2.9430   -0.7430   -1.2760 C   0  0  0  0  0  0  0  0  0  0  0  0
    2.2770    0.1580   -0.4390 N   0  0  0  0  0  0  0  0  0  0  0  0
    1.0440    0.3070   -0.0260 C   0  0  0  0  0  0  0  0  0  0  0  0
   -0.0850   -0.4590   -0.3230 N   0  0  0  0  0  0  0  0  0  0  0  0
   -1.2820   -0.2260    0.1440 C   0  0  0  0  0  0  0  0  0  0  0  0
   -2.4180   -1.1100   -0.2390 C   0  0  0  0  0  0  0  0  0  0  0  0
   -2.0230   -2.1290   -1.0970 O   0  0  0  0  0  0  0  0  0  0  0  0
  1  2  1  0
  2  3  2  0
  2 13  1  0
  3  4  1  0
  4  5  1  0
  4 11  2  0
  5  6  1  0
  6  7  2  0
  6 10  1  0
  7  8  1  0
  8  9  2  0
  9 10  1  0
 10 11  1  0
 11 12  1  0
 12 13  2  0
 13 14  1  0
 14 15  1  0
M  END
