
     RDKit          3D

 12 11  0  0  0  0  0  0  0  0999 V2000
   -2.2820    2.3280    1.3550 C   0  0  0  0  0  0  0  0  0  0  0  0
   -2.1330    1.2750    2.0730 C   0  0  0  0  0  0  0  0  0  0  0  0
   -3.0170    1.2440    3.2160 O   0  0  0  0  0  0  0  0  0  0  0  0
   -1.2780    0.1310    1.9770 C   0  0  0  0  0  0  0  0  0  0  0  0
   -1.4290   -0.7940    2.9630 C   0  0  0  0  0  0  0  0  0  0  0  0
   -0.2860   -0.1920    1.0010 C   0  0  0  0  0  0  0  0  0  0  0  0
    0.1260    0.4380   -0.0610 C   0  0  0  0  0  0  0  0  0  0  0  0
    1.2000   -0.2020   -0.8670 C   0  0  0  0  0  0  0  0  0  0  0  0
    1.6740   -1.3060   -0.5160 O   0  0  0  0  0  0  0  0  0  0  0  0
    1.6970    0.3900   -2.0040 O   0  0  0  0  0  0  0  0  0  0  0  0
    2.7200   -0.2570   -2.7400 C   0  0  0  0  0  0  0  0  0  0  0  0
    2.1630   -1.6000   -3.1820 C   0  0  0  0  0  0  0  0  0  0  0  0
  1  2  2  0
  2  3  1  0
  2  4  1  0
  4  5  2  0
  4  6  1  0
  6  7  2  3
  7  8  1  0
  8  9  2  0
  8 10  1  0
 10 11  1  0
 11 12  1  0
M  END
