
     RDKit          3D

 12 12  0  0  0  0  0  0  0  0999 V2000
   -2.0330    2.1940    0.0450 C   0  0  0  0  0  0  0  0  0  0  0  0
   -1.8080    0.9130    0.2280 C   0  0  0  0  0  0  0  0  0  0  0  0
   -2.9480    0.1440    0.5120 O   0  0  0  0  0  0  0  0  0  0  0  0
   -0.4900    0.3360    0.1470 C   0  0  0  0  0  0  0  0  0  0  0  0
   -0.4030   -0.9760    0.3300 C   0  0  0  0  0  0  0  0  0  0  0  0
   -1.6100   -1.7720    0.6040 C   0  0  0  0  0  0  0  0  0  0  0  0
    0.7880   -1.7150    0.2830 O   0  0  0  0  0  0  0  0  0  0  0  0
    1.9210   -1.4950   -0.5540 C   0  0  0  0  0  0  0  0  0  0  0  0
    2.5910   -0.2020   -0.1600 C   0  0  0  0  0  0  0  0  0  0  0  0
    1.8470    0.9380   -0.8780 C   0  0  0  0  0  0  0  0  0  0  0  0
    0.6460    1.2410   -0.0820 C   0  0  0  0  0  0  0  0  0  0  0  0
    0.5730    2.3930    0.4690 O   0  0  0  0  0  0  0  0  0  0  0  0
  1  2  2  0
  2  3  1  0
  2  4  1  0
  4  5  2  0
  4 11  1  0
  5  6  1  0
  5  7  1  0
  7  8  1  0
  8  9  1  0
  9 10  1  0
 10 11  1  0
 11 12  2  0
M  END
