
     RDKit          3D

 12 12  0  0  0  0  0  0  0  0999 V2000
    3.4760   -0.1120   -1.8200 O   0  0  0  0  0  0  0  0  0  0  0  0
    3.2420   -0.2350   -0.5770 C   0  0  0  0  0  0  0  0  0  0  0  0
    4.3450   -0.3210    0.2460 O   0  0  0  0  0  0  0  0  0  0  0  0
    1.8780   -0.2780   -0.0870 C   0  0  0  0  0  0  0  0  0  0  0  0
    1.6780   -0.3990    1.1400 O   0  0  0  0  0  0  0  0  0  0  0  0
    0.7300   -0.1820   -1.0030 C   0  0  0  0  0  0  0  0  0  0  0  0
   -0.5700   -0.2470   -0.2970 C   0  0  0  0  0  0  0  0  0  0  0  0
   -1.2410   -1.4270   -0.0490 C   0  0  0  0  0  0  0  0  0  0  0  0
   -2.4530   -1.4860    0.6090 C   0  0  0  0  0  0  0  0  0  0  0  0
   -3.0340   -0.3240    1.0460 C   0  0  0  0  0  0  0  0  0  0  0  0
   -2.3860    0.8630    0.8110 C   0  0  0  0  0  0  0  0  0  0  0  0
   -1.1730    0.9250    0.1530 C   0  0  0  0  0  0  0  0  0  0  0  0
  1  2  2  0
  2  3  1  0
  2  4  1  0
  4  5  2  0
  4  6  1  0
  6  7  1  0
  7  8  2  0
  7 12  1  0
  8  9  1  0
  9 10  2  0
 10 11  1  0
 11 12  2  0
M  END
