
     RDKit          3D

 12 12  0  0  0  0  0  0  0  0999 V2000
    4.4190   -0.1840   -0.2590 C   0  0  0  0  0  0  0  0  0  0  0  0
    3.5430   -0.2290   -1.3260 O   0  0  0  0  0  0  0  0  0  0  0  0
    2.2160   -0.0540   -0.9520 C   0  0  0  0  0  0  0  0  0  0  0  0
    1.7280   -1.0850    0.0030 C   0  0  0  0  0  0  0  0  0  0  0  0
    0.2870   -0.8400    0.3590 C   0  0  0  0  0  0  0  0  0  0  0  0
    0.0120    0.4770    1.0090 C   0  0  0  0  0  0  0  0  0  0  0  0
   -1.3670    0.6180    1.3140 O   0  0  0  0  0  0  0  0  0  0  0  0
   -2.3580    0.5800    0.3540 C   0  0  0  0  0  0  0  0  0  0  0  0
   -3.0250   -0.5080    0.0160 C   0  0  0  0  0  0  0  0  0  0  0  0
   -3.9990   -0.1410   -1.0440 C   0  0  0  0  0  0  0  0  0  0  0  0
   -4.0720    1.2400   -1.0270 O   0  0  0  0  0  0  0  0  0  0  0  0
   -2.8770    1.6960   -0.4760 C   0  0  0  0  0  0  0  0  0  0  0  0
  1  2  1  0
  2  3  1  0
  3  4  1  0
  4  5  1  0
  5  6  1  0
  6  7  1  0
  7  8  1  0
  8  9  2  0
  8 12  1  0
  9 10  1  0
 10 11  1  0
 11 12  1  0
M  END
