
     RDKit          3D

 19 21  0  0  0  0  0  0  0  0999 V2000
    4.5110    2.1300    0.8570 O   0  0  0  0  0  0  0  0  0  0  0  0
    3.7890    1.1780    0.4910 C   0  0  0  0  0  0  0  0  0  0  0  0
    2.4570    1.3400    0.5010 N   0  0  0  0  0  0  0  0  0  0  0  0
    1.5960    0.3610    0.1220 C   0  0  0  0  0  0  0  0  0  0  0  0
    0.2390    0.5570    0.1470 C   0  0  0  0  0  0  0  0  0  0  0  0
   -0.6940   -0.3900   -0.2210 C   0  0  0  0  0  0  0  0  0  0  0  0
   -2.1200   -0.0740   -0.1520 C   0  0  0  0  0  0  0  0  0  0  0  0
   -3.0640   -1.0490    0.1210 C   0  0  0  0  0  0  0  0  0  0  0  0
   -4.3970   -0.7400    0.1840 C   0  0  0  0  0  0  0  0  0  0  0  0
   -4.8290    0.5630   -0.0260 C   0  0  0  0  0  0  0  0  0  0  0  0
   -6.1360    0.9020    0.0300 F   0  0  0  0  0  0  0  0  0  0  0  0
   -3.9070    1.5500   -0.3000 C   0  0  0  0  0  0  0  0  0  0  0  0
   -2.5640    1.1980   -0.3560 C   0  0  0  0  0  0  0  0  0  0  0  0
   -0.2150   -1.6120   -0.6400 C   0  0  0  0  0  0  0  0  0  0  0  0
    1.1600   -1.8480   -0.6790 C   0  0  0  0  0  0  0  0  0  0  0  0
    2.0610   -0.8630   -0.2980 C   0  0  0  0  0  0  0  0  0  0  0  0
    3.4250   -1.0390   -0.3120 C   0  0  0  0  0  0  0  0  0  0  0  0
    4.3090   -0.0450    0.0740 C   0  0  0  0  0  0  0  0  0  0  0  0
    5.6720   -0.2100    0.0640 O   0  0  0  0  0  0  0  0  0  0  0  0
  1  2  2  0
  2  3  1  0
  2 18  1  0
  3  4  1  0
  4  5  2  0
  4 16  1  0
  5  6  1  0
  6  7  1  0
  6 14  2  0
  7  8  2  0
  7 13  1  0
  8  9  1  0
  9 10  2  0
 10 11  1  0
 10 12  1  0
 12 13  2  0
 14 15  1  0
 15 16  2  0
 16 17  1  0
 17 18  2  0
 18 19  1  0
M  END
