
     RDKit          3D

 27 28  0  0  0  0  0  0  0  0999 V2000
    4.3280   -1.1230    1.8030 C   0  0  0  0  0  0  0  0  0  0  0  0
    4.0510   -0.2230    0.6680 C   0  0  0  0  0  0  0  0  0  0  0  0
    5.0540    0.5960    0.2020 C   0  0  0  0  0  0  0  0  0  0  0  0
    4.8600    1.4650   -0.8610 C   0  0  0  0  0  0  0  0  0  0  0  0
    3.6190    1.4860   -1.4450 C   0  0  0  0  0  0  0  0  0  0  0  0
    3.4200    2.3680   -2.5250 N   0  0  0  0  0  0  0  0  0  0  0  0
    2.6170    0.6540   -0.9640 C   0  0  0  0  0  0  0  0  0  0  0  0
    2.7870   -0.2140    0.0870 C   0  0  0  0  0  0  0  0  0  0  0  0
    1.7770   -1.0220    0.5370 O   0  0  0  0  0  0  0  0  0  0  0  0
    0.4600   -1.1160    0.0470 C   0  0  1  0  0  0  0  0  0  0  0  0
    0.2760   -2.5690   -0.3660 C   0  0  0  0  0  0  0  0  0  0  0  0
   -0.8950   -2.8010   -1.2860 C   0  0  0  0  0  0  0  0  0  0  0  0
   -2.1340   -3.1300   -0.5330 C   0  0  0  0  0  0  0  0  0  0  0  0
   -2.0420   -4.2540    0.1150 O   0  0  0  0  0  0  0  0  0  0  0  0
   -3.3250   -2.4330   -0.4330 N   0  0  0  0  0  0  0  0  0  0  0  0
   -3.6490   -1.1550    0.1140 C   0  0  0  0  0  0  0  0  0  0  0  0
   -3.0550   -0.0700   -0.7370 C   0  0  0  0  0  0  0  0  0  0  0  0
   -3.2660    1.2670   -0.2300 N   0  0  0  0  0  0  0  0  0  0  0  0
   -2.5330    1.9480    0.5770 C   0  0  0  0  0  0  0  0  0  0  0  0
   -3.0650    3.3280    0.8900 C   0  0  0  0  0  0  0  0  0  0  0  0
   -2.0740    4.3300    1.9710 Cl  0  0  0  0  0  0  0  0  0  0  0  0
   -4.1470    3.8310    0.4350 C   0  0  0  0  0  0  0  0  0  0  0  0
   -4.5060    5.1070    0.8090 F   0  0  0  0  0  0  0  0  0  0  0  0
   -1.3170    1.5230    1.1710 N   0  0  0  0  0  0  0  0  0  0  0  0
   -0.8580    0.3670    1.7340 N   0  0  0  0  0  0  0  0  0  0  0  0
   -0.4610   -0.8800    1.2090 C   0  0  0  0  0  0  0  0  0  0  0  0
   -0.9460   -1.9180    1.8010 O   0  0  0  0  0  0  0  0  0  0  0  0
  1  2  1  0
  2  3  2  0
  2  8  1  0
  3  4  1  0
  4  5  2  0
  5  6  1  0
  5  7  1  0
  7  8  2  0
  8  9  1  0
 10  9  1  1
 10 11  1  0
 10 26  1  0
 11 12  1  0
 12 13  1  0
 13 14  2  0
 13 15  1  0
 15 16  1  0
 16 17  1  0
 17 18  1  0
 18 19  2  0
 19 20  1  0
 19 24  1  0
 20 21  1  0
 20 22  2  3
 22 23  1  0
 24 25  1  0
 25 26  1  0
 26 27  2  0
M  CHG  1  18   1
M  END
