
     RDKit          3D

 27 29  0  0  0  0  0  0  0  0999 V2000
    6.7050    3.1630   -1.3920 N   0  0  0  0  0  0  0  0  0  0  0  0
    6.2680    1.9180   -0.8100 C   0  0  0  0  0  0  0  0  0  0  0  0
    7.0520    0.7220   -0.9750 C   0  0  0  0  0  0  0  0  0  0  0  0
    8.1940    0.6800   -1.6450 C   0  0  0  0  0  0  0  0  0  0  0  0
    9.0520   -0.8700   -1.7690 Cl  0  0  0  0  0  0  0  0  0  0  0  0
    5.1470    1.9540   -0.1460 C   0  0  0  0  0  0  0  0  0  0  0  0
    4.4790    0.8550    0.5350 C   0  0  0  0  0  0  0  0  0  0  0  0
    3.3460    1.1010    1.1730 C   0  0  0  0  0  0  0  0  0  0  0  0
    2.3720    0.1840    0.9820 C   0  0  0  0  0  0  0  0  0  0  0  0
    1.0710    0.6500    0.7590 C   0  0  0  0  0  0  0  0  0  0  0  0
    0.5950    1.7150    0.6920 O   0  0  0  0  0  0  0  0  0  0  0  0
   -0.0790   -0.6310    0.5450 N   0  0  0  0  0  0  0  0  0  0  0  0
   -1.2390    0.2280    0.5230 C   0  0  0  0  0  0  0  0  0  0  0  0
   -1.4940    1.3580    0.5750 O   0  0  0  0  0  0  0  0  0  0  0  0
   -2.4160   -0.7030    0.3890 N   0  0  0  0  0  0  0  0  0  0  0  0
   -3.7130   -0.2270    0.3600 C   0  0  0  0  0  0  0  0  0  0  0  0
   -4.8020   -1.0910    0.2290 C   0  0  0  0  0  0  0  0  0  0  0  0
   -5.9360   -0.3090    0.2470 C   0  0  0  0  0  0  0  0  0  0  0  0
   -7.3420   -0.8420    0.1140 C   0  0  1  0  0  0  0  0  0  0  0  0
   -7.3990   -1.9950   -0.8810 C   0  0  0  0  0  0  0  0  0  0  0  0
   -7.6290   -2.2410    0.5510 C   0  0  0  0  0  0  0  0  0  0  0  0
   -5.5450    0.9510    0.3830 N   0  0  0  0  0  0  0  0  0  0  0  0
   -4.1950    1.0000    0.4520 N   0  0  0  0  0  0  0  0  0  0  0  0
    2.7800   -1.2060    1.0400 C   0  0  0  0  0  0  0  0  0  0  0  0
    4.0620   -1.5130    0.8450 C   0  0  0  0  0  0  0  0  0  0  0  0
    4.4790   -2.8100    0.9000 F   0  0  0  0  0  0  0  0  0  0  0  0
    4.9030   -0.4540    0.5920 O   0  0  0  0  0  0  0  0  0  0  0  0
  1  2  1  0
  2  3  1  0
  2  6  2  3
  3  4  2  3
  4  5  1  0
  6  7  1  0
  7  8  2  0
  7 27  1  0
  8  9  2  0
  9 10  1  0
  9 24  1  0
 10 11  2  0
 10 12  1  0
 12 13  1  0
 13 14  2  0
 13 15  1  0
 15 16  1  0
 16 17  2  0
 16 23  1  0
 17 18  1  0
 19 18  1  1
 18 22  2  0
 19 20  1  0
 19 21  1  0
 20 21  1  0
 22 23  1  0
 24 25  2  0
 25 26  1  0
 25 27  1  0
M  CHG  1  22   1
M  END
