
     RDKit          3D

 23 24  0  0  0  0  0  0  0  0999 V2000
   -3.0330    2.2370   -1.6680 C   0  0  0  0  0  0  0  0  0  0  0  0
   -2.3950    1.1170   -0.9270 C   0  0  0  0  0  0  0  0  0  0  0  0
   -2.8410   -0.1230   -0.8910 C   0  0  0  0  0  0  0  0  0  0  0  0
   -3.9490   -0.6190   -1.5100 O   0  0  0  0  0  0  0  0  0  0  0  0
   -4.9230   -1.4370   -0.9050 C   0  0  0  0  0  0  0  0  0  0  0  0
   -5.5890   -0.7630    0.2710 C   0  0  0  0  0  0  0  0  0  0  0  0
   -4.6660   -0.4300    1.2640 O   0  0  0  0  0  0  0  0  0  0  0  0
   -1.8980   -0.8490   -0.0490 C   0  0  0  0  0  0  0  0  0  0  0  0
   -1.9280   -2.0740    0.2660 O   0  0  0  0  0  0  0  0  0  0  0  0
   -0.8510    0.0720    0.4110 C   0  0  0  0  0  0  0  0  0  0  0  0
    0.1970   -0.2590    1.2160 O   0  0  0  0  0  0  0  0  0  0  0  0
    1.5300   -0.1740    0.8910 C   0  0  0  0  0  0  0  0  0  0  0  0
    1.9900    0.2690   -0.3270 C   0  0  0  0  0  0  0  0  0  0  0  0
    3.3630    0.3200   -0.5640 C   0  0  0  0  0  0  0  0  0  0  0  0
    4.2810   -0.0600    0.3840 C   0  0  0  0  0  0  0  0  0  0  0  0
    5.7480   -0.0120    0.1470 C   0  0  0  0  0  0  0  0  0  0  0  0
    6.1050    0.4630   -1.1520 N   0  0  0  0  0  0  0  0  0  0  0  0
    6.8110    1.5060   -1.2910 O   0  0  0  0  0  0  0  0  0  0  0  0
    5.7110   -0.1700   -2.3050 O   0  0  0  0  0  0  0  0  0  0  0  0
    3.8160   -0.5020    1.5980 C   0  0  0  0  0  0  0  0  0  0  0  0
    4.7440   -0.8870    2.5580 O   0  0  0  0  0  0  0  0  0  0  0  0
    2.4550   -0.5520    1.8330 C   0  0  0  0  0  0  0  0  0  0  0  0
   -1.1720    1.2360   -0.1260 C   0  0  0  0  0  0  0  0  0  0  0  0
  1  2  1  0
  2  3  2  0
  2 23  1  0
  3  4  1  0
  3  8  1  0
  4  5  1  0
  5  6  1  0
  6  7  1  0
  8  9  2  0
  8 10  1  0
 10 11  1  0
 10 23  2  0
 11 12  1  0
 12 13  2  0
 12 22  1  0
 13 14  1  0
 14 15  2  0
 15 16  1  0
 15 20  1  0
 16 17  1  0
 17 18  2  0
 17 19  1  0
 20 21  1  0
 20 22  2  0
M  CHG  2  17   1  19  -1
M  END
