
     RDKit          3D

 23 24  0  0  0  0  0  0  0  0999 V2000
   -2.7430    2.9060    3.0040 O   0  0  0  0  0  0  0  0  0  0  0  0
   -3.5570    2.2010    2.3600 C   0  0  0  0  0  0  0  0  0  0  0  0
   -4.8970    2.3170    2.6180 O   0  0  0  0  0  0  0  0  0  0  0  0
   -3.0350    1.2650    1.3390 C   0  0  0  0  0  0  0  0  0  0  0  0
   -1.6810    1.1680    1.0980 C   0  0  0  0  0  0  0  0  0  0  0  0
   -1.1600    0.3070    0.1550 C   0  0  0  0  0  0  0  0  0  0  0  0
    0.2090    0.2850   -0.0110 O   0  0  0  0  0  0  0  0  0  0  0  0
    0.8640   -0.5540   -0.9450 C   0  0  0  0  0  0  0  0  0  0  0  0
    2.3230   -0.3270   -0.8610 C   0  0  0  0  0  0  0  0  0  0  0  0
    2.9420    0.6390   -1.6500 C   0  0  0  0  0  0  0  0  0  0  0  0
    4.2900    0.8790   -1.6020 C   0  0  0  0  0  0  0  0  0  0  0  0
    5.0800    0.1530   -0.7520 C   0  0  0  0  0  0  0  0  0  0  0  0
    4.4880   -0.8190    0.0470 C   0  0  0  0  0  0  0  0  0  0  0  0
    5.3260   -1.5560    0.9170 N   0  0  0  0  0  0  0  0  0  0  0  0
    4.8080   -2.4360    1.6450 O   0  0  0  0  0  0  0  0  0  0  0  0
    6.6600   -1.3460    0.9910 O   0  0  0  0  0  0  0  0  0  0  0  0
    3.1250   -1.0560   -0.0060 C   0  0  0  0  0  0  0  0  0  0  0  0
   -2.0220   -0.4820   -0.5720 C   0  0  0  0  0  0  0  0  0  0  0  0
   -3.3790   -0.3880   -0.3350 C   0  0  0  0  0  0  0  0  0  0  0  0
   -4.2950   -1.2230   -1.1030 C   0  0  0  0  0  0  0  0  0  0  0  0
   -5.5360   -1.1690   -0.9190 O   0  0  0  0  0  0  0  0  0  0  0  0
   -3.8450   -2.1130   -2.0690 O   0  0  0  0  0  0  0  0  0  0  0  0
   -3.8990    0.4730    0.6090 C   0  0  0  0  0  0  0  0  0  0  0  0
  1  2  2  0
  2  3  1  0
  2  4  1  0
  4  5  2  0
  4 23  1  0
  5  6  1  0
  6  7  1  0
  6 18  2  0
  7  8  1  0
  8  9  1  0
  9 10  2  0
  9 17  1  0
 10 11  1  0
 11 12  2  0
 12 13  1  0
 13 14  1  0
 13 17  2  0
 14 15  2  0
 14 16  1  0
 18 19  1  0
 19 20  1  0
 19 23  2  0
 20 21  2  0
 20 22  1  0
M  CHG  2  14   1  16  -1
M  END
