
     RDKit          3D

 24 26  0  0  0  0  0  0  0  0999 V2000
   -5.2970    1.5160    1.1050 C   0  0  0  0  0  0  0  0  0  0  0  0
   -4.8790    1.0050   -0.2670 C   0  0  1  0  0  0  0  0  0  0  0  0
   -3.3680    1.0920   -0.3720 C   0  0  0  0  0  0  0  0  0  0  0  0
   -2.5980    2.1060    0.0190 N   0  0  0  0  0  0  0  0  0  0  0  0
   -1.2720    1.9910   -0.0150 C   0  0  0  0  0  0  0  0  0  0  0  0
   -0.5060    2.9260    0.3460 O   0  0  0  0  0  0  0  0  0  0  0  0
   -0.6550    0.7990   -0.4520 C   0  0  0  0  0  0  0  0  0  0  0  0
    0.8160    0.8460   -0.4860 C   0  0  2  0  0  0  0  0  0  0  0  0
    1.2730    0.4120   -1.7620 O   0  0  0  0  0  0  0  0  0  0  0  0
    1.4950   -0.0560    0.5250 C   0  0  0  0  0  0  0  0  0  0  0  0
    2.8980    0.0820    0.6760 N   0  0  2  0  0  0  0  0  0  0  0  0
    3.3340    1.4600    0.5470 C   0  0  0  0  0  0  0  0  0  0  0  0
    3.7550   -0.8110    0.0030 C   0  0  0  0  0  0  0  0  0  0  0  0
    5.1850   -0.5650    0.3890 C   0  0  0  0  0  0  0  0  0  0  0  0
    6.2230   -1.1570   -0.3290 C   0  0  0  0  0  0  0  0  0  0  0  0
    7.4000   -0.7370    0.2560 C   0  0  0  0  0  0  0  0  0  0  0  0
    7.0080    0.0960    1.3050 C   0  0  0  0  0  0  0  0  0  0  0  0
    5.7190    0.1410    1.3120 O   0  0  0  0  0  0  0  0  0  0  0  0
   -1.4660   -0.2230   -0.8490 C   0  0  0  0  0  0  0  0  0  0  0  0
   -2.8560   -0.0830   -0.8160 C   0  0  0  0  0  0  0  0  0  0  0  0
   -3.9800   -0.8960   -1.2780 C   0  0  1  0  0  0  0  0  0  0  0  0
   -3.7950   -2.2510   -1.3500 O   0  0  0  0  0  0  0  0  0  0  0  0
   -5.1720   -0.4350   -0.4870 C   0  0  1  0  0  0  0  0  0  0  0  0
   -5.2620   -1.2520    0.6980 N   0  0  0  0  0  0  0  0  0  0  0  0
  2  1  1  1
  2  3  1  0
  2 23  1  0
  3  4  1  0
  3 20  2  0
  4  5  1  0
  5  6  2  0
  5  7  1  0
  7  8  1  0
  7 19  2  0
  8  9  1  6
  8 10  1  0
 10 11  1  0
 11 12  1  6
 11 13  1  0
 13 14  1  0
 14 15  2  0
 14 18  1  0
 15 16  1  0
 16 17  2  0
 17 18  1  0
 19 20  1  0
 20 21  1  0
 21 22  1  1
 21 23  1  0
 23 24  1  1
M  CHG  1  11   1
M  END
