
     RDKit          3D

 23 24  0  0  0  0  0  0  0  0999 V2000
    0.1480   -1.1380   -0.7900 O   0  0  0  0  0  0  0  0  0  0  0  0
   -0.3230   -0.1810   -0.1290 C   0  0  0  0  0  0  0  0  0  0  0  0
   -1.7170   -0.0680   -0.1380 O   0  0  0  0  0  0  0  0  0  0  0  0
   -2.5290   -0.9830   -0.8530 C   0  0  0  0  0  0  0  0  0  0  0  0
   -3.9460   -0.5390   -0.6250 C   0  0  0  0  0  0  0  0  0  0  0  0
   -4.5540    0.3620   -1.4790 C   0  0  0  0  0  0  0  0  0  0  0  0
   -5.8470    0.8040   -1.3210 C   0  0  0  0  0  0  0  0  0  0  0  0
   -6.5830    0.3320   -0.2620 C   0  0  0  0  0  0  0  0  0  0  0  0
   -7.9140    0.7560   -0.0570 O   0  0  0  0  0  0  0  0  0  0  0  0
   -5.9940   -0.5670    0.6000 C   0  0  0  0  0  0  0  0  0  0  0  0
   -4.6990   -0.9960    0.4230 C   0  0  0  0  0  0  0  0  0  0  0  0
    0.4720    0.7240    0.5770 O   0  0  0  0  0  0  0  0  0  0  0  0
    1.8640    0.5390    0.5350 C   0  0  0  0  0  0  0  0  0  0  0  0
    2.6270    1.1350   -0.4370 C   0  0  0  0  0  0  0  0  0  0  0  0
    4.0110    0.9230   -0.4420 C   0  0  0  0  0  0  0  0  0  0  0  0
    4.6260    0.1340    0.5030 C   0  0  0  0  0  0  0  0  0  0  0  0
    6.0920   -0.1200    0.5210 C   0  0  0  0  0  0  0  0  0  0  0  0
    6.7080    0.5990   -0.5510 N   0  0  0  0  0  0  0  0  0  0  0  0
    7.2670   -0.0190   -1.4700 O   0  0  0  0  0  0  0  0  0  0  0  0
    6.6900    1.9630   -0.5800 O   0  0  0  0  0  0  0  0  0  0  0  0
    3.8040   -0.4510    1.4710 C   0  0  0  0  0  0  0  0  0  0  0  0
    4.4280   -1.2460    2.4210 O   0  0  0  0  0  0  0  0  0  0  0  0
    2.4450   -0.2550    1.4920 C   0  0  0  0  0  0  0  0  0  0  0  0
  1  2  2  0
  2  3  1  0
  2 12  1  0
  3  4  1  0
  4  5  1  0
  5  6  2  0
  5 11  1  0
  6  7  1  0
  7  8  2  0
  8  9  1  0
  8 10  1  0
 10 11  2  0
 12 13  1  0
 13 14  2  0
 13 23  1  0
 14 15  1  0
 15 16  2  0
 16 17  1  0
 16 21  1  0
 17 18  1  0
 18 19  2  0
 18 20  1  0
 21 22  1  0
 21 23  2  0
M  CHG  2  18   1  20  -1
M  END
