
     RDKit          3D

 40 44  0  0  0  0  0  0  0  0999 V2000
    3.9150   -4.3380    0.6300 C   0  0  0  0  0  0  0  0  0  0  0  0
    3.2920   -3.6870   -0.5980 C   0  0  0  0  0  0  0  0  0  0  0  0
    4.3220   -3.5860   -1.6890 C   0  0  0  0  0  0  0  0  0  0  0  0
    5.3940   -2.8450   -1.3240 O   0  0  0  0  0  0  0  0  0  0  0  0
    5.5220   -1.5310   -1.0130 C   0  0  0  0  0  0  0  0  0  0  0  0
    4.5040   -0.6040   -1.0480 C   0  0  0  0  0  0  0  0  0  0  0  0
    4.7030    0.7270   -0.7110 C   0  0  0  0  0  0  0  0  0  0  0  0
    3.6350    1.7190   -0.7420 C   0  0  0  0  0  0  0  0  0  0  0  0
    3.9220    2.8950   -0.4170 O   0  0  0  0  0  0  0  0  0  0  0  0
    2.3490    1.4510   -1.1000 O   0  0  0  0  0  0  0  0  0  0  0  0
    1.2510    2.3060   -1.1640 C   0  0  2  0  0  0  0  0  0  0  0  0
   -0.0370    1.6700   -1.6290 C   0  0  0  0  0  0  0  0  0  0  0  0
   -0.4440    0.5590   -0.7170 C   0  0  0  0  0  0  0  0  0  0  0  0
    0.0970   -0.5650   -0.8540 O   0  0  0  0  0  0  0  0  0  0  0  0
   -1.3830    0.7030    0.2670 O   0  0  0  0  0  0  0  0  0  0  0  0
   -1.8270   -0.2690    1.1610 C   0  0  0  0  0  0  0  0  0  0  0  0
   -2.4530   -1.4540    0.4570 C   0  0  2  0  0  0  0  0  0  0  0  0
   -3.5230   -0.9560   -0.4620 C   0  0  0  0  0  0  0  0  0  0  0  0
   -4.8440   -1.0710    0.0880 N   0  0  0  0  0  0  0  0  0  0  0  0
   -5.8050   -0.3570   -0.7180 C   0  0  0  0  0  0  0  0  0  0  0  0
   -5.3470    0.5250   -1.4790 O   0  0  0  0  0  0  0  0  0  0  0  0
   -7.2210   -0.5290   -0.7570 N   0  0  0  0  0  0  0  0  0  0  0  0
   -7.9840   -1.2690    0.0870 O   0  0  0  0  0  0  0  0  0  0  0  0
   -7.4590   -2.8920    0.1350 S   0  0  0  0  0  0  0  0  0  0  0  0
   -5.8230   -3.1040    0.8350 C   0  0  0  0  0  0  0  0  0  0  0  0
   -5.1930   -1.7990    1.2840 C   0  0  1  0  0  0  0  0  0  0  0  0
   -3.9710   -2.0540    2.1100 C   0  0  0  0  0  0  0  0  0  0  0  0
   -2.8910   -2.4130    1.3360 O   0  0  0  0  0  0  0  0  0  0  0  0
    1.5160    3.7380   -1.6590 C   0  0  0  0  0  0  0  0  0  0  0  0
    1.1450    3.5280   -0.2660 C   0  0  1  0  0  0  0  0  0  0  0  0
   -0.1810    3.9290    0.2750 C   0  0  0  0  0  0  0  0  0  0  0  0
   -0.5070    3.7520    1.6020 C   0  0  0  0  0  0  0  0  0  0  0  0
   -1.7400    4.1410    2.1130 C   0  0  0  0  0  0  0  0  0  0  0  0
   -2.6740    4.7220    1.2820 C   0  0  0  0  0  0  0  0  0  0  0  0
   -2.3670    4.9090   -0.0510 C   0  0  0  0  0  0  0  0  0  0  0  0
   -1.1180    4.5100   -0.5470 C   0  0  0  0  0  0  0  0  0  0  0  0
    5.9750    1.0920   -0.3360 C   0  0  0  0  0  0  0  0  0  0  0  0
    7.0130    0.1700   -0.2960 C   0  0  0  0  0  0  0  0  0  0  0  0
    6.8240   -1.1430   -0.6260 C   0  0  0  0  0  0  0  0  0  0  0  0
    7.8580   -2.0700   -0.5880 O   0  0  0  0  0  0  0  0  0  0  0  0
  1  2  1  0
  2  3  1  0
  3  4  1  0
  4  5  1  0
  5  6  2  0
  5 39  1  0
  6  7  1  0
  7  8  1  0
  7 37  2  0
  8  9  2  0
  8 10  1  0
 10 11  1  0
 11 12  1  6
 11 29  1  0
 11 30  1  0
 12 13  1  0
 13 14  2  0
 13 15  1  0
 15 16  1  0
 17 16  1  1
 17 18  1  0
 17 28  1  0
 18 19  1  0
 19 20  1  0
 19 26  1  0
 20 21  2  0
 20 22  1  0
 22 23  1  0
 23 24  1  0
 24 25  1  0
 26 25  1  6
 26 27  1  0
 27 28  1  0
 29 30  1  0
 30 31  1  6
 31 32  2  0
 31 36  1  0
 32 33  1  0
 33 34  2  0
 34 35  1  0
 35 36  2  0
 37 38  1  0
 38 39  2  0
 39 40  1  0
M  END
