
     RDKit          3D

 40 44  0  0  0  0  0  0  0  0999 V2000
    3.0890    2.5340    0.0300 C   0  0  0  0  0  0  0  0  0  0  0  0
    3.4590    1.2020   -0.1820 O   0  0  0  0  0  0  0  0  0  0  0  0
    2.5130    0.1890   -0.3860 C   0  0  0  0  0  0  0  0  0  0  0  0
    1.1810    0.4990   -0.3810 C   0  0  0  0  0  0  0  0  0  0  0  0
    0.1720   -0.4670   -0.5790 C   0  0  0  0  0  0  0  0  0  0  0  0
   -1.1290    0.0450   -0.5350 N   0  0  0  0  0  0  0  0  0  0  0  0
   -2.0930    0.3570    0.4580 C   0  0  2  0  0  0  0  0  0  0  0  0
   -3.2050   -0.6910    0.6080 C   0  0  2  0  0  0  0  0  0  0  0  0
   -4.2790   -0.2420    1.5600 C   0  0  0  0  0  0  0  0  0  0  0  0
   -3.9600   -0.5980    2.9900 C   0  0  0  0  0  0  0  0  0  0  0  0
   -3.9180   -2.1180    2.9640 C   0  0  0  0  0  0  0  0  0  0  0  0
   -2.9150   -2.5400    2.2020 O   0  0  0  0  0  0  0  0  0  0  0  0
   -2.6650   -2.0410    0.9590 C   0  0  1  0  0  0  0  0  0  0  0  0
   -2.9630   -3.1230   -0.0360 C   0  0  0  0  0  0  0  0  0  0  0  0
   -4.3870   -3.4350   -0.2900 C   0  0  0  0  0  0  0  0  0  0  0  0
   -5.1500   -2.4030   -0.7940 O   0  0  0  0  0  0  0  0  0  0  0  0
   -2.6210    1.7010    0.1330 C   0  0  0  0  0  0  0  0  0  0  0  0
   -3.0830    2.6690    0.9880 C   0  0  0  0  0  0  0  0  0  0  0  0
   -3.5690    3.8800    0.5330 C   0  0  0  0  0  0  0  0  0  0  0  0
   -3.6030    4.1490   -0.8140 C   0  0  0  0  0  0  0  0  0  0  0  0
   -3.1320    3.1640   -1.6630 C   0  0  0  0  0  0  0  0  0  0  0  0
   -2.6550    1.9770   -1.2050 C   0  0  0  0  0  0  0  0  0  0  0  0
   -1.9390    0.5980   -2.0120 S   0  0  1  0  0  0  0  0  0  0  0  0
   -0.9530    1.0120   -3.0290 O   0  0  0  0  0  0  0  0  0  0  0  0
   -2.9000   -0.3790   -2.5270 O   0  0  0  0  0  0  0  0  0  0  0  0
   -4.1710    5.5140   -1.0280 C   0  0  0  0  0  0  0  0  0  0  0  0
   -4.8610    5.7670    0.2940 C   0  0  0  0  0  0  0  0  0  0  0  0
   -4.0870    5.0080    1.1840 O   0  0  0  0  0  0  0  0  0  0  0  0
    0.5730   -1.7400   -0.7800 C   0  0  0  0  0  0  0  0  0  0  0  0
    1.8980   -2.0710   -0.7890 C   0  0  0  0  0  0  0  0  0  0  0  0
    2.8870   -1.1200   -0.5930 C   0  0  0  0  0  0  0  0  0  0  0  0
    4.2350   -1.3990   -0.5920 O   0  0  0  0  0  0  0  0  0  0  0  0
    4.8010   -2.6660   -0.7820 C   0  0  0  0  0  0  0  0  0  0  0  0
    6.2740   -2.6470   -0.7250 C   0  0  0  0  0  0  0  0  0  0  0  0
    6.9290   -3.7010   -0.8730 O   0  0  0  0  0  0  0  0  0  0  0  0
    6.9740   -1.4370   -0.5010 N   0  0  0  0  0  0  0  0  0  0  0  0
    8.4060   -1.4120   -0.4430 C   0  0  2  0  0  0  0  0  0  0  0  0
    8.9240   -0.8700    0.8690 C   0  0  0  0  0  0  0  0  0  0  0  0
    8.9740   -0.5570   -1.5330 C   0  0  0  0  0  0  0  0  0  0  0  0
    8.2430    0.0130   -2.3350 O   0  0  0  0  0  0  0  0  0  0  0  0
  1  2  1  0
  2  3  1  0
  3  4  2  0
  3 31  1  0
  4  5  1  0
  5  6  1  0
  5 29  2  0
  7  6  1  6
 23  6  1  1
  7  8  1  0
  7 17  1  0
  8  9  1  1
  8 13  1  0
  9 10  1  0
 10 11  1  0
 11 12  1  0
 12 13  1  0
 13 14  1  6
 14 15  1  0
 15 16  1  0
 17 18  2  0
 17 22  1  0
 18 19  1  0
 19 20  2  0
 19 28  1  0
 20 21  1  0
 20 26  1  0
 21 22  2  0
 22 23  1  0
 23 24  2  0
 23 25  2  0
 26 27  1  0
 27 28  1  0
 29 30  1  0
 30 31  2  0
 31 32  1  0
 32 33  1  0
 33 34  1  0
 34 35  2  0
 34 36  1  0
 36 37  1  0
 37 38  1  1
 37 39  1  0
 39 40  2  0
M  END
