
     RDKit          3D

 40 43  0  0  0  0  0  0  0  0999 V2000
   -4.3280    2.9640    4.3010 C   0  0  0  0  0  0  0  0  0  0  0  0
   -4.8520    4.0420    3.3750 C   0  0  0  0  0  0  0  0  0  0  0  0
   -5.8010    3.4990    2.4960 O   0  0  0  0  0  0  0  0  0  0  0  0
   -5.4400    2.5090    1.6040 C   0  0  0  0  0  0  0  0  0  0  0  0
   -4.1660    2.0160    1.4900 C   0  0  0  0  0  0  0  0  0  0  0  0
   -3.8150    1.0120    0.5860 C   0  0  0  0  0  0  0  0  0  0  0  0
   -2.4420    0.5450    0.5230 C   0  0  0  0  0  0  0  0  0  0  0  0
   -1.6140    1.0960    1.3180 O   0  0  0  0  0  0  0  0  0  0  0  0
   -1.9180   -0.4500   -0.3230 N   0  0  0  0  0  0  0  0  0  0  0  0
   -0.4870   -0.8380   -0.2990 C   0  0  1  0  0  0  0  0  0  0  0  0
   -0.3280   -2.2220    0.2210 C   0  0  0  0  0  0  0  0  0  0  0  0
    1.1450   -2.5000    0.4980 C   0  0  0  0  0  0  0  0  0  0  0  0
    1.8030   -2.9550   -0.7880 C   0  0  2  0  0  0  0  0  0  0  0  0
    3.2490   -2.6010   -0.7830 C   0  0  0  0  0  0  0  0  0  0  0  0
    3.5390   -1.1450   -0.6910 C   0  0  0  0  0  0  0  0  0  0  0  0
    5.0030   -0.8600   -0.7060 C   0  0  0  0  0  0  0  0  0  0  0  0
    5.3720    0.3170   -0.6270 O   0  0  0  0  0  0  0  0  0  0  0  0
    5.9950   -1.9200   -0.8090 C   0  0  0  0  0  0  0  0  0  0  0  0
    7.2910   -1.6710   -0.8260 C   0  0  0  0  0  0  0  0  0  0  0  0
    7.7990   -0.3440   -0.7440 N   0  0  0  0  0  0  0  0  0  0  0  0
    8.6530    0.1070    0.2980 C   0  0  0  0  0  0  0  0  0  0  0  0
    8.9760   -0.7120    1.1950 O   0  0  0  0  0  0  0  0  0  0  0  0
    9.1110    1.5140    0.2640 C   0  0  2  0  0  0  0  0  0  0  0  0
   10.0220    1.7440   -0.9040 C   0  0  0  0  0  0  0  0  0  0  0  0
   11.2920    1.8490   -0.3420 O   0  0  0  0  0  0  0  0  0  0  0  0
   11.1650    1.2700    0.9080 C   0  0  0  0  0  0  0  0  0  0  0  0
    9.9340    1.7570    1.3610 O   0  0  0  0  0  0  0  0  0  0  0  0
    1.0100   -2.0820   -2.1910 S   0  0  0  0  0  0  0  0  0  0  0  0
    0.1550   -0.6070   -1.6090 C   0  0  0  0  0  0  0  0  0  0  0  0
   -4.8110    0.5020   -0.2240 C   0  0  0  0  0  0  0  0  0  0  0  0
   -6.1020    1.0240   -0.0870 C   0  0  0  0  0  0  0  0  0  0  0  0
   -6.4570    2.0020    0.7880 C   0  0  0  0  0  0  0  0  0  0  0  0
   -7.7230    2.5200    0.9290 O   0  0  0  0  0  0  0  0  0  0  0  0
   -8.7080    2.0370    1.7920 C   0  0  0  0  0  0  0  0  0  0  0  0
   -7.0890    0.4820   -0.9310 O   0  0  0  0  0  0  0  0  0  0  0  0
   -6.7310    0.0850   -2.2580 C   0  0  0  0  0  0  0  0  0  0  0  0
   -5.3860   -0.5800   -2.3200 C   0  0  2  0  0  0  0  0  0  0  0  0
   -5.6350   -2.0860   -2.5080 C   0  0  0  0  0  0  0  0  0  0  0  0
   -4.2920   -2.7460   -2.5690 C   0  0  0  0  0  0  0  0  0  0  0  0
   -4.6190   -0.4780   -1.1480 O   0  0  0  0  0  0  0  0  0  0  0  0
  1  2  1  0
  2  3  1  0
  3  4  1  0
  4  5  2  0
  4 32  1  0
  5  6  1  0
  6  7  1  0
  6 30  2  0
  7  8  2  0
  7  9  1  0
 10  9  1  6
 10 11  1  0
 10 29  1  0
 11 12  1  0
 12 13  1  0
 13 14  1  1
 13 28  1  0
 14 15  1  0
 15 16  1  0
 16 17  2  0
 16 18  1  0
 18 19  2  3
 19 20  1  0
 20 21  1  0
 21 22  2  0
 23 21  1  1
 23 24  1  0
 23 27  1  0
 24 25  1  0
 25 26  1  0
 26 27  1  0
 28 29  1  0
 30 31  1  0
 30 40  1  0
 31 32  2  0
 31 35  1  0
 32 33  1  0
 33 34  1  0
 35 36  1  0
 36 37  1  0
 37 38  1  1
 37 40  1  0
 38 39  1  0
M  END
