
     RDKit          3D

 40 43  0  0  0  0  0  0  0  0999 V2000
   -1.7730    6.0400   -1.5520 C   0  0  0  0  0  0  0  0  0  0  0  0
   -3.1340    5.5040   -1.2040 C   0  0  0  0  0  0  0  0  0  0  0  0
   -4.2670    5.8640   -1.7760 C   0  0  0  0  0  0  0  0  0  0  0  0
   -5.3600    5.1040   -1.1440 C   0  0  0  0  0  0  0  0  0  0  0  0
   -4.6930    4.2690   -0.1420 C   0  0  0  0  0  0  0  0  0  0  0  0
   -3.4000    4.5100   -0.1860 C   0  0  0  0  0  0  0  0  0  0  0  0
   -2.4340    3.8900    0.6360 O   0  0  0  0  0  0  0  0  0  0  0  0
   -1.8190    2.6880    0.2310 C   0  0  0  0  0  0  0  0  0  0  0  0
   -2.2040    2.2550   -0.8770 O   0  0  0  0  0  0  0  0  0  0  0  0
   -0.8160    2.0650    1.1070 C   0  0  0  0  0  0  0  0  0  0  0  0
   -0.4540    0.7540    0.5350 N   0  0  0  0  0  0  0  0  0  0  0  0
   -1.1840   -0.3980    0.9670 C   0  0  0  0  0  0  0  0  0  0  0  0
   -2.4410   -0.7260    0.2680 C   0  0  1  0  0  0  0  0  0  0  0  0
   -2.3770   -1.0200   -1.1880 C   0  0  0  0  0  0  0  0  0  0  0  0
   -3.7920   -1.2180   -1.7030 C   0  0  0  0  0  0  0  0  0  0  0  0
   -4.6860   -1.4600   -0.6840 O   0  0  0  0  0  0  0  0  0  0  0  0
   -4.2910   -2.3910    0.2420 C   0  0  1  0  0  0  0  0  0  0  0  0
   -5.3870   -2.4670    1.2960 C   0  0  0  0  0  0  0  0  0  0  0  0
   -5.7220   -3.8950    1.6680 C   0  0  0  0  0  0  0  0  0  0  0  0
   -6.2380   -4.6870    0.4870 C   0  0  0  0  0  0  0  0  0  0  0  0
   -5.4220   -4.4130   -0.7350 C   0  0  0  0  0  0  0  0  0  0  0  0
   -4.1180   -3.7890   -0.3190 C   0  0  0  0  0  0  0  0  0  0  0  0
   -3.0030   -2.0000    0.9340 C   0  0  0  0  0  0  0  0  0  0  0  0
    0.5840    0.7310   -0.3910 C   0  0  0  0  0  0  0  0  0  0  0  0
    1.1220    1.8390   -0.7400 O   0  0  0  0  0  0  0  0  0  0  0  0
    1.1080   -0.4950   -0.9930 C   0  0  0  0  0  0  0  0  0  0  0  0
    2.5510   -0.1620   -2.0530 S   0  0  0  0  0  0  0  0  0  0  0  0
    3.9190    0.3120   -1.0270 C   0  0  0  0  0  0  0  0  0  0  0  0
    4.9530    0.6360   -1.6270 O   0  0  0  0  0  0  0  0  0  0  0  0
    3.8080    0.3120    0.4310 C   0  0  0  0  0  0  0  0  0  0  0  0
    5.1010    0.7020    0.9360 O   0  0  0  0  0  0  0  0  0  0  0  0
    6.2200   -0.0730    0.6600 C   0  0  0  0  0  0  0  0  0  0  0  0
    6.0760   -1.1020   -0.0220 O   0  0  0  0  0  0  0  0  0  0  0  0
    7.5340    0.2290    1.1060 N   0  0  0  0  0  0  0  0  0  0  0  0
    8.6770   -0.5860    0.8110 C   0  0  1  0  0  0  0  0  0  0  0  0
    8.4730   -1.8790    1.3050 O   0  0  0  0  0  0  0  0  0  0  0  0
    8.9040   -0.7150   -0.6830 C   0  0  0  0  0  0  0  0  0  0  0  0
   10.4050   -0.9590   -0.7010 C   0  0  0  0  0  0  0  0  0  0  0  0
   10.8960   -0.0930    0.2660 O   0  0  0  0  0  0  0  0  0  0  0  0
    9.9670   -0.0070    1.2770 C   0  0  0  0  0  0  0  0  0  0  0  0
  1  2  1  0
  2  3  2  0
  2  6  1  0
  3  4  1  0
  4  5  1  0
  5  6  2  0
  6  7  1  0
  7  8  1  0
  8  9  2  0
  8 10  1  0
 10 11  1  0
 11 12  1  0
 11 24  1  0
 13 12  1  1
 13 14  1  0
 13 23  1  0
 14 15  1  0
 15 16  1  0
 16 17  1  0
 17 18  1  1
 17 22  1  0
 17 23  1  0
 18 19  1  0
 19 20  1  0
 20 21  1  0
 21 22  1  0
 24 25  2  0
 24 26  1  0
 26 27  1  0
 27 28  1  0
 28 29  2  0
 28 30  1  0
 30 31  1  0
 31 32  1  0
 32 33  2  0
 32 34  1  0
 34 35  1  0
 35 36  1  1
 35 37  1  0
 35 40  1  0
 37 38  1  0
 38 39  1  0
 39 40  1  0
M  END
