
     RDKit          3D

 40 43  0  0  0  0  0  0  0  0999 V2000
   10.6040   -0.0720   -0.3380 C   0  0  0  0  0  0  0  0  0  0  0  0
    9.2100    0.2060   -0.2530 O   0  0  0  0  0  0  0  0  0  0  0  0
    8.7440    1.4090    0.2410 C   0  0  0  0  0  0  0  0  0  0  0  0
    9.5900    2.2570    0.6200 O   0  0  0  0  0  0  0  0  0  0  0  0
    7.3050    1.7270    0.3380 C   0  0  0  0  0  0  0  0  0  0  0  0
    6.7520    2.8920    0.8150 C   0  0  0  0  0  0  0  0  0  0  0  0
    5.4010    2.7590    0.7270 C   0  0  0  0  0  0  0  0  0  0  0  0
    5.1360    1.4980    0.1910 C   0  0  0  0  0  0  0  0  0  0  0  0
    3.8190    0.9320   -0.0780 C   0  0  0  0  0  0  0  0  0  0  0  0
    2.8480    1.7050    0.2470 O   0  0  0  0  0  0  0  0  0  0  0  0
    3.5540   -0.3120   -0.6270 N   0  0  0  0  0  0  0  0  0  0  0  0
    4.5740   -1.2770   -1.0200 C   0  0  0  0  0  0  0  0  0  0  0  0
    4.6370   -2.4120   -0.0340 C   0  0  0  0  0  0  0  0  0  0  0  0
    3.0500   -3.2530    0.0090 S   0  0  0  0  0  0  0  0  0  0  0  0
    1.7930   -2.1100   -0.5420 C   0  0  0  0  0  0  0  0  0  0  0  0
    0.5580   -2.4700   -0.7230 C   0  0  0  0  0  0  0  0  0  0  0  0
   -0.5100   -1.5560   -1.1730 C   0  0  1  0  0  0  0  0  0  0  0  0
   -1.5920   -1.7080   -0.1510 C   0  0  0  0  0  0  0  0  0  0  0  0
   -2.5620   -2.4790   -0.4710 O   0  0  0  0  0  0  0  0  0  0  0  0
   -1.6500   -1.1170    1.0860 O   0  0  0  0  0  0  0  0  0  0  0  0
   -2.7370   -1.3530    1.9810 C   0  0  2  0  0  0  0  0  0  0  0  0
   -3.4750   -0.1200    2.3820 C   0  0  0  0  0  0  0  0  0  0  0  0
   -2.2630   -2.0680    3.2390 C   0  0  0  0  0  0  0  0  0  0  0  0
   -1.6300   -3.4190    2.8820 C   0  0  0  0  0  0  0  0  0  0  0  0
   -2.5220   -4.2610    2.2190 O   0  0  0  0  0  0  0  0  0  0  0  0
   -0.0990   -0.1880   -1.4400 C   0  0  0  0  0  0  0  0  0  0  0  0
   -0.8830    0.7740   -1.8730 C   0  0  0  0  0  0  0  0  0  0  0  0
   -2.3140    0.6090   -2.1570 C   0  0  0  0  0  0  0  0  0  0  0  0
   -3.1510    1.5550   -1.3060 C   0  0  0  0  0  0  0  0  0  0  0  0
   -4.5770    1.3590   -1.6140 C   0  0  0  0  0  0  0  0  0  0  0  0
   -4.9320    0.5500   -2.4940 O   0  0  0  0  0  0  0  0  0  0  0  0
   -5.5830    2.1030   -0.9010 N   0  0  0  0  0  0  0  0  0  0  0  0
   -7.0020    1.9530   -1.1530 C   0  0  1  0  0  0  0  0  0  0  0  0
   -7.6730    1.3350    0.0440 C   0  0  0  0  0  0  0  0  0  0  0  0
   -8.8470    1.9080    0.1520 C   0  0  0  0  0  0  0  0  0  0  0  0
   -8.9620    2.8890   -0.9440 C   0  0  0  0  0  0  0  0  0  0  0  0
   -7.6620    3.1220   -1.3260 O   0  0  0  0  0  0  0  0  0  0  0  0
    1.3230    0.1870   -1.2350 C   0  0  0  0  0  0  0  0  0  0  0  0
    2.1660   -0.7080   -0.8180 C   0  0  0  0  0  0  0  0  0  0  0  0
    6.3070    0.9670   -0.0060 O   0  0  0  0  0  0  0  0  0  0  0  0
  1  2  1  0
  2  3  1  0
  3  4  2  0
  3  5  1  0
  5  6  2  0
  5 40  1  0
  6  7  1  0
  7  8  2  0
  8  9  1  0
  8 40  1  0
  9 10  2  0
  9 11  1  0
 11 12  1  0
 11 39  1  0
 12 13  1  0
 13 14  1  0
 14 15  1  0
 15 16  2  0
 15 39  1  0
 16 17  1  0
 17 18  1  1
 17 26  1  0
 18 19  2  0
 18 20  1  0
 20 21  1  0
 21 22  1  1
 21 23  1  0
 23 24  1  0
 24 25  1  0
 26 27  2  3
 26 38  1  0
 27 28  1  0
 28 29  1  0
 29 30  1  0
 30 31  2  0
 30 32  1  0
 33 32  1  1
 33 34  1  0
 33 37  1  0
 34 35  2  0
 35 36  1  0
 36 37  1  0
 38 39  2  0
M  END
