
     RDKit          3D

 40 44  0  0  0  0  0  0  0  0999 V2000
   -1.7200    3.4300   -1.4750 C   0  0  0  0  0  0  0  0  0  0  0  0
   -2.4180    2.3060   -0.9540 O   0  0  0  0  0  0  0  0  0  0  0  0
   -3.5970    2.4000   -0.3030 C   0  0  0  0  0  0  0  0  0  0  0  0
   -4.2210    3.5750   -0.0340 C   0  0  0  0  0  0  0  0  0  0  0  0
   -5.4330    3.5610    0.6540 C   0  0  0  0  0  0  0  0  0  0  0  0
   -6.0080    2.4020    1.0660 C   0  0  0  0  0  0  0  0  0  0  0  0
   -5.3690    1.1870    0.7900 C   0  0  0  0  0  0  0  0  0  0  0  0
   -4.1910    1.1660    0.1210 C   0  0  0  0  0  0  0  0  0  0  0  0
   -3.4990    0.0080   -0.2490 N   0  0  0  0  0  0  0  0  0  0  0  0
   -3.9510   -1.3360   -0.1400 C   0  0  0  0  0  0  0  0  0  0  0  0
   -5.0700   -1.5540    0.3550 O   0  0  0  0  0  0  0  0  0  0  0  0
   -3.0140   -2.3870   -0.6690 C   0  0  1  0  0  0  0  0  0  0  0  0
   -3.3820   -2.3840   -2.1930 C   0  0  0  0  0  0  0  0  0  0  0  0
   -1.7020   -1.9350   -0.7410 O   0  0  0  0  0  0  0  0  0  0  0  0
   -0.8440   -1.6620    0.2860 C   0  0  0  0  0  0  0  0  0  0  0  0
   -1.3490   -1.9220    1.4070 O   0  0  0  0  0  0  0  0  0  0  0  0
    0.4910   -1.1480    0.1450 C   0  0  0  0  0  0  0  0  0  0  0  0
    1.2390   -0.6030   -0.8490 C   0  0  0  0  0  0  0  0  0  0  0  0
    2.5340   -0.3370   -0.6250 C   0  0  0  0  0  0  0  0  0  0  0  0
    3.0700   -0.6170    0.5840 C   0  0  0  0  0  0  0  0  0  0  0  0
    4.4960   -0.5190    0.9940 C   0  0  0  0  0  0  0  0  0  0  0  0
    4.8430   -1.1080    2.0090 O   0  0  0  0  0  0  0  0  0  0  0  0
    5.4190    0.2290    0.2420 N   0  0  0  0  0  0  0  0  0  0  0  0
    6.8040    0.3510    0.5180 C   0  0  2  0  0  0  0  0  0  0  0  0
    7.1480    0.3980    2.0140 C   0  0  0  0  0  0  0  0  0  0  0  0
    7.5480    1.4150   -0.1240 C   0  0  0  0  0  0  0  0  0  0  0  0
    6.9520    2.4620   -0.6160 C   0  0  0  0  0  0  0  0  0  0  0  0
    7.6300    3.5740   -1.2730 C   0  0  0  0  0  0  0  0  0  0  0  0
    9.0090    3.4350   -1.2960 O   0  0  0  0  0  0  0  0  0  0  0  0
    9.6900    2.3300   -0.7790 C   0  0  0  0  0  0  0  0  0  0  0  0
    9.0180    1.3570   -0.2190 C   0  0  0  0  0  0  0  0  0  0  0  0
    1.7590   -1.2750    1.4780 S   0  0  0  0  0  0  0  0  0  0  0  0
   -3.2570   -3.7630   -0.2720 C   0  0  2  0  0  0  0  0  0  0  0  0
   -4.6300   -4.2950   -0.4950 C   0  0  0  0  0  0  0  0  0  0  0  0
   -4.6030   -5.5970    0.2830 C   0  0  0  0  0  0  0  0  0  0  0  0
   -3.3260   -5.5370    1.0440 C   0  0  0  0  0  0  0  0  0  0  0  0
   -2.8790   -4.2220    0.9750 O   0  0  0  0  0  0  0  0  0  0  0  0
   -7.2060    2.6720    1.7280 O   0  0  0  0  0  0  0  0  0  0  0  0
   -7.2090    4.0760    1.9390 C   0  0  0  0  0  0  0  0  0  0  0  0
   -6.2620    4.6300    1.0440 O   0  0  0  0  0  0  0  0  0  0  0  0
  1  2  1  0
  2  3  1  0
  3  4  2  0
  3  8  1  0
  4  5  1  0
  5  6  2  0
  5 40  1  0
  6  7  1  0
  6 38  1  0
  7  8  2  0
  8  9  1  0
  9 10  1  0
 10 11  2  0
 10 12  1  0
 12 13  1  6
 12 14  1  0
 12 33  1  0
 14 15  1  0
 15 16  2  0
 15 17  1  0
 17 18  2  0
 17 32  1  0
 18 19  1  0
 19 20  2  0
 20 21  1  0
 20 32  1  0
 21 22  2  0
 21 23  1  0
 23 24  1  0
 24 25  1  1
 24 26  1  0
 26 27  2  0
 26 31  1  0
 27 28  1  0
 28 29  1  0
 29 30  1  0
 30 31  2  0
 33 34  1  1
 33 37  1  0
 34 35  1  0
 35 36  1  0
 36 37  1  0
 38 39  1  0
 39 40  1  0
M  END
