
     RDKit          3D

  9  8  0  0  0  0  0  0  0  0999 V2000
   -0.7510   -1.8210   -1.7140 N   0  0  0  0  0  0  0  0  0  0  0  0
   -0.6340   -1.5690   -0.2950 C   0  0  0  0  0  0  0  0  0  0  0  0
   -1.0760   -2.4930    0.5010 C   0  0  0  0  0  0  0  0  0  0  0  0
   -1.0310   -2.3920    1.8860 O   0  0  0  0  0  0  0  0  0  0  0  0
   -0.0420   -0.3080    0.1380 C   0  0  0  0  0  0  0  0  0  0  0  0
    0.0420   -0.0980    1.4900 O   0  0  0  0  0  0  0  0  0  0  0  0
    0.3710    0.5430   -0.7310 C   0  0  0  0  0  0  0  0  0  0  0  0
    0.9920    1.8580   -0.6250 C   0  0  0  0  0  0  0  0  0  0  0  0
    1.2460    2.4180    0.6390 N   0  0  0  0  0  0  0  0  0  0  0  0
  1  2  1  0
  2  3  2  3
  2  5  1  0
  3  4  1  0
  5  6  1  0
  5  7  2  3
  7  8  1  0
  8  9  1  0
M  CHG  1   9   1
M  END
