
     RDKit          3D

  9  8  0  0  0  0  0  0  0  0999 V2000
   -2.3370    0.7760   -1.2250 N   0  0  0  0  0  0  0  0  0  0  0  0
   -1.8640    0.2340    0.0010 C   0  0  0  0  0  0  0  0  0  0  0  0
   -0.4270   -0.0320    0.1040 C   0  0  0  0  0  0  0  0  0  0  0  0
    0.4070    0.2110   -0.8770 C   0  0  0  0  0  0  0  0  0  0  0  0
    1.8440   -0.0820   -0.7030 C   0  0  0  0  0  0  0  0  0  0  0  0
    2.0470   -0.5960    0.5610 O   0  0  0  0  0  0  0  0  0  0  0  0
    3.3400   -0.8920    0.8030 N   0  0  0  0  0  0  0  0  0  0  0  0
   -2.7000   -0.0070    0.9780 C   0  0  0  0  0  0  0  0  0  0  0  0
   -4.0450    0.2710    0.8040 O   0  0  0  0  0  0  0  0  0  0  0  0
  1  2  1  0
  2  3  1  0
  2  8  2  3
  3  4  2  3
  4  5  1  0
  5  6  1  0
  6  7  1  0
  8  9  1  0
M  CHG  1   7   1
M  END
