
     RDKit          3D

  9  9  0  0  0  0  0  0  0  0999 V2000
    1.3920   -1.8370   -0.1420 N   0  0  0  0  0  0  0  0  0  0  0  0
    1.1120   -0.4850    0.3000 C   0  0  1  0  0  0  0  0  0  0  0  0
    1.8980    0.5370   -0.4720 C   0  0  0  0  0  0  0  0  0  0  0  0
    1.6120    1.8100   -0.0300 O   0  0  0  0  0  0  0  0  0  0  0  0
   -0.3380   -0.1780    0.2310 C   0  0  0  0  0  0  0  0  0  0  0  0
   -1.1130    0.1740    1.2410 C   0  0  0  0  0  0  0  0  0  0  0  0
   -2.4620    0.3670    0.6650 C   0  0  0  0  0  0  0  0  0  0  0  0
   -2.1810    0.6550   -0.7120 N   0  0  0  0  0  0  0  0  0  0  0  0
   -1.1130   -0.2180   -0.9450 O   0  0  0  0  0  0  0  0  0  0  0  0
  2  1  1  6
  2  3  1  0
  2  5  1  0
  3  4  1  0
  5  6  2  0
  5  9  1  0
  6  7  1  0
  7  8  1  0
  8  9  1  0
M  CHG  2   1   1   8   1
M  END
