
     RDKit          3D

 25 27  0  0  0  0  0  0  0  0999 V2000
   -5.3300    2.6450   -0.6790 C   0  0  0  0  0  0  0  0  0  0  0  0
   -4.5300    2.6110    0.5910 C   0  0  0  0  0  0  0  0  0  0  0  0
   -3.4040    1.7560    0.5190 O   0  0  0  0  0  0  0  0  0  0  0  0
   -3.4860    0.4140    0.2680 C   0  0  0  0  0  0  0  0  0  0  0  0
   -4.6550   -0.0500    0.0990 O   0  0  0  0  0  0  0  0  0  0  0  0
   -2.3480   -0.4960    0.1840 C   0  0  0  0  0  0  0  0  0  0  0  0
   -2.4030   -1.7580   -0.0500 O   0  0  0  0  0  0  0  0  0  0  0  0
   -1.2280   -2.3460   -0.0740 C   0  0  0  0  0  0  0  0  0  0  0  0
   -1.0140   -3.7670   -0.3180 C   0  0  0  0  0  0  0  0  0  0  0  0
   -1.9960   -4.7080   -0.5450 C   0  0  0  0  0  0  0  0  0  0  0  0
   -1.4290   -5.8980   -0.7330 N   0  0  0  0  0  0  0  0  0  0  0  0
   -0.1100   -5.7450   -0.6330 N   0  0  0  0  0  0  0  0  0  0  0  0
    0.1780   -4.4400   -0.3770 C   0  0  0  0  0  0  0  0  0  0  0  0
   -0.2790   -1.3600    0.1740 C   0  0  0  0  0  0  0  0  0  0  0  0
    1.4410   -1.6960    0.2590 S   0  0  0  0  0  0  0  0  0  0  0  0
    2.5530   -0.3610    0.4920 C   0  0  0  0  0  0  0  0  0  0  0  0
    2.7300    0.5970   -0.6470 C   0  0  0  0  0  0  0  0  0  0  0  0
    3.6990    1.6000   -0.1890 N   0  0  0  0  0  0  0  0  0  0  0  0
    3.5010    2.7590    0.4350 C   0  0  0  0  0  0  0  0  0  0  0  0
    4.6960    3.4020    0.6920 C   0  0  0  0  0  0  0  0  0  0  0  0
    5.6630    2.5840    0.1940 C   0  0  0  0  0  0  0  0  0  0  0  0
    7.5570    2.9280    0.2460 Br  0  0  0  0  0  0  0  0  0  0  0  0
    5.0540    1.4910   -0.3400 C   0  0  0  0  0  0  0  0  0  0  0  0
   -0.9900   -0.1970    0.3370 C   0  0  0  0  0  0  0  0  0  0  0  0
   -0.5760    1.0790    0.6030 O   0  0  0  0  0  0  0  0  0  0  0  0
  1  2  1  0
  2  3  1  0
  3  4  1  0
  4  5  2  0
  4  6  1  0
  6  7  1  0
  6 24  2  0
  7  8  1  0
  8  9  1  0
  8 14  2  0
  9 10  1  0
  9 13  2  0
 10 11  2  0
 11 12  1  0
 12 13  1  0
 14 15  1  0
 14 24  1  0
 15 16  1  0
 16 17  1  0
 17 18  1  0
 18 19  1  0
 18 23  1  0
 19 20  2  0
 20 21  1  0
 21 22  1  0
 21 23  2  0
 24 25  1  0
M  END
