
     RDKit          3D

 21 22  0  0  0  0  0  0  0  0999 V2000
   -2.1930    0.5190    3.4450 C   0  0  0  0  0  0  0  0  0  0  0  0
   -2.7640    0.6390    2.1560 O   0  0  0  0  0  0  0  0  0  0  0  0
   -2.0810    0.0700    1.0930 C   0  0  0  0  0  0  0  0  0  0  0  0
   -0.8900   -0.5910    1.2720 C   0  0  0  0  0  0  0  0  0  0  0  0
   -0.1920   -1.1700    0.2020 C   0  0  0  0  0  0  0  0  0  0  0  0
    1.0970   -1.8690    0.4990 C   0  0  0  0  0  0  0  0  0  0  0  0
    2.2290   -0.9300    0.5510 C   0  0  0  0  0  0  0  0  0  0  0  0
    2.7170   -0.5150    1.7920 C   0  0  0  0  0  0  0  0  0  0  0  0
    3.7270    0.3470    1.9150 N   0  0  0  0  0  0  0  0  0  0  0  0
    4.2950    0.8320    0.7860 C   0  0  0  0  0  0  0  0  0  0  0  0
    5.3680    1.7510    0.8350 N   0  0  0  0  0  0  0  0  0  0  0  0
    3.8450    0.4470   -0.4010 N   0  0  0  0  0  0  0  0  0  0  0  0
    2.8240   -0.4240   -0.5620 C   0  0  0  0  0  0  0  0  0  0  0  0
    2.4200   -0.7830   -1.8580 N   0  0  0  0  0  0  0  0  0  0  0  0
   -0.7460   -1.0510   -1.0400 C   0  0  0  0  0  0  0  0  0  0  0  0
   -1.9440   -0.3950   -1.2820 C   0  0  0  0  0  0  0  0  0  0  0  0
   -2.5160   -0.2640   -2.5200 O   0  0  0  0  0  0  0  0  0  0  0  0
   -2.0590   -0.7300   -3.7430 C   0  0  0  0  0  0  0  0  0  0  0  0
   -2.5920    0.1570   -0.2010 C   0  0  0  0  0  0  0  0  0  0  0  0
   -3.8000    0.8240   -0.4120 O   0  0  0  0  0  0  0  0  0  0  0  0
   -3.6660    2.2220   -0.6820 C   0  0  0  0  0  0  0  0  0  0  0  0
  1  2  1  0
  2  3  1  0
  3  4  2  0
  3 19  1  0
  4  5  1  0
  5  6  1  0
  5 15  2  0
  6  7  1  0
  7  8  2  0
  7 13  1  0
  8  9  1  0
  9 10  2  0
 10 11  1  0
 10 12  1  0
 12 13  2  0
 13 14  1  0
 15 16  1  0
 16 17  1  0
 16 19  2  0
 17 18  1  0
 19 20  1  0
 20 21  1  0
M  END
