
     RDKit          3D

 25 27  0  0  0  0  0  0  0  0999 V2000
    5.8250   -1.9720   -0.3170 C   0  0  0  0  0  0  0  0  0  0  0  0
    4.9790   -1.5070    0.8000 C   0  0  0  0  0  0  0  0  0  0  0  0
    5.3770   -1.7730    1.9710 O   0  0  0  0  0  0  0  0  0  0  0  0
    3.7370   -0.7730    0.6170 C   0  0  0  0  0  0  0  0  0  0  0  0
    3.6990    0.5930    0.5530 C   0  0  0  0  0  0  0  0  0  0  0  0
    4.9770    1.3710    0.6750 C   0  0  0  0  0  0  0  0  0  0  0  0
    2.5460    1.2550    0.3850 N   0  0  0  0  0  0  0  0  0  0  0  0
    1.3830    0.6240    0.2710 C   0  0  0  0  0  0  0  0  0  0  0  0
    0.1000    1.3560    0.0830 C   0  0  0  0  0  0  0  0  0  0  0  0
    0.1320    2.7460    0.0270 C   0  0  0  0  0  0  0  0  0  0  0  0
   -1.5950    3.1810   -0.2010 S   0  0  0  0  0  0  0  0  0  0  0  0
   -2.1970    1.5320   -0.2030 C   0  0  0  0  0  0  0  0  0  0  0  0
   -3.5980    1.1130   -0.3550 C   0  0  0  0  0  0  0  0  0  0  0  0
   -4.5150    1.9430   -0.5020 O   0  0  0  0  0  0  0  0  0  0  0  0
   -3.9440   -0.2280   -0.3400 O   0  0  0  0  0  0  0  0  0  0  0  0
   -5.2830   -0.6380   -0.4850 C   0  0  0  0  0  0  0  0  0  0  0  0
   -5.8750   -0.9040   -1.6200 C   0  0  0  0  0  0  0  0  0  0  0  0
   -5.1070   -0.8140   -3.3650 Br  0  0  0  0  0  0  0  0  0  0  0  0
   -7.2710   -1.2970   -1.3290 C   0  0  0  0  0  0  0  0  0  0  0  0
   -7.3630   -1.2110    0.0950 N   0  0  0  0  0  0  0  0  0  0  0  0
   -6.2370   -0.8360    0.5950 C   0  0  0  0  0  0  0  0  0  0  0  0
   -1.0740    0.7450   -0.0330 C   0  0  0  0  0  0  0  0  0  0  0  0
    1.4160   -0.7290    0.3330 N   0  0  0  0  0  0  0  0  0  0  0  0
    2.5270   -1.4400    0.4990 C   0  0  0  0  0  0  0  0  0  0  0  0
    2.4480   -2.6860    0.5430 O   0  0  0  0  0  0  0  0  0  0  0  0
  1  2  1  0
  2  3  2  0
  2  4  1  0
  4  5  2  0
  4 24  1  0
  5  6  1  0
  5  7  1  0
  7  8  1  0
  8  9  1  0
  8 23  2  0
  9 10  2  0
  9 22  1  0
 10 11  1  0
 11 12  1  0
 12 13  1  0
 12 22  2  0
 13 14  2  0
 13 15  1  0
 15 16  1  0
 16 17  2  0
 16 21  1  0
 17 18  1  0
 17 19  1  0
 19 20  1  0
 20 21  2  0
 23 24  1  0
 24 25  2  0
M  END
