
     RDKit          3D

 21 22  0  0  0  0  0  0  0  0999 V2000
    1.6590   -1.3620   -1.0540 N   0  0  0  0  0  0  0  0  0  0  0  0
    2.1280   -0.4390   -0.0680 C   0  0  0  0  0  0  0  0  0  0  0  0
    3.3860   -0.0300   -0.1050 C   0  0  0  0  0  0  0  0  0  0  0  0
    4.4520   -0.6450   -1.3850 S   0  0  0  0  0  0  0  0  0  0  0  0
    4.4990   -2.1650   -1.3960 O   0  0  0  0  0  0  0  0  0  0  0  0
    3.8330    0.8500    0.8340 O   0  0  0  0  0  0  0  0  0  0  0  0
    3.1190    1.4190    1.8950 C   0  0  1  0  0  0  0  0  0  0  0  0
    3.0640    2.8060    1.7150 O   0  0  0  0  0  0  0  0  0  0  0  0
    1.7290    0.9160    1.8710 C   0  0  0  0  0  0  0  0  0  0  0  0
    1.2670    0.0670    0.9780 C   0  0  0  0  0  0  0  0  0  0  0  0
   -0.0930   -0.3710    1.0220 N   0  0  0  0  0  0  0  0  0  0  0  0
   -0.9440   -0.1210   -0.0820 C   0  0  0  0  0  0  0  0  0  0  0  0
   -0.4960    0.4830   -1.0860 O   0  0  0  0  0  0  0  0  0  0  0  0
   -2.3390   -0.5590   -0.0610 C   0  0  2  0  0  0  0  0  0  0  0  0
   -2.9920   -0.1860   -1.2990 N   0  0  0  0  0  0  0  0  0  0  0  0
   -4.4040   -0.1390   -1.3890 C   0  0  0  0  0  0  0  0  0  0  0  0
   -4.9660   -0.2030   -2.5260 O   0  0  0  0  0  0  0  0  0  0  0  0
   -5.1440   -0.0210   -0.1790 N   0  0  0  0  0  0  0  0  0  0  0  0
   -4.4440    0.0450    1.0530 C   0  0  0  0  0  0  0  0  0  0  0  0
   -5.1140    0.1510    2.1180 O   0  0  0  0  0  0  0  0  0  0  0  0
   -3.0640   -0.0080    1.0370 O   0  0  0  0  0  0  0  0  0  0  0  0
  1  2  1  0
  2  3  2  0
  2 10  1  0
  3  4  1  0
  3  6  1  0
  4  5  2  0
  6  7  1  0
  7  8  1  6
  7  9  1  0
  9 10  2  0
 10 11  1  0
 11 12  1  0
 12 13  2  0
 14 12  1  6
 14 15  1  0
 14 21  1  0
 15 16  1  0
 16 17  2  0
 16 18  1  0
 18 19  1  0
 19 20  2  0
 19 21  1  0
M  END
