
     RDKit          3D

 32 34  0  0  0  0  0  0  0  0999 V2000
    7.6690   -2.1330    1.6870 N   0  0  0  0  0  0  0  0  0  0  0  0
    6.8070   -1.3190    0.8870 C   0  0  0  0  0  0  0  0  0  0  0  0
    6.9180    0.0220    0.8920 N   0  0  0  0  0  0  0  0  0  0  0  0
    6.1290    0.8270    0.1560 C   0  0  0  0  0  0  0  0  0  0  0  0
    6.2330    2.0860    0.1600 O   0  0  0  0  0  0  0  0  0  0  0  0
    5.1510    0.2840   -0.6540 C   0  0  0  0  0  0  0  0  0  0  0  0
    4.3460    1.0580   -1.4030 N   0  0  0  0  0  0  0  0  0  0  0  0
    3.3850    0.5280   -2.1990 C   0  0  0  0  0  0  0  0  0  0  0  0
    2.5120    1.4120   -3.0330 C   0  0  0  0  0  0  0  0  0  0  0  0
    1.6390    2.2480   -2.2730 N   0  0  0  0  0  0  0  0  0  0  0  0
    0.5740    1.8540   -1.4530 C   0  0  0  0  0  0  0  0  0  0  0  0
    0.0770    0.5690   -1.3970 C   0  0  0  0  0  0  0  0  0  0  0  0
   -0.9800    0.2510   -0.5460 C   0  0  0  0  0  0  0  0  0  0  0  0
   -1.5670    1.1920    0.2670 C   0  0  0  0  0  0  0  0  0  0  0  0
   -2.6830    0.8320    1.1550 C   0  0  0  0  0  0  0  0  0  0  0  0
   -3.1820    1.6960    1.9330 O   0  0  0  0  0  0  0  0  0  0  0  0
   -3.2600   -0.4590    1.2020 N   0  0  0  0  0  0  0  0  0  0  0  0
   -4.3510   -0.7600    2.0870 C   0  0  1  0  0  0  0  0  0  0  0  0
   -5.5840   -1.0750    1.2290 C   0  0  0  0  0  0  0  0  0  0  0  0
   -5.8800    0.1450    0.3950 C   0  0  0  0  0  0  0  0  0  0  0  0
   -7.0580   -0.0680   -0.4660 C   0  0  0  0  0  0  0  0  0  0  0  0
   -7.6540   -1.1770   -0.4150 O   0  0  0  0  0  0  0  0  0  0  0  0
   -7.5260    0.9090   -1.3240 O   0  0  0  0  0  0  0  0  0  0  0  0
   -4.0690   -1.8980    2.9960 C   0  0  0  0  0  0  0  0  0  0  0  0
   -2.9760   -2.4890    2.9460 O   0  0  0  0  0  0  0  0  0  0  0  0
   -5.0280   -2.3070    3.9060 O   0  0  0  0  0  0  0  0  0  0  0  0
   -1.0770    2.4750    0.2170 C   0  0  0  0  0  0  0  0  0  0  0  0
   -0.0350    2.7950   -0.6210 C   0  0  0  0  0  0  0  0  0  0  0  0
    3.2890   -0.8460   -2.1890 C   0  0  0  0  0  0  0  0  0  0  0  0
    4.0880   -1.6280   -1.4440 N   0  0  0  0  0  0  0  0  0  0  0  0
    5.0360   -1.0870   -0.6600 C   0  0  0  0  0  0  0  0  0  0  0  0
    5.8570   -1.8580    0.1020 N   0  0  0  0  0  0  0  0  0  0  0  0
  1  2  1  0
  2  3  1  0
  2 32  2  0
  3  4  1  0
  4  5  2  0
  4  6  1  0
  6  7  2  0
  6 31  1  0
  7  8  1  0
  8  9  1  0
  8 29  2  0
  9 10  1  0
 10 11  1  0
 11 12  2  0
 11 28  1  0
 12 13  1  0
 13 14  2  0
 14 15  1  0
 14 27  1  0
 15 16  2  0
 15 17  1  0
 17 18  1  0
 18 19  1  6
 18 24  1  0
 19 20  1  0
 20 21  1  0
 21 22  2  0
 21 23  1  0
 24 25  2  0
 24 26  1  0
 27 28  2  0
 29 30  1  0
 30 31  2  0
 31 32  1  0
M  CHG  1  32   1
M  END
