
     RDKit          3D

 33 34  0  0  0  0  0  0  0  0999 V2000
    8.2010    1.6380    0.2080 C   0  0  0  0  0  0  0  0  0  0  0  0
    7.9970    0.1530    0.3710 C   0  0  0  0  0  0  0  0  0  0  0  0
    6.5320   -0.1760    0.6470 C   0  0  1  0  0  0  0  0  0  0  0  0
    6.0690    0.5040    1.9180 C   0  0  0  0  0  0  0  0  0  0  0  0
    5.7040    0.1830   -0.4690 N   0  0  0  0  0  0  0  0  0  0  0  0
    4.3160   -0.0990   -0.4720 C   0  0  0  0  0  0  0  0  0  0  0  0
    3.7020   -0.8050    0.5100 C   0  0  0  0  0  0  0  0  0  0  0  0
    2.3330   -1.0450    0.4550 C   0  0  0  0  0  0  0  0  0  0  0  0
    1.5460   -0.5770   -0.5940 C   0  0  0  0  0  0  0  0  0  0  0  0
    0.1730   -0.8860   -0.5340 N   0  0  0  0  0  0  0  0  0  0  0  0
   -0.8240   -0.5230   -1.4690 C   0  0  0  0  0  0  0  0  0  0  0  0
   -0.5070    0.1420   -2.4710 O   0  0  0  0  0  0  0  0  0  0  0  0
   -2.2550   -0.9010   -1.3120 C   0  0  1  0  0  0  0  0  0  0  0  0
   -3.0040   -0.4070   -2.3830 O   0  0  0  0  0  0  0  0  0  0  0  0
   -2.2860   -2.4050   -1.2560 C   0  0  0  0  0  0  0  0  0  0  0  0
   -3.4180   -2.9010   -0.4080 C   0  0  0  0  0  0  0  0  0  0  0  0
   -4.6230   -1.9520   -0.5440 C   0  0  0  0  0  0  0  0  0  0  0  0
   -4.1840   -0.7640    0.2060 N   0  0  0  0  0  0  0  0  0  0  0  0
   -5.0580   -0.1380    1.1500 C   0  0  0  0  0  0  0  0  0  0  0  0
   -5.8860    0.9760    0.5480 C   0  0  0  0  0  0  0  0  0  0  0  0
   -5.7200    2.1720    1.0800 C   0  0  0  0  0  0  0  0  0  0  0  0
   -6.4220    3.3980    0.6480 C   0  0  2  0  0  0  0  0  0  0  0  0
   -5.8510    4.5040    1.3270 F   0  0  0  0  0  0  0  0  0  0  0  0
   -7.7470    3.4470    0.9660 F   0  0  0  0  0  0  0  0  0  0  0  0
   -6.2020    3.6620   -0.7070 F   0  0  0  0  0  0  0  0  0  0  0  0
   -6.8030    0.7090   -0.5640 C   0  0  1  0  0  0  0  0  0  0  0  0
   -6.1370    0.4840   -1.7750 F   0  0  0  0  0  0  0  0  0  0  0  0
   -7.5990   -0.4230   -0.2800 F   0  0  0  0  0  0  0  0  0  0  0  0
   -7.6940    1.7150   -0.7740 F   0  0  0  0  0  0  0  0  0  0  0  0
   -2.8540   -0.3550   -0.0880 C   0  0  0  0  0  0  0  0  0  0  0  0
   -2.2560    0.4290    0.6740 O   0  0  0  0  0  0  0  0  0  0  0  0
    2.1980    0.1260   -1.5590 C   0  0  0  0  0  0  0  0  0  0  0  0
    3.5740    0.3750   -1.5170 C   0  0  0  0  0  0  0  0  0  0  0  0
  1  2  1  0
  2  3  1  0
  3  4  1  1
  3  5  1  0
  5  6  1  0
  6  7  2  0
  6 33  1  0
  7  8  1  0
  8  9  2  0
  9 10  1  0
  9 32  1  0
 10 11  1  0
 11 12  2  0
 11 13  1  0
 13 14  1  6
 13 15  1  0
 13 30  1  0
 15 16  1  0
 16 17  1  0
 17 18  1  0
 18 19  1  0
 18 30  1  0
 19 20  1  0
 20 21  2  3
 20 26  1  0
 21 22  1  0
 22 23  1  1
 22 24  1  0
 22 25  1  0
 26 27  1  6
 26 28  1  0
 26 29  1  0
 30 31  2  0
 32 33  2  0
M  END
