
     RDKit          3D

 33 36  0  0  0  0  0  0  0  0999 V2000
   -5.6030    4.8510    0.1960 C   0  0  0  0  0  0  0  0  0  0  0  0
   -4.7570    3.7280    0.2110 O   0  0  0  0  0  0  0  0  0  0  0  0
   -5.3150    2.4730    0.3880 C   0  0  0  0  0  0  0  0  0  0  0  0
   -6.5470    2.3910    0.5270 O   0  0  0  0  0  0  0  0  0  0  0  0
   -4.4700    1.3050    0.4080 C   0  0  0  0  0  0  0  0  0  0  0  0
   -3.0940    1.4930    0.2920 C   0  0  0  0  0  0  0  0  0  0  0  0
   -2.2300    0.4500    0.3110 C   0  0  0  0  0  0  0  0  0  0  0  0
   -2.6980   -0.8400    0.4480 C   0  0  0  0  0  0  0  0  0  0  0  0
   -4.0740   -1.0240    0.5630 C   0  0  0  0  0  0  0  0  0  0  0  0
   -4.5050   -2.2910    0.6940 N   0  0  0  0  0  0  0  0  0  0  0  0
   -3.6490   -3.3360    0.7130 C   0  0  0  0  0  0  0  0  0  0  0  0
   -4.1090   -4.4990    0.8370 O   0  0  0  0  0  0  0  0  0  0  0  0
   -2.2980   -3.1020    0.5950 C   0  0  0  0  0  0  0  0  0  0  0  0
   -1.4750   -4.0490    0.6080 O   0  0  0  0  0  0  0  0  0  0  0  0
   -1.8080   -1.8480    0.4610 N   0  0  0  0  0  0  0  0  0  0  0  0
   -0.3870   -1.6280    0.3400 C   0  0  0  0  0  0  0  0  0  0  0  0
    0.0700   -1.6190   -1.0990 C   0  0  0  0  0  0  0  0  0  0  0  0
    1.4770   -1.4060   -1.1460 N   0  0  0  0  0  0  0  0  0  0  0  0
    1.8850   -0.1130   -0.7370 C   0  0  0  0  0  0  0  0  0  0  0  0
    3.3550    0.1600   -0.9820 C   0  0  0  0  0  0  0  0  0  0  0  0
    4.2100   -0.9590   -0.8180 N   0  0  0  0  0  0  0  0  0  0  0  0
    4.8360   -0.9470    0.4800 C   0  0  0  0  0  0  0  0  0  0  0  0
    5.6650    0.2840    0.5730 C   0  0  0  0  0  0  0  0  0  0  0  0
    6.0710    1.1280   -0.4460 C   0  0  0  0  0  0  0  0  0  0  0  0
    6.8210    2.1950   -0.1490 C   0  0  0  0  0  0  0  0  0  0  0  0
    7.4000    3.3570   -1.4120 Cl  0  0  0  0  0  0  0  0  0  0  0  0
    7.1640    2.4090    1.1920 C   0  0  0  0  0  0  0  0  0  0  0  0
    8.1280    3.6930    1.9680 S   0  0  0  0  0  0  0  0  0  0  0  0
    6.3560    1.0010    2.0110 S   0  0  0  0  0  0  0  0  0  0  0  0
    3.7180   -2.2260   -1.2210 C   0  0  0  0  0  0  0  0  0  0  0  0
    2.3090   -2.4780   -0.7280 C   0  0  0  0  0  0  0  0  0  0  0  0
   -4.9810    0.0120    0.5470 C   0  0  0  0  0  0  0  0  0  0  0  0
   -6.4360   -0.1660    0.6590 C   0  0  0  0  0  0  0  0  0  0  0  0
  1  2  1  0
  2  3  1  0
  3  4  2  0
  3  5  1  0
  5  6  2  0
  5 32  1  0
  6  7  1  0
  7  8  2  0
  8  9  1  0
  8 15  1  0
  9 10  1  0
  9 32  2  0
 10 11  1  0
 11 12  2  0
 11 13  1  0
 13 14  2  0
 13 15  1  0
 15 16  1  0
 16 17  1  0
 17 18  1  0
 18 19  1  0
 18 31  1  0
 19 20  1  0
 20 21  1  0
 21 22  1  0
 21 30  1  0
 22 23  1  0
 23 24  2  0
 23 29  1  0
 24 25  1  0
 25 26  1  0
 25 27  2  0
 27 28  1  0
 27 29  1  0
 30 31  1  0
 32 33  1  0
M  END
