
     RDKit          3D

 33 36  0  0  0  0  0  0  0  0999 V2000
   -6.8980    2.8250   -1.2000 C   0  0  0  0  0  0  0  0  0  0  0  0
   -6.5870    1.5850   -0.4430 C   0  0  0  0  0  0  0  0  0  0  0  0
   -7.5920    1.0390    0.3290 C   0  0  0  0  0  0  0  0  0  0  0  0
   -7.3320   -0.1030    1.0360 C   0  0  0  0  0  0  0  0  0  0  0  0
   -8.4000   -0.6990    1.8670 C   0  0  0  0  0  0  0  0  0  0  0  0
   -6.0700   -0.6900    0.9670 C   0  0  0  0  0  0  0  0  0  0  0  0
   -5.0700   -0.1860    0.2270 C   0  0  0  0  0  0  0  0  0  0  0  0
   -3.7600   -0.7640    0.1300 C   0  0  0  0  0  0  0  0  0  0  0  0
   -2.4540   -0.0110   -0.8890 S   0  0  0  0  0  0  0  0  0  0  0  0
   -1.2160   -1.1570   -0.5650 C   0  0  0  0  0  0  0  0  0  0  0  0
    0.1980   -1.1810   -1.0830 C   0  0  0  0  0  0  0  0  0  0  0  0
    0.5470    0.0800   -1.6350 N   0  0  0  0  0  0  0  0  0  0  0  0
    0.5300    1.1890   -0.7080 C   0  0  0  0  0  0  0  0  0  0  0  0
    1.4300    0.9150    0.4930 C   0  0  0  0  0  0  0  0  0  0  0  0
    2.7270    0.4430    0.0370 N   0  0  0  0  0  0  0  0  0  0  0  0
    3.9200    0.8430    0.6860 C   0  0  0  0  0  0  0  0  0  0  0  0
    3.8350    1.6170    1.6680 O   0  0  0  0  0  0  0  0  0  0  0  0
    5.2540    0.3760    0.2410 C   0  0  0  0  0  0  0  0  0  0  0  0
    6.3580    0.9500    1.1040 C   0  0  0  0  0  0  0  0  0  0  0  0
    7.6570    0.5090    0.6870 N   0  0  0  0  0  0  0  0  0  0  0  0
    8.5580    1.0880   -0.2470 C   0  0  0  0  0  0  0  0  0  0  0  0
    8.3330    2.1460   -0.8890 O   0  0  0  0  0  0  0  0  0  0  0  0
    9.7240    0.2960   -0.3340 N   0  0  0  0  0  0  0  0  0  0  0  0
    9.6120   -0.8200    0.5420 C   0  0  0  0  0  0  0  0  0  0  0  0
   10.4400   -1.7470    0.7450 O   0  0  0  0  0  0  0  0  0  0  0  0
    8.3040   -0.6700    1.1770 C   0  0  0  0  0  0  0  0  0  0  0  0
    7.8280   -1.4770    2.0350 O   0  0  0  0  0  0  0  0  0  0  0  0
    2.8500   -0.4560   -1.0990 C   0  0  0  0  0  0  0  0  0  0  0  0
    1.8880   -0.0180   -2.1690 C   0  0  0  0  0  0  0  0  0  0  0  0
   -1.8160   -2.0420    0.2770 C   0  0  0  0  0  0  0  0  0  0  0  0
   -3.1040   -1.8320    0.6220 C   0  0  0  0  0  0  0  0  0  0  0  0
   -3.8270   -2.7990    1.5660 C   0  0  0  0  0  0  0  0  0  0  0  0
   -5.3500    0.9850   -0.4940 C   0  0  0  0  0  0  0  0  0  0  0  0
  1  2  1  0
  2  3  2  0
  2 33  1  0
  3  4  1  0
  4  5  1  0
  4  6  2  0
  6  7  1  0
  7  8  1  0
  7 33  2  0
  8  9  1  0
  8 31  2  0
  9 10  1  0
 10 11  1  0
 10 30  2  0
 11 12  1  0
 12 13  1  0
 12 29  1  0
 13 14  1  0
 14 15  1  0
 15 16  1  0
 15 28  1  0
 16 17  2  0
 16 18  1  0
 18 19  1  0
 19 20  1  0
 20 21  1  0
 20 26  1  0
 21 22  2  0
 21 23  1  0
 23 24  1  0
 24 25  2  0
 24 26  1  0
 26 27  2  0
 28 29  1  0
 30 31  1  0
 31 32  1  0
M  END
