
     RDKit          3D

 33 36  0  0  0  0  0  0  0  0999 V2000
   -7.1300   -0.5770   -1.8490 C   0  0  0  0  0  0  0  0  0  0  0  0
   -7.1190   -0.8250   -0.4230 C   0  0  0  0  0  0  0  0  0  0  0  0
   -6.2690   -0.7640    0.5590 C   0  0  0  0  0  0  0  0  0  0  0  0
   -6.7450   -1.1370    1.9340 C   0  0  0  0  0  0  0  0  0  0  0  0
   -7.9250   -1.4950    2.1190 N   0  0  0  0  0  0  0  0  0  0  0  0
   -5.8060   -1.0770    3.0740 C   0  0  0  0  0  0  0  0  0  0  0  0
   -4.5760   -0.7050    2.8930 C   0  0  0  0  0  0  0  0  0  0  0  0
   -4.1380   -0.3520    1.5730 C   0  0  0  0  0  0  0  0  0  0  0  0
   -4.8930   -0.3650    0.4530 C   0  0  0  0  0  0  0  0  0  0  0  0
   -4.2360    0.0390   -0.8000 C   0  0  0  0  0  0  0  0  0  0  0  0
   -2.9070    0.4060   -0.7980 N   0  0  0  0  0  0  0  0  0  0  0  0
   -2.5730    0.7200   -2.0490 C   0  0  0  0  0  0  0  0  0  0  0  0
   -1.2800    1.1690   -2.5440 C   0  0  0  0  0  0  0  0  0  0  0  0
   -1.1490    1.4180   -3.7940 O   0  0  0  0  0  0  0  0  0  0  0  0
   -0.2020    1.3210   -1.6460 N   0  0  0  0  0  0  0  0  0  0  0  0
   -0.2810    1.0690   -0.2500 C   0  0  0  0  0  0  0  0  0  0  0  0
    0.9110    1.6130    0.5060 C   0  0  0  0  0  0  0  0  0  0  0  0
    2.1320    1.2130   -0.1430 N   0  0  0  0  0  0  0  0  0  0  0  0
    3.3320    1.1560    0.5850 C   0  0  0  0  0  0  0  0  0  0  0  0
    3.3450    1.4550    1.8030 O   0  0  0  0  0  0  0  0  0  0  0  0
    4.5850    0.7480   -0.0630 C   0  0  0  0  0  0  0  0  0  0  0  0
    5.7750    0.8660    0.9030 C   0  0  0  0  0  0  0  0  0  0  0  0
    6.9640    0.4380    0.1560 C   0  0  0  0  0  0  0  0  0  0  0  0
    7.4180    1.1560   -0.7590 O   0  0  0  0  0  0  0  0  0  0  0  0
    7.5970   -0.8370    0.5070 C   0  0  0  0  0  0  0  0  0  0  0  0
    7.3040   -1.7540    1.4180 C   0  0  0  0  0  0  0  0  0  0  0  0
    8.0640   -2.8620    1.5450 C   0  0  0  0  0  0  0  0  0  0  0  0
    9.1290   -2.9950    0.7090 C   0  0  0  0  0  0  0  0  0  0  0  0
    9.0610   -1.4690   -0.3210 S   0  0  0  0  0  0  0  0  0  0  0  0
    2.1230    0.8800   -1.5380 C   0  0  0  0  0  0  0  0  0  0  0  0
    1.0730    1.7680   -2.2270 C   0  0  0  0  0  0  0  0  0  0  0  0
   -3.7130    0.5410   -2.8260 C   0  0  0  0  0  0  0  0  0  0  0  0
   -4.6220    0.1430   -1.9990 O   0  0  0  0  0  0  0  0  0  0  0  0
  1  2  1  0
  2  3  2  3
  3  4  1  0
  3  9  1  0
  4  5  2  0
  4  6  1  0
  6  7  2  0
  7  8  1  0
  8  9  2  0
  9 10  1  0
 10 11  2  0
 10 33  1  0
 11 12  1  0
 12 13  1  0
 12 32  2  0
 13 14  2  0
 13 15  1  0
 15 16  1  0
 15 31  1  0
 16 17  1  0
 17 18  1  0
 18 19  1  0
 18 30  1  0
 19 20  2  0
 19 21  1  0
 21 22  1  0
 22 23  1  0
 23 24  2  0
 23 25  1  0
 25 26  2  0
 25 29  1  0
 26 27  1  0
 27 28  2  0
 28 29  1  0
 30 31  1  0
 32 33  1  0
M  END
