
     RDKit          3D

 33 36  0  0  0  0  0  0  0  0999 V2000
   -6.2160   -1.8020   -0.8080 C   0  0  0  0  0  0  0  0  0  0  0  0
   -7.2050   -0.7110   -0.6150 C   0  0  0  0  0  0  0  0  0  0  0  0
   -8.4650   -0.9960   -0.0900 C   0  0  0  0  0  0  0  0  0  0  0  0
   -9.3610    0.0250    0.0890 C   0  0  0  0  0  0  0  0  0  0  0  0
   -9.0070    1.2840   -0.2480 N   0  0  0  0  0  0  0  0  0  0  0  0
   -7.7850    1.5700   -0.7600 C   0  0  0  0  0  0  0  0  0  0  0  0
   -7.4780    2.7490   -1.0660 O   0  0  0  0  0  0  0  0  0  0  0  0
   -6.8500    0.5830   -0.9580 C   0  0  0  0  0  0  0  0  0  0  0  0
   -5.5540    0.8680   -1.5270 C   0  0  0  0  0  0  0  0  0  0  0  0
   -5.5460    1.3780   -2.7080 O   0  0  0  0  0  0  0  0  0  0  0  0
   -4.3420    0.6080   -0.8450 C   0  0  0  0  0  0  0  0  0  0  0  0
   -2.7640    0.2410   -1.7350 S   0  0  0  0  0  0  0  0  0  0  0  0
   -1.8180    0.0710   -0.1140 C   0  0  0  0  0  0  0  0  0  0  0  0
   -0.3520   -0.2780   -0.2240 C   0  0  0  0  0  0  0  0  0  0  0  0
    0.2890   -0.3100    1.1300 C   0  0  0  0  0  0  0  0  0  0  0  0
    1.7270   -0.7040    1.0190 C   0  0  0  0  0  0  0  0  0  0  0  0
    2.0670   -2.0300    1.1080 C   0  0  0  0  0  0  0  0  0  0  0  0
    3.3700   -2.4040    0.9790 N   0  0  0  0  0  0  0  0  0  0  0  0
    4.3510   -1.4950    0.7640 C   0  0  0  0  0  0  0  0  0  0  0  0
    4.0780   -0.1730    0.6640 C   0  0  0  0  0  0  0  0  0  0  0  0
    5.0750    0.8300    0.3560 C   0  0  0  0  0  0  0  0  0  0  0  0
    4.6880    2.0500    0.6400 O   0  0  0  0  0  0  0  0  0  0  0  0
    6.3450    0.6640   -0.1840 N   0  0  0  0  0  0  0  0  0  0  0  0
    7.2780    1.8060   -0.2540 C   0  0  0  0  0  0  0  0  0  0  0  0
    8.6850    1.2840   -0.0510 C   0  0  0  0  0  0  0  0  0  0  0  0
    8.6570   -0.0840    0.5850 C   0  0  0  0  0  0  0  0  0  0  0  0
    8.1270   -1.1070   -0.4180 C   0  0  0  0  0  0  0  0  0  0  0  0
    6.7600   -0.5690   -0.7790 C   0  0  0  0  0  0  0  0  0  0  0  0
    6.0520   -1.1920   -1.5660 O   0  0  0  0  0  0  0  0  0  0  0  0
    2.7210    0.2190    0.8000 C   0  0  0  0  0  0  0  0  0  0  0  0
   -2.6550    0.2720    0.6390 N   0  0  0  0  0  0  0  0  0  0  0  0
   -3.9300    0.5490    0.4700 C   0  0  0  0  0  0  0  0  0  0  0  0
   -4.9450    0.7950    1.5680 C   0  0  0  0  0  0  0  0  0  0  0  0
  1  2  1  0
  2  3  1  0
  2  8  2  0
  3  4  2  0
  4  5  1  0
  5  6  1  0
  6  7  2  0
  6  8  1  0
  8  9  1  0
  9 10  2  0
  9 11  1  0
 11 12  1  0
 11 32  2  0
 12 13  1  0
 13 14  1  0
 13 31  2  0
 14 15  1  0
 15 16  1  0
 16 17  2  0
 16 30  1  0
 17 18  1  0
 18 19  2  0
 19 20  1  0
 20 21  1  0
 20 30  2  0
 21 22  2  0
 21 23  1  0
 23 24  1  0
 23 28  1  0
 24 25  1  0
 25 26  1  0
 26 27  1  0
 27 28  1  0
 28 29  2  0
 31 32  1  0
 32 33  1  0
M  END
