
     RDKit          3D

 33 35  0  0  0  0  0  0  0  0999 V2000
    7.2750    2.0040   -2.5090 C   0  0  0  0  0  0  0  0  0  0  0  0
    7.4180    0.5060   -2.5950 C   0  0  0  0  0  0  0  0  0  0  0  0
    6.7870   -0.1930   -1.5610 O   0  0  0  0  0  0  0  0  0  0  0  0
    7.1530   -0.0080   -0.2560 C   0  0  0  0  0  0  0  0  0  0  0  0
    8.0810    0.8030    0.0670 O   0  0  0  0  0  0  0  0  0  0  0  0
    6.5040   -0.7270    0.8430 C   0  0  0  0  0  0  0  0  0  0  0  0
    5.2580   -1.4830    0.4490 C   0  0  1  0  0  0  0  0  0  0  0  0
    4.7660   -2.1610    1.7170 C   0  0  0  0  0  0  0  0  0  0  0  0
    3.2540   -2.1510    1.7140 C   0  0  0  0  0  0  0  0  0  0  0  0
    2.7290   -0.7220    1.8660 C   0  0  2  0  0  0  0  0  0  0  0  0
    2.8320   -0.2520    3.2050 N   0  0  0  0  0  0  0  0  0  0  0  0
    2.4270   -1.1430    4.2370 C   0  0  0  0  0  0  0  0  0  0  0  0
    1.3350   -0.7440    1.3240 C   0  0  0  0  0  0  0  0  0  0  0  0
    1.2490   -1.0950    0.1220 O   0  0  0  0  0  0  0  0  0  0  0  0
    0.2130   -0.4090    2.0620 N   0  0  0  0  0  0  0  0  0  0  0  0
   -1.1040   -0.4210    1.5520 C   0  0  0  0  0  0  0  0  0  0  0  0
   -2.1740   -0.4520    2.4650 C   0  0  0  0  0  0  0  0  0  0  0  0
   -3.4830   -0.4380    2.0460 C   0  0  0  0  0  0  0  0  0  0  0  0
   -3.7940   -0.3940    0.7150 C   0  0  0  0  0  0  0  0  0  0  0  0
   -2.7630   -0.3610   -0.2080 C   0  0  0  0  0  0  0  0  0  0  0  0
   -1.4600   -0.3760    0.2300 C   0  0  0  0  0  0  0  0  0  0  0  0
   -3.4040   -0.3110   -1.4840 N   0  0  0  0  0  0  0  0  0  0  0  0
   -4.7130    0.3690   -1.2380 C   0  0  1  0  0  0  0  0  0  0  0  0
   -5.6380    0.1560   -2.3660 C   0  0  0  0  0  0  0  0  0  0  0  0
   -6.8850    0.8160   -2.2360 N   0  0  1  0  0  0  0  0  0  0  0  0
   -7.8010    0.2010   -3.2190 C   0  0  0  0  0  0  0  0  0  0  0  0
   -9.1160    0.9150   -3.2510 C   0  0  0  0  0  0  0  0  0  0  0  0
   -7.4990    0.9340   -0.9640 C   0  0  0  0  0  0  0  0  0  0  0  0
   -6.8150    1.8220   -0.0290 C   0  0  0  0  0  0  0  0  0  0  0  0
   -6.2690    2.5500    0.7090 N   0  0  0  0  0  0  0  0  0  0  0  0
   -5.0410   -0.3760   -0.0220 N   0  0  0  0  0  0  0  0  0  0  0  0
    3.5280    0.2150    0.9760 C   0  0  0  0  0  0  0  0  0  0  0  0
    4.1840   -0.5840   -0.1330 C   0  0  0  0  0  0  0  0  0  0  0  0
  1  2  1  0
  2  3  1  0
  3  4  1  0
  4  5  2  0
  4  6  1  0
  7  6  1  1
  7  8  1  0
  7 33  1  0
  8  9  1  0
  9 10  1  0
 10 11  1  1
 10 13  1  0
 10 32  1  0
 11 12  1  0
 13 14  2  0
 13 15  1  0
 15 16  1  0
 16 17  2  0
 16 21  1  0
 17 18  1  0
 18 19  2  0
 19 20  1  0
 19 31  1  0
 20 21  2  0
 20 22  1  0
 22 23  1  0
 23 24  1  6
 23 31  1  0
 25 24  1  1
 25 26  1  0
 25 28  1  0
 26 27  1  0
 28 29  1  0
 29 30  3  0
 32 33  1  0
M  CHG  2  11   1  25   1
M  END
