
     RDKit          3D

 33 36  0  0  0  0  0  0  0  0999 V2000
    5.1460    3.1580    0.4460 C   0  0  0  0  0  0  0  0  0  0  0  0
    5.0300    1.7610   -0.0810 C   0  0  0  0  0  0  0  0  0  0  0  0
    6.1210    1.0140   -0.4560 C   0  0  0  0  0  0  0  0  0  0  0  0
    6.0120   -0.2850   -0.9470 C   0  0  0  0  0  0  0  0  0  0  0  0
    4.7230   -0.7970   -1.0400 C   0  0  0  0  0  0  0  0  0  0  0  0
    4.6160   -2.1070   -1.5350 O   0  0  0  0  0  0  0  0  0  0  0  0
    3.6040   -0.1030   -0.6840 C   0  0  0  0  0  0  0  0  0  0  0  0
    2.2730   -0.7280   -0.8190 C   0  0  0  0  0  0  0  0  0  0  0  0
    2.2760   -1.8900   -1.2690 O   0  0  0  0  0  0  0  0  0  0  0  0
    1.0790   -0.1030   -0.4820 N   0  0  0  0  0  0  0  0  0  0  0  0
   -0.2110   -0.6490   -0.5930 C   0  0  0  0  0  0  0  0  0  0  0  0
   -1.3470    0.0340   -0.2420 C   0  0  0  0  0  0  0  0  0  0  0  0
   -1.3640    1.3820    0.2720 C   0  0  0  0  0  0  0  0  0  0  0  0
   -1.9910    1.7390    1.4380 C   0  0  0  0  0  0  0  0  0  0  0  0
   -2.0050    3.0740    1.8700 C   0  0  0  0  0  0  0  0  0  0  0  0
   -1.3930    4.0700    1.1410 C   0  0  0  0  0  0  0  0  0  0  0  0
   -1.4020    5.4210    1.5720 N   0  0  0  0  0  0  0  0  0  0  0  0
   -0.7660    3.7230   -0.0230 C   0  0  0  0  0  0  0  0  0  0  0  0
    0.0100    4.9910   -0.9450 Cl  0  0  0  0  0  0  0  0  0  0  0  0
   -0.7520    2.4170   -0.4460 C   0  0  0  0  0  0  0  0  0  0  0  0
   -2.5130   -0.8160   -0.5030 C   0  0  1  0  0  0  0  0  0  0  0  0
   -3.4040   -0.9920    0.7050 C   0  0  0  0  0  0  0  0  0  0  0  0
   -3.3000   -0.1090   -1.6210 C   0  0  0  0  0  0  0  0  0  0  0  0
   -2.0470   -2.0460   -1.0300 N   0  0  0  0  0  0  0  0  0  0  0  0
   -2.7950   -3.1870   -1.4420 C   0  0  0  0  0  0  0  0  0  0  0  0
   -2.9960   -4.1590   -0.2960 C   0  0  0  0  0  0  0  0  0  0  0  0
   -2.2350   -4.0800    0.8140 C   0  0  0  0  0  0  0  0  0  0  0  0
   -2.8830   -5.4380    1.8460 S   0  0  0  0  0  0  0  0  0  0  0  0
   -4.1410   -5.9040    0.5220 C   0  0  0  0  0  0  0  0  0  0  0  0
   -3.8880   -5.1070   -0.2900 N   0  0  0  0  0  0  0  0  0  0  0  0
   -0.6100   -1.9500   -1.0870 C   0  0  0  0  0  0  0  0  0  0  0  0
    0.1290   -2.8880   -1.5120 O   0  0  0  0  0  0  0  0  0  0  0  0
    3.7740    1.1690   -0.2080 C   0  0  0  0  0  0  0  0  0  0  0  0
  1  2  1  0
  2  3  2  0
  2 33  1  0
  3  4  1  0
  4  5  2  0
  5  6  1  0
  5  7  1  0
  7  8  1  0
  7 33  2  0
  8  9  2  0
  8 10  1  0
 10 11  1  0
 11 12  2  0
 11 31  1  0
 12 13  1  0
 12 21  1  0
 13 14  2  0
 13 20  1  0
 14 15  1  0
 15 16  2  0
 16 17  1  0
 16 18  1  0
 18 19  1  0
 18 20  2  0
 21 22  1  1
 21 23  1  0
 21 24  1  0
 24 25  1  0
 24 31  1  0
 25 26  1  0
 26 27  2  0
 26 30  1  0
 27 28  1  0
 28 29  1  0
 29 30  2  0
 31 32  2  0
M  END
