
     RDKit          3D

 33 35  0  0  0  0  0  0  0  0999 V2000
    6.6030    1.3140    0.8580 C   0  0  0  0  0  0  0  0  0  0  0  0
    5.1780    1.6000    0.5440 C   0  0  0  0  0  0  0  0  0  0  0  0
    4.6990    2.7830    0.2870 C   0  0  0  0  0  0  0  0  0  0  0  0
    3.2590    2.9760   -0.0200 C   0  0  0  0  0  0  0  0  0  0  0  0
    2.4660    1.7400    0.0130 C   0  0  0  0  0  0  0  0  0  0  0  0
    1.3940    1.4430    0.6530 C   0  0  0  0  0  0  0  0  0  0  0  0
    0.6960    2.3700    1.5600 C   0  0  0  0  0  0  0  0  0  0  0  0
    1.3960    3.1840    2.1890 O   0  0  0  0  0  0  0  0  0  0  0  0
   -0.7540    2.4180    1.7910 N   0  0  0  0  0  0  0  0  0  0  0  0
   -1.6560    2.0080    0.7330 C   0  0  0  0  0  0  0  0  0  0  0  0
   -1.6900    0.5270    0.4660 C   0  0  0  0  0  0  0  0  0  0  0  0
   -2.8570   -0.0730   -0.0410 C   0  0  0  0  0  0  0  0  0  0  0  0
   -3.0370   -0.9990   -0.7210 O   0  0  0  0  0  0  0  0  0  0  0  0
   -4.3430    0.6520    0.4300 N   0  0  0  0  0  0  0  0  0  0  0  0
   -5.1440   -0.0230   -0.3980 C   0  0  0  0  0  0  0  0  0  0  0  0
   -5.0710   -0.7300   -1.3870 O   0  0  0  0  0  0  0  0  0  0  0  0
   -6.5570    0.1900    0.0820 N   0  0  0  0  0  0  0  0  0  0  0  0
   -7.6690   -0.2630   -0.6580 C   0  0  0  0  0  0  0  0  0  0  0  0
   -7.7710    0.4740   -2.0020 C   0  0  0  0  0  0  0  0  0  0  0  0
   -0.6230   -0.2680    0.3500 C   0  0  0  0  0  0  0  0  0  0  0  0
   -0.9610   -1.6510    0.1170 N   0  0  0  0  0  0  0  0  0  0  0  0
    0.1000   -2.6190   -0.0440 C   0  0  0  0  0  0  0  0  0  0  0  0
    1.3400   -2.2150    0.0270 C   0  0  0  0  0  0  0  0  0  0  0  0
    1.7050   -0.8260    0.2650 C   0  0  0  0  0  0  0  0  0  0  0  0
    0.7970    0.0880    0.4160 C   0  0  0  0  0  0  0  0  0  0  0  0
    2.4360   -3.2340   -0.1110 C   0  0  0  0  0  0  0  0  0  0  0  0
    2.0360   -4.2400   -1.1240 C   0  0  0  0  0  0  0  0  0  0  0  0
    0.7840   -4.9340   -0.6750 C   0  0  0  0  0  0  0  0  0  0  0  0
   -0.3130   -4.0240   -0.2590 C   0  0  0  0  0  0  0  0  0  0  0  0
    5.6010    3.9830    0.2590 C   0  0  1  0  0  0  0  0  0  0  0  0
    5.2180    4.8770    1.2300 F   0  0  0  0  0  0  0  0  0  0  0  0
    6.9120    3.6930    0.4520 F   0  0  0  0  0  0  0  0  0  0  0  0
    5.5100    4.5830   -1.0160 F   0  0  0  0  0  0  0  0  0  0  0  0
  1  2  1  0
  2  3  2  3
  3  4  1  0
  3 30  1  0
  4  5  1  0
  5  6  2  3
  6  7  1  0
  6 25  1  0
  7  8  2  0
  7  9  1  0
  9 10  1  0
 10 11  1  0
 11 12  1  0
 11 20  2  0
 12 13  2  0
 12 14  1  0
 14 15  1  0
 15 16  2  0
 15 17  1  0
 17 18  1  0
 18 19  1  0
 20 21  1  0
 20 25  1  0
 21 22  1  0
 22 23  2  0
 22 29  1  0
 23 24  1  0
 23 26  1  0
 24 25  2  0
 26 27  1  0
 27 28  1  0
 28 29  1  0
 30 31  1  1
 30 32  1  0
 30 33  1  0
M  END
