
     RDKit          3D

 33 36  0  0  0  0  0  0  0  0999 V2000
   -6.2560    0.7840   -2.9990 C   0  0  0  0  0  0  0  0  0  0  0  0
   -5.7280    1.9540   -2.2040 C   0  0  0  0  0  0  0  0  0  0  0  0
   -4.3270    1.6180   -1.7300 C   0  0  0  0  0  0  0  0  0  0  0  0
   -4.3350    0.4320   -0.8890 N   0  0  0  0  0  0  0  0  0  0  0  0
   -3.1390   -0.0720   -0.3140 C   0  0  0  0  0  0  0  0  0  0  0  0
   -2.0970    0.5820   -0.5900 O   0  0  0  0  0  0  0  0  0  0  0  0
   -3.1520   -1.2470    0.5200 C   0  0  0  0  0  0  0  0  0  0  0  0
   -4.3000   -1.9410    0.6640 N   0  0  0  0  0  0  0  0  0  0  0  0
   -4.3520   -3.0510    1.4600 C   0  0  0  0  0  0  0  0  0  0  0  0
   -5.4050   -3.6890    1.5940 O   0  0  0  0  0  0  0  0  0  0  0  0
   -3.2450   -3.4510    2.1050 N   0  0  0  0  0  0  0  0  0  0  0  0
   -2.1160   -2.7760    1.9680 C   0  0  0  0  0  0  0  0  0  0  0  0
   -1.0850   -3.1590    2.5770 O   0  0  0  0  0  0  0  0  0  0  0  0
   -2.0150   -1.6350    1.1640 C   0  0  0  0  0  0  0  0  0  0  0  0
   -0.7820   -0.9090    1.0110 C   0  0  0  0  0  0  0  0  0  0  0  0
   -0.4990    0.3120    1.5820 C   0  0  0  0  0  0  0  0  0  0  0  0
    0.7340    0.9440    1.4090 C   0  0  0  0  0  0  0  0  0  0  0  0
    1.7280    0.3730    0.6540 C   0  0  0  0  0  0  0  0  0  0  0  0
    3.0270    1.0900    0.4980 C   0  0  2  0  0  0  0  0  0  0  0  0
    3.5310    1.0530   -0.8120 N   0  0  0  0  0  0  0  0  0  0  0  0
    4.8730    0.7520   -1.1230 C   0  0  0  0  0  0  0  0  0  0  0  0
    5.5800    0.6570   -2.2490 C   0  0  0  0  0  0  0  0  0  0  0  0
    6.9890    0.2990   -1.9470 C   0  0  0  0  0  0  0  0  0  0  0  0
    7.0150    0.1950   -0.4810 C   0  0  0  0  0  0  0  0  0  0  0  0
    5.7940    0.4590   -0.0420 C   0  0  0  0  0  0  0  0  0  0  0  0
    5.2290    0.5050    1.3030 C   0  0  0  0  0  0  0  0  0  0  0  0
    3.9730    0.7910    1.5500 C   0  0  0  0  0  0  0  0  0  0  0  0
    3.5410    0.7940    3.0080 C   0  0  2  0  0  0  0  0  0  0  0  0
    3.1040    2.0140    3.4170 F   0  0  0  0  0  0  0  0  0  0  0  0
    4.5860    0.4070    3.7950 F   0  0  0  0  0  0  0  0  0  0  0  0
    2.5470   -0.1820    3.1120 F   0  0  0  0  0  0  0  0  0  0  0  0
    1.4750   -0.8480    0.0680 C   0  0  0  0  0  0  0  0  0  0  0  0
    0.2550   -1.4610    0.2470 C   0  0  0  0  0  0  0  0  0  0  0  0
  1  2  1  0
  2  3  1  0
  3  4  1  0
  4  5  1  0
  5  6  2  0
  5  7  1  0
  7  8  1  0
  7 14  2  0
  8  9  1  0
  9 10  2  0
  9 11  1  0
 11 12  1  0
 12 13  2  0
 12 14  1  0
 14 15  1  0
 15 16  2  0
 15 33  1  0
 16 17  1  0
 17 18  2  0
 19 18  1  6
 18 32  1  0
 19 20  1  0
 19 27  1  0
 20 21  1  0
 21 22  2  0
 21 25  1  0
 22 23  1  0
 23 24  1  0
 24 25  2  0
 25 26  1  0
 26 27  2  0
 27 28  1  0
 28 29  1  1
 28 30  1  0
 28 31  1  0
 32 33  2  0
M  END
