
     RDKit          3D

 33 36  0  0  0  0  0  0  0  0999 V2000
   -4.7810   -1.2830    0.3700 O   0  0  0  0  0  0  0  0  0  0  0  0
   -4.8610   -0.7670   -0.7690 C   0  0  0  0  0  0  0  0  0  0  0  0
   -5.9730   -0.0030   -1.1470 N   0  0  0  0  0  0  0  0  0  0  0  0
   -7.0600    0.2200   -0.2220 C   0  0  0  0  0  0  0  0  0  0  0  0
   -6.6190    0.9650    0.9890 C   0  0  0  0  0  0  0  0  0  0  0  0
   -5.4130    1.4280    1.2430 C   0  0  0  0  0  0  0  0  0  0  0  0
   -5.4010    2.1180    2.5770 C   0  0  0  0  0  0  0  0  0  0  0  0
   -6.7970    1.9700    3.0330 C   0  0  0  0  0  0  0  0  0  0  0  0
   -7.4770    1.3100    2.1150 C   0  0  0  0  0  0  0  0  0  0  0  0
   -3.8020   -0.9470   -1.7230 N   0  0  0  0  0  0  0  0  0  0  0  0
   -2.6450   -1.6980   -1.4280 C   0  0  0  0  0  0  0  0  0  0  0  0
   -2.5910   -3.0320   -1.7150 C   0  0  0  0  0  0  0  0  0  0  0  0
   -3.9110   -3.8790   -2.4540 Cl  0  0  0  0  0  0  0  0  0  0  0  0
   -1.4360   -3.7640   -1.4100 C   0  0  0  0  0  0  0  0  0  0  0  0
   -0.3960   -3.1010   -0.8290 C   0  0  0  0  0  0  0  0  0  0  0  0
   -0.4100   -1.7400   -0.5190 C   0  0  0  0  0  0  0  0  0  0  0  0
    0.7620   -1.1830    0.1140 C   0  0  0  0  0  0  0  0  0  0  0  0
    1.7480   -1.9760    0.3310 O   0  0  0  0  0  0  0  0  0  0  0  0
    0.9670    0.1520    0.5370 N   0  0  0  0  0  0  0  0  0  0  0  0
    2.2060    0.5840    1.1710 C   0  0  0  0  0  0  0  0  0  0  0  0
    3.3670    0.3930    0.2890 C   0  0  0  0  0  0  0  0  0  0  0  0
    4.5790    0.5920    0.3540 N   0  0  0  0  0  0  0  0  0  0  0  0
    5.4920    0.3660   -0.5310 C   0  0  0  0  0  0  0  0  0  0  0  0
    6.9460    0.6520   -0.3310 C   0  0  0  0  0  0  0  0  0  0  0  0
    7.4090    1.1780    0.8410 C   0  0  0  0  0  0  0  0  0  0  0  0
    8.7640    1.4500    1.0360 C   0  0  0  0  0  0  0  0  0  0  0  0
    9.6670    1.1860    0.0330 C   0  0  0  0  0  0  0  0  0  0  0  0
    9.2020    0.6550   -1.1480 C   0  0  0  0  0  0  0  0  0  0  0  0
    7.8380    0.3880   -1.3300 C   0  0  0  0  0  0  0  0  0  0  0  0
    5.0070   -0.1850   -1.7260 C   0  0  0  0  0  0  0  0  0  0  0  0
    3.2470   -0.3040   -1.4000 S   0  0  0  0  0  0  0  0  0  0  0  0
   -1.5630   -1.0600   -0.8360 C   0  0  0  0  0  0  0  0  0  0  0  0
   -1.6460    0.2790   -0.5610 O   0  0  0  0  0  0  0  0  0  0  0  0
  1  2  2  0
  2  3  1  0
  2 10  1  0
  3  4  1  0
  4  5  1  0
  5  6  2  0
  5  9  1  0
  6  7  1  0
  7  8  1  0
  8  9  2  0
 10 11  1  0
 11 12  2  0
 11 32  1  0
 12 13  1  0
 12 14  1  0
 14 15  2  0
 15 16  1  0
 16 17  1  0
 16 32  2  0
 17 18  2  0
 17 19  1  0
 19 20  1  0
 20 21  1  0
 21 22  2  0
 21 31  1  0
 22 23  1  0
 23 24  1  0
 23 30  2  0
 24 25  2  0
 24 29  1  0
 25 26  1  0
 26 27  2  0
 27 28  1  0
 28 29  2  0
 30 31  1  0
 32 33  1  0
M  END
