
     RDKit          3D

 23 24  0  0  0  0  0  0  0  0999 V2000
   -4.5400    2.2250    0.6030 C   0  0  0  0  0  0  0  0  0  0  0  0
   -4.2140    0.7800    0.5030 C   0  0  0  0  0  0  0  0  0  0  0  0
   -4.9020   -0.0600   -0.3430 C   0  0  0  0  0  0  0  0  0  0  0  0
   -4.5610   -1.4050   -0.4030 C   0  0  0  0  0  0  0  0  0  0  0  0
   -5.3230   -2.2850   -1.3270 C   0  0  0  0  0  0  0  0  0  0  0  0
   -3.5570   -1.8450    0.3790 N   0  0  0  0  0  0  0  0  0  0  0  0
   -2.8780   -1.0340    1.2090 C   0  0  0  0  0  0  0  0  0  0  0  0
   -1.5550   -1.5990    2.2470 S   0  0  0  0  0  0  0  0  0  0  0  0
    0.0500   -1.5140    1.4700 C   0  0  0  0  0  0  0  0  0  0  0  0
    0.5210   -0.1570    1.1850 C   0  0  0  0  0  0  0  0  0  0  0  0
   -0.1920    0.8290    1.4850 O   0  0  0  0  0  0  0  0  0  0  0  0
    1.8020    0.0480    0.5620 C   0  0  0  0  0  0  0  0  0  0  0  0
    2.6030   -1.0140    0.2250 C   0  0  0  0  0  0  0  0  0  0  0  0
    3.8370   -0.8530   -0.3750 C   0  0  0  0  0  0  0  0  0  0  0  0
    4.2820    0.4420   -0.6470 C   0  0  0  0  0  0  0  0  0  0  0  0
    5.8250    0.6810   -1.3980 S   0  0  2  0  0  0  0  0  0  0  0  0
    6.8780    1.6220   -0.3990 N   0  0  0  0  0  0  0  0  0  0  0  0
    5.6580    1.4230   -2.6870 O   0  0  0  0  0  0  0  0  0  0  0  0
    6.5000   -0.6310   -1.6700 O   0  0  0  0  0  0  0  0  0  0  0  0
    3.4970    1.5220   -0.3190 C   0  0  0  0  0  0  0  0  0  0  0  0
    4.0800    3.1260   -0.6710 Cl  0  0  0  0  0  0  0  0  0  0  0  0
    2.2540    1.3180    0.2870 C   0  0  0  0  0  0  0  0  0  0  0  0
   -3.2280    0.2600    1.2470 N   0  0  0  0  0  0  0  0  0  0  0  0
  1  2  1  0
  2  3  2  0
  2 23  1  0
  3  4  1  0
  4  5  1  0
  4  6  2  0
  6  7  1  0
  7  8  1  0
  7 23  2  0
  8  9  1  0
  9 10  1  0
 10 11  2  0
 10 12  1  0
 12 13  2  0
 12 22  1  0
 13 14  1  0
 14 15  2  0
 15 16  1  0
 15 20  1  0
 16 17  1  1
 16 18  2  0
 16 19  2  0
 20 21  1  0
 20 22  2  0
M  END
