
     RDKit          3D

 23 24  0  0  0  0  0  0  0  0999 V2000
    5.9460   -0.5340   -1.9410 C   0  0  0  0  0  0  0  0  0  0  0  0
    5.5150    0.9710   -1.0740 S   0  0  0  0  0  0  0  0  0  0  0  0
    4.0590    0.7390   -0.0550 C   0  0  0  0  0  0  0  0  0  0  0  0
    3.3880   -0.4620    0.0220 C   0  0  0  0  0  0  0  0  0  0  0  0
    2.2720   -0.5940    0.8190 C   0  0  0  0  0  0  0  0  0  0  0  0
    1.7740    0.4490    1.5720 C   0  0  0  0  0  0  0  0  0  0  0  0
    0.6290    0.3480    2.4020 N   0  0  0  0  0  0  0  0  0  0  0  0
   -0.8400   -0.3820    1.9930 S   0  0  1  0  0  0  0  0  0  0  0  0
   -0.7410   -1.8390    1.6860 O   0  0  0  0  0  0  0  0  0  0  0  0
   -1.8040   -0.2320    3.1320 O   0  0  0  0  0  0  0  0  0  0  0  0
   -1.5250    0.4870    0.6090 C   0  0  0  0  0  0  0  0  0  0  0  0
   -2.8270   -0.0530    0.1640 C   0  0  0  0  0  0  0  0  0  0  0  0
   -3.4490   -1.1120    0.7770 C   0  0  0  0  0  0  0  0  0  0  0  0
   -4.6860   -1.5790    0.3170 C   0  0  0  0  0  0  0  0  0  0  0  0
   -5.2410   -2.5500    0.8900 O   0  0  0  0  0  0  0  0  0  0  0  0
   -5.2870   -1.0110   -0.7210 N   0  0  0  0  0  0  0  0  0  0  0  0
   -4.6950    0.0250   -1.3320 C   0  0  0  0  0  0  0  0  0  0  0  0
   -5.3680    0.6340   -2.4660 C   0  0  0  0  0  0  0  0  0  0  0  0
   -5.9040    1.1370   -3.3600 N   0  0  0  0  0  0  0  0  0  0  0  0
   -3.4680    0.5220   -0.9100 C   0  0  0  0  0  0  0  0  0  0  0  0
   -2.7280    1.8730   -1.7330 Cl  0  0  0  0  0  0  0  0  0  0  0  0
    2.4550    1.6480    1.4870 C   0  0  0  0  0  0  0  0  0  0  0  0
    3.5760    1.7890    0.6890 C   0  0  0  0  0  0  0  0  0  0  0  0
  1  2  1  0
  2  3  1  0
  3  4  2  0
  3 23  1  0
  4  5  1  0
  5  6  2  0
  6  7  1  0
  6 22  1  0
  7  8  1  0
  8  9  2  0
  8 10  2  0
  8 11  1  6
 11 12  1  0
 12 13  2  0
 12 20  1  0
 13 14  1  0
 14 15  2  0
 14 16  1  0
 16 17  1  0
 17 18  1  0
 17 20  2  0
 18 19  3  0
 20 21  1  0
 22 23  2  0
M  END
