
     RDKit          3D

 23 24  0  0  0  0  0  0  0  0999 V2000
   -4.8060    1.4450   -1.7330 C   0  0  0  0  0  0  0  0  0  0  0  0
   -3.6470    1.3740   -0.8880 O   0  0  0  0  0  0  0  0  0  0  0  0
   -2.6140    0.4860   -1.1660 C   0  0  0  0  0  0  0  0  0  0  0  0
   -2.7610   -0.2340   -2.1860 O   0  0  0  0  0  0  0  0  0  0  0  0
   -1.4010    0.3910   -0.3060 C   0  0  2  0  0  0  0  0  0  0  0  0
   -0.7470    1.7600   -0.3590 C   0  0  0  0  0  0  0  0  0  0  0  0
   -0.5420   -0.6250   -0.8850 N   0  0  0  0  0  0  0  0  0  0  0  0
    0.7140   -0.9280   -0.2520 C   0  0  0  0  0  0  0  0  0  0  0  0
    0.9860   -0.2730    0.7870 O   0  0  0  0  0  0  0  0  0  0  0  0
    1.5650   -1.9060   -0.7900 N   0  0  0  0  0  0  0  0  0  0  0  0
    2.8140   -2.2120   -0.1670 C   0  0  0  0  0  0  0  0  0  0  0  0
    3.7380   -1.0440   -0.0930 C   0  0  0  0  0  0  0  0  0  0  0  0
    4.0100   -0.1850    0.8920 C   0  0  0  0  0  0  0  0  0  0  0  0
    4.9000    0.8000    0.6950 C   0  0  0  0  0  0  0  0  0  0  0  0
    5.5070    0.8930   -0.5210 C   0  0  0  0  0  0  0  0  0  0  0  0
    6.7000    1.9980   -1.1850 Cl  0  0  0  0  0  0  0  0  0  0  0  0
    4.7690   -0.5160   -1.4660 S   0  0  0  0  0  0  0  0  0  0  0  0
   -1.7340    0.0380    1.0850 C   0  0  0  0  0  0  0  0  0  0  0  0
   -1.4880    0.7310    2.1750 C   0  0  0  0  0  0  0  0  0  0  0  0
   -1.9730    0.0360    3.3250 N   0  0  0  0  0  0  0  0  0  0  0  0
   -2.5250   -1.0850    3.0140 C   0  0  0  0  0  0  0  0  0  0  0  0
   -2.4090   -1.1660    1.5380 C   0  0  0  0  0  0  0  0  0  0  0  0
   -2.9630   -2.4050    0.6710 S   0  0  0  0  0  0  0  0  0  0  0  0
  1  2  1  0
  2  3  1  0
  3  4  2  0
  3  5  1  0
  5  6  1  1
  5  7  1  0
  5 18  1  0
  7  8  1  0
  8  9  2  0
  8 10  1  0
 10 11  1  0
 11 12  1  0
 12 13  2  0
 12 17  1  0
 13 14  1  0
 14 15  2  0
 15 16  1  0
 15 17  1  0
 18 19  2  0
 18 22  1  0
 19 20  1  0
 20 21  2  0
 21 22  1  0
 22 23  2  0
M  END
