
     RDKit          3D

 20 19  0  0  0  0  0  0  0  0999 V2000
    4.9570    1.6590    0.6910 N   0  0  0  0  0  0  0  0  0  0  0  0
    4.5250    0.3970    0.2080 C   0  0  0  0  0  0  0  0  0  0  0  0
    4.7610    0.0580   -0.9820 O   0  0  0  0  0  0  0  0  0  0  0  0
    3.7940   -0.5200    1.1180 C   0  0  0  0  0  0  0  0  0  0  0  0
    3.4430   -1.8010    0.3630 C   0  0  0  0  0  0  0  0  0  0  0  0
    2.6310   -1.5230   -0.7570 O   0  0  0  0  0  0  0  0  0  0  0  0
    1.3950   -0.9350   -0.6770 C   0  0  0  0  0  0  0  0  0  0  0  0
    0.9150   -0.6070    0.4340 O   0  0  0  0  0  0  0  0  0  0  0  0
    0.6730   -0.7000   -1.8200 O   0  0  0  0  0  0  0  0  0  0  0  0
   -0.5870   -0.1470   -1.9200 C   0  0  0  0  0  0  0  0  0  0  0  0
   -1.7410   -0.9790   -1.5290 C   0  0  2  0  0  0  0  0  0  0  0  0
   -2.9390   -0.2640   -1.4960 O   0  0  0  0  0  0  0  0  0  0  0  0
   -3.2380    0.8570   -0.7190 C   0  0  0  0  0  0  0  0  0  0  0  0
   -4.3560    1.6850   -1.1080 C   0  0  0  0  0  0  0  0  0  0  0  0
   -4.8360    3.0070   -0.3270 S   0  0  0  0  0  0  0  0  0  0  0  0
   -2.5120    1.1330    0.3310 C   0  0  0  0  0  0  0  0  0  0  0  0
   -2.7230    2.2310    1.1810 N   0  0  0  0  0  0  0  0  0  0  0  0
   -1.6250   -1.9770   -0.4770 C   0  0  0  0  0  0  0  0  0  0  0  0
   -2.6540   -2.0260    0.5430 N   0  0  0  0  0  0  0  0  0  0  0  0
   -0.6800   -2.8300   -0.3750 O   0  0  0  0  0  0  0  0  0  0  0  0
  1  2  1  0
  2  3  2  0
  2  4  1  0
  4  5  1  0
  5  6  1  0
  6  7  1  0
  7  8  2  0
  7  9  1  0
  9 10  1  0
 11 10  1  1
 11 12  1  0
 11 18  1  0
 12 13  1  0
 13 14  1  0
 13 16  2  3
 14 15  2  0
 16 17  1  0
 18 19  1  0
 18 20  2  0
M  CHG  1  17   1
M  END
