
     RDKit          3D

 20 19  0  0  0  0  0  0  0  0999 V2000
   -2.1010    4.8950    0.3530 C   0  0  0  0  0  0  0  0  0  0  0  0
   -2.6390    3.2460   -0.1560 S   0  0  0  0  0  0  0  0  0  0  0  0
   -1.5460    1.9850    0.5500 C   0  0  0  0  0  0  0  0  0  0  0  0
   -0.6020    2.3770    1.2920 N   0  0  0  0  0  0  0  0  0  0  0  0
   -1.7930    0.5750    0.2690 C   0  0  0  0  0  0  0  0  0  0  0  0
   -0.6580   -0.3390    0.4660 C   0  0  2  0  0  0  0  0  0  0  0  0
    0.4740   -0.0510   -0.3390 O   0  0  0  0  0  0  0  0  0  0  0  0
    1.7340    0.0390    0.1710 C   0  0  0  0  0  0  0  0  0  0  0  0
    2.0010   -0.1290    1.3870 O   0  0  0  0  0  0  0  0  0  0  0  0
    2.8580    0.3380   -0.6760 N   0  0  0  0  0  0  0  0  0  0  0  0
    4.1960    0.4310   -0.1180 C   0  0  0  0  0  0  0  0  0  0  0  0
    5.1750    0.7500   -1.2010 C   0  0  0  0  0  0  0  0  0  0  0  0
    4.8430    1.9600   -1.7920 O   0  0  0  0  0  0  0  0  0  0  0  0
   -1.0740   -1.8130    0.1770 C   0  0  1  0  0  0  0  0  0  0  0  0
    0.0820   -2.5230    0.5460 O   0  0  0  0  0  0  0  0  0  0  0  0
   -2.2340   -2.1120    1.0340 C   0  0  0  0  0  0  0  0  0  0  0  0
   -2.6180   -3.5010    1.0700 N   0  0  0  0  0  0  0  0  0  0  0  0
   -3.0170   -4.2510   -0.0640 C   0  0  0  0  0  0  0  0  0  0  0  0
   -3.0320   -3.6540   -1.1640 O   0  0  0  0  0  0  0  0  0  0  0  0
   -3.3790   -5.5930    0.0260 O   0  0  0  0  0  0  0  0  0  0  0  0
  1  2  1  0
  2  3  1  0
  3  4  2  0
  3  5  1  0
  6  5  1  6
  6  7  1  0
  6 14  1  0
  7  8  1  0
  8  9  2  0
  8 10  1  0
 10 11  1  0
 11 12  1  0
 12 13  1  0
 14 15  1  1
 14 16  1  0
 16 17  1  0
 17 18  1  0
 18 19  2  0
 18 20  1  0
M  CHG  1   4   1
M  END
