
     RDKit          3D

 20 19  0  0  0  0  0  0  0  0999 V2000
   -4.5850    0.6630   -1.1430 C   0  0  0  0  0  0  0  0  0  0  0  0
   -4.3550   -0.6120   -0.6940 O   0  0  0  0  0  0  0  0  0  0  0  0
   -3.0340   -0.7130   -0.2340 C   0  0  1  0  0  0  0  0  0  0  0  0
   -3.1560   -0.9120    1.2820 C   0  0  0  0  0  0  0  0  0  0  0  0
   -3.8310    0.1970    1.9110 N   0  0  0  0  0  0  0  0  0  0  0  0
   -2.3840   -1.7970   -0.7590 O   0  0  0  0  0  0  0  0  0  0  0  0
   -1.1890   -1.5600   -1.3790 C   0  0  0  0  0  0  0  0  0  0  0  0
   -0.1730   -0.9690   -0.4150 C   0  0  0  0  0  0  0  0  0  0  0  0
    1.0320   -0.7260   -1.0210 O   0  0  0  0  0  0  0  0  0  0  0  0
    2.0120   -0.1740   -0.2390 C   0  0  2  0  0  0  0  0  0  0  0  0
    1.5680    1.1660    0.3140 C   0  0  0  0  0  0  0  0  0  0  0  0
    3.2340   -0.0200   -1.0980 C   0  0  0  0  0  0  0  0  0  0  0  0
    3.2290   -0.3820   -2.3010 O   0  0  0  0  0  0  0  0  0  0  0  0
    4.4090    0.5430   -0.5360 N   0  0  0  0  0  0  0  0  0  0  0  0
    5.5700    0.6930   -1.3370 C   0  0  0  0  0  0  0  0  0  0  0  0
    5.6030    0.3380   -2.5560 O   0  0  0  0  0  0  0  0  0  0  0  0
    6.7210    1.2460   -0.7850 O   0  0  0  0  0  0  0  0  0  0  0  0
    2.4290   -0.9970    0.9210 C   0  0  0  0  0  0  0  0  0  0  0  0
    1.5670   -1.3330    2.0120 N   0  0  0  0  0  0  0  0  0  0  0  0
    3.9580   -1.6140    1.0600 S   0  0  0  0  0  0  0  0  0  0  0  0
  1  2  1  0
  2  3  1  0
  3  4  1  1
  3  6  1  0
  4  5  1  0
  6  7  1  0
  7  8  1  0
  8  9  1  0
  9 10  1  0
 10 11  1  1
 10 12  1  0
 10 18  1  0
 12 13  2  0
 12 14  1  0
 14 15  1  0
 15 16  2  0
 15 17  1  0
 18 19  1  0
 18 20  2  0
M  CHG  1   5   1
M  END
