
     RDKit          3D

 20 19  0  0  0  0  0  0  0  0999 V2000
   -0.5880   -3.6120    0.7250 C   0  0  0  0  0  0  0  0  0  0  0  0
   -1.4200   -2.3780    0.6180 C   0  0  0  0  0  0  0  0  0  0  0  0
   -0.7450   -1.2970   -0.2150 C   0  0  2  0  0  0  0  0  0  0  0  0
   -0.4800   -1.7740   -1.6210 C   0  0  0  0  0  0  0  0  0  0  0  0
   -1.6680   -2.1090   -2.2870 O   0  0  0  0  0  0  0  0  0  0  0  0
    0.4840   -0.9690    0.4220 N   0  0  0  0  0  0  0  0  0  0  0  0
    1.4380   -0.2720   -0.4030 C   0  0  0  0  0  0  0  0  0  0  0  0
    2.3420    0.4990    0.5030 C   0  0  0  0  0  0  0  0  0  0  0  0
    2.2140    0.4810    1.7520 O   0  0  0  0  0  0  0  0  0  0  0  0
    3.3870    1.2830   -0.0990 N   0  0  0  0  0  0  0  0  0  0  0  0
    4.2980    2.0510    0.6750 C   0  0  0  0  0  0  0  0  0  0  0  0
    4.1660    2.0300    1.9230 O   0  0  0  0  0  0  0  0  0  0  0  0
    5.5790    3.0070   -0.1280 S   0  0  0  0  0  0  0  0  0  0  0  0
    6.5360    3.8350    1.0030 O   0  0  0  0  0  0  0  0  0  0  0  0
   -1.6760   -0.1320   -0.3110 C   0  0  0  0  0  0  0  0  0  0  0  0
   -2.8160   -0.2960   -0.8740 O   0  0  0  0  0  0  0  0  0  0  0  0
   -1.3810    1.1610    0.1850 N   0  0  0  0  0  0  0  0  0  0  0  0
   -2.2960    2.2720    0.0840 C   0  0  0  0  0  0  0  0  0  0  0  0
   -3.5610    1.9630    0.8140 C   0  0  0  0  0  0  0  0  0  0  0  0
   -4.4820    3.0290    0.7400 O   0  0  0  0  0  0  0  0  0  0  0  0
  1  2  1  0
  3  2  1  1
  3  4  1  0
  3  6  1  0
  3 15  1  0
  4  5  1  0
  6  7  1  0
  7  8  1  0
  8  9  2  0
  8 10  1  0
 10 11  1  0
 11 12  2  0
 11 13  1  0
 13 14  1  0
 15 16  2  0
 15 17  1  0
 17 18  1  0
 18 19  1  0
 19 20  1  0
M  CHG  1   6   1
M  END
