
     RDKit          3D

 20 19  0  0  0  0  0  0  0  0999 V2000
    5.3710    2.6340    0.9790 C   0  0  0  0  0  0  0  0  0  0  0  0
    5.0190    1.2540    1.1190 O   0  0  0  0  0  0  0  0  0  0  0  0
    3.8360    0.7910    0.5590 C   0  0  0  0  0  0  0  0  0  0  0  0
    3.1320    1.6060   -0.0420 O   0  0  0  0  0  0  0  0  0  0  0  0
    3.4040   -0.5090    0.6330 O   0  0  0  0  0  0  0  0  0  0  0  0
    2.2580   -1.0760    0.1170 C   0  0  0  0  0  0  0  0  0  0  0  0
    2.0610   -1.0510   -1.3540 C   0  0  2  0  0  0  0  0  0  0  0  0
    2.0100    0.2220   -1.9200 O   0  0  0  0  0  0  0  0  0  0  0  0
    0.6480   -1.6210   -1.5960 C   0  0  0  0  0  0  0  0  0  0  0  0
   -0.2180   -0.7470   -0.9420 O   0  0  0  0  0  0  0  0  0  0  0  0
   -1.5400   -1.1220   -1.0640 C   0  0  0  0  0  0  0  0  0  0  0  0
   -2.3760   -0.1160   -0.3250 C   0  0  0  0  0  0  0  0  0  0  0  0
   -1.8440    0.8570    0.2640 O   0  0  0  0  0  0  0  0  0  0  0  0
   -3.7900   -0.2460   -0.2780 N   0  0  0  0  0  0  0  0  0  0  0  0
   -4.6220    0.7060    0.4270 C   0  0  0  0  0  0  0  0  0  0  0  0
   -4.2930    0.7670    1.8940 C   0  0  0  0  0  0  0  0  0  0  0  0
   -5.1340    1.7240    2.5960 N   0  0  0  0  0  0  0  0  0  0  0  0
    2.9750   -1.9480   -2.0860 C   0  0  0  0  0  0  0  0  0  0  0  0
    2.9090   -2.0330   -3.4900 N   0  0  0  0  0  0  0  0  0  0  0  0
    4.0700   -2.8480   -1.2880 S   0  0  0  0  0  0  0  0  0  0  0  0
  1  2  1  0
  2  3  1  0
  3  4  2  0
  3  5  1  0
  5  6  1  0
  6  7  1  0
  7  8  1  6
  7  9  1  0
  7 18  1  0
  9 10  1  0
 10 11  1  0
 11 12  1  0
 12 13  2  0
 12 14  1  0
 14 15  1  0
 15 16  1  0
 16 17  1  0
 18 19  1  0
 18 20  2  0
M  CHG  1  17   1
M  END
