
     RDKit          3D

 20 19  0  0  0  0  0  0  0  0999 V2000
   -5.5900    0.6270   -0.8220 C   0  0  0  0  0  0  0  0  0  0  0  0
   -4.3850    0.3650   -0.1390 O   0  0  0  0  0  0  0  0  0  0  0  0
   -3.1400    0.4690   -0.6880 C   0  0  0  0  0  0  0  0  0  0  0  0
   -3.0080    0.8170   -1.8740 O   0  0  0  0  0  0  0  0  0  0  0  0
   -1.8780    0.1720    0.1030 C   0  0  1  0  0  0  0  0  0  0  0  0
   -1.8620    1.0800    1.2750 C   0  0  0  0  0  0  0  0  0  0  0  0
   -2.9990    0.8990    2.1170 N   0  0  0  0  0  0  0  0  0  0  0  0
   -1.9960   -1.3120    0.4750 C   0  0  0  0  0  0  0  0  0  0  0  0
   -0.6600   -1.9610    1.4420 S   0  0  0  0  0  0  0  0  0  0  0  0
   -0.7770    0.3880   -0.8050 N   0  0  0  0  0  0  0  0  0  0  0  0
    0.5940    0.3470   -0.4300 C   0  0  0  0  0  0  0  0  0  0  0  0
    0.8860    0.1340    0.7630 O   0  0  0  0  0  0  0  0  0  0  0  0
    1.5550    0.5510   -1.4400 N   0  0  0  0  0  0  0  0  0  0  0  0
    2.9690    0.5070   -1.1170 C   0  0  0  0  0  0  0  0  0  0  0  0
    3.3050   -0.8640   -0.6020 C   0  0  1  0  0  0  0  0  0  0  0  0
    2.9910   -1.8160   -1.6000 O   0  0  0  0  0  0  0  0  0  0  0  0
    4.7470   -1.0340   -0.2070 C   0  0  0  0  0  0  0  0  0  0  0  0
    5.1200   -0.1340    0.8720 C   0  0  0  0  0  0  0  0  0  0  0  0
    4.2760    0.5960    1.4330 O   0  0  0  0  0  0  0  0  0  0  0  0
    6.4280   -0.0200    1.3520 O   0  0  0  0  0  0  0  0  0  0  0  0
  1  2  1  0
  2  3  1  0
  3  4  2  0
  3  5  1  0
  5  6  1  1
  5  8  1  0
  5 10  1  0
  6  7  1  0
  8  9  1  0
 10 11  1  0
 11 12  2  0
 11 13  1  0
 13 14  1  0
 14 15  1  0
 15 16  1  6
 15 17  1  0
 17 18  1  0
 18 19  2  0
 18 20  1  0
M  CHG  1   7   1
M  END
