
     RDKit          3D

 20 19  0  0  0  0  0  0  0  0999 V2000
    3.4660    2.2770    2.0400 C   0  0  0  0  0  0  0  0  0  0  0  0
    3.6940    1.5430    0.7100 C   0  0  2  0  0  0  0  0  0  0  0  0
    3.3580    0.2380    0.9080 O   0  0  0  0  0  0  0  0  0  0  0  0
    2.3080   -0.2520    0.1510 C   0  0  0  0  0  0  0  0  0  0  0  0
    1.0640    0.5010    0.4700 C   0  0  0  0  0  0  0  0  0  0  0  0
   -0.0600    0.1080   -0.2200 O   0  0  0  0  0  0  0  0  0  0  0  0
   -0.3990   -1.2000   -0.0030 C   0  0  0  0  0  0  0  0  0  0  0  0
   -1.6370   -1.6140   -0.7580 C   0  0  2  0  0  0  0  0  0  0  0  0
   -2.7690   -0.8830   -0.4300 O   0  0  0  0  0  0  0  0  0  0  0  0
   -3.5080   -0.1070   -1.3050 C   0  0  0  0  0  0  0  0  0  0  0  0
   -3.1330   -0.0550   -2.4900 O   0  0  0  0  0  0  0  0  0  0  0  0
   -4.6900    0.6050   -0.7750 C   0  0  0  0  0  0  0  0  0  0  0  0
   -4.8690    0.3630    0.5860 O   0  0  0  0  0  0  0  0  0  0  0  0
   -5.9500    1.0170    1.0610 N   0  0  0  0  0  0  0  0  0  0  0  0
   -1.8070   -3.0780   -0.5680 C   0  0  0  0  0  0  0  0  0  0  0  0
   -0.7510   -3.9160   -1.0220 N   0  0  0  0  0  0  0  0  0  0  0  0
   -3.1000   -3.7550    0.1120 S   0  0  0  0  0  0  0  0  0  0  0  0
    5.1330    1.7120    0.3450 C   0  0  0  0  0  0  0  0  0  0  0  0
    6.0400    0.6460    0.2180 N   0  0  0  0  0  0  0  0  0  0  0  0
    5.5370    2.8730    0.1450 O   0  0  0  0  0  0  0  0  0  0  0  0
  2  1  1  1
  2  3  1  0
  2 18  1  0
  3  4  1  0
  4  5  1  0
  5  6  1  0
  6  7  1  0
  8  7  1  1
  8  9  1  0
  8 15  1  0
  9 10  1  0
 10 11  2  0
 10 12  1  0
 12 13  1  0
 13 14  1  0
 15 16  1  0
 15 17  2  0
 18 19  1  0
 18 20  2  0
M  CHG  1  14   1
M  END
