
     RDKit          3D

 22 23  0  0  0  0  0  0  0  0999 V2000
    5.6220    1.3490   -0.8650 C   0  0  0  0  0  0  0  0  0  0  0  0
    5.0320    0.6110   -2.0630 C   0  0  0  0  0  0  0  0  0  0  0  0
    4.1710   -0.8900   -1.4660 S   0  0  0  0  0  0  0  0  0  0  0  0
    2.7480   -0.4240   -0.4870 C   0  0  0  0  0  0  0  0  0  0  0  0
    2.5080    0.7530   -0.3250 O   0  0  0  0  0  0  0  0  0  0  0  0
    1.9170   -1.5160    0.0880 C   0  0  0  0  0  0  0  0  0  0  0  0
    0.8080   -1.0340    0.8450 N   0  0  0  0  0  0  0  0  0  0  0  0
    0.9540   -0.8040    2.1590 C   0  0  0  0  0  0  0  0  0  0  0  0
    2.3970   -1.0690    2.9160 S   0  0  0  0  0  0  0  0  0  0  0  0
   -0.0550   -0.3540    2.9050 N   0  0  0  0  0  0  0  0  0  0  0  0
   -1.2130   -0.1290    2.3550 N   0  0  0  0  0  0  0  0  0  0  0  0
   -1.4540   -0.3300    1.0460 C   0  0  0  0  0  0  0  0  0  0  0  0
   -2.7630   -0.0690    0.4590 C   0  0  0  0  0  0  0  0  0  0  0  0
   -3.4340    1.0950    0.7790 C   0  0  0  0  0  0  0  0  0  0  0  0
   -4.6760    1.3920    0.2510 C   0  0  0  0  0  0  0  0  0  0  0  0
   -5.2940    0.5210   -0.6270 C   0  0  0  0  0  0  0  0  0  0  0  0
   -6.5580    0.8160   -1.1680 O   0  0  0  0  0  0  0  0  0  0  0  0
   -4.6340   -0.6370   -0.9490 C   0  0  0  0  0  0  0  0  0  0  0  0
   -5.3420   -1.7930   -2.0490 Cl  0  0  0  0  0  0  0  0  0  0  0  0
   -3.3980   -0.9270   -0.4200 C   0  0  0  0  0  0  0  0  0  0  0  0
   -0.3900   -0.7990    0.2880 C   0  0  0  0  0  0  0  0  0  0  0  0
   -0.6010   -0.9940   -0.9480 O   0  0  0  0  0  0  0  0  0  0  0  0
  1  2  1  0
  2  3  1  0
  3  4  1  0
  4  5  2  0
  4  6  1  0
  6  7  1  0
  7  8  1  0
  7 21  1  0
  8  9  2  0
  8 10  1  0
 10 11  1  0
 11 12  2  0
 12 13  1  0
 12 21  1  0
 13 14  2  0
 13 20  1  0
 14 15  1  0
 15 16  2  0
 16 17  1  0
 16 18  1  0
 18 19  1  0
 18 20  2  0
 21 22  2  0
M  END
