
     RDKit          3D

 23 24  0  0  0  0  0  0  0  0999 V2000
    6.0280    0.0170   -2.9520 C   0  0  0  0  0  0  0  0  0  0  0  0
    4.8370    0.3770   -2.0680 C   0  0  0  0  0  0  0  0  0  0  0  0
    3.5150    0.4450   -2.6190 C   0  0  0  0  0  0  0  0  0  0  0  0
    2.5840    0.8800   -1.2100 S   0  0  0  0  0  0  0  0  0  0  0  0
    3.9230    0.9380   -0.0590 C   0  0  0  0  0  0  0  0  0  0  0  0
    3.7810    1.2680    1.3810 C   0  0  0  0  0  0  0  0  0  0  0  0
    2.4280    1.5040    1.7020 O   0  0  0  0  0  0  0  0  0  0  0  0
    1.4090    0.5940    1.5540 C   0  0  0  0  0  0  0  0  0  0  0  0
    1.7090   -0.5380    1.0960 O   0  0  0  0  0  0  0  0  0  0  0  0
   -0.0010    0.8550    1.8920 C   0  0  2  0  0  0  0  0  0  0  0  0
   -0.1040    1.1820    3.3830 C   0  0  0  0  0  0  0  0  0  0  0  0
   -0.8660   -0.2620    1.6440 N   0  0  0  0  0  0  0  0  0  0  0  0
   -2.0510   -0.1850    0.8410 C   0  0  0  0  0  0  0  0  0  0  0  0
   -2.3260    0.9320    0.3400 O   0  0  0  0  0  0  0  0  0  0  0  0
   -2.8920   -1.2730    0.6000 N   0  0  0  0  0  0  0  0  0  0  0  0
   -4.1010   -1.1850   -0.2210 C   0  0  0  0  0  0  0  0  0  0  0  0
   -5.2500   -1.4600    0.2830 C   0  0  0  0  0  0  0  0  0  0  0  0
   -6.4460   -1.3600   -0.5770 C   0  0  0  0  0  0  0  0  0  0  0  0
   -5.7980   -0.3600   -1.9530 S   0  0  0  0  0  0  0  0  0  0  0  0
   -4.0680   -0.7900   -1.6210 C   0  0  0  0  0  0  0  0  0  0  0  0
   -3.0580   -0.7480   -2.4500 C   0  0  0  0  0  0  0  0  0  0  0  0
   -3.2560   -0.2350   -4.1020 Cl  0  0  0  0  0  0  0  0  0  0  0  0
    4.9180    0.6360   -0.8100 N   0  0  0  0  0  0  0  0  0  0  0  0
  1  2  1  0
  2  3  2  0
  2 23  1  0
  3  4  1  0
  4  5  1  0
  5  6  1  0
  5 23  2  0
  6  7  1  0
  7  8  1  0
  8  9  2  0
  8 10  1  0
 10 11  1  1
 10 12  1  0
 12 13  1  0
 13 14  2  0
 13 15  1  0
 15 16  1  0
 16 17  2  0
 16 20  1  0
 17 18  1  0
 18 19  1  0
 19 20  1  0
 20 21  2  3
 21 22  1  0
M  END
