
     RDKit          3D

 23 24  0  0  0  0  0  0  0  0999 V2000
   -3.9660    0.1240    2.9490 C   0  0  0  0  0  0  0  0  0  0  0  0
   -3.5850   -0.4190    1.6810 O   0  0  0  0  0  0  0  0  0  0  0  0
   -2.2440   -0.5150    1.3320 C   0  0  0  0  0  0  0  0  0  0  0  0
   -1.4010   -0.1090    2.1710 O   0  0  0  0  0  0  0  0  0  0  0  0
   -1.8140   -1.0820    0.0060 C   0  0  2  0  0  0  0  0  0  0  0  0
   -2.2250   -2.5520   -0.0670 C   0  0  0  0  0  0  0  0  0  0  0  0
   -0.3730   -1.0370   -0.0330 N   0  0  0  0  0  0  0  0  0  0  0  0
    0.3690    0.1630    0.0750 C   0  0  0  0  0  0  0  0  0  0  0  0
   -0.2100    1.2670    0.2120 O   0  0  0  0  0  0  0  0  0  0  0  0
    1.7940    0.1480    0.0300 N   0  0  0  0  0  0  0  0  0  0  0  0
    2.5560    1.3700    0.1400 C   0  0  0  0  0  0  0  0  0  0  0  0
    4.0100    1.0740    0.0560 C   0  0  0  0  0  0  0  0  0  0  0  0
    4.7110    0.0070   -0.3890 C   0  0  0  0  0  0  0  0  0  0  0  0
    6.0480    0.0140   -0.3360 C   0  0  0  0  0  0  0  0  0  0  0  0
    6.6380    1.1370    0.1820 C   0  0  0  0  0  0  0  0  0  0  0  0
    8.4190    1.4550    0.3900 Cl  0  0  0  0  0  0  0  0  0  0  0  0
    5.3000    2.2020    0.6030 S   0  0  0  0  0  0  0  0  0  0  0  0
   -2.4350   -0.2930   -1.0610 C   0  0  0  0  0  0  0  0  0  0  0  0
   -3.2390    0.7420   -0.9120 C   0  0  0  0  0  0  0  0  0  0  0  0
   -3.6270    1.2290   -2.1940 N   0  0  0  0  0  0  0  0  0  0  0  0
   -3.0890    0.5280   -3.1320 C   0  0  0  0  0  0  0  0  0  0  0  0
   -2.2810   -0.5060   -2.5010 C   0  0  0  0  0  0  0  0  0  0  0  0
   -1.3840   -1.6660   -3.2410 S   0  0  0  0  0  0  0  0  0  0  0  0
  1  2  1  0
  2  3  1  0
  3  4  2  0
  3  5  1  0
  5  6  1  1
  5  7  1  0
  5 18  1  0
  7  8  1  0
  8  9  2  0
  8 10  1  0
 10 11  1  0
 11 12  1  0
 12 13  2  0
 12 17  1  0
 13 14  1  0
 14 15  2  0
 15 16  1  0
 15 17  1  0
 18 19  2  0
 18 22  1  0
 19 20  1  0
 20 21  2  0
 21 22  1  0
 22 23  2  0
M  END
