
     RDKit          3D

 20 19  0  0  0  0  0  0  0  0999 V2000
    5.1770    1.5080   -0.2970 C   0  0  0  0  0  0  0  0  0  0  0  0
    4.5690    0.2550    0.7760 S   0  0  1  0  0  0  0  0  0  0  0  0
    4.7840   -1.1700    0.1970 N   0  0  0  0  0  0  0  0  0  0  0  0
    5.4690    0.2050    2.0070 O   0  0  0  0  0  0  0  0  0  0  0  0
    2.9650    0.4990    1.2700 N   0  0  0  0  0  0  0  0  0  0  0  0
    2.0600    0.5130    0.1820 N   0  0  0  0  0  0  0  0  0  0  0  0
    0.6730    0.2600    0.4570 C   0  0  0  0  0  0  0  0  0  0  0  0
    0.3870    0.0410    1.6580 O   0  0  0  0  0  0  0  0  0  0  0  0
   -0.2600    0.2790   -0.6750 C   0  0  0  0  0  0  0  0  0  0  0  0
   -1.6670   -0.0860   -0.3290 C   0  0  1  0  0  0  0  0  0  0  0  0
   -2.3820    0.0160   -1.5660 O   0  0  0  0  0  0  0  0  0  0  0  0
   -1.7890   -1.5480    0.0190 C   0  0  0  0  0  0  0  0  0  0  0  0
   -3.1920   -1.9310    0.3670 C   0  0  0  0  0  0  0  0  0  0  0  0
   -3.2520   -3.4530    0.6610 C   0  0  0  0  0  0  0  0  0  0  0  0
   -2.8430   -4.0990   -0.4900 O   0  0  0  0  0  0  0  0  0  0  0  0
   -2.3510    0.8330    0.6090 C   0  0  0  0  0  0  0  0  0  0  0  0
   -2.5560    2.2480    0.2120 C   0  0  0  0  0  0  0  0  0  0  0  0
   -1.3760    3.0620   -0.0720 C   0  0  0  0  0  0  0  0  0  0  0  0
   -1.2650    3.5690   -1.2480 O   0  0  0  0  0  0  0  0  0  0  0  0
   -0.3830    3.3130    0.8570 O   0  0  0  0  0  0  0  0  0  0  0  0
  2  1  1  6
  2  3  2  0
  2  4  2  0
  2  5  1  0
  5  6  1  0
  6  7  1  0
  7  8  2  0
  7  9  1  0
  9 10  1  0
 10 11  1  6
 10 12  1  0
 10 16  1  0
 12 13  1  0
 13 14  1  0
 14 15  1  0
 16 17  1  0
 17 18  1  0
 18 19  2  0
 18 20  1  0
M  CHG  1   3   1
M  END
