
     RDKit          3D

 30 31  0  0  0  0  0  0  0  0999 V2000
    3.1550   -4.3140   -1.3760 C   0  0  0  0  0  0  0  0  0  0  0  0
    2.9300   -2.7710   -0.4810 S   0  0  0  0  0  0  0  0  0  0  0  0
    1.3100   -2.0870   -0.8630 C   0  0  0  0  0  0  0  0  0  0  0  0
    0.4440   -2.6110   -1.6560 N   0  0  0  0  0  0  0  0  0  0  0  0
   -0.6960   -1.8380   -1.7320 N   0  0  0  0  0  0  0  0  0  0  0  0
   -0.6100   -0.7820   -0.9880 C   0  0  0  0  0  0  0  0  0  0  0  0
   -1.6080    0.1680   -0.8730 N   0  0  0  0  0  0  0  0  0  0  0  0
   -2.5970    0.3180   -0.1170 C   0  0  0  0  0  0  0  0  0  0  0  0
   -3.0440   -0.5290    0.9690 C   0  0  0  0  0  0  0  0  0  0  0  0
   -4.0930   -0.1850    1.6210 O   0  0  0  0  0  0  0  0  0  0  0  0
   -2.4180   -1.7190    1.3790 N   0  0  0  0  0  0  0  0  0  0  0  0
   -2.9610   -2.4820    2.4820 C   0  0  0  0  0  0  0  0  0  0  0  0
   -3.9930   -2.0990    3.0880 O   0  0  0  0  0  0  0  0  0  0  0  0
   -2.3390   -3.6450    2.8750 O   0  0  0  0  0  0  0  0  0  0  0  0
   -3.4100    1.5340   -0.3830 C   0  0  0  0  0  0  0  0  0  0  0  0
   -4.4060    1.7340    0.3400 O   0  0  0  0  0  0  0  0  0  0  0  0
   -3.0990    2.4210   -1.3800 O   0  0  0  0  0  0  0  0  0  0  0  0
   -3.8770    3.5380   -1.5960 C   0  0  0  0  0  0  0  0  0  0  0  0
   -4.8860    3.7870   -0.9020 O   0  0  0  0  0  0  0  0  0  0  0  0
   -3.5640    4.4410   -2.6080 O   0  0  0  0  0  0  0  0  0  0  0  0
    0.7240   -0.8360   -0.3450 C   0  0  2  0  0  0  0  0  0  0  0  0
    1.4930    0.2180   -0.8360 O   0  0  0  0  0  0  0  0  0  0  0  0
    1.9880    1.0260    0.1900 C   0  0  1  0  0  0  0  0  0  0  0  0
    3.4950    1.0390    0.0430 C   0  0  0  0  0  0  0  0  0  0  0  0
    4.1340    2.0420    0.8370 N   0  0  0  0  0  0  0  0  0  0  0  0
    3.4520    3.2150    1.2790 C   0  0  0  0  0  0  0  0  0  0  0  0
    4.0280    4.0570    2.0190 O   0  0  0  0  0  0  0  0  0  0  0  0
    2.1360    3.3780    0.8570 O   0  0  0  0  0  0  0  0  0  0  0  0
    1.5260    2.4300    0.0390 C   0  0  0  0  0  0  0  0  0  0  0  0
    0.6380    2.7760   -0.7720 O   0  0  0  0  0  0  0  0  0  0  0  0
  1  2  1  0
  2  3  1  0
  3  4  2  0
  3 21  1  0
  4  5  1  0
  5  6  2  0
  6  7  1  0
  6 21  1  0
  7  8  2  3
  8  9  1  0
  8 15  1  0
  9 10  2  0
  9 11  1  0
 11 12  1  0
 12 13  2  0
 12 14  1  0
 15 16  2  0
 15 17  1  0
 17 18  1  0
 18 19  2  0
 18 20  1  0
 21 22  1  6
 23 22  1  6
 23 24  1  0
 23 29  1  0
 24 25  1  0
 25 26  1  0
 26 27  2  0
 26 28  1  0
 28 29  1  0
 29 30  2  0
M  END
