
     RDKit          3D

 30 32  0  0  0  0  0  0  0  0999 V2000
   -8.1040   -0.9420    2.0580 O   0  0  0  0  0  0  0  0  0  0  0  0
   -8.3430   -0.9740    0.8030 C   0  0  0  0  0  0  0  0  0  0  0  0
   -9.6460   -1.2780    0.4070 O   0  0  0  0  0  0  0  0  0  0  0  0
   -7.2660   -0.6860   -0.1230 N   0  0  0  0  0  0  0  0  0  0  0  0
   -6.0230   -0.1520    0.3610 C   0  0  0  0  0  0  0  0  0  0  0  0
   -5.7160   -0.2820    1.5710 O   0  0  0  0  0  0  0  0  0  0  0  0
   -5.1530    0.5260   -0.4490 O   0  0  0  0  0  0  0  0  0  0  0  0
   -3.9990    1.1620   -0.2770 C   0  0  0  0  0  0  0  0  0  0  0  0
   -2.6160    0.7180   -0.3550 C   0  0  2  0  0  0  0  0  0  0  0  0
   -1.8150    2.0060   -0.0340 C   0  0  0  0  0  0  0  0  0  0  0  0
   -2.4320    3.0190   -0.7960 O   0  0  0  0  0  0  0  0  0  0  0  0
   -2.8060    2.2270   -2.3120 S   0  0  0  0  0  0  0  0  0  0  0  0
   -2.1790    0.6300   -1.8610 C   0  0  0  0  0  0  0  0  0  0  0  0
   -1.5850   -0.4320   -1.9760 N   0  0  0  0  0  0  0  0  0  0  0  0
   -1.5120   -1.1310   -0.7680 N   0  0  0  0  0  0  0  0  0  0  0  0
   -2.1090   -0.4570    0.2010 C   0  0  0  0  0  0  0  0  0  0  0  0
   -2.1150   -1.0230    1.5040 O   0  0  0  0  0  0  0  0  0  0  0  0
   -1.1840   -1.8310    1.9440 O   0  0  0  0  0  0  0  0  0  0  0  0
    0.0360   -1.7670    1.5820 O   0  0  0  0  0  0  0  0  0  0  0  0
    1.0530   -0.9100    1.5940 C   0  0  0  0  0  0  0  0  0  0  0  0
    0.7540    0.2590    2.1600 O   0  0  0  0  0  0  0  0  0  0  0  0
    2.3360   -1.1100    1.1060 N   0  0  0  0  0  0  0  0  0  0  0  0
    3.1500   -2.2260    0.4800 C   0  0  0  0  0  0  0  0  0  0  0  0
    3.8520   -1.1950   -0.3150 C   0  0  2  0  0  0  0  0  0  0  0  0
    5.3090   -1.3090   -0.5360 N   0  0  0  0  0  0  0  0  0  0  0  0
    5.7440    0.0070   -0.5910 C   0  0  0  0  0  0  0  0  0  0  0  0
    7.1740    0.4220   -0.8180 C   0  0  0  0  0  0  0  0  0  0  0  0
    7.0080    1.8430   -0.7820 O   0  0  0  0  0  0  0  0  0  0  0  0
    7.6580    2.3860    0.2190 O   0  0  0  0  0  0  0  0  0  0  0  0
    3.5560   -0.2950    0.8810 C   0  0  0  0  0  0  0  0  0  0  0  0
  1  2  2  0
  2  3  1  0
  2  4  1  0
  4  5  1  0
  5  6  2  0
  5  7  1  0
  7  8  1  0
  9  8  1  6
  9 10  1  0
  9 13  1  0
  9 16  1  0
 10 11  1  0
 11 12  1  0
 12 13  1  0
 13 14  2  0
 14 15  1  0
 15 16  2  0
 16 17  1  0
 17 18  1  0
 18 19  1  0
 19 20  1  0
 20 21  2  0
 20 22  1  0
 22 23  1  0
 22 30  1  0
 23 24  1  0
 24 25  1  1
 24 30  1  0
 25 26  1  0
 26 27  1  0
 27 28  1  0
 28 29  1  0
M  END
