
     RDKit          3D

 30 32  0  0  0  0  0  0  0  0999 V2000
    5.1570    0.1840   -0.4850 O   0  0  0  0  0  0  0  0  0  0  0  0
    4.7170   -0.8370    0.1470 C   0  0  0  0  0  0  0  0  0  0  0  0
    5.4610   -2.0310    0.3030 N   0  0  0  0  0  0  0  0  0  0  0  0
    6.6850   -2.1220   -0.2240 O   0  0  0  0  0  0  0  0  0  0  0  0
    6.8040   -1.6580   -1.4290 O   0  0  0  0  0  0  0  0  0  0  0  0
    7.8210   -0.8330   -1.5710 O   0  0  0  0  0  0  0  0  0  0  0  0
    8.5060   -0.6510   -0.4840 O   0  0  0  0  0  0  0  0  0  0  0  0
    3.4310   -0.6940    0.6840 O   0  0  0  0  0  0  0  0  0  0  0  0
    2.6750    0.4770    0.5440 C   0  0  0  0  0  0  0  0  0  0  0  0
    3.2310    1.4180   -0.1180 O   0  0  0  0  0  0  0  0  0  0  0  0
    1.3470    0.6530    1.0980 C   0  0  2  0  0  0  0  0  0  0  0  0
    0.9400   -0.4710    1.8200 O   0  0  0  0  0  0  0  0  0  0  0  0
   -0.3820   -0.0940    1.4080 C   0  0  0  0  0  0  0  0  0  0  0  0
    0.1430    0.5080    0.1590 C   0  0  1  0  0  0  0  0  0  0  0  0
   -0.2580    1.9130   -0.1620 C   0  0  0  0  0  0  0  0  0  0  0  0
    0.6400    2.5860   -0.7860 O   0  0  0  0  0  0  0  0  0  0  0  0
   -1.5030    2.5050    0.1670 N   0  0  0  0  0  0  0  0  0  0  0  0
   -2.7120    1.7390    0.0420 C   0  0  0  0  0  0  0  0  0  0  0  0
   -3.9630    2.3800    0.5710 C   0  0  0  0  0  0  0  0  0  0  0  0
   -4.9400    1.1850    0.7300 C   0  0  0  0  0  0  0  0  0  0  0  0
   -4.6310    0.2040   -0.2180 O   0  0  0  0  0  0  0  0  0  0  0  0
   -4.7610   -1.0860    0.2130 C   0  0  0  0  0  0  0  0  0  0  0  0
   -3.6700   -1.9480   -0.4400 C   0  0  0  0  0  0  0  0  0  0  0  0
   -2.5230   -1.3300   -0.7990 N   0  0  0  0  0  0  0  0  0  0  0  0
   -1.5420   -1.8730   -1.3230 C   0  0  0  0  0  0  0  0  0  0  0  0
   -1.7670   -3.3490   -1.5300 N   0  0  0  0  0  0  0  0  0  0  0  0
   -3.4100   -3.5100   -0.8680 S   0  0  0  0  0  0  0  0  0  0  0  0
   -0.3050   -1.2550   -1.7130 N   0  0  0  0  0  0  0  0  0  0  0  0
    0.4410   -0.3160   -1.0040 C   0  0  0  0  0  0  0  0  0  0  0  0
    1.6430   -0.1260   -1.4560 O   0  0  0  0  0  0  0  0  0  0  0  0
  1  2  2  0
  2  3  1  0
  2  8  1  0
  3  4  1  0
  4  5  1  0
  5  6  1  0
  6  7  1  0
  8  9  1  0
  9 10  2  0
 11  9  1  6
 11 12  1  0
 11 14  1  0
 12 13  1  0
 14 13  1  1
 14 15  1  0
 14 29  1  0
 15 16  2  0
 15 17  1  0
 17 18  1  0
 18 19  1  0
 19 20  1  0
 20 21  1  0
 21 22  1  0
 22 23  1  0
 23 24  2  0
 23 27  1  0
 24 25  1  0
 25 26  2  0
 25 28  1  0
 26 27  1  0
 28 29  1  0
 29 30  2  0
M  END
