
     RDKit          3D

 30 30  0  0  0  0  0  0  0  0999 V2000
   -6.3790   -1.6520   -2.1350 C   0  0  0  0  0  0  0  0  0  0  0  0
   -6.1610   -1.5770   -0.3400 S   0  0  0  0  0  0  0  0  0  0  0  0
   -4.7610   -0.5380    0.0110 C   0  0  0  0  0  0  0  0  0  0  0  0
   -4.1160    0.0000   -0.9770 N   0  0  0  0  0  0  0  0  0  0  0  0
   -3.0120    0.8210   -0.7320 O   0  0  0  0  0  0  0  0  0  0  0  0
   -1.7880    0.3220   -1.1710 C   0  0  0  0  0  0  0  0  0  0  0  0
   -0.6000    1.1760   -0.8330 C   0  0  1  0  0  0  0  0  0  0  0  0
   -0.7760    2.1010    0.2250 N   0  0  0  0  0  0  0  0  0  0  0  0
   -0.5440    3.4880    0.0430 C   0  0  0  0  0  0  0  0  0  0  0  0
   -0.7340    4.3810    1.1350 N   0  0  0  0  0  0  0  0  0  0  0  0
   -0.1780    3.9080   -1.0710 O   0  0  0  0  0  0  0  0  0  0  0  0
    0.5660    0.2750   -0.7510 C   0  0  0  0  0  0  0  0  0  0  0  0
    1.2760   -0.1580    0.2660 C   0  0  0  0  0  0  0  0  0  0  0  0
    2.4090   -1.0890   -0.1750 C   0  0  0  0  0  0  0  0  0  0  0  0
    3.6570   -0.5080    0.2420 O   0  0  0  0  0  0  0  0  0  0  0  0
    4.7910   -1.2370   -0.0850 C   0  0  0  0  0  0  0  0  0  0  0  0
    4.6980   -2.3420   -0.7140 O   0  0  0  0  0  0  0  0  0  0  0  0
    6.1050   -0.8240    0.2420 N   0  0  0  0  0  0  0  0  0  0  0  0
    7.2510   -1.5910   -0.1060 C   0  0  0  0  0  0  0  0  0  0  0  0
    7.0960   -2.6890   -0.7340 O   0  0  0  0  0  0  0  0  0  0  0  0
    8.5430   -1.2260    0.1940 O   0  0  0  0  0  0  0  0  0  0  0  0
    1.1670    0.1170    1.6440 N   0  0  0  0  0  0  0  0  0  0  0  0
    0.2170   -0.1840    2.6470 C   0  0  0  0  0  0  0  0  0  0  0  0
    0.3550    0.4160    3.7970 O   0  0  0  0  0  0  0  0  0  0  0  0
   -0.9300   -1.0760    2.6310 C   0  0  0  0  0  0  0  0  0  0  0  0
   -0.9620   -2.0640    3.4690 O   0  0  0  0  0  0  0  0  0  0  0  0
   -2.0350   -1.0180    1.8170 O   0  0  0  0  0  0  0  0  0  0  0  0
   -3.0180   -0.1290    1.7080 O   0  0  0  0  0  0  0  0  0  0  0  0
   -4.3350   -0.2870    1.4100 C   0  0  0  0  0  0  0  0  0  0  0  0
   -5.3110   -0.2420    2.2410 O   0  0  0  0  0  0  0  0  0  0  0  0
  1  2  1  0
  2  3  1  0
  3  4  2  0
  3 29  1  0
  4  5  1  0
  5  6  1  0
  6  7  1  0
  7  8  1  1
  7 12  1  0
  8  9  1  0
  9 10  1  0
  9 11  2  0
 12 13  2  0
 13 14  1  0
 13 22  1  0
 14 15  1  0
 15 16  1  0
 16 17  2  0
 16 18  1  0
 18 19  1  0
 19 20  2  0
 19 21  1  0
 22 23  1  0
 23 24  2  0
 23 25  1  0
 25 26  2  0
 25 27  1  0
 27 28  1  0
 28 29  1  0
 29 30  2  0
M  END
