
     RDKit          3D

 30 32  0  0  0  0  0  0  0  0999 V2000
   -3.2810   -0.7610    1.4140 N   0  0  0  0  0  0  0  0  0  0  0  0
   -3.5340    0.1250    0.5060 C   0  0  0  0  0  0  0  0  0  0  0  0
   -2.4790    0.4980   -0.3480 N   0  0  0  0  0  0  0  0  0  0  0  0
   -1.1440    0.2760   -0.1220 N   0  0  0  0  0  0  0  0  0  0  0  0
   -0.4870   -0.7540   -0.5340 C   0  0  0  0  0  0  0  0  0  0  0  0
   -1.1740   -1.7800   -1.2980 C   0  0  0  0  0  0  0  0  0  0  0  0
   -2.4090   -1.7040   -1.5810 O   0  0  0  0  0  0  0  0  0  0  0  0
   -0.3940   -2.8750   -1.7150 O   0  0  0  0  0  0  0  0  0  0  0  0
    0.6140   -3.3230   -0.8180 C   0  0  0  0  0  0  0  0  0  0  0  0
    1.5380   -2.1940   -0.4240 C   0  0  0  0  0  0  0  0  0  0  0  0
    0.8970   -0.9290   -0.2680 N   0  0  0  0  0  0  0  0  0  0  0  0
    1.6570    0.1910    0.1650 C   0  0  0  0  0  0  0  0  0  0  0  0
    1.0750    1.3260    0.3020 O   0  0  0  0  0  0  0  0  0  0  0  0
    3.0850    0.1790    0.4790 C   0  0  1  0  0  0  0  0  0  0  0  0
    3.7330   -1.0160    0.3420 O   0  0  0  0  0  0  0  0  0  0  0  0
    5.0750   -0.6510    0.5390 C   0  0  0  0  0  0  0  0  0  0  0  0
    5.1430    0.6420   -0.2440 C   0  0  2  0  0  0  0  0  0  0  0  0
    5.7770    0.3330   -1.5160 N   0  0  0  0  0  0  0  0  0  0  0  0
    5.8790    1.5960    0.4600 O   0  0  0  0  0  0  0  0  0  0  0  0
    7.0850    1.0970    0.6270 O   0  0  0  0  0  0  0  0  0  0  0  0
    8.0010    1.7680   -0.0390 O   0  0  0  0  0  0  0  0  0  0  0  0
    7.4700    2.7960   -0.6890 O   0  0  0  0  0  0  0  0  0  0  0  0
    6.8930    3.5980    0.1930 O   0  0  0  0  0  0  0  0  0  0  0  0
    3.8160    1.0100   -0.3910 O   0  0  0  0  0  0  0  0  0  0  0  0
   -4.8530    0.7380    0.3410 C   0  0  2  0  0  0  0  0  0  0  0  0
   -5.8690    0.2310    1.3320 C   0  0  0  0  0  0  0  0  0  0  0  0
   -7.1540    1.0290    1.0730 C   0  0  0  0  0  0  0  0  0  0  0  0
   -7.8240    0.5540   -0.0360 O   0  0  0  0  0  0  0  0  0  0  0  0
   -7.2910    1.0080   -1.2380 C   0  0  0  0  0  0  0  0  0  0  0  0
   -5.5510    0.4350   -1.3240 S   0  0  0  0  0  0  0  0  0  0  0  0
  1  2  2  0
  2  3  1  0
 25  2  1  6
  3  4  1  0
  4  5  2  3
  5  6  1  0
  5 11  1  0
  6  7  2  0
  6  8  1  0
  8  9  1  0
  9 10  1  0
 10 11  1  0
 11 12  1  0
 12 13  2  0
 14 12  1  6
 14 15  1  0
 14 24  1  0
 15 16  1  0
 16 17  1  0
 17 18  1  6
 17 19  1  0
 17 24  1  0
 19 20  1  0
 20 21  1  0
 21 22  1  0
 22 23  1  0
 25 26  1  0
 25 30  1  0
 26 27  1  0
 27 28  1  0
 28 29  1  0
 29 30  1  0
M  END
