
     RDKit          3D

 18 19  0  0  0  0  0  0  0  0999 V2000
   -3.1480    2.3520   -0.3960 C   0  0  0  0  0  0  0  0  0  0  0  0
   -2.8700    0.8730   -0.4970 C   0  0  0  0  0  0  0  0  0  0  0  0
   -3.7700   -0.0880   -0.4310 C   0  0  0  0  0  0  0  0  0  0  0  0
   -3.0770   -1.3780   -0.5740 C   0  0  2  0  0  0  0  0  0  0  0  0
   -3.2650   -2.1250    0.6690 N   0  0  0  0  0  0  0  0  0  0  0  0
   -1.6590   -0.9840   -0.7290 C   0  0  0  0  0  0  0  0  0  0  0  0
   -0.3670   -2.1700   -0.9400 Cl  0  0  0  0  0  0  0  0  0  0  0  0
   -1.5400    0.3310   -0.6840 C   0  0  0  0  0  0  0  0  0  0  0  0
   -0.2980    1.0290   -0.8030 N   0  0  0  0  0  0  0  0  0  0  0  0
    0.7210    0.9670    0.1740 C   0  0  0  0  0  0  0  0  0  0  0  0
    1.9290    0.5260   -0.1520 C   0  0  0  0  0  0  0  0  0  0  0  0
    2.4560   -0.0310   -1.7710 S   0  0  0  0  0  0  0  0  0  0  0  0
    4.1460   -0.3530   -1.3190 C   0  0  0  0  0  0  0  0  0  0  0  0
    5.0260   -0.7430   -2.0950 O   0  0  0  0  0  0  0  0  0  0  0  0
    4.2520   -0.0790    0.0520 N   0  0  0  0  0  0  0  0  0  0  0  0
    5.5300   -0.2790    0.7640 C   0  0  0  0  0  0  0  0  0  0  0  0
    3.1070    0.3820    0.6840 C   0  0  0  0  0  0  0  0  0  0  0  0
    3.0190    0.6830    1.9310 O   0  0  0  0  0  0  0  0  0  0  0  0
  1  2  1  0
  2  3  2  0
  2  8  1  0
  3  4  1  0
  4  5  1  1
  4  6  1  0
  6  7  1  0
  6  8  2  0
  8  9  1  0
  9 10  1  0
 10 11  2  3
 11 12  1  0
 11 17  1  0
 12 13  1  0
 13 14  2  0
 13 15  1  0
 15 16  1  0
 15 17  1  0
 17 18  2  0
M  CHG  1   5   1
M  END
