
     RDKit          3D

 18 19  0  0  0  0  0  0  0  0999 V2000
   -4.3870   -1.9480   -2.0020 O   0  0  0  0  0  0  0  0  0  0  0  0
   -3.2410   -1.8940   -1.4920 C   0  0  0  0  0  0  0  0  0  0  0  0
   -2.1710   -2.5480   -1.9360 N   0  0  0  0  0  0  0  0  0  0  0  0
   -1.1710   -2.2320   -1.1430 N   0  0  0  0  0  0  0  0  0  0  0  0
   -1.5190   -1.3850   -0.1730 C   0  0  0  0  0  0  0  0  0  0  0  0
   -0.6890   -0.6280    1.1690 S   0  0  0  0  0  0  0  0  0  0  0  0
    1.0140   -0.8970    1.4110 C   0  0  0  0  0  0  0  0  0  0  0  0
    2.0460   -0.0770    0.7560 C   0  0  0  0  0  0  0  0  0  0  0  0
    2.8280    0.6270    1.6180 C   0  0  0  0  0  0  0  0  0  0  0  0
    3.9020    1.4990    1.1900 C   0  0  0  0  0  0  0  0  0  0  0  0
    4.2090    1.4820   -0.1920 N   0  0  0  0  0  0  0  0  0  0  0  0
    3.3780    0.7550   -1.0340 C   0  0  0  0  0  0  0  0  0  0  0  0
    2.3450   -0.0000   -0.6480 C   0  0  0  0  0  0  0  0  0  0  0  0
    1.4190   -0.8810   -1.8150 Cl  0  0  0  0  0  0  0  0  0  0  0  0
   -2.8620   -1.1800   -0.4180 N   0  0  0  0  0  0  0  0  0  0  0  0
   -3.7410   -0.3320    0.3560 C   0  0  0  0  0  0  0  0  0  0  0  0
   -3.8110    1.0800   -0.1890 C   0  0  0  0  0  0  0  0  0  0  0  0
   -2.5770    1.7260   -0.2010 O   0  0  0  0  0  0  0  0  0  0  0  0
  1  2  2  0
  2  3  1  0
  2 15  1  0
  3  4  1  0
  4  5  2  0
  5  6  1  0
  5 15  1  0
  6  7  1  0
  7  8  1  0
  8  9  2  0
  8 13  1  0
  9 10  1  0
 10 11  1  0
 11 12  1  0
 12 13  2  0
 13 14  1  0
 15 16  1  0
 16 17  1  0
 17 18  1  0
M  CHG  1  11   1
M  END
