
     RDKit          3D

 20 19  0  0  0  0  0  0  0  0999 V2000
   -3.4650   -2.9110   -1.1210 C   0  0  0  0  0  0  0  0  0  0  0  0
   -3.3730   -1.6010   -0.5780 O   0  0  0  0  0  0  0  0  0  0  0  0
   -2.1450   -1.0870   -0.1580 C   0  0  0  0  0  0  0  0  0  0  0  0
   -1.1460   -1.8400   -0.2880 O   0  0  0  0  0  0  0  0  0  0  0  0
   -2.0170    0.2690    0.4100 C   0  0  1  0  0  0  0  0  0  0  0  0
   -2.4720    1.3610   -0.5190 C   0  0  0  0  0  0  0  0  0  0  0  0
   -3.8690    1.2180   -0.8870 N   0  0  0  0  0  0  0  0  0  0  0  0
   -2.7820    0.3960    1.7190 C   0  0  0  0  0  0  0  0  0  0  0  0
   -2.5940    2.0760    2.3760 S   0  0  0  0  0  0  0  0  0  0  0  0
   -0.6260    0.4990    0.7410 N   0  0  0  0  0  0  0  0  0  0  0  0
    0.3360    0.4220   -0.3020 C   0  0  0  0  0  0  0  0  0  0  0  0
    0.0520    0.1610   -1.5040 O   0  0  0  0  0  0  0  0  0  0  0  0
    1.7360    0.6470   -0.0160 N   0  0  0  0  0  0  0  0  0  0  0  0
    2.6960    0.5620   -1.0970 C   0  0  0  0  0  0  0  0  0  0  0  0
    4.0690    0.8310   -0.5310 C   0  0  1  0  0  0  0  0  0  0  0  0
    4.0120    2.1270    0.0290 O   0  0  0  0  0  0  0  0  0  0  0  0
    4.4440   -0.1140    0.5560 C   0  0  0  0  0  0  0  0  0  0  0  0
    4.4830   -1.5250    0.1860 C   0  0  0  0  0  0  0  0  0  0  0  0
    4.2290   -1.9020   -0.9760 O   0  0  0  0  0  0  0  0  0  0  0  0
    4.8070   -2.4770    1.1330 O   0  0  0  0  0  0  0  0  0  0  0  0
  1  2  1  0
  2  3  1  0
  3  4  2  0
  3  5  1  0
  5  6  1  6
  5  8  1  0
  5 10  1  0
  6  7  1  0
  8  9  1  0
 10 11  1  0
 11 12  2  0
 11 13  1  0
 13 14  1  0
 14 15  1  0
 15 16  1  1
 15 17  1  0
 17 18  1  0
 18 19  2  0
 18 20  1  0
M  CHG  1   7   1
M  END
