
     RDKit          3D

 20 19  0  0  0  0  0  0  0  0999 V2000
   -1.6530   -3.2030   -0.6750 C   0  0  0  0  0  0  0  0  0  0  0  0
   -3.1730   -2.6430    0.1220 S   0  0  0  0  0  0  0  0  0  0  0  0
   -2.7600   -1.6050    1.5020 C   0  0  0  0  0  0  0  0  0  0  0  0
   -3.7080   -1.1650    2.2330 N   0  0  0  0  0  0  0  0  0  0  0  0
   -1.3540   -1.2570    1.8000 C   0  0  0  0  0  0  0  0  0  0  0  0
   -0.8330   -0.3290    0.7310 C   0  0  2  0  0  0  0  0  0  0  0  0
    0.5290   -0.0050    1.0330 O   0  0  0  0  0  0  0  0  0  0  0  0
    1.5240   -0.2320    0.0990 C   0  0  0  0  0  0  0  0  0  0  0  0
    1.2170   -0.7240   -1.0090 O   0  0  0  0  0  0  0  0  0  0  0  0
    2.8890    0.0850    0.3820 N   0  0  0  0  0  0  0  0  0  0  0  0
    3.8800   -0.1850   -0.6570 C   0  0  0  0  0  0  0  0  0  0  0  0
    5.2280    0.2300   -0.1250 C   0  0  0  0  0  0  0  0  0  0  0  0
    5.2010    1.6070    0.1850 O   0  0  0  0  0  0  0  0  0  0  0  0
   -1.6730    0.9420    0.8430 C   0  0  1  0  0  0  0  0  0  0  0  0
   -1.5670    1.4220    2.1330 O   0  0  0  0  0  0  0  0  0  0  0  0
   -1.2340    1.9830   -0.1380 C   0  0  0  0  0  0  0  0  0  0  0  0
   -1.3490    1.4790   -1.4830 N   0  0  0  0  0  0  0  0  0  0  0  0
   -0.9990    2.2540   -2.6290 C   0  0  0  0  0  0  0  0  0  0  0  0
   -0.5760    3.4300   -2.3790 O   0  0  0  0  0  0  0  0  0  0  0  0
   -1.1170    1.7490   -3.9020 O   0  0  0  0  0  0  0  0  0  0  0  0
  1  2  1  0
  2  3  1  0
  3  4  2  0
  3  5  1  0
  6  5  1  1
  6  7  1  0
  6 14  1  0
  7  8  1  0
  8  9  2  0
  8 10  1  0
 10 11  1  0
 11 12  1  0
 12 13  1  0
 14 15  1  1
 14 16  1  0
 16 17  1  0
 17 18  1  0
 18 19  2  0
 18 20  1  0
M  CHG  1   4   1
M  END
