
     RDKit          3D

 20 19  0  0  0  0  0  0  0  0999 V2000
   -5.6610   -0.7190   -0.5900 C   0  0  0  0  0  0  0  0  0  0  0  0
   -4.2930   -0.1130   -0.3890 C   0  0  2  0  0  0  0  0  0  0  0  0
   -3.5870   -0.9490    0.2650 O   0  0  0  0  0  0  0  0  0  0  0  0
   -2.0930   -0.9320    0.0560 C   0  0  0  0  0  0  0  0  0  0  0  0
   -1.5790    0.0440    1.0920 C   0  0  0  0  0  0  0  0  0  0  0  0
   -0.3170   -0.0330    1.3250 O   0  0  0  0  0  0  0  0  0  0  0  0
    0.8260    0.3570    0.9420 C   0  0  0  0  0  0  0  0  0  0  0  0
    1.6430   -0.3790   -0.0610 C   0  0  2  0  0  0  0  0  0  0  0  0
    3.0540    0.0060    0.0100 O   0  0  0  0  0  0  0  0  0  0  0  0
    3.8140   -1.1150   -0.4900 C   0  0  0  0  0  0  0  0  0  0  0  0
    3.4130   -2.1500   -0.5340 O   0  0  0  0  0  0  0  0  0  0  0  0
    5.2480   -0.6830   -0.9110 C   0  0  0  0  0  0  0  0  0  0  0  0
    5.5420    0.2600   -0.0600 O   0  0  0  0  0  0  0  0  0  0  0  0
    6.5930   -0.1050    0.6310 N   0  0  0  0  0  0  0  0  0  0  0  0
    1.1390    0.0750   -1.4170 C   0  0  0  0  0  0  0  0  0  0  0  0
    1.0440    1.4440   -1.5160 N   0  0  0  0  0  0  0  0  0  0  0  0
    0.8920   -1.0380   -2.5540 S   0  0  0  0  0  0  0  0  0  0  0  0
   -4.4830    1.1250    0.3990 C   0  0  0  0  0  0  0  0  0  0  0  0
   -4.7210    1.1310    1.7690 N   0  0  0  0  0  0  0  0  0  0  0  0
   -4.5460    2.2090   -0.2610 O   0  0  0  0  0  0  0  0  0  0  0  0
  2  1  1  1
  2  3  1  0
  2 18  1  0
  3  4  1  0
  4  5  1  0
  5  6  1  0
  6  7  1  0
  8  7  1  1
  8  9  1  0
  8 15  1  0
  9 10  1  0
 10 11  2  0
 10 12  1  0
 12 13  1  0
 13 14  1  0
 15 16  1  0
 15 17  2  0
 18 19  1  0
 18 20  2  0
M  CHG  1  14   1
M  END
