
     RDKit          3D

 20 19  0  0  0  0  0  0  0  0999 V2000
   -1.0960   -0.6700    1.0950 C   0  0  0  0  0  0  0  0  0  0  0  0
   -1.7440    0.0530   -0.0050 C   0  0  2  0  0  0  0  0  0  0  0  0
   -2.2800   -0.9880   -0.9850 C   0  0  0  0  0  0  0  0  0  0  0  0
   -0.8730    0.9650   -0.7920 C   0  0  0  0  0  0  0  0  0  0  0  0
    0.2450    0.4760   -1.4880 N   0  0  0  0  0  0  0  0  0  0  0  0
    1.4150   -0.0430   -0.9170 C   0  0  0  0  0  0  0  0  0  0  0  0
    1.6400   -0.1240    0.3010 O   0  0  0  0  0  0  0  0  0  0  0  0
    2.4620   -0.5290   -1.7350 O   0  0  0  0  0  0  0  0  0  0  0  0
    3.6230   -1.0420   -1.1630 C   0  0  0  0  0  0  0  0  0  0  0  0
    4.3330   -0.0410   -0.3300 C   0  0  0  0  0  0  0  0  0  0  0  0
    3.8970    1.1290   -0.1910 O   0  0  0  0  0  0  0  0  0  0  0  0
    5.5500   -0.3700    0.3540 N   0  0  0  0  0  0  0  0  0  0  0  0
    6.2500    0.6000    1.1690 C   0  0  0  0  0  0  0  0  0  0  0  0
    7.3830   -0.0180    1.6920 O   0  0  0  0  0  0  0  0  0  0  0  0
   -2.8820    0.8950    0.5590 C   0  0  1  0  0  0  0  0  0  0  0  0
   -3.5930    1.6500   -0.4250 N   0  0  0  0  0  0  0  0  0  0  0  0
   -3.7400    0.1970    1.5480 C   0  0  0  0  0  0  0  0  0  0  0  0
   -4.5560   -1.2500    1.0020 S   0  0  0  0  0  0  0  0  0  0  0  0
   -4.8930   -2.2560    2.0420 O   0  0  0  0  0  0  0  0  0  0  0  0
   -5.6010   -1.0960   -0.2670 O   0  0  0  0  0  0  0  0  0  0  0  0
  2  1  1  1
  2  3  1  0
  2  4  1  0
  2 15  1  0
  4  5  1  0
  5  6  1  0
  6  7  2  0
  6  8  1  0
  8  9  1  0
  9 10  1  0
 10 11  2  0
 10 12  1  0
 12 13  1  0
 13 14  1  0
 15 16  1  6
 15 17  1  0
 17 18  1  0
 18 19  2  0
 18 20  1  1
M  CHG  1  16   1
M  END
