
     RDKit          3D

 27 28  0  0  0  0  0  0  0  0999 V2000
   -1.9440   -0.5890    2.2060 N   0  0  0  0  0  0  0  0  0  0  0  0
   -2.8140   -1.3380    1.3980 C   0  0  0  0  0  0  0  0  0  0  0  0
   -3.1810   -2.4660    1.8760 O   0  0  0  0  0  0  0  0  0  0  0  0
   -3.3130   -0.8920    0.0500 C   0  0  2  0  0  0  0  0  0  0  0  0
   -4.1810   -1.9680   -0.4240 N   0  0  0  0  0  0  0  0  0  0  0  0
   -3.6710   -2.4710   -1.4380 N   0  0  0  0  0  0  0  0  0  0  0  0
   -2.4760   -1.8490   -1.7700 N   0  0  0  0  0  0  0  0  0  0  0  0
   -2.2130   -0.8900   -0.9120 C   0  0  0  0  0  0  0  0  0  0  0  0
   -1.0460   -0.1030   -1.0390 N   0  0  0  0  0  0  0  0  0  0  0  0
   -0.0280   -0.3880   -2.0780 C   0  0  0  0  0  0  0  0  0  0  0  0
    1.3380    0.0140   -1.5750 C   0  0  2  0  0  0  0  0  0  0  0  0
    1.9500   -1.1100   -0.8090 C   0  0  0  0  0  0  0  0  0  0  0  0
    1.9420   -2.3330   -1.5000 O   0  0  0  0  0  0  0  0  0  0  0  0
    2.4770   -3.4670   -0.9120 C   0  0  0  0  0  0  0  0  0  0  0  0
    2.9560   -3.3370    0.2440 O   0  0  0  0  0  0  0  0  0  0  0  0
    2.4880   -4.7100   -1.5730 O   0  0  0  0  0  0  0  0  0  0  0  0
    3.1870   -6.1050   -0.7580 P   0  0  0  0  0  0  0  0  0  0  0  0
    4.1440   -5.9240    0.4340 O   0  0  0  0  0  0  0  0  0  0  0  0
    1.3790    1.1680   -0.8490 O   0  0  0  0  0  0  0  0  0  0  0  0
    0.5810    1.2020    0.2860 C   0  0  1  0  0  0  0  0  0  0  0  0
    0.7540    2.5590    0.9440 C   0  0  0  0  0  0  0  0  0  0  0  0
    0.3740    3.5840    0.0820 O   0  0  0  0  0  0  0  0  0  0  0  0
    0.5800    5.1020    0.8540 P   0  0  0  0  0  0  0  0  0  0  0  0
    1.4930    5.0170    2.3050 O   0  0  0  0  0  0  0  0  0  0  0  0
   -0.9580    5.8020    1.1770 O   0  0  0  0  0  0  0  0  0  0  0  0
   -0.8120    0.9800   -0.1570 C   0  0  0  0  0  0  0  0  0  0  0  0
   -1.7530    1.7080    0.2190 O   0  0  0  0  0  0  0  0  0  0  0  0
  1  2  1  0
  2  3  2  0
  4  2  1  1
  4  5  1  0
  4  8  1  0
  5  6  2  0
  6  7  1  0
  7  8  2  0
  8  9  1  0
  9 10  1  0
  9 26  1  0
 10 11  1  0
 11 12  1  1
 11 19  1  0
 12 13  1  0
 13 14  1  0
 14 15  2  0
 14 16  1  0
 16 17  1  0
 17 18  2  0
 19 20  1  0
 20 21  1  6
 20 26  1  0
 21 22  1  0
 22 23  1  0
 23 24  1  0
 23 25  1  0
 26 27  2  0
M  END
