
     RDKit          3D

 27 28  0  0  0  0  0  0  0  0999 V2000
    4.5240   -2.9170   -0.6490 C   0  0  0  0  0  0  0  0  0  0  0  0
    3.9430   -1.9240   -1.6550 C   0  0  2  0  0  0  0  0  0  0  0  0
    4.6640   -0.7100   -1.5470 O   0  0  0  0  0  0  0  0  0  0  0  0
    4.1220   -0.0880   -0.4390 N   0  0  0  0  0  0  0  0  0  0  0  0
    2.9490   -0.5520   -0.1750 C   0  0  0  0  0  0  0  0  0  0  0  0
    2.0520   -0.1240    0.9500 C   0  0  0  0  0  0  0  0  0  0  0  0
    0.8020    0.3940    0.4560 N   0  0  0  0  0  0  0  0  0  0  0  0
    0.7740    1.7250    0.2130 C   0  0  0  0  0  0  0  0  0  0  0  0
    1.8690    2.2910    0.4600 O   0  0  0  0  0  0  0  0  0  0  0  0
   -0.2700    2.5160   -0.2580 C   0  0  0  0  0  0  0  0  0  0  0  0
    0.0720    3.9400   -0.4320 C   0  0  0  0  0  0  0  0  0  0  0  0
   -0.9970    4.7090   -0.9060 O   0  0  0  0  0  0  0  0  0  0  0  0
   -2.1780    4.8220   -0.2150 C   0  0  0  0  0  0  0  0  0  0  0  0
   -2.3110    4.2230    0.8690 O   0  0  0  0  0  0  0  0  0  0  0  0
   -1.5130    2.1020   -0.5550 N   0  0  0  0  0  0  0  0  0  0  0  0
   -2.0450    0.8500   -0.4960 C   0  0  0  0  0  0  0  0  0  0  0  0
   -3.2860    0.7820   -0.8180 N   0  0  0  0  0  0  0  0  0  0  0  0
   -1.4700   -0.3020   -0.1570 N   0  0  0  0  0  0  0  0  0  0  0  0
   -2.4050   -1.8020   -0.2750 P   0  0  0  0  0  0  0  0  0  0  0  0
   -1.3630   -3.1770   -0.2120 O   0  0  0  0  0  0  0  0  0  0  0  0
   -1.5930   -3.9420    0.8170 O   0  0  0  0  0  0  0  0  0  0  0  0
   -3.9420   -1.9970    1.2520 P   0  0  0  0  0  0  0  0  0  0  0  0
   -5.3540   -2.7830    0.6130 O   0  0  0  0  0  0  0  0  0  0  0  0
   -4.4270   -0.4760    1.9190 O   0  0  0  0  0  0  0  0  0  0  0  0
   -0.1930   -0.4640    0.2880 C   0  0  0  0  0  0  0  0  0  0  0  0
    0.0980   -1.6480    0.5960 O   0  0  0  0  0  0  0  0  0  0  0  0
    2.6890   -1.5210   -1.1390 O   0  0  0  0  0  0  0  0  0  0  0  0
  2  1  1  1
  2  3  1  0
  2 27  1  0
  3  4  1  0
  4  5  2  0
  5  6  1  0
  5 27  1  0
  6  7  1  0
  7  8  1  0
  7 25  1  0
  8  9  2  0
  8 10  1  0
 10 11  1  0
 10 15  2  0
 11 12  1  0
 12 13  1  0
 13 14  2  0
 15 16  1  0
 16 17  2  0
 16 18  1  0
 18 19  1  0
 18 25  1  0
 19 20  1  0
 19 22  1  0
 20 21  1  0
 22 23  1  0
 22 24  1  0
 25 26  2  0
M  END
