
     RDKit          3D

 27 28  0  0  0  0  0  0  0  0999 V2000
    2.6050    5.3310   -1.4290 O   0  0  0  0  0  0  0  0  0  0  0  0
    3.0330    4.2100   -2.4150 P   0  0  0  0  0  0  0  0  0  0  0  0
    2.7680    2.4940   -1.8990 N   0  0  0  0  0  0  0  0  0  0  0  0
    3.0020    2.0890   -0.5630 C   0  0  0  0  0  0  0  0  0  0  0  0
    3.3950    2.9330    0.2580 O   0  0  0  0  0  0  0  0  0  0  0  0
    2.7840    0.7450   -0.2040 N   0  0  0  0  0  0  0  0  0  0  0  0
    2.3500   -0.2230   -1.1230 C   0  0  0  0  0  0  0  0  0  0  0  0
    0.9790   -0.5820   -1.3500 C   0  0  0  0  0  0  0  0  0  0  0  0
    0.8260   -1.4950   -2.3100 O   0  0  0  0  0  0  0  0  0  0  0  0
   -0.2620   -0.2280   -0.8150 N   0  0  0  0  0  0  0  0  0  0  0  0
   -1.3970   -0.9610   -1.3860 C   0  0  0  0  0  0  0  0  0  0  0  0
   -2.6020   -1.0190   -0.5520 C   0  0  2  0  0  0  0  0  0  0  0  0
   -3.5230    0.1260   -0.6100 C   0  0  0  0  0  0  0  0  0  0  0  0
   -3.3360    1.1910   -1.2310 O   0  0  0  0  0  0  0  0  0  0  0  0
   -4.7490   -0.0360    0.1360 N   0  0  0  0  0  0  0  0  0  0  0  0
   -4.7730   -1.0090    1.1700 N   0  0  0  0  0  0  0  0  0  0  0  0
   -3.6190   -1.7890    1.4490 C   0  0  0  0  0  0  0  0  0  0  0  0
   -3.7090   -2.8720    2.0680 O   0  0  0  0  0  0  0  0  0  0  0  0
   -2.3280   -1.2130    0.9490 C   0  0  2  0  0  0  0  0  0  0  0  0
   -2.2430    0.0330    1.5240 O   0  0  0  0  0  0  0  0  0  0  0  0
   -1.0210    0.6380    1.5100 C   0  0  0  0  0  0  0  0  0  0  0  0
   -0.3930    0.7580    0.1800 C   0  0  0  0  0  0  0  0  0  0  0  0
    0.1030    1.8880   -0.1400 O   0  0  0  0  0  0  0  0  0  0  0  0
    3.0190    0.4240    1.1000 O   0  0  0  0  0  0  0  0  0  0  0  0
    3.6350   -1.1850    1.2630 P   0  0  0  0  0  0  0  0  0  0  0  0
    5.3200   -1.1470    0.8180 O   0  0  0  0  0  0  0  0  0  0  0  0
    3.5790   -1.5820    2.9670 O   0  0  0  0  0  0  0  0  0  0  0  0
  1  2  2  0
  2  3  1  0
  3  4  1  0
  4  5  2  0
  4  6  1  0
  6  7  1  0
  6 24  1  0
  7  8  1  0
  8  9  2  0
  8 10  1  0
 10 11  1  0
 10 22  1  0
 12 11  1  6
 12 13  1  0
 12 19  1  0
 13 14  2  0
 13 15  1  0
 15 16  1  0
 16 17  1  0
 17 18  2  0
 17 19  1  0
 19 20  1  1
 20 21  1  0
 21 22  1  0
 22 23  2  0
 24 25  1  0
 25 26  1  0
 25 27  1  0
M  END
