
     RDKit          3D

 11 11  0  0  0  0  0  0  0  0999 V2000
   -3.4060    0.8770    0.3820 N   0  0  0  0  0  0  0  0  0  0  0  0
   -2.1270    0.4320   -0.0770 C   0  0  1  0  0  0  0  0  0  0  0  0
   -1.1080    0.2720    1.0130 C   0  0  0  0  0  0  0  0  0  0  0  0
   -0.1550   -0.7510    0.3850 C   0  0  2  0  0  0  0  0  0  0  0  0
    0.9810   -0.0520   -0.0300 O   0  0  0  0  0  0  0  0  0  0  0  0
    2.2680   -0.3560    0.3810 C   0  0  0  0  0  0  0  0  0  0  0  0
    2.4380   -1.3180    1.1770 O   0  0  0  0  0  0  0  0  0  0  0  0
    3.3930    0.4470   -0.1190 C   0  0  0  0  0  0  0  0  0  0  0  0
    2.9300    1.4330   -0.9730 O   0  0  0  0  0  0  0  0  0  0  0  0
   -0.9450   -1.2110   -0.8250 C   0  0  0  0  0  0  0  0  0  0  0  0
   -2.2830   -0.9020   -0.5160 O   0  0  0  0  0  0  0  0  0  0  0  0
  2  1  1  1
  2  3  1  0
  2 11  1  0
  3  4  1  0
  4  5  1  6
  4 10  1  0
  5  6  1  0
  6  7  2  0
  6  8  1  0
  8  9  1  0
 10 11  1  0
M  END
