
     RDKit          3D

 10 10  0  0  0  0  0  0  0  0999 V2000
    2.1750   -1.1350    0.3900 C   0  0  0  0  0  0  0  0  0  0  0  0
    1.4980    0.1100    0.5020 N   0  0  0  0  0  0  0  0  0  0  0  0
    0.1700   -0.0010    1.0790 C   0  0  0  0  0  0  0  0  0  0  0  0
   -0.7150   -0.1230   -0.1190 C   0  0  1  0  0  0  0  0  0  0  0  0
   -1.2230   -1.5690   -0.1650 C   0  0  0  0  0  0  0  0  0  0  0  0
   -1.9130    0.7850   -0.0750 C   0  0  0  0  0  0  0  0  0  0  0  0
   -1.6110    2.1220    0.0010 O   0  0  0  0  0  0  0  0  0  0  0  0
    0.0660    0.1540   -1.2120 O   0  0  0  0  0  0  0  0  0  0  0  0
    1.2190    0.7660   -0.7380 C   0  0  1  0  0  0  0  0  0  0  0  0
    0.9790    2.1240   -0.4390 O   0  0  0  0  0  0  0  0  0  0  0  0
  1  2  1  0
  2  3  1  0
  2  9  1  0
  3  4  1  0
  4  5  1  6
  4  6  1  0
  4  8  1  0
  6  7  1  0
  8  9  1  0
  9 10  1  1
M  END
