
     RDKit          3D

 10 10  0  0  0  0  0  0  0  0999 V2000
   -2.0400   -1.3110    0.6050 N   0  0  0  0  0  0  0  0  0  0  0  0
   -1.0670   -1.1510   -0.4380 C   0  0  0  0  0  0  0  0  0  0  0  0
   -0.2430    0.1240   -0.2340 C   0  0  1  0  0  0  0  0  0  0  0  0
   -1.2510    1.2740   -0.3740 C   0  0  0  0  0  0  0  0  0  0  0  0
   -0.5730    2.4890   -0.2220 O   0  0  0  0  0  0  0  0  0  0  0  0
    0.2810    0.1740    1.1620 C   0  0  0  0  0  0  0  0  0  0  0  0
    1.4920   -0.4510    1.3420 O   0  0  0  0  0  0  0  0  0  0  0  0
    2.4380   -0.1380    0.3760 C   0  0  0  0  0  0  0  0  0  0  0  0
    1.8800   -0.3720   -1.0040 C   0  0  0  0  0  0  0  0  0  0  0  0
    0.6870    0.2940   -1.2150 O   0  0  0  0  0  0  0  0  0  0  0  0
  1  2  1  0
  3  2  1  6
  3  4  1  0
  3  6  1  0
  3 10  1  0
  4  5  1  0
  6  7  1  0
  7  8  1  0
  8  9  1  0
  9 10  1  0
M  END
