
     RDKit          3D

 23 24  0  0  0  0  0  0  0  0999 V2000
   -3.9560   -3.0660   -1.1810 N   0  0  0  0  0  0  0  0  0  0  0  0
   -4.7350   -1.9750   -0.6760 C   0  0  0  0  0  0  0  0  0  0  0  0
   -5.9310   -2.2090   -0.4740 O   0  0  0  0  0  0  0  0  0  0  0  0
   -4.1380   -0.6730   -0.4200 C   0  0  0  0  0  0  0  0  0  0  0  0
   -4.7780    0.3740    0.0400 C   0  0  0  0  0  0  0  0  0  0  0  0
   -6.1660    0.4550    0.3800 C   0  0  0  0  0  0  0  0  0  0  0  0
   -6.6620    1.5940    0.8350 C   0  0  0  0  0  0  0  0  0  0  0  0
   -5.8320    2.6990    0.9780 O   0  0  0  0  0  0  0  0  0  0  0  0
   -2.6600   -0.4920   -0.7020 C   0  0  0  0  0  0  0  0  0  0  0  0
   -1.8660   -1.4020    0.0960 N   0  0  0  0  0  0  0  0  0  0  0  0
   -0.6740   -0.6870    0.5010 C   0  0  0  0  0  0  0  0  0  0  0  0
    0.4230   -0.8480   -0.4750 C   0  0  0  0  0  0  0  0  0  0  0  0
    0.2070   -1.5630   -1.5140 O   0  0  0  0  0  0  0  0  0  0  0  0
    1.6740   -0.2190   -0.2480 N   0  0  0  0  0  0  0  0  0  0  0  0
    2.7050   -0.4200   -1.2470 C   0  0  0  0  0  0  0  0  0  0  0  0
    3.6560    0.7410   -1.3260 C   0  0  0  0  0  0  0  0  0  0  0  0
    4.1710    0.9930    0.0830 C   0  0  2  0  0  0  0  0  0  0  0  0
    3.0530    1.4220    0.9710 C   0  0  0  0  0  0  0  0  0  0  0  0
    1.8450    0.5660    0.9360 C   0  0  0  0  0  0  0  0  0  0  0  0
    5.1590    1.9450    0.0450 O   0  0  0  0  0  0  0  0  0  0  0  0
    6.3060    1.4130    0.6030 C   0  0  0  0  0  0  0  0  0  0  0  0
    6.0930   -0.0770    0.4300 C   0  0  0  0  0  0  0  0  0  0  0  0
    4.7150   -0.1810    0.5840 O   0  0  0  0  0  0  0  0  0  0  0  0
  1  2  1  0
  2  3  2  0
  2  4  1  0
  4  5  2  3
  4  9  1  0
  5  6  1  0
  6  7  2  3
  7  8  1  0
  9 10  1  0
 10 11  1  0
 11 12  1  0
 12 13  2  0
 12 14  1  0
 14 15  1  0
 14 19  1  0
 15 16  1  0
 17 16  1  6
 17 18  1  0
 17 20  1  0
 17 23  1  0
 18 19  1  0
 20 21  1  0
 21 22  1  0
 22 23  1  0
M  CHG  1  10   1
M  END
