
     RDKit          3D

 23 24  0  0  0  0  0  0  0  0999 V2000
   -0.1460    3.9450   -1.3010 C   0  0  0  0  0  0  0  0  0  0  0  0
   -0.0450    2.3940   -1.4010 C   0  0  1  0  0  0  0  0  0  0  0  0
    1.2100    2.1860   -2.2610 C   0  0  0  0  0  0  0  0  0  0  0  0
    0.0460    1.7870   -0.2190 O   0  0  0  0  0  0  0  0  0  0  0  0
    0.1750    0.5780    0.3130 C   0  0  0  0  0  0  0  0  0  0  0  0
   -0.2170   -0.7370   -0.1410 C   0  0  0  0  0  0  0  0  0  0  0  0
   -0.8040   -1.2330   -1.1760 C   0  0  0  0  0  0  0  0  0  0  0  0
   -1.3110   -0.5410   -2.3480 C   0  0  0  0  0  0  0  0  0  0  0  0
   -1.8610   -1.4580   -3.2480 O   0  0  0  0  0  0  0  0  0  0  0  0
   -2.8790   -2.2320   -2.6970 C   0  0  0  0  0  0  0  0  0  0  0  0
   -2.2990   -3.1650   -1.6500 C   0  0  0  0  0  0  0  0  0  0  0  0
   -1.0180   -2.6600   -1.2390 O   0  0  0  0  0  0  0  0  0  0  0  0
    0.8220    0.5720    1.5770 C   0  0  0  0  0  0  0  0  0  0  0  0
    0.9230   -0.6790    2.0630 O   0  0  0  0  0  0  0  0  0  0  0  0
    1.4370   -1.2320    3.1760 C   0  0  0  0  0  0  0  0  0  0  0  0
    1.9750   -0.4800    4.0270 O   0  0  0  0  0  0  0  0  0  0  0  0
    1.3970   -2.6890    3.4430 C   0  0  0  0  0  0  0  0  0  0  0  0
    1.7990   -3.4910    4.4020 C   0  0  0  0  0  0  0  0  0  0  0  0
    1.2850   -4.6140    3.6850 N   0  0  0  0  0  0  0  0  0  0  0  0
    0.8810   -3.8190    2.7260 C   0  0  0  0  0  0  0  0  0  0  0  0
    1.2600    1.7890    2.1530 C   0  0  0  0  0  0  0  0  0  0  0  0
    1.1270    3.0880    1.5980 N   0  0  0  0  0  0  0  0  0  0  0  0
    1.8440    1.7570    3.2980 O   0  0  0  0  0  0  0  0  0  0  0  0
  2  1  1  1
  2  3  1  0
  2  4  1  0
  4  5  1  0
  5  6  1  0
  5 13  2  3
  6  7  2  3
  7  8  1  0
  7 12  1  0
  8  9  1  0
  9 10  1  0
 10 11  1  0
 11 12  1  0
 13 14  1  0
 13 21  1  0
 14 15  1  0
 15 16  2  0
 15 17  1  0
 17 18  2  0
 17 20  1  0
 18 19  1  0
 19 20  2  0
 21 22  1  0
 21 23  2  0
M  CHG  1  22   1
M  END
