
     RDKit          3D

 24 25  0  0  0  0  0  0  0  0999 V2000
   -4.7550    2.7990    1.7630 C   0  0  0  0  0  0  0  0  0  0  0  0
   -4.4880    1.7510    0.8580 O   0  0  0  0  0  0  0  0  0  0  0  0
   -3.3970    0.9090    0.9560 C   0  0  0  0  0  0  0  0  0  0  0  0
   -2.5860    1.0640    1.8930 O   0  0  0  0  0  0  0  0  0  0  0  0
   -3.1770   -0.1710   -0.0300 C   0  0  1  0  0  0  0  0  0  0  0  0
   -1.9580   -0.8580    0.3380 N   0  0  0  0  0  0  0  0  0  0  0  0
   -0.6850   -0.1920    0.4020 C   0  0  0  0  0  0  0  0  0  0  0  0
   -0.6590    1.0340    0.1220 O   0  0  0  0  0  0  0  0  0  0  0  0
    0.4970   -0.8750    0.7640 N   0  0  0  0  0  0  0  0  0  0  0  0
    1.8100   -0.2250    0.8340 C   0  0  0  0  0  0  0  0  0  0  0  0
    2.2030    0.3310   -0.5130 C   0  0  0  0  0  0  0  0  0  0  0  0
    3.4270    0.9410   -0.5030 O   0  0  0  0  0  0  0  0  0  0  0  0
    4.6380    0.3600   -0.2950 C   0  0  0  0  0  0  0  0  0  0  0  0
    4.8290   -0.9830   -0.1070 C   0  0  0  0  0  0  0  0  0  0  0  0
    6.1170   -1.4760    0.1060 C   0  0  0  0  0  0  0  0  0  0  0  0
    7.1890   -0.6710    0.1310 N   0  0  0  0  0  0  0  0  0  0  0  0
    7.0450    0.6600   -0.0510 C   0  0  0  0  0  0  0  0  0  0  0  0
    5.7930    1.1610   -0.2600 C   0  0  0  0  0  0  0  0  0  0  0  0
    5.5840    2.5290   -0.4540 O   0  0  0  0  0  0  0  0  0  0  0  0
   -4.3300   -1.1170    0.1080 C   0  0  0  0  0  0  0  0  0  0  0  0
   -4.7690   -1.8190   -1.1200 C   0  0  0  0  0  0  0  0  0  0  0  0
   -3.8130   -1.5460   -2.2370 C   0  0  0  0  0  0  0  0  0  0  0  0
   -3.7390   -0.1680   -2.3850 O   0  0  0  0  0  0  0  0  0  0  0  0
   -3.0250    0.4480   -1.3790 C   0  0  0  0  0  0  0  0  0  0  0  0
  1  2  1  0
  2  3  1  0
  3  4  2  0
  3  5  1  0
  5  6  1  1
  5 20  1  0
  5 24  1  0
  6  7  1  0
  7  8  2  0
  7  9  1  0
  9 10  1  0
 10 11  1  0
 11 12  1  0
 12 13  1  0
 13 14  2  0
 13 18  1  0
 14 15  1  0
 15 16  2  0
 16 17  1  0
 17 18  2  0
 18 19  1  0
 20 21  1  0
 21 22  1  0
 22 23  1  0
 23 24  1  0
M  CHG  1  16   1
M  END
