
     RDKit          3D

 28 29  0  0  0  0  0  0  0  0999 V2000
   -3.6580    2.7770   -0.0430 C   0  0  0  0  0  0  0  0  0  0  0  0
   -3.9300    1.3680   -0.4750 C   0  0  0  0  0  0  0  0  0  0  0  0
   -3.3760    0.3490    0.4890 C   0  0  2  0  0  0  0  0  0  0  0  0
   -3.9750    0.5040    1.8700 C   0  0  0  0  0  0  0  0  0  0  0  0
   -5.4770    0.3260    1.8300 C   0  0  0  0  0  0  0  0  0  0  0  0
   -1.9980    0.4280    0.5030 O   0  0  0  0  0  0  0  0  0  0  0  0
   -1.3750   -0.7560    0.0800 C   0  0  2  0  0  0  0  0  0  0  0  0
   -0.6900   -1.3400    1.2870 C   0  0  0  0  0  0  0  0  0  0  0  0
    0.3160   -2.3810    0.8900 C   0  0  0  0  0  0  0  0  0  0  0  0
    0.4850   -3.5820    1.6820 C   0  0  0  0  0  0  0  0  0  0  0  0
   -0.2280   -3.7330    2.7040 O   0  0  0  0  0  0  0  0  0  0  0  0
    1.3930   -4.5740    1.3680 O   0  0  0  0  0  0  0  0  0  0  0  0
    1.0690   -2.2360   -0.1790 C   0  0  0  0  0  0  0  0  0  0  0  0
    0.9010   -1.0140   -0.9870 C   0  0  2  0  0  0  0  0  0  0  0  0
    1.7810   -0.0010   -0.4120 N   0  0  0  0  0  0  0  0  0  0  0  0
    2.9840   -0.1990    0.1440 C   0  0  0  0  0  0  0  0  0  0  0  0
    3.5010    0.9950    0.5710 C   0  0  0  0  0  0  0  0  0  0  0  0
    4.7980    1.2760    1.2420 C   0  0  2  0  0  0  0  0  0  0  0  0
    4.6920    2.1280    2.3110 O   0  0  0  0  0  0  0  0  0  0  0  0
    5.7550    1.7790    0.1830 C   0  0  0  0  0  0  0  0  0  0  0  0
    7.1190    2.0960    0.7820 C   0  0  0  0  0  0  0  0  0  0  0  0
    2.5580    1.9220    0.2480 N   0  0  0  0  0  0  0  0  0  0  0  0
    1.5440    1.2970   -0.3370 N   0  0  0  0  0  0  0  0  0  0  0  0
   -0.5040   -0.5430   -1.1050 C   0  0  1  0  0  0  0  0  0  0  0  0
   -1.1050   -1.2240   -2.2610 N   0  0  0  0  0  0  0  0  0  0  0  0
   -1.5440   -0.5150   -3.4080 C   0  0  0  0  0  0  0  0  0  0  0  0
   -2.1350   -1.2730   -4.5220 C   0  0  0  0  0  0  0  0  0  0  0  0
   -1.4030    0.7360   -3.4090 O   0  0  0  0  0  0  0  0  0  0  0  0
  1  2  1  0
  3  2  1  6
  3  4  1  0
  3  6  1  0
  4  5  1  0
  7  6  1  1
  7  8  1  0
  7 24  1  0
  8  9  1  0
  9 10  1  0
  9 13  2  0
 10 11  2  0
 10 12  1  0
 13 14  1  0
 14 15  1  1
 14 24  1  0
 15 16  1  0
 15 23  1  0
 16 17  2  0
 17 18  1  0
 17 22  1  0
 18 19  1  1
 18 20  1  0
 20 21  1  0
 22 23  2  0
 24 25  1  6
 25 26  1  0
 26 27  1  0
 26 28  2  0
M  END
