
     RDKit          3D

 28 29  0  0  0  0  0  0  0  0999 V2000
   -2.7310    3.2440    3.2170 C   0  0  0  0  0  0  0  0  0  0  0  0
   -2.2840    2.5680    1.9040 C   0  0  0  0  0  0  0  0  0  0  0  0
   -2.8570    1.1940    1.7890 C   0  0  0  0  0  0  0  0  0  0  0  0
   -2.4060    0.4710    0.5850 N   0  0  0  0  0  0  0  0  0  0  0  0
   -3.1140    0.4270   -0.6130 C   0  0  0  0  0  0  0  0  0  0  0  0
   -4.1550   -0.5560   -0.9360 C   0  0  2  0  0  0  0  0  0  0  0  0
   -4.5590   -0.1790   -2.4110 C   0  0  0  0  0  0  0  0  0  0  0  0
   -5.4740   -0.3430   -0.1980 C   0  0  0  0  0  0  0  0  0  0  0  0
   -6.3480   -1.3410   -0.6190 O   0  0  0  0  0  0  0  0  0  0  0  0
   -1.1130   -0.1350    0.7600 C   0  0  0  0  0  0  0  0  0  0  0  0
   -0.4370    0.1720    1.7770 O   0  0  0  0  0  0  0  0  0  0  0  0
   -0.4890   -1.1200   -0.1880 C   0  0  1  0  0  0  0  0  0  0  0  0
   -0.1900   -0.6250   -1.4670 N   0  0  0  0  0  0  0  0  0  0  0  0
    0.9880   -1.1010   -2.1080 C   0  0  2  0  0  0  0  0  0  0  0  0
    1.2050   -2.4960   -2.4570 C   0  0  0  0  0  0  0  0  0  0  0  0
    1.2550   -3.5560   -1.4170 C   0  0  0  0  0  0  0  0  0  0  0  0
    2.0850   -0.5500   -1.2250 C   0  0  0  0  0  0  0  0  0  0  0  0
    3.1100    0.1370   -1.6630 N   0  0  0  0  0  0  0  0  0  0  0  0
    4.0160    0.6760   -0.7780 C   0  0  0  0  0  0  0  0  0  0  0  0
    4.9510    1.3130   -1.3320 O   0  0  0  0  0  0  0  0  0  0  0  0
    3.8730    0.5130    0.5380 N   0  0  0  0  0  0  0  0  0  0  0  0
    4.8110    1.1120    1.4340 C   0  0  2  0  0  0  0  0  0  0  0  0
    5.6270    2.2360    0.8170 C   0  0  0  0  0  0  0  0  0  0  0  0
    5.7850    0.0400    1.8970 C   0  0  0  0  0  0  0  0  0  0  0  0
    2.8350   -0.1860    1.0160 C   0  0  0  0  0  0  0  0  0  0  0  0
    2.7020   -0.3410    2.2380 O   0  0  0  0  0  0  0  0  0  0  0  0
    1.8990   -0.7470    0.1430 C   0  0  0  0  0  0  0  0  0  0  0  0
    0.7920   -1.4880    0.4830 O   0  0  0  0  0  0  0  0  0  0  0  0
  1  2  1  0
  2  3  1  0
  3  4  1  0
  4  5  1  0
  4 10  1  0
  5  6  1  0
  6  7  1  6
  6  8  1  0
  8  9  1  0
 10 11  2  0
 12 10  1  1
 12 13  1  0
 12 28  1  0
 13 14  1  0
 14 15  1  1
 14 17  1  0
 15 16  1  0
 17 18  1  0
 17 27  2  0
 18 19  1  0
 19 20  2  0
 19 21  1  0
 21 22  1  0
 21 25  1  0
 22 23  1  6
 22 24  1  0
 25 26  2  0
 25 27  1  0
 27 28  1  0
M  END
