
     RDKit          3D

 28 28  0  0  0  0  0  0  0  0999 V2000
   -5.9060   -2.3880    2.3230 C   0  0  0  0  0  0  0  0  0  0  0  0
   -4.8970   -1.2800    2.2020 C   0  0  0  0  0  0  0  0  0  0  0  0
   -4.4620   -1.1970    0.8600 O   0  0  0  0  0  0  0  0  0  0  0  0
   -3.5280   -0.2650    0.4390 C   0  0  0  0  0  0  0  0  0  0  0  0
   -3.0740    0.5180    1.3090 O   0  0  0  0  0  0  0  0  0  0  0  0
   -3.0620   -0.1530   -0.9220 C   0  0  0  0  0  0  0  0  0  0  0  0
   -3.5700   -1.0540   -1.9790 C   0  0  0  0  0  0  0  0  0  0  0  0
   -2.9590   -0.7710   -3.3190 C   0  0  0  0  0  0  0  0  0  0  0  0
   -2.1980    0.7330   -1.2350 N   0  0  0  0  0  0  0  0  0  0  0  0
   -1.6940    1.6190   -0.2100 C   0  0  0  0  0  0  0  0  0  0  0  0
   -0.4820    1.4250    0.2770 C   0  0  0  0  0  0  0  0  0  0  0  0
    0.1200    2.2400    1.2950 C   0  0  0  0  0  0  0  0  0  0  0  0
   -0.3290    3.2410    1.9060 N   0  0  0  0  0  0  0  0  0  0  0  0
   -1.5330    3.8440    1.7740 N   0  0  0  0  0  0  0  0  0  0  0  0
   -1.6870    5.0560    1.0050 C   0  0  0  0  0  0  0  0  0  0  0  0
   -3.0100    5.6920    0.8780 C   0  0  0  0  0  0  0  0  0  0  0  0
   -0.6630    5.5290    0.4630 O   0  0  0  0  0  0  0  0  0  0  0  0
    0.2690    0.2850   -0.2910 C   0  0  0  0  0  0  0  0  0  0  0  0
   -0.2700   -0.4380   -1.1960 O   0  0  0  0  0  0  0  0  0  0  0  0
    1.5670   -0.0910    0.0850 N   0  0  0  0  0  0  0  0  0  0  0  0
    2.2350   -1.2220   -0.5190 C   0  0  2  0  0  0  0  0  0  0  0  0
    2.6330   -2.2690    0.4670 C   0  0  0  0  0  0  0  0  0  0  0  0
    3.6470   -3.0480   -0.3640 C   0  0  0  0  0  0  0  0  0  0  0  0
    4.5450   -1.9060   -0.8040 C   0  0  2  0  0  0  0  0  0  0  0  0
    5.1980   -1.4270    0.3180 O   0  0  0  0  0  0  0  0  0  0  0  0
    6.5760   -1.3890    0.1650 C   0  0  0  0  0  0  0  0  0  0  0  0
    7.0260   -0.5110   -0.9680 C   0  0  0  0  0  0  0  0  0  0  0  0
    3.5140   -0.8590   -1.1980 C   0  0  0  0  0  0  0  0  0  0  0  0
  1  2  1  0
  2  3  1  0
  3  4  1  0
  4  5  2  0
  4  6  1  0
  6  7  1  0
  6  9  2  3
  7  8  1  0
  9 10  1  0
 10 11  2  3
 11 12  1  0
 11 18  1  0
 12 13  2  3
 13 14  1  0
 14 15  1  0
 15 16  1  0
 15 17  2  0
 18 19  2  0
 18 20  1  0
 21 20  1  1
 21 22  1  0
 21 28  1  0
 22 23  1  0
 23 24  1  0
 24 25  1  1
 24 28  1  0
 25 26  1  0
 26 27  1  0
M  END
