
     RDKit          3D

 28 29  0  0  0  0  0  0  0  0999 V2000
    0.0150   -2.8300   -4.9480 C   0  0  0  0  0  0  0  0  0  0  0  0
    0.3110   -2.2620   -3.6850 O   0  0  0  0  0  0  0  0  0  0  0  0
   -0.6670   -2.0240   -2.7400 C   0  0  0  0  0  0  0  0  0  0  0  0
   -1.8450   -2.3220   -3.0160 O   0  0  0  0  0  0  0  0  0  0  0  0
   -0.3640   -1.4160   -1.3830 C   0  0  2  0  0  0  0  0  0  0  0  0
    0.6380   -2.3260   -0.7600 C   0  0  0  0  0  0  0  0  0  0  0  0
    1.1220   -1.9740    0.5940 C   0  0  1  0  0  0  0  0  0  0  0  0
    2.1320   -3.0610    0.9900 C   0  0  0  0  0  0  0  0  0  0  0  0
    3.3040   -3.0490    0.0330 C   0  0  0  0  0  0  0  0  0  0  0  0
    3.7960   -1.6690   -0.2790 C   0  0  0  0  0  0  0  0  0  0  0  0
    3.2700   -0.7300    0.7820 C   0  0  0  0  0  0  0  0  0  0  0  0
    1.7650   -0.6370    0.7510 C   0  0  2  0  0  0  0  0  0  0  0  0
    1.3870   -0.1420    2.0030 O   0  0  0  0  0  0  0  0  0  0  0  0
    0.7610    1.0770    1.9670 C   0  0  0  0  0  0  0  0  0  0  0  0
    1.5860    2.1540    1.3760 C   0  0  0  0  0  0  0  0  0  0  0  0
    1.5440    2.6040    0.0890 C   0  0  0  0  0  0  0  0  0  0  0  0
    2.4660    3.5780    0.0210 N   0  0  0  0  0  0  0  0  0  0  0  0
    3.0680    3.7530    1.1840 N   0  0  0  0  0  0  0  0  0  0  0  0
    2.5340    2.8780    2.0340 C   0  0  0  0  0  0  0  0  0  0  0  0
   -1.6220   -1.3230   -0.6840 N   0  0  0  0  0  0  0  0  0  0  0  0
   -2.2580   -0.0120   -0.6300 C   0  0  0  0  0  0  0  0  0  0  0  0
   -1.6790    0.9420   -1.1920 O   0  0  0  0  0  0  0  0  0  0  0  0
   -3.4820    0.1620    0.0330 N   0  0  0  0  0  0  0  0  0  0  0  0
   -4.2460    1.3430    0.2110 C   0  0  0  0  0  0  0  0  0  0  0  0
   -3.7050    2.4580    1.0250 C   0  0  2  0  0  0  0  0  0  0  0  0
   -2.5870    3.1890    0.3480 C   0  0  0  0  0  0  0  0  0  0  0  0
   -3.3060    1.9710    2.3910 C   0  0  0  0  0  0  0  0  0  0  0  0
   -4.7500    3.4640    1.1420 O   0  0  0  0  0  0  0  0  0  0  0  0
  1  2  1  0
  2  3  1  0
  3  4  2  0
  3  5  1  0
  5  6  1  1
  5 20  1  0
  7  6  1  6
  7  8  1  0
  7 12  1  0
  8  9  1  0
  9 10  1  0
 10 11  1  0
 11 12  1  0
 12 13  1  1
 13 14  1  0
 14 15  1  0
 15 16  1  0
 15 19  2  0
 16 17  2  0
 17 18  1  0
 18 19  1  0
 20 21  1  0
 21 22  2  0
 21 23  1  0
 23 24  1  0
 24 25  1  0
 25 26  1  6
 25 27  1  0
 25 28  1  0
M  END
