
     RDKit          3D

 28 29  0  0  0  0  0  0  0  0999 V2000
   -3.4070    3.2550    3.8070 C   0  0  0  0  0  0  0  0  0  0  0  0
   -3.4920    2.6070    2.4480 C   0  0  0  0  0  0  0  0  0  0  0  0
   -4.6050    2.4070    1.6730 C   0  0  0  0  0  0  0  0  0  0  0  0
   -4.2070    1.7810    0.5240 C   0  0  0  0  0  0  0  0  0  0  0  0
   -2.8670    1.5980    0.5890 N   0  0  0  0  0  0  0  0  0  0  0  0
   -1.9500    0.9970   -0.3420 C   0  0  2  0  0  0  0  0  0  0  0  0
   -2.5260    0.7850   -1.7060 C   0  0  0  0  0  0  0  0  0  0  0  0
   -3.0290   -0.6170   -1.9260 C   0  0  0  0  0  0  0  0  0  0  0  0
   -1.9440   -1.6870   -1.8150 C   0  0  2  0  0  0  0  0  0  0  0  0
   -1.4630   -1.8500   -3.2700 C   0  0  0  0  0  0  0  0  0  0  0  0
   -2.6200   -2.9050   -1.2920 C   0  0  0  0  0  0  0  0  0  0  0  0
   -0.8550   -1.0910   -1.0520 C   0  0  2  0  0  0  0  0  0  0  0  0
    0.2520   -1.7960   -0.5840 N   0  0  0  0  0  0  0  0  0  0  0  0
    1.5540   -1.7540   -1.1320 C   0  0  0  0  0  0  0  0  0  0  0  0
    1.6700   -1.0360   -2.1250 O   0  0  0  0  0  0  0  0  0  0  0  0
    2.6700   -2.4580   -0.6220 N   0  0  0  0  0  0  0  0  0  0  0  0
    3.9390   -2.3090   -1.3150 C   0  0  0  0  0  0  0  0  0  0  0  0
    4.3940   -0.8630   -1.3650 C   0  0  0  0  0  0  0  0  0  0  0  0
    4.5300   -0.3840    0.0260 C   0  0  0  0  0  0  0  0  0  0  0  0
    5.0940   -1.0700    0.8890 O   0  0  0  0  0  0  0  0  0  0  0  0
    4.0100    0.8630    0.3910 O   0  0  0  0  0  0  0  0  0  0  0  0
    4.1130    1.3370    1.7210 C   0  0  2  0  0  0  0  0  0  0  0  0
    2.7200    1.2800    2.3620 C   0  0  0  0  0  0  0  0  0  0  0  0
    4.6670    2.7020    1.7150 C   0  0  0  0  0  0  0  0  0  0  0  0
    5.0050    3.2170    0.6160 O   0  0  0  0  0  0  0  0  0  0  0  0
    4.8250    3.4320    2.8680 O   0  0  0  0  0  0  0  0  0  0  0  0
   -1.4200   -0.3260    0.1250 C   0  0  0  0  0  0  0  0  0  0  0  0
   -2.4620    2.1000    1.7480 N   0  0  0  0  0  0  0  0  0  0  0  0
  1  2  1  0
  2  3  1  0
  2 28  2  0
  3  4  2  0
  4  5  1  0
  6  5  1  1
  5 28  1  0
  6  7  1  0
  6 27  1  0
  7  8  1  0
  8  9  1  0
  9 10  1  6
  9 11  1  0
  9 12  1  0
 12 13  1  1
 12 27  1  0
 13 14  1  0
 14 15  2  0
 14 16  1  0
 16 17  1  0
 17 18  1  0
 18 19  1  0
 19 20  2  0
 19 21  1  0
 21 22  1  0
 22 23  1  6
 22 24  1  0
 24 25  2  0
 24 26  1  0
M  END
