
     RDKit          3D

 28 28  0  0  0  0  0  0  0  0999 V2000
   -4.6680   -2.3010    2.2440 C   0  0  0  0  0  0  0  0  0  0  0  0
   -5.4840   -1.4250    1.3540 C   0  0  0  0  0  0  0  0  0  0  0  0
   -4.7300   -0.2080    0.8710 C   0  0  2  0  0  0  0  0  0  0  0  0
   -5.7130    0.5660   -0.0190 C   0  0  0  0  0  0  0  0  0  0  0  0
   -3.6110   -0.6470    0.0140 C   0  0  0  0  0  0  0  0  0  0  0  0
   -3.4540   -1.8780   -0.1780 O   0  0  0  0  0  0  0  0  0  0  0  0
   -2.7100    0.2940   -0.5990 N   0  0  0  0  0  0  0  0  0  0  0  0
   -1.6610   -0.2280   -1.4090 C   0  0  1  0  0  0  0  0  0  0  0  0
   -1.8520    0.3120   -2.8190 C   0  0  0  0  0  0  0  0  0  0  0  0
   -0.3160    0.1820   -0.8780 C   0  0  0  0  0  0  0  0  0  0  0  0
    0.7660   -0.6020   -0.7280 N   0  0  0  0  0  0  0  0  0  0  0  0
    1.8100    0.1040   -0.2190 C   0  0  0  0  0  0  0  0  0  0  0  0
    3.1120   -0.3830    0.0740 N   0  0  0  0  0  0  0  0  0  0  0  0
    3.5030   -1.7570   -0.1430 C   0  0  2  0  0  0  0  0  0  0  0  0
    3.3300   -2.0320   -1.6200 C   0  0  0  0  0  0  0  0  0  0  0  0
    2.6350   -2.7270    0.6130 C   0  0  0  0  0  0  0  0  0  0  0  0
    3.0560   -4.1330    0.3790 C   0  0  0  0  0  0  0  0  0  0  0  0
    2.4540   -5.1040    0.9020 O   0  0  0  0  0  0  0  0  0  0  0  0
    4.1440   -4.4670   -0.4350 O   0  0  0  0  0  0  0  0  0  0  0  0
    4.5310   -5.8150   -0.6480 C   0  0  0  0  0  0  0  0  0  0  0  0
    1.3380    1.3850   -0.0500 C   0  0  0  0  0  0  0  0  0  0  0  0
    2.0530    2.5550    0.4690 C   0  0  0  0  0  0  0  0  0  0  0  0
    3.2380    2.5150    0.8370 O   0  0  0  0  0  0  0  0  0  0  0  0
    1.4190    3.7970    0.5770 O   0  0  0  0  0  0  0  0  0  0  0  0
    2.1000    4.9320    1.0770 C   0  0  1  0  0  0  0  0  0  0  0  0
    2.1430    5.9560   -0.0420 C   0  0  0  0  0  0  0  0  0  0  0  0
    1.4230    5.5150    2.2960 C   0  0  0  0  0  0  0  0  0  0  0  0
    0.0550    1.4040   -0.4550 N   0  0  0  0  0  0  0  0  0  0  0  0
  1  2  1  0
  2  3  1  0
  3  4  1  6
  3  5  1  0
  5  6  2  0
  5  7  1  0
  7  8  1  0
  8  9  1  6
  8 10  1  0
 10 11  2  0
 10 28  1  0
 11 12  1  0
 12 13  1  0
 12 21  2  0
 13 14  1  0
 14 15  1  6
 14 16  1  0
 16 17  1  0
 17 18  2  0
 17 19  1  0
 19 20  1  0
 21 22  1  0
 21 28  1  0
 22 23  2  0
 22 24  1  0
 24 25  1  0
 25 26  1  6
 25 27  1  0
M  END
