
     RDKit          3D

 15 15  0  0  0  0  0  0  0  0999 V2000
    5.8410    0.3730   -1.3140 N   0  0  0  0  0  0  0  0  0  0  0  0
    5.2180    0.1330   -0.0570 C   0  0  0  0  0  0  0  0  0  0  0  0
    5.9980    0.0660    0.9430 O   0  0  0  0  0  0  0  0  0  0  0  0
    3.7450   -0.0300    0.0780 C   0  0  0  0  0  0  0  0  0  0  0  0
    3.3710   -0.3130    1.8040 S   0  0  0  0  0  0  0  0  0  0  0  0
    1.6370   -0.5260    2.1130 C   0  0  0  0  0  0  0  0  0  0  0  0
    1.2570   -0.7320    3.2930 O   0  0  0  0  0  0  0  0  0  0  0  0
    0.6500   -0.4770    1.0960 N   0  0  0  0  0  0  0  0  0  0  0  0
   -0.7610   -0.6610    1.4160 C   0  0  0  0  0  0  0  0  0  0  0  0
   -1.6030   -0.5670    0.1890 C   0  0  1  0  0  0  0  0  0  0  0  0
   -3.0540   -0.8090    0.6130 C   0  0  0  0  0  0  0  0  0  0  0  0
   -4.0040    0.1310   -0.0600 C   0  0  0  0  0  0  0  0  0  0  0  0
   -3.6360    0.4070   -1.5040 C   0  0  0  0  0  0  0  0  0  0  0  0
   -2.1500    0.6160   -1.6630 C   0  0  0  0  0  0  0  0  0  0  0  0
   -1.4850    0.6610   -0.4460 O   0  0  0  0  0  0  0  0  0  0  0  0
  1  2  1  0
  2  3  2  0
  2  4  1  0
  4  5  1  0
  5  6  1  0
  6  7  2  0
  6  8  1  0
  8  9  1  0
 10  9  1  1
 10 11  1  0
 10 15  1  0
 11 12  1  0
 12 13  1  0
 13 14  1  0
 14 15  1  0
M  END
