
     RDKit          3D

 25 27  0  0  0  0  0  0  0  0999 V2000
   -1.4590    4.8530    1.8710 C   0  0  0  0  0  0  0  0  0  0  0  0
   -2.0460    3.5160    1.6710 C   0  0  0  0  0  0  0  0  0  0  0  0
   -1.4130    2.5300    0.9910 C   0  0  0  0  0  0  0  0  0  0  0  0
   -2.0260    1.2430    0.8230 C   0  0  0  0  0  0  0  0  0  0  0  0
   -1.5430    0.1810    0.2370 C   0  0  0  0  0  0  0  0  0  0  0  0
   -0.3360    0.0060   -0.3460 C   0  0  0  0  0  0  0  0  0  0  0  0
    0.9460    0.6830   -0.1840 C   0  0  0  0  0  0  0  0  0  0  0  0
    1.8950    0.7550   -1.1880 N   0  0  0  0  0  0  0  0  0  0  0  0
    2.9410    1.4600   -0.7760 C   0  0  0  0  0  0  0  0  0  0  0  0
    4.1990    1.8100   -1.4880 C   0  0  0  0  0  0  0  0  0  0  0  0
    5.1680    0.7930   -1.2160 N   0  0  0  0  0  0  0  0  0  0  0  0
    5.4880    0.6330    0.1620 C   0  0  0  0  0  0  0  0  0  0  0  0
    6.1540   -0.7500    0.1860 C   0  0  0  0  0  0  0  0  0  0  0  0
    5.2380   -1.5270   -0.7390 C   0  0  0  0  0  0  0  0  0  0  0  0
    4.8470   -0.4900   -1.7600 C   0  0  0  0  0  0  0  0  0  0  0  0
    2.6760    1.8390    0.4750 N   0  0  0  0  0  0  0  0  0  0  0  0
    1.4940    1.3680    0.8040 N   0  0  0  0  0  0  0  0  0  0  0  0
   -0.4180   -1.2080   -1.0580 C   0  0  0  0  0  0  0  0  0  0  0  0
   -1.6420   -1.7070   -0.8690 N   0  0  0  0  0  0  0  0  0  0  0  0
   -2.4050   -0.9370   -0.0910 C   0  0  0  0  0  0  0  0  0  0  0  0
   -3.6280   -1.0890    0.3430 C   0  0  0  0  0  0  0  0  0  0  0  0
   -4.5910   -2.0960    0.1250 C   0  0  0  0  0  0  0  0  0  0  0  0
   -5.9520   -1.8980    0.8370 C   0  0  0  0  0  0  0  0  0  0  0  0
   -4.5490   -3.1730   -0.5760 C   0  0  0  0  0  0  0  0  0  0  0  0
   -5.7840   -4.0740   -0.6070 C   0  0  0  0  0  0  0  0  0  0  0  0
  1  2  1  0
  2  3  2  3
  3  4  1  0
  4  5  2  3
  5  6  1  0
  5 20  1  0
  6  7  1  0
  6 18  2  0
  7  8  2  0
  7 17  1  0
  8  9  1  0
  9 10  1  0
  9 16  2  0
 10 11  1  0
 11 12  1  0
 11 15  1  0
 12 13  1  0
 13 14  1  0
 14 15  1  0
 16 17  1  0
 18 19  1  0
 19 20  1  0
 20 21  2  3
 21 22  1  0
 22 23  1  0
 22 24  2  3
 24 25  1  0
M  END
