
     RDKit          3D

 25 28  0  0  0  0  0  0  0  0999 V2000
   -4.1370    1.2450    1.8300 C   0  0  0  0  0  0  0  0  0  0  0  0
   -3.7840    1.3930    0.4230 N   0  0  0  0  0  0  0  0  0  0  0  0
   -3.7790    2.7440   -0.0920 C   0  0  0  0  0  0  0  0  0  0  0  0
   -3.4660    0.2590   -0.3750 C   0  0  0  0  0  0  0  0  0  0  0  0
   -4.3990   -0.3410   -1.0360 N   0  0  0  0  0  0  0  0  0  0  0  0
   -4.3500   -1.4810   -1.8960 C   0  0  0  0  0  0  0  0  0  0  0  0
   -3.4510   -2.4790   -1.8690 C   0  0  0  0  0  0  0  0  0  0  0  0
   -4.0840   -3.0970   -2.9350 N   0  0  0  0  0  0  0  0  0  0  0  0
   -4.9790   -2.1640   -3.0100 C   0  0  0  0  0  0  0  0  0  0  0  0
   -2.3790   -2.5450   -0.9450 N   0  0  0  0  0  0  0  0  0  0  0  0
   -2.0250   -1.5980    0.1250 C   0  0  0  0  0  0  0  0  0  0  0  0
   -2.0240   -0.1810   -0.4090 C   0  0  2  0  0  0  0  0  0  0  0  0
   -1.1770    0.6820    0.3280 N   0  0  0  0  0  0  0  0  0  0  0  0
    0.2210    0.4960    0.2990 C   0  0  0  0  0  0  0  0  0  0  0  0
    0.8400   -0.4020   -0.5620 C   0  0  0  0  0  0  0  0  0  0  0  0
    2.2170   -0.5410   -0.5330 C   0  0  0  0  0  0  0  0  0  0  0  0
    3.0190    0.1800    0.3240 C   0  0  0  0  0  0  0  0  0  0  0  0
    4.4740    0.0420    0.3600 C   0  0  0  0  0  0  0  0  0  0  0  0
    5.1670   -0.2620   -0.7870 C   0  0  0  0  0  0  0  0  0  0  0  0
    6.5250   -0.3950   -0.7750 C   0  0  0  0  0  0  0  0  0  0  0  0
    7.1990   -0.2180    0.4160 C   0  0  0  0  0  0  0  0  0  0  0  0
    6.5070    0.0880    1.5690 C   0  0  0  0  0  0  0  0  0  0  0  0
    5.1470    0.2180    1.5430 C   0  0  0  0  0  0  0  0  0  0  0  0
    2.3690    1.0640    1.1660 C   0  0  0  0  0  0  0  0  0  0  0  0
    1.0060    1.2300    1.1670 C   0  0  0  0  0  0  0  0  0  0  0  0
  1  2  1  0
  2  3  1  0
  2  4  1  0
  4  5  2  0
  4 12  1  0
  5  6  1  0
  6  7  2  0
  6  9  1  0
  7  8  1  0
  7 10  1  0
  8  9  2  0
 10 11  1  0
 11 12  1  0
 12 13  1  1
 13 14  1  0
 14 15  2  0
 14 25  1  0
 15 16  1  0
 16 17  2  0
 17 18  1  0
 17 24  1  0
 18 19  2  0
 18 23  1  0
 19 20  1  0
 20 21  2  0
 21 22  1  0
 22 23  2  0
 24 25  2  0
M  END
