
     RDKit          3D

 21 21  0  0  0  0  0  0  0  0999 V2000
   -2.2430   -3.7970    1.2640 C   0  0  0  0  0  0  0  0  0  0  0  0
   -1.7750   -2.9980    0.0360 C   0  0  0  0  0  0  0  0  0  0  0  0
   -0.9720   -1.8460    0.5010 C   0  0  0  0  0  0  0  0  0  0  0  0
   -1.2100   -0.6070    0.2140 C   0  0  0  0  0  0  0  0  0  0  0  0
   -2.4850   -0.5070   -0.6920 C   0  0  0  0  0  0  0  0  0  0  0  0
   -0.4240    0.5860    0.1560 C   0  0  0  0  0  0  0  0  0  0  0  0
   -0.9040    1.7950    0.0780 C   0  0  0  0  0  0  0  0  0  0  0  0
   -2.1550    2.5180    0.0450 C   0  0  0  0  0  0  0  0  0  0  0  0
   -2.2020    3.8680   -0.1660 C   0  0  0  0  0  0  0  0  0  0  0  0
   -3.5570    4.3620   -0.1400 C   0  0  0  0  0  0  0  0  0  0  0  0
   -4.3530    3.1890    0.1980 C   0  0  0  0  0  0  0  0  0  0  0  0
   -3.5380    2.1540    0.2880 C   0  0  0  0  0  0  0  0  0  0  0  0
    1.0990    0.4930    0.1050 C   0  0  0  0  0  0  0  0  0  0  0  0
    1.7120   -0.6380    0.1070 C   0  0  0  0  0  0  0  0  0  0  0  0
    3.1770   -0.7550    0.0680 C   0  0  0  0  0  0  0  0  0  0  0  0
    3.7370   -1.9740    0.0750 C   0  0  0  0  0  0  0  0  0  0  0  0
    2.8600   -3.1780    0.1210 C   0  0  0  0  0  0  0  0  0  0  0  0
    5.2120   -2.1240    0.0370 C   0  0  0  0  0  0  0  0  0  0  0  0
    1.8890    1.7530    0.0040 C   0  0  1  0  0  0  0  0  0  0  0  0
    1.7830    2.4730   -1.2950 C   0  0  0  0  0  0  0  0  0  0  0  0
    1.6770    2.5540    1.1480 O   0  0  0  0  0  0  0  0  0  0  0  0
  1  2  1  0
  2  3  1  0
  3  4  2  3
  4  5  1  0
  4  6  1  0
  6  7  2  3
  6 13  1  0
  7  8  1  0
  8  9  2  0
  8 12  1  0
  9 10  1  0
 10 11  1  0
 11 12  2  0
 13 14  2  3
 13 19  1  0
 14 15  1  0
 15 16  2  3
 16 17  1  0
 16 18  1  0
 19 20  1  6
 19 21  1  0
M  END
