
     RDKit          3D

 13 14  0  0  0  0  0  0  0  0999 V2000
    3.2570    2.0080   -0.0320 O   0  0  0  0  0  0  0  0  0  0  0  0
    2.5110    0.9860   -0.0750 C   0  0  0  0  0  0  0  0  0  0  0  0
    3.1000   -0.2150   -0.2210 N   0  0  0  0  0  0  0  0  0  0  0  0
    2.3300   -1.3180   -0.2700 C   0  0  0  0  0  0  0  0  0  0  0  0
    0.9590   -1.2090   -0.1710 C   0  0  0  0  0  0  0  0  0  0  0  0
    0.3360    0.0100   -0.0210 C   0  0  0  0  0  0  0  0  0  0  0  0
   -1.1050    0.1670    0.0870 C   0  0  0  0  0  0  0  0  0  0  0  0
   -2.0400   -0.8500    0.0560 C   0  0  0  0  0  0  0  0  0  0  0  0
   -3.3040   -0.2850    0.1890 C   0  0  0  0  0  0  0  0  0  0  0  0
   -3.0680    1.0690    0.2960 C   0  0  0  0  0  0  0  0  0  0  0  0
   -1.7790    1.2790    0.2310 O   0  0  0  0  0  0  0  0  0  0  0  0
    1.1420    1.1230    0.0260 C   0  0  0  0  0  0  0  0  0  0  0  0
    0.3230    2.8260    0.2330 Br  0  0  0  0  0  0  0  0  0  0  0  0
  1  2  2  0
  2  3  1  0
  2 12  1  0
  3  4  1  0
  4  5  2  0
  5  6  1  0
  6  7  1  0
  6 12  2  0
  7  8  2  0
  7 11  1  0
  8  9  1  0
  9 10  2  0
 10 11  1  0
 12 13  1  0
M  END
