
     RDKit          3D

 13 14  0  0  0  0  0  0  0  0999 V2000
    2.0380    1.9250   -1.2110 O   0  0  0  0  0  0  0  0  0  0  0  0
    1.0060    1.2960   -0.7970 C   0  0  0  0  0  0  0  0  0  0  0  0
   -0.3780    1.7220   -1.0470 C   0  0  0  0  0  0  0  0  0  0  0  0
   -0.7510    2.7360   -1.6860 O   0  0  0  0  0  0  0  0  0  0  0  0
   -1.2540    0.7740   -0.4320 N   0  0  0  0  0  0  0  0  0  0  0  0
   -2.6480    0.4580   -0.2100 C   0  0  0  0  0  0  0  0  0  0  0  0
   -2.6270   -0.7970    0.5860 C   0  0  0  0  0  0  0  0  0  0  0  0
   -1.2110   -1.1200    0.7710 C   0  0  0  0  0  0  0  0  0  0  0  0
   -0.4560   -0.2110    0.1820 C   0  0  0  0  0  0  0  0  0  0  0  0
    0.9960    0.0650   -0.0150 C   0  0  0  0  0  0  0  0  0  0  0  0
    1.9760   -0.6760    0.4400 C   0  0  0  0  0  0  0  0  0  0  0  0
    3.3830   -0.3680    0.2200 C   0  0  0  0  0  0  0  0  0  0  0  0
    4.1970   -1.8680   -0.7440 Br  0  0  0  0  0  0  0  0  0  0  0  0
  1  2  2  0
  2  3  1  0
  2 10  1  0
  3  4  2  0
  3  5  1  0
  5  6  1  0
  5  9  1  0
  6  7  1  0
  7  8  1  0
  8  9  2  0
  9 10  1  0
 10 11  2  3
 11 12  1  0
 12 13  1  0
M  END
