
     RDKit          3D

 13 14  0  0  0  0  0  0  0  0999 V2000
    5.1790    0.9730    0.2890 Br  0  0  0  0  0  0  0  0  0  0  0  0
    3.3980    0.3260   -0.1120 C   0  0  0  0  0  0  0  0  0  0  0  0
    2.4430    1.4950   -0.1350 C   0  0  0  0  0  0  0  0  0  0  0  0
    1.1720    1.0890   -0.4160 O   0  0  0  0  0  0  0  0  0  0  0  0
    0.2970    0.2680    0.2330 C   0  0  0  0  0  0  0  0  0  0  0  0
    0.4540   -0.4030    1.4190 C   0  0  0  0  0  0  0  0  0  0  0  0
   -0.6740   -1.1160    1.7090 N   0  0  0  0  0  0  0  0  0  0  0  0
   -1.5650   -0.9170    0.7260 C   0  0  0  0  0  0  0  0  0  0  0  0
   -1.0000   -0.0680   -0.2040 C   0  0  0  0  0  0  0  0  0  0  0  0
   -1.6240    0.3210   -1.2910 C   0  0  0  0  0  0  0  0  0  0  0  0
   -2.9910   -0.1330   -1.5920 C   0  0  0  0  0  0  0  0  0  0  0  0
   -3.4600   -0.9800   -0.5940 O   0  0  0  0  0  0  0  0  0  0  0  0
   -2.8010   -1.3760    0.5300 C   0  0  0  0  0  0  0  0  0  0  0  0
  1  2  1  0
  2  3  1  0
  3  4  1  0
  4  5  1  0
  5  6  2  0
  5  9  1  0
  6  7  1  0
  7  8  1  0
  8  9  1  0
  8 13  2  0
  9 10  2  0
 10 11  1  0
 11 12  1  0
 12 13  1  0
M  END
