
     RDKit          3D

 13 13  0  0  0  0  0  0  0  0999 V2000
   -0.6250   -1.6770    0.9570 C   0  0  0  0  0  0  0  0  0  0  0  0
   -0.9710   -0.3510    0.3290 C   0  0  0  0  0  0  0  0  0  0  0  0
   -2.2470    0.0390    0.3230 C   0  0  0  0  0  0  0  0  0  0  0  0
   -2.6700    1.2990   -0.2590 C   0  0  0  0  0  0  0  0  0  0  0  0
   -3.8840    1.6090   -0.2330 O   0  0  0  0  0  0  0  0  0  0  0  0
   -1.7400    2.1800   -0.8540 N   0  0  0  0  0  0  0  0  0  0  0  0
   -0.3870    1.8150   -0.8720 C   0  0  0  0  0  0  0  0  0  0  0  0
    0.4470    2.6030   -1.4040 O   0  0  0  0  0  0  0  0  0  0  0  0
    0.0330    0.5140   -0.2680 C   0  0  0  0  0  0  0  0  0  0  0  0
    1.2930    0.2350   -0.3140 C   0  0  0  0  0  0  0  0  0  0  0  0
    2.1130   -0.8480    0.1220 C   0  0  0  0  0  0  0  0  0  0  0  0
    3.4510   -0.8330   -0.0880 C   0  0  0  0  0  0  0  0  0  0  0  0
    4.5790   -2.2540    0.4750 Br  0  0  0  0  0  0  0  0  0  0  0  0
  1  2  1  0
  2  3  2  0
  2  9  1  0
  3  4  1  0
  4  5  2  0
  4  6  1  0
  6  7  1  0
  7  8  2  0
  7  9  1  0
  9 10  2  3
 10 11  1  0
 11 12  2  3
 12 13  1  0
M  END
