
     RDKit          3D

 12 13  0  0  0  0  0  0  0  0999 V2000
   -2.1920    1.4070   -0.1720 C   0  0  0  0  0  0  0  0  0  0  0  0
   -1.3000    0.1910   -0.0870 C   0  0  0  0  0  0  0  0  0  0  0  0
   -0.0100    0.3620   -0.1310 C   0  0  0  0  0  0  0  0  0  0  0  0
    0.5650    1.7340   -0.2640 C   0  0  0  0  0  0  0  0  0  0  0  0
    1.7750    1.8210    0.4220 O   0  0  0  0  0  0  0  0  0  0  0  0
    2.6810    0.8070    0.6030 C   0  0  0  0  0  0  0  0  0  0  0  0
    3.7120    0.9350    1.3400 O   0  0  0  0  0  0  0  0  0  0  0  0
    2.4110   -0.4880   -0.1130 C   0  0  0  0  0  0  0  0  0  0  0  0
    0.9460   -0.7440   -0.0570 C   0  0  0  0  0  0  0  0  0  0  0  0
    0.4520   -1.9450    0.0600 C   0  0  0  0  0  0  0  0  0  0  0  0
   -0.9370   -2.1950    0.1130 N   0  0  0  0  0  0  0  0  0  0  0  0
   -1.9060   -1.1350    0.0430 C   0  0  0  0  0  0  0  0  0  0  0  0
  1  2  1  0
  2  3  2  0
  2 12  1  0
  3  4  1  0
  3  9  1  0
  4  5  1  0
  5  6  1  0
  6  7  2  0
  6  8  1  0
  8  9  1  0
  9 10  2  0
 10 11  1  0
 11 12  1  0
M  END
