
     RDKit          3D

 30 35  0  0  0  0  0  0  0  0999 V2000
   -3.7300   -3.2670   -0.5840 O   0  0  0  0  0  0  0  0  0  0  0  0
   -2.6390   -2.7700   -1.2630 C   0  0  0  0  0  0  0  0  0  0  0  0
   -1.9510   -1.6890   -0.5300 C   0  0  1  0  0  0  0  0  0  0  0  0
   -0.7840   -1.1960   -1.3010 N   0  0  0  0  0  0  0  0  0  0  0  0
    0.3780   -1.0260   -0.4490 C   0  0  0  0  0  0  0  0  0  0  0  0
    0.4680    0.3800    0.0890 C   0  0  1  0  0  0  0  0  0  0  0  0
   -0.8880    1.0200    0.2270 C   0  0  0  0  0  0  0  0  0  0  0  0
   -1.8870    0.1310    0.8980 C   0  0  0  0  0  0  0  0  0  0  0  0
   -2.6730   -0.5450   -0.1260 N   0  0  2  0  0  0  0  0  0  0  0  0
   -4.0400   -0.7030    0.2560 C   0  0  1  0  0  0  0  0  0  0  0  0
   -4.5130    0.4250    1.1760 C   0  0  0  0  0  0  0  0  0  0  0  0
   -6.0480    0.3990    1.0970 C   0  0  0  0  0  0  0  0  0  0  0  0
   -6.4750    0.9970   -0.1520 N   0  0  0  0  0  0  0  0  0  0  0  0
   -5.5140    0.7280   -1.1970 C   0  0  0  0  0  0  0  0  0  0  0  0
   -4.9750   -0.6820   -0.9310 C   0  0  0  0  0  0  0  0  0  0  0  0
    1.2860    0.3840    1.3490 C   0  0  0  0  0  0  0  0  0  0  0  0
    2.2420   -0.6560    1.4950 N   0  0  0  0  0  0  0  0  0  0  0  0
    3.3520   -0.6830    0.6310 C   0  0  2  0  0  0  0  0  0  0  0  0
    4.7320   -0.5470    1.3740 C   0  0  0  0  0  0  0  0  0  0  0  0
    5.6440   -0.2010    0.2210 C   0  0  2  0  0  0  0  0  0  0  0  0
    6.7990    0.7110    0.4070 C   0  0  0  0  0  0  0  0  0  0  0  0
    6.8050    1.5580   -0.9460 C   0  0  0  0  0  0  0  0  0  0  0  0
    5.3380    1.6940   -1.1840 C   0  0  0  0  0  0  0  0  0  0  0  0
    4.4310    2.5330   -1.8440 C   0  0  0  0  0  0  0  0  0  0  0  0
    4.9540    3.5310   -2.5830 F   0  0  0  0  0  0  0  0  0  0  0  0
    3.0500    2.3300   -1.7300 C   0  0  0  0  0  0  0  0  0  0  0  0
    2.5570    1.3000   -0.9650 C   0  0  0  0  0  0  0  0  0  0  0  0
    3.4330    0.4540   -0.3030 C   0  0  0  0  0  0  0  0  0  0  0  0
    4.7240    0.7280   -0.4760 C   0  0  0  0  0  0  0  0  0  0  0  0
    1.1830    1.1630   -0.8940 O   0  0  0  0  0  0  0  0  0  0  0  0
  1  2  1  0
  3  2  1  6
  3  4  1  0
  3  9  1  0
  4  5  1  0
  6  5  1  6
  6  7  1  0
  6 16  1  0
  6 30  1  0
  7  8  1  0
  9  8  1  1
  9 10  1  0
 10 11  1  1
 10 15  1  0
 11 12  1  0
 12 13  1  0
 13 14  1  0
 14 15  1  0
 16 17  1  0
 17 18  1  0
 18 19  1  1
 18 28  1  0
 20 19  1  1
 20 21  1  0
 20 29  1  0
 21 22  1  0
 22 23  1  0
 23 24  2  0
 23 29  1  0
 24 25  1  0
 24 26  1  0
 26 27  2  0
 27 28  1  0
 27 30  1  0
 28 29  2  0
M  CHG  1   9   1
M  END
