
     RDKit          3D

 29 32  0  0  0  0  0  0  0  0999 V2000
    1.1210    0.4200    2.7510 O   0  0  0  0  0  0  0  0  0  0  0  0
    1.7510    0.1980    1.6870 C   0  0  0  0  0  0  0  0  0  0  0  0
    3.2220    0.0100    1.7250 C   0  0  0  0  0  0  0  0  0  0  0  0
    3.7200   -0.2270    0.4210 O   0  0  0  0  0  0  0  0  0  0  0  0
    5.1020   -0.4210    0.3200 C   0  0  0  0  0  0  0  0  0  0  0  0
    5.8840    0.3800   -0.3820 C   0  0  0  0  0  0  0  0  0  0  0  0
    7.3540    0.1940   -0.5040 C   0  0  0  0  0  0  0  0  0  0  0  0
    7.8130   -0.9220    0.2070 O   0  0  0  0  0  0  0  0  0  0  0  0
    7.0190   -1.7720    0.9440 C   0  0  0  0  0  0  0  0  0  0  0  0
    5.7270   -1.5520    1.0120 C   0  0  0  0  0  0  0  0  0  0  0  0
    0.9790    0.1420    0.4840 N   0  0  0  0  0  0  0  0  0  0  0  0
   -0.4210    0.3290    0.5090 C   0  0  0  0  0  0  0  0  0  0  0  0
   -1.3640    0.6310    1.8890 S   0  0  0  0  0  0  0  0  0  0  0  0
   -3.0250    0.8070    1.5560 C   0  0  0  0  0  0  0  0  0  0  0  0
   -3.9100    1.0420    2.4770 N   0  0  0  0  0  0  0  0  0  0  0  0
   -5.2920    1.1870    2.1950 C   0  0  0  0  0  0  0  0  0  0  0  0
   -6.0130    1.7710    3.0230 O   0  0  0  0  0  0  0  0  0  0  0  0
   -5.8080    0.6450    0.9460 C   0  0  0  0  0  0  0  0  0  0  0  0
   -6.4400    1.3200   -0.0970 C   0  0  0  0  0  0  0  0  0  0  0  0
   -6.7530    0.4720   -1.0410 O   0  0  0  0  0  0  0  0  0  0  0  0
   -6.3720   -0.7370   -0.7030 C   0  0  0  0  0  0  0  0  0  0  0  0
   -5.7680   -0.6730    0.5490 C   0  0  0  0  0  0  0  0  0  0  0  0
   -5.1010   -2.0440    1.4090 Cl  0  0  0  0  0  0  0  0  0  0  0  0
   -3.3360    0.6830    0.2790 N   0  0  0  0  0  0  0  0  0  0  0  0
   -2.4990    0.4380   -0.7630 C   0  0  0  0  0  0  0  0  0  0  0  0
   -1.1540    0.2710   -0.6870 C   0  0  0  0  0  0  0  0  0  0  0  0
   -0.5750    0.0160   -2.0550 C   0  0  0  0  0  0  0  0  0  0  0  0
   -1.6540    0.5390   -2.9590 C   0  0  0  0  0  0  0  0  0  0  0  0
   -2.9220    0.3070   -2.2130 C   0  0  0  0  0  0  0  0  0  0  0  0
  1  2  2  0
  2  3  1  0
  2 11  1  0
  3  4  1  0
  4  5  1  0
  5  6  2  0
  5 10  1  0
  6  7  1  0
  7  8  1  0
  8  9  1  0
  9 10  2  0
 11 12  1  0
 12 13  1  0
 12 26  2  0
 13 14  1  0
 14 15  2  3
 14 24  1  0
 15 16  1  0
 16 17  2  0
 16 18  1  0
 18 19  2  0
 18 22  1  0
 19 20  1  0
 20 21  1  0
 21 22  2  0
 22 23  1  0
 24 25  2  0
 25 26  1  0
 25 29  1  0
 26 27  1  0
 27 28  1  0
 28 29  1  0
M  END
