
     RDKit          3D

 28 31  0  0  0  0  0  0  0  0999 V2000
    6.2940   -0.3970   -1.0120 C   0  0  0  0  0  0  0  0  0  0  0  0
    6.1320   -0.9350    0.4120 C   0  0  0  0  0  0  0  0  0  0  0  0
    4.9760   -0.4400    0.9640 O   0  0  0  0  0  0  0  0  0  0  0  0
    3.8440   -0.8060    0.2330 C   0  0  0  0  0  0  0  0  0  0  0  0
    2.5810   -0.2510    0.8560 C   0  0  2  0  0  0  0  0  0  0  0  0
    1.4270   -0.6520   -0.0030 C   0  0  0  0  0  0  0  0  0  0  0  0
    0.1750   -0.0730    0.3990 N   0  0  0  0  0  0  0  0  0  0  0  0
   -0.4980    0.4140   -0.7800 C   0  0  0  0  0  0  0  0  0  0  0  0
   -1.7910    1.0310   -0.5150 C   0  0  0  0  0  0  0  0  0  0  0  0
   -1.9570    2.3640   -0.2510 N   0  0  0  0  0  0  0  0  0  0  0  0
   -3.1280    2.9040   -0.0150 C   0  0  0  0  0  0  0  0  0  0  0  0
   -4.2780    2.1720   -0.0130 C   0  0  0  0  0  0  0  0  0  0  0  0
   -4.1290    0.8030   -0.2810 C   0  0  0  0  0  0  0  0  0  0  0  0
   -5.1300    0.0270   -0.3050 O   0  0  0  0  0  0  0  0  0  0  0  0
   -2.9090    0.2880   -0.5200 N   0  0  0  0  0  0  0  0  0  0  0  0
   -2.7540   -1.1150   -0.7950 C   0  0  0  0  0  0  0  0  0  0  0  0
   -2.7380   -1.6360   -2.0620 C   0  0  0  0  0  0  0  0  0  0  0  0
   -2.5830   -2.9970   -2.1980 C   0  0  0  0  0  0  0  0  0  0  0  0
   -2.4440   -3.8590   -1.1260 C   0  0  0  0  0  0  0  0  0  0  0  0
   -2.2490   -5.5950   -1.3680 Cl  0  0  0  0  0  0  0  0  0  0  0  0
   -2.4620   -3.3240    0.1430 C   0  0  0  0  0  0  0  0  0  0  0  0
   -2.6190   -1.9430    0.2990 C   0  0  0  0  0  0  0  0  0  0  0  0
   -5.4230    2.8350    0.2450 O   0  0  0  0  0  0  0  0  0  0  0  0
   -5.4340    4.2170   -0.0200 C   0  0  0  0  0  0  0  0  0  0  0  0
   -3.6510    4.5650    0.3350 S   0  0  0  0  0  0  0  0  0  0  0  0
    0.3730    0.9150    1.4110 C   0  0  0  0  0  0  0  0  0  0  0  0
    1.5420    1.8020    1.1270 C   0  0  0  0  0  0  0  0  0  0  0  0
    2.7110    1.1370    0.8660 O   0  0  0  0  0  0  0  0  0  0  0  0
  1  2  1  0
  2  3  1  0
  3  4  1  0
  5  4  1  6
  5  6  1  0
  5 28  1  0
  6  7  1  0
  7  8  1  0
  7 26  1  0
  8  9  1  0
  9 10  2  0
  9 15  1  0
 10 11  1  0
 11 12  2  0
 11 25  1  0
 12 13  1  0
 12 23  1  0
 13 14  2  0
 13 15  1  0
 15 16  1  0
 16 17  2  0
 16 22  1  0
 17 18  1  0
 18 19  2  0
 19 20  1  0
 19 21  1  0
 21 22  2  0
 23 24  1  0
 24 25  1  0
 26 27  1  0
 27 28  1  0
M  END
