
     RDKit          3D

 30 32  0  0  0  0  0  0  0  0999 V2000
    2.9030    3.4450    0.8080 C   0  0  0  0  0  0  0  0  0  0  0  0
    1.9130    2.3200    0.8710 C   0  0  1  0  0  0  0  0  0  0  0  0
    0.6520    2.7840    0.1180 C   0  0  0  0  0  0  0  0  0  0  0  0
   -0.3620    1.7410    0.1260 N   0  0  0  0  0  0  0  0  0  0  0  0
   -0.7500    1.1730    1.2090 C   0  0  0  0  0  0  0  0  0  0  0  0
   -1.7490    0.1390    1.2470 C   0  0  0  0  0  0  0  0  0  0  0  0
   -2.4210   -0.4080    0.2860 C   0  0  0  0  0  0  0  0  0  0  0  0
   -3.4350   -1.4980    0.5830 C   0  0  0  0  0  0  0  0  0  0  0  0
   -4.5830   -1.2920   -0.2780 N   0  0  0  0  0  0  0  0  0  0  0  0
   -5.9110   -1.0860    0.1800 C   0  0  0  0  0  0  0  0  0  0  0  0
   -7.0390   -1.3760   -0.5560 C   0  0  0  0  0  0  0  0  0  0  0  0
   -8.3210   -1.1360   -0.0680 C   0  0  0  0  0  0  0  0  0  0  0  0
   -8.5300   -0.5970    1.1790 C   0  0  0  0  0  0  0  0  0  0  0  0
   -9.8080   -0.3510    1.6830 O   0  0  0  0  0  0  0  0  0  0  0  0
   -7.4140   -0.3010    1.9300 C   0  0  0  0  0  0  0  0  0  0  0  0
   -6.1360   -0.5380    1.4450 C   0  0  0  0  0  0  0  0  0  0  0  0
   -4.3090   -1.2790   -1.7060 C   0  0  0  0  0  0  0  0  0  0  0  0
   -3.4600   -0.0170   -1.9300 C   0  0  1  0  0  0  0  0  0  0  0  0
   -4.1890    1.1200   -1.7290 F   0  0  0  0  0  0  0  0  0  0  0  0
   -2.3400   -0.1190   -1.0730 O   0  0  0  0  0  0  0  0  0  0  0  0
    2.2920    1.0880    0.2940 N   0  0  0  0  0  0  0  0  0  0  0  0
    3.3940    0.3800    0.8310 C   0  0  2  0  0  0  0  0  0  0  0  0
    4.7070    1.0670    0.7050 C   0  0  0  0  0  0  0  0  0  0  0  0
    5.7910    0.0400    1.0660 C   0  0  0  0  0  0  0  0  0  0  0  0
    5.9250   -0.9070   -0.0990 C   0  0  2  0  0  0  0  0  0  0  0  0
    6.9780   -0.4030   -0.9620 N   0  0  0  0  0  0  0  0  0  0  0  0
    4.6240   -1.0620   -0.8340 C   0  0  0  0  0  0  0  0  0  0  0  0
    3.4760   -0.9680    0.1180 C   0  0  1  0  0  0  0  0  0  0  0  0
    3.5650   -2.1230    1.0950 C   0  0  0  0  0  0  0  0  0  0  0  0
    2.1990   -1.2020   -0.6900 C   0  0  0  0  0  0  0  0  0  0  0  0
  2  1  1  6
  2  3  1  0
  2 21  1  0
  3  4  1  0
  4  5  2  3
  5  6  1  0
  6  7  2  3
  7  8  1  0
  7 20  1  0
  8  9  1  0
  9 10  1  0
  9 17  1  0
 10 11  2  0
 10 16  1  0
 11 12  1  0
 12 13  2  0
 13 14  1  0
 13 15  1  0
 15 16  2  0
 17 18  1  0
 18 19  1  1
 18 20  1  0
 22 21  1  6
 22 23  1  0
 22 28  1  0
 23 24  1  0
 24 25  1  0
 25 26  1  6
 25 27  1  0
 27 28  1  0
 28 29  1  1
 28 30  1  0
M  CHG  2   4   1  26   1
M  END
