
     RDKit          3D

 12 12  0  0  0  0  0  0  0  0999 V2000
    3.8030    1.5160    0.9530 C   0  0  0  0  0  0  0  0  0  0  0  0
    2.7060    1.2340    0.2820 C   0  0  0  0  0  0  0  0  0  0  0  0
    2.2360   -0.0700   -0.0160 N   0  0  0  0  0  0  0  0  0  0  0  0
    2.9760   -0.9290   -0.9190 C   0  0  0  0  0  0  0  0  0  0  0  0
    0.9810   -0.4880    0.5850 C   0  0  0  0  0  0  0  0  0  0  0  0
   -0.0270   -0.4970   -0.5160 C   0  0  0  0  0  0  0  0  0  0  0  0
   -1.3500   -0.8890   -0.1930 N   0  0  0  0  0  0  0  0  0  0  0  0
   -2.1660   -0.6740   -1.3800 C   0  0  0  0  0  0  0  0  0  0  0  0
   -2.6630    0.7760   -1.2040 C   0  0  0  0  0  0  0  0  0  0  0  0
   -3.6340    0.7470   -0.2450 O   0  0  0  0  0  0  0  0  0  0  0  0
   -3.3060    0.1200    0.9270 C   0  0  0  0  0  0  0  0  0  0  0  0
   -1.9120   -0.4140    1.0060 C   0  0  0  0  0  0  0  0  0  0  0  0
  1  2  2  0
  2  3  1  0
  3  4  1  0
  3  5  1  0
  5  6  1  0
  6  7  1  0
  7  8  1  0
  7 12  1  0
  8  9  1  0
  9 10  1  0
 10 11  1  0
 11 12  1  0
M  END
