
     RDKit          3D

 12 12  0  0  0  0  0  0  0  0999 V2000
   -2.6910   -1.3430   -0.3690 C   0  0  0  0  0  0  0  0  0  0  0  0
   -2.7010   -0.2590    0.3630 C   0  0  0  0  0  0  0  0  0  0  0  0
   -1.8810    0.9090    0.2590 C   0  0  0  0  0  0  0  0  0  0  0  0
   -2.1380    1.8970    1.1540 C   0  0  0  0  0  0  0  0  0  0  0  0
   -0.8140    1.1790   -0.7050 C   0  0  0  0  0  0  0  0  0  0  0  0
    0.3320    0.3110   -0.5970 N   0  0  0  0  0  0  0  0  0  0  0  0
    0.6110   -0.7640   -1.3370 C   0  0  0  0  0  0  0  0  0  0  0  0
    1.8370   -1.2250   -0.9000 C   0  0  0  0  0  0  0  0  0  0  0  0
    2.3010   -0.4470    0.0870 N   0  0  0  0  0  0  0  0  0  0  0  0
    3.5760   -0.6290    0.7970 C   0  0  0  0  0  0  0  0  0  0  0  0
    1.3800    0.4900    0.2710 C   0  0  0  0  0  0  0  0  0  0  0  0
    1.4190    1.4210    1.1010 O   0  0  0  0  0  0  0  0  0  0  0  0
  1  2  2  0
  2  3  1  0
  3  4  2  0
  3  5  1  0
  5  6  1  0
  6  7  1  0
  6 11  1  0
  7  8  2  0
  8  9  1  0
  9 10  1  0
  9 11  1  0
 11 12  2  0
M  END
