
     RDKit          3D

 12 12  0  0  0  0  0  0  0  0999 V2000
   -3.7240   -0.9040   -0.1940 C   0  0  0  0  0  0  0  0  0  0  0  0
   -2.6670   -0.2420   -1.0720 C   0  0  0  0  0  0  0  0  0  0  0  0
   -1.8160    0.5690   -0.2240 N   0  0  0  0  0  0  0  0  0  0  0  0
   -2.4140    1.7410    0.3760 C   0  0  0  0  0  0  0  0  0  0  0  0
   -0.4480    0.1820   -0.0200 C   0  0  0  0  0  0  0  0  0  0  0  0
    0.5260    0.9120   -0.4670 N   0  0  0  0  0  0  0  0  0  0  0  0
    1.8920    0.5110   -0.2540 C   0  0  0  0  0  0  0  0  0  0  0  0
    2.9330    1.4160   -0.8050 C   0  0  0  0  0  0  0  0  0  0  0  0
    2.2190   -0.5850    0.3870 C   0  0  0  0  0  0  0  0  0  0  0  0
    3.6260   -0.9880    0.5990 C   0  0  0  0  0  0  0  0  0  0  0  0
    1.1670   -1.4630    0.9270 C   0  0  0  0  0  0  0  0  0  0  0  0
   -0.1020   -0.9660    0.6490 O   0  0  0  0  0  0  0  0  0  0  0  0
  1  2  1  0
  2  3  1  0
  3  4  1  0
  3  5  1  0
  5  6  2  0
  5 12  1  0
  6  7  1  0
  7  8  1  0
  7  9  2  0
  9 10  1  0
  9 11  1  0
 11 12  1  0
M  END
