
     RDKit          3D

 29 31  0  0  0  0  0  0  0  0999 V2000
    3.3780    1.7890   -1.1210 O   0  0  0  0  0  0  0  0  0  0  0  0
    3.2940    0.5890   -0.6630 C   0  0  0  0  0  0  0  0  0  0  0  0
    2.0590   -0.1580   -1.0420 C   0  0  0  0  0  0  0  0  0  0  0  0
    1.2900   -0.1380    0.2370 N   0  0  0  0  0  0  0  0  0  0  0  0
   -0.0630   -0.5870    0.1680 C   0  0  0  0  0  0  0  0  0  0  0  0
   -0.5260   -0.9820   -0.9100 O   0  0  0  0  0  0  0  0  0  0  0  0
   -0.7800   -0.4710    1.3860 O   0  0  0  0  0  0  0  0  0  0  0  0
   -2.1760   -0.7800    1.2410 C   0  0  2  0  0  0  0  0  0  0  0  0
   -2.2020   -2.1480    0.5660 C   0  0  0  0  0  0  0  0  0  0  0  0
   -3.4260   -2.6920    0.2340 C   0  0  0  0  0  0  0  0  0  0  0  0
   -3.4870   -3.9760   -0.3140 C   0  0  0  0  0  0  0  0  0  0  0  0
   -2.3030   -4.6430   -0.5060 C   0  0  0  0  0  0  0  0  0  0  0  0
   -1.1130   -4.0540   -0.1460 C   0  0  0  0  0  0  0  0  0  0  0  0
   -1.1010   -2.8660    0.3640 N   0  0  0  0  0  0  0  0  0  0  0  0
   -2.7390    0.3400    0.5560 N   0  0  0  0  0  0  0  0  0  0  0  0
   -2.1140    1.4020    0.0050 C   0  0  0  0  0  0  0  0  0  0  0  0
   -3.0200    2.3370   -0.4060 C   0  0  0  0  0  0  0  0  0  0  0  0
   -4.2160    1.8230   -0.0830 C   0  0  0  0  0  0  0  0  0  0  0  0
   -4.0520    0.6500    0.4930 N   0  0  0  0  0  0  0  0  0  0  0  0
   -5.3960    2.6740   -0.4030 C   0  0  0  0  0  0  0  0  0  0  0  0
   -6.5180    2.1920   -0.4600 O   0  0  0  0  0  0  0  0  0  0  0  0
   -5.0300    4.1160   -0.6090 C   0  0  0  0  0  0  0  0  0  0  0  0
   -4.0270    4.1460   -1.5740 O   0  0  0  0  0  0  0  0  0  0  0  0
   -2.9180    3.5430   -1.0350 O   0  0  0  0  0  0  0  0  0  0  0  0
    4.3490    0.0610    0.1150 N   0  0  0  0  0  0  0  0  0  0  0  0
    5.4100    1.0630    0.3790 C   0  0  0  0  0  0  0  0  0  0  0  0
    6.6890    0.4430    0.8710 C   0  0  0  0  0  0  0  0  0  0  0  0
    7.0290   -0.4770   -0.1450 O   0  0  0  0  0  0  0  0  0  0  0  0
    7.5310    0.0480   -1.1890 O   0  0  0  0  0  0  0  0  0  0  0  0
  1  2  2  0
  2  3  1  0
  2 25  1  0
  3  4  1  0
  4  5  1  0
  5  6  2  0
  5  7  1  0
  8  7  1  6
  8  9  1  0
  8 15  1  0
  9 10  2  0
  9 14  1  0
 10 11  1  0
 11 12  2  0
 12 13  1  0
 13 14  2  0
 15 16  1  0
 15 19  1  0
 16 17  2  0
 17 18  1  0
 17 24  1  0
 18 19  2  0
 18 20  1  0
 20 21  2  0
 20 22  1  0
 22 23  1  0
 23 24  1  0
 25 26  1  0
 26 27  1  0
 27 28  1  0
 28 29  1  0
M  END
