
     RDKit          3D

 29 31  0  0  0  0  0  0  0  0999 V2000
    7.4780    3.1780   -0.5800 O   0  0  0  0  0  0  0  0  0  0  0  0
    6.7560    2.2500   -0.1230 C   0  0  0  0  0  0  0  0  0  0  0  0
    7.0170    1.7000    1.2310 C   0  0  0  0  0  0  0  0  0  0  0  0
    5.7890    1.4320    1.8870 O   0  0  0  0  0  0  0  0  0  0  0  0
    4.7140    0.8830    1.1680 C   0  0  0  0  0  0  0  0  0  0  0  0
    3.6970    0.2040    1.8010 C   0  0  0  0  0  0  0  0  0  0  0  0
    2.6160   -0.3520    1.1120 C   0  0  0  0  0  0  0  0  0  0  0  0
    2.5410   -0.2330   -0.2340 C   0  0  0  0  0  0  0  0  0  0  0  0
    1.5070   -0.7210   -1.0540 N   0  0  0  0  0  0  0  0  0  0  0  0
    0.1770   -1.0670   -0.6080 C   0  0  0  0  0  0  0  0  0  0  0  0
    0.0110   -0.8760    0.6240 O   0  0  0  0  0  0  0  0  0  0  0  0
   -0.8140   -1.5740   -1.5330 C   0  0  0  0  0  0  0  0  0  0  0  0
   -0.3050   -1.9000   -2.7000 O   0  0  0  0  0  0  0  0  0  0  0  0
   -2.1900   -1.7790   -1.3860 N   0  0  0  0  0  0  0  0  0  0  0  0
   -2.8580   -2.6990   -2.2940 C   0  0  0  0  0  0  0  0  0  0  0  0
   -2.1590   -3.4590   -2.9960 O   0  0  0  0  0  0  0  0  0  0  0  0
   -4.3370   -2.7110   -2.3620 C   0  0  0  0  0  0  0  0  0  0  0  0
   -4.8420   -2.5730   -1.0550 O   0  0  0  0  0  0  0  0  0  0  0  0
   -4.2230   -1.6990   -0.2180 N   0  0  0  0  0  0  0  0  0  0  0  0
   -3.0040   -1.3070   -0.3340 C   0  0  0  0  0  0  0  0  0  0  0  0
   -2.5250   -0.2820    0.5410 N   0  0  0  0  0  0  0  0  0  0  0  0
   -2.8520   -0.2170    1.9160 C   0  0  0  0  0  0  0  0  0  0  0  0
   -4.3130    0.1330    2.0850 C   0  0  0  0  0  0  0  0  0  0  0  0
   -4.6060    1.4680    1.4550 C   0  0  0  0  0  0  0  0  0  0  0  0
   -4.3100    1.4100    0.1090 O   0  0  0  0  0  0  0  0  0  0  0  0
   -4.5690    2.5860   -0.4590 O   0  0  0  0  0  0  0  0  0  0  0  0
    3.5760    0.4580   -0.8830 C   0  0  0  0  0  0  0  0  0  0  0  0
    4.6460    1.0100   -0.2070 C   0  0  0  0  0  0  0  0  0  0  0  0
    5.6870    1.7070   -0.8720 N   0  0  0  0  0  0  0  0  0  0  0  0
  1  2  2  0
  2  3  1  0
  2 29  1  0
  3  4  1  0
  4  5  1  0
  5  6  2  0
  5 28  1  0
  6  7  1  0
  7  8  2  0
  8  9  1  0
  8 27  1  0
  9 10  1  0
 10 11  2  0
 10 12  1  0
 12 13  2  0
 12 14  1  0
 14 15  1  0
 14 20  1  0
 15 16  2  0
 15 17  1  0
 17 18  1  0
 18 19  1  0
 19 20  2  0
 20 21  1  0
 21 22  1  0
 22 23  1  0
 23 24  1  0
 24 25  1  0
 25 26  1  0
 27 28  2  0
 28 29  1  0
M  END
