
     RDKit          3D

 29 31  0  0  0  0  0  0  0  0999 V2000
    2.5100   -0.6010    1.6730 C   0  0  0  0  0  0  0  0  0  0  0  0
    2.3500    0.8720    1.3790 C   0  0  1  0  0  0  0  0  0  0  0  0
    3.5860    1.6720    1.6150 C   0  0  0  0  0  0  0  0  0  0  0  0
    4.0720    1.3400    2.9050 O   0  0  0  0  0  0  0  0  0  0  0  0
    5.1750    2.0270    3.1460 O   0  0  0  0  0  0  0  0  0  0  0  0
    1.7560    1.1100    0.0600 N   0  0  0  0  0  0  0  0  0  0  0  0
    2.4210    0.5760   -1.1030 C   0  0  0  0  0  0  0  0  0  0  0  0
    3.6930    0.4840   -1.0840 N   0  0  0  0  0  0  0  0  0  0  0  0
    4.4520   -0.0200   -2.1760 C   0  0  0  0  0  0  0  0  0  0  0  0
    5.8440   -0.1170   -2.1160 O   0  0  0  0  0  0  0  0  0  0  0  0
    3.7780   -0.3890   -3.2410 C   0  0  0  0  0  0  0  0  0  0  0  0
    2.3390   -0.3250   -3.4050 C   0  0  0  0  0  0  0  0  0  0  0  0
    1.6740    0.1160   -2.1960 N   0  0  0  0  0  0  0  0  0  0  0  0
    0.2300    0.0480   -2.1220 C   0  0  0  0  0  0  0  0  0  0  0  0
   -0.3440   -0.4270   -3.1530 O   0  0  0  0  0  0  0  0  0  0  0  0
   -0.5620    0.4240   -1.0980 O   0  0  0  0  0  0  0  0  0  0  0  0
   -1.9470    0.3400   -1.0420 C   0  0  0  0  0  0  0  0  0  0  0  0
   -2.6880    1.0020   -1.9890 C   0  0  0  0  0  0  0  0  0  0  0  0
   -4.0620    0.9480   -1.9700 C   0  0  0  0  0  0  0  0  0  0  0  0
   -4.6670    0.2130   -0.9760 C   0  0  0  0  0  0  0  0  0  0  0  0
   -3.9200   -0.4650   -0.0060 C   0  0  0  0  0  0  0  0  0  0  0  0
   -4.6350   -1.1680    0.9820 N   0  0  0  0  0  0  0  0  0  0  0  0
   -5.4540   -2.3260    0.8400 C   0  0  0  0  0  0  0  0  0  0  0  0
   -6.2620   -2.4190    2.0980 C   0  0  0  0  0  0  0  0  0  0  0  0
   -7.2740   -3.0980    2.3030 O   0  0  0  0  0  0  0  0  0  0  0  0
   -5.6490   -1.5820    3.0150 O   0  0  0  0  0  0  0  0  0  0  0  0
   -4.6700   -0.8220    2.3640 C   0  0  0  0  0  0  0  0  0  0  0  0
   -3.9570    0.0230    2.9630 O   0  0  0  0  0  0  0  0  0  0  0  0
   -2.5870   -0.3620   -0.0950 N   0  0  0  0  0  0  0  0  0  0  0  0
  2  1  1  6
  2  3  1  0
  2  6  1  0
  3  4  1  0
  4  5  1  0
  6  7  1  0
  7  8  2  0
  7 13  1  0
  8  9  1  0
  9 10  1  0
  9 11  2  0
 11 12  1  0
 12 13  1  0
 13 14  1  0
 14 15  2  0
 14 16  1  0
 16 17  1  0
 17 18  2  0
 17 29  1  0
 18 19  1  0
 19 20  2  0
 20 21  1  0
 21 22  1  0
 21 29  2  0
 22 23  1  0
 22 27  1  0
 23 24  1  0
 24 25  2  0
 24 26  1  0
 26 27  1  0
 27 28  2  0
M  END
