
     RDKit          3D

 29 32  0  0  0  0  0  0  0  0999 V2000
    4.6660    2.7810   -0.9520 O   0  0  0  0  0  0  0  0  0  0  0  0
    4.8740    1.5510   -0.6660 C   0  0  0  0  0  0  0  0  0  0  0  0
    3.9000    0.5840   -0.3410 O   0  0  0  0  0  0  0  0  0  0  0  0
    4.4820   -0.2740    0.5700 C   0  0  1  0  0  0  0  0  0  0  0  0
    4.0240   -1.6930    0.6040 C   0  0  0  0  0  0  0  0  0  0  0  0
    2.7180   -1.8340    0.8920 O   0  0  0  0  0  0  0  0  0  0  0  0
    1.5090   -1.5530    0.3540 C   0  0  0  0  0  0  0  0  0  0  0  0
    1.2630   -0.9770   -0.8720 C   0  0  0  0  0  0  0  0  0  0  0  0
   -0.0400   -0.7270   -1.3190 C   0  0  0  0  0  0  0  0  0  0  0  0
   -1.1230   -1.0470   -0.5520 C   0  0  0  0  0  0  0  0  0  0  0  0
   -2.4810   -0.7860   -1.0190 C   0  0  2  0  0  0  0  0  0  0  0  0
   -3.0510    0.3710   -0.2060 C   0  0  0  0  0  0  0  0  0  0  0  0
   -4.4200   -0.0020   -0.0100 N   0  0  0  0  0  0  0  0  0  0  0  0
   -5.5370    0.8520    0.1630 C   0  0  0  0  0  0  0  0  0  0  0  0
   -6.8360    0.3820    0.1000 C   0  0  0  0  0  0  0  0  0  0  0  0
   -7.8570    1.2010    0.2630 N   0  0  0  0  0  0  0  0  0  0  0  0
   -7.6910    2.5000    0.4920 N   0  0  0  0  0  0  0  0  0  0  0  0
   -6.4830    3.0200    0.5660 N   0  0  0  0  0  0  0  0  0  0  0  0
   -5.4000    2.2080    0.4030 C   0  0  0  0  0  0  0  0  0  0  0  0
   -4.2530    2.7310    0.4790 O   0  0  0  0  0  0  0  0  0  0  0  0
   -4.4290   -1.4250   -0.0280 C   0  0  0  0  0  0  0  0  0  0  0  0
   -5.2970   -2.1430    0.4980 O   0  0  0  0  0  0  0  0  0  0  0  0
   -3.3020   -1.8910   -0.7320 O   0  0  0  0  0  0  0  0  0  0  0  0
   -0.9060   -1.6240    0.6740 C   0  0  0  0  0  0  0  0  0  0  0  0
    0.3710   -1.8670    1.1080 C   0  0  0  0  0  0  0  0  0  0  0  0
    5.9800   -0.2360    0.3250 C   0  0  0  0  0  0  0  0  0  0  0  0
    6.1190    0.8720   -0.6080 N   0  0  0  0  0  0  0  0  0  0  0  0
    7.2330    1.2240   -1.3160 O   0  0  0  0  0  0  0  0  0  0  0  0
    8.2350    1.4840   -0.5050 O   0  0  0  0  0  0  0  0  0  0  0  0
  1  2  2  0
  2  3  1  0
  2 27  1  0
  3  4  1  0
  4  5  1  6
  4 26  1  0
  5  6  1  0
  6  7  1  0
  7  8  2  0
  7 25  1  0
  8  9  1  0
  9 10  2  0
 11 10  1  1
 10 24  1  0
 11 12  1  0
 11 23  1  0
 12 13  1  0
 13 14  1  0
 13 21  1  0
 14 15  2  0
 14 19  1  0
 15 16  1  0
 16 17  2  0
 17 18  1  0
 18 19  1  0
 19 20  2  0
 21 22  2  0
 21 23  1  0
 24 25  2  0
 26 27  1  0
 27 28  1  0
 28 29  1  0
M  END
