
     RDKit          3D

 29 31  0  0  0  0  0  0  0  0999 V2000
    3.5740    0.6480   -0.7870 O   0  0  0  0  0  0  0  0  0  0  0  0
    4.1780   -0.4350   -0.6560 C   0  0  0  0  0  0  0  0  0  0  0  0
    3.3900   -1.6240   -0.7160 N   0  0  0  0  0  0  0  0  0  0  0  0
    2.0230   -1.5130   -0.9150 N   0  0  0  0  0  0  0  0  0  0  0  0
    1.2130   -1.0010    0.1200 C   0  0  0  0  0  0  0  0  0  0  0  0
    1.7150   -0.6450    1.2130 O   0  0  0  0  0  0  0  0  0  0  0  0
   -0.2430   -0.8790   -0.0750 C   0  0  0  0  0  0  0  0  0  0  0  0
   -0.7240   -1.2520   -1.2010 O   0  0  0  0  0  0  0  0  0  0  0  0
   -1.0790   -0.3700    0.9470 N   0  0  0  0  0  0  0  0  0  0  0  0
   -2.4940   -0.3060    0.6630 C   0  0  0  0  0  0  0  0  0  0  0  0
   -3.0360    0.8570    0.5720 C   0  0  0  0  0  0  0  0  0  0  0  0
   -4.3620    1.3010    0.3020 C   0  0  0  0  0  0  0  0  0  0  0  0
   -5.0020    2.1320    1.1900 C   0  0  0  0  0  0  0  0  0  0  0  0
   -6.2750    2.6310    0.8940 C   0  0  0  0  0  0  0  0  0  0  0  0
   -6.8830    2.3030   -0.2610 N   0  0  0  0  0  0  0  0  0  0  0  0
   -6.2610    1.4870   -1.1400 C   0  0  0  0  0  0  0  0  0  0  0  0
   -5.0000    0.9790   -0.8720 C   0  0  0  0  0  0  0  0  0  0  0  0
   -3.2080   -1.5690    0.6230 C   0  0  0  0  0  0  0  0  0  0  0  0
   -2.6000   -2.8410    0.6180 C   0  0  0  0  0  0  0  0  0  0  0  0
   -3.5410   -3.8380    0.6220 C   0  0  0  0  0  0  0  0  0  0  0  0
   -4.7450   -3.1980    0.6310 C   0  0  0  0  0  0  0  0  0  0  0  0
   -4.5220   -1.8490    0.6320 N   0  0  0  0  0  0  0  0  0  0  0  0
    5.5830   -0.4900   -0.4570 N   0  0  0  0  0  0  0  0  0  0  0  0
    6.4360    0.6300   -0.3810 C   0  0  0  0  0  0  0  0  0  0  0  0
    7.8200    0.3950   -0.4420 C   0  0  0  0  0  0  0  0  0  0  0  0
    8.7100    1.4260   -0.3620 C   0  0  0  0  0  0  0  0  0  0  0  0
    8.2620    2.7160   -0.2190 C   0  0  0  0  0  0  0  0  0  0  0  0
    6.9510    2.9750   -0.1570 N   0  0  0  0  0  0  0  0  0  0  0  0
    6.0760    1.9380   -0.2390 C   0  0  0  0  0  0  0  0  0  0  0  0
  1  2  2  0
  2  3  1  0
  2 23  1  0
  3  4  1  0
  4  5  1  0
  5  6  2  0
  5  7  1  0
  7  8  2  0
  7  9  1  0
  9 10  1  0
 10 11  2  3
 10 18  1  0
 11 12  1  0
 12 13  2  0
 12 17  1  0
 13 14  1  0
 14 15  2  0
 15 16  1  0
 16 17  2  0
 18 19  2  0
 18 22  1  0
 19 20  1  0
 20 21  2  0
 21 22  1  0
 23 24  1  0
 24 25  2  0
 24 29  1  0
 25 26  1  0
 26 27  2  0
 27 28  1  0
 28 29  2  0
M  CHG  1  15   1
M  END
