
     RDKit          3D

 29 32  0  0  0  0  0  0  0  0999 V2000
   -5.8560   -1.6720    0.9980 O   0  0  0  0  0  0  0  0  0  0  0  0
   -4.8560   -2.2360    0.5600 C   0  0  0  0  0  0  0  0  0  0  0  0
   -4.4680   -3.4610    1.1940 O   0  0  0  0  0  0  0  0  0  0  0  0
   -3.9940   -1.8210   -0.5500 C   0  0  0  0  0  0  0  0  0  0  0  0
   -3.1020   -0.6660   -0.1950 C   0  0  0  0  0  0  0  0  0  0  0  0
   -1.8850   -0.9920    0.3520 N   0  0  0  0  0  0  0  0  0  0  0  0
   -1.0110   -0.1160    0.7670 N   0  0  0  0  0  0  0  0  0  0  0  0
    0.1390   -0.5530    1.4480 C   0  0  0  0  0  0  0  0  0  0  0  0
    1.4210   -0.6890    0.7470 C   0  0  0  0  0  0  0  0  0  0  0  0
    2.5210   -0.0740    0.8710 N   0  0  0  0  0  0  0  0  0  0  0  0
    3.5710   -0.3040    0.1690 C   0  0  0  0  0  0  0  0  0  0  0  0
    4.8310    0.3410    0.2610 C   0  0  0  0  0  0  0  0  0  0  0  0
    5.8970    0.0210   -0.5460 C   0  0  0  0  0  0  0  0  0  0  0  0
    7.1780    0.7910   -0.3610 C   0  0  2  0  0  0  0  0  0  0  0  0
    6.8490    2.1340   -0.0730 F   0  0  0  0  0  0  0  0  0  0  0  0
    7.8270    0.7970   -1.5620 F   0  0  0  0  0  0  0  0  0  0  0  0
    7.8800    0.2980    0.6930 F   0  0  0  0  0  0  0  0  0  0  0  0
    5.7940   -0.9620   -1.4930 C   0  0  0  0  0  0  0  0  0  0  0  0
    4.5690   -1.6340   -1.6210 C   0  0  0  0  0  0  0  0  0  0  0  0
    3.5250   -1.2740   -0.7870 C   0  0  0  0  0  0  0  0  0  0  0  0
    1.8090   -1.8500   -0.5870 S   0  0  0  0  0  0  0  0  0  0  0  0
   -1.3390    1.1930    0.6400 C   0  0  0  0  0  0  0  0  0  0  0  0
   -0.5230    2.0440    1.0250 O   0  0  0  0  0  0  0  0  0  0  0  0
   -2.5480    1.5820    0.0920 C   0  0  0  0  0  0  0  0  0  0  0  0
   -2.8750    2.9190   -0.0290 C   0  0  0  0  0  0  0  0  0  0  0  0
   -4.0840    3.2870   -0.5690 C   0  0  0  0  0  0  0  0  0  0  0  0
   -4.9940    2.3320   -0.9950 C   0  0  0  0  0  0  0  0  0  0  0  0
   -4.6790    0.9820   -0.8780 C   0  0  0  0  0  0  0  0  0  0  0  0
   -3.4380    0.6230   -0.3280 C   0  0  0  0  0  0  0  0  0  0  0  0
  1  2  2  0
  2  3  1  0
  2  4  1  0
  4  5  1  0
  5  6  2  0
  5 29  1  0
  6  7  1  0
  7  8  1  0
  7 22  1  0
  8  9  1  0
  9 10  2  0
  9 21  1  0
 10 11  1  0
 11 12  2  0
 11 20  1  0
 12 13  1  0
 13 14  1  0
 13 18  2  0
 14 15  1  1
 14 16  1  0
 14 17  1  0
 18 19  1  0
 19 20  2  0
 20 21  1  0
 22 23  2  0
 22 24  1  0
 24 25  2  0
 24 29  1  0
 25 26  1  0
 26 27  2  0
 27 28  1  0
 28 29  2  0
M  END
