
     RDKit          3D

 26 28  0  0  0  0  0  0  0  0999 V2000
    5.9720    2.0210    1.1840 C   0  0  0  0  0  0  0  0  0  0  0  0
    6.2350    1.1860   -0.0510 C   0  0  0  0  0  0  0  0  0  0  0  0
    5.0270    0.5530   -0.4970 O   0  0  0  0  0  0  0  0  0  0  0  0
    4.3410   -0.3240    0.3320 C   0  0  0  0  0  0  0  0  0  0  0  0
    4.8520   -0.5160    1.4810 O   0  0  0  0  0  0  0  0  0  0  0  0
    3.1220   -0.9750   -0.0910 C   0  0  0  0  0  0  0  0  0  0  0  0
    2.9780   -2.1740   -0.7310 C   0  0  0  0  0  0  0  0  0  0  0  0
    4.0720   -3.1100   -1.1430 C   0  0  0  0  0  0  0  0  0  0  0  0
    1.6660   -2.3930   -0.9400 N   0  0  0  0  0  0  0  0  0  0  0  0
    0.9390   -1.3780   -0.4600 C   0  0  0  0  0  0  0  0  0  0  0  0
    1.8330   -0.4850    0.0740 C   0  0  0  0  0  0  0  0  0  0  0  0
    1.2850    0.7190    0.6760 C   0  0  0  0  0  0  0  0  0  0  0  0
    1.9440    1.7760    0.6460 O   0  0  0  0  0  0  0  0  0  0  0  0
   -0.0480    0.6300    1.3070 C   0  0  0  0  0  0  0  0  0  0  0  0
   -1.0350   -0.2370    0.6130 C   0  0  1  0  0  0  0  0  0  0  0  0
   -1.6440   -1.1670    1.6750 C   0  0  0  0  0  0  0  0  0  0  0  0
   -2.1410    0.5750   -0.0680 C   0  0  1  0  0  0  0  0  0  0  0  0
   -1.4560    1.3200   -1.0600 O   0  0  0  0  0  0  0  0  0  0  0  0
   -3.0760   -0.3430   -0.7310 C   0  0  0  0  0  0  0  0  0  0  0  0
   -4.3420   -0.6750    0.0490 C   0  0  2  0  0  0  0  0  0  0  0  0
   -5.0660   -1.7420   -0.7090 C   0  0  0  0  0  0  0  0  0  0  0  0
   -5.3040    0.8930    0.0230 S   0  0  0  0  0  0  0  0  0  0  0  0
   -4.0480    2.1610    0.3440 C   0  0  2  0  0  0  0  0  0  0  0  0
   -3.8340    3.0560   -0.8540 C   0  0  0  0  0  0  0  0  0  0  0  0
   -2.7470    1.5830    0.8490 C   0  0  0  0  0  0  0  0  0  0  0  0
   -0.4950   -1.1340   -0.4550 C   0  0  0  0  0  0  0  0  0  0  0  0
  1  2  1  0
  2  3  1  0
  3  4  1  0
  4  5  2  0
  4  6  1  0
  6  7  2  0
  6 11  1  0
  7  8  1  0
  7  9  1  0
  9 10  1  0
 10 11  2  0
 10 26  1  0
 11 12  1  0
 12 13  2  0
 12 14  1  0
 14 15  1  0
 15 16  1  1
 15 17  1  0
 15 26  1  0
 17 18  1  6
 17 19  1  0
 17 25  1  0
 19 20  1  0
 20 21  1  6
 20 22  1  0
 22 23  1  0
 23 24  1  6
 23 25  1  0
M  END
