
     RDKit          3D

 26 29  0  0  0  0  0  0  0  0999 V2000
    6.9570    1.7020   -0.8800 C   0  0  0  0  0  0  0  0  0  0  0  0
    5.9240    0.7830   -0.3120 C   0  0  1  0  0  0  0  0  0  0  0  0
    5.7930    1.0100    1.2000 C   0  0  0  0  0  0  0  0  0  0  0  0
    5.2250   -0.2780    1.7540 C   0  0  0  0  0  0  0  0  0  0  0  0
    3.9230   -0.5160    1.0350 C   0  0  0  0  0  0  0  0  0  0  0  0
    3.0140   -1.3440    1.6200 C   0  0  0  0  0  0  0  0  0  0  0  0
    1.7810   -1.6180    1.0160 C   0  0  0  0  0  0  0  0  0  0  0  0
    0.9010   -2.4760    1.6640 O   0  0  0  0  0  0  0  0  0  0  0  0
    1.4510   -1.0570   -0.1850 C   0  0  0  0  0  0  0  0  0  0  0  0
   -0.0840   -1.3040   -0.9900 S   0  0  1  0  0  0  0  0  0  0  0  0
    0.0240   -0.6480   -2.3540 O   0  0  0  0  0  0  0  0  0  0  0  0
   -0.2820   -2.7900   -1.1510 O   0  0  0  0  0  0  0  0  0  0  0  0
   -1.3320   -0.6200   -0.0550 N   0  0  0  0  0  0  0  0  0  0  0  0
   -2.3020   -1.5150    0.4680 C   0  0  0  0  0  0  0  0  0  0  0  0
   -3.6660   -1.0380   -0.0410 C   0  0  1  0  0  0  0  0  0  0  0  0
   -4.3450   -0.2500    1.0240 C   0  0  0  0  0  0  0  0  0  0  0  0
   -5.0630    0.9710    0.5290 C   0  0  2  0  0  0  0  0  0  0  0  0
   -6.2300    1.3580    1.4030 C   0  0  0  0  0  0  0  0  0  0  0  0
   -5.5350    0.6640   -0.8870 C   0  0  0  0  0  0  0  0  0  0  0  0
   -4.3010    0.6940   -1.7510 C   0  0  0  0  0  0  0  0  0  0  0  0
   -3.2640   -0.2460   -1.2450 C   0  0  2  0  0  0  0  0  0  0  0  0
   -2.9770   -1.1600   -2.2700 O   0  0  0  0  0  0  0  0  0  0  0  0
   -1.9920    0.4080   -0.8190 C   0  0  0  0  0  0  0  0  0  0  0  0
    2.4140   -0.2130   -0.7510 C   0  0  0  0  0  0  0  0  0  0  0  0
    3.6210    0.0550   -0.1630 C   0  0  0  0  0  0  0  0  0  0  0  0
    4.5600    0.9850   -0.8900 C   0  0  0  0  0  0  0  0  0  0  0  0
  2  1  1  6
  2  3  1  0
  2 26  1  0
  3  4  1  0
  4  5  1  0
  5  6  2  0
  5 25  1  0
  6  7  1  0
  7  8  1  0
  7  9  2  0
  9 10  1  0
  9 24  1  0
 10 11  2  0
 10 12  2  0
 10 13  1  1
 13 14  1  0
 13 23  1  0
 15 14  1  1
 15 16  1  0
 15 21  1  0
 16 17  1  0
 17 18  1  1
 17 19  1  0
 19 20  1  0
 20 21  1  0
 21 22  1  6
 21 23  1  0
 24 25  2  0
 25 26  1  0
M  END
