
     RDKit          3D

 26 28  0  0  0  0  0  0  0  0999 V2000
   -3.7610    2.9510   -0.4070 C   0  0  0  0  0  0  0  0  0  0  0  0
   -4.4910    1.6780   -0.3020 C   0  0  0  0  0  0  0  0  0  0  0  0
   -5.7860    1.6470   -0.5680 C   0  0  0  0  0  0  0  0  0  0  0  0
   -6.5060    0.4960   -0.4850 O   0  0  0  0  0  0  0  0  0  0  0  0
   -5.9850   -0.7240   -0.1210 C   0  0  0  0  0  0  0  0  0  0  0  0
   -4.5410   -0.6840    0.1770 C   0  0  0  0  0  0  0  0  0  0  0  0
   -3.8490    0.4030    0.0970 C   0  0  0  0  0  0  0  0  0  0  0  0
   -2.3650    0.4110    0.3910 C   0  0  2  0  0  0  0  0  0  0  0  0
   -1.5920    0.5620   -0.8660 C   0  0  0  0  0  0  0  0  0  0  0  0
   -0.1280    0.6550   -0.8530 C   0  0  2  0  0  0  0  0  0  0  0  0
    0.3680    1.8490   -0.0430 C   0  0  0  0  0  0  0  0  0  0  0  0
    0.3160    0.9450   -2.1830 O   0  0  0  0  0  0  0  0  0  0  0  0
    0.6730   -0.5420   -0.4490 C   0  0  0  0  0  0  0  0  0  0  0  0
    2.1380   -0.1580   -0.5940 C   0  0  0  0  0  0  0  0  0  0  0  0
    2.4660    0.9620   -1.0360 O   0  0  0  0  0  0  0  0  0  0  0  0
    3.1510   -1.0930   -0.2190 N   0  0  0  0  0  0  0  0  0  0  0  0
    4.5480   -0.8300   -0.3170 C   0  0  2  0  0  0  0  0  0  0  0  0
    5.3260   -2.0290    0.1650 C   0  0  0  0  0  0  0  0  0  0  0  0
    5.0090   -2.3020    1.4930 O   0  0  0  0  0  0  0  0  0  0  0  0
    4.9450    0.3550    0.5050 C   0  0  0  0  0  0  0  0  0  0  0  0
    6.4440    0.4930    0.3670 C   0  0  0  0  0  0  0  0  0  0  0  0
    6.6450    0.1550   -1.4250 S   0  0  0  0  0  0  0  0  0  0  0  0
    4.9700   -0.5240   -1.7600 C   0  0  0  0  0  0  0  0  0  0  0  0
   -1.9130   -0.8010    1.1350 C   0  0  0  0  0  0  0  0  0  0  0  0
   -3.0590   -1.5920    1.7820 C   0  0  0  0  0  0  0  0  0  0  0  0
   -3.9610   -2.0220    0.6030 C   0  0  0  0  0  0  0  0  0  0  0  0
  1  2  1  0
  2  3  2  0
  2  7  1  0
  3  4  1  0
  4  5  1  0
  5  6  1  0
  6  7  2  0
  6 26  1  0
  7  8  1  0
  8  9  1  6
  8 24  1  0
  9 10  1  0
 10 11  1  1
 10 12  1  0
 10 13  1  0
 13 14  1  0
 14 15  2  0
 14 16  1  0
 16 17  1  0
 17 18  1  1
 17 20  1  0
 17 23  1  0
 18 19  1  0
 20 21  1  0
 21 22  1  0
 22 23  1  0
 24 25  1  0
 25 26  1  0
M  END
