
     RDKit          3D

 25 28  0  0  0  0  0  0  0  0999 V2000
    3.8620   -2.9720    0.6580 C   0  0  0  0  0  0  0  0  0  0  0  0
    4.0380   -1.5760    0.1000 C   0  0  0  0  0  0  0  0  0  0  0  0
    3.0060   -0.8130   -0.0820 C   0  0  0  0  0  0  0  0  0  0  0  0
    1.5770   -1.1000    0.1840 C   0  0  0  0  0  0  0  0  0  0  0  0
    1.2260   -2.2130    0.6480 O   0  0  0  0  0  0  0  0  0  0  0  0
    0.5810   -0.1260   -0.0800 N   0  0  0  0  0  0  0  0  0  0  0  0
   -0.8280   -0.3500    0.1530 C   0  0  1  0  0  0  0  0  0  0  0  0
   -1.3960    0.5410    1.2140 C   0  0  0  0  0  0  0  0  0  0  0  0
   -2.8490    0.2100    1.4050 C   0  0  0  0  0  0  0  0  0  0  0  0
   -3.5920    0.6740    0.1810 C   0  0  2  0  0  0  0  0  0  0  0  0
   -4.2670    1.9860    0.5110 C   0  0  0  0  0  0  0  0  0  0  0  0
   -5.6740    1.7490    1.0550 C   0  0  0  0  0  0  0  0  0  0  0  0
   -5.7530    0.6060    1.8120 O   0  0  0  0  0  0  0  0  0  0  0  0
   -5.4820   -0.5570    1.1100 C   0  0  0  0  0  0  0  0  0  0  0  0
   -4.6630   -0.3230   -0.1390 C   0  0  0  0  0  0  0  0  0  0  0  0
   -2.6380    0.8970   -0.9680 C   0  0  2  0  0  0  0  0  0  0  0  0
   -3.3710    1.0680   -2.2600 C   0  0  0  0  0  0  0  0  0  0  0  0
   -1.6420   -0.2340   -1.0970 C   0  0  1  0  0  0  0  0  0  0  0  0
   -0.8390    0.0300   -2.2050 O   0  0  0  0  0  0  0  0  0  0  0  0
    3.6020    0.7300   -0.7450 S   0  0  0  0  0  0  0  0  0  0  0  0
    5.3610    0.3030   -0.7420 C   0  0  1  0  0  0  0  0  0  0  0  0
    6.1440    1.1620    0.2240 C   0  0  0  0  0  0  0  0  0  0  0  0
    5.9590    0.3760    1.5180 C   0  0  0  0  0  0  0  0  0  0  0  0
    6.1900   -1.0270    1.0300 C   0  0  0  0  0  0  0  0  0  0  0  0
    5.3490   -1.0800   -0.2410 C   0  0  1  0  0  0  0  0  0  0  0  0
  1  2  1  0
  2  3  2  0
  2 25  1  0
  3  4  1  0
  3 20  1  0
  4  5  2  0
  4  6  1  0
  7  6  1  6
  7  8  1  0
  7 18  1  0
  8  9  1  0
 10  9  1  1
 10 11  1  0
 10 15  1  0
 10 16  1  0
 11 12  1  0
 12 13  1  0
 13 14  1  0
 14 15  1  0
 16 17  1  6
 16 18  1  0
 18 19  1  6
 20 21  1  0
 21 22  1  1
 21 25  1  0
 22 23  1  0
 23 24  1  0
 25 24  1  1
M  END
