
     RDKit          3D

 26 29  0  0  0  0  0  0  0  0999 V2000
    6.8870    1.0100   -0.4200 C   0  0  0  0  0  0  0  0  0  0  0  0
    6.0750    1.0850    1.1970 S   0  0  0  0  0  0  0  0  0  0  0  0
    4.7950   -0.2270    1.2210 C   0  0  1  0  0  0  0  0  0  0  0  0
    4.0630   -0.2470    2.5220 C   0  0  1  0  0  0  0  0  0  0  0  0
    4.2710    0.8940    3.2870 O   0  0  0  0  0  0  0  0  0  0  0  0
    2.6400   -0.4210    2.1440 C   0  0  0  0  0  0  0  0  0  0  0  0
    1.5110   -0.7190    2.9370 C   0  0  0  0  0  0  0  0  0  0  0  0
    0.2740   -0.8280    2.3470 C   0  0  0  0  0  0  0  0  0  0  0  0
    0.0920   -0.6530    0.9840 C   0  0  0  0  0  0  0  0  0  0  0  0
    1.1780   -0.3640    0.2130 C   0  0  0  0  0  0  0  0  0  0  0  0
    2.4730   -0.2470    0.8090 C   0  0  0  0  0  0  0  0  0  0  0  0
    3.7500    0.0510    0.1650 C   0  0  2  0  0  0  0  0  0  0  0  0
    4.0640   -0.7480   -0.9270 O   0  0  0  0  0  0  0  0  0  0  0  0
    1.0570   -0.1550   -1.2250 C   0  0  0  0  0  0  0  0  0  0  0  0
   -0.1590   -0.7500   -1.8100 C   0  0  0  0  0  0  0  0  0  0  0  0
   -1.0090   -1.5820   -0.9120 C   0  0  0  0  0  0  0  0  0  0  0  0
   -1.2730   -0.7860    0.3770 C   0  0  2  0  0  0  0  0  0  0  0  0
   -1.8330    0.5080   -0.0100 C   0  0  0  0  0  0  0  0  0  0  0  0
   -1.1520    1.5780    0.1090 O   0  0  0  0  0  0  0  0  0  0  0  0
   -3.1510    0.5640   -0.5210 N   0  0  0  0  0  0  0  0  0  0  0  0
   -3.7100    1.8660   -0.9270 C   0  0  0  0  0  0  0  0  0  0  0  0
   -4.7780    1.6240   -1.9690 C   0  0  0  0  0  0  0  0  0  0  0  0
   -5.9240    0.8010   -1.4080 C   0  0  0  0  0  0  0  0  0  0  0  0
   -5.4260   -0.0610   -0.2430 C   0  0  2  0  0  0  0  0  0  0  0  0
   -5.2810    0.6910    0.9050 O   0  0  0  0  0  0  0  0  0  0  0  0
   -4.0380   -0.5600   -0.6810 C   0  0  0  0  0  0  0  0  0  0  0  0
  1  2  1  0
  3  2  1  1
  3  4  1  0
  3 12  1  0
  4  5  1  6
  4  6  1  0
  6  7  2  0
  6 11  1  0
  7  8  1  0
  8  9  2  0
  9 10  1  0
  9 17  1  0
 10 11  2  0
 10 14  1  0
 11 12  1  0
 12 13  1  6
 14 15  1  0
 15 16  1  0
 16 17  1  0
 17 18  1  6
 18 19  2  0
 18 20  1  0
 20 21  1  0
 20 26  1  0
 21 22  1  0
 22 23  1  0
 23 24  1  0
 24 25  1  1
 24 26  1  0
M  END
