
     RDKit          3D

 23 25  0  0  0  0  0  0  0  0999 V2000
    1.9010    0.1560   -1.7880 C   0  0  0  0  0  0  0  0  0  0  0  0
    2.9290   -0.1310   -0.6930 C   0  0  0  0  0  0  0  0  0  0  0  0
    2.5780   -0.9950    0.2210 C   0  0  0  0  0  0  0  0  0  0  0  0
    1.2790   -1.6220    0.1650 N   0  0  0  0  0  0  0  0  0  0  0  0
    0.1740   -0.9950    0.7880 C   0  0  0  0  0  0  0  0  0  0  0  0
    0.3820   -0.0700    1.6500 N   0  0  0  0  0  0  0  0  0  0  0  0
   -1.1790   -1.3860    0.4670 N   0  0  0  0  0  0  0  0  0  0  0  0
   -2.1940   -0.4500    0.2110 C   0  0  0  0  0  0  0  0  0  0  0  0
   -1.9880    0.8850    0.0670 C   0  0  0  0  0  0  0  0  0  0  0  0
   -2.9720    1.7700   -0.2040 N   0  0  0  0  0  0  0  0  0  0  0  0
   -3.0240    3.1090   -0.3880 C   0  0  0  0  0  0  0  0  0  0  0  0
   -1.6050    4.1490   -0.3040 Cl  0  0  0  0  0  0  0  0  0  0  0  0
   -4.3160    3.4830   -0.6390 C   0  0  0  0  0  0  0  0  0  0  0  0
   -5.0510    2.3630   -0.6060 N   0  0  0  0  0  0  0  0  0  0  0  0
   -4.2280    1.3150   -0.3400 C   0  0  0  0  0  0  0  0  0  0  0  0
   -4.5050   -0.0360   -0.2050 C   0  0  0  0  0  0  0  0  0  0  0  0
   -3.4880   -0.9260    0.0720 C   0  0  0  0  0  0  0  0  0  0  0  0
   -3.8080   -2.3760    0.2120 C   0  0  0  0  0  0  0  0  0  0  0  0
    3.5000   -1.3440    1.2930 C   0  0  0  0  0  0  0  0  0  0  0  0
    3.0210   -2.4950    2.5090 Cl  0  0  0  0  0  0  0  0  0  0  0  0
    4.6890   -0.7870    1.3360 C   0  0  0  0  0  0  0  0  0  0  0  0
    5.1580    0.1790    0.3570 C   0  0  0  0  0  0  0  0  0  0  0  0
    4.2060    0.5520   -0.6940 C   0  0  0  0  0  0  0  0  0  0  0  0
  1  2  1  0
  2  3  2  0
  2 23  1  0
  3  4  1  0
  3 19  1  0
  4  5  1  0
  5  6  2  0
  5  7  1  0
  7  8  1  0
  8  9  2  0
  8 17  1  0
  9 10  1  0
 10 11  1  0
 10 15  1  0
 11 12  1  0
 11 13  2  0
 13 14  1  0
 14 15  2  0
 15 16  1  0
 16 17  2  0
 17 18  1  0
 19 20  1  0
 19 21  2  0
 21 22  1  0
 22 23  1  0
M  CHG  1   6   1
M  END
