
     RDKit          3D

 23 25  0  0  0  0  0  0  0  0999 V2000
   -7.0150    1.4540   -0.7880 C   0  0  0  0  0  0  0  0  0  0  0  0
   -5.7200    1.6920   -1.5070 C   0  0  0  0  0  0  0  0  0  0  0  0
   -5.1370    0.4020   -1.8710 N   0  0  0  0  0  0  0  0  0  0  0  0
   -5.1390   -0.4280   -0.7090 C   0  0  0  0  0  0  0  0  0  0  0  0
   -3.7600   -0.7540   -0.1910 C   0  0  0  0  0  0  0  0  0  0  0  0
   -2.8200    0.7030    0.2700 S   0  0  0  0  0  0  0  0  0  0  0  0
   -1.1910    0.1370    0.8710 C   0  0  2  0  0  0  0  0  0  0  0  0
   -1.2920   -0.6550    2.1610 C   0  0  0  0  0  0  0  0  0  0  0  0
   -0.6800    0.6970    2.1380 C   0  0  1  0  0  0  0  0  0  0  0  0
    0.7930    0.7520    2.3980 C   0  0  0  0  0  0  0  0  0  0  0  0
    1.3160    1.6720    3.0790 O   0  0  0  0  0  0  0  0  0  0  0  0
    1.6830   -0.2380    1.8860 N   0  0  0  0  0  0  0  0  0  0  0  0
    3.1060   -0.2430    2.1010 C   0  0  1  0  0  0  0  0  0  0  0  0
    3.4200   -1.5090    2.9130 C   0  0  0  0  0  0  0  0  0  0  0  0
    3.5790   -2.4850    1.8520 N   0  0  0  0  0  0  0  0  0  0  0  0
    4.1420   -1.7900    0.7190 C   0  0  0  0  0  0  0  0  0  0  0  0
    4.8510   -2.2230   -0.3830 C   0  0  0  0  0  0  0  0  0  0  0  0
    5.2900   -1.3420   -1.3500 C   0  0  0  0  0  0  0  0  0  0  0  0
    4.9990   -0.0010   -1.1870 C   0  0  0  0  0  0  0  0  0  0  0  0
    5.4360    0.9440   -2.1660 N   0  0  0  0  0  0  0  0  0  0  0  0
    5.1320    2.3520   -1.9980 C   0  0  0  0  0  0  0  0  0  0  0  0
    4.3070    0.3930   -0.1050 N   0  0  0  0  0  0  0  0  0  0  0  0
    3.8710   -0.4450    0.8460 C   0  0  0  0  0  0  0  0  0  0  0  0
  1  2  1  0
  2  3  1  0
  3  4  1  0
  4  5  1  0
  5  6  1  0
  7  6  1  1
  7  8  1  0
  7  9  1  0
  8  9  1  0
  9 10  1  6
 10 11  2  0
 10 12  1  0
 13 12  1  6
 13 14  1  0
 13 23  1  0
 14 15  1  0
 15 16  1  0
 16 17  2  0
 16 23  1  0
 17 18  1  0
 18 19  2  0
 19 20  1  0
 19 22  1  0
 20 21  1  0
 22 23  2  0
M  CHG  1   3   1
M  END
