
     RDKit          3D

 23 24  0  0  0  0  0  0  0  0999 V2000
   -3.2860    4.1390    1.2600 C   0  0  0  0  0  0  0  0  0  0  0  0
   -3.2540    2.9060    0.3830 C   0  0  0  0  0  0  0  0  0  0  0  0
   -2.7650    1.7310    1.2070 C   0  0  0  0  0  0  0  0  0  0  0  0
   -2.7220    0.4880    0.3650 C   0  0  0  0  0  0  0  0  0  0  0  0
   -1.5940   -0.1190    0.1750 C   0  0  0  0  0  0  0  0  0  0  0  0
   -0.3740    0.2890    0.6980 N   0  0  0  0  0  0  0  0  0  0  0  0
    0.8520   -0.4410    0.4450 C   0  0  0  0  0  0  0  0  0  0  0  0
    0.8650   -1.4750   -0.2590 O   0  0  0  0  0  0  0  0  0  0  0  0
    2.0990    0.0050    0.9990 N   0  0  0  0  0  0  0  0  0  0  0  0
    3.3450   -0.7320    0.7450 C   0  0  2  0  0  0  0  0  0  0  0  0
    3.9020   -1.2070    2.0850 C   0  0  0  0  0  0  0  0  0  0  0  0
    4.2870    0.2460    0.1140 C   0  0  0  0  0  0  0  0  0  0  0  0
    5.6050   -0.2610   -0.2370 C   0  0  0  0  0  0  0  0  0  0  0  0
    6.5720   -0.8250    0.7460 C   0  0  0  0  0  0  0  0  0  0  0  0
    5.9880   -0.2340   -1.4640 N   0  0  0  0  0  0  0  0  0  0  0  0
    5.1370    0.2760   -2.4240 N   0  0  0  0  0  0  0  0  0  0  0  0
   -1.4850   -1.6320   -0.8430 S   0  0  0  0  0  0  0  0  0  0  0  0
   -3.1490   -1.9420   -1.3640 C   0  0  0  0  0  0  0  0  0  0  0  0
   -3.6420   -2.8630   -2.0680 N   0  0  0  0  0  0  0  0  0  0  0  0
   -5.0670   -2.7600   -2.2710 C   0  0  0  0  0  0  0  0  0  0  0  0
   -5.4450   -1.5260   -1.5400 C   0  0  0  0  0  0  0  0  0  0  0  0
   -4.1600   -1.0270   -0.9480 C   0  0  0  0  0  0  0  0  0  0  0  0
   -3.9970    0.0180   -0.2060 C   0  0  0  0  0  0  0  0  0  0  0  0
  1  2  1  0
  2  3  1  0
  3  4  1  0
  4  5  2  0
  4 23  1  0
  5  6  1  0
  5 17  1  0
  6  7  1  0
  7  8  2  0
  7  9  1  0
  9 10  1  0
 10 11  1  1
 10 12  1  0
 12 13  1  0
 13 14  1  0
 13 15  2  3
 15 16  1  0
 17 18  1  0
 18 19  2  0
 18 22  1  0
 19 20  1  0
 20 21  1  0
 21 22  1  0
 22 23  2  0
M  CHG  1  19   1
M  END
