
     RDKit          3D

 13 13  0  0  0  0  0  0  0  0999 V2000
   -1.8460   -1.4290   -0.1760 N   0  0  0  0  0  0  0  0  0  0  0  0
   -0.4750   -1.1740    0.8410 S   0  0  1  0  0  0  0  0  0  0  0  0
   -0.9250   -0.4860    2.1080 O   0  0  0  0  0  0  0  0  0  0  0  0
    0.1720   -2.4570    1.2500 O   0  0  0  0  0  0  0  0  0  0  0  0
    0.7160   -0.1290    0.0080 C   0  0  0  0  0  0  0  0  0  0  0  0
    1.9760   -0.4720   -0.2860 C   0  0  0  0  0  0  0  0  0  0  0  0
    2.7800    0.4070   -0.9190 C   0  0  0  0  0  0  0  0  0  0  0  0
    4.4450    0.2620   -1.4330 Cl  0  0  0  0  0  0  0  0  0  0  0  0
    1.7350    1.8130   -1.1290 S   0  0  0  0  0  0  0  0  0  0  0  0
    0.3020    1.1350   -0.3620 C   0  0  0  0  0  0  0  0  0  0  0  0
   -0.9850    1.8140   -0.1940 C   0  0  0  0  0  0  0  0  0  0  0  0
   -1.0710    2.9820   -0.6380 O   0  0  0  0  0  0  0  0  0  0  0  0
   -2.0620    1.2170    0.4190 O   0  0  0  0  0  0  0  0  0  0  0  0
  2  1  1  6
  2  3  2  0
  2  4  2  0
  2  5  1  0
  5  6  1  0
  5 10  2  0
  6  7  2  0
  7  8  1  0
  7  9  1  0
  9 10  1  0
 10 11  1  0
 11 12  2  0
 11 13  1  0
M  END
