
     RDKit          3D

 22 24  0  0  0  0  0  0  0  0999 V2000
   -3.9680    1.3310   -0.5070 C   0  0  0  0  0  0  0  0  0  0  0  0
   -3.8430    0.0330    0.1960 C   0  0  0  0  0  0  0  0  0  0  0  0
   -4.5140   -1.0940   -0.2670 C   0  0  0  0  0  0  0  0  0  0  0  0
   -5.5160   -0.9810   -1.6920 Cl  0  0  0  0  0  0  0  0  0  0  0  0
   -4.3900   -2.2970    0.3960 C   0  0  0  0  0  0  0  0  0  0  0  0
   -3.5940   -2.3600    1.5170 C   0  0  0  0  0  0  0  0  0  0  0  0
   -2.9250   -1.2170    1.9700 C   0  0  0  0  0  0  0  0  0  0  0  0
   -1.9180   -1.3230    3.3990 Cl  0  0  0  0  0  0  0  0  0  0  0  0
   -3.0430   -0.0140    1.3160 C   0  0  0  0  0  0  0  0  0  0  0  0
   -2.3660    1.1420    1.7740 N   0  0  0  0  0  0  0  0  0  0  0  0
   -1.0530    1.4850    1.3320 C   0  0  0  0  0  0  0  0  0  0  0  0
   -0.2050    0.6710    0.8420 N   0  0  0  0  0  0  0  0  0  0  0  0
    1.0180    1.3120    0.4950 C   0  0  0  0  0  0  0  0  0  0  0  0
    2.1890    0.6540   -0.0890 C   0  0  0  0  0  0  0  0  0  0  0  0
    2.3250   -0.6460   -0.3980 N   0  0  0  0  0  0  0  0  0  0  0  0
    3.5310   -0.8880   -0.9140 C   0  0  0  0  0  0  0  0  0  0  0  0
    4.0990   -2.1730   -1.3880 C   0  0  0  0  0  0  0  0  0  0  0  0
    5.4390   -2.0170   -1.8760 N   0  0  0  0  0  0  0  0  0  0  0  0
    4.2020    0.3270   -0.9340 C   0  0  0  0  0  0  0  0  0  0  0  0
    3.3520    1.2330   -0.4250 N   0  0  0  0  0  0  0  0  0  0  0  0
    0.8900    2.5930    0.7980 C   0  0  0  0  0  0  0  0  0  0  0  0
   -0.4620    2.8280    1.3690 C   0  0  0  0  0  0  0  0  0  0  0  0
  1  2  1  0
  2  3  2  0
  2  9  1  0
  3  4  1  0
  3  5  1  0
  5  6  2  0
  6  7  1  0
  7  8  1  0
  7  9  2  0
  9 10  1  0
 10 11  1  0
 11 12  2  0
 11 22  1  0
 12 13  1  0
 13 14  1  0
 13 21  2  0
 14 15  2  0
 14 20  1  0
 15 16  1  0
 16 17  1  0
 16 19  2  0
 17 18  1  0
 19 20  1  0
 21 22  1  0
M  CHG  1  18   1
M  END
