
     RDKit          3D

 22 24  0  0  0  0  0  0  0  0999 V2000
   -4.2210    0.7790    0.1390 N   0  0  0  0  0  0  0  0  0  0  0  0
   -3.3140   -0.3520    0.1590 C   0  0  1  0  0  0  0  0  0  0  0  0
   -3.7960   -1.2960   -0.9250 C   0  0  0  0  0  0  0  0  0  0  0  0
   -3.4130   -0.4690   -2.0830 N   0  0  0  0  0  0  0  0  0  0  0  0
   -2.1300    0.0190   -1.7260 C   0  0  0  0  0  0  0  0  0  0  0  0
   -2.0220    0.1060   -0.3900 C   0  0  0  0  0  0  0  0  0  0  0  0
   -0.8600    0.5530    0.3180 N   0  0  0  0  0  0  0  0  0  0  0  0
   -0.9790    1.5620    1.3250 C   0  0  0  0  0  0  0  0  0  0  0  0
   -1.6940    1.1610    2.5700 C   0  0  0  0  0  0  0  0  0  0  0  0
   -0.8880   -0.2110    3.3760 Cl  0  0  0  0  0  0  0  0  0  0  0  0
    0.4100    0.0130    0.0390 C   0  0  0  0  0  0  0  0  0  0  0  0
    1.3750    0.8470   -0.0010 N   0  0  0  0  0  0  0  0  0  0  0  0
    2.7830    0.6370   -0.2560 C   0  0  0  0  0  0  0  0  0  0  0  0
    3.4900    1.7840   -0.5030 C   0  0  0  0  0  0  0  0  0  0  0  0
    4.8560    1.7590   -0.7670 C   0  0  0  0  0  0  0  0  0  0  0  0
    5.5310    0.5570   -0.7860 C   0  0  0  0  0  0  0  0  0  0  0  0
    7.2490    0.5240   -1.1180 Cl  0  0  0  0  0  0  0  0  0  0  0  0
    4.8160   -0.6080   -0.5360 C   0  0  0  0  0  0  0  0  0  0  0  0
    3.4570   -0.5640   -0.2740 C   0  0  0  0  0  0  0  0  0  0  0  0
    2.8680   -1.8500   -0.0370 N   0  0  0  0  0  0  0  0  0  0  0  0
    1.5680   -2.1420    0.5390 C   0  0  0  0  0  0  0  0  0  0  0  0
    0.4350   -1.4400   -0.1680 C   0  0  0  0  0  0  0  0  0  0  0  0
  2  1  1  6
  2  3  1  0
  2  6  1  0
  3  4  1  0
  4  5  1  0
  5  6  2  0
  6  7  1  0
  7  8  1  0
  7 11  1  0
  8  9  1  0
  9 10  1  0
 11 12  2  0
 11 22  1  0
 12 13  1  0
 13 14  2  0
 13 19  1  0
 14 15  1  0
 15 16  2  0
 16 17  1  0
 16 18  1  0
 18 19  2  0
 19 20  1  0
 20 21  1  0
 21 22  1  0
M  CHG  1   1   1
M  END
