
     RDKit          3D

 23 25  0  0  0  0  0  0  0  0999 V2000
   -5.4580    0.6240   -0.3980 C   0  0  0  0  0  0  0  0  0  0  0  0
   -5.0120   -0.5930    0.3640 C   0  0  0  0  0  0  0  0  0  0  0  0
   -3.7060   -1.0750   -0.0840 N   0  0  0  0  0  0  0  0  0  0  0  0
   -2.6490   -0.1890    0.2980 C   0  0  1  0  0  0  0  0  0  0  0  0
   -1.5110   -0.8800    1.0140 C   0  0  0  0  0  0  0  0  0  0  0  0
   -0.7290   -1.8010    0.1390 C   0  0  0  0  0  0  0  0  0  0  0  0
    0.4780   -1.1370   -0.4880 C   0  0  0  0  0  0  0  0  0  0  0  0
    0.3680    0.3350   -0.3140 C   0  0  0  0  0  0  0  0  0  0  0  0
    1.4080    1.1630    0.0510 C   0  0  0  0  0  0  0  0  0  0  0  0
    2.7650    0.7020    0.3170 C   0  0  0  0  0  0  0  0  0  0  0  0
    3.1220    0.3280    1.5960 C   0  0  0  0  0  0  0  0  0  0  0  0
    2.2200    0.3700    2.6870 N   0  0  0  0  0  0  0  0  0  0  0  0
    4.3800   -0.1060    1.8720 N   0  0  0  0  0  0  0  0  0  0  0  0
    5.3220   -0.1830    0.8920 C   0  0  0  0  0  0  0  0  0  0  0  0
    6.9440   -0.7380    1.2250 Cl  0  0  0  0  0  0  0  0  0  0  0  0
    5.0130    0.1800   -0.4060 C   0  0  0  0  0  0  0  0  0  0  0  0
    6.0600    0.0860   -1.4560 C   0  0  0  0  0  0  0  0  0  0  0  0
    3.7390    0.6140   -0.6560 C   0  0  0  0  0  0  0  0  0  0  0  0
    3.3220    1.0790   -2.2900 Cl  0  0  0  0  0  0  0  0  0  0  0  0
    0.8950    2.4030    0.0950 N   0  0  0  0  0  0  0  0  0  0  0  0
   -0.4020    2.3710   -0.2230 N   0  0  0  0  0  0  0  0  0  0  0  0
   -0.7730    1.1050   -0.4860 C   0  0  0  0  0  0  0  0  0  0  0  0
   -2.1290    0.6410   -0.8770 C   0  0  0  0  0  0  0  0  0  0  0  0
  1  2  1  0
  2  3  1  0
  4  3  1  6
  4  5  1  0
  4 23  1  0
  5  6  1  0
  6  7  1  0
  7  8  1  0
  8  9  1  0
  8 22  2  0
  9 10  1  0
  9 20  2  0
 10 11  2  0
 10 18  1  0
 11 12  1  0
 11 13  1  0
 13 14  2  0
 14 15  1  0
 14 16  1  0
 16 17  1  0
 16 18  2  0
 18 19  1  0
 20 21  1  0
 21 22  1  0
 22 23  1  0
M  CHG  1   3   1
M  END
