
     RDKit          3D

 18 19  0  0  0  0  0  0  0  0999 V2000
   -4.6800    1.3850    0.4040 C   0  0  0  0  0  0  0  0  0  0  0  0
   -3.5500    0.5950    0.9860 C   0  0  0  0  0  0  0  0  0  0  0  0
   -3.5480    0.2060    2.2300 O   0  0  0  0  0  0  0  0  0  0  0  0
   -2.5770   -0.4930    2.7910 C   0  0  0  0  0  0  0  0  0  0  0  0
   -2.6410   -0.8380    4.0060 O   0  0  0  0  0  0  0  0  0  0  0  0
   -1.4890   -0.8360    2.0060 C   0  0  0  0  0  0  0  0  0  0  0  0
   -1.4490   -0.4440    0.6870 C   0  0  0  0  0  0  0  0  0  0  0  0
   -0.3640   -0.7730   -0.1540 C   0  0  0  0  0  0  0  0  0  0  0  0
    0.7190   -1.5550    0.4390 C   0  0  0  0  0  0  0  0  0  0  0  0
    1.9920   -1.6530   -0.3210 C   0  0  0  0  0  0  0  0  0  0  0  0
    2.7180   -0.3710   -0.5450 C   0  0  0  0  0  0  0  0  0  0  0  0
    3.0480    0.2550    0.8060 C   0  0  0  0  0  0  0  0  0  0  0  0
    3.8140    1.5480    0.5660 C   0  0  0  0  0  0  0  0  0  0  0  0
    4.9990    1.2250   -0.1130 O   0  0  0  0  0  0  0  0  0  0  0  0
   -0.4040   -0.3490   -1.4650 C   0  0  0  0  0  0  0  0  0  0  0  0
   -1.4520    0.3790   -1.9880 C   0  0  0  0  0  0  0  0  0  0  0  0
   -2.5050    0.7000   -1.1760 C   0  0  0  0  0  0  0  0  0  0  0  0
   -2.4960    0.2860    0.1590 C   0  0  0  0  0  0  0  0  0  0  0  0
  1  2  1  0
  2  3  1  0
  2 18  2  0
  3  4  1  0
  4  5  2  0
  4  6  1  0
  6  7  2  0
  7  8  1  0
  7 18  1  0
  8  9  1  0
  8 15  2  0
  9 10  1  0
 10 11  1  0
 11 12  1  0
 12 13  1  0
 13 14  1  0
 15 16  1  0
 16 17  2  0
 17 18  1  0
M  END
