
     RDKit          3D

 18 19  0  0  0  0  0  0  0  0999 V2000
   -2.6300    2.2640    2.4680 C   0  0  0  0  0  0  0  0  0  0  0  0
   -1.9490    1.6230    1.4440 O   0  0  0  0  0  0  0  0  0  0  0  0
   -2.4660    0.6920    0.5590 C   0  0  0  0  0  0  0  0  0  0  0  0
   -3.7730    0.2770    0.5960 C   0  0  0  0  0  0  0  0  0  0  0  0
   -4.2580   -0.6560   -0.3030 C   0  0  0  0  0  0  0  0  0  0  0  0
   -3.4670   -1.2180   -1.2780 C   0  0  0  0  0  0  0  0  0  0  0  0
   -3.9220   -2.1560   -2.1950 O   0  0  0  0  0  0  0  0  0  0  0  0
   -2.1360   -0.7970   -1.3190 C   0  0  0  0  0  0  0  0  0  0  0  0
   -1.6410    0.1290   -0.4290 C   0  0  0  0  0  0  0  0  0  0  0  0
   -0.2650    0.6660   -0.4490 C   0  0  0  0  0  0  0  0  0  0  0  0
    0.5300    0.0130   -1.3410 O   0  0  0  0  0  0  0  0  0  0  0  0
    0.8730   -1.2550   -0.9890 C   0  0  0  0  0  0  0  0  0  0  0  0
    1.7290   -1.3190    0.2750 C   0  0  0  0  0  0  0  0  0  0  0  0
    2.9950   -0.5630    0.1290 C   0  0  0  0  0  0  0  0  0  0  0  0
    3.3610    0.4600    0.8810 C   0  0  0  0  0  0  0  0  0  0  0  0
    4.6800    0.9310    0.4170 C   0  0  0  0  0  0  0  0  0  0  0  0
    5.0090    0.0290   -0.7050 C   0  0  0  0  0  0  0  0  0  0  0  0
    4.0170   -0.8340   -0.8590 C   0  0  0  0  0  0  0  0  0  0  0  0
  1  2  1  0
  2  3  1  0
  3  4  2  0
  3  9  1  0
  4  5  1  0
  5  6  2  0
  6  7  1  0
  6  8  1  0
  8  9  2  0
  9 10  1  0
 10 11  1  0
 11 12  1  0
 12 13  1  0
 13 14  1  0
 14 15  2  0
 14 18  1  0
 15 16  1  0
 16 17  1  0
 17 18  2  0
M  END
