
     RDKit          3D

 17 18  0  0  0  0  0  0  0  0999 V2000
    4.0940   -0.5000   -0.8550 C   0  0  0  0  0  0  0  0  0  0  0  0
    2.9960    0.0900    0.0000 C   0  0  2  0  0  0  0  0  0  0  0  0
    2.2740   -0.8860    0.8800 C   0  0  0  0  0  0  0  0  0  0  0  0
    1.6120   -1.9760    0.1100 C   0  0  0  0  0  0  0  0  0  0  0  0
    0.5790   -1.5510   -0.8740 C   0  0  0  0  0  0  0  0  0  0  0  0
   -0.5630   -0.8330   -0.2470 C   0  0  0  0  0  0  0  0  0  0  0  0
   -0.6400   -0.6240    0.9930 O   0  0  0  0  0  0  0  0  0  0  0  0
   -1.6210   -0.3490   -1.0170 O   0  0  0  0  0  0  0  0  0  0  0  0
   -2.6690    0.3160   -0.4000 C   0  0  0  0  0  0  0  0  0  0  0  0
   -2.6210    1.6830   -0.2300 C   0  0  0  0  0  0  0  0  0  0  0  0
   -3.6630    2.3650    0.3860 C   0  0  0  0  0  0  0  0  0  0  0  0
   -4.7560    1.6510    0.8270 C   0  0  0  0  0  0  0  0  0  0  0  0
   -4.8290    0.2840    0.6690 C   0  0  0  0  0  0  0  0  0  0  0  0
   -3.7780   -0.3640    0.0540 C   0  0  0  0  0  0  0  0  0  0  0  0
   -3.8570   -1.7570   -0.1050 O   0  0  0  0  0  0  0  0  0  0  0  0
    2.2020    1.2710   -0.4910 C   0  0  0  0  0  0  0  0  0  0  0  0
    3.2900    1.4550    0.5100 C   0  0  0  0  0  0  0  0  0  0  0  0
  2  1  1  6
  2  3  1  0
  2 16  1  0
  2 17  1  0
  3  4  1  0
  4  5  1  0
  5  6  1  0
  6  7  2  0
  6  8  1  0
  8  9  1  0
  9 10  2  0
  9 14  1  0
 10 11  1  0
 11 12  2  0
 12 13  1  0
 13 14  2  0
 14 15  1  0
 16 17  1  0
M  END
