
     RDKit          3D

 18 19  0  0  0  0  0  0  0  0999 V2000
    5.8150   -0.1210   -0.3810 C   0  0  0  0  0  0  0  0  0  0  0  0
    5.4210    0.1450    1.0170 C   0  0  0  0  0  0  0  0  0  0  0  0
    4.1520    0.2140    1.3520 C   0  0  0  0  0  0  0  0  0  0  0  0
    3.0680    0.0400    0.3970 C   0  0  0  0  0  0  0  0  0  0  0  0
    3.3140   -0.1880   -0.8020 O   0  0  0  0  0  0  0  0  0  0  0  0
    1.6780    0.1380    0.8800 C   0  0  0  0  0  0  0  0  0  0  0  0
    0.8120   -0.0650   -0.2170 O   0  0  0  0  0  0  0  0  0  0  0  0
   -0.5620   -0.0220   -0.0250 C   0  0  0  0  0  0  0  0  0  0  0  0
   -1.1080    0.2170    1.2250 C   0  0  0  0  0  0  0  0  0  0  0  0
   -2.4690    0.2630    1.4370 C   0  0  0  0  0  0  0  0  0  0  0  0
   -3.3240    0.0680    0.3760 C   0  0  0  0  0  0  0  0  0  0  0  0
   -4.6880    0.1180    0.6060 C   0  0  0  0  0  0  0  0  0  0  0  0
   -5.5140   -0.0820   -0.4790 C   0  0  0  0  0  0  0  0  0  0  0  0
   -4.9990   -0.3220   -1.7390 C   0  0  0  0  0  0  0  0  0  0  0  0
   -3.6390   -0.3640   -1.9240 C   0  0  0  0  0  0  0  0  0  0  0  0
   -2.7810   -0.1700   -0.8740 C   0  0  0  0  0  0  0  0  0  0  0  0
   -1.4140   -0.2180   -1.0920 C   0  0  0  0  0  0  0  0  0  0  0  0
   -0.9160   -0.4600   -2.3640 O   0  0  0  0  0  0  0  0  0  0  0  0
  1  2  1  0
  2  3  2  3
  3  4  1  0
  4  5  2  0
  4  6  1  0
  6  7  1  0
  7  8  1  0
  8  9  2  0
  8 17  1  0
  9 10  1  0
 10 11  2  0
 11 12  1  0
 11 16  1  0
 12 13  2  0
 13 14  1  0
 14 15  2  0
 15 16  1  0
 16 17  2  0
 17 18  1  0
M  END
