
     RDKit          3D

 17 16  0  0  0  0  0  0  0  0999 V2000
    6.6600    0.0890   -0.0540 C   0  0  0  0  0  0  0  0  0  0  0  0
    5.5800   -0.8390   -0.2100 O   0  0  0  0  0  0  0  0  0  0  0  0
    4.2890   -0.4920    0.2240 C   0  0  0  0  0  0  0  0  0  0  0  0
    4.1090    0.6240    0.7400 O   0  0  0  0  0  0  0  0  0  0  0  0
    3.2300   -1.4100    0.0680 N   0  0  0  0  0  0  0  0  0  0  0  0
    1.8940   -1.1060    0.4940 C   0  0  0  0  0  0  0  0  0  0  0  0
    1.3390    0.1170   -0.2180 C   0  0  1  0  0  0  0  0  0  0  0  0
    1.3470   -0.1880   -1.5850 O   0  0  0  0  0  0  0  0  0  0  0  0
   -0.0510    0.3590    0.2440 C   0  0  0  0  0  0  0  0  0  0  0  0
   -0.2480    0.6460    1.4440 O   0  0  0  0  0  0  0  0  0  0  0  0
   -1.1050    0.2680   -0.6380 O   0  0  0  0  0  0  0  0  0  0  0  0
   -2.4410    0.4980   -0.2030 C   0  0  2  0  0  0  0  0  0  0  0  0
   -3.2510   -0.7770   -0.3830 C   0  0  0  0  0  0  0  0  0  0  0  0
   -2.6240   -1.8190    0.4160 N   0  0  0  0  0  0  0  0  0  0  0  0
   -3.0550    1.6700   -0.9180 C   0  0  0  0  0  0  0  0  0  0  0  0
   -4.4660    1.9350   -0.4760 C   0  0  0  0  0  0  0  0  0  0  0  0
   -4.5100    2.2110    0.9040 O   0  0  0  0  0  0  0  0  0  0  0  0
  1  2  1  0
  2  3  1  0
  3  4  2  0
  3  5  1  0
  5  6  1  0
  6  7  1  0
  7  8  1  6
  7  9  1  0
  9 10  2  0
  9 11  1  0
 11 12  1  0
 12 13  1  6
 12 15  1  0
 13 14  1  0
 15 16  1  0
 16 17  1  0
M  CHG  1  14   1
M  END
