
     RDKit          3D

 17 16  0  0  0  0  0  0  0  0999 V2000
   -1.3550    3.2300    0.9860 C   0  0  0  0  0  0  0  0  0  0  0  0
   -1.0430    2.1750    0.1170 O   0  0  0  0  0  0  0  0  0  0  0  0
   -1.9350    1.1410    0.2800 C   0  0  0  0  0  0  0  0  0  0  0  0
   -1.6170    0.0070   -0.6410 C   0  0  1  0  0  0  0  0  0  0  0  0
   -1.6660    0.4800   -1.9550 O   0  0  0  0  0  0  0  0  0  0  0  0
   -0.3500   -0.6650   -0.2970 C   0  0  0  0  0  0  0  0  0  0  0  0
    0.8460    0.1370   -0.4410 N   0  0  0  0  0  0  0  0  0  0  0  0
    2.1410   -0.3460   -0.1460 C   0  0  0  0  0  0  0  0  0  0  0  0
    2.2230   -1.5450    0.2620 O   0  0  0  0  0  0  0  0  0  0  0  0
    3.3000    0.3660   -0.2640 O   0  0  0  0  0  0  0  0  0  0  0  0
    4.5840   -0.1710    0.0480 C   0  0  0  0  0  0  0  0  0  0  0  0
    5.6590    0.8460   -0.1800 C   0  0  0  0  0  0  0  0  0  0  0  0
    5.4520    1.9620    0.6170 O   0  0  0  0  0  0  0  0  0  0  0  0
   -2.7410   -1.0180   -0.4830 C   0  0  2  0  0  0  0  0  0  0  0  0
   -2.7800   -1.5800    0.8340 N   0  0  0  0  0  0  0  0  0  0  0  0
   -2.6710   -2.1250   -1.4900 C   0  0  0  0  0  0  0  0  0  0  0  0
   -3.8420   -2.8950   -1.2930 O   0  0  0  0  0  0  0  0  0  0  0  0
  1  2  1  0
  2  3  1  0
  3  4  1  0
  4  5  1  6
  4  6  1  0
  4 14  1  0
  6  7  1  0
  7  8  1  0
  8  9  2  0
  8 10  1  0
 10 11  1  0
 11 12  1  0
 12 13  1  0
 14 15  1  1
 14 16  1  0
 16 17  1  0
M  CHG  1  15   1
M  END
