
     RDKit          3D

 16 16  0  0  0  0  0  0  0  0999 V2000
   -2.4360   -1.6700   -1.0730 N   0  0  0  0  0  0  0  0  0  0  0  0
   -2.2050   -0.2590   -1.0910 C   0  0  2  0  0  0  0  0  0  0  0  0
   -0.7740   -0.0280   -0.7090 C   0  0  0  0  0  0  0  0  0  0  0  0
    0.0030   -0.9950   -0.4370 O   0  0  0  0  0  0  0  0  0  0  0  0
   -0.2310    1.2370   -0.6330 O   0  0  0  0  0  0  0  0  0  0  0  0
    1.0870    1.5530   -0.2860 C   0  0  0  0  0  0  0  0  0  0  0  0
    1.4550    1.0780    1.1000 C   0  0  0  0  0  0  0  0  0  0  0  0
    2.7470    1.3870    1.4440 O   0  0  0  0  0  0  0  0  0  0  0  0
    3.7160    0.8560    0.6330 C   0  0  0  0  0  0  0  0  0  0  0  0
    3.6910   -0.6560    0.5920 C   0  0  0  0  0  0  0  0  0  0  0  0
    4.7460   -1.1190   -0.2850 N   0  0  0  0  0  0  0  0  0  0  0  0
   -3.1330    0.5190   -0.1890 C   0  0  2  0  0  0  0  0  0  0  0  0
   -3.0440    0.1090    1.2480 C   0  0  0  0  0  0  0  0  0  0  0  0
   -4.4090    0.0960    1.6180 O   0  0  0  0  0  0  0  0  0  0  0  0
   -5.0260   -0.3660    0.4600 C   0  0  0  0  0  0  0  0  0  0  0  0
   -4.4370    0.3190   -0.5730 O   0  0  0  0  0  0  0  0  0  0  0  0
  2  1  1  1
  2  3  1  0
  2 12  1  0
  3  4  2  0
  3  5  1  0
  5  6  1  0
  6  7  1  0
  7  8  1  0
  8  9  1  0
  9 10  1  0
 10 11  1  0
 12 13  1  1
 12 16  1  0
 13 14  1  0
 14 15  1  0
 15 16  1  0
M  CHG  1  11   1
M  END
