
     RDKit          3D

 16 15  0  0  0  0  0  0  0  0999 V2000
    4.2140    0.5320    2.3080 C   0  0  0  0  0  0  0  0  0  0  0  0
    3.2880    0.1720    1.2940 O   0  0  0  0  0  0  0  0  0  0  0  0
    3.4720   -0.9160    0.4600 C   0  0  0  0  0  0  0  0  0  0  0  0
    4.5070   -1.6060    0.6170 O   0  0  0  0  0  0  0  0  0  0  0  0
    2.5240   -1.3090   -0.6010 C   0  0  0  0  0  0  0  0  0  0  0  0
    1.4030   -0.4290   -0.6540 O   0  0  0  0  0  0  0  0  0  0  0  0
    0.3750   -0.5930   -1.5690 C   0  0  0  0  0  0  0  0  0  0  0  0
    0.4920   -1.5740   -2.3580 O   0  0  0  0  0  0  0  0  0  0  0  0
   -0.7950    0.2820   -1.6630 C   0  0  1  0  0  0  0  0  0  0  0  0
   -1.6690   -0.1670   -2.7300 N   0  0  0  0  0  0  0  0  0  0  0  0
   -1.6320    0.3350   -0.4070 C   0  0  2  0  0  0  0  0  0  0  0  0
   -0.8380    0.8400    0.7780 C   0  0  0  0  0  0  0  0  0  0  0  0
   -0.3550    2.1950    0.4520 N   0  0  0  0  0  0  0  0  0  0  0  0
   -2.3230   -0.9820   -0.1420 C   0  0  0  0  0  0  0  0  0  0  0  0
   -3.1380   -0.8520    1.1240 C   0  0  0  0  0  0  0  0  0  0  0  0
   -4.0920    0.1550    1.0170 O   0  0  0  0  0  0  0  0  0  0  0  0
  1  2  1  0
  2  3  1  0
  3  4  2  0
  3  5  1  0
  5  6  1  0
  6  7  1  0
  7  8  2  0
  7  9  1  0
  9 10  1  6
  9 11  1  0
 11 12  1  1
 11 14  1  0
 12 13  1  0
 14 15  1  0
 15 16  1  0
M  CHG  1  13   1
M  END
