
     RDKit          3D

 17 16  0  0  0  0  0  0  0  0999 V2000
    5.6090   -0.6210   -1.5590 C   0  0  0  0  0  0  0  0  0  0  0  0
    4.8050    0.2800   -0.8280 O   0  0  0  0  0  0  0  0  0  0  0  0
    3.6590   -0.1800   -0.1760 C   0  0  0  0  0  0  0  0  0  0  0  0
    3.3510   -1.4050   -0.2470 O   0  0  0  0  0  0  0  0  0  0  0  0
    2.8540    0.7370    0.5600 N   0  0  0  0  0  0  0  0  0  0  0  0
    1.6720    0.2710    1.2350 C   0  0  1  0  0  0  0  0  0  0  0  0
    1.6840    0.5780    2.7010 C   0  0  0  0  0  0  0  0  0  0  0  0
    0.4350    0.9010    0.6530 C   0  0  0  0  0  0  0  0  0  0  0  0
    0.4710    1.7090   -0.2800 O   0  0  0  0  0  0  0  0  0  0  0  0
   -0.7590    0.5480    1.2000 O   0  0  0  0  0  0  0  0  0  0  0  0
   -2.0440    0.8910    0.9150 C   0  0  0  0  0  0  0  0  0  0  0  0
   -2.7210    0.3130   -0.2830 C   0  0  2  0  0  0  0  0  0  0  0  0
   -3.9880    0.9690   -0.3170 O   0  0  0  0  0  0  0  0  0  0  0  0
   -3.0510   -1.1320    0.0610 C   0  0  0  0  0  0  0  0  0  0  0  0
   -3.9050   -1.7570   -0.8940 N   0  0  0  0  0  0  0  0  0  0  0  0
   -2.1060    0.4790   -1.5930 C   0  0  0  0  0  0  0  0  0  0  0  0
   -0.9330   -0.1880   -1.8500 O   0  0  0  0  0  0  0  0  0  0  0  0
  1  2  1  0
  2  3  1  0
  3  4  2  0
  3  5  1  0
  5  6  1  0
  6  7  1  1
  6  8  1  0
  8  9  2  0
  8 10  1  0
 10 11  1  0
 11 12  1  0
 12 13  1  6
 12 14  1  0
 12 16  1  0
 14 15  1  0
 16 17  1  0
M  CHG  1  15   1
M  END
