
     RDKit          3D

 14 15  0  0  0  0  0  0  0  0999 V2000
   -4.3170    1.5990    0.6160 O   0  0  0  0  0  0  0  0  0  0  0  0
   -3.3120    0.8510    0.4650 C   0  0  0  0  0  0  0  0  0  0  0  0
   -3.2030   -0.0740   -0.7200 C   0  0  0  0  0  0  0  0  0  0  0  0
   -1.8360    0.1430   -1.3060 C   0  0  0  0  0  0  0  0  0  0  0  0
   -0.7300   -0.1540   -0.2970 C   0  0  2  0  0  0  0  0  0  0  0  0
   -0.9210    0.5750    0.9920 C   0  0  0  0  0  0  0  0  0  0  0  0
   -2.2480    0.8090    1.3430 O   0  0  0  0  0  0  0  0  0  0  0  0
    0.5430    0.4120   -0.9450 C   0  0  0  0  0  0  0  0  0  0  0  0
    1.6910    0.0480   -0.0340 C   0  0  2  0  0  0  0  0  0  0  0  0
    2.9790    0.6780   -0.5030 C   0  0  0  0  0  0  0  0  0  0  0  0
    2.7680    2.0730   -0.4880 O   0  0  0  0  0  0  0  0  0  0  0  0
    1.7720   -1.4550    0.0080 C   0  0  0  0  0  0  0  0  0  0  0  0
    0.4490   -1.9780    0.5070 C   0  0  0  0  0  0  0  0  0  0  0  0
   -0.6360   -1.5110   -0.1790 O   0  0  0  0  0  0  0  0  0  0  0  0
  1  2  2  0
  2  3  1  0
  2  7  1  0
  3  4  1  0
  5  4  1  6
  5  6  1  0
  5  8  1  0
  5 14  1  0
  6  7  1  0
  8  9  1  0
  9 10  1  6
  9 12  1  0
 10 11  1  0
 12 13  1  0
 13 14  1  0
M  END
