
     RDKit          3D

 14 15  0  0  0  0  0  0  0  0999 V2000
    0.5930    1.3320   -2.3370 O   0  0  0  0  0  0  0  0  0  0  0  0
    0.9780    0.5870   -1.3880 C   0  0  0  0  0  0  0  0  0  0  0  0
    2.3180    0.2040   -1.1770 O   0  0  0  0  0  0  0  0  0  0  0  0
    2.3900   -0.6120   -0.0520 C   0  0  1  0  0  0  0  0  0  0  0  0
    3.2940   -0.0080    1.0070 C   0  0  0  0  0  0  0  0  0  0  0  0
    4.5770    0.1700    0.5530 O   0  0  0  0  0  0  0  0  0  0  0  0
    1.0090   -0.7400    0.4600 C   0  0  0  0  0  0  0  0  0  0  0  0
    0.2090   -0.0390   -0.3270 C   0  0  0  0  0  0  0  0  0  0  0  0
   -1.2340    0.0710   -0.1320 C   0  0  0  0  0  0  0  0  0  0  0  0
   -2.0240    0.7670   -0.9140 C   0  0  0  0  0  0  0  0  0  0  0  0
   -3.4760    0.8760   -0.7160 C   0  0  0  0  0  0  0  0  0  0  0  0
   -3.9390    0.1650    0.3910 O   0  0  0  0  0  0  0  0  0  0  0  0
   -3.1420   -0.5750    1.2320 C   0  0  0  0  0  0  0  0  0  0  0  0
   -1.8490   -0.6310    0.9980 C   0  0  0  0  0  0  0  0  0  0  0  0
  1  2  2  0
  2  3  1  0
  2  8  1  0
  3  4  1  0
  4  5  1  1
  4  7  1  0
  5  6  1  0
  7  8  2  0
  8  9  1  0
  9 10  2  0
  9 14  1  0
 10 11  1  0
 11 12  1  0
 12 13  1  0
 13 14  2  0
M  END
