
     RDKit          3D

 14 15  0  0  0  0  0  0  0  0999 V2000
    3.3660    1.9470   -0.3670 C   0  0  0  0  0  0  0  0  0  0  0  0
    2.0810    1.6970   -0.1800 C   0  0  0  0  0  0  0  0  0  0  0  0
    1.5600    0.3230   -0.1900 C   0  0  0  0  0  0  0  0  0  0  0  0
    0.2140    0.0860    0.0080 O   0  0  0  0  0  0  0  0  0  0  0  0
   -0.2020   -0.9190    0.9120 C   0  0  0  0  0  0  0  0  0  0  0  0
   -1.7280   -0.9990    0.9660 C   0  0  2  0  0  0  0  0  0  0  0  0
   -2.1760   -1.4670   -0.3990 C   0  0  0  0  0  0  0  0  0  0  0  0
   -1.9540   -0.3900   -1.2740 O   0  0  0  0  0  0  0  0  0  0  0  0
   -2.8850    0.5810   -0.9350 C   0  0  0  0  0  0  0  0  0  0  0  0
   -2.9420    0.9280    0.4930 C   0  0  0  0  0  0  0  0  0  0  0  0
   -2.2550    0.1770    1.3700 O   0  0  0  0  0  0  0  0  0  0  0  0
    2.4360   -0.6360   -0.3950 C   0  0  0  0  0  0  0  0  0  0  0  0
    3.8800   -0.4320   -0.6100 C   0  0  0  0  0  0  0  0  0  0  0  0
    4.2680    0.9180   -0.5810 O   0  0  0  0  0  0  0  0  0  0  0  0
  1  2  2  0
  1 14  1  0
  2  3  1  0
  3  4  1  0
  3 12  2  0
  4  5  1  0
  6  5  1  6
  6  7  1  0
  6 11  1  0
  7  8  1  0
  8  9  1  0
  9 10  1  0
 10 11  1  0
 12 13  1  0
 13 14  1  0
M  END
