
     RDKit          3D

 14 15  0  0  0  0  0  0  0  0999 V2000
   -0.4480   -0.8010    1.9040 C   0  0  0  0  0  0  0  0  0  0  0  0
   -0.9590   -0.3300    0.5970 C   0  0  1  0  0  0  0  0  0  0  0  0
   -1.8570   -1.4280    0.0210 C   0  0  0  0  0  0  0  0  0  0  0  0
   -1.7380    0.8020    0.7070 O   0  0  0  0  0  0  0  0  0  0  0  0
   -2.3270    1.1910   -0.4640 C   0  0  0  0  0  0  0  0  0  0  0  0
   -1.6350    0.8460   -1.7090 C   0  0  0  0  0  0  0  0  0  0  0  0
   -0.6050   -0.0340   -1.6580 O   0  0  0  0  0  0  0  0  0  0  0  0
    0.0970   -0.0310   -0.4300 C   0  0  1  0  0  0  0  0  0  0  0  0
    0.6900    1.3360   -0.2790 C   0  0  0  0  0  0  0  0  0  0  0  0
    1.9050    1.3940    0.5740 C   0  0  0  0  0  0  0  0  0  0  0  0
    2.2580    0.2110    1.1640 O   0  0  0  0  0  0  0  0  0  0  0  0
    2.3490   -0.8570    0.3200 C   0  0  2  0  0  0  0  0  0  0  0  0
    3.5300   -0.6890   -0.4400 O   0  0  0  0  0  0  0  0  0  0  0  0
    1.1480   -1.0780   -0.5510 C   0  0  0  0  0  0  0  0  0  0  0  0
  2  1  1  1
  2  3  1  0
  2  4  1  0
  2  8  1  0
  4  5  1  0
  5  6  1  0
  6  7  1  0
  7  8  1  0
  8  9  1  1
  8 14  1  0
  9 10  1  0
 10 11  1  0
 11 12  1  0
 12 13  1  6
 12 14  1  0
M  END
