
     RDKit          3D

  9  8  0  0  0  0  0  0  0  0999 V2000
   -0.7760   -1.5830    0.0640 N   0  0  0  0  0  0  0  0  0  0  0  0
    0.0550   -0.4210    0.3310 C   0  0  2  0  0  0  0  0  0  0  0  0
   -0.6610    0.7810   -0.1980 C   0  0  0  0  0  0  0  0  0  0  0  0
   -2.0070    0.9580    0.4740 C   0  0  0  0  0  0  0  0  0  0  0  0
   -2.8570   -0.1160    0.2900 O   0  0  0  0  0  0  0  0  0  0  0  0
    1.3760   -0.6230   -0.3590 C   0  0  1  0  0  0  0  0  0  0  0  0
    1.2190   -0.7610   -1.7270 O   0  0  0  0  0  0  0  0  0  0  0  0
    2.4150    0.3990   -0.0300 C   0  0  0  0  0  0  0  0  0  0  0  0
    2.1720    1.6660   -0.4950 O   0  0  0  0  0  0  0  0  0  0  0  0
  2  1  1  6
  2  3  1  0
  2  6  1  0
  3  4  1  0
  4  5  1  0
  6  7  1  6
  6  8  1  0
  8  9  1  0
M  CHG  1   1   1
M  END
