
     RDKit          3D

  9  9  0  0  0  0  0  0  0  0999 V2000
   -2.0220   -0.8750   -0.2900 N   0  0  0  0  0  0  0  0  0  0  0  0
   -1.0020   -0.0440    0.3450 C   0  0  1  0  0  0  0  0  0  0  0  0
   -0.0480   -0.9680    1.0450 C   0  0  0  0  0  0  0  0  0  0  0  0
    1.0390   -1.2520    0.2110 O   0  0  0  0  0  0  0  0  0  0  0  0
    1.8150   -0.0990    0.1680 C   0  0  1  0  0  0  0  0  0  0  0  0
    2.9920   -0.3950   -0.5260 O   0  0  0  0  0  0  0  0  0  0  0  0
    1.1150    1.0580   -0.4440 C   0  0  0  0  0  0  0  0  0  0  0  0
   -0.3580    0.8790   -0.6310 C   0  0  2  0  0  0  0  0  0  0  0  0
   -0.9310    2.1640   -0.5910 O   0  0  0  0  0  0  0  0  0  0  0  0
  2  1  1  6
  2  3  1  0
  2  8  1  0
  3  4  1  0
  4  5  1  0
  5  6  1  6
  5  7  1  0
  7  8  1  0
  8  9  1  1
M  CHG  1   1   1
M  END
