
     RDKit          3D

  9  9  0  0  0  0  0  0  0  0999 V2000
    2.4030    0.6960    0.6690 O   0  0  0  0  0  0  0  0  0  0  0  0
    1.7480   -0.3510    0.0300 C   0  0  2  0  0  0  0  0  0  0  0  0
    2.3920   -0.5760   -1.1700 O   0  0  0  0  0  0  0  0  0  0  0  0
    0.3080    0.1060   -0.1860 C   0  0  2  0  0  0  0  0  0  0  0  0
    0.2890    1.2370   -0.9630 O   0  0  0  0  0  0  0  0  0  0  0  0
   -0.3440    0.4210    1.1440 C   0  0  0  0  0  0  0  0  0  0  0  0
   -1.8020    0.0120    0.9430 C   0  0  0  0  0  0  0  0  0  0  0  0
   -1.8940   -0.5660   -0.3630 N   0  0  0  0  0  0  0  0  0  0  0  0
   -0.5640   -1.0000   -0.7100 C   0  0  0  0  0  0  0  0  0  0  0  0
  2  1  1  6
  2  3  1  0
  2  4  1  0
  4  5  1  6
  4  6  1  0
  4  9  1  0
  6  7  1  0
  7  8  1  0
  8  9  1  0
M  CHG  1   8   1
M  END
