
     RDKit          3D

 10  9  0  0  0  0  0  0  0  0999 V2000
    2.6720   -0.2430    0.5860 N   0  0  0  0  0  0  0  0  0  0  0  0
    1.4100   -0.6950    0.0490 C   0  0  1  0  0  0  0  0  0  0  0  0
    1.1290   -2.0120    0.4420 O   0  0  0  0  0  0  0  0  0  0  0  0
    0.2490    0.1500    0.5290 C   0  0  1  0  0  0  0  0  0  0  0  0
    0.4280    1.5940    0.1110 C   0  0  0  0  0  0  0  0  0  0  0  0
    0.4970    1.6710   -1.2900 O   0  0  0  0  0  0  0  0  0  0  0  0
   -0.9790   -0.4650   -0.1150 C   0  0  2  0  0  0  0  0  0  0  0  0
   -0.8200   -0.4030   -1.4730 O   0  0  0  0  0  0  0  0  0  0  0  0
   -2.2560    0.1840    0.3580 C   0  0  0  0  0  0  0  0  0  0  0  0
   -3.3090   -0.4970   -0.2590 O   0  0  0  0  0  0  0  0  0  0  0  0
  2  1  1  1
  2  3  1  0
  2  4  1  0
  4  5  1  6
  4  7  1  0
  5  6  1  0
  7  8  1  6
  7  9  1  0
  9 10  1  0
M  END
