
     RDKit          3D

 16 17  0  0  0  0  0  0  0  0999 V2000
    5.0330   -0.9340    0.0570 C   0  0  0  0  0  0  0  0  0  0  0  0
    3.9820   -0.0390    0.4110 O   0  0  0  0  0  0  0  0  0  0  0  0
    2.8400    0.1220   -0.3430 C   0  0  0  0  0  0  0  0  0  0  0  0
    2.7080   -0.5480   -1.3960 O   0  0  0  0  0  0  0  0  0  0  0  0
    1.7890    1.0200    0.0150 N   0  0  0  0  0  0  0  0  0  0  0  0
    0.6390    1.1790   -0.7490 N   0  0  0  0  0  0  0  0  0  0  0  0
   -0.6140    0.5780   -0.4590 C   0  0  0  0  0  0  0  0  0  0  0  0
   -0.8150   -0.6660   -0.8570 C   0  0  0  0  0  0  0  0  0  0  0  0
   -2.0890   -1.3340   -0.5860 C   0  0  0  0  0  0  0  0  0  0  0  0
   -2.5800   -2.4940   -0.8310 N   0  0  0  0  0  0  0  0  0  0  0  0
   -3.9030   -2.5940   -0.3180 C   0  0  0  0  0  0  0  0  0  0  0  0
   -4.2080   -1.4730    0.2440 N   0  0  0  0  0  0  0  0  0  0  0  0
   -3.0920   -0.5690    0.1290 C   0  0  0  0  0  0  0  0  0  0  0  0
   -2.8520    0.6530    0.5040 C   0  0  0  0  0  0  0  0  0  0  0  0
   -1.6060    1.3910    0.2710 C   0  0  1  0  0  0  0  0  0  0  0  0
   -1.0040    1.7070    1.5650 N   0  0  0  0  0  0  0  0  0  0  0  0
  1  2  1  0
  2  3  1  0
  3  4  2  0
  3  5  1  0
  5  6  1  0
  6  7  1  0
  7  8  2  0
  7 15  1  0
  8  9  1  0
  9 10  2  0
  9 13  1  0
 10 11  1  0
 11 12  2  0
 12 13  1  0
 13 14  2  0
 14 15  1  0
 15 16  1  1
M  CHG  1  16   1
M  END
