
     RDKit          3D

 17 18  0  0  0  0  0  0  0  0999 V2000
   -3.3180   -1.2460    0.2650 C   0  0  0  0  0  0  0  0  0  0  0  0
   -2.6220   -0.8520   -1.0030 C   0  0  1  0  0  0  0  0  0  0  0  0
   -2.1130    0.5730   -0.9880 C   0  0  0  0  0  0  0  0  0  0  0  0
   -0.7980    0.4140   -0.3430 C   0  0  0  0  0  0  0  0  0  0  0  0
    0.0640    1.2260    0.2690 C   0  0  0  0  0  0  0  0  0  0  0  0
   -0.3080    2.6420    0.3580 C   0  0  0  0  0  0  0  0  0  0  0  0
    0.5400    3.5400    1.0340 N   0  0  0  0  0  0  0  0  0  0  0  0
   -1.3470    3.0410   -0.1560 O   0  0  0  0  0  0  0  0  0  0  0  0
    1.3310    0.8840    0.7280 N   0  0  0  0  0  0  0  0  0  0  0  0
    1.7470   -0.3000    0.5230 C   0  0  0  0  0  0  0  0  0  0  0  0
    3.0530   -0.3880    1.1110 N   0  0  0  0  0  0  0  0  0  0  0  0
    4.1580   -0.7830    0.3540 C   0  0  0  0  0  0  0  0  0  0  0  0
    3.8040   -0.8900   -0.8990 O   0  0  0  0  0  0  0  0  0  0  0  0
    5.4140   -1.0250    0.7670 O   0  0  0  0  0  0  0  0  0  0  0  0
    0.9360   -1.2690   -0.0840 N   0  0  0  0  0  0  0  0  0  0  0  0
   -0.3480   -0.9150   -0.5220 N   0  0  0  0  0  0  0  0  0  0  0  0
   -1.3750   -1.7080   -1.1400 C   0  0  0  0  0  0  0  0  0  0  0  0
  2  1  1  1
  2  3  1  0
  2 17  1  0
  3  4  1  0
  4  5  2  0
  4 16  1  0
  5  6  1  0
  5  9  1  0
  6  7  1  0
  6  8  2  0
  9 10  2  0
 10 11  1  0
 10 15  1  0
 11 12  1  0
 12 13  2  0
 12 14  1  0
 15 16  1  0
 16 17  1  0
M  END
