
     RDKit          3D

 17 18  0  0  0  0  0  0  0  0999 V2000
   -3.1740    1.9440   -1.0830 N   0  0  0  0  0  0  0  0  0  0  0  0
   -3.3490    0.7420   -0.3270 C   0  0  0  0  0  0  0  0  0  0  0  0
   -4.5770    0.3730    0.1580 C   0  0  0  0  0  0  0  0  0  0  0  0
   -4.7320   -0.7570    0.8660 N   0  0  0  0  0  0  0  0  0  0  0  0
   -3.6290   -1.5280    1.0900 C   0  0  0  0  0  0  0  0  0  0  0  0
   -3.7660   -2.5990    1.7590 O   0  0  0  0  0  0  0  0  0  0  0  0
   -2.4240   -1.1750    0.6200 N   0  0  0  0  0  0  0  0  0  0  0  0
   -2.2310   -0.0530   -0.0930 C   0  0  0  0  0  0  0  0  0  0  0  0
   -0.9620    0.3080   -0.5810 N   0  0  0  0  0  0  0  0  0  0  0  0
    0.1650   -0.5550   -0.3080 C   0  0  0  0  0  0  0  0  0  0  0  0
    1.4050    0.0470   -0.9350 C   0  0  2  0  0  0  0  0  0  0  0  0
    2.5220   -0.9400   -0.8460 C   0  0  0  0  0  0  0  0  0  0  0  0
    3.1030   -0.8990    0.4620 N   0  0  0  0  0  0  0  0  0  0  0  0
    4.1110   -1.7740    0.6250 O   0  0  0  0  0  0  0  0  0  0  0  0
    3.5290    0.4530    0.7850 C   0  0  0  0  0  0  0  0  0  0  0  0
    2.2860    1.3160    0.7910 C   0  0  0  0  0  0  0  0  0  0  0  0
    1.6920    1.2940   -0.4450 O   0  0  0  0  0  0  0  0  0  0  0  0
  1  2  1  0
  2  3  1  0
  2  8  2  0
  3  4  2  0
  4  5  1  0
  5  6  2  0
  5  7  1  0
  7  8  1  0
  8  9  1  0
  9 10  1  0
 11 10  1  1
 11 12  1  0
 11 17  1  0
 12 13  1  0
 13 14  1  0
 13 15  1  0
 15 16  1  0
 16 17  1  0
M  END
