
     RDKit          3D

 27 30  0  0  0  0  0  0  0  0999 V2000
   -2.3200   -3.6220    2.0240 C   0  0  0  0  0  0  0  0  0  0  0  0
   -2.2250   -2.4200    1.1210 C   0  0  0  0  0  0  0  0  0  0  0  0
   -3.3280   -1.7610    0.7250 N   0  0  0  0  0  0  0  0  0  0  0  0
   -3.1750   -0.6960   -0.0790 C   0  0  0  0  0  0  0  0  0  0  0  0
   -1.9140   -0.2560   -0.5140 C   0  0  0  0  0  0  0  0  0  0  0  0
   -0.8220   -0.9200   -0.1120 N   0  0  0  0  0  0  0  0  0  0  0  0
    0.5010   -0.5400   -0.4800 C   0  0  0  0  0  0  0  0  0  0  0  0
    1.1070    0.3770    0.5410 C   0  0  0  0  0  0  0  0  0  0  0  0
    2.4930    0.7930    0.1570 C   0  0  0  0  0  0  0  0  0  0  0  0
    2.8970    2.0090   -0.3570 C   0  0  0  0  0  0  0  0  0  0  0  0
    4.2260    1.9650   -0.5630 N   0  0  0  0  0  0  0  0  0  0  0  0
    4.7080    0.7650   -0.2030 C   0  0  0  0  0  0  0  0  0  0  0  0
    5.8370   -0.0350   -0.0980 C   0  0  0  0  0  0  0  0  0  0  0  0
    7.1480    0.3320   -0.4510 N   0  0  0  0  0  0  0  0  0  0  0  0
    7.3780    1.4770   -0.9100 O   0  0  0  0  0  0  0  0  0  0  0  0
    8.1850   -0.5680   -0.2940 O   0  0  0  0  0  0  0  0  0  0  0  0
    5.4610   -1.2010    0.3930 O   0  0  0  0  0  0  0  0  0  0  0  0
    4.1580   -1.1940    0.6080 C   0  0  0  0  0  0  0  0  0  0  0  0
    3.3780   -2.1970    1.1060 F   0  0  0  0  0  0  0  0  0  0  0  0
    3.6400    0.0330    0.2440 C   0  0  0  0  0  0  0  0  0  0  0  0
   -0.9880   -1.9930    0.6990 C   0  0  0  0  0  0  0  0  0  0  0  0
    0.0130   -2.6620    1.1110 O   0  0  0  0  0  0  0  0  0  0  0  0
   -1.5690    0.8680   -1.4000 C   0  0  0  0  0  0  0  0  0  0  0  0
   -2.6500    1.9470   -1.2240 C   0  0  0  0  0  0  0  0  0  0  0  0
   -3.1550    1.9030    0.2150 C   0  0  0  0  0  0  0  0  0  0  0  0
   -4.5280    1.2690    0.2840 C   0  0  0  0  0  0  0  0  0  0  0  0
   -4.4710   -0.0500   -0.4500 C   0  0  0  0  0  0  0  0  0  0  0  0
  1  2  1  0
  2  3  2  0
  2 21  1  0
  3  4  1  0
  4  5  2  0
  4 27  1  0
  5  6  1  0
  5 23  1  0
  6  7  1  0
  6 21  1  0
  7  8  1  0
  8  9  1  0
  9 10  2  0
  9 20  1  0
 10 11  1  0
 11 12  1  0
 12 13  2  0
 12 20  1  0
 13 14  1  0
 13 17  1  0
 14 15  2  0
 14 16  1  0
 17 18  1  0
 18 19  1  0
 18 20  2  0
 21 22  2  0
 23 24  1  0
 24 25  1  0
 25 26  1  0
 26 27  1  0
M  CHG  2  14   1  16  -1
M  END
