
     RDKit          3D

 27 29  0  0  0  0  0  0  0  0999 V2000
    4.9210   -2.5910    1.7790 C   0  0  0  0  0  0  0  0  0  0  0  0
    5.1880   -1.3090    1.0520 C   0  0  0  0  0  0  0  0  0  0  0  0
    3.8680   -0.6680    0.7420 C   0  0  0  0  0  0  0  0  0  0  0  0
    2.8160   -1.2310    1.0980 O   0  0  0  0  0  0  0  0  0  0  0  0
    3.7890    0.5650    0.0540 N   0  0  0  0  0  0  0  0  0  0  0  0
    2.6400    1.2870   -0.3130 C   0  0  0  0  0  0  0  0  0  0  0  0
    1.3710    0.7760   -0.2010 C   0  0  0  0  0  0  0  0  0  0  0  0
    0.2140    1.4640   -0.6110 C   0  0  0  0  0  0  0  0  0  0  0  0
   -1.0780    0.8230   -0.4430 C   0  0  0  0  0  0  0  0  0  0  0  0
   -1.0910   -0.4420    0.1170 N   0  0  0  0  0  0  0  0  0  0  0  0
   -2.2390   -1.0980    0.3050 C   0  0  0  0  0  0  0  0  0  0  0  0
   -3.4420   -0.5290   -0.0570 C   0  0  0  0  0  0  0  0  0  0  0  0
   -4.7380   -1.2160    0.1300 C   0  0  0  0  0  0  0  0  0  0  0  0
   -5.9150   -0.7150   -0.1970 C   0  0  0  0  0  0  0  0  0  0  0  0
   -6.9640   -1.6590    0.1260 C   0  0  0  0  0  0  0  0  0  0  0  0
   -6.4260   -2.7390    0.6520 C   0  0  0  0  0  0  0  0  0  0  0  0
   -4.9650   -2.5430    0.6960 C   0  0  0  0  0  0  0  0  0  0  0  0
   -4.1120   -3.3560    1.1320 O   0  0  0  0  0  0  0  0  0  0  0  0
   -3.4300    0.7310   -0.6150 C   0  0  0  0  0  0  0  0  0  0  0  0
   -2.2300    1.3790   -0.7950 N   0  0  0  0  0  0  0  0  0  0  0  0
   -2.3130    2.6220   -1.3540 O   0  0  0  0  0  0  0  0  0  0  0  0
    0.3980    2.6950   -1.1410 C   0  0  0  0  0  0  0  0  0  0  0  0
    1.6670    3.2620   -1.2770 C   0  0  0  0  0  0  0  0  0  0  0  0
    2.8040    2.5610   -0.8620 C   0  0  0  0  0  0  0  0  0  0  0  0
    4.0700    3.1790   -1.0150 N   0  0  0  0  0  0  0  0  0  0  0  0
    5.0390    3.0780   -0.2500 O   0  0  0  0  0  0  0  0  0  0  0  0
    4.2960    4.0370   -2.1090 O   0  0  0  0  0  0  0  0  0  0  0  0
  1  2  1  0
  2  3  1  0
  3  4  2  0
  3  5  1  0
  5  6  1  0
  6  7  2  0
  6 24  1  0
  7  8  1  0
  8  9  1  0
  8 22  2  0
  9 10  2  0
  9 20  1  0
 10 11  1  0
 11 12  2  0
 12 13  1  0
 12 19  1  0
 13 14  2  0
 13 17  1  0
 14 15  1  0
 15 16  2  0
 16 17  1  0
 17 18  2  0
 19 20  2  0
 20 21  1  0
 22 23  1  0
 23 24  2  0
 24 25  1  0
 25 26  2  0
 25 27  1  0
M  CHG  4  20   1  21  -1  25   1  27  -1
M  END
