
     RDKit          3D

 10  9  0  0  0  0  0  0  0  0999 V2000
    4.0450    0.5860    0.0030 C   0  0  0  0  0  0  0  0  0  0  0  0
    3.1990   -0.2930   -0.8910 C   0  0  0  0  0  0  0  0  0  0  0  0
    2.2360   -1.1410   -0.0730 C   0  0  0  0  0  0  0  0  0  0  0  0
    1.3100   -0.2250    0.7340 C   0  0  0  0  0  0  0  0  0  0  0  0
    0.5260    0.6540   -0.1370 C   0  0  0  0  0  0  0  0  0  0  0  0
   -0.7710    0.7240   -0.2410 C   0  0  0  0  0  0  0  0  0  0  0  0
   -1.6500   -0.1100    0.5400 C   0  0  0  0  0  0  0  0  0  0  0  0
   -2.9880   -0.0250    0.4210 C   0  0  0  0  0  0  0  0  0  0  0  0
   -3.6130    0.9350   -0.5220 C   0  0  0  0  0  0  0  0  0  0  0  0
   -3.8470   -0.9090    1.2490 C   0  0  0  0  0  0  0  0  0  0  0  0
  1  2  1  0
  2  3  1  0
  3  4  1  0
  4  5  1  0
  5  6  2  3
  6  7  1  0
  7  8  2  3
  8  9  1  0
  8 10  1  0
M  END
