
     RDKit          3D

 10 10  0  0  0  0  0  0  0  0999 V2000
   -1.8920   -0.5600    1.3110 C   0  0  0  0  0  0  0  0  0  0  0  0
   -1.4240    0.0700    0.0050 C   0  0  2  0  0  0  0  0  0  0  0  0
   -1.8670    1.5100    0.0380 C   0  0  0  0  0  0  0  0  0  0  0  0
   -2.1550   -0.6360   -1.1070 C   0  0  0  0  0  0  0  0  0  0  0  0
    0.0380   -0.0060   -0.1400 C   0  0  0  0  0  0  0  0  0  0  0  0
    0.7310    1.1190   -0.2570 C   0  0  0  0  0  0  0  0  0  0  0  0
    2.2100    1.1670   -0.4090 C   0  0  0  0  0  0  0  0  0  0  0  0
    2.9000   -0.1300   -0.1740 C   0  0  0  0  0  0  0  0  0  0  0  0
    2.0580   -1.0960    0.6170 C   0  0  0  0  0  0  0  0  0  0  0  0
    0.7740   -1.3100   -0.1620 C   0  0  0  0  0  0  0  0  0  0  0  0
  2  1  1  1
  2  3  1  0
  2  4  1  0
  2  5  1  0
  5  6  2  0
  5 10  1  0
  6  7  1  0
  7  8  1  0
  8  9  1  0
  9 10  1  0
M  END
