
     RDKit          3D

 10 10  0  0  0  0  0  0  0  0999 V2000
   -2.9950    1.4480   -0.1270 C   0  0  0  0  0  0  0  0  0  0  0  0
   -2.3960    0.7490    0.8070 C   0  0  0  0  0  0  0  0  0  0  0  0
   -2.3190   -0.7170    0.7000 C   0  0  0  0  0  0  0  0  0  0  0  0
   -0.9150   -1.1820    0.6780 C   0  0  0  0  0  0  0  0  0  0  0  0
   -0.0380   -0.7280   -0.4270 C   0  0  2  0  0  0  0  0  0  0  0  0
    1.3280   -1.3730   -0.1840 C   0  0  0  0  0  0  0  0  0  0  0  0
    2.1770   -0.5460    0.7510 C   0  0  0  0  0  0  0  0  0  0  0  0
    2.5600    0.7780    0.1280 C   0  0  0  0  0  0  0  0  0  0  0  0
    1.5970    1.0090   -1.0220 C   0  0  0  0  0  0  0  0  0  0  0  0
    0.1680    0.7360   -0.5780 C   0  0  0  0  0  0  0  0  0  0  0  0
  1  2  2  0
  2  3  1  0
  3  4  1  0
  5  4  1  1
  5  6  1  0
  5 10  1  0
  6  7  1  0
  7  8  1  0
  8  9  1  0
  9 10  1  0
M  END
