
     RDKit          3D

 20 22  0  0  0  0  0  0  0  0999 V2000
   -0.0360   -1.1640    2.7880 N   0  0  0  0  0  0  0  0  0  0  0  0
   -0.3410   -0.3570    1.6650 C   0  0  0  0  0  0  0  0  0  0  0  0
    0.4630    0.5050    1.0690 C   0  0  0  0  0  0  0  0  0  0  0  0
    1.8060    0.7870    1.4500 N   0  0  0  0  0  0  0  0  0  0  0  0
    2.8930    0.4800    0.5980 C   0  0  0  0  0  0  0  0  0  0  0  0
    2.6310   -0.1040   -0.6240 C   0  0  0  0  0  0  0  0  0  0  0  0
    3.6380   -0.4360   -1.5160 C   0  0  0  0  0  0  0  0  0  0  0  0
    4.9400   -0.1650   -1.1520 C   0  0  0  0  0  0  0  0  0  0  0  0
    5.2020    0.4270    0.0870 C   0  0  0  0  0  0  0  0  0  0  0  0
    4.1900    0.7530    0.9680 C   0  0  0  0  0  0  0  0  0  0  0  0
    4.5020    1.3260    2.1580 F   0  0  0  0  0  0  0  0  0  0  0  0
   -0.2980    1.0870   -0.0300 C   0  0  0  0  0  0  0  0  0  0  0  0
    0.0990    1.9600   -0.8560 O   0  0  0  0  0  0  0  0  0  0  0  0
   -1.6310    0.4660   -0.0020 C   0  0  0  0  0  0  0  0  0  0  0  0
   -1.6520   -0.3930    1.0090 C   0  0  0  0  0  0  0  0  0  0  0  0
   -2.8550   -1.1170    1.2260 N   0  0  0  0  0  0  0  0  0  0  0  0
   -3.8140   -1.4170    0.1830 C   0  0  0  0  0  0  0  0  0  0  0  0
   -3.3850   -0.7590   -1.1330 C   0  0  0  0  0  0  0  0  0  0  0  0
   -2.8560    0.5990   -0.8090 C   0  0  2  0  0  0  0  0  0  0  0  0
   -2.6640    1.4170   -1.9840 N   0  0  0  0  0  0  0  0  0  0  0  0
  1  2  1  0
  2  3  2  0
  2 15  1  0
  3  4  1  0
  3 12  1  0
  4  5  1  0
  5  6  2  0
  5 10  1  0
  6  7  1  0
  7  8  2  0
  8  9  1  0
  9 10  2  0
 10 11  1  0
 12 13  2  0
 12 14  1  0
 14 15  2  0
 14 19  1  0
 15 16  1  0
 16 17  1  0
 17 18  1  0
 18 19  1  0
 19 20  1  6
M  CHG  1  20   1
M  END
