
     RDKit          3D

 20 21  0  0  0  0  0  0  0  0999 V2000
    5.7330   -0.5180   -1.7170 C   0  0  0  0  0  0  0  0  0  0  0  0
    4.9310   -0.2620   -0.6610 C   0  0  0  0  0  0  0  0  0  0  0  0
    3.5880    0.2190   -0.9040 C   0  0  0  0  0  0  0  0  0  0  0  0
    2.7370    0.4920    0.0800 C   0  0  0  0  0  0  0  0  0  0  0  0
    1.3900    0.9760   -0.2210 C   0  0  0  0  0  0  0  0  0  0  0  0
    0.3440    0.1210    0.2750 N   0  0  0  0  0  0  0  0  0  0  0  0
   -1.0170    0.5230    0.0210 C   0  0  0  0  0  0  0  0  0  0  0  0
   -1.1970    1.5840   -0.6100 O   0  0  0  0  0  0  0  0  0  0  0  0
   -2.1100   -0.2340    0.4590 N   0  0  0  0  0  0  0  0  0  0  0  0
   -3.4620    0.0490    0.2760 C   0  0  0  0  0  0  0  0  0  0  0  0
   -3.9720    1.1390   -0.3760 C   0  0  0  0  0  0  0  0  0  0  0  0
   -5.3600    1.3400   -0.5100 C   0  0  0  0  0  0  0  0  0  0  0  0
   -6.2480    0.4440    0.0110 C   0  0  0  0  0  0  0  0  0  0  0  0
   -5.7450   -0.6200    0.6480 N   0  0  0  0  0  0  0  0  0  0  0  0
   -4.4150   -0.8320    0.7880 C   0  0  0  0  0  0  0  0  0  0  0  0
   -3.9470   -1.9790    1.4730 N   0  0  0  0  0  0  0  0  0  0  0  0
    3.2470    0.2770    1.4200 C   0  0  0  0  0  0  0  0  0  0  0  0
    4.4430   -0.1520    1.7150 C   0  0  0  0  0  0  0  0  0  0  0  0
    4.7590   -0.3000    3.0510 F   0  0  0  0  0  0  0  0  0  0  0  0
    5.4470   -0.4790    0.6960 C   0  0  0  0  0  0  0  0  0  0  0  0
  1  2  2  0
  2  3  1  0
  2 20  1  0
  3  4  2  0
  4  5  1  0
  4 17  1  0
  5  6  1  0
  6  7  1  0
  7  8  2  0
  7  9  1  0
  9 10  1  0
 10 11  2  0
 10 15  1  0
 11 12  1  0
 12 13  2  0
 13 14  1  0
 14 15  2  0
 15 16  1  0
 17 18  2  0
 18 19  1  0
 18 20  1  0
M  CHG  1  14   1
M  END
