
     RDKit          3D

 46 49  0  0  0  0  0  0  0  0999 V2000
   -3.2210   -3.1430   -1.9890 C   0  0  0  0  0  0  0  0  0  0  0  0
   -4.3240   -3.0880   -1.3060 C   0  0  0  0  0  0  0  0  0  0  0  0
   -5.1800   -4.2150   -1.7180 O   0  0  0  0  0  0  0  0  0  0  0  0
   -4.8380   -2.2340   -0.3210 C   0  0  0  0  0  0  0  0  0  0  0  0
   -4.3650   -1.0770    0.3210 C   0  0  0  0  0  0  0  0  0  0  0  0
   -3.3360   -0.2450    0.3350 C   0  0  0  0  0  0  0  0  0  0  0  0
   -3.3610    0.8890    1.2880 C   0  0  0  0  0  0  0  0  0  0  0  0
   -3.1830    2.1990    1.0460 C   0  0  0  0  0  0  0  0  0  0  0  0
   -3.2650    3.1160    2.1610 C   0  0  0  0  0  0  0  0  0  0  0  0
   -3.1760    4.3990    2.1070 C   0  0  0  0  0  0  0  0  0  0  0  0
   -3.2780    5.2320    3.3960 C   0  0  0  0  0  0  0  0  0  0  0  0
   -2.8640    2.6050   -0.3100 C   0  0  1  0  0  0  0  0  0  0  0  0
   -4.1010    2.5350   -1.0190 O   0  0  0  0  0  0  0  0  0  0  0  0
   -2.2010    3.8640   -0.5840 C   0  0  0  0  0  0  0  0  0  0  0  0
   -1.0480    4.3340   -0.2120 C   0  0  0  0  0  0  0  0  0  0  0  0
    0.0130    3.8240    0.5940 C   0  0  0  0  0  0  0  0  0  0  0  0
    0.0950    4.3630    1.7910 O   0  0  0  0  0  0  0  0  0  0  0  0
    0.9920    2.8590    0.3660 N   0  0  0  0  0  0  0  0  0  0  0  0
    1.9820    2.7780   -0.6810 C   0  0  2  0  0  0  0  0  0  0  0  0
    1.4710    3.1520   -2.0490 C   0  0  0  0  0  0  0  0  0  0  0  0
    2.4050    2.3890   -2.9790 C   0  0  0  0  0  0  0  0  0  0  0  0
    2.7120    1.0950   -2.2370 C   0  0  1  0  0  0  0  0  0  0  0  0
    3.9440    0.5720   -2.5380 O   0  0  0  0  0  0  0  0  0  0  0  0
    5.0200    1.3140   -2.0660 C   0  0  0  0  0  0  0  0  0  0  0  0
    4.9020    1.7600   -0.6460 C   0  0  0  0  0  0  0  0  0  0  0  0
    3.7350    1.1260   -0.0540 N   0  0  0  0  0  0  0  0  0  0  0  0
    3.8300    0.3490    1.1360 C   0  0  0  0  0  0  0  0  0  0  0  0
    4.5160    0.8690    2.0590 O   0  0  0  0  0  0  0  0  0  0  0  0
    3.2310   -0.9640    1.3970 C   0  0  2  0  0  0  0  0  0  0  0  0
    3.2900   -1.8170    0.2680 O   0  0  0  0  0  0  0  0  0  0  0  0
    3.9740   -2.9870    0.1460 C   0  0  0  0  0  0  0  0  0  0  0  0
    4.7570   -3.6050    1.0870 C   0  0  0  0  0  0  0  0  0  0  0  0
    5.4080   -4.7960    0.8540 C   0  0  0  0  0  0  0  0  0  0  0  0
    5.2990   -5.4320   -0.3630 C   0  0  0  0  0  0  0  0  0  0  0  0
    4.5190   -4.8340   -1.3280 C   0  0  0  0  0  0  0  0  0  0  0  0
    3.8700   -3.6420   -1.0880 C   0  0  0  0  0  0  0  0  0  0  0  0
    1.8180   -0.9740    1.8770 C   0  0  0  0  0  0  0  0  0  0  0  0
    0.9060   -1.6510    0.9950 N   0  0  1  0  0  0  0  0  0  0  0  0
    0.5960   -3.0040    1.4340 C   0  0  0  0  0  0  0  0  0  0  0  0
   -0.3390   -0.9080    1.0240 C   0  0  0  0  0  0  0  0  0  0  0  0
   -0.9330   -0.7610   -0.3130 C   0  0  0  0  0  0  0  0  0  0  0  0
   -0.1310   -0.9480   -1.2990 O   0  0  0  0  0  0  0  0  0  0  0  0
   -2.2700   -0.4440   -0.5540 N   0  0  0  0  0  0  0  0  0  0  0  0
    2.5020    1.3640   -0.7870 C   0  0  1  0  0  0  0  0  0  0  0  0
   -6.0920   -2.5920    0.1530 C   0  0  0  0  0  0  0  0  0  0  0  0
   -6.8670   -3.7240   -0.2720 C   0  0  0  0  0  0  0  0  0  0  0  0
  1  2  2  0
  2  3  1  0
  2  4  1  0
  4  5  1  0
  4 45  2  3
  5  6  2  3
  6  7  1  0
  6 43  1  0
  7  8  2  0
  8  9  1  0
  8 12  1  0
  9 10  2  3
 10 11  1  0
 12 13  1  6
 12 14  1  0
 14 15  2  0
 15 16  1  0
 16 17  2  0
 16 18  1  0
 18 19  1  0
 19 20  1  6
 19 44  1  0
 20 21  1  0
 22 21  1  6
 22 23  1  0
 22 44  1  0
 23 24  1  0
 24 25  1  0
 25 26  1  0
 26 27  1  0
 44 26  1  1
 27 28  2  0
 27 29  1  0
 29 30  1  6
 29 37  1  0
 30 31  1  0
 31 32  2  0
 31 36  1  0
 32 33  1  0
 33 34  2  0
 34 35  1  0
 35 36  2  0
 37 38  1  0
 38 39  1  1
 38 40  1  0
 40 41  1  0
 41 42  2  0
 41 43  1  0
 45 46  1  0
M  CHG  1  38   1
M  END
