
     RDKit          3D

 46 49  0  0  0  0  0  0  0  0999 V2000
   -0.8370   -5.0550    1.5070 C   0  0  0  0  0  0  0  0  0  0  0  0
   -0.2740   -3.7550    1.0480 C   0  0  0  0  0  0  0  0  0  0  0  0
   -1.2230   -2.6320    1.3020 N   0  0  0  0  0  0  0  0  0  0  0  0
   -1.0060   -1.9920    2.5720 C   0  0  0  0  0  0  0  0  0  0  0  0
    0.3140   -1.1930    2.5120 C   0  0  0  0  0  0  0  0  0  0  0  0
    0.7360   -1.1660    1.2310 O   0  0  0  0  0  0  0  0  0  0  0  0
    1.6760   -0.8330    0.3290 C   0  0  0  0  0  0  0  0  0  0  0  0
    2.6500   -1.8120    0.0070 C   0  0  0  0  0  0  0  0  0  0  0  0
    3.6520   -1.5690   -0.9000 C   0  0  0  0  0  0  0  0  0  0  0  0
    3.7270   -0.3530   -1.5200 C   0  0  0  0  0  0  0  0  0  0  0  0
    2.8010    0.5880   -1.2210 C   0  0  0  0  0  0  0  0  0  0  0  0
    1.7330    0.4280   -0.2990 C   0  0  0  0  0  0  0  0  0  0  0  0
    0.8560    1.5110   -0.1420 N   0  0  0  0  0  0  0  0  0  0  0  0
    0.0700    2.1010    0.8480 C   0  0  0  0  0  0  0  0  0  0  0  0
    0.4360    3.2630    1.3630 O   0  0  0  0  0  0  0  0  0  0  0  0
   -1.1610    1.7030    1.4930 C   0  0  0  0  0  0  0  0  0  0  0  0
   -1.3530    2.1210    2.7000 O   0  0  0  0  0  0  0  0  0  0  0  0
   -2.2190    0.9030    0.9960 N   0  0  0  0  0  0  0  0  0  0  0  0
   -2.7810    0.9690   -0.3110 C   0  0  0  0  0  0  0  0  0  0  0  0
   -4.0770    0.2240   -0.4790 C   0  0  2  0  0  0  0  0  0  0  0  0
   -4.1530   -0.1200   -1.9540 C   0  0  0  0  0  0  0  0  0  0  0  0
   -5.3630   -0.8770   -2.3670 C   0  0  0  0  0  0  0  0  0  0  0  0
   -5.2260    1.1460   -0.2700 N   0  0  2  0  0  0  0  0  0  0  0  0
   -5.4520    2.0120   -1.3840 C   0  0  0  0  0  0  0  0  0  0  0  0
   -6.5510    2.9990   -0.9660 C   0  0  0  0  0  0  0  0  0  0  0  0
   -7.7830    2.2270   -0.5810 C   0  0  0  0  0  0  0  0  0  0  0  0
   -7.6950    1.6450    0.7980 C   0  0  0  0  0  0  0  0  0  0  0  0
   -6.5220    2.2040    1.5390 C   0  0  0  0  0  0  0  0  0  0  0  0
   -5.1790    1.8770    0.9360 C   0  0  0  0  0  0  0  0  0  0  0  0
   -4.3200   -0.9050    0.4290 C   0  0  0  0  0  0  0  0  0  0  0  0
   -3.6130   -2.1680    0.3820 C   0  0  0  0  0  0  0  0  0  0  0  0
   -2.1800   -2.3060    0.3180 C   0  0  0  0  0  0  0  0  0  0  0  0
   -1.6320   -2.1060   -0.8380 O   0  0  0  0  0  0  0  0  0  0  0  0
    4.8060   -0.0260   -2.5110 C   0  0  0  0  0  0  0  0  0  0  0  0
    5.3910    1.1940   -2.2940 O   0  0  0  0  0  0  0  0  0  0  0  0
    5.9090    1.4250   -1.0540 C   0  0  2  0  0  0  0  0  0  0  0  0
    5.5350    2.8180   -0.5820 C   0  0  1  0  0  0  0  0  0  0  0  0
    6.0940    3.0970    0.8040 C   0  0  0  0  0  0  0  0  0  0  0  0
    6.0320    3.7680   -1.4570 O   0  0  0  0  0  0  0  0  0  0  0  0
    7.4010    1.3180   -0.9480 C   0  0  0  0  0  0  0  0  0  0  0  0
    7.9790    0.0600   -1.4340 C   0  0  0  0  0  0  0  0  0  0  0  0
    8.0010   -1.0910   -0.7780 C   0  0  0  0  0  0  0  0  0  0  0  0
    7.4310   -1.2910    0.5840 C   0  0  0  0  0  0  0  0  0  0  0  0
    6.1160   -2.0810    0.5110 C   0  0  0  0  0  0  0  0  0  0  0  0
    5.9120   -2.3970   -0.8030 O   0  0  0  0  0  0  0  0  0  0  0  0
    4.6320   -2.6600   -1.1740 C   0  0  0  0  0  0  0  0  0  0  0  0
  1  2  1  0
  2  3  1  0
  3  4  1  0
  3 32  1  0
  4  5  1  0
  5  6  1  0
  6  7  1  0
  7  8  2  0
  7 12  1  0
  8  9  1  0
  9 10  2  0
  9 46  1  0
 10 11  1  0
 10 34  1  0
 11 12  2  0
 12 13  1  0
 13 14  1  0
 14 15  2  0
 14 16  1  0
 16 17  2  0
 16 18  1  0
 18 19  1  0
 19 20  1  0
 20 21  1  6
 20 23  1  0
 20 30  1  0
 21 22  1  0
 23 24  1  6
 23 29  1  0
 24 25  1  0
 25 26  1  0
 26 27  1  0
 27 28  1  0
 28 29  1  0
 30 31  1  0
 31 32  1  0
 32 33  2  0
 34 35  1  0
 35 36  1  0
 36 37  1  0
 36 40  1  6
 37 38  1  1
 37 39  1  0
 40 41  1  0
 41 42  2  0
 42 43  1  0
 43 44  1  0
 44 45  1  0
 45 46  1  0
M  CHG  1  23   1
M  END
