
     RDKit          3D

 46 51  0  0  0  0  0  0  0  0999 V2000
    8.2770   -3.6240   -0.1910 C   0  0  0  0  0  0  0  0  0  0  0  0
    8.4960   -2.2330   -0.7670 C   0  0  0  0  0  0  0  0  0  0  0  0
    7.3430   -1.7810   -1.4480 O   0  0  0  0  0  0  0  0  0  0  0  0
    6.1560   -1.6690   -0.7270 C   0  0  0  0  0  0  0  0  0  0  0  0
    6.1730   -1.9690    0.4700 O   0  0  0  0  0  0  0  0  0  0  0  0
    4.9860   -1.2080   -1.4330 C   0  0  0  0  0  0  0  0  0  0  0  0
    3.7350   -0.9100   -0.7100 C   0  0  0  0  0  0  0  0  0  0  0  0
    3.6800    0.1830    0.2690 C   0  0  2  0  0  0  0  0  0  0  0  0
    2.2440    0.2420    0.8140 C   0  0  0  0  0  0  0  0  0  0  0  0
    1.2200    0.5200   -0.1790 C   0  0  0  0  0  0  0  0  0  0  0  0
    1.4450    0.8060   -1.3710 O   0  0  0  0  0  0  0  0  0  0  0  0
   -0.1590    0.4580    0.2400 N   0  0  0  0  0  0  0  0  0  0  0  0
   -1.1640    0.7270   -0.7360 C   0  0  0  0  0  0  0  0  0  0  0  0
   -1.5130    2.1530   -0.9290 C   0  0  0  0  0  0  0  0  0  0  0  0
   -0.6860    3.2050   -0.6640 C   0  0  0  0  0  0  0  0  0  0  0  0
   -1.1080    4.4860   -0.8820 C   0  0  0  0  0  0  0  0  0  0  0  0
   -2.3770    4.7290   -1.3730 C   0  0  0  0  0  0  0  0  0  0  0  0
   -2.8400    6.0090   -1.6070 C   0  0  0  0  0  0  0  0  0  0  0  0
   -4.1020    6.2860   -2.0970 C   0  0  0  0  0  0  0  0  0  0  0  0
   -4.9590    5.2210   -2.3720 C   0  0  0  0  0  0  0  0  0  0  0  0
   -4.5050    3.9510   -2.1430 C   0  0  0  0  0  0  0  0  0  0  0  0
   -5.3890    2.7900   -2.4270 C   0  0  0  0  0  0  0  0  0  0  0  0
   -3.2450    3.6960   -1.6550 C   0  0  0  0  0  0  0  0  0  0  0  0
   -2.7810    2.4180   -1.4210 C   0  0  0  0  0  0  0  0  0  0  0  0
   -0.4790    0.1030    1.6200 C   0  0  1  0  0  0  0  0  0  0  0  0
   -1.2550    1.1640    2.2660 C   0  0  0  0  0  0  0  0  0  0  0  0
   -2.9750    0.6430    1.8340 S   0  0  0  0  0  0  0  0  0  0  0  0
   -2.5530   -1.0870    1.7130 C   0  0  0  0  0  0  0  0  0  0  0  0
   -1.2010   -1.1820    1.6120 C   0  0  0  0  0  0  0  0  0  0  0  0
   -0.6430   -2.4440    1.5110 C   0  0  0  0  0  0  0  0  0  0  0  0
   -1.4130   -3.5840    1.5100 C   0  0  0  0  0  0  0  0  0  0  0  0
   -2.7670   -3.4770    1.6120 C   0  0  0  0  0  0  0  0  0  0  0  0
   -3.3360   -2.1990    1.7150 C   0  0  0  0  0  0  0  0  0  0  0  0
   -4.7010   -1.9190    1.8250 O   0  0  0  0  0  0  0  0  0  0  0  0
   -5.7640   -2.8420    1.7000 C   0  0  1  0  0  0  0  0  0  0  0  0
   -7.0810   -2.1260    1.4920 C   0  0  0  0  0  0  0  0  0  0  0  0
   -5.4310   -3.7490    0.5400 C   0  0  0  0  0  0  0  0  0  0  0  0
   -4.6900   -4.9890    0.9810 C   0  0  0  0  0  0  0  0  0  0  0  0
   -3.4570   -4.6770    1.6030 O   0  0  0  0  0  0  0  0  0  0  0  0
    3.9350    1.4950   -0.3270 N   0  0  0  0  0  0  0  0  0  0  0  0
    5.2950    1.8910   -0.4470 C   0  0  0  0  0  0  0  0  0  0  0  0
    5.6900    2.5940   -1.4090 O   0  0  0  0  0  0  0  0  0  0  0  0
    6.3170    1.4830    0.5760 C   0  0  0  0  0  0  0  0  0  0  0  0
    5.7110    0.7680    1.6310 O   0  0  0  0  0  0  0  0  0  0  0  0
    4.5330    0.0360    1.4480 C   0  0  0  0  0  0  0  0  0  0  0  0
    4.2440   -0.7790    2.3960 O   0  0  0  0  0  0  0  0  0  0  0  0
  1  2  1  0
  2  3  1  0
  3  4  1  0
  4  5  2  0
  4  6  1  0
  6  7  1  0
  8  7  1  6
  8  9  1  0
  8 40  1  0
  8 45  1  0
  9 10  1  0
 10 11  2  0
 10 12  1  0
 12 13  1  0
 25 12  1  6
 13 14  1  0
 14 15  2  0
 14 24  1  0
 15 16  1  0
 16 17  2  0
 17 18  1  0
 17 23  1  0
 18 19  2  0
 19 20  1  0
 20 21  2  0
 21 22  1  0
 21 23  1  0
 23 24  2  0
 25 26  1  0
 25 29  1  0
 26 27  1  0
 27 28  1  0
 28 29  2  0
 28 33  1  0
 29 30  1  0
 30 31  2  0
 31 32  1  0
 32 33  2  0
 32 39  1  0
 33 34  1  0
 34 35  1  0
 35 36  1  6
 35 37  1  0
 37 38  1  0
 38 39  1  0
 40 41  1  0
 41 42  2  0
 41 43  1  0
 43 44  1  0
 44 45  1  0
 45 46  2  0
M  END
