
     RDKit          3D

 25 26  0  0  0  0  0  0  0  0999 V2000
   -1.6560   -2.3990   -1.6300 C   0  0  0  0  0  0  0  0  0  0  0  0
   -1.2390   -2.0400   -0.2010 C   0  0  0  0  0  0  0  0  0  0  0  0
   -0.9450   -0.6720    0.0030 N   0  0  0  0  0  0  0  0  0  0  0  0
   -1.8460    0.3350    0.3270 C   0  0  0  0  0  0  0  0  0  0  0  0
   -1.2670    1.5270    0.5060 O   0  0  0  0  0  0  0  0  0  0  0  0
   -3.2630    0.3730    0.5130 C   0  0  0  0  0  0  0  0  0  0  0  0
   -4.0590   -0.6480    0.3750 C   0  0  0  0  0  0  0  0  0  0  0  0
   -5.5450   -0.6220    0.5680 C   0  0  0  0  0  0  0  0  0  0  0  0
   -6.0510    0.6140    0.9180 O   0  0  0  0  0  0  0  0  0  0  0  0
   -5.2550    1.7090    1.0730 C   0  0  0  0  0  0  0  0  0  0  0  0
   -3.9580    1.6350    0.8930 C   0  0  0  0  0  0  0  0  0  0  0  0
   -2.8710    3.2010    1.1220 Br  0  0  0  0  0  0  0  0  0  0  0  0
    0.4800   -0.2270   -0.1170 C   0  0  2  0  0  0  0  0  0  0  0  0
    0.5590    0.7780   -1.1920 C   0  0  0  0  0  0  0  0  0  0  0  0
   -0.5930    1.0470   -2.0200 N   0  0  0  0  0  0  0  0  0  0  0  0
    1.5680    1.4640   -1.4860 O   0  0  0  0  0  0  0  0  0  0  0  0
    1.4060   -1.3450   -0.3420 C   0  0  0  0  0  0  0  0  0  0  0  0
    2.8290   -0.8500   -0.4840 C   0  0  0  0  0  0  0  0  0  0  0  0
    3.2630   -0.2530    0.8110 C   0  0  1  0  0  0  0  0  0  0  0  0
    4.0200    0.9990    0.5510 C   0  0  0  0  0  0  0  0  0  0  0  0
    3.6920    2.1300    0.9700 O   0  0  0  0  0  0  0  0  0  0  0  0
    5.1710    0.8910   -0.2140 O   0  0  0  0  0  0  0  0  0  0  0  0
    5.9800    2.0050   -0.5340 C   0  0  0  0  0  0  0  0  0  0  0  0
    2.1370   -0.0650    1.7660 C   0  0  0  0  0  0  0  0  0  0  0  0
    0.8760    0.4800    1.1680 C   0  0  0  0  0  0  0  0  0  0  0  0
  1  2  1  0
  2  3  1  0
  3  4  1  0
 13  3  1  1
  4  5  2  0
  4  6  1  0
  6  7  2  0
  6 11  1  0
  7  8  1  0
  8  9  1  0
  9 10  1  0
 10 11  2  0
 11 12  1  0
 13 14  1  0
 13 17  1  0
 13 25  1  0
 14 15  1  0
 14 16  2  0
 17 18  1  0
 18 19  1  0
 19 20  1  6
 19 24  1  0
 20 21  2  0
 20 22  1  0
 22 23  1  0
 24 25  1  0
M  END
