
     RDKit          3D

 25 26  0  0  0  0  0  0  0  0999 V2000
    3.5620   -4.7100   -0.3690 C   0  0  0  0  0  0  0  0  0  0  0  0
    3.1170   -3.8220    0.7820 C   0  0  0  0  0  0  0  0  0  0  0  0
    1.9410   -3.0150    0.4330 C   0  0  0  0  0  0  0  0  0  0  0  0
    1.9950   -1.6990    0.4650 C   0  0  0  0  0  0  0  0  0  0  0  0
    3.1680   -1.0890    0.8300 O   0  0  0  0  0  0  0  0  0  0  0  0
    3.6570    0.0830    0.2830 C   0  0  0  0  0  0  0  0  0  0  0  0
    3.4420    1.2310    0.8640 C   0  0  0  0  0  0  0  0  0  0  0  0
    3.9180    2.5180    0.3610 C   0  0  2  0  0  0  0  0  0  0  0  0
    2.8380    3.4920    0.2660 N   0  0  0  0  0  0  0  0  0  0  0  0
    4.6330    2.3890   -0.8140 O   0  0  0  0  0  0  0  0  0  0  0  0
    4.8560    1.1800   -1.4210 C   0  0  0  0  0  0  0  0  0  0  0  0
    4.4170    0.0150   -0.9530 C   0  0  0  0  0  0  0  0  0  0  0  0
    4.7690   -1.6300   -1.8550 Br  0  0  0  0  0  0  0  0  0  0  0  0
    0.7970   -0.9320    0.1090 C   0  0  0  0  0  0  0  0  0  0  0  0
    0.8090    0.3280    0.1280 O   0  0  0  0  0  0  0  0  0  0  0  0
   -0.3660   -1.5560   -0.2530 O   0  0  0  0  0  0  0  0  0  0  0  0
   -1.5630   -0.9370   -0.6110 C   0  0  0  0  0  0  0  0  0  0  0  0
   -2.1220   -0.0840    0.4570 C   0  0  0  0  0  0  0  0  0  0  0  0
   -1.5100    0.0130    1.5420 O   0  0  0  0  0  0  0  0  0  0  0  0
   -3.3310    0.6230    0.2770 N   0  0  0  0  0  0  0  0  0  0  0  0
   -3.9240    1.4680    1.2760 C   0  0  0  0  0  0  0  0  0  0  0  0
   -5.4300    1.3690    1.1360 C   0  0  0  0  0  0  0  0  0  0  0  0
   -5.8490    2.0000   -0.1750 C   0  0  0  0  0  0  0  0  0  0  0  0
   -4.7890    1.7890   -1.2430 C   0  0  0  0  0  0  0  0  0  0  0  0
   -4.0390    0.5020   -0.9990 C   0  0  0  0  0  0  0  0  0  0  0  0
  1  2  1  0
  2  3  1  0
  3  4  2  3
  4  5  1  0
  4 14  1  0
  5  6  1  0
  6  7  2  0
  6 12  1  0
  7  8  1  0
  8  9  1  6
  8 10  1  0
 10 11  1  0
 11 12  2  0
 12 13  1  0
 14 15  2  0
 14 16  1  0
 16 17  1  0
 17 18  1  0
 18 19  2  0
 18 20  1  0
 20 21  1  0
 20 25  1  0
 21 22  1  0
 22 23  1  0
 23 24  1  0
 24 25  1  0
M  END
