
     RDKit          3D

 25 27  0  0  0  0  0  0  0  0999 V2000
   -6.6430   -0.1800   -0.8780 C   0  0  0  0  0  0  0  0  0  0  0  0
   -5.5550    0.4630   -0.2440 O   0  0  0  0  0  0  0  0  0  0  0  0
   -4.2970   -0.1340   -0.3830 C   0  0  0  0  0  0  0  0  0  0  0  0
   -4.1020   -1.2960   -1.0990 C   0  0  0  0  0  0  0  0  0  0  0  0
   -2.8370   -1.8410   -1.2020 C   0  0  0  0  0  0  0  0  0  0  0  0
   -1.7310   -1.2740   -0.6140 C   0  0  0  0  0  0  0  0  0  0  0  0
   -1.9240   -0.1070    0.1050 C   0  0  0  0  0  0  0  0  0  0  0  0
   -3.1860    0.4480    0.2150 C   0  0  0  0  0  0  0  0  0  0  0  0
   -3.3690    1.6180    0.9380 O   0  0  0  0  0  0  0  0  0  0  0  0
   -3.2780    2.8910    0.3660 C   0  0  0  0  0  0  0  0  0  0  0  0
   -0.8070    0.4560    0.6920 O   0  0  0  0  0  0  0  0  0  0  0  0
    0.5160    0.0030    0.4680 C   0  0  0  0  0  0  0  0  0  0  0  0
    0.4780   -1.4790    0.3060 C   0  0  2  0  0  0  0  0  0  0  0  0
    1.8130   -2.1160    0.0860 C   0  0  2  0  0  0  0  0  0  0  0  0
    2.7310   -1.6980    1.2150 C   0  0  0  0  0  0  0  0  0  0  0  0
    3.5550   -0.6160    0.5410 C   0  0  0  0  0  0  0  0  0  0  0  0
    4.0280    0.4570    1.1060 C   0  0  0  0  0  0  0  0  0  0  0  0
    4.8080    1.5070    0.5140 C   0  0  0  0  0  0  0  0  0  0  0  0
    5.1770    1.5210   -0.8540 N   0  0  0  0  0  0  0  0  0  0  0  0
    5.2340    2.5600    1.2250 C   0  0  0  0  0  0  0  0  0  0  0  0
    6.2650    3.9590    0.4610 Br  0  0  0  0  0  0  0  0  0  0  0  0
    3.6760   -1.0950   -0.8280 C   0  0  0  0  0  0  0  0  0  0  0  0
    4.6850   -0.9450   -1.6020 O   0  0  0  0  0  0  0  0  0  0  0  0
    2.4580   -1.7600   -1.1280 N   0  0  0  0  0  0  0  0  0  0  0  0
   -0.4580   -1.8030   -0.7050 O   0  0  0  0  0  0  0  0  0  0  0  0
  1  2  1  0
  2  3  1  0
  3  4  2  0
  3  8  1  0
  4  5  1  0
  5  6  2  0
  6  7  1  0
  6 25  1  0
  7  8  2  0
  7 11  1  0
  8  9  1  0
  9 10  1  0
 11 12  1  0
 13 12  1  6
 13 14  1  0
 13 25  1  0
 14 15  1  1
 14 24  1  0
 15 16  1  0
 16 17  2  3
 16 22  1  0
 17 18  1  0
 18 19  1  0
 18 20  2  3
 20 21  1  0
 22 23  2  0
 22 24  1  0
M  END
