
     RDKit          3D

 25 27  0  0  0  0  0  0  0  0999 V2000
    0.4670   -1.0210   -1.1880 O   0  0  0  0  0  0  0  0  0  0  0  0
    1.2460   -0.3680   -0.4120 C   0  0  0  0  0  0  0  0  0  0  0  0
    2.6660   -0.5750   -0.5850 C   0  0  0  0  0  0  0  0  0  0  0  0
    3.5250    0.1090    0.3100 O   0  0  0  0  0  0  0  0  0  0  0  0
    4.8850   -0.1470    0.1200 C   0  0  0  0  0  0  0  0  0  0  0  0
    5.8590    0.6820    0.3890 C   0  0  0  0  0  0  0  0  0  0  0  0
    7.1300    0.0050    0.0360 C   0  0  1  0  0  0  0  0  0  0  0  0
    8.1700   -0.2580    1.6550 Br  0  0  0  0  0  0  0  0  0  0  0  0
    6.7460   -1.3120   -0.4670 C   0  0  0  0  0  0  0  0  0  0  0  0
    5.4340   -1.3880   -0.4120 C   0  0  0  0  0  0  0  0  0  0  0  0
    0.6820    0.5180    0.5750 N   0  0  0  0  0  0  0  0  0  0  0  0
   -0.6950    0.5320    0.5690 O   0  0  0  0  0  0  0  0  0  0  0  0
   -1.3860    1.1320   -0.4240 C   0  0  0  0  0  0  0  0  0  0  0  0
   -0.7170    1.7180   -1.3510 O   0  0  0  0  0  0  0  0  0  0  0  0
   -2.8360    1.1920   -0.5600 C   0  0  0  0  0  0  0  0  0  0  0  0
   -3.4500    2.2970   -1.1220 C   0  0  0  0  0  0  0  0  0  0  0  0
   -4.8180    2.3920   -1.1880 C   0  0  0  0  0  0  0  0  0  0  0  0
   -5.3510    3.4010   -1.7030 O   0  0  0  0  0  0  0  0  0  0  0  0
   -5.5990    1.4170   -0.7100 N   0  0  0  0  0  0  0  0  0  0  0  0
   -5.0510    0.3160   -0.1510 C   0  0  0  0  0  0  0  0  0  0  0  0
   -5.8990   -0.6830    0.3180 C   0  0  0  0  0  0  0  0  0  0  0  0
   -5.2950   -1.7910    0.8590 C   0  0  0  0  0  0  0  0  0  0  0  0
   -3.9560   -1.9540    0.9540 C   0  0  0  0  0  0  0  0  0  0  0  0
   -3.1160   -0.9470    0.4800 C   0  0  0  0  0  0  0  0  0  0  0  0
   -3.6570    0.1900   -0.0710 C   0  0  0  0  0  0  0  0  0  0  0  0
  1  2  2  0
  2  3  1  0
  2 11  1  0
  3  4  1  0
  4  5  1  0
  5  6  2  0
  5 10  1  0
  6  7  1  0
  7  8  1  1
  7  9  1  0
  9 10  2  0
 11 12  1  0
 12 13  1  0
 13 14  2  0
 13 15  1  0
 15 16  2  0
 15 25  1  0
 16 17  1  0
 17 18  2  0
 17 19  1  0
 19 20  1  0
 20 21  2  0
 20 25  1  0
 21 22  1  0
 22 23  2  0
 23 24  1  0
 24 25  2  0
M  END
