
     RDKit          3D

 19 21  0  0  0  0  0  0  0  0999 V2000
    6.2850   -0.7570    2.0980 N   0  0  0  0  0  0  0  0  0  0  0  0
    5.2410   -0.3580    1.1670 C   0  0  0  0  0  0  0  0  0  0  0  0
    4.1210   -0.0960    1.0890 N   0  0  0  0  0  0  0  0  0  0  0  0
    3.3590    0.2530    0.0840 C   0  0  0  0  0  0  0  0  0  0  0  0
    1.9030    0.5670    0.1330 C   0  0  0  0  0  0  0  0  0  0  0  0
    1.2340    0.9190   -1.0040 C   0  0  0  0  0  0  0  0  0  0  0  0
   -0.1200    1.2180   -0.9980 C   0  0  0  0  0  0  0  0  0  0  0  0
   -0.8130    1.1590    0.1900 C   0  0  0  0  0  0  0  0  0  0  0  0
   -2.2790    1.4750    0.2370 C   0  0  0  0  0  0  0  0  0  0  0  0
   -3.0950    0.2500    0.0140 C   0  0  0  0  0  0  0  0  0  0  0  0
   -3.5000   -0.1670   -1.2310 C   0  0  0  0  0  0  0  0  0  0  0  0
   -4.2570   -1.3180   -1.3570 C   0  0  0  0  0  0  0  0  0  0  0  0
   -4.6230   -2.0670   -0.2700 C   0  0  0  0  0  0  0  0  0  0  0  0
   -4.2340   -1.6760    0.9780 C   0  0  0  0  0  0  0  0  0  0  0  0
   -3.4730   -0.5200    1.1080 C   0  0  0  0  0  0  0  0  0  0  0  0
   -0.1600    0.8090    1.3320 C   0  0  0  0  0  0  0  0  0  0  0  0
    1.2030    0.5110    1.3110 C   0  0  0  0  0  0  0  0  0  0  0  0
    4.0830    0.3120   -1.1360 C   0  0  0  0  0  0  0  0  0  0  0  0
    5.7600   -0.1490   -0.6380 S   0  0  0  0  0  0  0  0  0  0  0  0
  1  2  1  0
  2  3  2  0
  2 19  1  0
  3  4  1  0
  4  5  1  0
  4 18  2  0
  5  6  2  0
  5 17  1  0
  6  7  1  0
  7  8  2  0
  8  9  1  0
  8 16  1  0
  9 10  1  0
 10 11  2  0
 10 15  1  0
 11 12  1  0
 12 13  2  0
 13 14  1  0
 14 15  2  0
 16 17  2  0
 18 19  1  0
M  END
