
     RDKit          3D

 25 27  0  0  0  0  0  0  0  0999 V2000
   -6.0580    0.7290   -1.1490 C   0  0  0  0  0  0  0  0  0  0  0  0
   -5.9260   -0.7380   -1.4430 C   0  0  0  0  0  0  0  0  0  0  0  0
   -5.3940   -1.4730   -0.3760 O   0  0  0  0  0  0  0  0  0  0  0  0
   -4.1210   -1.2080    0.1000 C   0  0  0  0  0  0  0  0  0  0  0  0
   -3.2740   -0.2500   -0.4010 C   0  0  0  0  0  0  0  0  0  0  0  0
   -2.0150   -0.0180    0.1000 C   0  0  0  0  0  0  0  0  0  0  0  0
   -1.5200   -0.7470    1.1540 C   0  0  0  0  0  0  0  0  0  0  0  0
   -2.3680   -1.7210    1.6710 C   0  0  0  0  0  0  0  0  0  0  0  0
   -3.6270   -1.9570    1.1740 C   0  0  0  0  0  0  0  0  0  0  0  0
   -4.7420   -3.3180    1.9380 Br  0  0  0  0  0  0  0  0  0  0  0  0
   -0.2550   -0.5300    1.6740 O   0  0  0  0  0  0  0  0  0  0  0  0
    0.5960    0.4640    1.1380 C   0  0  0  0  0  0  0  0  0  0  0  0
    1.7960    0.6640    1.6380 C   0  0  0  0  0  0  0  0  0  0  0  0
    2.7110    1.6610    1.1360 C   0  0  1  0  0  0  0  0  0  0  0  0
    4.0190    1.0780    0.6940 C   0  0  0  0  0  0  0  0  0  0  0  0
    5.1280    1.3860    1.1790 O   0  0  0  0  0  0  0  0  0  0  0  0
    3.9650    0.1110   -0.3460 N   0  0  0  0  0  0  0  0  0  0  0  0
    5.1220   -0.5400   -0.8810 C   0  0  0  0  0  0  0  0  0  0  0  0
    5.8950   -1.3310    0.1560 C   0  0  0  0  0  0  0  0  0  0  0  0
    4.9990   -2.2990    0.6530 O   0  0  0  0  0  0  0  0  0  0  0  0
    2.2010    2.4450    0.0160 C   0  0  0  0  0  0  0  0  0  0  0  0
    2.9590    3.3690   -0.5020 O   0  0  0  0  0  0  0  0  0  0  0  0
    0.9180    2.2340   -0.5220 N   0  0  0  0  0  0  0  0  0  0  0  0
    0.0740    1.2360    0.0230 C   0  0  0  0  0  0  0  0  0  0  0  0
   -1.1260    1.0110   -0.4510 C   0  0  0  0  0  0  0  0  0  0  0  0
  1  2  1  0
  2  3  1  0
  3  4  1  0
  4  5  2  0
  4  9  1  0
  5  6  1  0
  6  7  2  0
  6 25  1  0
  7  8  1  0
  7 11  1  0
  8  9  2  0
  9 10  1  0
 11 12  1  0
 12 13  2  0
 12 24  1  0
 13 14  1  0
 14 15  1  6
 14 21  1  0
 15 16  2  0
 15 17  1  0
 17 18  1  0
 18 19  1  0
 19 20  1  0
 21 22  2  0
 21 23  1  0
 23 24  1  0
 24 25  2  0
M  END
