
     RDKit          3D

 22 21  0  0  0  0  0  0  0  0999 V2000
    8.2920    0.4760   -0.9330 C   0  0  0  0  0  0  0  0  0  0  0  0
    7.0220    1.3160   -1.1450 C   0  0  0  0  0  0  0  0  0  0  0  0
    6.4940    1.7820    0.1890 C   0  0  0  0  0  0  0  0  0  0  0  0
    5.2700    2.6180   -0.0230 C   0  0  0  0  0  0  0  0  0  0  0  0
    4.1900    1.8620   -0.7170 C   0  0  0  0  0  0  0  0  0  0  0  0
    3.8130    0.6430    0.1160 C   0  0  0  0  0  0  0  0  0  0  0  0
    2.7110   -0.1020   -0.6010 C   0  0  0  0  0  0  0  0  0  0  0  0
    2.3120   -1.3320    0.1580 C   0  0  0  0  0  0  0  0  0  0  0  0
    1.8090   -0.9730    1.5290 C   0  0  0  0  0  0  0  0  0  0  0  0
    0.6290   -0.0550    1.4190 C   0  0  0  0  0  0  0  0  0  0  0  0
   -0.5220   -0.6280    0.6700 C   0  0  0  0  0  0  0  0  0  0  0  0
   -1.0720   -1.8860    1.2710 C   0  0  0  0  0  0  0  0  0  0  0  0
   -2.2180   -2.4300    0.4910 C   0  0  0  0  0  0  0  0  0  0  0  0
   -3.4020   -1.4940    0.3780 C   0  0  0  0  0  0  0  0  0  0  0  0
   -4.4350   -2.2440   -0.4470 C   0  0  0  0  0  0  0  0  0  0  0  0
   -5.7020   -1.4420   -0.6610 C   0  0  0  0  0  0  0  0  0  0  0  0
   -5.4530   -0.1570   -1.3750 C   0  0  0  0  0  0  0  0  0  0  0  0
   -6.7500    0.5820   -1.5680 C   0  0  0  0  0  0  0  0  0  0  0  0
   -7.4460    0.9240   -0.2760 C   0  0  0  0  0  0  0  0  0  0  0  0
   -6.5210    1.7840    0.5180 C   0  0  0  0  0  0  0  0  0  0  0  0
   -6.3730    3.0140    0.3090 O   0  0  0  0  0  0  0  0  0  0  0  0
   -5.7900    1.1920    1.5350 O   0  0  0  0  0  0  0  0  0  0  0  0
  1  2  1  0
  2  3  1  0
  3  4  1  0
  4  5  1  0
  5  6  1  0
  6  7  1  0
  7  8  1  0
  8  9  1  0
  9 10  1  0
 10 11  1  0
 11 12  1  0
 12 13  1  0
 13 14  1  0
 14 15  1  0
 15 16  1  0
 16 17  1  0
 17 18  1  0
 18 19  1  0
 19 20  1  0
 20 21  2  0
 20 22  1  0
M  END
