
     RDKit          3D

 22 22  0  0  0  0  0  0  0  0999 V2000
   -4.0880    1.3030    2.4980 C   0  0  0  0  0  0  0  0  0  0  0  0
   -2.6690    1.7240    2.6220 C   0  0  0  0  0  0  0  0  0  0  0  0
   -1.6270    0.7540    2.2000 C   0  0  0  0  0  0  0  0  0  0  0  0
   -1.6950    0.2820    0.7980 C   0  0  1  0  0  0  0  0  0  0  0  0
   -1.6700    1.2180   -0.3250 C   0  0  0  0  0  0  0  0  0  0  0  0
   -1.8170    0.4600   -1.6740 C   0  0  2  0  0  0  0  0  0  0  0  0
   -1.7650    1.4780   -2.8010 C   0  0  0  0  0  0  0  0  0  0  0  0
   -3.1970   -0.1870   -1.6620 C   0  0  0  0  0  0  0  0  0  0  0  0
   -0.5810   -0.7380    0.6400 C   0  0  0  0  0  0  0  0  0  0  0  0
   -0.8100   -2.0740    0.7590 C   0  0  0  0  0  0  0  0  0  0  0  0
    0.1590   -3.0280    0.4770 C   0  0  0  0  0  0  0  0  0  0  0  0
    1.3900   -2.6200    0.0630 C   0  0  0  0  0  0  0  0  0  0  0  0
    2.4610   -3.6130   -0.2420 C   0  0  2  0  0  0  0  0  0  0  0  0
    2.1460   -4.2710   -1.5660 C   0  0  0  0  0  0  0  0  0  0  0  0
    2.5490   -4.6720    0.8200 C   0  0  0  0  0  0  0  0  0  0  0  0
    1.6380   -1.2890   -0.0580 C   0  0  0  0  0  0  0  0  0  0  0  0
    0.6700   -0.3450    0.2270 C   0  0  0  0  0  0  0  0  0  0  0  0
    1.0330    0.9670    0.0900 O   0  0  0  0  0  0  0  0  0  0  0  0
    2.3030    1.4310   -0.2970 C   0  0  0  0  0  0  0  0  0  0  0  0
    2.3850    2.9420   -0.2640 C   0  0  0  0  0  0  0  0  0  0  0  0
    3.6810    3.3230   -0.6260 O   0  0  0  0  0  0  0  0  0  0  0  0
    3.8150    4.7170   -0.5340 C   0  0  0  0  0  0  0  0  0  0  0  0
  1  2  1  0
  2  3  1  0
  4  3  1  1
  4  5  1  0
  4  9  1  0
  5  6  1  0
  6  7  1  6
  6  8  1  0
  9 10  2  0
  9 17  1  0
 10 11  1  0
 11 12  2  0
 12 13  1  0
 12 16  1  0
 13 14  1  6
 13 15  1  0
 16 17  2  0
 17 18  1  0
 18 19  1  0
 19 20  1  0
 20 21  1  0
 21 22  1  0
M  END
