
     RDKit          3D

 22 22  0  0  0  0  0  0  0  0999 V2000
    6.4190   -1.5240   -1.8610 C   0  0  0  0  0  0  0  0  0  0  0  0
    4.9310   -1.3380   -2.1550 C   0  0  0  0  0  0  0  0  0  0  0  0
    4.4480   -0.2750   -1.1990 C   0  0  0  0  0  0  0  0  0  0  0  0
    3.4960   -0.5690   -0.3450 C   0  0  0  0  0  0  0  0  0  0  0  0
    2.9780    0.3830    0.5980 C   0  0  0  0  0  0  0  0  0  0  0  0
    3.4800    1.6520    0.6610 C   0  0  0  0  0  0  0  0  0  0  0  0
    3.0140    2.6050    1.5740 C   0  0  0  0  0  0  0  0  0  0  0  0
    2.0140    2.2050    2.4170 C   0  0  0  0  0  0  0  0  0  0  0  0
    1.4990    0.9330    2.3660 C   0  0  0  0  0  0  0  0  0  0  0  0
    1.9710    0.0090    1.4590 C   0  0  0  0  0  0  0  0  0  0  0  0
    1.3500   -1.3570    1.4350 C   0  0  0  0  0  0  0  0  0  0  0  0
    0.3660   -1.4020    0.3010 C   0  0  0  0  0  0  0  0  0  0  0  0
   -0.6890   -0.3450    0.5390 C   0  0  0  0  0  0  0  0  0  0  0  0
   -1.7330   -0.3220   -0.5760 C   0  0  0  0  0  0  0  0  0  0  0  0
   -2.7260    0.7270   -0.2440 C   0  0  2  0  0  0  0  0  0  0  0  0
   -3.5050    0.5760    1.0010 C   0  0  0  0  0  0  0  0  0  0  0  0
   -4.4000   -0.5920    1.1440 C   0  0  0  0  0  0  0  0  0  0  0  0
   -3.8330   -1.9550    1.0840 C   0  0  0  0  0  0  0  0  0  0  0  0
   -3.6460    1.0270   -1.3880 C   0  0  0  0  0  0  0  0  0  0  0  0
   -3.5740    0.4450   -2.4980 O   0  0  0  0  0  0  0  0  0  0  0  0
   -4.6340    1.9890   -1.2450 O   0  0  0  0  0  0  0  0  0  0  0  0
   -5.5390    2.3250   -2.2820 C   0  0  0  0  0  0  0  0  0  0  0  0
  1  2  1  0
  2  3  1  0
  3  4  2  3
  4  5  1  0
  5  6  2  0
  5 10  1  0
  6  7  1  0
  7  8  2  0
  8  9  1  0
  9 10  2  0
 10 11  1  0
 11 12  1  0
 12 13  1  0
 13 14  1  0
 15 14  1  6
 15 16  1  0
 15 19  1  0
 16 17  1  0
 17 18  1  0
 19 20  2  0
 19 21  1  0
 21 22  1  0
M  END
