
     RDKit          3D

 22 22  0  0  0  0  0  0  0  0999 V2000
   -1.1480    4.7600    0.1080 C   0  0  0  0  0  0  0  0  0  0  0  0
   -0.5820    3.6520   -0.7640 C   0  0  0  0  0  0  0  0  0  0  0  0
   -1.6200    2.5620   -0.8210 C   0  0  0  0  0  0  0  0  0  0  0  0
   -1.2460    1.3810   -1.6440 C   0  0  0  0  0  0  0  0  0  0  0  0
    0.0370    0.6770   -1.1550 C   0  0  0  0  0  0  0  0  0  0  0  0
   -0.1950    0.2160    0.2200 C   0  0  1  0  0  0  0  0  0  0  0  0
   -1.3980   -0.7250    0.1360 C   0  0  0  0  0  0  0  0  0  0  0  0
   -2.5650   -0.4710    0.8150 C   0  0  0  0  0  0  0  0  0  0  0  0
   -3.6600   -1.3260    0.7420 C   0  0  0  0  0  0  0  0  0  0  0  0
   -3.5630   -2.4580   -0.0370 C   0  0  0  0  0  0  0  0  0  0  0  0
   -4.6990   -3.4400   -0.1600 C   0  0  0  0  0  0  0  0  0  0  0  0
   -4.5610   -4.5150    0.9080 C   0  0  0  0  0  0  0  0  0  0  0  0
   -2.4100   -2.7450   -0.7310 C   0  0  0  0  0  0  0  0  0  0  0  0
   -1.3360   -1.8650   -0.6320 C   0  0  0  0  0  0  0  0  0  0  0  0
    0.8170   -0.5140    0.9750 C   0  0  2  0  0  0  0  0  0  0  0  0
    0.2600   -0.7830    2.2560 O   0  0  0  0  0  0  0  0  0  0  0  0
    2.1860   -0.0670    1.1550 C   0  0  0  0  0  0  0  0  0  0  0  0
    3.0600    0.0830   -0.0140 C   0  0  0  0  0  0  0  0  0  0  0  0
    2.7980   -0.2170   -1.1490 O   0  0  0  0  0  0  0  0  0  0  0  0
    4.4330    0.6690    0.1940 C   0  0  0  0  0  0  0  0  0  0  0  0
    5.4870   -0.4230    0.0750 C   0  0  0  0  0  0  0  0  0  0  0  0
    6.8490    0.1870    0.2840 C   0  0  0  0  0  0  0  0  0  0  0  0
  1  2  1  0
  2  3  1  0
  3  4  1  0
  4  5  1  0
  6  5  1  6
  6  7  1  0
  6 15  1  0
  7  8  2  0
  7 14  1  0
  8  9  1  0
  9 10  2  0
 10 11  1  0
 10 13  1  0
 11 12  1  0
 13 14  2  0
 15 16  1  1
 15 17  1  0
 17 18  1  0
 18 19  2  0
 18 20  1  0
 20 21  1  0
 21 22  1  0
M  END
