
     RDKit          3D

 26 28  0  0  0  0  0  0  0  0999 V2000
   -2.7750    1.9670    1.7960 C   0  0  0  0  0  0  0  0  0  0  0  0
   -2.8480    0.6610    1.0260 C   0  0  1  0  0  0  0  0  0  0  0  0
   -3.5310   -0.3150    1.6890 O   0  0  0  0  0  0  0  0  0  0  0  0
   -3.3920    0.9800   -0.3610 C   0  0  0  0  0  0  0  0  0  0  0  0
   -3.2530   -0.2580   -1.1540 C   0  0  0  0  0  0  0  0  0  0  0  0
   -3.6710   -0.2880   -2.3980 C   0  0  0  0  0  0  0  0  0  0  0  0
   -3.5140   -1.4730   -3.0880 F   0  0  0  0  0  0  0  0  0  0  0  0
   -4.2960    0.8230   -3.1500 C   0  0  0  0  0  0  0  0  0  0  0  0
   -4.4490    2.0430   -2.4380 N   0  0  0  0  0  0  0  0  0  0  0  0
   -2.6460   -1.4470   -0.5600 C   0  0  0  0  0  0  0  0  0  0  0  0
   -1.3090   -1.1320    0.1270 C   0  0  1  0  0  0  0  0  0  0  0  0
   -1.0920   -2.2280    1.1460 C   0  0  0  0  0  0  0  0  0  0  0  0
   -0.2890   -1.0930   -0.9370 C   0  0  0  0  0  0  0  0  0  0  0  0
    1.1160   -0.8330   -0.6280 C   0  0  0  0  0  0  0  0  0  0  0  0
    1.5370    0.4190    0.0120 C   0  0  0  0  0  0  0  0  0  0  0  0
    3.0430    0.3550    0.1540 C   0  0  0  0  0  0  0  0  0  0  0  0
    3.8690    0.8340   -0.8290 C   0  0  0  0  0  0  0  0  0  0  0  0
    5.2260    0.7460   -0.6490 C   0  0  0  0  0  0  0  0  0  0  0  0
    5.7730    0.1930    0.4880 C   0  0  0  0  0  0  0  0  0  0  0  0
    7.0350   -0.0260    0.9390 N   0  0  0  0  0  0  0  0  0  0  0  0
    7.0080   -0.6080    2.1340 C   0  0  0  0  0  0  0  0  0  0  0  0
    7.9450   -0.9790    2.8970 O   0  0  0  0  0  0  0  0  0  0  0  0
    5.7060   -0.7610    2.4480 N   0  0  0  0  0  0  0  0  0  0  0  0
    4.9170   -0.2870    1.4750 C   0  0  0  0  0  0  0  0  0  0  0  0
    3.5450   -0.2010    1.2970 C   0  0  0  0  0  0  0  0  0  0  0  0
   -1.3980    0.2250    0.8050 C   0  0  0  0  0  0  0  0  0  0  0  0
  2  1  1  1
  2  3  1  0
  2  4  1  0
  2 26  1  0
  4  5  1  0
  5  6  2  3
  5 10  1  0
  6  7  1  0
  6  8  1  0
  8  9  1  0
 10 11  1  0
 11 12  1  1
 11 13  1  0
 11 26  1  0
 13 14  1  0
 14 15  1  0
 15 16  1  0
 16 17  2  0
 16 25  1  0
 17 18  1  0
 18 19  2  0
 19 20  1  0
 19 24  1  0
 20 21  1  0
 21 22  2  0
 21 23  1  0
 23 24  1  0
 24 25  2  0
M  END
