
     RDKit          3D

 17 18  0  0  0  0  0  0  0  0999 V2000
   -4.9410   -1.8060   -0.2460 C   0  0  0  0  0  0  0  0  0  0  0  0
   -4.4560   -0.4020   -0.4110 C   0  0  0  0  0  0  0  0  0  0  0  0
   -3.1830   -0.0340   -0.3100 C   0  0  0  0  0  0  0  0  0  0  0  0
   -2.0600   -0.9630   -0.0190 C   0  0  0  0  0  0  0  0  0  0  0  0
   -1.4100   -0.4880    1.2720 C   0  0  0  0  0  0  0  0  0  0  0  0
   -0.2740   -1.4040    1.5940 C   0  0  0  0  0  0  0  0  0  0  0  0
    0.7800   -1.4380    0.5250 C   0  0  0  0  0  0  0  0  0  0  0  0
    1.3330   -0.0560    0.3520 C   0  0  0  0  0  0  0  0  0  0  0  0
    2.4140   -0.0060   -0.7210 C   0  0  1  0  0  0  0  0  0  0  0  0
    2.8780    1.4370   -0.7870 C   0  0  0  0  0  0  0  0  0  0  0  0
    4.0150    1.5840    0.1990 C   0  0  0  0  0  0  0  0  0  0  0  0
    5.1960    0.8160   -0.3600 C   0  0  0  0  0  0  0  0  0  0  0  0
    4.6550   -0.4620   -0.9720 C   0  0  0  0  0  0  0  0  0  0  0  0
    3.4730   -0.8600   -0.3840 O   0  0  0  0  0  0  0  0  0  0  0  0
   -3.0410    1.4130   -0.5250 C   0  0  0  0  0  0  0  0  0  0  0  0
   -4.4630    1.8430   -0.8660 C   0  0  0  0  0  0  0  0  0  0  0  0
   -5.2610    0.6930   -0.6890 O   0  0  0  0  0  0  0  0  0  0  0  0
  1  2  1  0
  2  3  2  0
  2 17  1  0
  3  4  1  0
  3 15  1  0
  4  5  1  0
  5  6  1  0
  6  7  1  0
  7  8  1  0
  9  8  1  1
  9 10  1  0
  9 14  1  0
 10 11  1  0
 11 12  1  0
 12 13  1  0
 13 14  1  0
 15 16  1  0
 16 17  1  0
M  END
