
     RDKit          3D

 20 19  0  0  0  0  0  0  0  0999 V2000
    3.5990    2.4760    0.4180 C   0  0  0  0  0  0  0  0  0  0  0  0
    4.0560    1.3820   -0.1130 C   0  0  0  0  0  0  0  0  0  0  0  0
    3.3600    0.1440   -0.1800 C   0  0  0  0  0  0  0  0  0  0  0  0
    3.8930   -0.9230   -0.7350 C   0  0  0  0  0  0  0  0  0  0  0  0
    5.1640   -1.1010   -1.3470 C   0  0  0  0  0  0  0  0  0  0  0  0
    6.0430   -0.2380   -1.4740 O   0  0  0  0  0  0  0  0  0  0  0  0
    2.0110    0.0070    0.3720 C   0  0  0  0  0  0  0  0  0  0  0  0
    1.3770    0.9210    0.9260 O   0  0  0  0  0  0  0  0  0  0  0  0
    1.3340   -1.2210    0.3000 O   0  0  0  0  0  0  0  0  0  0  0  0
    0.0360   -1.3590    0.8250 C   0  0  2  0  0  0  0  0  0  0  0  0
    0.1000   -2.2420    1.9030 F   0  0  0  0  0  0  0  0  0  0  0  0
   -0.9480   -1.8670   -0.2140 C   0  0  0  0  0  0  0  0  0  0  0  0
   -2.2060   -2.0320    0.2260 O   0  0  0  0  0  0  0  0  0  0  0  0
   -2.9550   -1.0090    0.6730 C   0  0  0  0  0  0  0  0  0  0  0  0
   -3.3360    0.0770   -0.2570 C   0  0  1  0  0  0  0  0  0  0  0  0
   -4.1890    1.0670    0.5680 C   0  0  0  0  0  0  0  0  0  0  0  0
   -5.2870    0.3790    1.0370 O   0  0  0  0  0  0  0  0  0  0  0  0
   -2.2700    0.8920   -0.8310 C   0  0  0  0  0  0  0  0  0  0  0  0
   -2.1350    0.8720   -2.1030 O   0  0  0  0  0  0  0  0  0  0  0  0
   -1.3940    1.6810   -0.1400 O   0  0  0  0  0  0  0  0  0  0  0  0
  1  2  2  0
  2  3  1  0
  3  4  2  3
  3  7  1  0
  4  5  1  0
  5  6  2  0
  7  8  2  0
  7  9  1  0
  9 10  1  0
 10 11  1  1
 10 12  1  0
 12 13  1  0
 13 14  1  0
 15 14  1  1
 15 16  1  0
 15 18  1  0
 16 17  1  0
 18 19  2  0
 18 20  1  0
M  END
