
     RDKit          3D

 20 20  0  0  0  0  0  0  0  0999 V2000
   -1.3990    0.8210   -1.3390 O   0  0  0  0  0  0  0  0  0  0  0  0
   -2.2300    0.2470   -0.5910 C   0  0  0  0  0  0  0  0  0  0  0  0
   -1.8930   -1.0410   -0.2050 O   0  0  0  0  0  0  0  0  0  0  0  0
   -0.7240   -1.6590   -0.6100 C   0  0  0  0  0  0  0  0  0  0  0  0
    0.5550   -0.9660   -0.1990 C   0  0  0  0  0  0  0  0  0  0  0  0
    1.6770   -1.8200   -0.7490 C   0  0  0  0  0  0  0  0  0  0  0  0
    2.9370   -1.3680   -0.5000 O   0  0  0  0  0  0  0  0  0  0  0  0
    3.2220   -1.2700    0.8360 C   0  0  0  0  0  0  0  0  0  0  0  0
    4.6420   -0.7820    1.0850 C   0  0  0  0  0  0  0  0  0  0  0  0
    4.8600    0.5880    0.4760 C   0  0  0  0  0  0  0  0  0  0  0  0
    6.1650    0.9880    0.7290 O   0  0  0  0  0  0  0  0  0  0  0  0
    6.4390    2.1610    0.2390 O   0  0  0  0  0  0  0  0  0  0  0  0
    6.9200    2.0860   -0.9920 O   0  0  0  0  0  0  0  0  0  0  0  0
   -3.4890    0.8400   -0.1220 C   0  0  1  0  0  0  0  0  0  0  0  0
   -3.6770    2.2340   -0.6440 C   0  0  0  0  0  0  0  0  0  0  0  0
   -3.6940    2.1790   -2.0230 F   0  0  0  0  0  0  0  0  0  0  0  0
   -4.7040    0.0300   -0.5930 C   0  0  0  0  0  0  0  0  0  0  0  0
   -5.6880    0.3410    0.4950 C   0  0  0  0  0  0  0  0  0  0  0  0
   -5.0030    0.6340    1.6410 O   0  0  0  0  0  0  0  0  0  0  0  0
   -3.6670    0.7370    1.3720 C   0  0  0  0  0  0  0  0  0  0  0  0
  1  2  2  0
  2  3  1  0
  2 14  1  0
  3  4  1  0
  4  5  1  0
  5  6  1  0
  6  7  1  0
  7  8  1  0
  8  9  1  0
  9 10  1  0
 10 11  1  0
 11 12  1  0
 12 13  1  0
 14 15  1  6
 14 17  1  0
 14 20  1  0
 15 16  1  0
 17 18  1  0
 18 19  1  0
 19 20  1  0
M  END
