
     RDKit          3D

 20 20  0  0  0  0  0  0  0  0999 V2000
    3.5760    1.0730   -0.9010 C   0  0  0  0  0  0  0  0  0  0  0  0
    3.5250   -0.3700   -0.5410 C   0  0  1  0  0  0  0  0  0  0  0  0
    3.3020   -0.4780    0.8270 F   0  0  0  0  0  0  0  0  0  0  0  0
    2.3770   -0.9810   -1.3180 C   0  0  0  0  0  0  0  0  0  0  0  0
    1.1940   -0.4000   -1.0660 O   0  0  0  0  0  0  0  0  0  0  0  0
    0.7440   -0.4550    0.2130 C   0  0  0  0  0  0  0  0  0  0  0  0
   -0.6780    0.1940    0.1690 C   0  0  0  0  0  0  0  0  0  0  0  0
   -1.1360    0.1400    1.4620 O   0  0  0  0  0  0  0  0  0  0  0  0
   -2.3190    0.6390    1.6350 O   0  0  0  0  0  0  0  0  0  0  0  0
   -3.2880   -0.2950    1.2770 C   0  0  0  0  0  0  0  0  0  0  0  0
   -4.6880    0.2500    1.4640 C   0  0  2  0  0  0  0  0  0  0  0  0
   -5.6500   -0.8340    1.0500 C   0  0  0  0  0  0  0  0  0  0  0  0
   -6.0800   -0.3730   -0.3220 C   0  0  0  0  0  0  0  0  0  0  0  0
   -6.1790    1.0100   -0.1470 O   0  0  0  0  0  0  0  0  0  0  0  0
   -4.9280    1.3100    0.4290 C   0  0  0  0  0  0  0  0  0  0  0  0
    4.7570   -1.1790   -0.8830 C   0  0  0  0  0  0  0  0  0  0  0  0
    5.9110   -0.7880   -0.2790 O   0  0  0  0  0  0  0  0  0  0  0  0
    6.6810    0.3190   -0.4160 C   0  0  0  0  0  0  0  0  0  0  0  0
    6.4050    1.2290   -1.2240 O   0  0  0  0  0  0  0  0  0  0  0  0
    7.8450    0.5240    0.3400 O   0  0  0  0  0  0  0  0  0  0  0  0
  2  1  1  6
  2  3  1  0
  2  4  1  0
  2 16  1  0
  4  5  1  0
  5  6  1  0
  6  7  1  0
  7  8  1  0
  8  9  1  0
  9 10  1  0
 11 10  1  6
 11 12  1  0
 11 15  1  0
 12 13  1  0
 13 14  1  0
 14 15  1  0
 16 17  1  0
 17 18  1  0
 18 19  2  0
 18 20  1  0
M  END
