
     RDKit          3D

 20 20  0  0  0  0  0  0  0  0999 V2000
   -2.1720    0.5880    1.0670 C   0  0  0  0  0  0  0  0  0  0  0  0
   -2.0030    0.4870   -0.4500 C   0  0  2  0  0  0  0  0  0  0  0  0
   -0.5250    0.4040   -0.6470 C   0  0  0  0  0  0  0  0  0  0  0  0
   -0.0800   -0.4960    0.3280 O   0  0  0  0  0  0  0  0  0  0  0  0
    1.2280   -0.4290    0.5880 C   0  0  0  0  0  0  0  0  0  0  0  0
    2.1210   -0.5370   -0.6370 C   0  0  0  0  0  0  0  0  0  0  0  0
    3.5250   -0.5420   -0.2470 C   0  0  0  0  0  0  0  0  0  0  0  0
    3.9540    0.3170    0.9240 C   0  0  0  0  0  0  0  0  0  0  0  0
    5.1310   -0.3950    1.3440 O   0  0  0  0  0  0  0  0  0  0  0  0
    6.0960   -0.2210    0.5960 O   0  0  0  0  0  0  0  0  0  0  0  0
    6.0070    0.7700   -0.2260 O   0  0  0  0  0  0  0  0  0  0  0  0
    7.3220    1.0430   -0.4620 O   0  0  0  0  0  0  0  0  0  0  0  0
   -2.5530    1.5330   -1.1490 O   0  0  0  0  0  0  0  0  0  0  0  0
   -2.2010    2.7650   -0.5820 C   0  0  0  0  0  0  0  0  0  0  0  0
   -2.6450    3.7650   -1.3880 F   0  0  0  0  0  0  0  0  0  0  0  0
   -2.7210   -0.7460   -0.9650 C   0  0  2  0  0  0  0  0  0  0  0  0
   -4.1940   -0.6570   -0.5320 C   0  0  0  0  0  0  0  0  0  0  0  0
   -4.1720   -1.5960    0.6600 C   0  0  0  0  0  0  0  0  0  0  0  0
   -2.8330   -1.9500    0.8940 O   0  0  0  0  0  0  0  0  0  0  0  0
   -2.3260   -2.0360   -0.3870 C   0  0  0  0  0  0  0  0  0  0  0  0
  2  1  1  1
  2  3  1  0
  2 13  1  0
  2 16  1  0
  3  4  1  0
  4  5  1  0
  5  6  1  0
  6  7  1  0
  7  8  1  0
  8  9  1  0
  9 10  1  0
 10 11  1  0
 11 12  1  0
 13 14  1  0
 14 15  1  0
 16 17  1  1
 16 20  1  0
 17 18  1  0
 18 19  1  0
 19 20  1  0
M  END
