
     RDKit          3D

 20 20  0  0  0  0  0  0  0  0999 V2000
   -5.7140   -0.7310    1.6830 C   0  0  0  0  0  0  0  0  0  0  0  0
   -4.5260   -0.3650    0.8240 C   0  0  0  0  0  0  0  0  0  0  0  0
   -3.4320   -0.1100    1.3540 O   0  0  0  0  0  0  0  0  0  0  0  0
   -4.6970   -0.3280   -0.4970 O   0  0  0  0  0  0  0  0  0  0  0  0
   -3.8920   -0.0480   -1.5500 C   0  0  0  0  0  0  0  0  0  0  0  0
   -3.3020    1.3080   -1.6140 C   0  0  0  0  0  0  0  0  0  0  0  0
   -2.4530    1.6020   -0.5480 O   0  0  0  0  0  0  0  0  0  0  0  0
   -1.2250    0.8830   -0.4630 C   0  0  0  0  0  0  0  0  0  0  0  0
   -0.9560    0.0270   -1.3350 O   0  0  0  0  0  0  0  0  0  0  0  0
   -0.3440    1.1130    0.5520 O   0  0  0  0  0  0  0  0  0  0  0  0
    0.8970    0.5040    0.7700 C   0  0  0  0  0  0  0  0  0  0  0  0
    1.8520    0.8410   -0.3240 C   0  0  2  0  0  0  0  0  0  0  0  0
    1.4520    0.4530   -1.5640 F   0  0  0  0  0  0  0  0  0  0  0  0
    3.2040    0.2770   -0.0310 C   0  0  0  0  0  0  0  0  0  0  0  0
    3.3630   -0.4780    1.0260 C   0  0  0  0  0  0  0  0  0  0  0  0
    4.7020   -1.0400    1.3260 C   0  0  0  0  0  0  0  0  0  0  0  0
    5.4810   -1.2540    0.0560 C   0  0  0  0  0  0  0  0  0  0  0  0
    5.5470   -0.0210   -0.6530 O   0  0  0  0  0  0  0  0  0  0  0  0
    4.3080    0.5670   -0.9660 C   0  0  0  0  0  0  0  0  0  0  0  0
    4.1370    1.2830   -1.9570 O   0  0  0  0  0  0  0  0  0  0  0  0
  1  2  1  0
  2  3  2  0
  2  4  1  0
  4  5  1  0
  5  6  1  0
  6  7  1  0
  7  8  1  0
  8  9  2  0
  8 10  1  0
 10 11  1  0
 11 12  1  0
 12 13  1  6
 12 14  1  0
 14 15  2  0
 14 19  1  0
 15 16  1  0
 16 17  1  0
 17 18  1  0
 18 19  1  0
 19 20  2  0
M  END
