
     RDKit          3D

 20 20  0  0  0  0  0  0  0  0999 V2000
   -5.9730    2.1060    0.2900 C   0  0  0  0  0  0  0  0  0  0  0  0
   -4.7590    1.3660    0.2810 O   0  0  0  0  0  0  0  0  0  0  0  0
   -4.4150    0.5350   -0.7820 C   0  0  0  0  0  0  0  0  0  0  0  0
   -5.2570    0.4890   -1.7330 O   0  0  0  0  0  0  0  0  0  0  0  0
   -3.1510   -0.2490   -0.8160 C   0  0  0  0  0  0  0  0  0  0  0  0
   -2.4020    0.0360    0.4460 C   0  0  0  0  0  0  0  0  0  0  0  0
   -1.0900   -0.7040    0.5370 C   0  0  1  0  0  0  0  0  0  0  0  0
   -1.2550   -2.1890    0.4920 C   0  0  0  0  0  0  0  0  0  0  0  0
   -0.1150   -2.7550    1.1060 O   0  0  0  0  0  0  0  0  0  0  0  0
    0.9990   -1.9240    0.9030 C   0  0  0  0  0  0  0  0  0  0  0  0
    0.8960   -1.1780   -0.3920 C   0  0  2  0  0  0  0  0  0  0  0  0
    0.8220   -2.1340   -1.4050 F   0  0  0  0  0  0  0  0  0  0  0  0
    2.1470   -0.3710   -0.6060 C   0  0  0  0  0  0  0  0  0  0  0  0
    2.3930    0.6350    0.4780 C   0  0  0  0  0  0  0  0  0  0  0  0
    3.6800    1.3890    0.1530 C   0  0  0  0  0  0  0  0  0  0  0  0
    4.7280    0.4550    0.0950 O   0  0  0  0  0  0  0  0  0  0  0  0
    6.0340    0.8150   -0.1800 C   0  0  0  0  0  0  0  0  0  0  0  0
    6.2820    2.0410   -0.3870 O   0  0  0  0  0  0  0  0  0  0  0  0
    7.0440   -0.1350   -0.2290 O   0  0  0  0  0  0  0  0  0  0  0  0
   -0.1920   -0.3160   -0.4340 O   0  0  0  0  0  0  0  0  0  0  0  0
  1  2  1  0
  2  3  1  0
  3  4  2  0
  3  5  1  0
  5  6  1  0
  7  6  1  6
  7  8  1  0
  7 20  1  0
  8  9  1  0
  9 10  1  0
 10 11  1  0
 11 12  1  6
 11 13  1  0
 11 20  1  0
 13 14  1  0
 14 15  1  0
 15 16  1  0
 16 17  1  0
 17 18  2  0
 17 19  1  0
M  END
