
     RDKit          3D

 27 27  0  0  0  0  0  0  0  0999 V2000
    6.7730    1.7800   -1.4160 C   0  0  0  0  0  0  0  0  0  0  0  0
    5.8340    0.7510   -1.0120 N   0  0  0  0  0  0  0  0  0  0  0  0
    5.2060    0.7860    0.2600 C   0  0  0  0  0  0  0  0  0  0  0  0
    5.4410    1.7180    1.0880 O   0  0  0  0  0  0  0  0  0  0  0  0
    4.3010   -0.1820    0.6820 O   0  0  0  0  0  0  0  0  0  0  0  0
    3.6790   -0.1250    1.9720 C   0  0  2  0  0  0  0  0  0  0  0  0
    4.0850   -1.6500    3.0460 Br  0  0  0  0  0  0  0  0  0  0  0  0
    2.2270    0.0410    1.7260 C   0  0  0  0  0  0  0  0  0  0  0  0
    1.4010    0.8970    2.3540 N   0  0  0  0  0  0  0  0  0  0  0  0
    0.1940    0.7270    1.8410 N   0  0  0  0  0  0  0  0  0  0  0  0
    0.2590   -0.2340    0.8900 C   0  0  0  0  0  0  0  0  0  0  0  0
   -0.8480   -0.7280    0.0780 C   0  0  0  0  0  0  0  0  0  0  0  0
   -0.6700   -1.6170   -0.7680 O   0  0  0  0  0  0  0  0  0  0  0  0
   -2.1030   -0.2010    0.2530 O   0  0  0  0  0  0  0  0  0  0  0  0
   -3.1840   -0.5680   -0.4240 O   0  0  0  0  0  0  0  0  0  0  0  0
   -4.2550    0.1800    0.0890 C   0  0  2  0  0  0  0  0  0  0  0  0
   -4.0190    1.6620   -0.0800 C   0  0  0  0  0  0  0  0  0  0  0  0
   -4.3890   -0.0890    1.4450 O   0  0  0  0  0  0  0  0  0  0  0  0
   -5.5110   -0.2430   -0.6770 C   0  0  2  0  0  0  0  0  0  0  0  0
   -5.3080    0.0350   -2.0630 N   0  0  0  0  0  0  0  0  0  0  0  0
   -5.7900    0.9660   -2.6260 O   0  0  0  0  0  0  0  0  0  0  0  0
   -6.6770    0.3800   -0.1250 N   0  0  0  0  0  0  0  0  0  0  0  0
   -6.6650    1.7120   -0.1480 O   0  0  0  0  0  0  0  0  0  0  0  0
    1.5360   -0.6680    0.8160 N   0  0  0  0  0  0  0  0  0  0  0  0
    1.9540   -1.6450   -0.0510 O   0  0  0  0  0  0  0  0  0  0  0  0
    1.7350   -2.9470    0.1480 O   0  0  0  0  0  0  0  0  0  0  0  0
    2.4610   -3.6690   -0.7990 C   0  0  0  0  0  0  0  0  0  0  0  0
  1  2  1  0
  2  3  1  0
  3  4  2  0
  3  5  1  0
  5  6  1  0
  6  7  1  6
  6  8  1  0
  8  9  2  0
  8 24  1  0
  9 10  1  0
 10 11  2  0
 11 12  1  0
 11 24  1  0
 12 13  2  0
 12 14  1  0
 14 15  1  0
 15 16  1  0
 16 17  1  1
 16 18  1  0
 16 19  1  0
 19 20  1  0
 19 22  1  1
 20 21  2  0
 22 23  1  0
 24 25  1  0
 25 26  1  0
 26 27  1  0
M  END
