
     RDKit          3D

 27 27  0  0  0  0  0  0  0  0999 V2000
   -2.4030   -0.4100    3.3630 C   0  0  0  0  0  0  0  0  0  0  0  0
   -3.1780   -0.0140    2.2160 N   0  0  0  0  0  0  0  0  0  0  0  0
   -3.9140   -0.9330    1.5700 O   0  0  0  0  0  0  0  0  0  0  0  0
   -3.1820    1.3190    1.7520 C   0  0  0  0  0  0  0  0  0  0  0  0
   -2.9360    1.6400    0.5330 N   0  0  0  0  0  0  0  0  0  0  0  0
   -2.6390    0.6510   -0.4440 C   0  0  0  0  0  0  0  0  0  0  0  0
   -3.6200    0.1210   -1.1740 C   0  0  0  0  0  0  0  0  0  0  0  0
   -3.3240   -0.8680   -2.1510 N   0  0  0  0  0  0  0  0  0  0  0  0
   -2.8070   -2.1650   -1.7640 C   0  0  0  0  0  0  0  0  0  0  0  0
   -3.5100   -0.6490   -3.4810 O   0  0  0  0  0  0  0  0  0  0  0  0
   -1.2830    0.2560   -0.6120 N   0  0  0  0  0  0  0  0  0  0  0  0
   -0.3130    1.2020   -1.1530 C   0  0  2  0  0  0  0  0  0  0  0  0
   -0.7950    1.7960   -2.9200 Br  0  0  0  0  0  0  0  0  0  0  0  0
    0.9960    0.6060   -1.2010 N   0  0  0  0  0  0  0  0  0  0  0  0
    1.4130   -0.5290   -1.9500 C   0  0  0  0  0  0  0  0  0  0  0  0
    0.6840   -1.2140   -2.7140 O   0  0  0  0  0  0  0  0  0  0  0  0
    2.8030   -0.7770   -1.7020 N   0  0  0  0  0  0  0  0  0  0  0  0
    3.2480    0.1000   -0.8800 C   0  0  0  0  0  0  0  0  0  0  0  0
    4.5630    0.1220   -0.4460 O   0  0  0  0  0  0  0  0  0  0  0  0
    5.5550   -0.5170   -1.0820 O   0  0  0  0  0  0  0  0  0  0  0  0
    6.7000   -0.0460   -0.5250 O   0  0  0  0  0  0  0  0  0  0  0  0
    6.9230   -0.0740    0.8390 C   0  0  0  0  0  0  0  0  0  0  0  0
    6.0370   -0.5540    1.6080 O   0  0  0  0  0  0  0  0  0  0  0  0
    8.0770    0.3970    1.4410 O   0  0  0  0  0  0  0  0  0  0  0  0
    8.2920    0.3680    2.7610 O   0  0  0  0  0  0  0  0  0  0  0  0
    2.1710    1.0330   -0.4970 C   0  0  0  0  0  0  0  0  0  0  0  0
    2.2670    1.9990    0.2830 O   0  0  0  0  0  0  0  0  0  0  0  0
  1  2  1  0
  2  3  1  0
  2  4  1  0
  4  5  2  3
  5  6  1  0
  6  7  2  3
  6 11  1  0
  7  8  1  0
  8  9  1  0
  8 10  1  0
 11 12  1  0
 12 13  1  6
 12 14  1  0
 14 15  1  0
 14 26  1  0
 15 16  2  0
 15 17  1  0
 17 18  2  0
 18 19  1  0
 18 26  1  0
 19 20  1  0
 20 21  1  0
 21 22  1  0
 22 23  2  0
 22 24  1  0
 24 25  1  0
 26 27  2  0
M  END
