
     RDKit          3D

 27 29  0  0  0  0  0  0  0  0999 V2000
    4.7270    0.7820   -2.9040 O   0  0  0  0  0  0  0  0  0  0  0  0
    4.9860    0.1230   -1.8610 C   0  0  0  0  0  0  0  0  0  0  0  0
    5.9920    0.6290   -0.8650 C   0  0  0  0  0  0  0  0  0  0  0  0
    6.7420    2.2990   -1.4190 Br  0  0  0  0  0  0  0  0  0  0  0  0
    4.3190   -1.0760   -1.6620 O   0  0  0  0  0  0  0  0  0  0  0  0
    3.4230   -1.5000   -2.5760 O   0  0  0  0  0  0  0  0  0  0  0  0
    2.4620   -0.6330   -2.5890 O   0  0  0  0  0  0  0  0  0  0  0  0
    1.2770   -1.1420   -2.8430 O   0  0  0  0  0  0  0  0  0  0  0  0
    0.4850   -0.7470   -1.7480 N   0  0  0  0  0  0  0  0  0  0  0  0
    0.6530    0.5790   -1.3890 C   0  0  0  0  0  0  0  0  0  0  0  0
    0.0650    1.1290   -0.4580 O   0  0  0  0  0  0  0  0  0  0  0  0
    1.5490    1.4290   -2.0970 O   0  0  0  0  0  0  0  0  0  0  0  0
   -0.3240   -1.7060   -1.1890 C   0  0  0  0  0  0  0  0  0  0  0  0
   -0.1870   -2.8970   -1.8050 O   0  0  0  0  0  0  0  0  0  0  0  0
   -1.2840   -1.8120   -0.1280 C   0  0  0  0  0  0  0  0  0  0  0  0
   -1.6410   -0.7050    0.6810 N   0  0  0  0  0  0  0  0  0  0  0  0
   -0.9990   -0.3220    1.9040 O   0  0  0  0  0  0  0  0  0  0  0  0
   -1.6910    0.8310    2.3510 C   0  0  0  0  0  0  0  0  0  0  0  0
   -1.7260    1.9600    2.9470 N   0  0  0  0  0  0  0  0  0  0  0  0
   -3.0510    2.5100    2.9010 N   0  0  0  0  0  0  0  0  0  0  0  0
   -3.8420    1.7290    2.2780 C   0  0  0  0  0  0  0  0  0  0  0  0
   -5.1320    1.3370    1.7420 N   0  0  0  0  0  0  0  0  0  0  0  0
   -5.1640   -0.0000    1.8490 C   0  0  0  0  0  0  0  0  0  0  0  0
   -3.8930   -0.4300    2.4410 N   0  0  0  0  0  0  0  0  0  0  0  0
   -3.0320    0.5890    1.8850 C   0  0  2  0  0  0  0  0  0  0  0  0
   -2.7240    0.2760    0.4790 C   0  0  0  0  0  0  0  0  0  0  0  0
   -3.1870    0.6740   -0.5570 O   0  0  0  0  0  0  0  0  0  0  0  0
  1  2  2  0
  2  3  1  0
  2  5  1  0
  3  4  1  0
  5  6  1  0
  6  7  1  0
  7  8  1  0
  8  9  1  0
  9 10  1  0
  9 13  1  0
 10 11  2  0
 10 12  1  0
 13 14  2  0
 13 15  1  0
 15 16  1  0
 16 17  1  0
 16 26  1  0
 17 18  1  0
 18 19  2  0
 18 25  1  0
 19 20  1  0
 20 21  2  0
 21 22  1  0
 21 25  1  0
 22 23  2  0
 23 24  1  0
 25 24  1  1
 25 26  1  0
 26 27  2  0
M  END
