
     RDKit          3D

 27 28  0  0  0  0  0  0  0  0999 V2000
    4.9270    4.1130    0.2640 C   0  0  0  0  0  0  0  0  0  0  0  0
    4.6320    2.7640    0.4390 O   0  0  0  0  0  0  0  0  0  0  0  0
    3.5840    2.6080    1.2030 O   0  0  0  0  0  0  0  0  0  0  0  0
    2.7150    1.8180    0.6460 O   0  0  0  0  0  0  0  0  0  0  0  0
    2.7810    0.5990    1.1380 O   0  0  0  0  0  0  0  0  0  0  0  0
    2.1850   -0.3380    0.3000 C   0  0  2  0  0  0  0  0  0  0  0  0
    2.8720   -0.3110   -0.9650 N   0  0  0  0  0  0  0  0  0  0  0  0
    4.1060   -0.5520   -1.1350 C   0  0  0  0  0  0  0  0  0  0  0  0
    5.0110   -0.8880   -0.0910 N   0  0  0  0  0  0  0  0  0  0  0  0
    4.6280   -0.4870   -2.4200 O   0  0  0  0  0  0  0  0  0  0  0  0
    0.8050   -0.0310    0.0800 N   0  0  0  0  0  0  0  0  0  0  0  0
   -0.2080   -0.7870    0.0930 C   0  0  0  0  0  0  0  0  0  0  0  0
   -1.4920   -0.2080   -0.1630 N   0  0  0  0  0  0  0  0  0  0  0  0
   -2.2210   -0.5210   -1.3690 C   0  0  0  0  0  0  0  0  0  0  0  0
   -3.6660   -0.1550   -1.2590 C   0  0  0  0  0  0  0  0  0  0  0  0
   -4.1520   -0.4450    0.0560 N   0  0  0  0  0  0  0  0  0  0  0  0
   -5.5000   -0.3070    0.0550 O   0  0  0  0  0  0  0  0  0  0  0  0
   -5.8270    0.8610    0.5400 O   0  0  0  0  0  0  0  0  0  0  0  0
   -6.1730    1.7840   -0.4280 C   0  0  0  0  0  0  0  0  0  0  0  0
   -3.5030    0.2790    1.1020 C   0  0  0  0  0  0  0  0  0  0  0  0
   -2.1000    0.7070    0.7730 C   0  0  0  0  0  0  0  0  0  0  0  0
   -0.2220   -2.1530    0.3340 O   0  0  0  0  0  0  0  0  0  0  0  0
    0.8840   -2.9060    0.6000 N   0  0  0  0  0  0  0  0  0  0  0  0
    0.8390   -4.3020    0.4440 C   0  0  0  0  0  0  0  0  0  0  0  0
    1.8700   -5.0080    0.6910 O   0  0  0  0  0  0  0  0  0  0  0  0
   -0.3220   -4.9170    0.0210 O   0  0  0  0  0  0  0  0  0  0  0  0
    2.3270   -1.9930    1.1360 P   0  0  0  0  0  0  0  0  0  0  0  0
  1  2  1  0
  2  3  1  0
  3  4  1  0
  4  5  1  0
  6  5  1  1
  6  7  1  0
  6 11  1  0
  6 27  1  0
  7  8  2  3
  8  9  1  0
  8 10  1  0
 11 12  2  0
 12 13  1  0
 12 22  1  0
 13 14  1  0
 13 21  1  0
 14 15  1  0
 15 16  1  0
 16 17  1  0
 16 20  1  0
 17 18  1  0
 18 19  1  0
 20 21  1  0
 22 23  1  0
 23 24  1  0
 23 27  1  0
 24 25  2  0
 24 26  1  0
M  END
