
     RDKit          3D

 14 14  0  0  0  0  0  0  0  0999 V2000
   -3.0110   -2.0120   -1.1420 O   0  0  0  0  0  0  0  0  0  0  0  0
   -1.9230   -1.5770   -0.4080 C   0  0  1  0  0  0  0  0  0  0  0  0
   -0.8390   -1.2120   -1.1710 O   0  0  0  0  0  0  0  0  0  0  0  0
   -0.6970    0.1600   -1.1190 C   0  0  2  0  0  0  0  0  0  0  0  0
    0.7720    0.5490   -1.2550 C   0  0  0  0  0  0  0  0  0  0  0  0
    1.4070    0.1940   -0.1010 O   0  0  0  0  0  0  0  0  0  0  0  0
    2.9800    0.2230    0.0730 P   0  0  0  0  0  0  0  0  0  0  0  0
    3.8200    1.7000    0.2180 O   0  0  0  0  0  0  0  0  0  0  0  0
    3.9230   -1.1160    0.0380 O   0  0  0  0  0  0  0  0  0  0  0  0
    2.9850    0.1930    1.5990 O   0  0  0  0  0  0  0  0  0  0  0  0
   -1.2670    0.6290    0.1920 C   0  0  1  0  0  0  0  0  0  0  0  0
   -1.9450    1.8440    0.0360 O   0  0  0  0  0  0  0  0  0  0  0  0
   -2.2720   -0.4440    0.5070 C   0  0  1  0  0  0  0  0  0  0  0  0
   -3.5640   -0.0170    0.2310 O   0  0  0  0  0  0  0  0  0  0  0  0
  2  1  1  6
  2  3  1  0
  2 13  1  0
  3  4  1  0
  4  5  1  1
  4 11  1  0
  5  6  1  0
  6  7  1  0
  7  8  1  0
  7  9  1  0
  7 10  1  0
 11 12  1  6
 11 13  1  0
 13 14  1  6
M  END
