
     RDKit          3D

 12 12  0  0  0  0  0  0  0  0999 V2000
    3.4980   -0.6130    0.9910 O   0  0  0  0  0  0  0  0  0  0  0  0
    3.1100    0.1900    0.0870 C   0  0  0  0  0  0  0  0  0  0  0  0
    4.0540    0.8450   -0.6720 O   0  0  0  0  0  0  0  0  0  0  0  0
    1.7420    0.3420   -0.0630 O   0  0  0  0  0  0  0  0  0  0  0  0
    0.5570   -0.4890    0.8990 P   0  0  0  0  0  0  0  0  0  0  0  0
    0.3980    0.2060    2.4800 O   0  0  0  0  0  0  0  0  0  0  0  0
   -1.0590   -0.6780    0.0520 C   0  0  1  0  0  0  0  0  0  0  0  0
   -2.0580    0.3770    0.5060 C   0  0  0  0  0  0  0  0  0  0  0  0
   -2.9970    0.3290   -0.5620 O   0  0  0  0  0  0  0  0  0  0  0  0
   -2.3020    0.0130   -1.7340 C   0  0  0  0  0  0  0  0  0  0  0  0
   -2.8100    0.0990   -2.8750 O   0  0  0  0  0  0  0  0  0  0  0  0
   -0.9840   -0.3960   -1.3720 N   0  0  0  0  0  0  0  0  0  0  0  0
  1  2  2  0
  2  3  1  0
  2  4  1  0
  4  5  1  0
  5  6  1  0
  7  5  1  1
  7  8  1  0
  7 12  1  0
  8  9  1  0
  9 10  1  0
 10 11  2  0
 10 12  1  0
M  END
