
     RDKit          3D

 12 11  0  0  0  0  0  0  0  0999 V2000
    2.6750    0.5280    0.5480 C   0  0  0  0  0  0  0  0  0  0  0  0
    2.0530    0.6960   -0.7380 N   0  0  0  0  0  0  0  0  0  0  0  0
    1.1040   -0.3460   -1.0200 C   0  0  0  0  0  0  0  0  0  0  0  0
   -0.1340   -0.2910   -0.1450 C   0  0  2  0  0  0  0  0  0  0  0  0
   -0.9430   -1.3730   -0.5380 O   0  0  0  0  0  0  0  0  0  0  0  0
   -1.2640   -2.4320    0.2550 C   0  0  0  0  0  0  0  0  0  0  0  0
   -0.7860   -2.4260    1.4330 O   0  0  0  0  0  0  0  0  0  0  0  0
   -2.0640   -3.5170   -0.1060 O   0  0  0  0  0  0  0  0  0  0  0  0
   -0.8940    1.3430   -0.3010 P   0  0  0  0  0  0  0  0  0  0  0  0
   -0.9830    2.2890    1.1130 O   0  0  0  0  0  0  0  0  0  0  0  0
   -2.2080    1.4750   -1.3620 O   0  0  0  0  0  0  0  0  0  0  0  0
   -2.9430    2.5070   -1.0830 O   0  0  0  0  0  0  0  0  0  0  0  0
  1  2  1  0
  2  3  1  0
  4  3  1  6
  4  5  1  0
  4  9  1  0
  5  6  1  0
  6  7  2  0
  6  8  1  0
  9 10  1  0
  9 11  1  0
 11 12  1  0
M  END
