
     RDKit          3D

 11 11  0  0  0  0  0  0  0  0999 V2000
   -1.2910   -1.7420    0.6160 C   0  0  0  0  0  0  0  0  0  0  0  0
   -0.6090   -0.3990    0.6390 C   0  0  2  0  0  0  0  0  0  0  0  0
   -1.5300    0.6090    0.2270 O   0  0  0  0  0  0  0  0  0  0  0  0
   -1.3230    1.9450    0.4760 C   0  0  0  0  0  0  0  0  0  0  0  0
   -2.2700    2.7490    0.6660 O   0  0  0  0  0  0  0  0  0  0  0  0
   -0.0060    2.3930    0.5140 O   0  0  0  0  0  0  0  0  0  0  0  0
    1.1770    1.4050   -0.3550 P   0  0  0  0  0  0  0  0  0  0  0  0
    2.7420    1.5250    0.3680 O   0  0  0  0  0  0  0  0  0  0  0  0
    0.5460   -0.3440   -0.3350 C   0  0  2  0  0  0  0  0  0  0  0  0
    0.1350   -0.6690   -1.6840 N   0  0  0  0  0  0  0  0  0  0  0  0
    1.5470   -1.1990    0.1130 O   0  0  0  0  0  0  0  0  0  0  0  0
  2  1  1  6
  2  3  1  0
  2  9  1  0
  3  4  1  0
  4  5  2  0
  4  6  1  0
  6  7  1  0
  7  8  1  0
  7  9  1  0
  9 10  1  6
  9 11  1  0
M  END
