
     RDKit          3D

 11 12  0  0  0  0  0  0  0  0999 V2000
   -2.7510   -0.1620   -0.2170 C   0  0  0  0  0  0  0  0  0  0  0  0
   -1.9380    1.1000   -0.4830 C   0  0  0  0  0  0  0  0  0  0  0  0
   -1.0530    1.3300    0.6820 C   0  0  0  0  0  0  0  0  0  0  0  0
    0.1730    0.8230    0.6600 O   0  0  0  0  0  0  0  0  0  0  0  0
    0.5100   -0.2530   -0.0440 C   0  0  1  0  0  0  0  0  0  0  0  0
   -0.5100   -1.1010   -0.6610 C   0  0  0  0  0  0  0  0  0  0  0  0
   -1.7870   -1.2630    0.1090 C   0  0  0  0  0  0  0  0  0  0  0  0
    1.5030    0.1790   -1.1390 C   0  0  0  0  0  0  0  0  0  0  0  0
    2.5040    0.9020   -0.2310 C   0  0  0  0  0  0  0  0  0  0  0  0
    2.5880    0.0160    0.9970 C   0  0  0  0  0  0  0  0  0  0  0  0
    1.5130   -1.0580    0.8040 C   0  0  0  0  0  0  0  0  0  0  0  0
  1  2  1  0
  1  7  1  0
  2  3  1  0
  3  4  1  0
  4  5  1  0
  5  6  1  6
  5  8  1  0
  5 11  1  0
  6  7  1  0
  8  9  1  0
  9 10  1  0
 10 11  1  0
M  END
