
     RDKit          3D

 11 12  0  0  0  0  0  0  0  0999 V2000
    3.8470    0.0110    0.3590 C   0  0  0  0  0  0  0  0  0  0  0  0
    2.4320   -0.3520    0.6070 C   0  0  0  0  0  0  0  0  0  0  0  0
    1.4630    0.1220   -0.1600 C   0  0  0  0  0  0  0  0  0  0  0  0
    1.5680    0.9620   -1.2330 O   0  0  0  0  0  0  0  0  0  0  0  0
    0.2750    1.2050   -1.7520 C   0  0  0  0  0  0  0  0  0  0  0  0
   -0.6690    0.4410   -0.9090 C   0  0  0  0  0  0  0  0  0  0  0  0
    0.0410   -0.1740   -0.0000 C   0  0  0  0  0  0  0  0  0  0  0  0
   -0.6330   -1.0420    1.0190 C   0  0  0  0  0  0  0  0  0  0  0  0
   -1.9070   -0.3270    1.4020 C   0  0  0  0  0  0  0  0  0  0  0  0
   -2.7900   -0.2800    0.1930 C   0  0  0  0  0  0  0  0  0  0  0  0
   -2.1260    0.3260   -0.9910 C   0  0  0  0  0  0  0  0  0  0  0  0
  1  2  1  0
  2  3  2  3
  3  4  1  0
  3  7  1  0
  4  5  1  0
  5  6  1  0
  6  7  2  0
  6 11  1  0
  7  8  1  0
  8  9  1  0
  9 10  1  0
 10 11  1  0
M  END
