
     RDKit          3D

 11 12  0  0  0  0  0  0  0  0999 V2000
   -0.2840    3.2170    0.4820 O   0  0  0  0  0  0  0  0  0  0  0  0
   -1.0970    2.4140    0.0630 C   0  0  0  0  0  0  0  0  0  0  0  0
   -0.9110    0.9930    0.3350 C   0  0  1  0  0  0  0  0  0  0  0  0
   -1.7430    0.0930   -0.5530 C   0  0  0  0  0  0  0  0  0  0  0  0
   -1.7450   -1.2740    0.1240 C   0  0  0  0  0  0  0  0  0  0  0  0
   -0.3910   -1.8770    0.2190 C   0  0  0  0  0  0  0  0  0  0  0  0
    0.7150   -0.9010    0.0930 C   0  0  0  0  0  0  0  0  0  0  0  0
    2.0010   -1.1300   -0.0780 C   0  0  0  0  0  0  0  0  0  0  0  0
    2.6990    0.1800   -0.1460 C   0  0  0  0  0  0  0  0  0  0  0  0
    1.6410    1.1870    0.0080 C   0  0  0  0  0  0  0  0  0  0  0  0
    0.5140    0.5480    0.1430 C   0  0  0  0  0  0  0  0  0  0  0  0
  1  2  2  0
  3  2  1  6
  3  4  1  0
  3 11  1  0
  4  5  1  0
  5  6  1  0
  6  7  1  0
  7  8  2  0
  7 11  1  0
  8  9  1  0
  9 10  1  0
 10 11  2  0
M  END
