
     RDKit          3D

 17 18  0  0  0  0  0  0  0  0999 V2000
    3.2500   -1.0470   -2.2180 C   0  0  0  0  0  0  0  0  0  0  0  0
    3.2330   -0.4360   -0.8150 C   0  0  0  0  0  0  0  0  0  0  0  0
    4.3050   -0.2300   -0.3050 N   0  0  0  0  0  0  0  0  0  0  0  0
    5.1770    0.1720    0.6500 C   0  0  0  0  0  0  0  0  0  0  0  0
    5.3160    1.9650    0.7450 Cl  0  0  0  0  0  0  0  0  0  0  0  0
    1.9110   -0.1730   -0.2600 C   0  0  0  0  0  0  0  0  0  0  0  0
    0.7200   -0.4270   -0.8870 N   0  0  0  0  0  0  0  0  0  0  0  0
   -0.3160   -0.0740   -0.1140 C   0  0  0  0  0  0  0  0  0  0  0  0
   -1.7750   -0.1880   -0.4270 C   0  0  1  0  0  0  0  0  0  0  0  0
   -2.3950   -1.1250    0.5660 C   0  0  0  0  0  0  0  0  0  0  0  0
   -3.8950   -1.0710    0.5930 C   0  0  0  0  0  0  0  0  0  0  0  0
   -4.2710    0.3630    0.9900 C   0  0  0  0  0  0  0  0  0  0  0  0
   -3.8230    1.2410   -0.1390 C   0  0  0  0  0  0  0  0  0  0  0  0
   -2.3690    1.1790   -0.4360 C   0  0  0  0  0  0  0  0  0  0  0  0
    0.2000    0.4130    1.0250 N   0  0  0  0  0  0  0  0  0  0  0  0
    1.5510    0.3620    0.9570 C   0  0  0  0  0  0  0  0  0  0  0  0
    2.4120    0.8010    1.9960 N   0  0  0  0  0  0  0  0  0  0  0  0
  1  2  1  0
  2  3  2  3
  2  6  1  0
  3  4  1  0
  4  5  1  0
  6  7  1  0
  6 16  2  0
  7  8  1  0
  9  8  1  1
  8 15  2  0
  9 10  1  0
  9 14  1  0
 10 11  1  0
 11 12  1  0
 12 13  1  0
 13 14  1  0
 15 16  1  0
 16 17  1  0
M  END
