
     RDKit          3D

 21 23  0  0  0  0  0  0  0  0999 V2000
   -6.3090    0.6640   -0.4570 C   0  0  0  0  0  0  0  0  0  0  0  0
   -5.1890    1.2650    0.3760 C   0  0  0  0  0  0  0  0  0  0  0  0
   -3.8970    0.6090    0.0170 C   0  0  0  0  0  0  0  0  0  0  0  0
   -2.6610    0.7890    0.4630 C   0  0  0  0  0  0  0  0  0  0  0  0
   -1.6380    0.0610   -0.0260 C   0  0  0  0  0  0  0  0  0  0  0  0
   -0.2070    0.1860    0.4090 C   0  0  0  0  0  0  0  0  0  0  0  0
    0.1220    1.0980    1.3750 C   0  0  0  0  0  0  0  0  0  0  0  0
    1.4450    1.2180    1.7810 C   0  0  0  0  0  0  0  0  0  0  0  0
    2.3750    0.3980    1.1790 C   0  0  0  0  0  0  0  0  0  0  0  0
    3.6690    0.2640    1.3290 O   0  0  0  0  0  0  0  0  0  0  0  0
    4.1650   -0.6410    0.5490 C   0  0  0  0  0  0  0  0  0  0  0  0
    5.6160   -1.0420    0.4720 C   0  0  0  0  0  0  0  0  0  0  0  0
    6.2850   -0.1600   -0.5750 C   0  0  1  0  0  0  0  0  0  0  0  0
    7.6040   -0.4740   -0.6930 F   0  0  0  0  0  0  0  0  0  0  0  0
    5.6080   -0.3340   -1.7660 F   0  0  0  0  0  0  0  0  0  0  0  0
    3.1450   -1.1440   -0.1670 N   0  0  0  0  0  0  0  0  0  0  0  0
    2.0220   -0.5130    0.2080 C   0  0  0  0  0  0  0  0  0  0  0  0
    0.7320   -0.5990   -0.1570 N   0  0  0  0  0  0  0  0  0  0  0  0
   -1.9400   -0.8620   -0.9950 C   0  0  0  0  0  0  0  0  0  0  0  0
   -1.0780   -1.8260   -1.7490 C   0  0  0  0  0  0  0  0  0  0  0  0
   -3.7130   -0.6750   -1.1990 S   0  0  0  0  0  0  0  0  0  0  0  0
  1  2  1  0
  2  3  1  0
  3  4  2  0
  3 21  1  0
  4  5  1  0
  5  6  1  0
  5 19  2  0
  6  7  2  0
  6 18  1  0
  7  8  1  0
  8  9  2  0
  9 10  1  0
  9 17  1  0
 10 11  1  0
 11 12  1  0
 11 16  2  0
 12 13  1  0
 13 14  1  6
 13 15  1  0
 16 17  1  0
 17 18  2  0
 19 20  1  0
 19 21  1  0
M  END
