
     RDKit          3D

 17 18  0  0  0  0  0  0  0  0999 V2000
    2.9240   -2.2780    0.0730 N   0  0  0  0  0  0  0  0  0  0  0  0
    2.3020   -1.1620   -0.5890 C   0  0  0  0  0  0  0  0  0  0  0  0
    2.9620   -0.0430   -0.7070 C   0  0  0  0  0  0  0  0  0  0  0  0
    4.2660    0.0990   -0.2040 N   0  0  0  0  0  0  0  0  0  0  0  0
    4.8410    1.2730   -0.1270 C   0  0  0  0  0  0  0  0  0  0  0  0
    4.0540    2.7400   -0.6340 Cl  0  0  0  0  0  0  0  0  0  0  0  0
    0.9930   -1.3680   -1.0720 N   0  0  0  0  0  0  0  0  0  0  0  0
   -0.1160   -0.6610   -0.5280 C   0  0  0  0  0  0  0  0  0  0  0  0
    0.0420    0.2540    0.4930 C   0  0  0  0  0  0  0  0  0  0  0  0
   -1.0190    0.9510    1.0360 C   0  0  0  0  0  0  0  0  0  0  0  0
   -2.3110    0.7400    0.5510 C   0  0  0  0  0  0  0  0  0  0  0  0
   -3.3940    1.4150    1.0670 C   0  0  0  0  0  0  0  0  0  0  0  0
   -4.6560    1.1840    0.5670 C   0  0  0  0  0  0  0  0  0  0  0  0
   -4.7830    0.2870   -0.4280 N   0  0  0  0  0  0  0  0  0  0  0  0
   -3.7400   -0.3840   -0.9470 C   0  0  0  0  0  0  0  0  0  0  0  0
   -2.4510   -0.1770   -0.4680 C   0  0  0  0  0  0  0  0  0  0  0  0
   -1.3850   -0.8730   -1.0090 C   0  0  0  0  0  0  0  0  0  0  0  0
  1  2  1  0
  2  3  2  3
  2  7  1  0
  3  4  1  0
  4  5  2  3
  5  6  1  0
  7  8  1  0
  8  9  2  0
  8 17  1  0
  9 10  1  0
 10 11  2  0
 11 12  1  0
 11 16  1  0
 12 13  2  0
 13 14  1  0
 14 15  2  0
 15 16  1  0
 16 17  2  0
M  END
