
     RDKit          3D

 21 23  0  0  0  0  0  0  0  0999 V2000
    5.6170    0.5030    0.4160 C   0  0  0  0  0  0  0  0  0  0  0  0
    4.2580    0.1440   -0.1090 C   0  0  0  0  0  0  0  0  0  0  0  0
    4.1140   -0.4930   -1.3210 C   0  0  0  0  0  0  0  0  0  0  0  0
    2.8750   -0.7880   -1.7390 N   0  0  0  0  0  0  0  0  0  0  0  0
    1.7960   -0.4970   -1.0450 N   0  0  0  0  0  0  0  0  0  0  0  0
    1.8930    0.1260    0.1460 C   0  0  0  0  0  0  0  0  0  0  0  0
    0.4960    0.5580    1.1510 S   0  0  0  0  0  0  0  0  0  0  0  0
   -1.0420    0.0450    0.3440 C   0  0  0  0  0  0  0  0  0  0  0  0
   -2.1690    0.2990    0.9770 C   0  0  0  0  0  0  0  0  0  0  0  0
   -3.4670   -0.0670    0.4260 C   0  0  0  0  0  0  0  0  0  0  0  0
   -4.6310    0.2050    1.1010 C   0  0  0  0  0  0  0  0  0  0  0  0
   -4.5400    0.8250    2.2950 F   0  0  0  0  0  0  0  0  0  0  0  0
   -5.8200   -0.1670    0.5240 C   0  0  0  0  0  0  0  0  0  0  0  0
   -5.8680   -0.8000   -0.7020 C   0  0  0  0  0  0  0  0  0  0  0  0
   -4.7000   -1.0730   -1.3770 C   0  0  0  0  0  0  0  0  0  0  0  0
   -3.4860   -0.6980   -0.7980 C   0  0  0  0  0  0  0  0  0  0  0  0
   -2.3060   -0.9540   -1.4420 O   0  0  0  0  0  0  0  0  0  0  0  0
   -1.0430   -0.6200   -0.9510 C   0  0  0  0  0  0  0  0  0  0  0  0
    3.1450    0.4580    0.6330 C   0  0  0  0  0  0  0  0  0  0  0  0
    3.2930    1.1480    1.9460 C   0  0  0  0  0  0  0  0  0  0  0  0
    3.5800    2.4870    1.7880 F   0  0  0  0  0  0  0  0  0  0  0  0
  1  2  1  0
  2  3  2  0
  2 19  1  0
  3  4  1  0
  4  5  2  0
  5  6  1  0
  6  7  1  0
  6 19  2  0
  7  8  1  0
  8  9  2  0
  8 18  1  0
  9 10  1  0
 10 11  2  0
 10 16  1  0
 11 12  1  0
 11 13  1  0
 13 14  2  0
 14 15  1  0
 15 16  2  0
 16 17  1  0
 17 18  1  0
 19 20  1  0
 20 21  1  0
M  END
