
     RDKit          3D

 21 23  0  0  0  0  0  0  0  0999 V2000
   -2.8260    2.4040    0.2630 C   0  0  0  0  0  0  0  0  0  0  0  0
   -3.3900    1.2420    0.4070 C   0  0  0  0  0  0  0  0  0  0  0  0
   -2.9370   -0.0160   -0.1080 C   0  0  0  0  0  0  0  0  0  0  0  0
   -3.6680   -1.1130    0.0650 C   0  0  0  0  0  0  0  0  0  0  0  0
   -4.8840   -1.1800    0.7350 F   0  0  0  0  0  0  0  0  0  0  0  0
   -3.2070   -2.3520   -0.5860 C   0  0  0  0  0  0  0  0  0  0  0  0
   -2.1870   -1.5470   -1.9300 S   0  0  0  0  0  0  0  0  0  0  0  0
   -1.6800   -0.2760   -0.7240 N   0  0  0  0  0  0  0  0  0  0  0  0
   -0.3710    0.1950   -0.4620 C   0  0  0  0  0  0  0  0  0  0  0  0
   -0.1150    1.4510   -0.1450 N   0  0  0  0  0  0  0  0  0  0  0  0
    1.0410    1.9940    0.1200 C   0  0  0  0  0  0  0  0  0  0  0  0
    2.1460    1.1750    0.0700 C   0  0  0  0  0  0  0  0  0  0  0  0
    3.4050    1.6910    0.3390 C   0  0  0  0  0  0  0  0  0  0  0  0
    4.5250    0.8870    0.2930 C   0  0  0  0  0  0  0  0  0  0  0  0
    4.3890   -0.4390   -0.0230 C   0  0  0  0  0  0  0  0  0  0  0  0
    5.4570   -1.2900   -0.0860 F   0  0  0  0  0  0  0  0  0  0  0  0
    3.1300   -0.9820   -0.2980 C   0  0  0  0  0  0  0  0  0  0  0  0
    2.0240   -0.1560   -0.2450 C   0  0  0  0  0  0  0  0  0  0  0  0
    0.7440   -0.6750   -0.5190 C   0  0  0  0  0  0  0  0  0  0  0  0
    0.5380   -2.0800   -0.7800 C   0  0  0  0  0  0  0  0  0  0  0  0
    1.4180   -2.9450   -0.8870 O   0  0  0  0  0  0  0  0  0  0  0  0
  1  2  2  0
  2  3  1  0
  3  4  2  0
  3  8  1  0
  4  5  1  0
  4  6  1  0
  6  7  1  0
  7  8  1  0
  8  9  1  0
  9 10  2  0
  9 19  1  0
 10 11  1  0
 11 12  2  0
 12 13  1  0
 12 18  1  0
 13 14  2  0
 14 15  1  0
 15 16  1  0
 15 17  2  0
 17 18  1  0
 18 19  2  0
 19 20  1  0
 20 21  2  0
M  END
