
     RDKit          3D

 21 23  0  0  0  0  0  0  0  0999 V2000
   -2.1320    1.3210    2.0270 O   0  0  0  0  0  0  0  0  0  0  0  0
   -1.8690    0.7650    0.9470 C   0  0  0  0  0  0  0  0  0  0  0  0
   -0.5510    0.4780    0.6580 C   0  0  0  0  0  0  0  0  0  0  0  0
    0.9620    0.7310    1.5230 S   0  0  0  0  0  0  0  0  0  0  0  0
    1.9890   -0.0560    0.1440 C   0  0  0  0  0  0  0  0  0  0  0  0
    3.4380   -0.1460    0.2910 C   0  0  0  0  0  0  0  0  0  0  0  0
    4.0760    0.3280    1.4080 C   0  0  0  0  0  0  0  0  0  0  0  0
    5.4520    0.2040    1.4690 C   0  0  0  0  0  0  0  0  0  0  0  0
    6.1600   -0.3740    0.4460 C   0  0  0  0  0  0  0  0  0  0  0  0
    7.5310   -0.4980    0.5040 F   0  0  0  0  0  0  0  0  0  0  0  0
    5.4920   -0.8400   -0.6620 C   0  0  0  0  0  0  0  0  0  0  0  0
    4.1230   -0.7280   -0.7440 C   0  0  0  0  0  0  0  0  0  0  0  0
    1.1520   -0.3260   -0.6000 N   0  0  0  0  0  0  0  0  0  0  0  0
   -0.1600   -0.1280   -0.4930 C   0  0  0  0  0  0  0  0  0  0  0  0
   -1.1700   -0.4450   -1.3750 C   0  0  0  0  0  0  0  0  0  0  0  0
   -2.5020   -0.1370   -1.0500 C   0  0  0  0  0  0  0  0  0  0  0  0
   -2.8900    0.4500    0.0700 N   0  0  0  0  0  0  0  0  0  0  0  0
   -4.1950    0.8230    0.4090 C   0  0  0  0  0  0  0  0  0  0  0  0
   -5.3400    0.5090   -0.0380 C   0  0  0  0  0  0  0  0  0  0  0  0
   -5.7980   -0.3780   -1.0850 C   0  0  0  0  0  0  0  0  0  0  0  0
   -6.4480    0.2810   -2.1210 F   0  0  0  0  0  0  0  0  0  0  0  0
  1  2  2  0
  2  3  1  0
  2 17  1  0
  3  4  1  0
  3 14  2  0
  4  5  1  0
  5  6  1  0
  5 13  2  0
  6  7  2  0
  6 12  1  0
  7  8  1  0
  8  9  2  0
  9 10  1  0
  9 11  1  0
 11 12  2  0
 13 14  1  0
 14 15  1  0
 15 16  2  0
 16 17  1  0
 17 18  1  0
 18 19  2  3
 19 20  1  0
 20 21  1  0
M  END
