
     RDKit          3D

 16 16  0  0  0  0  0  0  0  0999 V2000
    4.4940   -1.6270   -0.5770 N   0  0  0  0  0  0  0  0  0  0  0  0
    3.8620   -0.5130    0.0330 C   0  0  0  0  0  0  0  0  0  0  0  0
    4.4670    0.0580    0.9710 O   0  0  0  0  0  0  0  0  0  0  0  0
    2.5410   -0.0520   -0.4260 C   0  0  0  0  0  0  0  0  0  0  0  0
    1.9870   -0.6590   -1.3640 O   0  0  0  0  0  0  0  0  0  0  0  0
    1.9620    1.0620    0.2230 N   0  0  0  0  0  0  0  0  0  0  0  0
    0.6750    1.5720   -0.1670 C   0  0  0  0  0  0  0  0  0  0  0  0
   -0.4260    0.7070    0.3270 C   0  0  0  0  0  0  0  0  0  0  0  0
   -0.3420   -0.3910    1.0800 N   0  0  0  0  0  0  0  0  0  0  0  0
   -1.5440   -0.8320    1.2740 O   0  0  0  0  0  0  0  0  0  0  0  0
   -2.4300   -0.0780    0.6860 C   0  0  0  0  0  0  0  0  0  0  0  0
   -3.9020   -0.3070    0.7120 C   0  0  0  0  0  0  0  0  0  0  0  0
   -4.4690   -0.2700   -0.6150 N   0  0  0  0  0  0  0  0  0  0  0  0
   -4.0840   -1.1240   -1.6170 O   0  0  0  0  0  0  0  0  0  0  0  0
   -5.6070    0.8250   -0.9350 S   0  0  0  0  0  0  0  0  0  0  0  0
   -1.7390    0.8980    0.0830 N   0  0  0  0  0  0  0  0  0  0  0  0
  1  2  1  0
  2  3  2  0
  2  4  1  0
  4  5  2  0
  4  6  1  0
  6  7  1  0
  7  8  1  0
  8  9  2  0
  8 16  1  0
  9 10  1  0
 10 11  1  0
 11 12  1  0
 11 16  2  0
 12 13  1  0
 13 14  1  0
 13 15  2  0
M  CHG  2  13   1  14  -1
M  END
