
     RDKit          3D

 10 10  0  0  0  0  0  0  0  0999 V2000
   -1.8110    1.1140    0.8050 C   0  0  0  0  0  0  0  0  0  0  0  0
   -1.8580    0.2250   -0.3920 C   0  0  2  0  0  0  0  0  0  0  0  0
   -2.0110   -1.1340    0.0260 N   0  0  0  0  0  0  0  0  0  0  0  0
   -0.6970    0.4310   -1.3330 C   0  0  0  0  0  0  0  0  0  0  0  0
    0.6060    0.1700   -0.6820 C   0  0  0  0  0  0  0  0  0  0  0  0
    1.3370    1.1390   -0.0300 C   0  0  0  0  0  0  0  0  0  0  0  0
    2.5600    0.8510    0.5700 C   0  0  0  0  0  0  0  0  0  0  0  0
    3.0770   -0.4250    0.5260 C   0  0  0  0  0  0  0  0  0  0  0  0
    2.3550   -1.3990   -0.1220 C   0  0  0  0  0  0  0  0  0  0  0  0
    1.1470   -1.0960   -0.7100 C   0  0  0  0  0  0  0  0  0  0  0  0
  2  1  1  1
  2  3  1  0
  2  4  1  0
  4  5  1  0
  5  6  2  0
  5 10  1  0
  6  7  1  0
  7  8  2  0
  8  9  1  0
  9 10  2  0
M  CHG  1   3   1
M  END
