
     RDKit          3D

 16 16  0  0  0  0  0  0  0  0999 V2000
   -3.6720    1.4010   -0.5090 N   0  0  0  0  0  0  0  0  0  0  0  0
   -2.4930    0.8710    0.0790 C   0  0  0  0  0  0  0  0  0  0  0  0
   -1.5220    1.6570    0.2330 O   0  0  0  0  0  0  0  0  0  0  0  0
   -2.4190   -0.5580    0.4930 C   0  0  0  0  0  0  0  0  0  0  0  0
   -1.1080   -0.7990    1.0540 N   0  0  0  0  0  0  0  0  0  0  0  0
   -1.0490   -1.0650    2.4340 N   0  0  0  0  0  0  0  0  0  0  0  0
   -0.5940   -2.0990    2.9210 O   0  0  0  0  0  0  0  0  0  0  0  0
    0.0210   -0.7590    0.2200 C   0  0  0  0  0  0  0  0  0  0  0  0
    1.1290   -0.2160    0.4680 N   0  0  0  0  0  0  0  0  0  0  0  0
    2.1250   -0.2860   -0.4930 C   0  0  0  0  0  0  0  0  0  0  0  0
    3.1330    0.6080   -0.5710 C   0  0  0  0  0  0  0  0  0  0  0  0
    3.2340    1.6880    0.3390 N   0  0  0  0  0  0  0  0  0  0  0  0
    4.2970    2.3310    0.4020 O   0  0  0  0  0  0  0  0  0  0  0  0
    2.2100    2.0790    1.1760 O   0  0  0  0  0  0  0  0  0  0  0  0
    1.9770   -1.4470   -1.4360 C   0  0  0  0  0  0  0  0  0  0  0  0
    0.1300   -1.4960   -1.4070 S   0  0  0  0  0  0  0  0  0  0  0  0
  1  2  1  0
  2  3  2  0
  2  4  1  0
  4  5  1  0
  5  6  1  0
  5  8  1  0
  6  7  2  0
  8  9  2  0
  8 16  1  0
  9 10  1  0
 10 11  2  3
 10 15  1  0
 11 12  1  0
 12 13  2  0
 12 14  1  0
 15 16  1  0
M  CHG  2  12   1  14  -1
M  END
