
     RDKit          3D

 31 33  0  0  0  0  0  0  0  0999 V2000
    5.7620    2.0310    0.2000 N   0  0  0  0  0  0  0  0  0  0  0  0
    6.6590    1.1360   -0.4320 C   0  0  0  0  0  0  0  0  0  0  0  0
    6.3890    0.0040   -0.9940 C   0  0  0  0  0  0  0  0  0  0  0  0
    7.5310   -0.6690   -1.5480 O   0  0  0  0  0  0  0  0  0  0  0  0
    5.1100   -0.6480   -1.1270 C   0  0  0  0  0  0  0  0  0  0  0  0
    3.9360   -0.0520   -0.6100 N   0  0  0  0  0  0  0  0  0  0  0  0
    2.6460   -0.6980   -0.7400 C   0  0  0  0  0  0  0  0  0  0  0  0
    2.0010   -1.1500    0.2840 C   0  0  0  0  0  0  0  0  0  0  0  0
    2.5210   -1.0430    1.6190 C   0  0  0  0  0  0  0  0  0  0  0  0
    3.7730   -0.4290    1.8630 N   0  0  0  0  0  0  0  0  0  0  0  0
    1.8840   -1.4880    2.6140 O   0  0  0  0  0  0  0  0  0  0  0  0
    0.4540   -1.9130    0.0590 S   0  0  1  0  0  0  0  0  0  0  0  0
    0.4570   -2.5830   -1.3050 O   0  0  0  0  0  0  0  0  0  0  0  0
    0.2520   -3.0200    1.0550 O   0  0  0  0  0  0  0  0  0  0  0  0
   -0.8740   -0.8650    0.1080 N   0  0  0  0  0  0  0  0  0  0  0  0
   -1.0840   -0.1590    1.3300 C   0  0  0  0  0  0  0  0  0  0  0  0
   -2.4510    0.2850    1.6070 C   0  0  1  0  0  0  0  0  0  0  0  0
   -2.4130    1.7510    1.9660 C   0  0  0  0  0  0  0  0  0  0  0  0
   -2.4310    2.8010    1.1130 N   0  0  0  0  0  0  0  0  0  0  0  0
   -2.3860    3.9310    1.7820 N   0  0  0  0  0  0  0  0  0  0  0  0
   -2.3360    3.6400    3.0910 C   0  0  0  0  0  0  0  0  0  0  0  0
   -2.2840    4.4880    4.0230 O   0  0  0  0  0  0  0  0  0  0  0  0
   -2.3530    2.2980    3.1880 N   0  0  0  0  0  0  0  0  0  0  0  0
   -3.4010    0.1460    0.6680 O   0  0  0  0  0  0  0  0  0  0  0  0
   -3.2840   -0.7420   -0.3340 C   0  0  1  0  0  0  0  0  0  0  0  0
   -3.4500   -0.1110   -1.7220 C   0  0  2  0  0  0  0  0  0  0  0  0
   -4.8580    0.3520   -1.8800 C   0  0  0  0  0  0  0  0  0  0  0  0
   -5.5980   -0.8830   -2.3040 C   0  0  0  0  0  0  0  0  0  0  0  0
   -4.5020   -1.7810   -2.7830 C   0  0  0  0  0  0  0  0  0  0  0  0
   -3.3120   -1.1090   -2.6540 O   0  0  0  0  0  0  0  0  0  0  0  0
   -2.0360   -1.5730   -0.3640 C   0  0  0  0  0  0  0  0  0  0  0  0
  1  2  1  0
  2  3  2  3
  3  4  1  0
  3  5  1  0
  5  6  1  0
  6  7  1  0
  7  8  2  3
  8  9  1  0
  8 12  1  0
  9 10  1  0
  9 11  2  0
 12 13  2  0
 12 14  2  0
 12 15  1  6
 15 16  1  0
 15 31  1  0
 16 17  1  0
 17 18  1  6
 17 24  1  0
 18 19  2  0
 18 23  1  0
 19 20  1  0
 20 21  1  0
 21 22  2  0
 21 23  1  0
 24 25  1  0
 25 26  1  0
 25 31  1  6
 26 27  1  1
 26 30  1  0
 27 28  1  0
 28 29  1  0
 29 30  1  0
M  END
