
     RDKit          3D

 31 33  0  0  0  0  0  0  0  0999 V2000
   -5.7630    2.8060    2.9560 N   0  0  0  0  0  0  0  0  0  0  0  0
   -5.0170    2.2780    1.9520 O   0  0  0  0  0  0  0  0  0  0  0  0
   -4.8150    0.9200    2.2050 C   0  0  0  0  0  0  0  0  0  0  0  0
   -4.0070    0.2750    1.1450 C   0  0  0  0  0  0  0  0  0  0  0  0
   -4.4790   -0.7150    0.4440 C   0  0  0  0  0  0  0  0  0  0  0  0
   -6.1360   -1.3270    0.7480 S   0  0  0  0  0  0  0  0  0  0  0  0
   -6.3570   -2.6760   -0.4010 C   0  0  0  0  0  0  0  0  0  0  0  0
   -5.3730   -2.9680   -1.2050 C   0  0  0  0  0  0  0  0  0  0  0  0
   -4.1310   -2.3530   -1.2930 N   0  0  0  0  0  0  0  0  0  0  0  0
   -3.7080   -1.3800   -0.6020 C   0  0  0  0  0  0  0  0  0  0  0  0
   -2.3880   -0.9210   -0.8670 N   0  0  0  0  0  0  0  0  0  0  0  0
   -1.8340   -0.8120   -2.1610 C   0  0  0  0  0  0  0  0  0  0  0  0
   -0.5430   -0.5000   -2.4710 C   0  0  0  0  0  0  0  0  0  0  0  0
    0.5590   -0.2340   -1.5680 C   0  0  0  0  0  0  0  0  0  0  0  0
    0.4000   -0.2720   -0.3420 O   0  0  0  0  0  0  0  0  0  0  0  0
    1.8720    0.0810   -2.0570 N   0  0  0  0  0  0  0  0  0  0  0  0
    2.9850    0.3460   -1.2930 N   0  0  0  0  0  0  0  0  0  0  0  0
    3.4240   -0.3330   -0.1470 C   0  0  0  0  0  0  0  0  0  0  0  0
    2.7260   -1.3080    0.2520 O   0  0  0  0  0  0  0  0  0  0  0  0
    4.6300   -0.0000    0.6200 C   0  0  1  0  0  0  0  0  0  0  0  0
    4.7560    1.4120    1.0100 C   0  0  0  0  0  0  0  0  0  0  0  0
    5.8770    1.7000    1.6930 C   0  0  0  0  0  0  0  0  0  0  0  0
    6.1460    2.9800    2.1320 O   0  0  0  0  0  0  0  0  0  0  0  0
    6.8460    0.5890    1.9720 C   0  0  2  0  0  0  0  0  0  0  0  0
    7.7490    0.6090    0.8860 O   0  0  0  0  0  0  0  0  0  0  0  0
    6.1700   -0.7390    2.0920 C   0  0  0  0  0  0  0  0  0  0  0  0
    4.8320   -0.7660    1.7350 O   0  0  0  0  0  0  0  0  0  0  0  0
   -0.4630   -0.4870   -3.8190 N   0  0  0  0  0  0  0  0  0  0  0  0
   -1.6140   -0.7680   -4.3730 N   0  0  0  0  0  0  0  0  0  0  0  0
   -2.4870   -0.9760   -3.3630 C   0  0  0  0  0  0  0  0  0  0  0  0
   -3.7120   -1.2720   -3.5710 O   0  0  0  0  0  0  0  0  0  0  0  0
  1  2  1  0
  2  3  1  0
  3  4  1  0
  4  5  2  3
  5  6  1  0
  5 10  1  0
  6  7  1  0
  7  8  2  0
  8  9  1  0
  9 10  2  0
 10 11  1  0
 11 12  1  0
 12 13  2  0
 12 30  1  0
 13 14  1  0
 13 28  1  0
 14 15  2  0
 14 16  1  0
 16 17  1  0
 17 18  1  0
 18 19  2  0
 20 18  1  1
 20 21  1  0
 20 27  1  0
 21 22  2  0
 22 23  1  0
 22 24  1  0
 24 25  1  6
 24 26  1  0
 26 27  1  0
 28 29  1  0
 29 30  1  0
 30 31  2  0
M  CHG  1   1   1
M  END
