
     RDKit          3D

 31 32  0  0  0  0  0  0  0  0999 V2000
   -7.3200   -0.4610    0.1560 C   0  0  0  0  0  0  0  0  0  0  0  0
   -6.2140    0.5080   -0.2020 C   0  0  2  0  0  0  0  0  0  0  0  0
   -5.1780    0.4740    0.8000 N   0  0  0  0  0  0  0  0  0  0  0  0
   -3.8530    0.1060    0.4890 C   0  0  0  0  0  0  0  0  0  0  0  0
   -3.5300   -0.2100   -0.7010 O   0  0  0  0  0  0  0  0  0  0  0  0
   -2.8150    0.0620    1.4430 N   0  0  0  0  0  0  0  0  0  0  0  0
   -1.4950   -0.2990    1.1620 N   0  0  0  0  0  0  0  0  0  0  0  0
   -1.1250   -1.4840    0.5020 C   0  0  0  0  0  0  0  0  0  0  0  0
   -2.0770   -2.2570    0.1440 O   0  0  0  0  0  0  0  0  0  0  0  0
    0.2450   -1.8930    0.1980 C   0  0  1  0  0  0  0  0  0  0  0  0
    0.9900   -2.1030    1.5060 C   0  0  0  0  0  0  0  0  0  0  0  0
    0.2740   -3.1650   -0.4950 N   0  0  0  0  0  0  0  0  0  0  0  0
    1.5650   -3.2320   -1.1110 C   0  0  0  0  0  0  0  0  0  0  0  0
    2.1980   -4.2610   -1.4640 O   0  0  0  0  0  0  0  0  0  0  0  0
    2.0260   -1.8720   -1.2610 N   0  0  0  0  0  0  0  0  0  0  0  0
    3.2500   -1.5660   -1.8190 N   0  0  0  0  0  0  0  0  0  0  0  0
    4.2300   -0.7200   -1.2200 C   0  0  0  0  0  0  0  0  0  0  0  0
    3.9420   -0.2210   -0.1050 O   0  0  0  0  0  0  0  0  0  0  0  0
    5.5150   -0.4280   -1.8450 C   0  0  0  0  0  0  0  0  0  0  0  0
    6.4140    0.4830   -1.0820 C   0  0  1  0  0  0  0  0  0  0  0  0
    5.8680    1.8500   -0.8170 C   0  0  0  0  0  0  0  0  0  0  0  0
    6.8540    2.6160   -0.0170 C   0  0  0  0  0  0  0  0  0  0  0  0
    7.7690    2.0630    0.7520 C   0  0  0  0  0  0  0  0  0  0  0  0
    7.8340    0.6120    0.8350 C   0  0  0  0  0  0  0  0  0  0  0  0
    8.6910    0.0420    1.5590 O   0  0  0  0  0  0  0  0  0  0  0  0
    6.9280   -0.1340    0.0980 O   0  0  0  0  0  0  0  0  0  0  0  0
    0.9890   -1.0340   -0.7270 C   0  0  0  0  0  0  0  0  0  0  0  0
    0.8620    0.1670   -1.0690 O   0  0  0  0  0  0  0  0  0  0  0  0
   -6.8330    1.8890   -0.3200 C   0  0  1  0  0  0  0  0  0  0  0  0
   -7.4260    2.2330    0.9400 N   0  0  0  0  0  0  0  0  0  0  0  0
   -5.6580    3.0990   -0.9330 S   0  0  0  0  0  0  0  0  0  0  0  0
  2  1  1  1
  2  3  1  0
  2 29  1  0
  3  4  1  0
  4  5  2  0
  4  6  1  0
  6  7  1  0
  7  8  1  0
  8  9  2  0
  8 10  1  0
 10 11  1  1
 10 12  1  0
 10 27  1  0
 12 13  1  0
 13 14  2  0
 13 15  1  0
 15 16  1  0
 15 27  1  0
 16 17  1  0
 17 18  2  0
 17 19  1  0
 20 19  1  1
 20 21  1  0
 20 26  1  0
 21 22  1  0
 22 23  2  0
 23 24  1  0
 24 25  2  0
 24 26  1  0
 27 28  2  0
 29 30  1  1
 29 31  1  0
M  CHG  1  30   1
M  END
