
     RDKit          3D

 29 31  0  0  0  0  0  0  0  0999 V2000
   -3.4260    3.1380   -0.8800 C   0  0  0  0  0  0  0  0  0  0  0  0
   -3.5110    1.6180   -0.8480 C   0  0  1  0  0  0  0  0  0  0  0  0
   -2.0660    1.1010   -0.8200 C   0  0  0  0  0  0  0  0  0  0  0  0
   -1.7990    0.6720    0.5850 C   0  0  2  0  0  0  0  0  0  0  0  0
   -0.3730    0.4690    0.9370 C   0  0  0  0  0  0  0  0  0  0  0  0
    0.2830   -0.5860    0.0920 C   0  0  0  0  0  0  0  0  0  0  0  0
   -0.3360   -1.1970   -0.7860 O   0  0  0  0  0  0  0  0  0  0  0  0
    1.6490   -0.8780    0.3210 N   0  0  0  0  0  0  0  0  0  0  0  0
    2.4420   -1.8330   -0.3610 C   0  0  0  0  0  0  0  0  0  0  0  0
    1.9490   -2.7290   -1.2720 C   0  0  0  0  0  0  0  0  0  0  0  0
    2.7140   -3.6970   -1.9180 C   0  0  0  0  0  0  0  0  0  0  0  0
    2.0230   -4.8090   -3.0690 Cl  0  0  0  0  0  0  0  0  0  0  0  0
    4.0530   -3.7680   -1.6290 C   0  0  0  0  0  0  0  0  0  0  0  0
    4.5780   -2.8840   -0.7200 C   0  0  0  0  0  0  0  0  0  0  0  0
    3.7840   -1.9040   -0.0740 C   0  0  0  0  0  0  0  0  0  0  0  0
    4.4970   -1.1280    0.7870 O   0  0  0  0  0  0  0  0  0  0  0  0
    4.8030    0.1560    0.8890 C   0  0  0  0  0  0  0  0  0  0  0  0
    5.6990    0.7100   -0.0330 C   0  0  0  0  0  0  0  0  0  0  0  0
    6.0730    2.0320    0.0050 C   0  0  0  0  0  0  0  0  0  0  0  0
    5.5760    2.8680    0.9600 C   0  0  0  0  0  0  0  0  0  0  0  0
    6.0200    4.5540    1.0500 Cl  0  0  0  0  0  0  0  0  0  0  0  0
    4.6970    2.3640    1.8800 C   0  0  0  0  0  0  0  0  0  0  0  0
    4.3250    1.0200    1.8310 C   0  0  0  0  0  0  0  0  0  0  0  0
   -2.6870   -0.5080    0.8920 C   0  0  0  0  0  0  0  0  0  0  0  0
   -4.1150   -0.0650    0.6320 C   0  0  2  0  0  0  0  0  0  0  0  0
   -4.8090   -0.9570   -0.3740 C   0  0  0  0  0  0  0  0  0  0  0  0
   -6.2190   -0.4040   -0.5390 C   0  0  0  0  0  0  0  0  0  0  0  0
   -6.8500   -0.4500    0.7260 O   0  0  0  0  0  0  0  0  0  0  0  0
   -4.2070    1.2710    0.2850 O   0  0  0  0  0  0  0  0  0  0  0  0
  2  1  1  1
  2  3  1  0
  2 29  1  0
  3  4  1  0
  4  5  1  6
  4 24  1  0
  5  6  1  0
  6  7  2  0
  6  8  1  0
  8  9  1  0
  9 10  2  0
  9 15  1  0
 10 11  1  0
 11 12  1  0
 11 13  2  0
 13 14  1  0
 14 15  2  0
 15 16  1  0
 16 17  1  0
 17 18  2  0
 17 23  1  0
 18 19  1  0
 19 20  2  0
 20 21  1  0
 20 22  1  0
 22 23  2  0
 24 25  1  0
 25 26  1  6
 25 29  1  0
 26 27  1  0
 27 28  1  0
M  END
