
     RDKit          3D

 31 32  0  0  0  0  0  0  0  0999 V2000
   -4.3370    0.2330    0.2180 C   0  0  0  0  0  0  0  0  0  0  0  0
   -3.6210    1.0730   -0.4870 C   0  0  0  0  0  0  0  0  0  0  0  0
   -4.3050    2.7130   -0.8160 S   0  0  0  0  0  0  0  0  0  0  0  0
   -5.9260    2.8230   -0.0260 C   0  0  0  0  0  0  0  0  0  0  0  0
   -2.2870    0.6940   -1.0170 C   0  0  2  0  0  0  0  0  0  0  0  0
   -2.4570    0.6230   -2.4680 N   0  0  0  0  0  0  0  0  0  0  0  0
   -1.8600   -0.6060   -0.4860 C   0  0  2  0  0  0  0  0  0  0  0  0
   -1.7520   -0.6240    1.0110 C   0  0  0  0  0  0  0  0  0  0  0  0
   -1.9010    0.4130    1.6720 O   0  0  0  0  0  0  0  0  0  0  0  0
   -1.4720   -1.9010    1.5710 N   0  0  0  0  0  0  0  0  0  0  0  0
   -0.9070   -2.8220    0.8690 C   0  0  0  0  0  0  0  0  0  0  0  0
   -0.6340   -4.1480    1.5070 C   0  0  0  0  0  0  0  0  0  0  0  0
   -1.0530   -4.1780    2.8150 O   0  0  0  0  0  0  0  0  0  0  0  0
   -0.5550   -2.5620   -0.4870 N   0  0  0  0  0  0  0  0  0  0  0  0
   -0.5810   -1.1860   -0.9890 C   0  0  2  0  0  0  0  0  0  0  0  0
    0.6510   -0.4130   -0.5260 C   0  0  0  0  0  0  0  0  0  0  0  0
    1.4590   -0.9590    0.2000 N   0  0  0  0  0  0  0  0  0  0  0  0
    2.6210   -0.9320    0.9170 C   0  0  0  0  0  0  0  0  0  0  0  0
    2.6630   -0.3650    2.0780 O   0  0  0  0  0  0  0  0  0  0  0  0
    3.8900   -1.4970    0.5160 N   0  0  0  0  0  0  0  0  0  0  0  0
    4.6390   -1.1780   -0.6010 N   0  0  0  0  0  0  0  0  0  0  0  0
    5.3570    0.0020   -0.8890 C   0  0  0  0  0  0  0  0  0  0  0  0
    5.9520    0.0990   -2.0330 O   0  0  0  0  0  0  0  0  0  0  0  0
    5.5180    1.1650   -0.0220 C   0  0  0  0  0  0  0  0  0  0  0  0
    6.7200    1.5610    0.2670 O   0  0  0  0  0  0  0  0  0  0  0  0
    4.4600    1.9230    0.5480 N   0  0  0  0  0  0  0  0  0  0  0  0
    3.4080    2.5900   -0.1890 C   0  0  0  0  0  0  0  0  0  0  0  0
    2.0730    2.5800    0.4760 C   0  0  0  0  0  0  0  0  0  0  0  0
    1.0410    2.0740   -0.2710 O   0  0  0  0  0  0  0  0  0  0  0  0
    0.7910    0.9680   -0.9880 C   0  0  0  0  0  0  0  0  0  0  0  0
    0.6450    1.1010   -2.2720 O   0  0  0  0  0  0  0  0  0  0  0  0
  1  2  2  0
  2  3  1  0
  2  5  1  0
  3  4  1  0
  5  6  1  6
  5  7  1  0
  7  8  1  1
  7 15  1  0
  8  9  2  0
  8 10  1  0
 10 11  2  0
 11 12  1  0
 11 14  1  0
 12 13  1  0
 14 15  1  0
 15 16  1  1
 16 17  2  0
 16 30  1  0
 17 18  1  0
 18 19  2  0
 18 20  1  0
 20 21  1  0
 21 22  1  0
 22 23  2  0
 22 24  1  0
 24 25  2  0
 24 26  1  0
 26 27  1  0
 27 28  1  0
 28 29  1  0
 29 30  1  0
 30 31  2  0
M  CHG  1   6   1
M  END
