
     RDKit          3D

 31 32  0  0  0  0  0  0  0  0999 V2000
   -4.7290   -2.9410   -0.3750 C   0  0  0  0  0  0  0  0  0  0  0  0
   -5.4790   -2.3740    0.8230 C   0  0  2  0  0  0  0  0  0  0  0  0
   -6.7640   -2.8240    0.9000 O   0  0  0  0  0  0  0  0  0  0  0  0
   -5.3240   -0.8760    0.7960 C   0  0  1  0  0  0  0  0  0  0  0  0
   -5.8320   -0.2890    2.1400 C   0  0  0  0  0  0  0  0  0  0  0  0
   -3.8780   -0.5890    0.7390 N   0  0  0  0  0  0  0  0  0  0  0  0
   -3.4260    0.4840    0.2470 C   0  0  0  0  0  0  0  0  0  0  0  0
   -1.9550    0.8560    0.1780 C   0  0  0  0  0  0  0  0  0  0  0  0
   -1.7020    1.1010   -1.2300 N   0  0  0  0  0  0  0  0  0  0  0  0
   -0.4420    1.5760   -1.6880 C   0  0  0  0  0  0  0  0  0  0  0  0
    0.4300    1.7120   -0.8030 O   0  0  0  0  0  0  0  0  0  0  0  0
   -0.1900    1.8950   -3.0320 N   0  0  0  0  0  0  0  0  0  0  0  0
    1.0250    2.3830   -3.5600 C   0  0  0  0  0  0  0  0  0  0  0  0
    2.1590    1.4460   -3.6230 C   0  0  2  0  0  0  0  0  0  0  0  0
    1.8100    0.3830   -4.5580 O   0  0  0  0  0  0  0  0  0  0  0  0
    2.6770    0.7360   -2.5010 C   0  0  0  0  0  0  0  0  0  0  0  0
    2.7760   -0.4250   -2.2620 O   0  0  0  0  0  0  0  0  0  0  0  0
    3.3050    1.7020   -1.2280 N   0  0  0  0  0  0  0  0  0  0  0  0
    3.8260    0.6440   -0.5450 C   0  0  0  0  0  0  0  0  0  0  0  0
    3.8650   -0.5710   -0.6030 O   0  0  0  0  0  0  0  0  0  0  0  0
    4.6000    1.1350    0.6030 N   0  0  0  0  0  0  0  0  0  0  0  0
    5.0840    0.1670    1.4770 C   0  0  0  0  0  0  0  0  0  0  0  0
    6.0730    0.4450    2.0970 N   0  0  0  0  0  0  0  0  0  0  0  0
    6.6950   -0.3780    2.9930 C   0  0  2  0  0  0  0  0  0  0  0  0
    7.6980   -1.3860    2.5250 C   0  0  0  0  0  0  0  0  0  0  0  0
    5.5810   -1.1490    3.7850 C   0  0  0  0  0  0  0  0  0  0  0  0
    4.4670   -1.3100    2.3730 S   0  0  0  0  0  0  0  0  0  0  0  0
   -4.3120    1.3600   -0.4980 N   0  0  0  0  0  0  0  0  0  0  0  0
   -5.6440    1.0120   -0.7000 C   0  0  0  0  0  0  0  0  0  0  0  0
   -6.4530    1.7570   -1.3250 O   0  0  0  0  0  0  0  0  0  0  0  0
   -6.0830   -0.2330   -0.1690 O   0  0  0  0  0  0  0  0  0  0  0  0
  2  1  1  6
  2  3  1  0
  2  4  1  0
  4  5  1  1
  4  6  1  0
  4 31  1  0
  6  7  2  0
  7  8  1  0
  7 28  1  0
  8  9  1  0
  9 10  1  0
 10 11  2  0
 10 12  1  0
 12 13  1  0
 13 14  1  0
 14 15  1  6
 14 16  1  0
 16 17  2  0
 16 18  1  0
 18 19  1  0
 19 20  2  0
 19 21  1  0
 21 22  1  0
 22 23  2  0
 22 27  1  0
 23 24  1  0
 24 25  1  6
 24 26  1  0
 26 27  1  0
 28 29  1  0
 29 30  2  0
 29 31  1  0
M  CHG  1   6   1
M  END
