
     RDKit          3D

 29 32  0  0  0  0  0  0  0  0999 V2000
   -2.8930    4.9030   -0.1350 C   0  0  0  0  0  0  0  0  0  0  0  0
   -3.9380    3.9250   -0.3250 N   0  0  0  0  0  0  0  0  0  0  0  0
   -3.6660    2.5390   -0.3530 C   0  0  0  0  0  0  0  0  0  0  0  0
   -4.5590    1.5390   -0.5230 N   0  0  0  0  0  0  0  0  0  0  0  0
   -3.8890    0.3780   -0.4870 C   0  0  0  0  0  0  0  0  0  0  0  0
   -4.2460   -0.9460   -0.6000 C   0  0  0  0  0  0  0  0  0  0  0  0
   -3.3070   -1.9600   -0.5200 C   0  0  0  0  0  0  0  0  0  0  0  0
   -3.6830   -3.2800   -0.6300 C   0  0  0  0  0  0  0  0  0  0  0  0
   -4.9180   -3.5170   -0.8110 O   0  0  0  0  0  0  0  0  0  0  0  0
   -2.7620   -4.2250   -0.5430 N   0  0  0  0  0  0  0  0  0  0  0  0
   -1.4600   -3.9650   -0.3520 C   0  0  0  0  0  0  0  0  0  0  0  0
   -0.5170   -5.0330   -0.2680 N   0  0  0  0  0  0  0  0  0  0  0  0
   -1.0710   -2.6720   -0.2420 N   0  0  0  0  0  0  0  0  0  0  0  0
   -1.9590   -1.6710   -0.3220 C   0  0  0  0  0  0  0  0  0  0  0  0
   -1.6160   -0.3280   -0.2100 C   0  0  0  0  0  0  0  0  0  0  0  0
   -0.1810    0.0060   -0.0240 C   0  0  0  0  0  0  0  0  0  0  0  0
    0.4990   -0.0680   -1.3520 C   0  0  0  0  0  0  0  0  0  0  0  0
    1.9710    0.2350   -1.3110 C   0  0  1  0  0  0  0  0  0  0  0  0
    2.2940    1.4720   -0.8420 O   0  0  0  0  0  0  0  0  0  0  0  0
    3.0890    1.3570    0.2790 C   0  0  1  0  0  0  0  0  0  0  0  0
    2.5080    2.1310    1.2790 O   0  0  0  0  0  0  0  0  0  0  0  0
    3.4470    3.0550    1.7140 C   0  0  0  0  0  0  0  0  0  0  0  0
    3.1650   -0.0990    0.6710 C   0  0  2  0  0  0  0  0  0  0  0  0
    4.4590   -0.4820    0.9990 O   0  0  0  0  0  0  0  0  0  0  0  0
    4.4430   -1.0540    2.2660 C   0  0  0  0  0  0  0  0  0  0  0  0
    2.7890   -0.7960   -0.6150 C   0  0  2  0  0  0  0  0  0  0  0  0
    3.9790   -1.0180   -1.3260 O   0  0  0  0  0  0  0  0  0  0  0  0
   -2.5800    0.6850   -0.2930 C   0  0  0  0  0  0  0  0  0  0  0  0
   -2.4170    2.0150   -0.2070 N   0  0  0  0  0  0  0  0  0  0  0  0
  1  2  1  0
  2  3  1  0
  3  4  2  0
  3 29  1  0
  4  5  1  0
  5  6  2  0
  5 28  1  0
  6  7  1  0
  7  8  1  0
  7 14  2  0
  8  9  2  0
  8 10  1  0
 10 11  1  0
 11 12  1  0
 11 13  2  0
 13 14  1  0
 14 15  1  0
 15 16  1  0
 15 28  2  0
 16 17  1  0
 18 17  1  1
 18 19  1  0
 18 26  1  0
 19 20  1  0
 20 21  1  1
 20 23  1  0
 21 22  1  0
 23 24  1  6
 23 26  1  0
 24 25  1  0
 26 27  1  6
 28 29  1  0
M  CHG  1  13   1
M  END
