
     RDKit          3D

 35 38  0  0  0  0  0  0  0  0999 V2000
    1.7900   -1.6660   -2.7790 C   0  0  0  0  0  0  0  0  0  0  0  0
    1.9890   -0.5380   -1.7250 C   0  0  1  0  0  0  0  0  0  0  0  0
    2.0970    0.7540   -2.3870 C   0  0  0  0  0  0  0  0  0  0  0  0
    0.9530   -0.6610   -0.7420 N   0  0  0  0  0  0  0  0  0  0  0  0
    0.6770    0.3330    0.2080 C   0  0  0  0  0  0  0  0  0  0  0  0
    1.2970    1.4530    0.1870 O   0  0  0  0  0  0  0  0  0  0  0  0
   -0.3080    0.1490    1.2590 C   0  0  0  0  0  0  0  0  0  0  0  0
   -1.6690    0.5700    0.9650 C   0  0  0  0  0  0  0  0  0  0  0  0
   -2.5980   -0.4230    0.5560 C   0  0  0  0  0  0  0  0  0  0  0  0
   -3.9090   -0.1090    0.3740 C   0  0  0  0  0  0  0  0  0  0  0  0
   -4.4010    1.1570    0.5710 C   0  0  0  0  0  0  0  0  0  0  0  0
   -5.7720    1.4880    0.4790 N   0  0  0  0  0  0  0  0  0  0  0  0
   -6.7990    0.5830    0.7890 C   0  0  0  0  0  0  0  0  0  0  0  0
   -6.4100   -0.5770    1.1690 O   0  0  0  0  0  0  0  0  0  0  0  0
   -8.2440    0.8160    0.7230 C   0  0  0  0  0  0  0  0  0  0  0  0
   -9.0600   -0.3170    0.7470 C   0  0  0  0  0  0  0  0  0  0  0  0
  -10.3970   -0.3960    0.6730 C   0  0  0  0  0  0  0  0  0  0  0  0
  -11.2790    0.6840    0.5500 C   0  0  0  0  0  0  0  0  0  0  0  0
  -10.4790    2.1750    0.5030 S   0  0  0  0  0  0  0  0  0  0  0  0
   -8.7920    2.0960    0.6090 C   0  0  0  0  0  0  0  0  0  0  0  0
   -8.0280    3.1150    0.5920 O   0  0  0  0  0  0  0  0  0  0  0  0
   -3.4940    2.1180    0.9630 C   0  0  0  0  0  0  0  0  0  0  0  0
   -2.1440    1.8350    1.1600 C   0  0  0  0  0  0  0  0  0  0  0  0
    3.2440   -0.9780   -0.9990 C   0  0  0  0  0  0  0  0  0  0  0  0
    3.0900   -2.1550   -0.2880 C   0  0  0  0  0  0  0  0  0  0  0  0
    4.1550   -2.6830    0.4050 C   0  0  0  0  0  0  0  0  0  0  0  0
    5.3630   -2.0190    0.3730 C   0  0  0  0  0  0  0  0  0  0  0  0
    6.5560   -2.2990    0.9420 N   0  0  0  0  0  0  0  0  0  0  0  0
    7.4020   -1.3540    0.6020 N   0  0  0  0  0  0  0  0  0  0  0  0
    6.8020   -0.4520   -0.1760 N   0  0  0  0  0  0  0  0  0  0  0  0
    7.4210    0.7300   -0.7340 C   0  0  0  0  0  0  0  0  0  0  0  0
    7.2210    1.8470    0.3090 C   0  0  0  0  0  0  0  0  0  0  0  0
    7.8240    1.4520    1.5600 N   0  0  0  0  0  0  0  0  0  0  0  0
    5.5350   -0.8450   -0.3290 C   0  0  0  0  0  0  0  0  0  0  0  0
    4.4140   -0.3300   -1.0330 C   0  0  0  0  0  0  0  0  0  0  0  0
  2  1  1  6
  2  3  1  0
  2  4  1  0
  2 24  1  0
  4  5  1  0
  5  6  2  0
  5  7  1  0
  7  8  1  0
  8  9  2  0
  8 23  1  0
  9 10  1  0
 10 11  2  0
 11 12  1  0
 11 22  1  0
 12 13  1  0
 13 14  2  0
 13 15  1  0
 15 16  2  0
 15 20  1  0
 16 17  1  0
 17 18  2  0
 18 19  1  0
 19 20  1  0
 20 21  2  0
 22 23  2  0
 24 25  2  0
 24 35  1  0
 25 26  1  0
 26 27  2  0
 27 28  1  0
 27 34  1  0
 28 29  2  0
 29 30  1  0
 30 31  1  0
 30 34  1  0
 31 32  1  0
 32 33  1  0
 34 35  2  0
M  CHG  1  33   1
M  END
