
     RDKit          3D

 33 33  0  0  0  0  0  0  0  0999 V2000
    9.8010    1.7570    3.8290 C   0  0  0  0  0  0  0  0  0  0  0  0
   10.3100    0.7810    2.9660 O   0  0  0  0  0  0  0  0  0  0  0  0
    9.2280    0.3750    2.1400 C   0  0  0  0  0  0  0  0  0  0  0  0
    8.8010    1.4880    1.4690 O   0  0  0  0  0  0  0  0  0  0  0  0
    7.7560    1.2720    0.6140 C   0  0  0  0  0  0  0  0  0  0  0  0
    6.5370    0.7550    1.3240 C   0  0  0  0  0  0  0  0  0  0  0  0
    5.5290    0.5840    0.3130 O   0  0  0  0  0  0  0  0  0  0  0  0
    4.2880    0.1050    0.6760 C   0  0  0  0  0  0  0  0  0  0  0  0
    4.0840   -0.1680    1.8840 O   0  0  0  0  0  0  0  0  0  0  0  0
    3.2370   -0.0790   -0.3340 C   0  0  0  0  0  0  0  0  0  0  0  0
    3.5310    0.2300   -1.5350 O   0  0  0  0  0  0  0  0  0  0  0  0
    1.9510   -0.5740   -0.0020 N   0  0  0  0  0  0  0  0  0  0  0  0
    1.0130   -0.7130   -1.0290 N   0  0  0  0  0  0  0  0  0  0  0  0
   -0.1110   -1.5640   -0.9570 C   0  0  0  0  0  0  0  0  0  0  0  0
   -0.2280   -2.2230    0.1290 O   0  0  0  0  0  0  0  0  0  0  0  0
   -1.1390   -1.7690   -1.9760 C   0  0  2  0  0  0  0  0  0  0  0  0
   -0.9190   -1.0030   -3.1850 N   0  0  0  0  0  0  0  0  0  0  0  0
   -2.5410   -1.7220   -1.5010 C   0  0  0  0  0  0  0  0  0  0  0  0
   -3.0300   -0.4740   -0.8710 C   0  0  1  0  0  0  0  0  0  0  0  0
   -2.3220   -0.0090    0.3710 C   0  0  0  0  0  0  0  0  0  0  0  0
   -3.3560    0.6600   -1.8230 C   0  0  2  0  0  0  0  0  0  0  0  0
   -3.3460    1.9650   -1.2330 N   0  0  0  0  0  0  0  0  0  0  0  0
   -2.6200    3.0260   -1.8360 C   0  0  0  0  0  0  0  0  0  0  0  0
   -2.0030    2.7620   -2.8860 O   0  0  0  0  0  0  0  0  0  0  0  0
   -2.6280    4.3540   -1.2080 C   0  0  0  0  0  0  0  0  0  0  0  0
   -1.8810    5.2770   -1.9190 O   0  0  0  0  0  0  0  0  0  0  0  0
   -4.7240    0.0410   -2.0050 C   0  0  0  0  0  0  0  0  0  0  0  0
   -4.5470   -0.5800   -0.6460 C   0  0  1  0  0  0  0  0  0  0  0  0
   -4.9390   -1.8790   -0.5120 O   0  0  0  0  0  0  0  0  0  0  0  0
   -5.6770   -2.1550    0.6200 C   0  0  2  0  0  0  0  0  0  0  0  0
   -5.1230   -3.1940    1.5180 C   0  0  0  0  0  0  0  0  0  0  0  0
   -7.1170   -2.5240    0.2620 C   0  0  0  0  0  0  0  0  0  0  0  0
   -7.8560   -2.7980    1.4060 O   0  0  0  0  0  0  0  0  0  0  0  0
  1  2  1  0
  2  3  1  0
  3  4  1  0
  4  5  1  0
  5  6  1  0
  6  7  1  0
  7  8  1  0
  8  9  2  0
  8 10  1  0
 10 11  2  0
 10 12  1  0
 12 13  1  0
 13 14  1  0
 14 15  2  0
 14 16  1  0
 16 17  1  6
 16 18  1  0
 18 19  1  0
 19 20  1  1
 19 21  1  0
 19 28  1  0
 21 22  1  1
 21 27  1  0
 22 23  1  0
 23 24  2  0
 23 25  1  0
 25 26  1  0
 27 28  1  0
 28 29  1  6
 29 30  1  0
 30 31  1  6
 30 32  1  0
 32 33  1  0
M  END
