
     RDKit          3D

 34 34  0  0  0  0  0  0  0  0999 V2000
    5.8980    3.0090    0.1400 C   0  0  0  0  0  0  0  0  0  0  0  0
    4.4640    2.7040    0.5050 C   0  0  2  0  0  0  0  0  0  0  0  0
    4.2870    2.4400    1.9660 C   0  0  0  0  0  0  0  0  0  0  0  0
    4.6110    3.5220    2.7650 O   0  0  0  0  0  0  0  0  0  0  0  0
    4.1070    1.5440   -0.1870 O   0  0  0  0  0  0  0  0  0  0  0  0
    3.0780    1.7810   -1.0890 C   0  0  0  0  0  0  0  0  0  0  0  0
    2.7650    0.4720   -1.7840 C   0  0  0  0  0  0  0  0  0  0  0  0
    2.3420   -0.5460   -0.7440 C   0  0  2  0  0  0  0  0  0  0  0  0
    3.3410   -0.7650    0.1890 O   0  0  0  0  0  0  0  0  0  0  0  0
    2.0740   -1.8810   -1.4250 C   0  0  0  0  0  0  0  0  0  0  0  0
    2.3720   -2.9590   -0.5070 N   0  0  0  0  0  0  0  0  0  0  0  0
    1.7930   -4.2410   -0.5700 C   0  0  0  0  0  0  0  0  0  0  0  0
    2.0790   -5.1080    0.3110 O   0  0  0  0  0  0  0  0  0  0  0  0
    0.8400   -4.6690   -1.6260 C   0  0  0  0  0  0  0  0  0  0  0  0
   -0.2000   -5.4610   -0.9930 N   0  0  0  0  0  0  0  0  0  0  0  0
   -1.3240   -4.8900   -0.3370 C   0  0  0  0  0  0  0  0  0  0  0  0
   -2.4340   -5.5060   -0.4860 O   0  0  0  0  0  0  0  0  0  0  0  0
   -1.2690   -3.6600    0.4790 C   0  0  0  0  0  0  0  0  0  0  0  0
   -2.2160   -2.7250    0.1660 O   0  0  0  0  0  0  0  0  0  0  0  0
   -1.9020   -1.8690   -0.8530 C   0  0  0  0  0  0  0  0  0  0  0  0
   -1.0670   -0.6900   -0.4470 C   0  0  1  0  0  0  0  0  0  0  0  0
   -1.7360    0.2260    0.4860 C   0  0  0  0  0  0  0  0  0  0  0  0
   -1.1560    0.5650    1.5340 O   0  0  0  0  0  0  0  0  0  0  0  0
   -3.0240    0.7250    0.2110 N   0  0  0  0  0  0  0  0  0  0  0  0
   -3.7170    1.6300    1.1050 C   0  0  2  0  0  0  0  0  0  0  0  0
   -4.9890    0.9830    1.6050 C   0  0  0  0  0  0  0  0  0  0  0  0
   -5.8920    0.6550    0.4310 C   0  0  0  0  0  0  0  0  0  0  0  0
   -6.2370    1.7990   -0.2880 O   0  0  0  0  0  0  0  0  0  0  0  0
   -3.9830    2.9220    0.4650 C   0  0  0  0  0  0  0  0  0  0  0  0
   -3.6200    3.1300   -0.7150 O   0  0  0  0  0  0  0  0  0  0  0  0
   -4.6360    3.9140    1.1640 O   0  0  0  0  0  0  0  0  0  0  0  0
   -4.8970    5.1390    0.5790 N   0  0  0  0  0  0  0  0  0  0  0  0
    0.1850   -1.0520    0.0200 O   0  0  0  0  0  0  0  0  0  0  0  0
    1.1070   -0.0130   -0.0630 C   0  0  0  0  0  0  0  0  0  0  0  0
  2  1  1  1
  2  3  1  0
  2  5  1  0
  3  4  1  0
  5  6  1  0
  6  7  1  0
  7  8  1  0
  8  9  1  1
  8 10  1  0
  8 34  1  0
 10 11  1  0
 11 12  1  0
 12 13  2  0
 12 14  1  0
 14 15  1  0
 15 16  1  0
 16 17  2  0
 16 18  1  0
 18 19  1  0
 19 20  1  0
 20 21  1  0
 21 22  1  1
 21 33  1  0
 22 23  2  0
 22 24  1  0
 24 25  1  0
 25 26  1  6
 25 29  1  0
 26 27  1  0
 27 28  1  0
 29 30  2  0
 29 31  1  0
 31 32  1  0
 33 34  1  0
M  END
