
     RDKit          3D

 25 26  0  0  0  0  0  0  0  0999 V2000
   -3.1660    1.3790   -1.5510 C   0  0  0  0  0  0  0  0  0  0  0  0
   -4.0670    1.2590   -0.6150 C   0  0  0  0  0  0  0  0  0  0  0  0
   -5.3120    1.8420   -0.7900 O   0  0  0  0  0  0  0  0  0  0  0  0
   -3.8360    0.5330    0.6310 C   0  0  0  0  0  0  0  0  0  0  0  0
   -2.6060   -0.0660    0.8520 O   0  0  0  0  0  0  0  0  0  0  0  0
   -1.5720    0.7130    1.4210 C   0  0  0  0  0  0  0  0  0  0  0  0
   -0.3270   -0.1170    1.5920 C   0  0  0  0  0  0  0  0  0  0  0  0
    0.1870   -0.6610    0.3630 N   0  0  0  0  0  0  0  0  0  0  0  0
   -0.5620   -1.6730   -0.3130 C   0  0  0  0  0  0  0  0  0  0  0  0
    0.2710   -2.7780   -0.8830 C   0  0  2  0  0  0  0  0  0  0  0  0
    0.4460   -3.8080    0.2460 C   0  0  0  0  0  0  0  0  0  0  0  0
    1.6120   -2.4090   -1.3570 C   0  0  0  0  0  0  0  0  0  0  0  0
    2.0910   -1.0960   -1.0280 N   0  0  0  0  0  0  0  0  0  0  0  0
    1.4140   -0.1930   -0.1510 C   0  0  0  0  0  0  0  0  0  0  0  0
    1.9010    0.9640    0.1360 N   0  0  0  0  0  0  0  0  0  0  0  0
    3.1270    1.4130   -0.3870 C   0  0  0  0  0  0  0  0  0  0  0  0
    4.2960    0.7720   -0.0870 C   0  0  0  0  0  0  0  0  0  0  0  0
    5.5220    1.2070   -0.5960 C   0  0  0  0  0  0  0  0  0  0  0  0
    5.5140    2.3050   -1.4130 C   0  0  0  0  0  0  0  0  0  0  0  0
    4.3560    2.9890   -1.7460 C   0  0  0  0  0  0  0  0  0  0  0  0
    4.3620    4.3870   -2.7890 Cl  0  0  0  0  0  0  0  0  0  0  0  0
    3.1590    2.5100   -1.2090 C   0  0  0  0  0  0  0  0  0  0  0  0
   -4.7600    0.4240    1.5630 C   0  0  0  0  0  0  0  0  0  0  0  0
   -4.4970   -0.3150    2.8100 C   0  0  0  0  0  0  0  0  0  0  0  0
   -6.3150    1.1730    1.3020 Cl  0  0  0  0  0  0  0  0  0  0  0  0
  1  2  2  0
  2  3  1  0
  2  4  1  0
  4  5  1  0
  4 23  2  3
  5  6  1  0
  6  7  1  0
  7  8  1  0
  8  9  1  0
  8 14  1  0
  9 10  1  0
 10 11  1  1
 10 12  1  0
 12 13  1  0
 13 14  1  0
 14 15  2  3
 15 16  1  0
 16 17  2  0
 16 22  1  0
 17 18  1  0
 18 19  2  0
 19 20  1  0
 20 21  1  0
 20 22  2  0
 23 24  1  0
 23 25  1  0
M  CHG  1  15   1
M  END
