
     RDKit          3D

 27 28  0  0  0  0  0  0  0  0999 V2000
    6.7520    3.8700   -0.2370 C   0  0  0  0  0  0  0  0  0  0  0  0
    6.0690    2.7060    0.4450 C   0  0  0  0  0  0  0  0  0  0  0  0
    6.5640    2.2760    1.5000 O   0  0  0  0  0  0  0  0  0  0  0  0
    4.9110    2.1180   -0.0830 N   0  0  0  0  0  0  0  0  0  0  0  0
    4.1840    1.0560    0.4260 N   0  0  0  0  0  0  0  0  0  0  0  0
    4.4930    0.4150    1.5380 C   0  0  0  0  0  0  0  0  0  0  0  0
    3.6810   -0.6480    1.9580 C   0  0  0  0  0  0  0  0  0  0  0  0
    2.5990   -1.0120    1.2380 N   0  0  0  0  0  0  0  0  0  0  0  0
    2.2700   -0.3850    0.1230 C   0  0  0  0  0  0  0  0  0  0  0  0
    1.1560   -0.6950   -0.6990 N   0  0  0  0  0  0  0  0  0  0  0  0
    0.2190   -1.7120   -0.4680 C   0  0  0  0  0  0  0  0  0  0  0  0
    0.3150   -2.4530    0.5380 O   0  0  0  0  0  0  0  0  0  0  0  0
   -0.8720   -1.9100   -1.4010 N   0  0  0  0  0  0  0  0  0  0  0  0
   -1.8030   -2.9410   -1.1460 C   0  0  2  0  0  0  0  0  0  0  0  0
   -2.2250   -3.6070   -2.4340 C   0  0  0  0  0  0  0  0  0  0  0  0
   -2.9050   -2.6080   -0.2430 C   0  0  0  0  0  0  0  0  0  0  0  0
   -3.9050   -1.5780   -0.4550 C   0  0  0  0  0  0  0  0  0  0  0  0
   -3.5570   -0.1360   -0.5310 C   0  0  2  0  0  0  0  0  0  0  0  0
   -2.7280    0.1620   -1.5610 O   0  0  0  0  0  0  0  0  0  0  0  0
   -3.0280    0.3890    0.8040 C   0  0  1  0  0  0  0  0  0  0  0  0
   -2.8730    1.8220    0.7880 N   0  0  0  0  0  0  0  0  0  0  0  0
   -4.0440    2.5230    1.0940 C   0  0  0  0  0  0  0  0  0  0  0  0
   -4.4650    3.5280    0.4480 O   0  0  0  0  0  0  0  0  0  0  0  0
   -4.7660    1.9700    2.2710 C   0  0  0  0  0  0  0  0  0  0  0  0
   -4.3060    0.1980    2.0990 S   0  0  0  0  0  0  0  0  0  0  0  0
    3.0890    0.6590   -0.2670 C   0  0  0  0  0  0  0  0  0  0  0  0
    2.8120    1.2810   -1.3220 O   0  0  0  0  0  0  0  0  0  0  0  0
  1  2  1  0
  2  3  2  0
  2  4  1  0
  4  5  1  0
  5  6  1  0
  5 26  1  0
  6  7  2  0
  7  8  1  0
  8  9  2  0
  9 10  1  0
  9 26  1  0
 10 11  1  0
 11 12  2  0
 11 13  1  0
 13 14  1  0
 14 15  1  6
 14 16  1  0
 16 17  1  0
 17 18  1  0
 18 19  1  6
 18 20  1  0
 20 21  1  6
 20 25  1  0
 21 22  1  0
 22 23  2  0
 22 24  1  0
 24 25  1  0
 26 27  2  0
M  CHG  1   8   1
M  END
