
     RDKit          3D

 25 27  0  0  0  0  0  0  0  0999 V2000
    0.1590   -2.3980   -0.6030 C   0  0  0  0  0  0  0  0  0  0  0  0
    0.5000   -1.5580    0.5920 C   0  0  2  0  0  0  0  0  0  0  0  0
   -0.5340   -0.4830    0.8030 C   0  0  0  0  0  0  0  0  0  0  0  0
   -1.1840   -0.4070    1.8320 O   0  0  0  0  0  0  0  0  0  0  0  0
   -0.7900    0.4920   -0.2020 N   0  0  0  0  0  0  0  0  0  0  0  0
   -2.1790    0.7070   -0.4740 C   0  0  2  0  0  0  0  0  0  0  0  0
   -2.2560    1.5000   -1.7790 C   0  0  0  0  0  0  0  0  0  0  0  0
   -2.7970    1.5470    0.6030 C   0  0  0  0  0  0  0  0  0  0  0  0
   -4.0640    0.9540    1.1710 C   0  0  0  0  0  0  0  0  0  0  0  0
   -5.0160    0.5000    0.0960 C   0  0  1  0  0  0  0  0  0  0  0  0
   -5.6980    1.9540   -0.7010 Cl  0  0  0  0  0  0  0  0  0  0  0  0
   -4.3650   -0.4180   -0.9010 C   0  0  0  0  0  0  0  0  0  0  0  0
   -2.9030   -0.6140   -0.6080 C   0  0  0  0  0  0  0  0  0  0  0  0
    1.8270   -1.0330    0.5880 N   0  0  0  0  0  0  0  0  0  0  0  0
    2.3380   -0.6600    1.7700 N   0  0  0  0  0  0  0  0  0  0  0  0
    3.5640   -0.1540    1.9080 C   0  0  0  0  0  0  0  0  0  0  0  0
    4.3870    0.0150    0.8250 C   0  0  0  0  0  0  0  0  0  0  0  0
    5.6400    0.5330    0.9680 C   0  0  0  0  0  0  0  0  0  0  0  0
    6.4330    0.6840   -0.1560 C   0  0  0  0  0  0  0  0  0  0  0  0
    8.0450    1.3490    0.0270 Cl  0  0  0  0  0  0  0  0  0  0  0  0
    5.9340    0.3080   -1.3880 C   0  0  0  0  0  0  0  0  0  0  0  0
    4.6600   -0.2150   -1.5140 C   0  0  0  0  0  0  0  0  0  0  0  0
    3.8630   -0.3710   -0.4110 C   0  0  0  0  0  0  0  0  0  0  0  0
    2.5910   -0.8890   -0.5080 C   0  0  0  0  0  0  0  0  0  0  0  0
    2.1020   -1.2420   -1.6050 O   0  0  0  0  0  0  0  0  0  0  0  0
  2  1  1  6
  2  3  1  0
  2 14  1  0
  3  4  2  0
  3  5  1  0
  5  6  1  0
  6  7  1  6
  6  8  1  0
  6 13  1  0
  8  9  1  0
  9 10  1  0
 10 11  1  6
 10 12  1  0
 12 13  1  0
 14 15  1  0
 14 24  1  0
 15 16  2  0
 16 17  1  0
 17 18  2  0
 17 23  1  0
 18 19  1  0
 19 20  1  0
 19 21  2  0
 21 22  1  0
 22 23  2  0
 23 24  1  0
 24 25  2  0
M  CHG  1   5   1
M  END
