
     RDKit          3D

 27 28  0  0  0  0  0  0  0  0999 V2000
    8.6700   -2.6810   -1.9010 C   0  0  0  0  0  0  0  0  0  0  0  0
    7.3330   -2.7370   -2.2100 O   0  0  0  0  0  0  0  0  0  0  0  0
    6.4820   -2.2170   -1.2500 C   0  0  0  0  0  0  0  0  0  0  0  0
    6.7170   -0.7710   -0.9590 C   0  0  0  0  0  0  0  0  0  0  0  0
    5.8190   -0.2500    0.0420 N   0  0  0  0  0  0  0  0  0  0  0  0
    4.4070   -0.2450   -0.1240 C   0  0  0  0  0  0  0  0  0  0  0  0
    3.8750   -0.7010   -1.1680 O   0  0  0  0  0  0  0  0  0  0  0  0
    3.5410    0.2710    0.8780 N   0  0  0  0  0  0  0  0  0  0  0  0
    2.1220    0.2930    0.7490 C   0  0  2  0  0  0  0  0  0  0  0  0
    1.5290    1.6840    0.7120 C   0  0  0  0  0  0  0  0  0  0  0  0
    0.2360    1.6220   -0.0310 C   0  0  0  0  0  0  0  0  0  0  0  0
   -0.6220    0.6190    0.1300 C   0  0  0  0  0  0  0  0  0  0  0  0
   -1.8910    0.5860   -0.6170 C   0  0  0  0  0  0  0  0  0  0  0  0
   -2.9850    0.5840    0.3490 N   0  0  0  0  0  0  0  0  0  0  0  0
   -4.3340    0.5490   -0.1550 C   0  0  0  0  0  0  0  0  0  0  0  0
   -4.4820    0.5200   -1.4020 O   0  0  0  0  0  0  0  0  0  0  0  0
   -5.3870    0.5480    0.7780 N   0  0  0  0  0  0  0  0  0  0  0  0
   -6.7410    0.5130    0.4220 C   0  0  0  0  0  0  0  0  0  0  0  0
   -7.1830    0.4750   -0.8110 N   0  0  0  0  0  0  0  0  0  0  0  0
   -8.4960    0.4410   -1.1300 C   0  0  0  0  0  0  0  0  0  0  0  0
   -9.4100    0.4460   -0.1050 C   0  0  0  0  0  0  0  0  0  0  0  0
   -8.9860    0.4840    1.1790 N   0  0  0  0  0  0  0  0  0  0  0  0
   -7.6790    0.5170    1.4560 C   0  0  0  0  0  0  0  0  0  0  0  0
   -7.2460    0.5530    2.6440 O   0  0  0  0  0  0  0  0  0  0  0  0
   -0.2800   -0.7210    1.2430 S   0  0  0  0  0  0  0  0  0  0  0  0
   -1.2720   -0.7880    2.3910 O   0  0  0  0  0  0  0  0  0  0  0  0
    1.3990   -0.4710    1.8380 C   0  0  0  0  0  0  0  0  0  0  0  0
  1  2  1  0
  2  3  1  0
  3  4  1  0
  4  5  1  0
  5  6  1  0
  6  7  2  0
  6  8  1  0
  9  8  1  1
  9 10  1  0
  9 27  1  0
 10 11  1  0
 11 12  2  0
 12 13  1  0
 12 25  1  0
 13 14  1  0
 14 15  1  0
 15 16  2  0
 15 17  1  0
 17 18  1  0
 18 19  2  0
 18 23  1  0
 19 20  1  0
 20 21  2  0
 21 22  1  0
 22 23  1  0
 23 24  2  0
 25 26  2  0
 25 27  1  1
M  CHG  1  19   1
M  END
