
     RDKit          3D

 25 27  0  0  0  0  0  0  0  0999 V2000
   -0.6200   -0.9020   -3.1950 C   0  0  0  0  0  0  0  0  0  0  0  0
   -1.1040   -0.5100   -1.8500 C   0  0  0  0  0  0  0  0  0  0  0  0
   -0.1770   -0.3080   -0.8350 C   0  0  0  0  0  0  0  0  0  0  0  0
   -0.6090    0.0560    0.4180 C   0  0  0  0  0  0  0  0  0  0  0  0
    0.3090    0.2810    1.5190 C   0  0  0  0  0  0  0  0  0  0  0  0
   -0.1400    0.6110    2.6410 O   0  0  0  0  0  0  0  0  0  0  0  0
    1.6830    0.1240    1.3040 N   0  0  0  0  0  0  0  0  0  0  0  0
    2.4650    0.0510    2.5000 C   0  0  0  0  0  0  0  0  0  0  0  0
    3.8980   -0.0320    2.1240 C   0  0  0  0  0  0  0  0  0  0  0  0
    4.7490   -0.1030    3.0420 O   0  0  0  0  0  0  0  0  0  0  0  0
    4.3430   -0.0340    0.7810 N   0  0  0  0  0  0  0  0  0  0  0  0
    5.7710   -0.1180    0.4420 C   0  0  2  0  0  0  0  0  0  0  0  0
    6.2440    0.7590   -0.6690 C   0  0  0  0  0  0  0  0  0  0  0  0
    6.2040   -0.7690   -0.8060 C   0  0  0  0  0  0  0  0  0  0  0  0
   -1.9710    0.2040    0.6020 C   0  0  0  0  0  0  0  0  0  0  0  0
   -2.9010    0.0090   -0.3880 C   0  0  0  0  0  0  0  0  0  0  0  0
   -4.3390    0.1530   -0.2420 C   0  0  0  0  0  0  0  0  0  0  0  0
   -5.1920   -0.0700   -1.3180 C   0  0  0  0  0  0  0  0  0  0  0  0
   -6.5590    0.0550   -1.2270 C   0  0  0  0  0  0  0  0  0  0  0  0
   -7.1550    0.4120   -0.0440 C   0  0  0  0  0  0  0  0  0  0  0  0
   -8.8980    0.5650    0.0510 Cl  0  0  0  0  0  0  0  0  0  0  0  0
   -6.3320    0.6380    1.0370 C   0  0  0  0  0  0  0  0  0  0  0  0
   -7.0310    1.0920    2.5560 Cl  0  0  0  0  0  0  0  0  0  0  0  0
   -4.9380    0.5110    0.9420 C   0  0  0  0  0  0  0  0  0  0  0  0
   -2.4160   -0.3490   -1.6060 N   0  0  0  0  0  0  0  0  0  0  0  0
  1  2  1  0
  2  3  2  0
  2 25  1  0
  3  4  1  0
  4  5  1  0
  4 15  2  0
  5  6  2  0
  5  7  1  0
  7  8  1  0
  8  9  1  0
  9 10  2  0
  9 11  1  0
 12 11  1  6
 12 13  1  0
 12 14  1  0
 13 14  1  0
 15 16  1  0
 16 17  1  0
 16 25  2  0
 17 18  2  0
 17 24  1  0
 18 19  1  0
 19 20  2  0
 20 21  1  0
 20 22  1  0
 22 23  1  0
 22 24  2  0
M  CHG  1   7   1
M  END
