
     RDKit          3D

 28 31  0  0  0  0  0  0  0  0999 V2000
   -6.1440    1.0560    1.4540 C   0  0  0  0  0  0  0  0  0  0  0  0
   -5.5170   -0.2630    1.4520 N   0  0  0  0  0  0  0  0  0  0  0  0
   -4.2800   -0.3080    0.8310 C   0  0  1  0  0  0  0  0  0  0  0  0
   -3.3210   -1.3820    1.3690 C   0  0  0  0  0  0  0  0  0  0  0  0
   -1.9060   -0.8200    1.3070 C   0  0  0  0  0  0  0  0  0  0  0  0
   -1.7040    0.2510    0.2870 C   0  0  1  0  0  0  0  0  0  0  0  0
   -0.3860    0.1800   -0.2660 N   0  0  0  0  0  0  0  0  0  0  0  0
    0.6630    0.2880    0.6670 C   0  0  0  0  0  0  0  0  0  0  0  0
    1.9820    0.3720   -0.0450 C   0  0  0  0  0  0  0  0  0  0  0  0
    3.4030    0.4290    0.0660 C   0  0  0  0  0  0  0  0  0  0  0  0
    4.7550    0.5670   -0.1840 C   0  0  0  0  0  0  0  0  0  0  0  0
    5.7800    0.2810    0.8540 C   0  0  1  0  0  0  0  0  0  0  0  0
    6.3860    1.5640    1.3430 C   0  0  0  0  0  0  0  0  0  0  0  0
    5.2540   -0.6130    1.9090 C   0  0  0  0  0  0  0  0  0  0  0  0
    4.8670   -1.9120    1.3370 N   0  0  0  0  0  0  0  0  0  0  0  0
    4.9070    0.8260   -1.4800 N   0  0  0  0  0  0  0  0  0  0  0  0
    6.1910    1.0290   -2.1340 C   0  0  0  0  0  0  0  0  0  0  0  0
    3.7080    0.8690   -2.1170 C   0  0  0  0  0  0  0  0  0  0  0  0
    3.6050    1.1030   -3.3540 O   0  0  0  0  0  0  0  0  0  0  0  0
    2.6950    0.6280   -1.2190 C   0  0  0  0  0  0  0  0  0  0  0  0
   -2.6580    0.0820   -0.8630 C   0  0  0  0  0  0  0  0  0  0  0  0
   -2.2350    0.1920   -2.1100 N   0  0  0  0  0  0  0  0  0  0  0  0
   -3.0640    0.0080   -3.1400 C   0  0  0  0  0  0  0  0  0  0  0  0
   -2.6840    0.1070   -4.3450 O   0  0  0  0  0  0  0  0  0  0  0  0
   -4.3860   -0.3030   -2.8800 C   0  0  0  0  0  0  0  0  0  0  0  0
   -4.9000   -0.4330   -1.5910 C   0  0  0  0  0  0  0  0  0  0  0  0
   -6.3080   -0.7870   -1.3770 C   0  0  0  0  0  0  0  0  0  0  0  0
   -4.0110   -0.2340   -0.5700 C   0  0  0  0  0  0  0  0  0  0  0  0
  1  2  1  0
  3  2  1  6
  3  4  1  0
  3 28  1  0
  4  5  1  0
  5  6  1  0
  6  7  1  6
  6 21  1  0
  7  8  1  0
  8  9  1  0
  9 10  1  0
  9 20  2  0
 10 11  2  0
 10 20  1  0
 11 12  1  0
 11 16  1  0
 12 13  1  1
 12 14  1  0
 14 15  1  0
 16 17  1  0
 16 18  1  0
 18 19  2  0
 18 20  1  0
 21 22  1  0
 21 28  2  0
 22 23  1  0
 23 24  2  0
 23 25  1  0
 25 26  2  0
 26 27  1  0
 26 28  1  0
M  CHG  2   2   1  15   1
M  END
