
     RDKit          3D

 28 29  0  0  0  0  0  0  0  0999 V2000
   -3.2440    3.4380   -0.1780 C   0  0  0  0  0  0  0  0  0  0  0  0
   -3.3210    1.9130   -0.3230 C   0  0  2  0  0  0  0  0  0  0  0  0
   -2.1770    1.3450    0.4290 C   0  0  0  0  0  0  0  0  0  0  0  0
   -2.0790   -0.0870    0.4100 N   0  0  2  0  0  0  0  0  0  0  0  0
   -2.0880   -0.7050    1.6950 C   0  0  0  0  0  0  0  0  0  0  0  0
   -3.4360   -1.3580    2.0270 C   0  0  0  0  0  0  0  0  0  0  0  0
   -3.7500   -2.3710    1.0600 N   0  0  0  0  0  0  0  0  0  0  0  0
   -4.9520   -3.1000    1.1770 C   0  0  0  0  0  0  0  0  0  0  0  0
   -5.2280   -4.0980    0.1970 N   0  0  0  0  0  0  0  0  0  0  0  0
   -5.7860   -2.9060    2.1060 O   0  0  0  0  0  0  0  0  0  0  0  0
   -0.9680   -0.4630   -0.4180 C   0  0  0  0  0  0  0  0  0  0  0  0
    0.3640   -0.1760    0.2300 C   0  0  0  0  0  0  0  0  0  0  0  0
    1.4710   -0.5570   -0.6130 N   0  0  0  0  0  0  0  0  0  0  0  0
    2.8040   -0.3670   -0.1790 C   0  0  0  0  0  0  0  0  0  0  0  0
    2.9650    0.1420    0.9590 O   0  0  0  0  0  0  0  0  0  0  0  0
    3.9570   -0.7490   -1.0220 C   0  0  0  0  0  0  0  0  0  0  0  0
    3.8270   -1.2830   -2.2100 C   0  0  0  0  0  0  0  0  0  0  0  0
    5.1700   -1.5320   -2.7570 C   0  0  0  0  0  0  0  0  0  0  0  0
    6.0230   -1.0660   -1.7180 N   0  0  0  0  0  0  0  0  0  0  0  0
    5.3600   -0.6120   -0.7120 C   0  0  0  0  0  0  0  0  0  0  0  0
    5.9660   -0.0350    0.5520 C   0  0  1  0  0  0  0  0  0  0  0  0
    5.5690    1.4150    0.7290 C   0  0  0  0  0  0  0  0  0  0  0  0
    5.6070   -0.8640    1.7420 C   0  0  0  0  0  0  0  0  0  0  0  0
    7.4680   -0.0580    0.3820 C   0  0  0  0  0  0  0  0  0  0  0  0
   -3.3620    1.5980   -1.7760 C   0  0  0  0  0  0  0  0  0  0  0  0
   -4.7950    1.9770   -2.1690 C   0  0  0  0  0  0  0  0  0  0  0  0
   -5.5540    2.2020   -0.9020 C   0  0  0  0  0  0  0  0  0  0  0  0
   -4.6770    1.5060    0.1510 C   0  0  0  0  0  0  0  0  0  0  0  0
  2  1  1  6
  2  3  1  0
  2 25  1  0
  2 28  1  0
  4  3  1  1
  4  5  1  0
  4 11  1  0
  5  6  1  0
  6  7  1  0
  7  8  1  0
  8  9  1  0
  8 10  2  0
 11 12  1  0
 12 13  1  0
 13 14  1  0
 14 15  2  0
 14 16  1  0
 16 17  2  0
 16 20  1  0
 17 18  1  0
 18 19  1  0
 19 20  2  0
 20 21  1  0
 21 22  1  1
 21 23  1  0
 21 24  1  0
 25 26  1  0
 26 27  1  0
 27 28  1  0
M  CHG  2   4   1  19   1
M  END
