
     RDKit          3D

 28 30  0  0  0  0  0  0  0  0999 V2000
   -2.8450    4.1120   -1.4660 C   0  0  0  0  0  0  0  0  0  0  0  0
   -2.0880    4.1660   -0.3990 C   0  0  0  0  0  0  0  0  0  0  0  0
   -2.0530    5.3970    0.4130 C   0  0  0  0  0  0  0  0  0  0  0  0
   -2.9080    6.4340   -0.1110 N   0  0  0  0  0  0  0  0  0  0  0  0
   -1.2690    3.0130    0.0100 C   0  0  0  0  0  0  0  0  0  0  0  0
   -1.4050    1.8230   -0.8930 C   0  0  0  0  0  0  0  0  0  0  0  0
   -0.5590    0.7600   -0.3980 N   0  0  0  0  0  0  0  0  0  0  0  0
    0.8450    0.9230   -0.4670 C   0  0  0  0  0  0  0  0  0  0  0  0
    1.6510   -0.2370    0.0670 C   0  0  2  0  0  0  0  0  0  0  0  0
    1.4160   -0.5150    1.3810 O   0  0  0  0  0  0  0  0  0  0  0  0
    3.0750    0.0560   -0.2750 C   0  0  0  0  0  0  0  0  0  0  0  0
    4.0230   -0.9730   -0.0120 N   0  0  0  0  0  0  0  0  0  0  0  0
    5.3280   -0.4640   -0.4260 C   0  0  0  0  0  0  0  0  0  0  0  0
    6.2950   -0.3970    0.7530 C   0  0  0  0  0  0  0  0  0  0  0  0
    6.5280   -1.6570    1.2430 O   0  0  0  0  0  0  0  0  0  0  0  0
    5.3300   -2.2380    1.5770 C   0  0  0  0  0  0  0  0  0  0  0  0
    4.1320   -1.3220    1.3850 C   0  0  0  0  0  0  0  0  0  0  0  0
   -1.1790   -0.3910    0.1340 C   0  0  0  0  0  0  0  0  0  0  0  0
   -1.4560   -0.4630    1.4210 C   0  0  0  0  0  0  0  0  0  0  0  0
   -2.1020   -1.6220    2.0690 C   0  0  0  0  0  0  0  0  0  0  0  0
   -1.9710   -2.8810    1.2400 C   0  0  1  0  0  0  0  0  0  0  0  0
   -2.9890   -3.8650    1.7810 C   0  0  0  0  0  0  0  0  0  0  0  0
   -2.1390   -2.6480   -0.1690 N   0  0  0  0  0  0  0  0  0  0  0  0
   -2.9320   -3.5680   -0.9750 C   0  0  0  0  0  0  0  0  0  0  0  0
   -2.9630   -3.1150   -2.4130 C   0  0  0  0  0  0  0  0  0  0  0  0
   -1.6010   -2.5890   -2.8700 C   0  0  0  0  0  0  0  0  0  0  0  0
   -1.2560   -1.4620   -2.0110 N   0  0  0  0  0  0  0  0  0  0  0  0
   -1.5130   -1.5010   -0.7470 C   0  0  0  0  0  0  0  0  0  0  0  0
  1  2  2  0
  2  3  1  0
  2  5  1  0
  3  4  1  0
  5  6  1  0
  6  7  1  0
  7  8  1  0
  7 18  1  0
  8  9  1  0
  9 10  1  1
  9 11  1  0
 11 12  1  0
 12 13  1  0
 12 17  1  0
 13 14  1  0
 14 15  1  0
 15 16  1  0
 16 17  1  0
 18 19  2  0
 18 28  1  0
 19 20  1  0
 20 21  1  0
 21 22  1  1
 21 23  1  0
 23 24  1  0
 23 28  1  0
 24 25  1  0
 25 26  1  0
 26 27  1  0
 27 28  2  0
M  CHG  2   4   1  27   1
M  END
