
     RDKit          3D

 28 29  0  0  0  0  0  0  0  0999 V2000
   -4.6140   -0.7200   -2.5620 C   0  0  0  0  0  0  0  0  0  0  0  0
   -3.1810   -0.6710   -2.1150 C   0  0  0  0  0  0  0  0  0  0  0  0
   -2.6710   -1.9070   -1.4440 C   0  0  0  0  0  0  0  0  0  0  0  0
   -3.3160   -2.3790   -0.2150 C   0  0  2  0  0  0  0  0  0  0  0  0
   -4.8060   -2.7190   -0.3570 C   0  0  0  0  0  0  0  0  0  0  0  0
   -3.0620   -1.6290    1.0600 C   0  0  2  0  0  0  0  0  0  0  0  0
   -3.4680   -0.2220    1.1120 C   0  0  0  0  0  0  0  0  0  0  0  0
   -2.5030    0.7810    1.0340 N   0  0  0  0  0  0  0  0  0  0  0  0
   -2.9910    1.9700    1.6550 C   0  0  0  0  0  0  0  0  0  0  0  0
   -2.0910    3.1390    1.5930 C   0  0  0  0  0  0  0  0  0  0  0  0
   -0.9780    3.0810    1.0210 O   0  0  0  0  0  0  0  0  0  0  0  0
   -2.4240    4.3970    2.1710 N   0  0  0  0  0  0  0  0  0  0  0  0
   -1.5200    5.5400    2.0980 C   0  0  0  0  0  0  0  0  0  0  0  0
   -1.1390    0.5390    1.1190 C   0  0  0  0  0  0  0  0  0  0  0  0
   -0.7480   -0.8820    1.1230 C   0  0  0  0  0  0  0  0  0  0  0  0
    0.4480   -1.2370    0.6820 C   0  0  0  0  0  0  0  0  0  0  0  0
    1.4610   -0.2970    0.1680 C   0  0  0  0  0  0  0  0  0  0  0  0
    2.5550   -0.9370   -0.1980 C   0  0  0  0  0  0  0  0  0  0  0  0
    3.7400   -0.3350   -0.7430 C   0  0  0  0  0  0  0  0  0  0  0  0
    4.8130   -1.0290   -1.0950 C   0  0  0  0  0  0  0  0  0  0  0  0
    5.9490   -0.4060   -1.6220 N   0  0  0  0  0  0  0  0  0  0  0  0
    6.3900    0.8740   -1.0910 C   0  0  0  0  0  0  0  0  0  0  0  0
    7.6230    1.3880   -1.7730 C   0  0  0  0  0  0  0  0  0  0  0  0
    7.9480    2.6680   -1.1420 N   0  0  0  0  0  0  0  0  0  0  0  0
    2.3610   -2.3820    0.0490 C   0  0  0  0  0  0  0  0  0  0  0  0
    1.0660   -2.4700    0.5750 O   0  0  0  0  0  0  0  0  0  0  0  0
   -1.6770   -1.8750    1.6410 C   0  0  2  0  0  0  0  0  0  0  0  0
   -1.2400   -3.2170    1.4200 N   0  0  0  0  0  0  0  0  0  0  0  0
  1  2  1  0
  2  3  1  0
  3  4  1  0
  4  5  1  6
  4  6  1  0
  6  7  1  6
  6 27  1  0
  7  8  1  0
  8  9  1  0
  8 14  1  0
  9 10  1  0
 10 11  2  0
 10 12  1  0
 12 13  1  0
 14 15  1  0
 15 16  2  3
 15 27  1  0
 16 17  1  0
 16 26  1  0
 17 18  2  0
 18 19  1  0
 18 25  1  0
 19 20  2  3
 20 21  1  0
 21 22  1  0
 22 23  1  0
 23 24  1  0
 25 26  1  0
 27 28  1  6
M  CHG  2  24   1  28   1
M  END
