
     RDKit          3D

 28 30  0  0  0  0  0  0  0  0999 V2000
    3.2580    4.3390    0.6140 C   0  0  0  0  0  0  0  0  0  0  0  0
    3.4240    2.8740    0.3700 C   0  0  0  0  0  0  0  0  0  0  0  0
    4.6880    2.3250    0.3610 C   0  0  0  0  0  0  0  0  0  0  0  0
    4.8350    0.9760    0.1360 C   0  0  0  0  0  0  0  0  0  0  0  0
    3.7330    0.1880   -0.0770 C   0  0  0  0  0  0  0  0  0  0  0  0
    3.8990   -1.1580   -0.2980 O   0  0  0  0  0  0  0  0  0  0  0  0
    5.0060   -1.9500   -0.3790 C   0  0  0  0  0  0  0  0  0  0  0  0
    5.9760   -1.6980   -1.4830 C   0  0  0  0  0  0  0  0  0  0  0  0
    7.1470   -2.6900   -1.3770 C   0  0  0  0  0  0  0  0  0  0  0  0
    7.8020   -2.5100   -0.1060 N   0  0  0  0  0  0  0  0  0  0  0  0
    2.4360    0.7330   -0.0700 C   0  0  0  0  0  0  0  0  0  0  0  0
    1.3320   -0.2030   -0.3220 C   0  0  0  0  0  0  0  0  0  0  0  0
    0.0230    0.3640   -0.2780 N   0  0  0  0  0  0  0  0  0  0  0  0
   -0.5060    0.9140    0.9110 C   0  0  0  0  0  0  0  0  0  0  0  0
    0.2670    0.8680    1.9360 O   0  0  0  0  0  0  0  0  0  0  0  0
   -1.8440    1.5220    1.0350 C   0  0  0  0  0  0  0  0  0  0  0  0
   -2.5470    1.3920   -0.2250 N   0  0  0  0  0  0  0  0  0  0  0  0
   -3.7270    2.2210   -0.1210 C   0  0  0  0  0  0  0  0  0  0  0  0
   -4.6030    1.8020    1.0050 C   0  0  0  0  0  0  0  0  0  0  0  0
   -4.7730    0.3880    1.1230 N   0  0  0  0  0  0  0  0  0  0  0  0
   -4.3400   -0.3340   -0.0420 C   0  0  2  0  0  0  0  0  0  0  0  0
   -5.3860   -0.1550   -1.1170 C   0  0  0  0  0  0  0  0  0  0  0  0
   -6.3100   -1.3530   -1.1530 C   0  0  0  0  0  0  0  0  0  0  0  0
   -6.6670   -1.8280    0.2380 C   0  0  0  0  0  0  0  0  0  0  0  0
   -5.4810   -2.1960    0.9900 N   0  0  0  0  0  0  0  0  0  0  0  0
   -4.2950   -1.8100    0.2990 C   0  0  0  0  0  0  0  0  0  0  0  0
   -2.9450    0.0390   -0.4870 C   0  0  0  0  0  0  0  0  0  0  0  0
    2.3120    2.0760    0.1550 C   0  0  0  0  0  0  0  0  0  0  0  0
  1  2  1  0
  2  3  2  0
  2 28  1  0
  3  4  1  0
  4  5  2  0
  5  6  1  0
  5 11  1  0
  6  7  1  0
  7  8  1  0
  8  9  1  0
  9 10  1  0
 11 12  1  0
 11 28  2  0
 12 13  1  0
 13 14  1  0
 14 15  2  0
 14 16  1  0
 16 17  1  0
 17 18  1  0
 17 27  1  0
 18 19  1  0
 19 20  1  0
 20 21  1  0
 21 22  1  6
 21 26  1  0
 21 27  1  0
 22 23  1  0
 23 24  1  0
 24 25  1  0
 25 26  1  0
M  CHG  2  10   1  25   1
M  END
