
     RDKit          3D

 28 31  0  0  0  0  0  0  0  0999 V2000
   -4.6280    4.7270   -1.0010 C   0  0  0  0  0  0  0  0  0  0  0  0
   -3.3570    4.0610   -1.1300 N   0  0  0  0  0  0  0  0  0  0  0  0
   -3.1450    2.6840   -0.8410 C   0  0  0  0  0  0  0  0  0  0  0  0
   -1.9990    1.9820   -0.9320 N   0  0  0  0  0  0  0  0  0  0  0  0
   -2.2400    0.7290   -0.5700 C   0  0  0  0  0  0  0  0  0  0  0  0
   -1.3840   -0.3750   -0.4950 C   0  0  0  0  0  0  0  0  0  0  0  0
    0.0310   -0.1910   -0.8610 C   0  0  0  0  0  0  0  0  0  0  0  0
    0.8180    0.4910    0.2410 C   0  0  0  0  0  0  0  0  0  0  0  0
    2.2560    0.6440   -0.2060 C   0  0  1  0  0  0  0  0  0  0  0  0
    3.0270    1.2670    0.7670 O   0  0  0  0  0  0  0  0  0  0  0  0
    4.3430    0.8670    0.4410 C   0  0  1  0  0  0  0  0  0  0  0  0
    5.2660    1.2510    1.3790 O   0  0  0  0  0  0  0  0  0  0  0  0
    6.3280    1.9180    0.7450 C   0  0  0  0  0  0  0  0  0  0  0  0
    4.1260   -0.6530    0.4190 C   0  0  2  0  0  0  0  0  0  0  0  0
    5.1950   -1.3230   -0.1270 O   0  0  0  0  0  0  0  0  0  0  0  0
    2.8810   -0.7040   -0.4780 C   0  0  2  0  0  0  0  0  0  0  0  0
    3.3700   -0.7160   -1.7870 O   0  0  0  0  0  0  0  0  0  0  0  0
   -1.9380   -1.5630   -0.0770 C   0  0  0  0  0  0  0  0  0  0  0  0
   -1.1780   -2.6600    0.0210 N   0  0  0  0  0  0  0  0  0  0  0  0
   -1.7010   -3.8470    0.4360 C   0  0  0  0  0  0  0  0  0  0  0  0
   -0.8130   -4.9490    0.5060 N   0  0  0  0  0  0  0  0  0  0  0  0
   -3.0060   -3.9410    0.7580 N   0  0  0  0  0  0  0  0  0  0  0  0
   -3.8270   -2.8780    0.6820 C   0  0  0  0  0  0  0  0  0  0  0  0
   -5.0480   -2.9360    0.9760 O   0  0  0  0  0  0  0  0  0  0  0  0
   -3.2810   -1.6740    0.2580 C   0  0  0  0  0  0  0  0  0  0  0  0
   -4.1030   -0.5770    0.1780 C   0  0  0  0  0  0  0  0  0  0  0  0
   -3.5680    0.6180   -0.2370 C   0  0  0  0  0  0  0  0  0  0  0  0
   -4.1110    1.8550   -0.4160 N   0  0  0  0  0  0  0  0  0  0  0  0
  1  2  1  0
  2  3  1  0
  3  4  2  0
  3 28  1  0
  4  5  1  0
  5  6  2  0
  5 27  1  0
  6  7  1  0
  6 18  1  0
  7  8  1  0
  9  8  1  1
  9 10  1  0
  9 16  1  0
 10 11  1  0
 11 12  1  1
 11 14  1  0
 12 13  1  0
 14 15  1  6
 14 16  1  0
 16 17  1  6
 18 19  1  0
 18 25  2  0
 19 20  2  0
 20 21  1  0
 20 22  1  0
 22 23  1  0
 23 24  2  0
 23 25  1  0
 25 26  1  0
 26 27  2  0
 27 28  1  0
M  CHG  1  19   1
M  END
