
     RDKit          3D

 28 30  0  0  0  0  0  0  0  0999 V2000
   -2.3430    3.3180   -1.3340 C   0  0  0  0  0  0  0  0  0  0  0  0
   -1.6270    2.0970   -1.4780 N   0  0  0  0  0  0  0  0  0  0  0  0
   -1.4380    1.3660   -0.2800 C   0  0  2  0  0  0  0  0  0  0  0  0
   -1.3180   -0.1550   -0.5420 C   0  0  0  0  0  0  0  0  0  0  0  0
   -0.6550   -0.7420    0.5710 N   0  0  0  0  0  0  0  0  0  0  0  0
    0.1570   -1.8560    0.3570 C   0  0  1  0  0  0  0  0  0  0  0  0
    1.3420   -1.6030   -0.5540 C   0  0  0  0  0  0  0  0  0  0  0  0
    2.2510   -0.6070   -0.0900 N   0  0  0  0  0  0  0  0  0  0  0  0
    3.3860   -0.3370   -0.9290 C   0  0  0  0  0  0  0  0  0  0  0  0
    3.5370   -0.9710   -2.0170 O   0  0  0  0  0  0  0  0  0  0  0  0
    4.3220    0.6450   -0.5180 N   0  0  0  0  0  0  0  0  0  0  0  0
    4.1610    1.3680    0.7110 C   0  0  0  0  0  0  0  0  0  0  0  0
    5.4600    0.9150   -1.3650 C   0  0  0  0  0  0  0  0  0  0  0  0
    5.1740    2.0060   -2.3730 C   0  0  0  0  0  0  0  0  0  0  0  0
    4.8440    3.1800   -1.6970 O   0  0  0  0  0  0  0  0  0  0  0  0
    0.6100   -2.3900    1.6990 C   0  0  0  0  0  0  0  0  0  0  0  0
    1.4570   -3.6390    1.5900 C   0  0  0  0  0  0  0  0  0  0  0  0
    0.6160   -4.6980    0.9590 C   0  0  0  0  0  0  0  0  0  0  0  0
    0.0750   -4.2660   -0.3730 C   0  0  0  0  0  0  0  0  0  0  0  0
   -0.6410   -2.9580   -0.3450 C   0  0  0  0  0  0  0  0  0  0  0  0
   -0.6050   -0.0030    1.7550 C   0  0  0  0  0  0  0  0  0  0  0  0
   -1.9370    0.6680    1.9960 C   0  0  0  0  0  0  0  0  0  0  0  0
   -2.3050    1.6490    0.8800 C   0  0  2  0  0  0  0  0  0  0  0  0
   -3.7570    1.5870    0.6560 C   0  0  0  0  0  0  0  0  0  0  0  0
   -4.4340    1.2910   -0.4170 C   0  0  0  0  0  0  0  0  0  0  0  0
   -5.9110    1.3680   -0.1360 C   0  0  0  0  0  0  0  0  0  0  0  0
   -5.9340    1.7460    1.2390 N   0  0  0  0  0  0  0  0  0  0  0  0
   -4.7560    1.8700    1.6870 C   0  0  0  0  0  0  0  0  0  0  0  0
  1  2  1  0
  3  2  1  6
  3  4  1  0
  3 23  1  0
  4  5  1  0
  5  6  1  0
  5 21  1  0
  6  7  1  6
  6 16  1  0
  6 20  1  0
  7  8  1  0
  8  9  1  0
  9 10  2  0
  9 11  1  0
 11 12  1  0
 11 13  1  0
 13 14  1  0
 14 15  1  0
 16 17  1  0
 17 18  1  0
 18 19  1  0
 19 20  1  0
 21 22  1  0
 22 23  1  0
 23 24  1  6
 24 25  2  0
 24 28  1  0
 25 26  1  0
 26 27  1  0
 27 28  2  0
M  CHG  2   2   1  27   1
M  END
