
     RDKit          3D

 12 12  0  0  0  0  0  0  0  0999 V2000
   -2.8820    0.2780    0.5380 C   0  0  0  0  0  0  0  0  0  0  0  0
   -2.1880   -1.0120    0.2330 C   0  0  0  0  0  0  0  0  0  0  0  0
   -1.0710   -0.9370   -0.5740 O   0  0  0  0  0  0  0  0  0  0  0  0
    0.0970   -0.2470   -0.3640 C   0  0  0  0  0  0  0  0  0  0  0  0
    0.2110    1.0390   -0.8290 C   0  0  0  0  0  0  0  0  0  0  0  0
   -1.0560    1.8790   -1.7010 Cl  0  0  0  0  0  0  0  0  0  0  0  0
    1.4100    1.7290   -0.6050 C   0  0  0  0  0  0  0  0  0  0  0  0
    2.4460    1.1170    0.0700 C   0  0  0  0  0  0  0  0  0  0  0  0
    2.3420   -0.1740    0.5420 C   0  0  0  0  0  0  0  0  0  0  0  0
    3.3950   -0.7900    1.2260 O   0  0  0  0  0  0  0  0  0  0  0  0
    1.1480   -0.8280    0.3060 C   0  0  0  0  0  0  0  0  0  0  0  0
    1.0700   -2.1440    0.7980 O   0  0  0  0  0  0  0  0  0  0  0  0
  1  2  1  0
  2  3  1  0
  3  4  1  0
  4  5  2  0
  4 11  1  0
  5  6  1  0
  5  7  1  0
  7  8  2  0
  8  9  1  0
  9 10  1  0
  9 11  2  0
 11 12  1  0
M  END
