
     RDKit          3D

 11 11  0  0  0  0  0  0  0  0999 V2000
   -0.4620    1.9980    1.8840 O   0  0  0  0  0  0  0  0  0  0  0  0
   -0.9320    1.0450    1.2310 C   0  0  0  0  0  0  0  0  0  0  0  0
   -2.3830    0.7250    1.2610 C   0  0  0  0  0  0  0  0  0  0  0  0
   -2.7890    0.5030   -0.2000 C   0  0  0  0  0  0  0  0  0  0  0  0
   -2.0530   -0.6590   -0.7750 C   0  0  0  0  0  0  0  0  0  0  0  0
   -0.5940   -0.5990   -0.5280 C   0  0  0  0  0  0  0  0  0  0  0  0
   -0.0830    0.1920    0.4010 C   0  0  0  0  0  0  0  0  0  0  0  0
    1.2920    0.2000    0.5810 O   0  0  0  0  0  0  0  0  0  0  0  0
    2.1100   -0.7730   -0.0290 C   0  0  0  0  0  0  0  0  0  0  0  0
    3.5470   -0.4440    0.3930 C   0  0  0  0  0  0  0  0  0  0  0  0
    3.8090    0.8380   -0.0720 O   0  0  0  0  0  0  0  0  0  0  0  0
  1  2  2  0
  2  3  1  0
  2  7  1  0
  3  4  1  0
  4  5  1  0
  5  6  1  0
  6  7  2  0
  7  8  1  0
  8  9  1  0
  9 10  1  0
 10 11  1  0
M  END
