
     RDKit          3D

 12 12  0  0  0  0  0  0  0  0999 V2000
    3.5680   -0.1000   -0.1020 C   0  0  0  0  0  0  0  0  0  0  0  0
    2.1850   -0.6980   -0.2770 C   0  0  0  0  0  0  0  0  0  0  0  0
    1.2430    0.2910    0.0020 O   0  0  0  0  0  0  0  0  0  0  0  0
   -0.1210    0.1210   -0.0510 C   0  0  0  0  0  0  0  0  0  0  0  0
   -0.6360   -1.1090   -0.4050 C   0  0  0  0  0  0  0  0  0  0  0  0
   -2.0070   -1.3320   -0.4730 C   0  0  0  0  0  0  0  0  0  0  0  0
   -2.6520   -2.9040   -0.9250 Cl  0  0  0  0  0  0  0  0  0  0  0  0
   -2.8510   -0.2860   -0.1770 C   0  0  0  0  0  0  0  0  0  0  0  0
   -2.3300    0.9360    0.1740 C   0  0  0  0  0  0  0  0  0  0  0  0
   -3.1820    1.9670    0.4650 O   0  0  0  0  0  0  0  0  0  0  0  0
   -0.9690    1.1650    0.2440 C   0  0  0  0  0  0  0  0  0  0  0  0
   -0.5170    2.4260    0.6060 O   0  0  0  0  0  0  0  0  0  0  0  0
  1  2  1  0
  2  3  1  0
  3  4  1  0
  4  5  2  0
  4 11  1  0
  5  6  1  0
  6  7  1  0
  6  8  2  0
  8  9  1  0
  9 10  1  0
  9 11  2  0
 11 12  1  0
M  END
