
     RDKit          3D

 12 12  0  0  0  0  0  0  0  0999 V2000
   -3.6860   -0.0070   -0.1420 C   0  0  0  0  0  0  0  0  0  0  0  0
   -2.2960    0.6070   -0.3470 C   0  0  0  0  0  0  0  0  0  0  0  0
   -1.3710   -0.3520    0.1020 O   0  0  0  0  0  0  0  0  0  0  0  0
   -0.0040   -0.1800    0.0850 C   0  0  0  0  0  0  0  0  0  0  0  0
    0.5990    0.9620   -0.3780 C   0  0  0  0  0  0  0  0  0  0  0  0
    1.9940    1.0960   -0.3780 C   0  0  0  0  0  0  0  0  0  0  0  0
    2.7340    2.5650   -0.9750 Cl  0  0  0  0  0  0  0  0  0  0  0  0
    2.8010    0.0830    0.0890 C   0  0  0  0  0  0  0  0  0  0  0  0
    4.2030    0.1970    0.0990 O   0  0  0  0  0  0  0  0  0  0  0  0
    2.1930   -1.0600    0.5530 C   0  0  0  0  0  0  0  0  0  0  0  0
    0.7980   -1.1940    0.5520 C   0  0  0  0  0  0  0  0  0  0  0  0
    0.2250   -2.3450    1.0210 O   0  0  0  0  0  0  0  0  0  0  0  0
  1  2  1  0
  2  3  1  0
  3  4  1  0
  4  5  2  0
  4 11  1  0
  5  6  1  0
  6  7  1  0
  6  8  2  0
  8  9  1  0
  8 10  1  0
 10 11  2  0
 11 12  1  0
M  END
