
     RDKit          3D

 12 12  0  0  0  0  0  0  0  0999 V2000
    3.1560    0.4400    0.8390 O   0  0  0  0  0  0  0  0  0  0  0  0
    2.6410    0.5550   -0.4730 C   0  0  0  0  0  0  0  0  0  0  0  0
    1.9920   -0.7190   -0.8950 C   0  0  0  0  0  0  0  0  0  0  0  0
    0.9340   -1.1810   -0.1450 O   0  0  0  0  0  0  0  0  0  0  0  0
   -0.2840   -0.6800    0.1120 C   0  0  0  0  0  0  0  0  0  0  0  0
   -0.7370    0.5010   -0.4020 C   0  0  0  0  0  0  0  0  0  0  0  0
   -2.0100    0.9920   -0.1150 C   0  0  0  0  0  0  0  0  0  0  0  0
   -2.3570    2.2080   -0.6970 O   0  0  0  0  0  0  0  0  0  0  0  0
   -2.8340    0.2840    0.6970 C   0  0  0  0  0  0  0  0  0  0  0  0
   -2.4210   -0.9070    1.2330 C   0  0  0  0  0  0  0  0  0  0  0  0
   -1.1610   -1.3870    0.9470 C   0  0  0  0  0  0  0  0  0  0  0  0
   -0.5850   -2.9000    1.6050 Cl  0  0  0  0  0  0  0  0  0  0  0  0
  1  2  1  0
  2  3  1  0
  3  4  1  0
  4  5  1  0
  5  6  2  0
  5 11  1  0
  6  7  1  0
  7  8  1  0
  7  9  2  0
  9 10  1  0
 10 11  2  0
 11 12  1  0
M  END
