
     RDKit          3D

 11 10  0  0  0  0  0  0  0  0999 V2000
   -2.2850   -1.0190   -0.2140 O   0  0  0  0  0  0  0  0  0  0  0  0
   -2.2730    0.1770    0.3180 C   0  0  0  0  0  0  0  0  0  0  0  0
   -3.6550    0.7470    0.3370 C   0  0  0  0  0  0  0  0  0  0  0  0
   -4.5290    0.0990   -0.6140 O   0  0  0  0  0  0  0  0  0  0  0  0
   -1.1750    0.7670    0.7350 O   0  0  0  0  0  0  0  0  0  0  0  0
   -0.0560    0.2410    0.4520 O   0  0  0  0  0  0  0  0  0  0  0  0
    0.8790   -0.5850    0.4250 C   0  0  0  0  0  0  0  0  0  0  0  0
    2.1430   -0.1560   -0.4050 C   0  0  0  0  0  0  0  0  0  0  0  0
    3.0550   -1.2370   -0.1760 O   0  0  0  0  0  0  0  0  0  0  0  0
    4.1120   -0.6010    0.2380 O   0  0  0  0  0  0  0  0  0  0  0  0
    4.8410    0.0700   -0.3650 O   0  0  0  0  0  0  0  0  0  0  0  0
  1  2  2  0
  2  3  1  0
  2  5  1  0
  3  4  1  0
  5  6  1  0
  6  7  1  0
  7  8  1  0
  8  9  1  0
  9 10  1  0
 10 11  1  0
M  END
