
     RDKit          3D

 13 13  0  0  0  0  0  0  0  0999 V2000
    4.7780    0.6010    0.8040 C   0  0  0  0  0  0  0  0  0  0  0  0
    3.9980    0.7540   -0.1800 N   0  0  0  0  0  0  0  0  0  0  0  0
    2.6170    0.5830   -0.1670 C   0  0  0  0  0  0  0  0  0  0  0  0
    1.7960    1.3430   -0.7480 N   0  0  0  0  0  0  0  0  0  0  0  0
    0.4640    1.2070   -0.7550 O   0  0  0  0  0  0  0  0  0  0  0  0
   -0.2830    0.2500   -0.1560 C   0  0  0  0  0  0  0  0  0  0  0  0
   -1.7330    0.3160   -0.3100 C   0  0  0  0  0  0  0  0  0  0  0  0
   -2.2820    1.2860   -1.0150 C   0  0  0  0  0  0  0  0  0  0  0  0
   -2.5850   -0.6650    0.2960 N   0  0  0  0  0  0  0  0  0  0  0  0
   -3.7430   -0.1930    1.0250 C   0  0  0  0  0  0  0  0  0  0  0  0
    0.1670   -0.7580    0.5660 C   0  0  0  0  0  0  0  0  0  0  0  0
    1.9770   -0.8740    0.7810 P   0  0  0  0  0  0  0  0  0  0  0  0
    2.6070   -2.2860   -0.0310 O   0  0  0  0  0  0  0  0  0  0  0  0
  1  2  2  0
  2  3  1  0
  3  4  2  0
  3 12  1  0
  4  5  1  0
  5  6  1  0
  6  7  1  0
  6 11  2  0
  7  8  2  0
  7  9  1  0
  9 10  1  0
 11 12  1  0
 12 13  1  0
M  END
