
     RDKit          3D

 28 30  0  0  0  0  0  0  0  0999 V2000
   -6.3050    2.1900    1.4560 N   0  0  0  0  0  0  0  0  0  0  0  0
   -5.3030    1.9670    0.4570 C   0  0  0  0  0  0  0  0  0  0  0  0
   -4.3130    1.0810    0.6260 N   0  0  0  0  0  0  0  0  0  0  0  0
   -3.3510    0.8350   -0.2750 C   0  0  0  0  0  0  0  0  0  0  0  0
   -3.3900    1.5510   -1.4640 C   0  0  0  0  0  0  0  0  0  0  0  0
   -2.3430    1.1330   -2.1870 N   0  0  0  0  0  0  0  0  0  0  0  0
   -1.6780    0.1990   -1.4860 C   0  0  0  0  0  0  0  0  0  0  0  0
   -2.2790    0.0000   -0.3100 N   0  0  0  0  0  0  0  0  0  0  0  0
   -1.9180   -0.9080    0.7660 C   0  0  2  0  0  0  0  0  0  0  0  0
   -0.8180   -0.4420    1.4400 O   0  0  0  0  0  0  0  0  0  0  0  0
    0.2280   -1.3040    1.2820 C   0  0  2  0  0  0  0  0  0  0  0  0
    1.4680   -0.5280    0.9460 C   0  0  0  0  0  0  0  0  0  0  0  0
    2.4890   -1.4780    0.8010 O   0  0  0  0  0  0  0  0  0  0  0  0
    3.9180   -0.9940    0.4480 P   0  0  0  0  0  0  0  0  0  0  0  0
    3.3070   -0.3500   -0.9620 O   0  0  0  0  0  0  0  0  0  0  0  0
    4.5290   -2.5090    0.4280 O   0  0  0  0  0  0  0  0  0  0  0  0
    5.2810   -0.3350    0.1530 O   0  0  0  0  0  0  0  0  0  0  0  0
    5.3360    1.2660   -0.2380 P   0  0  0  0  0  0  0  0  0  0  0  0
    6.3650    1.0210   -1.3300 O   0  0  0  0  0  0  0  0  0  0  0  0
    6.4790    2.2520    0.5580 O   0  0  0  0  0  0  0  0  0  0  0  0
    4.1790    1.9600   -1.1210 O   0  0  0  0  0  0  0  0  0  0  0  0
   -0.1280   -2.3250    0.2580 C   0  0  1  0  0  0  0  0  0  0  0  0
    0.2590   -3.6130    0.6200 O   0  0  0  0  0  0  0  0  0  0  0  0
   -1.6410   -2.2900    0.2710 C   0  0  1  0  0  0  0  0  0  0  0  0
   -2.0730   -3.2010    1.2240 O   0  0  0  0  0  0  0  0  0  0  0  0
   -4.3970    2.4680   -1.6630 C   0  0  0  0  0  0  0  0  0  0  0  0
   -4.4400    3.1130   -2.7240 O   0  0  0  0  0  0  0  0  0  0  0  0
   -5.3240    2.6580   -0.7110 N   0  0  0  0  0  0  0  0  0  0  0  0
  1  2  1  0
  2  3  1  0
  2 28  2  0
  3  4  1  0
  4  5  2  0
  4  8  1  0
  5  6  1  0
  5 26  1  0
  6  7  2  0
  7  8  1  0
  9  8  1  6
  9 10  1  0
  9 24  1  0
 10 11  1  0
 11 12  1  6
 11 22  1  0
 12 13  1  0
 13 14  1  0
 14 15  1  0
 14 16  1  0
 14 17  1  0
 17 18  1  0
 18 19  1  0
 18 20  1  0
 18 21  1  0
 22 23  1  1
 22 24  1  0
 24 25  1  1
 26 27  2  0
 26 28  1  0
M  CHG  1  28   1
M  END
