
     RDKit          3D

 20 21  0  0  0  0  0  0  0  0999 V2000
   -5.5250   -2.0120    1.6480 O   0  0  0  0  0  0  0  0  0  0  0  0
   -4.7630   -1.3550    0.9020 C   0  0  0  0  0  0  0  0  0  0  0  0
   -3.2830   -1.4030    0.9510 C   0  0  0  0  0  0  0  0  0  0  0  0
   -2.9280   -0.0650    0.3590 C   0  0  2  0  0  0  0  0  0  0  0  0
   -3.9680    0.0560   -0.7340 C   0  0  0  0  0  0  0  0  0  0  0  0
   -5.1340   -0.4710   -0.0960 O   0  0  0  0  0  0  0  0  0  0  0  0
   -1.6430    0.0140   -0.0990 O   0  0  0  0  0  0  0  0  0  0  0  0
   -0.9140    0.8020    0.8060 C   0  0  1  0  0  0  0  0  0  0  0  0
    0.2280    1.4640    0.1870 C   0  0  0  0  0  0  0  0  0  0  0  0
    0.2980    2.7080    0.1560 O   0  0  0  0  0  0  0  0  0  0  0  0
    1.2730    0.6910   -0.3880 N   0  0  0  0  0  0  0  0  0  0  0  0
    2.4250    1.3010   -1.0130 C   0  0  0  0  0  0  0  0  0  0  0  0
    3.3400    0.2130   -1.5190 C   0  0  0  0  0  0  0  0  0  0  0  0
    3.7170   -0.5520   -0.4020 O   0  0  0  0  0  0  0  0  0  0  0  0
    4.7780   -1.8420   -0.8710 P   0  0  0  0  0  0  0  0  0  0  0  0
    6.2320   -1.2130   -1.5910 O   0  0  0  0  0  0  0  0  0  0  0  0
    5.2120   -2.7310    0.5350 O   0  0  0  0  0  0  0  0  0  0  0  0
   -1.8750    1.7480    1.3370 N   0  0  0  0  0  0  0  0  0  0  0  0
   -3.1310    1.0510    1.2990 C   0  0  0  0  0  0  0  0  0  0  0  0
   -4.1730    1.3200    1.9200 O   0  0  0  0  0  0  0  0  0  0  0  0
  1  2  2  0
  2  3  1  0
  2  6  1  0
  4  3  1  1
  4  5  1  0
  4  7  1  0
  4 19  1  0
  5  6  1  0
  7  8  1  0
  8  9  1  6
  8 18  1  0
  9 10  2  0
  9 11  1  0
 11 12  1  0
 12 13  1  0
 13 14  1  0
 14 15  1  0
 15 16  1  0
 15 17  1  0
 18 19  1  0
 19 20  2  0
M  END
