
     RDKit          3D

 20 21  0  0  0  0  0  0  0  0999 V2000
   -3.1150   -1.2180   -1.5850 N   0  0  0  0  0  0  0  0  0  0  0  0
   -2.5170   -0.3080   -0.5780 C   0  0  2  0  0  0  0  0  0  0  0  0
   -1.4230   -0.9930    0.1170 C   0  0  0  0  0  0  0  0  0  0  0  0
   -0.1680   -0.6360    0.3160 C   0  0  0  0  0  0  0  0  0  0  0  0
    0.5580    0.5400   -0.0760 C   0  0  0  0  0  0  0  0  0  0  0  0
    0.0460    1.4700   -0.7200 O   0  0  0  0  0  0  0  0  0  0  0  0
    1.9220    0.6870    0.2680 N   0  0  0  0  0  0  0  0  0  0  0  0
    2.6300    1.8850   -0.1410 C   0  0  0  0  0  0  0  0  0  0  0  0
    3.9380    1.8910    0.2590 O   0  0  0  0  0  0  0  0  0  0  0  0
    4.8730    0.5950   -0.3530 P   0  0  0  0  0  0  0  0  0  0  0  0
    6.4890    1.1640   -0.6470 O   0  0  0  0  0  0  0  0  0  0  0  0
    4.9860   -0.6310    0.8830 O   0  0  0  0  0  0  0  0  0  0  0  0
    0.4700   -1.7520    1.0960 C   0  0  0  0  0  0  0  0  0  0  0  0
   -0.4940   -2.7240    1.3030 O   0  0  0  0  0  0  0  0  0  0  0  0
   -1.6590   -2.3200    0.7350 C   0  0  0  0  0  0  0  0  0  0  0  0
   -2.7260   -2.9750    0.7480 O   0  0  0  0  0  0  0  0  0  0  0  0
   -3.6910   -0.0600    0.3960 C   0  0  0  0  0  0  0  0  0  0  0  0
   -3.4870    1.3150    0.6440 O   0  0  0  0  0  0  0  0  0  0  0  0
   -3.2920    1.7620   -0.6830 C   0  0  0  0  0  0  0  0  0  0  0  0
   -2.2860    0.9080   -1.1130 O   0  0  0  0  0  0  0  0  0  0  0  0
  2  1  1  6
  2  3  1  0
  2 17  1  0
  2 20  1  0
  3  4  2  0
  3 15  1  0
  4  5  1  0
  4 13  1  0
  5  6  2  0
  5  7  1  0
  7  8  1  0
  8  9  1  0
  9 10  1  0
 10 11  1  0
 10 12  1  0
 13 14  1  0
 14 15  1  0
 15 16  2  0
 17 18  1  0
 18 19  1  0
 19 20  1  0
M  END
