
     RDKit          3D

 21 21  0  0  0  0  0  0  0  0999 V2000
    0.9820    0.6900    0.7770 O   0  0  0  0  0  0  0  0  0  0  0  0
    1.0160   -0.4750    0.4210 C   0  0  0  0  0  0  0  0  0  0  0  0
    2.2770   -1.1780    0.2320 N   0  0  0  0  0  0  0  0  0  0  0  0
    3.4010   -0.3990    0.4060 C   0  0  0  0  0  0  0  0  0  0  0  0
    3.9050    0.5220   -0.7610 C   0  0  0  0  0  0  0  0  0  0  0  0
    4.9630    1.1510   -0.0700 O   0  0  0  0  0  0  0  0  0  0  0  0
    6.5250    1.0060   -0.7600 P   0  0  0  0  0  0  0  0  0  0  0  0
    7.6020    1.2040    0.7240 O   0  0  0  0  0  0  0  0  0  0  0  0
    6.7530   -0.7820   -1.0480 O   0  0  0  0  0  0  0  0  0  0  0  0
   -0.1630   -1.1360    0.2050 N   0  0  0  0  0  0  0  0  0  0  0  0
   -1.4800   -0.6290    0.4690 C   0  0  2  0  0  0  0  0  0  0  0  0
   -2.2330   -0.9860   -0.7830 C   0  0  0  0  0  0  0  0  0  0  0  0
   -3.4380   -1.5660   -0.6700 O   0  0  0  0  0  0  0  0  0  0  0  0
   -4.3230   -0.8040    0.1040 C   0  0  0  0  0  0  0  0  0  0  0  0
   -4.2260    0.6560   -0.2090 C   0  0  1  0  0  0  0  0  0  0  0  0
   -4.7910    0.8970   -1.4830 O   0  0  0  0  0  0  0  0  0  0  0  0
   -5.0540    1.3000    0.7180 O   0  0  0  0  0  0  0  0  0  0  0  0
   -6.2740    0.8110    0.5190 O   0  0  0  0  0  0  0  0  0  0  0  0
   -2.8840    1.2650   -0.0610 C   0  0  0  0  0  0  0  0  0  0  0  0
   -2.7960    2.3130   -0.7120 O   0  0  0  0  0  0  0  0  0  0  0  0
   -1.6500    0.8180    0.7030 C   0  0  0  0  0  0  0  0  0  0  0  0
  1  2  2  0
  2  3  1  0
  2 10  1  0
  3  4  1  0
  4  5  1  0
  5  6  1  0
  6  7  1  0
  7  8  1  0
  7  9  1  0
 11 10  1  6
 11 12  1  0
 11 21  1  0
 12 13  1  0
 13 14  1  0
 14 15  1  0
 15 16  1  6
 15 17  1  0
 15 19  1  0
 17 18  1  0
 19 20  2  0
 19 21  1  0
M  END
