
     RDKit          3D

 20 21  0  0  0  0  0  0  0  0999 V2000
   -1.5650    2.9300    2.4940 N   0  0  0  0  0  0  0  0  0  0  0  0
   -1.6900    2.0390    1.5630 C   0  0  0  0  0  0  0  0  0  0  0  0
   -0.6200    1.1100    1.4600 N   0  0  0  0  0  0  0  0  0  0  0  0
   -0.4740    0.0950    0.6760 C   0  0  0  0  0  0  0  0  0  0  0  0
    0.7380   -0.6960    0.7870 C   0  0  0  0  0  0  0  0  0  0  0  0
    1.7100   -0.4450    1.6430 C   0  0  0  0  0  0  0  0  0  0  0  0
    2.7280   -1.3910    1.4920 O   0  0  0  0  0  0  0  0  0  0  0  0
    2.3730   -2.2630    0.4600 C   0  0  2  0  0  0  0  0  0  0  0  0
    3.2850   -2.1220   -0.7500 C   0  0  0  0  0  0  0  0  0  0  0  0
    3.2260   -0.8110   -1.2610 O   0  0  0  0  0  0  0  0  0  0  0  0
    4.2950   -0.7620   -2.6280 P   0  0  0  0  0  0  0  0  0  0  0  0
    4.5230    0.8620   -3.1930 O   0  0  0  0  0  0  0  0  0  0  0  0
    5.7990   -1.4970   -2.1590 O   0  0  0  0  0  0  0  0  0  0  0  0
    1.0940   -1.8070    0.0580 O   0  0  0  0  0  0  0  0  0  0  0  0
   -1.4200   -0.2830   -0.2720 O   0  0  0  0  0  0  0  0  0  0  0  0
   -2.8120   -0.0930   -0.3460 C   0  0  0  0  0  0  0  0  0  0  0  0
   -3.2220    1.3520   -0.3670 C   0  0  1  0  0  0  0  0  0  0  0  0
   -4.7380    1.3910   -0.3960 C   0  0  0  0  0  0  0  0  0  0  0  0
   -5.2510    0.7060   -1.5000 O   0  0  0  0  0  0  0  0  0  0  0  0
   -2.8150    2.0630    0.7720 O   0  0  0  0  0  0  0  0  0  0  0  0
  1  2  2  0
  2  3  1  0
  2 20  1  0
  3  4  2  0
  4  5  1  0
  4 15  1  0
  5  6  2  0
  5 14  1  0
  6  7  1  0
  7  8  1  0
  8  9  1  6
  8 14  1  0
  9 10  1  0
 10 11  1  0
 11 12  1  0
 11 13  1  0
 15 16  1  0
 16 17  1  0
 17 18  1  1
 17 20  1  0
 18 19  1  0
M  END
