
     RDKit          3D

 21 22  0  0  0  0  0  0  0  0999 V2000
    0.5560   -1.5280    1.5590 O   0  0  0  0  0  0  0  0  0  0  0  0
    0.4760   -0.7700    0.5450 C   0  0  0  0  0  0  0  0  0  0  0  0
    1.6600   -0.5680   -0.2240 O   0  0  0  0  0  0  0  0  0  0  0  0
    2.7770   -1.1490    0.3340 C   0  0  0  0  0  0  0  0  0  0  0  0
    4.1240   -1.1410   -0.3040 C   0  0  0  0  0  0  0  0  0  0  0  0
    4.4210    0.2590   -0.5430 O   0  0  0  0  0  0  0  0  0  0  0  0
    5.8950    0.5850    0.3340 P   0  0  0  0  0  0  0  0  0  0  0  0
    5.4470    1.7720    1.5970 O   0  0  0  0  0  0  0  0  0  0  0  0
    7.1950    1.1440   -0.5380 O   0  0  0  0  0  0  0  0  0  0  0  0
   -0.7600   -0.1610    0.1920 N   0  0  0  0  0  0  0  0  0  0  0  0
   -0.8980    0.8830   -0.7750 C   0  0  0  0  0  0  0  0  0  0  0  0
   -2.0480    1.8160   -0.4180 C   0  0  0  0  0  0  0  0  0  0  0  0
   -3.3510    1.0410   -0.3160 C   0  0  1  0  0  0  0  0  0  0  0  0
   -4.1500    1.2480   -1.4250 O   0  0  0  0  0  0  0  0  0  0  0  0
   -5.0530    0.3780   -1.6700 O   0  0  0  0  0  0  0  0  0  0  0  0
   -5.4090   -0.4600   -0.7060 N   0  0  0  0  0  0  0  0  0  0  0  0
   -4.3650   -1.0280    0.0580 C   0  0  0  0  0  0  0  0  0  0  0  0
   -4.5410   -1.9640    0.8410 O   0  0  0  0  0  0  0  0  0  0  0  0
   -3.0360   -0.4190   -0.1680 C   0  0  1  0  0  0  0  0  0  0  0  0
   -2.5310   -0.9270   -1.3920 O   0  0  0  0  0  0  0  0  0  0  0  0
   -1.9810   -0.6360    0.8440 C   0  0  0  0  0  0  0  0  0  0  0  0
  1  2  2  0
  2  3  1  0
  2 10  1  0
  3  4  1  0
  4  5  1  0
  5  6  1  0
  6  7  1  0
  7  8  1  0
  7  9  1  0
 10 11  1  0
 10 21  1  0
 11 12  1  0
 13 12  1  6
 13 14  1  0
 13 19  1  0
 14 15  1  0
 15 16  1  0
 16 17  1  0
 17 18  2  0
 17 19  1  0
 19 20  1  6
 19 21  1  0
M  END
