
     RDKit          3D

 21 22  0  0  0  0  0  0  0  0999 V2000
    1.2180   -1.4140    0.0380 O   0  0  0  0  0  0  0  0  0  0  0  0
    0.4880   -0.3800   -0.1100 C   0  0  0  0  0  0  0  0  0  0  0  0
    1.2010    0.8530    0.2460 O   0  0  0  0  0  0  0  0  0  0  0  0
    2.4050    0.4850    0.6960 C   0  0  0  0  0  0  0  0  0  0  0  0
    3.1950   -0.0880   -0.5860 C   0  0  0  0  0  0  0  0  0  0  0  0
    4.1710   -0.6720    0.1310 O   0  0  0  0  0  0  0  0  0  0  0  0
    5.7570   -0.5090    0.0510 P   0  0  0  0  0  0  0  0  0  0  0  0
    6.3520    1.0790   -0.1320 O   0  0  0  0  0  0  0  0  0  0  0  0
    6.7820   -1.7980    0.0430 O   0  0  0  0  0  0  0  0  0  0  0  0
   -0.8000   -0.3770   -0.5500 N   0  0  0  0  0  0  0  0  0  0  0  0
   -1.5350   -1.5650   -0.8830 C   0  0  0  0  0  0  0  0  0  0  0  0
   -2.7860   -1.6590   -0.0420 C   0  0  0  0  0  0  0  0  0  0  0  0
   -3.4050   -0.2980    0.1250 C   0  0  1  0  0  0  0  0  0  0  0  0
   -4.5220   -0.2440    0.9010 O   0  0  0  0  0  0  0  0  0  0  0  0
   -5.2030    0.8390    0.5390 O   0  0  0  0  0  0  0  0  0  0  0  0
   -4.5090    1.9930    0.8960 N   0  0  0  0  0  0  0  0  0  0  0  0
   -3.0980    1.9060    1.1250 C   0  0  0  0  0  0  0  0  0  0  0  0
   -2.4970    2.8370    1.7140 O   0  0  0  0  0  0  0  0  0  0  0  0
   -2.4130    0.7180    0.6530 C   0  0  1  0  0  0  0  0  0  0  0  0
   -1.5980    0.2070    1.6560 O   0  0  0  0  0  0  0  0  0  0  0  0
   -1.4750    0.9510   -0.5400 C   0  0  0  0  0  0  0  0  0  0  0  0
  1  2  2  0
  2  3  1  0
  2 10  1  0
  3  4  1  0
  4  5  1  0
  5  6  1  0
  6  7  1  0
  7  8  1  0
  7  9  1  0
 10 11  1  0
 10 21  1  0
 11 12  1  0
 13 12  1  1
 13 14  1  0
 13 19  1  0
 14 15  1  0
 15 16  1  0
 16 17  1  0
 17 18  2  0
 17 19  1  0
 19 20  1  1
 19 21  1  0
M  END
