
     RDKit          3D

 21 22  0  0  0  0  0  0  0  0999 V2000
    6.0830    2.6240    0.6010 O   0  0  0  0  0  0  0  0  0  0  0  0
    4.9840    1.5850    0.9280 P   0  0  0  0  0  0  0  0  0  0  0  0
    4.2350    0.7370   -0.3760 O   0  0  0  0  0  0  0  0  0  0  0  0
    3.0100    0.1830    0.0090 C   0  0  0  0  0  0  0  0  0  0  0  0
    2.3860   -0.5510   -1.1630 C   0  0  0  0  0  0  0  0  0  0  0  0
    1.1150   -1.1370   -0.7950 N   0  0  0  0  0  0  0  0  0  0  0  0
    1.0700   -2.4710   -0.2670 C   0  0  0  0  0  0  0  0  0  0  0  0
    2.1750   -3.0720   -0.1530 O   0  0  0  0  0  0  0  0  0  0  0  0
   -0.1360   -3.0450    0.0890 O   0  0  0  0  0  0  0  0  0  0  0  0
   -1.3110   -2.3350   -0.0610 C   0  0  0  0  0  0  0  0  0  0  0  0
   -2.4100   -2.9770   -0.1380 O   0  0  0  0  0  0  0  0  0  0  0  0
   -1.2530   -0.8710   -0.1250 C   0  0  2  0  0  0  0  0  0  0  0  0
   -1.2600   -0.2270    1.2470 C   0  0  0  0  0  0  0  0  0  0  0  0
   -2.3830    0.5990    1.2930 O   0  0  0  0  0  0  0  0  0  0  0  0
   -2.4620    0.9980   -0.0460 C   0  0  2  0  0  0  0  0  0  0  0  0
   -3.6870    1.7670   -0.3390 C   0  0  0  0  0  0  0  0  0  0  0  0
   -4.6140    1.3800   -1.0710 O   0  0  0  0  0  0  0  0  0  0  0  0
   -3.8100    3.0180    0.2490 O   0  0  0  0  0  0  0  0  0  0  0  0
   -2.4480   -0.2900   -0.7150 N   0  0  0  0  0  0  0  0  0  0  0  0
   -0.1030   -0.4210   -0.9410 C   0  0  0  0  0  0  0  0  0  0  0  0
   -0.1190    0.5360   -1.7470 O   0  0  0  0  0  0  0  0  0  0  0  0
  1  2  2  0
  2  3  1  0
  3  4  1  0
  4  5  1  0
  5  6  1  0
  6  7  1  0
  6 20  1  0
  7  8  2  0
  7  9  1  0
  9 10  1  0
 10 11  2  0
 10 12  1  0
 12 13  1  1
 12 19  1  0
 12 20  1  0
 13 14  1  0
 14 15  1  0
 15 16  1  1
 15 19  1  0
 16 17  2  0
 16 18  1  0
 20 21  2  0
M  END
