
     RDKit          3D

 20 21  0  0  0  0  0  0  0  0999 V2000
   -6.1380   -0.0370    1.2140 O   0  0  0  0  0  0  0  0  0  0  0  0
   -5.1710   -0.1860    0.4380 C   0  0  0  0  0  0  0  0  0  0  0  0
   -3.8710   -0.7770    0.7760 C   0  0  0  0  0  0  0  0  0  0  0  0
   -2.9800    0.2100    0.0160 C   0  0  2  0  0  0  0  0  0  0  0  0
   -3.6880    0.2900   -1.2970 C   0  0  0  0  0  0  0  0  0  0  0  0
   -5.0590    0.1460   -0.9290 O   0  0  0  0  0  0  0  0  0  0  0  0
   -1.7140   -0.2160   -0.0740 O   0  0  0  0  0  0  0  0  0  0  0  0
   -1.1610    0.1050    1.1770 C   0  0  1  0  0  0  0  0  0  0  0  0
    0.2990    0.1070    1.1010 C   0  0  0  0  0  0  0  0  0  0  0  0
    0.9540    1.0160    1.6700 O   0  0  0  0  0  0  0  0  0  0  0  0
    0.9660   -0.9150    0.3780 N   0  0  0  0  0  0  0  0  0  0  0  0
    2.3210   -1.1180    0.1900 C   0  0  0  0  0  0  0  0  0  0  0  0
    3.1380    0.0170   -0.4960 C   0  0  0  0  0  0  0  0  0  0  0  0
    4.4100   -0.6190   -0.5520 O   0  0  0  0  0  0  0  0  0  0  0  0
    5.5490    0.1940    0.4310 P   0  0  0  0  0  0  0  0  0  0  0  0
    6.4750   -1.0910    1.2550 O   0  0  0  0  0  0  0  0  0  0  0  0
    6.5060    1.4360   -0.1290 O   0  0  0  0  0  0  0  0  0  0  0  0
   -1.7750    1.3100    1.6200 N   0  0  0  0  0  0  0  0  0  0  0  0
   -2.8660    1.4960    0.7520 C   0  0  0  0  0  0  0  0  0  0  0  0
   -3.5990    2.5090    0.5840 O   0  0  0  0  0  0  0  0  0  0  0  0
  1  2  2  0
  2  3  1  0
  2  6  1  0
  4  3  1  1
  4  5  1  0
  4  7  1  0
  4 19  1  0
  5  6  1  0
  7  8  1  0
  8  9  1  6
  8 18  1  0
  9 10  2  0
  9 11  1  0
 11 12  1  0
 12 13  1  0
 13 14  1  0
 14 15  1  0
 15 16  1  0
 15 17  1  0
 18 19  1  0
 19 20  2  0
M  END
