
     RDKit          3D

 27 29  0  0  0  0  0  0  0  0999 V2000
   -7.3750    0.4450    1.8920 N   0  0  0  0  0  0  0  0  0  0  0  0
   -6.5090   -0.4450    1.2210 C   0  0  0  0  0  0  0  0  0  0  0  0
   -6.7930   -1.7530    1.0400 N   0  0  0  0  0  0  0  0  0  0  0  0
   -5.9510   -2.5840    0.3970 C   0  0  0  0  0  0  0  0  0  0  0  0
   -4.7820   -2.1250   -0.0920 N   0  0  0  0  0  0  0  0  0  0  0  0
   -4.4530   -0.8100    0.0670 C   0  0  0  0  0  0  0  0  0  0  0  0
   -5.3170    0.0410    0.7270 C   0  0  0  0  0  0  0  0  0  0  0  0
   -4.7430    1.2580    0.7360 N   0  0  0  0  0  0  0  0  0  0  0  0
   -3.5530    1.1930    0.1050 C   0  0  0  0  0  0  0  0  0  0  0  0
   -3.3710   -0.0750   -0.3070 N   0  0  0  0  0  0  0  0  0  0  0  0
   -2.2180   -0.5880   -1.0310 C   0  0  2  0  0  0  0  0  0  0  0  0
   -1.1980   -0.9770   -0.2020 O   0  0  0  0  0  0  0  0  0  0  0  0
   -0.0060   -0.5180   -0.7690 C   0  0  2  0  0  0  0  0  0  0  0  0
    1.1210   -0.4990    0.2350 C   0  0  0  0  0  0  0  0  0  0  0  0
    2.2370   -0.0470   -0.3760 O   0  0  0  0  0  0  0  0  0  0  0  0
    3.6400    0.0990    0.4190 P   0  0  0  0  0  0  0  0  0  0  0  0
    3.6620    0.6040    1.9820 O   0  0  0  0  0  0  0  0  0  0  0  0
    4.0570    1.4170   -0.1990 O   0  0  0  0  0  0  0  0  0  0  0  0
    5.0380   -0.6100   -0.2340 O   0  0  0  0  0  0  0  0  0  0  0  0
    6.4520   -0.0200    0.1330 P   0  0  0  0  0  0  0  0  0  0  0  0
    7.2030   -0.3800    1.6390 O   0  0  0  0  0  0  0  0  0  0  0  0
    6.0020    1.2880    0.7390 O   0  0  0  0  0  0  0  0  0  0  0  0
    7.4730    0.6500   -1.0150 O   0  0  0  0  0  0  0  0  0  0  0  0
   -0.4190    0.8770   -1.1900 C   0  0  1  0  0  0  0  0  0  0  0  0
    0.4790    1.4500   -2.0800 O   0  0  0  0  0  0  0  0  0  0  0  0
   -1.7120    0.5330   -1.9020 C   0  0  1  0  0  0  0  0  0  0  0  0
   -1.3870    0.1150   -3.1870 O   0  0  0  0  0  0  0  0  0  0  0  0
  1  2  1  0
  2  3  2  0
  2  7  1  0
  3  4  1  0
  4  5  2  0
  5  6  1  0
  6  7  2  0
  6 10  1  0
  7  8  1  0
  8  9  2  0
  9 10  1  0
 11 10  1  1
 11 12  1  0
 11 26  1  0
 12 13  1  0
 13 14  1  1
 13 24  1  0
 14 15  1  0
 15 16  1  0
 16 17  1  0
 16 18  1  0
 16 19  1  0
 19 20  1  0
 20 21  1  0
 20 22  1  0
 20 23  1  0
 24 25  1  6
 24 26  1  0
 26 27  1  6
M  END
