
     RDKit          3D

 20 21  0  0  0  0  0  0  0  0999 V2000
    5.1970    2.4980    0.9700 O   0  0  0  0  0  0  0  0  0  0  0  0
    4.7010    1.4670    0.4110 C   0  0  0  0  0  0  0  0  0  0  0  0
    5.4340    0.3440   -0.0480 N   0  0  0  0  0  0  0  0  0  0  0  0
    4.4530   -0.5800   -0.5670 C   0  0  0  0  0  0  0  0  0  0  0  0
    3.3320    0.3400   -0.9330 C   0  0  1  0  0  0  0  0  0  0  0  0
    2.0350   -0.3360   -1.1010 C   0  0  0  0  0  0  0  0  0  0  0  0
    1.9380   -1.1700   -2.0380 O   0  0  0  0  0  0  0  0  0  0  0  0
    0.9240   -0.1130   -0.3000 O   0  0  0  0  0  0  0  0  0  0  0  0
   -0.2900   -0.8180   -0.5420 C   0  0  1  0  0  0  0  0  0  0  0  0
   -0.7040   -1.5420    0.6940 C   0  0  0  0  0  0  0  0  0  0  0  0
    0.0090   -2.1590    1.4890 O   0  0  0  0  0  0  0  0  0  0  0  0
   -2.1810   -1.3700    0.7850 C   0  0  0  0  0  0  0  0  0  0  0  0
   -2.3280    0.0280    0.3710 N   0  0  0  0  0  0  0  0  0  0  0  0
   -3.2040    1.0210    0.9140 C   0  0  0  0  0  0  0  0  0  0  0  0
   -4.8260    0.9580   -0.0230 P   0  0  0  0  0  0  0  0  0  0  0  0
   -5.4390   -0.6520   -0.0220 O   0  0  0  0  0  0  0  0  0  0  0  0
   -5.9600    1.9710    0.8130 O   0  0  0  0  0  0  0  0  0  0  0  0
   -1.3990    0.1870   -0.7010 C   0  0  0  0  0  0  0  0  0  0  0  0
   -1.4840    1.0340   -1.6390 O   0  0  0  0  0  0  0  0  0  0  0  0
    3.3290    1.2560    0.1490 O   0  0  0  0  0  0  0  0  0  0  0  0
  1  2  2  0
  2  3  1  0
  2 20  1  0
  3  4  1  0
  4  5  1  0
  5  6  1  1
  5 20  1  0
  6  7  2  0
  6  8  1  0
  9  8  1  1
  9 10  1  0
  9 18  1  0
 10 11  2  0
 10 12  1  0
 12 13  1  0
 13 14  1  0
 13 18  1  0
 14 15  1  0
 15 16  1  0
 15 17  1  0
 18 19  2  0
M  END
