
     RDKit          3D

 24 25  0  0  0  0  0  0  0  0999 V2000
    8.8510    0.6000   -0.3800 C   0  0  0  0  0  0  0  0  0  0  0  0
    8.3950    0.4830    1.0470 C   0  0  0  0  0  0  0  0  0  0  0  0
    7.1530    1.2720    1.3310 C   0  0  0  0  0  0  0  0  0  0  0  0
    6.0940    0.7510    0.4600 N   0  0  0  0  0  0  0  0  0  0  0  0
    4.8690    1.3060    0.5250 C   0  0  0  0  0  0  0  0  0  0  0  0
    4.6850    2.2910    1.3720 O   0  0  0  0  0  0  0  0  0  0  0  0
    3.7410    1.0340   -0.1410 N   0  0  0  0  0  0  0  0  0  0  0  0
    2.6340    0.7670   -0.7940 C   0  0  0  0  0  0  0  0  0  0  0  0
    1.7040    1.5840   -0.3770 O   0  0  0  0  0  0  0  0  0  0  0  0
    2.2910   -0.1290   -1.7520 N   0  0  0  0  0  0  0  0  0  0  0  0
    0.9460   -0.1640   -2.2760 C   0  0  0  0  0  0  0  0  0  0  0  0
   -0.0570   -0.4350   -1.2050 C   0  0  0  0  0  0  0  0  0  0  0  0
    0.2130   -0.6210   -0.0100 O   0  0  0  0  0  0  0  0  0  0  0  0
   -1.4120   -0.4750   -1.6350 N   0  0  0  0  0  0  0  0  0  0  0  0
   -2.4970   -0.7360   -0.7470 C   0  0  0  0  0  0  0  0  0  0  0  0
   -2.3640   -0.9810    0.5860 N   0  0  0  0  0  0  0  0  0  0  0  0
   -3.6210   -1.1800    1.0820 C   0  0  0  0  0  0  0  0  0  0  0  0
   -4.5120   -1.0590    0.0760 N   0  0  0  0  0  0  0  0  0  0  0  0
   -5.9290   -1.2050    0.2230 C   0  0  1  0  0  0  0  0  0  0  0  0
   -6.4600   -0.7990    1.5620 C   0  0  0  0  0  0  0  0  0  0  0  0
   -7.8900   -0.3070    1.3020 C   0  0  0  0  0  0  0  0  0  0  0  0
   -8.0920   -0.4420   -0.1900 C   0  0  0  0  0  0  0  0  0  0  0  0
   -6.6830   -0.2610   -0.7270 C   0  0  0  0  0  0  0  0  0  0  0  0
   -3.7970   -0.7940   -0.9960 N   0  0  0  0  0  0  0  0  0  0  0  0
  1  2  1  0
  2  3  1  0
  3  4  1  0
  4  5  1  0
  5  6  2  0
  5  7  1  0
  7  8  1  0
  8  9  2  0
  8 10  1  0
 10 11  1  0
 11 12  1  0
 12 13  2  0
 12 14  1  0
 14 15  1  0
 15 16  1  0
 15 24  2  0
 16 17  2  0
 17 18  1  0
 19 18  1  1
 18 24  1  0
 19 20  1  0
 19 23  1  0
 20 21  1  0
 21 22  1  0
 22 23  1  0
M  END
