
     RDKit          3D

 22 24  0  0  0  0  0  0  0  0999 V2000
    4.8370    2.2520   -0.5050 C   0  0  0  0  0  0  0  0  0  0  0  0
    3.5950    1.4910   -0.2760 N   0  0  0  0  0  0  0  0  0  0  0  0
    2.3800    1.9230   -0.5180 C   0  0  0  0  0  0  0  0  0  0  0  0
    1.4870    0.8960   -0.1630 C   0  0  0  0  0  0  0  0  0  0  0  0
    0.1520    0.9900   -0.2770 O   0  0  0  0  0  0  0  0  0  0  0  0
   -0.9800    0.2930   -0.0670 C   0  0  2  0  0  0  0  0  0  0  0  0
   -1.5910    0.0700   -1.3230 O   0  0  0  0  0  0  0  0  0  0  0  0
   -2.6250   -0.8110   -1.0930 C   0  0  2  0  0  0  0  0  0  0  0  0
   -3.0150   -1.6120   -2.2980 C   0  0  0  0  0  0  0  0  0  0  0  0
   -4.0750   -2.4560   -1.8970 O   0  0  0  0  0  0  0  0  0  0  0  0
   -3.7680    0.0280   -0.5580 C   0  0  2  0  0  0  0  0  0  0  0  0
   -3.8950    1.1870   -1.3460 O   0  0  0  0  0  0  0  0  0  0  0  0
   -3.3310    0.4800    0.8180 C   0  0  2  0  0  0  0  0  0  0  0  0
   -4.1920    1.4690    1.3240 O   0  0  0  0  0  0  0  0  0  0  0  0
   -1.9500    1.0060    0.8610 C   0  0  1  0  0  0  0  0  0  0  0  0
   -1.4480    0.8500    2.1540 O   0  0  0  0  0  0  0  0  0  0  0  0
    2.2800   -0.1450    0.2970 C   0  0  0  0  0  0  0  0  0  0  0  0
    2.0070   -1.4030    0.7800 C   0  0  0  0  0  0  0  0  0  0  0  0
    3.0170   -2.2730    1.1840 C   0  0  0  0  0  0  0  0  0  0  0  0
    4.3090   -1.8320    1.0840 C   0  0  0  0  0  0  0  0  0  0  0  0
    4.6250   -0.5860    0.6090 C   0  0  0  0  0  0  0  0  0  0  0  0
    3.5860    0.2600    0.2120 C   0  0  0  0  0  0  0  0  0  0  0  0
  1  2  1  0
  2  3  1  0
  2 22  1  0
  3  4  2  0
  4  5  1  0
  4 17  1  0
  6  5  1  6
  6  7  1  0
  6 15  1  0
  7  8  1  0
  8  9  1  6
  8 11  1  0
  9 10  1  0
 11 12  1  6
 11 13  1  0
 13 14  1  6
 13 15  1  0
 15 16  1  1
 17 18  2  0
 17 22  1  0
 18 19  1  0
 19 20  2  0
 20 21  1  0
 21 22  2  0
M  END
