
     RDKit          3D

 24 25  0  0  0  0  0  0  0  0999 V2000
   -6.3180    1.7050   -0.8260 C   0  0  0  0  0  0  0  0  0  0  0  0
   -5.2510    0.6450   -1.0280 C   0  0  0  0  0  0  0  0  0  0  0  0
   -4.0320    1.0990   -0.2820 C   0  0  0  0  0  0  0  0  0  0  0  0
   -2.9370    0.1150   -0.4280 N   0  0  0  0  0  0  0  0  0  0  0  0
   -1.6960    0.3340    0.1880 C   0  0  0  0  0  0  0  0  0  0  0  0
   -1.6560    1.4370    0.8500 O   0  0  0  0  0  0  0  0  0  0  0  0
   -0.5180   -0.5140    0.1570 C   0  0  0  0  0  0  0  0  0  0  0  0
   -0.3840   -1.7770   -0.5310 C   0  0  0  0  0  0  0  0  0  0  0  0
   -1.4660   -2.4090   -1.3090 C   0  0  0  0  0  0  0  0  0  0  0  0
    0.7390   -2.3930   -0.4680 O   0  0  0  0  0  0  0  0  0  0  0  0
    0.5800   -0.0910    0.8230 C   0  0  0  0  0  0  0  0  0  0  0  0
    0.5770    1.1880    1.5480 C   0  0  0  0  0  0  0  0  0  0  0  0
    1.7460   -0.8840    0.8560 N   0  0  0  0  0  0  0  0  0  0  0  0
    3.0200   -0.4620    0.3890 C   0  0  0  0  0  0  0  0  0  0  0  0
    4.0630   -0.2170    1.2530 C   0  0  0  0  0  0  0  0  0  0  0  0
    3.9040   -0.4890    2.6920 C   0  0  0  0  0  0  0  0  0  0  0  0
    5.0570   -0.1880    3.4160 O   0  0  0  0  0  0  0  0  0  0  0  0
    5.2470    0.2360    0.7490 N   0  0  0  0  0  0  0  0  0  0  0  0
    5.4630    0.4600   -0.5530 C   0  0  0  0  0  0  0  0  0  0  0  0
    4.4610    0.2270   -1.4140 N   0  0  0  0  0  0  0  0  0  0  0  0
    4.4040    0.3630   -2.7280 N   0  0  0  0  0  0  0  0  0  0  0  0
    3.1840    0.0020   -3.1010 N   0  0  0  0  0  0  0  0  0  0  0  0
    2.4760   -0.3570   -2.0430 N   0  0  0  0  0  0  0  0  0  0  0  0
    3.2600   -0.2250   -0.9640 C   0  0  0  0  0  0  0  0  0  0  0  0
  1  2  1  0
  2  3  1  0
  3  4  1  0
  4  5  1  0
  5  6  2  0
  5  7  1  0
  7  8  1  0
  7 11  2  3
  8  9  1  0
  8 10  2  0
 11 12  1  0
 11 13  1  0
 13 14  1  0
 14 15  2  0
 14 24  1  0
 15 16  1  0
 15 18  1  0
 16 17  1  0
 18 19  2  0
 19 20  1  0
 20 21  1  0
 20 24  1  0
 21 22  2  0
 22 23  1  0
 23 24  2  0
M  END
