
     RDKit          3D

 24 25  0  0  0  0  0  0  0  0999 V2000
   -5.5040   -0.6100    0.3180 C   0  0  0  0  0  0  0  0  0  0  0  0
   -4.2960   -1.2770    0.6940 N   0  0  0  0  0  0  0  0  0  0  0  0
   -4.4750   -2.3280    1.6510 C   0  0  0  0  0  0  0  0  0  0  0  0
   -3.2500   -0.3480    1.0850 C   0  0  0  0  0  0  0  0  0  0  0  0
   -2.9040    0.5770   -0.0230 C   0  0  0  0  0  0  0  0  0  0  0  0
   -3.5490    1.7860   -0.1850 C   0  0  0  0  0  0  0  0  0  0  0  0
   -3.2130    2.6430   -1.2300 C   0  0  0  0  0  0  0  0  0  0  0  0
   -2.2260    2.2740   -2.1050 C   0  0  0  0  0  0  0  0  0  0  0  0
   -1.5890    1.0650   -1.9340 C   0  0  0  0  0  0  0  0  0  0  0  0
   -0.6090    0.7270   -2.8260 O   0  0  0  0  0  0  0  0  0  0  0  0
    0.0870   -0.4920   -2.7140 C   0  0  0  0  0  0  0  0  0  0  0  0
    0.8350   -0.6570   -1.4210 C   0  0  0  0  0  0  0  0  0  0  0  0
    1.8210    0.4020   -1.2730 N   0  0  0  0  0  0  0  0  0  0  0  0
    2.6490    0.4460   -0.1190 C   0  0  0  0  0  0  0  0  0  0  0  0
    2.5160   -0.4380    0.7640 O   0  0  0  0  0  0  0  0  0  0  0  0
    3.6260    1.4610    0.0700 N   0  0  0  0  0  0  0  0  0  0  0  0
    4.4730    1.4970    1.2550 C   0  0  0  0  0  0  0  0  0  0  0  0
    5.2920    0.2710    1.3510 C   0  0  0  0  0  0  0  0  0  0  0  0
    6.0790   -0.1120    2.3640 N   0  0  0  0  0  0  0  0  0  0  0  0
    6.6310   -1.2630    2.0420 N   0  0  0  0  0  0  0  0  0  0  0  0
    6.2100   -1.6390    0.8230 C   0  0  0  0  0  0  0  0  0  0  0  0
    6.5260   -2.6800    0.1940 O   0  0  0  0  0  0  0  0  0  0  0  0
    5.3750   -0.6710    0.4050 N   0  0  0  0  0  0  0  0  0  0  0  0
   -1.9460    0.2700   -0.9120 N   0  0  0  0  0  0  0  0  0  0  0  0
  1  2  1  0
  2  3  1  0
  2  4  1  0
  4  5  1  0
  5  6  2  0
  5 24  1  0
  6  7  1  0
  7  8  2  0
  8  9  1  0
  9 10  1  0
  9 24  2  0
 10 11  1  0
 11 12  1  0
 12 13  1  0
 13 14  1  0
 14 15  2  0
 14 16  1  0
 16 17  1  0
 17 18  1  0
 18 19  2  0
 18 23  1  0
 19 20  1  0
 20 21  1  0
 21 22  2  0
 21 23  1  0
M  END
