
     RDKit          3D

 24 25  0  0  0  0  0  0  0  0999 V2000
   -4.7460    0.7520   -4.0140 C   0  0  0  0  0  0  0  0  0  0  0  0
   -4.0330    0.2060   -3.0580 C   0  0  0  0  0  0  0  0  0  0  0  0
   -4.4430    0.3750   -1.6550 C   0  0  0  0  0  0  0  0  0  0  0  0
   -5.4620    1.0200   -1.1780 O   0  0  0  0  0  0  0  0  0  0  0  0
   -5.5000    0.9480    0.1360 C   0  0  0  0  0  0  0  0  0  0  0  0
   -4.4240    0.1990    0.5550 C   0  0  0  0  0  0  0  0  0  0  0  0
   -4.0410   -0.1540    1.8780 N   0  0  0  0  0  0  0  0  0  0  0  0
   -4.8240    0.2850    3.0140 C   0  0  0  0  0  0  0  0  0  0  0  0
   -3.7470   -0.1670   -0.5950 C   0  0  0  0  0  0  0  0  0  0  0  0
   -2.5610   -0.9570   -0.6140 N   0  0  0  0  0  0  0  0  0  0  0  0
   -1.2660   -0.3660   -0.5490 C   0  0  0  0  0  0  0  0  0  0  0  0
   -1.2330    0.9090   -0.4740 O   0  0  0  0  0  0  0  0  0  0  0  0
   -0.0190   -1.1780   -0.5680 C   0  0  0  0  0  0  0  0  0  0  0  0
    1.1040   -0.2610   -0.4890 N   0  0  0  0  0  0  0  0  0  0  0  0
    2.4550   -0.7270   -0.4850 C   0  0  0  0  0  0  0  0  0  0  0  0
    2.6430   -1.9590   -0.5530 O   0  0  0  0  0  0  0  0  0  0  0  0
    3.5680    0.1260   -0.4090 N   0  0  0  0  0  0  0  0  0  0  0  0
    4.9330   -0.3870   -0.4080 C   0  0  1  0  0  0  0  0  0  0  0  0
    5.6490    0.2290   -1.5850 C   0  0  0  0  0  0  0  0  0  0  0  0
    5.5610    0.0370    0.8860 C   0  0  0  0  0  0  0  0  0  0  0  0
    4.9640   -0.0470    2.1270 C   0  0  0  0  0  0  0  0  0  0  0  0
    5.8130    0.4210    3.0590 N   0  0  0  0  0  0  0  0  0  0  0  0
    6.9120    0.7860    2.3980 N   0  0  0  0  0  0  0  0  0  0  0  0
    6.7710    0.5620    1.1050 N   0  0  0  0  0  0  0  0  0  0  0  0
  1  2  2  0
  2  3  1  0
  3  4  1  0
  3  9  2  0
  4  5  1  0
  5  6  2  0
  6  7  1  0
  6  9  1  0
  7  8  1  0
  9 10  1  0
 10 11  1  0
 11 12  2  0
 11 13  1  0
 13 14  1  0
 14 15  1  0
 15 16  2  0
 15 17  1  0
 17 18  1  0
 18 19  1  6
 18 20  1  0
 20 21  2  0
 20 24  1  0
 21 22  1  0
 22 23  1  0
 23 24  2  0
M  END
