
     RDKit          3D

 24 25  0  0  0  0  0  0  0  0999 V2000
   -0.0510    2.4780   -1.1030 C   0  0  0  0  0  0  0  0  0  0  0  0
   -0.3400    1.2710   -0.3640 C   0  0  0  0  0  0  0  0  0  0  0  0
   -1.3510    0.7470    0.0660 N   0  0  0  0  0  0  0  0  0  0  0  0
   -1.8580   -0.3590    0.4880 C   0  0  0  0  0  0  0  0  0  0  0  0
   -3.2430   -0.4920    0.8560 C   0  0  0  0  0  0  0  0  0  0  0  0
   -4.0070    0.4500    1.1010 C   0  0  0  0  0  0  0  0  0  0  0  0
   -5.1670    1.1040    1.4700 N   0  0  0  0  0  0  0  0  0  0  0  0
   -6.4080    0.4450    0.8610 C   0  0  0  0  0  0  0  0  0  0  0  0
   -7.3870    1.1430    0.7660 O   0  0  0  0  0  0  0  0  0  0  0  0
   -6.3860   -0.8780    0.4390 N   0  0  0  0  0  0  0  0  0  0  0  0
   -5.3330   -1.8690    0.2450 C   0  0  0  0  0  0  0  0  0  0  0  0
   -5.7710   -2.9910   -0.1190 O   0  0  0  0  0  0  0  0  0  0  0  0
   -3.8930   -1.7090    0.3980 N   0  0  0  0  0  0  0  0  0  0  0  0
   -0.8770   -1.4340    0.5020 N   0  0  0  0  0  0  0  0  0  0  0  0
    0.3620   -1.0930    0.0890 C   0  0  0  0  0  0  0  0  0  0  0  0
    0.7200    0.1640   -0.3420 C   0  0  0  0  0  0  0  0  0  0  0  0
    2.0330    0.6610   -0.6430 C   0  0  0  0  0  0  0  0  0  0  0  0
    3.1380   -0.2250   -0.5630 N   0  0  0  0  0  0  0  0  0  0  0  0
    4.2700    0.3760   -1.2180 C   0  0  0  0  0  0  0  0  0  0  0  0
    4.7910    1.5890   -0.4730 C   0  0  0  0  0  0  0  0  0  0  0  0
    5.1060    2.3200   -0.0090 N   0  0  0  0  0  0  0  0  0  0  0  0
    3.4970   -0.6860    0.7830 C   0  0  0  0  0  0  0  0  0  0  0  0
    4.7290   -1.5440    0.6120 C   0  0  0  0  0  0  0  0  0  0  0  0
    5.2220   -2.1100    1.7620 O   0  0  0  0  0  0  0  0  0  0  0  0
  1  2  1  0
  2  3  2  0
  2 16  1  0
  3  4  1  0
  4  5  1  0
  4 14  2  0
  5  6  2  0
  5 13  1  0
  6  7  1  0
  7  8  1  0
  8  9  2  0
  8 10  1  0
 10 11  1  0
 11 12  2  0
 11 13  1  0
 14 15  1  0
 15 16  2  0
 16 17  1  0
 17 18  1  0
 18 19  1  0
 18 22  1  0
 19 20  1  0
 20 21  3  0
 22 23  1  0
 23 24  1  0
M  END
