
     RDKit          3D

 15 16  0  0  0  0  0  0  0  0999 V2000
   -3.1410   -1.5140    0.2370 C   0  0  0  0  0  0  0  0  0  0  0  0
   -1.6910   -1.1220   -0.0770 C   0  0  2  0  0  0  0  0  0  0  0  0
   -0.8980   -1.7610    0.8210 O   0  0  0  0  0  0  0  0  0  0  0  0
   -1.6230    0.3310   -0.1530 C   0  0  1  0  0  0  0  0  0  0  0  0
   -1.9540    1.1670    1.4560 S   0  0  0  0  0  0  0  0  0  0  0  0
   -1.1410    2.6810    0.9510 C   0  0  0  0  0  0  0  0  0  0  0  0
   -0.9730    3.6590    1.5700 O   0  0  0  0  0  0  0  0  0  0  0  0
   -0.7360    2.3860   -0.4450 C   0  0  0  0  0  0  0  0  0  0  0  0
   -0.3900    0.9490   -0.4790 N   0  0  1  0  0  0  0  0  0  0  0  0
    0.6720    0.7850    0.4610 C   0  0  0  0  0  0  0  0  0  0  0  0
    1.9490    0.4200   -0.3120 C   0  0  1  0  0  0  0  0  0  0  0  0
    3.1090    0.2290    0.5740 C   0  0  0  0  0  0  0  0  0  0  0  0
    4.0220   -1.2230    0.1070 S   0  0  0  0  0  0  0  0  0  0  0  0
    2.6900   -2.3140   -0.5270 C   0  0  0  0  0  0  0  0  0  0  0  0
    1.6240   -1.0430   -1.2620 S   0  0  0  0  0  0  0  0  0  0  0  0
  2  1  1  1
  2  3  1  0
  2  4  1  0
  4  5  1  1
  4  9  1  0
  5  6  1  0
  6  7  2  0
  6  8  1  0
  8  9  1  0
  9 10  1  1
 11 10  1  1
 11 12  1  0
 11 15  1  0
 12 13  1  0
 13 14  1  0
 14 15  1  0
M  CHG  1   9   1
M  END
