
     RDKit          3D

 15 16  0  0  0  0  0  0  0  0999 V2000
   -4.9430    0.3750    0.0640 C   0  0  0  0  0  0  0  0  0  0  0  0
   -3.5600   -0.1090    0.3430 C   0  0  0  0  0  0  0  0  0  0  0  0
   -3.2030   -0.7210    1.4850 N   0  0  0  0  0  0  0  0  0  0  0  0
   -1.9400   -1.0220    1.4280 O   0  0  0  0  0  0  0  0  0  0  0  0
   -1.4660   -0.6190    0.2730 C   0  0  0  0  0  0  0  0  0  0  0  0
   -0.0730   -0.7750   -0.1740 C   0  0  0  0  0  0  0  0  0  0  0  0
    0.7650    0.3350    0.1870 N   0  0  0  0  0  0  0  0  0  0  0  0
    2.1370    0.2820   -0.2010 C   0  0  0  0  0  0  0  0  0  0  0  0
    3.2020    0.5440    0.5310 C   0  0  0  0  0  0  0  0  0  0  0  0
    4.3850    0.3500   -0.3090 C   0  0  2  0  0  0  0  0  0  0  0  0
    5.4770   -0.8970    0.3420 Cl  0  0  0  0  0  0  0  0  0  0  0  0
    5.2320    1.9150   -0.4490 Cl  0  0  0  0  0  0  0  0  0  0  0  0
    3.8780   -0.0470   -1.5890 N   0  0  0  0  0  0  0  0  0  0  0  0
    2.6040   -0.0840   -1.5240 C   0  0  0  0  0  0  0  0  0  0  0  0
   -2.4730   -0.0420   -0.4210 N   0  0  0  0  0  0  0  0  0  0  0  0
  1  2  1  0
  2  3  2  0
  2 15  1  0
  3  4  1  0
  4  5  1  0
  5  6  1  0
  5 15  2  0
  6  7  1  0
  7  8  1  0
  8  9  2  0
  8 14  1  0
  9 10  1  0
 10 11  1  1
 10 12  1  0
 10 13  1  0
 13 14  2  0
M  END
