
     RDKit          3D

 27 30  0  0  0  0  0  0  0  0999 V2000
   -4.2820   -1.9720   -2.5280 O   0  0  0  0  0  0  0  0  0  0  0  0
   -5.0730   -1.0890   -1.7970 C   0  0  0  0  0  0  0  0  0  0  0  0
   -4.3400   -0.6420   -0.5260 C   0  0  1  0  0  0  0  0  0  0  0  0
   -3.1650   -0.0140   -0.9300 O   0  0  0  0  0  0  0  0  0  0  0  0
   -2.4020    0.3300    0.1960 C   0  0  1  0  0  0  0  0  0  0  0  0
   -1.1680    0.7460   -0.2720 O   0  0  0  0  0  0  0  0  0  0  0  0
    0.0300    0.1590    0.0840 C   0  0  0  0  0  0  0  0  0  0  0  0
    0.1670   -0.9080    0.9430 C   0  0  0  0  0  0  0  0  0  0  0  0
    1.4280   -1.4380    1.2450 C   0  0  0  0  0  0  0  0  0  0  0  0
    2.5630   -0.8930    0.6830 C   0  0  0  0  0  0  0  0  0  0  0  0
    2.4700    0.1760   -0.1820 C   0  0  0  0  0  0  0  0  0  0  0  0
    1.2250    0.6670   -0.4550 C   0  0  0  0  0  0  0  0  0  0  0  0
    3.6260    0.7380   -0.7610 O   0  0  0  0  0  0  0  0  0  0  0  0
    4.8980    0.2580   -0.5000 C   0  0  0  0  0  0  0  0  0  0  0  0
    6.0290    0.8260   -1.0810 C   0  0  0  0  0  0  0  0  0  0  0  0
    7.2870    0.3350   -0.8100 C   0  0  0  0  0  0  0  0  0  0  0  0
    8.3870    0.9350   -1.4140 O   0  0  0  0  0  0  0  0  0  0  0  0
    7.4110   -0.7260    0.0440 C   0  0  0  0  0  0  0  0  0  0  0  0
    6.2940   -1.2920    0.6230 C   0  0  0  0  0  0  0  0  0  0  0  0
    5.0220   -0.8120    0.3620 C   0  0  0  0  0  0  0  0  0  0  0  0
    3.8660   -1.3990    0.9610 N   0  0  0  0  0  0  0  0  0  0  0  0
   -3.0960    1.4230    0.9920 C   0  0  2  0  0  0  0  0  0  0  0  0
   -2.8500    1.2450    2.3670 O   0  0  0  0  0  0  0  0  0  0  0  0
   -4.5500    1.5380    0.6900 C   0  0  1  0  0  0  0  0  0  0  0  0
   -4.7720    2.5230   -0.2920 O   0  0  0  0  0  0  0  0  0  0  0  0
   -5.1980    0.2270    0.3260 C   0  0  1  0  0  0  0  0  0  0  0  0
   -6.3690    0.5130   -0.4000 O   0  0  0  0  0  0  0  0  0  0  0  0
  1  2  1  0
  3  2  1  6
  3  4  1  0
  3 26  1  0
  4  5  1  0
  5  6  1  6
  5 22  1  0
  6  7  1  0
  7  8  2  0
  7 12  1  0
  8  9  1  0
  9 10  2  0
 10 11  1  0
 10 21  1  0
 11 12  2  0
 11 13  1  0
 13 14  1  0
 14 15  2  0
 14 20  1  0
 15 16  1  0
 16 17  1  0
 16 18  2  0
 18 19  1  0
 19 20  2  0
 20 21  1  0
 22 23  1  1
 22 24  1  0
 24 25  1  6
 24 26  1  0
 26 27  1  6
M  END
