
     RDKit          3D

 14 15  0  0  0  0  0  0  0  0999 V2000
    3.3120    0.7960   -1.5970 C   0  0  0  0  0  0  0  0  0  0  0  0
    3.2300   -0.2620   -0.2040 S   0  0  1  0  0  0  0  0  0  0  0  0
    3.4230   -1.7260   -0.6020 O   0  0  0  0  0  0  0  0  0  0  0  0
    4.2910    0.2270    0.9640 O   0  0  0  0  0  0  0  0  0  0  0  0
    1.7750   -0.3550    0.4260 C   0  0  0  0  0  0  0  0  0  0  0  0
    0.6370   -0.3730   -0.4870 C   0  0  0  0  0  0  0  0  0  0  0  0
   -0.5170   -0.9960    0.2430 C   0  0  1  0  0  0  0  0  0  0  0  0
   -0.9010   -0.2300    1.4900 C   0  0  0  0  0  0  0  0  0  0  0  0
   -2.3990   -0.0020    1.4470 C   0  0  1  0  0  0  0  0  0  0  0  0
   -2.7460    1.2220    0.6030 C   0  0  0  0  0  0  0  0  0  0  0  0
   -2.3740    0.8640   -0.8420 C   0  0  0  0  0  0  0  0  0  0  0  0
   -2.0570   -0.8780   -0.6260 S   0  0  1  0  0  0  0  0  0  0  0  0
   -2.3060   -1.8490   -1.8840 S   0  0  0  0  0  0  0  0  0  0  0  0
   -2.9500   -1.0600    0.6430 N   0  0  0  0  0  0  0  0  0  0  0  0
  2  1  1  6
  2  3  2  0
  2  4  1  0
  2  5  2  0
  5  6  1  0
  7  6  1  6
  7  8  1  0
  7 12  1  0
  9  8  1  6
  9 10  1  0
  9 14  1  0
 10 11  1  0
 12 11  1  6
 12 13  2  0
 12 14  2  0
M  CHG  1  14   1
M  END
