
     RDKit          3D

 15 16  0  0  0  0  0  0  0  0999 V2000
    3.5380   -1.1510    0.6510 C   0  0  0  0  0  0  0  0  0  0  0  0
    2.8200   -0.0550   -0.1480 C   0  0  2  0  0  0  0  0  0  0  0  0
    4.1360    0.9670   -0.8290 S   0  0  1  0  0  0  0  0  0  0  0  0
    3.4870    2.2900   -1.2030 O   0  0  0  0  0  0  0  0  0  0  0  0
    5.2290    1.1720    0.1520 O   0  0  0  0  0  0  0  0  0  0  0  0
    2.0680    0.7860    0.8200 C   0  0  0  0  0  0  0  0  0  0  0  0
    0.5070    0.0110    1.2560 S   0  0  0  0  0  0  0  0  0  0  0  0
   -0.4950   -0.0490   -0.2580 C   0  0  2  0  0  0  0  0  0  0  0  0
   -1.8590   -0.5850    0.1400 C   0  0  2  0  0  0  0  0  0  0  0  0
   -2.7940   -0.6880   -1.0190 C   0  0  0  0  0  0  0  0  0  0  0  0
   -4.0560   -0.0120   -0.4660 C   0  0  0  0  0  0  0  0  0  0  0  0
   -3.3950    1.1270    0.3170 C   0  0  0  0  0  0  0  0  0  0  0  0
   -2.4200    0.3560    1.0840 N   0  0  0  0  0  0  0  0  0  0  0  0
    0.1570   -0.9240   -1.2700 C   0  0  0  0  0  0  0  0  0  0  0  0
    1.8880   -0.7140   -1.4970 S   0  0  0  0  0  0  0  0  0  0  0  0
  2  1  1  1
  3  2  1  1
  2  6  1  0
  2 15  1  0
  3  4  2  0
  3  5  2  0
  6  7  1  0
  7  8  1  0
  8  9  1  0
  8 14  1  6
  9 10  1  6
  9 13  1  0
 10 11  1  0
 11 12  1  0
 12 13  1  0
 14 15  1  0
M  CHG  1  13   1
M  END
