
     RDKit          3D

 33 36  0  0  0  0  0  0  0  0999 V2000
    0.9470    2.2310   -1.6180 C   0  0  0  0  0  0  0  0  0  0  0  0
    1.5910    1.2530   -0.8620 O   0  0  0  0  0  0  0  0  0  0  0  0
    0.9710    0.1480   -0.2890 C   0  0  0  0  0  0  0  0  0  0  0  0
   -0.3830   -0.0800   -0.4260 C   0  0  0  0  0  0  0  0  0  0  0  0
   -1.0200   -1.1580    0.1260 C   0  0  0  0  0  0  0  0  0  0  0  0
   -2.4030   -1.4460    0.0320 N   0  0  0  0  0  0  0  0  0  0  0  0
   -3.3990   -0.6340   -0.5250 C   0  0  0  0  0  0  0  0  0  0  0  0
   -3.0910    0.4800   -1.0040 O   0  0  0  0  0  0  0  0  0  0  0  0
   -4.7860   -1.0610   -0.5590 N   0  0  0  0  0  0  0  0  0  0  0  0
   -5.7980   -0.2220   -1.1330 C   0  0  1  0  0  0  0  0  0  0  0  0
   -6.5120   -0.8250   -2.2980 C   0  0  0  0  0  0  0  0  0  0  0  0
   -7.8110   -0.0340   -2.3820 C   0  0  0  0  0  0  0  0  0  0  0  0
   -8.1220    0.2160   -0.9280 C   0  0  0  0  0  0  0  0  0  0  0  0
   -9.1020    0.4930   -0.1540 N   0  0  0  0  0  0  0  0  0  0  0  0
  -10.4340    0.6850   -0.4750 O   0  0  0  0  0  0  0  0  0  0  0  0
   -8.6020    0.5860    1.1900 C   0  0  0  0  0  0  0  0  0  0  0  0
   -7.1570    0.3160    1.0800 C   0  0  0  0  0  0  0  0  0  0  0  0
   -6.8840    0.0980   -0.1780 C   0  0  0  0  0  0  0  0  0  0  0  0
   -0.1980   -2.0240    0.8480 C   0  0  0  0  0  0  0  0  0  0  0  0
    1.1590   -1.8010    0.9890 C   0  0  0  0  0  0  0  0  0  0  0  0
    1.7940   -0.7200    0.4350 C   0  0  0  0  0  0  0  0  0  0  0  0
    3.2170   -0.4590    0.5660 C   0  0  0  0  0  0  0  0  0  0  0  0
    4.0060   -1.2480    1.2310 C   0  0  0  0  0  0  0  0  0  0  0  0
    5.4480   -1.0800    1.4260 C   0  0  0  0  0  0  0  0  0  0  0  0
    6.1020   -1.9270    2.0980 O   0  0  0  0  0  0  0  0  0  0  0  0
    6.0950    0.0380    0.8520 N   0  0  0  0  0  0  0  0  0  0  0  0
    7.4680    0.3260    0.9560 C   0  0  0  0  0  0  0  0  0  0  0  0
    8.3470   -0.4540    1.6270 C   0  0  0  0  0  0  0  0  0  0  0  0
    9.6970   -0.1000    1.6840 C   0  0  0  0  0  0  0  0  0  0  0  0
   10.1590    1.0350    1.0670 C   0  0  0  0  0  0  0  0  0  0  0  0
    9.2910    1.8470    0.3790 C   0  0  0  0  0  0  0  0  0  0  0  0
    7.9390    1.4850    0.3270 C   0  0  0  0  0  0  0  0  0  0  0  0
    7.1480    2.3610   -0.3860 O   0  0  0  0  0  0  0  0  0  0  0  0
  1  2  1  0
  2  3  1  0
  3  4  2  0
  3 21  1  0
  4  5  1  0
  5  6  1  0
  5 19  2  0
  6  7  1  0
  7  8  2  0
  7  9  1  0
 10  9  1  1
 10 11  1  0
 10 18  1  0
 11 12  1  0
 12 13  1  0
 13 14  2  0
 13 18  1  0
 14 15  1  0
 14 16  1  0
 16 17  1  0
 17 18  2  0
 19 20  1  0
 20 21  2  0
 21 22  1  0
 22 23  2  3
 23 24  1  0
 24 25  2  0
 24 26  1  0
 26 27  1  0
 27 28  2  0
 27 32  1  0
 28 29  1  0
 29 30  2  0
 30 31  1  0
 31 32  2  0
 32 33  1  0
M  CHG  2  14   1  15  -1
M  END
