
     RDKit          3D

 32 35  0  0  0  0  0  0  0  0999 V2000
   -4.0260   -4.2340   -1.4130 C   0  0  0  0  0  0  0  0  0  0  0  0
   -3.8910   -2.8640   -0.8160 C   0  0  0  0  0  0  0  0  0  0  0  0
   -4.9670   -2.1490   -0.3730 C   0  0  0  0  0  0  0  0  0  0  0  0
   -4.8260   -0.8880    0.1740 C   0  0  0  0  0  0  0  0  0  0  0  0
   -3.5640   -0.3730    0.2590 C   0  0  0  0  0  0  0  0  0  0  0  0
   -3.3640    0.8950    0.8020 O   0  0  0  0  0  0  0  0  0  0  0  0
   -4.4190    1.6590    1.2660 C   0  0  0  0  0  0  0  0  0  0  0  0
   -4.8610    1.5950    2.5730 C   0  0  0  0  0  0  0  0  0  0  0  0
   -5.9250    2.3780    3.0030 C   0  0  0  0  0  0  0  0  0  0  0  0
   -6.5710    3.2370    2.1560 C   0  0  0  0  0  0  0  0  0  0  0  0
   -6.1260    3.2980    0.8500 C   0  0  0  0  0  0  0  0  0  0  0  0
   -5.0600    2.5200    0.4000 C   0  0  0  0  0  0  0  0  0  0  0  0
   -2.4350   -1.0650   -0.1810 C   0  0  0  0  0  0  0  0  0  0  0  0
   -1.1610   -0.4670   -0.0610 N   0  0  0  0  0  0  0  0  0  0  0  0
    0.0640   -1.0000   -0.4410 C   0  0  0  0  0  0  0  0  0  0  0  0
    0.1100   -2.1460   -0.9580 O   0  0  0  0  0  0  0  0  0  0  0  0
    1.3420   -0.2570   -0.2560 C   0  0  0  0  0  0  0  0  0  0  0  0
    2.5270   -0.7230   -0.6010 C   0  0  0  0  0  0  0  0  0  0  0  0
    2.7860   -1.9950   -1.1990 N   0  0  0  0  0  0  0  0  0  0  0  0
    3.5650    0.2430   -0.2900 C   0  0  0  0  0  0  0  0  0  0  0  0
    4.8590    0.1060   -0.5000 C   0  0  0  0  0  0  0  0  0  0  0  0
    5.7620    1.1760   -0.1270 C   0  0  0  0  0  0  0  0  0  0  0  0
    5.3010    2.2120    0.3890 O   0  0  0  0  0  0  0  0  0  0  0  0
    7.1920    1.0370   -0.3540 C   0  0  0  0  0  0  0  0  0  0  0  0
    8.2010    1.9380   -0.0680 C   0  0  0  0  0  0  0  0  0  0  0  0
    9.4130    1.4240   -0.4380 C   0  0  0  0  0  0  0  0  0  0  0  0
    9.1450    0.1770   -0.9640 C   0  0  0  0  0  0  0  0  0  0  0  0
    7.8170   -0.0370   -0.9060 N   0  0  0  0  0  0  0  0  0  0  0  0
    2.9460    1.3380    0.2710 O   0  0  0  0  0  0  0  0  0  0  0  0
    1.5830    1.0480    0.2990 C   0  0  0  0  0  0  0  0  0  0  0  0
    0.6650    1.8090    0.7450 O   0  0  0  0  0  0  0  0  0  0  0  0
   -2.6230   -2.3060   -0.7140 C   0  0  0  0  0  0  0  0  0  0  0  0
  1  2  1  0
  2  3  2  0
  2 32  1  0
  3  4  1  0
  4  5  2  0
  5  6  1  0
  5 13  1  0
  6  7  1  0
  7  8  2  0
  7 12  1  0
  8  9  1  0
  9 10  2  0
 10 11  1  0
 11 12  2  0
 13 14  1  0
 13 32  2  0
 14 15  1  0
 15 16  2  0
 15 17  1  0
 17 18  2  0
 17 30  1  0
 18 19  1  0
 18 20  1  0
 20 21  2  3
 20 29  1  0
 21 22  1  0
 22 23  2  0
 22 24  1  0
 24 25  2  0
 24 28  1  0
 25 26  1  0
 26 27  2  0
 27 28  1  0
 29 30  1  0
 30 31  2  0
M  END
