
     RDKit          3D

 32 35  0  0  0  0  0  0  0  0999 V2000
   -5.9910    1.5870   -1.2360 C   0  0  0  0  0  0  0  0  0  0  0  0
   -4.7000    1.1300   -0.6380 C   0  0  0  0  0  0  0  0  0  0  0  0
   -3.6930    2.0950   -0.5840 C   0  0  0  0  0  0  0  0  0  0  0  0
   -2.4950    1.7970    0.0210 C   0  0  0  0  0  0  0  0  0  0  0  0
   -1.4720    2.7400    0.0910 C   0  0  0  0  0  0  0  0  0  0  0  0
   -0.2810    2.4330    0.6960 C   0  0  0  0  0  0  0  0  0  0  0  0
    0.7410    3.3940    0.7590 O   0  0  0  0  0  0  0  0  0  0  0  0
   -0.0970    1.1710    1.2430 C   0  0  0  0  0  0  0  0  0  0  0  0
    1.1380    0.8660    1.8660 N   0  0  0  0  0  0  0  0  0  0  0  0
    2.1630    0.6490    1.1180 C   0  0  0  0  0  0  0  0  0  0  0  0
    2.0990    0.7020   -0.2550 C   0  0  0  0  0  0  0  0  0  0  0  0
    3.2010    0.4670   -1.0200 C   0  0  0  0  0  0  0  0  0  0  0  0
    4.4200    0.1660   -0.4240 C   0  0  0  0  0  0  0  0  0  0  0  0
    5.5940   -0.0810   -1.2410 C   0  0  0  0  0  0  0  0  0  0  0  0
    5.5800    0.0770   -2.4970 O   0  0  0  0  0  0  0  0  0  0  0  0
    6.8120   -0.5110   -0.6740 N   0  0  0  0  0  0  0  0  0  0  0  0
    7.9950   -0.7610   -1.4830 C   0  0  0  0  0  0  0  0  0  0  0  0
    9.0880   -1.1950   -0.5840 C   0  0  0  0  0  0  0  0  0  0  0  0
    8.9010   -1.3140    0.8300 N   0  0  0  0  0  0  0  0  0  0  0  0
   10.2030   -1.4600   -1.1100 O   0  0  0  0  0  0  0  0  0  0  0  0
    4.4280    0.1270    0.9440 C   0  0  0  0  0  0  0  0  0  0  0  0
    3.3220    0.3630    1.7100 N   0  0  0  0  0  0  0  0  0  0  0  0
   -1.0890    0.2150    1.1910 C   0  0  0  0  0  0  0  0  0  0  0  0
   -2.2970    0.5540    0.5660 C   0  0  0  0  0  0  0  0  0  0  0  0
   -3.3060   -0.3800    0.4980 C   0  0  0  0  0  0  0  0  0  0  0  0
   -4.5490   -0.1170   -0.1140 C   0  0  0  0  0  0  0  0  0  0  0  0
   -5.5030   -1.2070   -0.2370 C   0  0  0  0  0  0  0  0  0  0  0  0
   -6.4470   -1.3420   -1.1220 C   0  0  0  0  0  0  0  0  0  0  0  0
   -7.4190   -2.4750   -1.2180 C   0  0  0  0  0  0  0  0  0  0  0  0
   -7.2840   -3.4200   -0.2110 O   0  0  0  0  0  0  0  0  0  0  0  0
   -6.2890   -3.2970    0.7430 C   0  0  0  0  0  0  0  0  0  0  0  0
   -5.4360   -2.2960    0.7810 C   0  0  0  0  0  0  0  0  0  0  0  0
  1  2  1  0
  2  3  2  0
  2 26  1  0
  3  4  1  0
  4  5  2  0
  4 24  1  0
  5  6  1  0
  6  7  1  0
  6  8  2  0
  8  9  1  0
  8 23  1  0
  9 10  2  3
 10 11  1  0
 10 22  1  0
 11 12  2  0
 12 13  1  0
 13 14  1  0
 13 21  2  0
 14 15  2  0
 14 16  1  0
 16 17  1  0
 17 18  1  0
 18 19  1  0
 18 20  2  0
 21 22  1  0
 23 24  2  0
 24 25  1  0
 25 26  2  0
 26 27  1  0
 27 28  2  0
 27 32  1  0
 28 29  1  0
 29 30  1  0
 30 31  1  0
 31 32  2  0
M  END
