
     RDKit          3D

 32 33  0  0  0  0  0  0  0  0999 V2000
   -5.3490    3.0670   -0.6140 C   0  0  0  0  0  0  0  0  0  0  0  0
   -4.3340    2.2600    0.1450 C   0  0  0  0  0  0  0  0  0  0  0  0
   -4.4240    2.2260    1.3980 O   0  0  0  0  0  0  0  0  0  0  0  0
   -3.3030    1.5540   -0.4880 N   0  0  0  0  0  0  0  0  0  0  0  0
   -2.2900    0.7480    0.2020 C   0  0  2  0  0  0  0  0  0  0  0  0
   -1.0800    1.7310    0.2770 C   0  0  1  0  0  0  0  0  0  0  0  0
   -0.1750    1.3320    1.2250 O   0  0  0  0  0  0  0  0  0  0  0  0
   -0.4770    1.8220   -1.1090 C   0  0  0  0  0  0  0  0  0  0  0  0
    0.2240    0.4510   -1.2940 C   0  0  2  0  0  0  0  0  0  0  0  0
    1.4700    0.6280   -0.7050 O   0  0  0  0  0  0  0  0  0  0  0  0
    2.2690   -0.4750   -0.6580 C   0  0  0  0  0  0  0  0  0  0  0  0
    3.5730   -0.0600    0.0200 C   0  0  1  0  0  0  0  0  0  0  0  0
    3.3390    0.4060    1.3030 O   0  0  0  0  0  0  0  0  0  0  0  0
    4.4070    1.1730    1.7150 C   0  0  1  0  0  0  0  0  0  0  0  0
    4.3020    1.5690    3.0440 O   0  0  0  0  0  0  0  0  0  0  0  0
    5.6930    0.4060    1.5590 C   0  0  2  0  0  0  0  0  0  0  0  0
    6.3930    0.9260    0.4690 O   0  0  0  0  0  0  0  0  0  0  0  0
    5.4430   -1.0630    1.3320 C   0  0  1  0  0  0  0  0  0  0  0  0
    4.9330   -1.6660    2.4780 O   0  0  0  0  0  0  0  0  0  0  0  0
    4.5010   -1.2600    0.1590 C   0  0  1  0  0  0  0  0  0  0  0  0
    3.6850   -2.3630    0.4030 O   0  0  0  0  0  0  0  0  0  0  0  0
    0.3060    0.1540   -2.7310 C   0  0  0  0  0  0  0  0  0  0  0  0
    1.4360    0.0990   -3.3140 O   0  0  0  0  0  0  0  0  0  0  0  0
   -0.7800   -0.0850   -3.5570 O   0  0  0  0  0  0  0  0  0  0  0  0
   -0.4280   -0.5110   -0.5700 O   0  0  0  0  0  0  0  0  0  0  0  0
   -1.8480   -0.4050   -0.6300 C   0  0  1  0  0  0  0  0  0  0  0  0
   -2.3220   -1.7630   -0.2070 C   0  0  2  0  0  0  0  0  0  0  0  0
   -1.6890   -2.6450   -1.1640 O   0  0  0  0  0  0  0  0  0  0  0  0
   -3.7840   -2.0150   -0.2660 C   0  0  2  0  0  0  0  0  0  0  0  0
   -4.4080   -1.7500   -1.4540 O   0  0  0  0  0  0  0  0  0  0  0  0
   -4.4880   -1.5340    0.9640 C   0  0  0  0  0  0  0  0  0  0  0  0
   -5.7610   -2.1490    1.0870 O   0  0  0  0  0  0  0  0  0  0  0  0
  1  2  1  0
  2  3  2  0
  2  4  1  0
  5  4  1  6
  5  6  1  0
  5 26  1  0
  6  7  1  1
  6  8  1  0
  8  9  1  0
  9 10  1  1
  9 22  1  0
  9 25  1  0
 10 11  1  0
 12 11  1  1
 12 13  1  0
 12 20  1  0
 13 14  1  0
 14 15  1  1
 14 16  1  0
 16 17  1  6
 16 18  1  0
 18 19  1  1
 18 20  1  0
 20 21  1  1
 22 23  2  0
 22 24  1  0
 26 25  1  1
 26 27  1  0
 27 28  1  6
 27 29  1  0
 29 30  1  6
 29 31  1  0
 31 32  1  0
M  END
