
     RDKit          3D

 32 36  0  0  0  0  0  0  0  0999 V2000
    9.0730    1.4410   -0.6180 C   0  0  0  0  0  0  0  0  0  0  0  0
    7.7980    1.8010    0.1070 C   0  0  0  0  0  0  0  0  0  0  0  0
    6.8780    0.6310    0.2840 C   0  0  2  0  0  0  0  0  0  0  0  0
    6.4540    0.0250   -1.0380 C   0  0  0  0  0  0  0  0  0  0  0  0
    5.0380   -0.3690   -0.8430 C   0  0  0  0  0  0  0  0  0  0  0  0
    4.1940   -1.2320   -1.5400 C   0  0  0  0  0  0  0  0  0  0  0  0
    2.8820   -1.4650   -1.1880 C   0  0  0  0  0  0  0  0  0  0  0  0
    2.4000   -0.8000   -0.0830 C   0  0  0  0  0  0  0  0  0  0  0  0
    3.2140    0.0540    0.6180 C   0  0  0  0  0  0  0  0  0  0  0  0
    4.5490    0.2910    0.2580 C   0  0  0  0  0  0  0  0  0  0  0  0
    5.5820    1.1720    0.8850 C   0  0  0  0  0  0  0  0  0  0  0  0
    0.9870   -1.0820    0.2570 C   0  0  1  0  0  0  0  0  0  0  0  0
    0.8680   -2.5930    0.1680 C   0  0  0  0  0  0  0  0  0  0  0  0
    1.0610   -3.0710   -1.2410 C   0  0  0  0  0  0  0  0  0  0  0  0
    2.0690   -2.3460   -1.9240 O   0  0  0  0  0  0  0  0  0  0  0  0
    0.4950   -0.5230    1.5340 C   0  0  0  0  0  0  0  0  0  0  0  0
   -0.1230    0.7790    1.0860 C   0  0  0  0  0  0  0  0  0  0  0  0
   -0.9130    0.4240   -0.1050 C   0  0  2  0  0  0  0  0  0  0  0  0
   -0.9490    1.6900   -0.9630 C   0  0  0  0  0  0  0  0  0  0  0  0
   -2.1990   -0.2390    0.0100 C   0  0  0  0  0  0  0  0  0  0  0  0
   -3.3620    0.3480    0.7040 C   0  0  2  0  0  0  0  0  0  0  0  0
   -3.0250    0.5930    2.1520 C   0  0  0  0  0  0  0  0  0  0  0  0
   -4.4720   -0.6870    0.6890 C   0  0  0  0  0  0  0  0  0  0  0  0
   -5.8370   -0.2350    0.4140 C   0  0  1  0  0  0  0  0  0  0  0  0
   -6.7720   -1.3560    0.9290 C   0  0  0  0  0  0  0  0  0  0  0  0
   -6.3200    1.0230    1.0090 C   0  0  0  0  0  0  0  0  0  0  0  0
   -6.1820   -0.1970   -1.0830 C   0  0  0  0  0  0  0  0  0  0  0  0
   -5.1920    0.5310   -1.9050 C   0  0  0  0  0  0  0  0  0  0  0  0
   -4.5290    1.5970   -1.2240 N   0  0  0  0  0  0  0  0  0  0  0  0
   -3.8810    1.5790    0.0460 C   0  0  0  0  0  0  0  0  0  0  0  0
   -3.7430    2.6840    0.6430 O   0  0  0  0  0  0  0  0  0  0  0  0
    0.0590   -0.5030   -0.8090 C   0  0  0  0  0  0  0  0  0  0  0  0
  1  2  1  0
  3  2  1  6
  3  4  1  0
  3 11  1  0
  4  5  1  0
  5  6  2  0
  5 10  1  0
  6  7  1  0
  7  8  2  0
  7 15  1  0
  8  9  1  0
  8 12  1  0
  9 10  2  0
 10 11  1  0
 12 13  1  1
 12 16  1  0
 12 32  1  0
 13 14  1  0
 14 15  1  0
 16 17  1  0
 17 18  1  0
 18 19  1  6
 18 20  1  0
 18 32  1  0
 20 21  1  0
 21 22  1  1
 21 23  1  0
 21 30  1  0
 23 24  1  0
 24 25  1  1
 24 26  1  0
 24 27  1  0
 27 28  1  0
 28 29  1  0
 29 30  1  0
 30 31  2  0
M  END
