
     RDKit          3D

 32 35  0  0  0  0  0  0  0  0999 V2000
    7.4650   -2.3980   -0.6520 C   0  0  0  0  0  0  0  0  0  0  0  0
    6.6410   -1.5460   -1.1890 C   0  0  0  0  0  0  0  0  0  0  0  0
    5.9660   -2.0210   -2.4240 C   0  0  0  0  0  0  0  0  0  0  0  0
    4.5410   -2.1770   -2.0960 C   0  0  0  0  0  0  0  0  0  0  0  0
    3.8260   -1.4120   -1.2850 C   0  0  0  0  0  0  0  0  0  0  0  0
    2.3690   -1.7700   -1.1010 C   0  0  0  0  0  0  0  0  0  0  0  0
    1.7800   -0.5620   -0.5730 N   0  0  0  0  0  0  0  0  0  0  0  0
    0.4650   -0.4650   -0.0470 C   0  0  0  0  0  0  0  0  0  0  0  0
   -0.2490   -1.4870   -0.0310 O   0  0  0  0  0  0  0  0  0  0  0  0
   -0.0320    0.8220    0.4680 C   0  0  0  0  0  0  0  0  0  0  0  0
   -1.4280    0.7690    1.0500 C   0  0  1  0  0  0  0  0  0  0  0  0
   -1.5440   -0.1710    2.2200 C   0  0  0  0  0  0  0  0  0  0  0  0
   -1.9460    2.1450    1.3860 C   0  0  0  0  0  0  0  0  0  0  0  0
   -2.5760    1.3690    0.3280 C   0  0  1  0  0  0  0  0  0  0  0  0
   -2.1790    1.6290   -1.1500 C   0  0  0  0  0  0  0  0  0  0  0  0
   -3.9840    0.9300    0.4760 C   0  0  1  0  0  0  0  0  0  0  0  0
   -5.0150    1.8180   -0.1590 C   0  0  1  0  0  0  0  0  0  0  0  0
   -4.5740    3.1620   -0.5940 C   0  0  0  0  0  0  0  0  0  0  0  0
   -5.7510    1.1430   -1.2880 C   0  0  0  0  0  0  0  0  0  0  0  0
   -6.4820   -0.0980   -0.8160 C   0  0  0  0  0  0  0  0  0  0  0  0
   -5.5580   -0.9870   -0.0120 C   0  0  2  0  0  0  0  0  0  0  0  0
   -6.1170   -1.1890    1.3480 C   0  0  0  0  0  0  0  0  0  0  0  0
   -5.3160   -2.0590    2.2560 C   0  0  0  0  0  0  0  0  0  0  0  0
   -4.1580   -0.4770   -0.0840 C   0  0  2  0  0  0  0  0  0  0  0  0
   -3.2790   -1.3770    0.4370 O   0  0  0  0  0  0  0  0  0  0  0  0
    2.7320    0.5340   -0.6610 C   0  0  0  0  0  0  0  0  0  0  0  0
    4.0400   -0.2480   -0.4570 C   0  0  1  0  0  0  0  0  0  0  0  0
    3.9930   -0.7120    1.0070 C   0  0  0  0  0  0  0  0  0  0  0  0
    5.2270    0.5850   -0.6230 C   0  0  0  0  0  0  0  0  0  0  0  0
    6.4680   -0.2620   -0.5520 C   0  0  0  0  0  0  0  0  0  0  0  0
    7.4770    0.2100    0.1230 C   0  0  0  0  0  0  0  0  0  0  0  0
    7.3870    1.5260    0.8150 C   0  0  0  0  0  0  0  0  0  0  0  0
  1  2  2  0
  2  3  1  0
  2 30  1  0
  3  4  1  0
  4  5  2  0
  5  6  1  0
  5 27  1  0
  6  7  1  0
  7  8  1  0
  7 26  1  0
  8  9  2  0
  8 10  1  0
 10 11  1  0
 11 12  1  1
 11 13  1  0
 11 14  1  0
 13 14  1  0
 14 15  1  6
 14 16  1  0
 16 17  1  6
 16 24  1  0
 17 18  1  6
 17 19  1  0
 19 20  1  0
 20 21  1  0
 21 22  1  1
 21 24  1  0
 22 23  1  0
 24 25  1  1
 26 27  1  0
 27 28  1  1
 27 29  1  0
 29 30  1  0
 30 31  2  3
 31 32  1  0
M  END
