
     RDKit          3D

 32 36  0  0  0  0  0  0  0  0999 V2000
    8.7140    1.9690   -0.4060 C   0  0  0  0  0  0  0  0  0  0  0  0
    7.8130    0.8820   -0.4750 O   0  0  0  0  0  0  0  0  0  0  0  0
    7.3020    0.3410    0.7010 C   0  0  0  0  0  0  0  0  0  0  0  0
    7.6740    0.8560    1.7840 O   0  0  0  0  0  0  0  0  0  0  0  0
    6.3540   -0.8010    0.7000 C   0  0  2  0  0  0  0  0  0  0  0  0
    6.9730   -1.9980    0.0360 C   0  0  0  0  0  0  0  0  0  0  0  0
    6.4240   -2.1030   -1.3640 C   0  0  0  0  0  0  0  0  0  0  0  0
    4.9310   -2.2920   -1.3710 C   0  0  0  0  0  0  0  0  0  0  0  0
    4.2600   -1.4620   -0.3820 N   0  0  0  0  0  0  0  0  0  0  0  0
    2.9350   -1.1220   -0.7840 C   0  0  0  0  0  0  0  0  0  0  0  0
    2.2280   -0.3000    0.2340 C   0  0  0  0  0  0  0  0  0  0  0  0
    0.8150    0.0310   -0.2250 C   0  0  1  0  0  0  0  0  0  0  0  0
   -0.0020   -1.1990   -0.4560 C   0  0  0  0  0  0  0  0  0  0  0  0
   -1.3360   -0.9920    0.2720 C   0  0  0  0  0  0  0  0  0  0  0  0
   -1.3810    0.5240    0.4380 C   0  0  1  0  0  0  0  0  0  0  0  0
   -2.3620    0.9490    1.4900 C   0  0  1  0  0  0  0  0  0  0  0  0
   -2.3520    2.4470    1.5960 C   0  0  0  0  0  0  0  0  0  0  0  0
   -2.7970    3.1020    0.3220 C   0  0  0  0  0  0  0  0  0  0  0  0
   -4.2290    2.7970    0.0020 C   0  0  0  0  0  0  0  0  0  0  0  0
   -4.5590    1.3400    0.2120 C   0  0  0  0  0  0  0  0  0  0  0  0
   -5.7120    0.8920   -0.2930 C   0  0  0  0  0  0  0  0  0  0  0  0
   -6.6310    1.7760   -1.0060 C   0  0  0  0  0  0  0  0  0  0  0  0
   -5.9430   -0.5580   -0.2450 C   0  0  2  0  0  0  0  0  0  0  0  0
   -5.0880   -1.1590   -1.4240 C   0  0  0  0  0  0  0  0  0  0  0  0
   -7.3050   -1.0170   -0.3740 C   0  0  0  0  0  0  0  0  0  0  0  0
   -7.5630   -1.8050    0.6840 C   0  0  0  0  0  0  0  0  0  0  0  0
   -6.3820   -1.8770    1.5420 C   0  0  0  0  0  0  0  0  0  0  0  0
   -5.4430   -1.1460    1.0080 C   0  0  0  0  0  0  0  0  0  0  0  0
   -4.0910   -0.7190    1.4040 C   0  0  0  0  0  0  0  0  0  0  0  0
   -3.7110    0.5260    1.0720 C   0  0  0  0  0  0  0  0  0  0  0  0
    0.0540    0.7760    0.8480 C   0  0  0  0  0  0  0  0  0  0  0  0
    5.1310   -0.3710   -0.0940 C   0  0  0  0  0  0  0  0  0  0  0  0
  1  2  1  0
  2  3  1  0
  3  4  2  0
  5  3  1  6
  5  6  1  0
  5 32  1  0
  6  7  1  0
  7  8  1  0
  8  9  1  0
  9 10  1  0
  9 32  1  0
 10 11  1  0
 12 11  1  1
 12 13  1  0
 12 31  1  0
 13 14  1  0
 15 14  1  1
 15 16  1  0
 15 31  1  0
 16 17  1  6
 16 30  1  0
 17 18  1  0
 18 19  1  0
 19 20  1  0
 20 21  2  0
 20 30  1  0
 21 22  1  0
 21 23  1  0
 23 24  1  6
 23 25  1  0
 23 28  1  0
 25 26  2  0
 26 27  1  0
 27 28  2  0
 28 29  1  0
 29 30  2  0
M  END
