
     RDKit          3D

 26 28  0  0  0  0  0  0  0  0999 V2000
   -4.9840   -0.0340    2.4610 C   0  0  0  0  0  0  0  0  0  0  0  0
   -5.3690    1.1040    1.5350 C   0  0  0  0  0  0  0  0  0  0  0  0
   -5.2000    0.6650    0.1120 C   0  0  0  0  0  0  0  0  0  0  0  0
   -6.1530    0.3290   -0.6990 O   0  0  0  0  0  0  0  0  0  0  0  0
   -5.6880   -0.0020   -1.8600 N   0  0  0  0  0  0  0  0  0  0  0  0
   -4.3220    0.1060   -1.8720 C   0  0  0  0  0  0  0  0  0  0  0  0
   -3.4280   -0.1860   -3.0150 C   0  0  0  0  0  0  0  0  0  0  0  0
   -3.9990    0.5350   -0.6070 C   0  0  0  0  0  0  0  0  0  0  0  0
   -2.7290    0.8460    0.0280 C   0  0  0  0  0  0  0  0  0  0  0  0
   -1.5270    0.7170   -0.6930 N   0  0  0  0  0  0  0  0  0  0  0  0
   -0.7930   -0.4980   -0.4380 C   0  0  2  0  0  0  0  0  0  0  0  0
   -1.4500   -1.3680    0.6070 C   0  0  0  0  0  0  0  0  0  0  0  0
    0.6000   -0.2620   -0.0260 C   0  0  0  0  0  0  0  0  0  0  0  0
    1.2140    0.5890    0.8210 C   0  0  0  0  0  0  0  0  0  0  0  0
    2.5280    0.4720    0.9130 N   0  0  0  0  0  0  0  0  0  0  0  0
    3.2240   -0.2550    0.3720 C   0  0  0  0  0  0  0  0  0  0  0  0
    4.6740   -0.7090    0.1830 C   0  0  1  0  0  0  0  0  0  0  0  0
    4.9070   -1.8400    0.9640 O   0  0  0  0  0  0  0  0  0  0  0  0
    4.9890   -0.9150   -1.2290 C   0  0  0  0  0  0  0  0  0  0  0  0
    4.2310   -1.5660   -1.9830 O   0  0  0  0  0  0  0  0  0  0  0  0
    6.1800   -0.3710   -1.7880 N   0  0  0  0  0  0  0  0  0  0  0  0
    6.7700    0.7330   -1.2350 O   0  0  0  0  0  0  0  0  0  0  0  0
    5.9180    1.3300   -0.3690 N   0  0  0  0  0  0  0  0  0  0  0  0
    5.4910    0.4510    0.6790 C   0  0  2  0  0  0  0  0  0  0  0  0
    6.6800   -0.0950    1.3290 N   0  0  0  0  0  0  0  0  0  0  0  0
    1.9460   -1.1970   -0.6540 S   0  0  0  0  0  0  0  0  0  0  0  0
  1  2  1  0
  2  3  1  0
  3  4  1  0
  3  8  2  0
  4  5  1  0
  5  6  2  0
  6  7  1  0
  6  8  1  0
  8  9  1  0
  9 10  1  0
 10 11  1  0
 11 12  1  1
 11 13  1  0
 13 14  2  0
 13 26  1  0
 14 15  1  0
 15 16  2  0
 16 17  1  0
 16 26  1  0
 17 18  1  1
 17 19  1  0
 17 24  1  0
 19 20  2  0
 19 21  1  0
 21 22  1  0
 22 23  1  0
 23 24  1  0
 24 25  1  6
M  CHG  1  10   1
M  END
