
     RDKit          3D

 27 29  0  0  0  0  0  0  0  0999 V2000
    3.4140    2.2470   -2.7370 C   0  0  0  0  0  0  0  0  0  0  0  0
    2.9520    1.4910   -1.6360 O   0  0  0  0  0  0  0  0  0  0  0  0
    3.8460    1.1660   -0.6230 C   0  0  0  0  0  0  0  0  0  0  0  0
    5.1230    1.5690   -0.6990 N   0  0  0  0  0  0  0  0  0  0  0  0
    6.0120    1.2770    0.2540 C   0  0  0  0  0  0  0  0  0  0  0  0
    7.3440    1.7000    0.1670 O   0  0  0  0  0  0  0  0  0  0  0  0
    5.5640    0.5420    1.3220 C   0  0  0  0  0  0  0  0  0  0  0  0
    4.2510    0.0960    1.4580 C   0  0  0  0  0  0  0  0  0  0  0  0
    3.3600    0.4120    0.4610 C   0  0  0  0  0  0  0  0  0  0  0  0
    2.0010    0.0460    0.4340 N   0  0  0  0  0  0  0  0  0  0  0  0
    1.3220   -0.6950    1.4010 C   0  0  0  0  0  0  0  0  0  0  0  0
    1.9230   -1.1090    2.4220 O   0  0  0  0  0  0  0  0  0  0  0  0
   -0.1170   -1.0370    1.2930 C   0  0  1  0  0  0  0  0  0  0  0  0
   -0.9460   -0.5260    2.4530 C   0  0  0  0  0  0  0  0  0  0  0  0
   -2.3330   -0.8850    1.9610 C   0  0  0  0  0  0  0  0  0  0  0  0
   -2.2350   -0.5630    0.4960 C   0  0  2  0  0  0  0  0  0  0  0  0
   -2.8280    0.7460    0.2240 C   0  0  0  0  0  0  0  0  0  0  0  0
   -4.1840    1.1000    0.4430 N   0  0  0  0  0  0  0  0  0  0  0  0
   -2.1060    1.6880   -0.2520 O   0  0  0  0  0  0  0  0  0  0  0  0
   -2.8800   -1.6630   -0.3560 C   0  0  1  0  0  0  0  0  0  0  0  0
   -4.3150   -1.8680   -0.0530 C   0  0  0  0  0  0  0  0  0  0  0  0
   -5.4280   -1.1300   -1.2820 S   0  0  0  0  0  0  0  0  0  0  0  0
   -4.5020   -0.2220   -2.4510 N   0  0  0  0  0  0  0  0  0  0  0  0
   -3.1450   -0.5720   -2.6330 C   0  0  0  0  0  0  0  0  0  0  0  0
   -2.5300   -0.0680   -3.6150 O   0  0  0  0  0  0  0  0  0  0  0  0
   -2.5220   -1.4680   -1.7200 N   0  0  0  0  0  0  0  0  0  0  0  0
   -0.7990   -0.4910    0.1700 N   0  0  0  0  0  0  0  0  0  0  0  0
  1  2  1  0
  2  3  1  0
  3  4  2  0
  3  9  1  0
  4  5  1  0
  5  6  1  0
  5  7  2  0
  7  8  1  0
  8  9  2  0
  9 10  1  0
 10 11  1  0
 11 12  2  0
 13 11  1  1
 13 14  1  0
 13 27  1  0
 14 15  1  0
 15 16  1  0
 16 17  1  1
 16 20  1  0
 16 27  1  0
 17 18  1  0
 17 19  2  0
 20 21  1  6
 20 26  1  0
 21 22  1  0
 22 23  1  0
 23 24  1  0
 24 25  2  0
 24 26  1  0
M  CHG  1  27   1
M  END
