
     RDKit          3D

 25 27  0  0  0  0  0  0  0  0999 V2000
    6.3790   -1.2790   -0.3070 C   0  0  0  0  0  0  0  0  0  0  0  0
    5.4490   -1.8020   -1.2060 O   0  0  0  0  0  0  0  0  0  0  0  0
    4.2830   -1.0460   -1.2630 C   0  0  0  0  0  0  0  0  0  0  0  0
    3.5640   -0.9900    0.0280 C   0  0  0  0  0  0  0  0  0  0  0  0
    2.3740   -0.1870   -0.0100 N   0  0  0  0  0  0  0  0  0  0  0  0
    2.2670    1.1770    0.4770 C   0  0  0  0  0  0  0  0  0  0  0  0
    0.7830    1.3240    0.7210 C   0  0  0  0  0  0  0  0  0  0  0  0
    0.1230    2.2970    1.3850 N   0  0  0  0  0  0  0  0  0  0  0  0
   -1.2160    2.4210    1.4010 C   0  0  0  0  0  0  0  0  0  0  0  0
   -1.9920    3.4070    2.1560 C   0  0  0  0  0  0  0  0  0  0  0  0
   -1.8800    1.4390    0.6550 C   0  0  0  0  0  0  0  0  0  0  0  0
   -3.3840    1.6790    0.4830 C   0  0  0  0  0  0  0  0  0  0  0  0
   -3.4390    1.8100   -1.0160 N   0  0  0  0  0  0  0  0  0  0  0  0
   -1.3030    0.4220   -0.0110 C   0  0  0  0  0  0  0  0  0  0  0  0
   -2.0440   -0.7650   -0.4120 C   0  0  0  0  0  0  0  0  0  0  0  0
   -2.7780   -1.0400   -1.5050 C   0  0  0  0  0  0  0  0  0  0  0  0
   -3.4440   -2.2870   -1.5830 C   0  0  0  0  0  0  0  0  0  0  0  0
   -3.3390   -3.2100   -0.5680 C   0  0  0  0  0  0  0  0  0  0  0  0
   -4.1540   -4.7510   -0.6530 Cl  0  0  0  0  0  0  0  0  0  0  0  0
   -2.5800   -2.9440    0.5490 C   0  0  0  0  0  0  0  0  0  0  0  0
   -1.9660   -1.7560    0.5940 C   0  0  0  0  0  0  0  0  0  0  0  0
   -0.9410   -1.4390    2.0210 Cl  0  0  0  0  0  0  0  0  0  0  0  0
    0.0900    0.3670    0.0220 C   0  0  0  0  0  0  0  0  0  0  0  0
    1.1140   -0.5860   -0.4410 C   0  0  0  0  0  0  0  0  0  0  0  0
    0.8500   -1.5830   -1.1170 O   0  0  0  0  0  0  0  0  0  0  0  0
  1  2  1  0
  2  3  1  0
  3  4  1  0
  4  5  1  0
  5  6  1  0
  5 24  1  0
  6  7  1  0
  7  8  2  0
  7 23  1  0
  8  9  1  0
  9 10  1  0
  9 11  2  0
 11 12  1  0
 11 14  1  0
 12 13  1  0
 14 15  1  0
 14 23  2  0
 15 16  2  0
 15 21  1  0
 16 17  1  0
 17 18  2  0
 18 19  1  0
 18 20  1  0
 20 21  2  0
 21 22  1  0
 23 24  1  0
 24 25  2  0
M  CHG  1  13   1
M  END
