
     RDKit          3D

  9  8  0  0  0  0  0  0  0  0999 V2000
    3.2440   -1.2120   -0.5340 O   0  0  0  0  0  0  0  0  0  0  0  0
    2.5760   -0.1370   -0.0030 C   0  0  0  0  0  0  0  0  0  0  0  0
    1.0720   -0.1850   -0.3160 C   0  0  0  0  0  0  0  0  0  0  0  0
    0.4960    1.0480    0.3270 C   0  0  0  0  0  0  0  0  0  0  0  0
   -0.8510    1.1640    0.1500 O   0  0  0  0  0  0  0  0  0  0  0  0
   -1.5260    0.1130    0.7210 C   0  0  1  0  0  0  0  0  0  0  0  0
   -2.3810    0.5860    1.7420 O   0  0  0  0  0  0  0  0  0  0  0  0
   -2.4090   -0.5310   -0.3570 C   0  0  0  0  0  0  0  0  0  0  0  0
   -1.6600   -1.0060   -1.4260 O   0  0  0  0  0  0  0  0  0  0  0  0
  1  2  1  0
  2  3  1  0
  3  4  1  0
  4  5  1  0
  5  6  1  0
  6  7  1  1
  6  8  1  0
  8  9  1  0
M  END
