
     RDKit          3D

 10  9  0  0  0  0  0  0  0  0999 V2000
    3.4090   -0.5440    1.9000 O   0  0  0  0  0  0  0  0  0  0  0  0
    2.7990   -0.5240    0.6670 C   0  0  0  0  0  0  0  0  0  0  0  0
    1.5910    0.1640    0.6680 O   0  0  0  0  0  0  0  0  0  0  0  0
    1.0630    0.1280   -0.5990 C   0  0  2  0  0  0  0  0  0  0  0  0
    0.9810    1.4270   -1.1030 O   0  0  0  0  0  0  0  0  0  0  0  0
   -0.3140   -0.4930   -0.6480 C   0  0  0  0  0  0  0  0  0  0  0  0
   -1.2960    0.2640    0.1990 C   0  0  1  0  0  0  0  0  0  0  0  0
   -1.4230    1.5850   -0.2250 O   0  0  0  0  0  0  0  0  0  0  0  0
   -2.6410   -0.4230    0.1070 C   0  0  0  0  0  0  0  0  0  0  0  0
   -3.6040    0.1980    0.8990 O   0  0  0  0  0  0  0  0  0  0  0  0
  1  2  1  0
  2  3  1  0
  3  4  1  0
  4  5  1  1
  4  6  1  0
  6  7  1  0
  7  8  1  6
  7  9  1  0
  9 10  1  0
M  END
