
     RDKit          3D

 26 27  0  0  0  0  0  0  0  0999 V2000
    1.3510   -0.0250   -2.3890 C   0  0  0  0  0  0  0  0  0  0  0  0
    0.1190    0.0090   -1.5730 C   0  0  1  0  0  0  0  0  0  0  0  0
   -0.1670   -1.3640   -1.0730 N   0  0  0  0  0  0  0  0  0  0  0  0
    0.0320    0.9540   -0.4590 C   0  0  0  0  0  0  0  0  0  0  0  0
    1.0210    1.6410    0.0060 C   0  0  0  0  0  0  0  0  0  0  0  0
    2.3650    1.7300   -0.3290 N   0  0  0  0  0  0  0  0  0  0  0  0
    2.8610    2.8550   -1.1160 C   0  0  0  0  0  0  0  0  0  0  0  0
    3.3470    0.7880    0.0860 N   0  0  0  0  0  0  0  0  0  0  0  0
    4.6220    0.9230   -0.2740 C   0  0  0  0  0  0  0  0  0  0  0  0
    5.5520    0.0050    0.1380 C   0  0  0  0  0  0  0  0  0  0  0  0
    5.1750   -1.0320    0.9050 N   0  0  0  0  0  0  0  0  0  0  0  0
    3.8920   -1.2020    1.2890 C   0  0  0  0  0  0  0  0  0  0  0  0
    3.5460   -2.3050    2.0940 N   0  0  0  0  0  0  0  0  0  0  0  0
    2.9800   -0.2580    0.8570 C   0  0  0  0  0  0  0  0  0  0  0  0
    1.7740   -0.4050    1.2100 O   0  0  0  0  0  0  0  0  0  0  0  0
   -1.3210    1.0690    0.1930 C   0  0  0  0  0  0  0  0  0  0  0  0
   -1.3900    1.8370    1.1730 O   0  0  0  0  0  0  0  0  0  0  0  0
   -2.4450    0.3760   -0.2470 N   0  0  0  0  0  0  0  0  0  0  0  0
   -3.7460    0.5080    0.4110 C   0  0  1  0  0  0  0  0  0  0  0  0
   -4.7340    0.9240   -0.6800 C   0  0  0  0  0  0  0  0  0  0  0  0
   -4.8390   -0.6570   -1.6140 S   0  0  0  0  0  0  0  0  0  0  0  0
   -4.2240   -1.7730   -0.2880 C   0  0  0  0  0  0  0  0  0  0  0  0
   -4.2600   -0.8260    0.8860 C   0  0  1  0  0  0  0  0  0  0  0  0
   -3.5610   -1.3260    2.0600 C   0  0  0  0  0  0  0  0  0  0  0  0
   -2.9480   -2.4200    2.0130 O   0  0  0  0  0  0  0  0  0  0  0  0
   -3.5440   -0.6260    3.2520 O   0  0  0  0  0  0  0  0  0  0  0  0
  2  1  1  1
  2  3  1  0
  2  4  1  0
  4  5  2  3
  4 16  1  0
  5  6  1  0
  6  7  1  0
  6  8  1  0
  8  9  1  0
  8 14  1  0
  9 10  2  0
 10 11  1  0
 11 12  2  0
 12 13  1  0
 12 14  1  0
 14 15  2  0
 16 17  2  0
 16 18  1  0
 19 18  1  6
 19 20  1  0
 19 23  1  0
 20 21  1  0
 21 22  1  0
 22 23  1  0
 23 24  1  1
 24 25  2  0
 24 26  1  0
M  CHG  1   3   1
M  END
