
     RDKit          3D

  9  8  0  0  0  0  0  0  0  0999 V2000
    2.1260   -0.1310    1.0710 O   0  0  0  0  0  0  0  0  0  0  0  0
    1.5850   -1.1530    0.3170 C   0  0  0  0  0  0  0  0  0  0  0  0
    0.8190   -0.6580   -0.8520 C   0  0  0  0  0  0  0  0  0  0  0  0
   -0.3400    0.2210   -0.5840 C   0  0  2  0  0  0  0  0  0  0  0  0
   -0.9010    0.5580   -1.8400 O   0  0  0  0  0  0  0  0  0  0  0  0
   -0.0500    1.4920    0.1210 C   0  0  0  0  0  0  0  0  0  0  0  0
   -1.2810    2.1780    0.2590 O   0  0  0  0  0  0  0  0  0  0  0  0
   -1.4200   -0.5230    0.1690 C   0  0  0  0  0  0  0  0  0  0  0  0
   -1.0090   -0.9140    1.4220 O   0  0  0  0  0  0  0  0  0  0  0  0
  1  2  1  0
  2  3  1  0
  3  4  1  0
  4  5  1  6
  4  6  1  0
  4  8  1  0
  6  7  1  0
  8  9  1  0
M  END
