
     RDKit          3D

 17 18  0  0  0  0  0  0  0  0999 V2000
   -2.9100   -0.3050    0.8380 C   0  0  0  0  0  0  0  0  0  0  0  0
   -1.8490   -0.4560   -0.2370 C   0  0  2  0  0  0  0  0  0  0  0  0
   -2.4710   -1.2760   -1.3470 C   0  0  0  0  0  0  0  0  0  0  0  0
   -0.6670   -1.1250    0.3760 C   0  0  0  0  0  0  0  0  0  0  0  0
    0.5890   -1.0540   -0.4640 C   0  0  0  0  0  0  0  0  0  0  0  0
    1.3870    0.1530    0.0570 C   0  0  0  0  0  0  0  0  0  0  0  0
    2.7110   -0.0080    0.2930 C   0  0  0  0  0  0  0  0  0  0  0  0
    3.6640   -1.0940    0.1730 C   0  0  0  0  0  0  0  0  0  0  0  0
    3.4000   -2.3940   -0.2920 N   0  0  0  0  0  0  0  0  0  0  0  0
    4.8600   -0.8730    0.5150 O   0  0  0  0  0  0  0  0  0  0  0  0
    3.2120    1.6500    0.8870 S   0  0  0  0  0  0  0  0  0  0  0  0
    1.5990    2.3560    0.7480 C   0  0  0  0  0  0  0  0  0  0  0  0
    1.2550    3.6960    1.0670 N   0  0  0  0  0  0  0  0  0  0  0  0
    0.7940    1.3380    0.2770 C   0  0  0  0  0  0  0  0  0  0  0  0
   -0.6520    1.6940    0.0710 C   0  0  0  0  0  0  0  0  0  0  0  0
   -1.0540    2.7160    0.6800 O   0  0  0  0  0  0  0  0  0  0  0  0
   -1.5770    0.9160   -0.7890 C   0  0  0  0  0  0  0  0  0  0  0  0
  2  1  1  1
  2  3  1  0
  2  4  1  0
  2 17  1  0
  4  5  1  0
  5  6  1  0
  6  7  2  0
  6 14  1  0
  7  8  1  0
  7 11  1  0
  8  9  1  0
  8 10  2  0
 11 12  1  0
 12 13  1  0
 12 14  2  0
 14 15  1  0
 15 16  2  0
 15 17  1  0
M  END
