
     RDKit          3D

 17 18  0  0  0  0  0  0  0  0999 V2000
   -4.4720   -0.9090    1.0470 C   0  0  0  0  0  0  0  0  0  0  0  0
   -3.2040   -0.0730    0.9990 C   0  0  0  0  0  0  0  0  0  0  0  0
   -2.3770   -0.4350   -0.5620 S   0  0  0  0  0  0  0  0  0  0  0  0
   -0.8770    0.4600   -0.7780 C   0  0  0  0  0  0  0  0  0  0  0  0
   -0.8710    1.7000   -1.3770 C   0  0  0  0  0  0  0  0  0  0  0  0
   -2.1250    2.2120   -1.8080 N   0  0  0  0  0  0  0  0  0  0  0  0
    0.3100    2.4200   -1.5540 C   0  0  0  0  0  0  0  0  0  0  0  0
    1.5020    1.8810   -1.1200 C   0  0  0  0  0  0  0  0  0  0  0  0
    1.5110    0.6380   -0.5170 C   0  0  0  0  0  0  0  0  0  0  0  0
    2.6610    0.0370   -0.0590 C   0  0  0  0  0  0  0  0  0  0  0  0
    3.8480    0.7360   -0.2250 O   0  0  0  0  0  0  0  0  0  0  0  0
    2.6360   -1.2070    0.5400 C   0  0  0  0  0  0  0  0  0  0  0  0
    3.9270   -1.8030    1.0150 C   0  0  0  0  0  0  0  0  0  0  0  0
    1.4560   -1.8690    0.6880 C   0  0  0  0  0  0  0  0  0  0  0  0
    1.3970   -3.0200    1.2370 O   0  0  0  0  0  0  0  0  0  0  0  0
    0.3090   -1.2940    0.2430 N   0  0  0  0  0  0  0  0  0  0  0  0
    0.3230   -0.0820   -0.3410 C   0  0  0  0  0  0  0  0  0  0  0  0
  1  2  1  0
  2  3  1  0
  3  4  1  0
  4  5  2  0
  4 17  1  0
  5  6  1  0
  5  7  1  0
  7  8  2  0
  8  9  1  0
  9 10  1  0
  9 17  2  0
 10 11  1  0
 10 12  2  0
 12 13  1  0
 12 14  1  0
 14 15  2  0
 14 16  1  0
 16 17  1  0
M  END
