
     RDKit          3D

 16 17  0  0  0  0  0  0  0  0999 V2000
   -4.3060    0.6400    1.2810 C   0  0  0  0  0  0  0  0  0  0  0  0
   -2.9830    0.4110    0.5980 C   0  0  0  0  0  0  0  0  0  0  0  0
   -2.5570    1.2360   -0.4200 C   0  0  0  0  0  0  0  0  0  0  0  0
   -1.3200    0.9690   -1.0130 C   0  0  0  0  0  0  0  0  0  0  0  0
   -0.5510   -0.0830   -0.5930 C   0  0  0  0  0  0  0  0  0  0  0  0
    0.7750   -0.4180   -1.1820 C   0  0  0  0  0  0  0  0  0  0  0  0
    0.9080   -0.9170   -2.4300 C   0  0  0  0  0  0  0  0  0  0  0  0
    2.1280   -1.1980   -2.9070 C   0  0  0  0  0  0  0  0  0  0  0  0
    3.1800   -0.7470   -1.5490 S   0  0  0  0  0  0  0  0  0  0  0  0
    1.9300   -0.2240   -0.4600 C   0  0  0  0  0  0  0  0  0  0  0  0
    2.1120    0.2850    0.8820 C   0  0  0  0  0  0  0  0  0  0  0  0
    3.3060    0.3970    1.3960 C   0  0  0  0  0  0  0  0  0  0  0  0
    4.4960    0.0290    0.6780 N   0  0  0  0  0  0  0  0  0  0  0  0
   -1.0010   -0.8840    0.4190 C   0  0  0  0  0  0  0  0  0  0  0  0
   -0.3620   -1.8770    0.8730 O   0  0  0  0  0  0  0  0  0  0  0  0
   -2.2150   -0.6170    0.9950 N   0  0  0  0  0  0  0  0  0  0  0  0
  1  2  1  0
  2  3  2  0
  2 16  1  0
  3  4  1  0
  4  5  2  0
  5  6  1  0
  5 14  1  0
  6  7  1  0
  6 10  2  0
  7  8  2  0
  8  9  1  0
  9 10  1  0
 10 11  1  0
 11 12  2  3
 12 13  1  0
 14 15  2  0
 14 16  1  0
M  END
