
     RDKit          3D

 38 42  0  0  0  0  0  0  0  0999 V2000
    7.6350    2.1340   -1.2680 C   0  0  0  0  0  0  0  0  0  0  0  0
    7.5160    1.2230   -0.3230 C   0  0  0  0  0  0  0  0  0  0  0  0
    6.4260    0.2760   -0.1760 C   0  0  0  0  0  0  0  0  0  0  0  0
    6.4650   -0.5960    0.8010 C   0  0  0  0  0  0  0  0  0  0  0  0
    7.5230   -0.7180    1.7870 C   0  0  0  0  0  0  0  0  0  0  0  0
    6.7440   -0.4010    3.3960 Cl  0  0  0  0  0  0  0  0  0  0  0  0
    5.2610    0.2060   -1.1260 C   0  0  0  0  0  0  0  0  0  0  0  0
    4.3870    1.3920   -0.9630 C   0  0  0  0  0  0  0  0  0  0  0  0
    3.7830    1.4530    0.3730 N   0  0  0  0  0  0  0  0  0  0  0  0
    4.3180    2.1290    1.3820 C   0  0  0  0  0  0  0  0  0  0  0  0
    5.3730    2.8220    1.2670 O   0  0  0  0  0  0  0  0  0  0  0  0
    3.7630    2.1210    2.6160 N   0  0  0  0  0  0  0  0  0  0  0  0
    2.6370    1.4370    2.9170 C   0  0  0  0  0  0  0  0  0  0  0  0
    2.1120    1.4400    4.1530 N   0  0  0  0  0  0  0  0  0  0  0  0
    1.0020    0.7460    4.4310 C   0  0  0  0  0  0  0  0  0  0  0  0
    0.4260    0.0390    3.4060 C   0  0  0  0  0  0  0  0  0  0  0  0
    0.8950   -0.0210    2.1050 C   0  0  0  0  0  0  0  0  0  0  0  0
    0.2650   -0.7870    1.0390 C   0  0  0  0  0  0  0  0  0  0  0  0
   -0.9530   -1.4920    1.3890 N   0  0  2  0  0  0  0  0  0  0  0  0
   -1.1030   -2.5440    0.3800 C   0  0  0  0  0  0  0  0  0  0  0  0
   -1.0640   -1.9880   -1.0160 C   0  0  0  0  0  0  0  0  0  0  0  0
   -2.1450   -1.0250   -1.3530 C   0  0  0  0  0  0  0  0  0  0  0  0
   -3.4230   -1.4250   -0.6350 C   0  0  2  0  0  0  0  0  0  0  0  0
   -4.5310   -0.7000   -1.2950 C   0  0  0  0  0  0  0  0  0  0  0  0
   -5.3750   -1.2300   -2.2000 N   0  0  0  0  0  0  0  0  0  0  0  0
   -6.2270   -0.2680   -2.5550 C   0  0  0  0  0  0  0  0  0  0  0  0
   -5.8860    0.8630   -1.8450 C   0  0  0  0  0  0  0  0  0  0  0  0
   -4.8740    0.5520   -1.1130 O   0  0  0  0  0  0  0  0  0  0  0  0
   -6.5280    2.1720   -1.8930 C   0  0  0  0  0  0  0  0  0  0  0  0
   -7.8360    2.1160   -2.3680 O   0  0  0  0  0  0  0  0  0  0  0  0
   -8.3770    0.8890   -1.9720 C   0  0  0  0  0  0  0  0  0  0  0  0
   -8.5100    0.1100   -3.1220 O   0  0  0  0  0  0  0  0  0  0  0  0
   -7.3030   -0.4380   -3.5270 C   0  0  0  0  0  0  0  0  0  0  0  0
   -3.3400   -1.2310    0.8300 C   0  0  0  0  0  0  0  0  0  0  0  0
   -2.0670   -0.5650    1.3110 C   0  0  0  0  0  0  0  0  0  0  0  0
    2.0550    0.7190    1.8710 C   0  0  0  0  0  0  0  0  0  0  0  0
    2.6380    0.7460    0.6340 C   0  0  0  0  0  0  0  0  0  0  0  0
    2.1730    0.1360   -0.3260 O   0  0  0  0  0  0  0  0  0  0  0  0
  1  2  2  0
  2  3  1  0
  3  4  2  3
  3  7  1  0
  4  5  1  0
  5  6  1  0
  7  8  1  0
  8  9  1  0
  9 10  1  0
  9 37  1  0
 10 11  2  0
 10 12  1  0
 12 13  1  0
 13 14  2  0
 13 36  1  0
 14 15  1  0
 15 16  2  0
 16 17  1  0
 17 18  1  0
 17 36  2  0
 19 18  1  6
 19 20  1  0
 19 35  1  0
 20 21  1  0
 21 22  1  0
 22 23  1  0
 23 24  1  6
 23 34  1  0
 24 25  2  0
 24 28  1  0
 25 26  1  0
 26 27  2  0
 26 33  1  0
 27 28  1  0
 27 29  1  0
 29 30  1  0
 30 31  1  0
 31 32  1  0
 32 33  1  0
 34 35  1  0
 36 37  1  0
 37 38  2  0
M  CHG  2  19   1  25   1
M  END
