
     RDKit          3D

 38 42  0  0  0  0  0  0  0  0999 V2000
   -7.3610    0.3700   -0.4150 C   0  0  0  0  0  0  0  0  0  0  0  0
   -6.2860    0.6680    0.5570 C   0  0  0  0  0  0  0  0  0  0  0  0
   -6.5190    1.3460    1.7550 C   0  0  0  0  0  0  0  0  0  0  0  0
   -5.5140    1.6190    2.6540 C   0  0  0  0  0  0  0  0  0  0  0  0
   -4.2330    1.1810    2.3090 C   0  0  0  0  0  0  0  0  0  0  0  0
   -3.9680    0.5080    1.1330 C   0  0  0  0  0  0  0  0  0  0  0  0
   -2.6280    0.0630    0.7420 C   0  0  0  0  0  0  0  0  0  0  0  0
   -1.6100    0.2870    1.6580 O   0  0  0  0  0  0  0  0  0  0  0  0
   -1.6460   -0.3260    2.8980 C   0  0  0  0  0  0  0  0  0  0  0  0
   -2.6110   -1.0850    3.1520 O   0  0  0  0  0  0  0  0  0  0  0  0
   -0.5620   -0.0820    3.8900 C   0  0  0  0  0  0  0  0  0  0  0  0
    0.4150    0.8090    3.3600 O   0  0  0  0  0  0  0  0  0  0  0  0
    1.1310    0.5170    2.2220 C   0  0  0  0  0  0  0  0  0  0  0  0
    0.9270   -0.5770    1.6130 O   0  0  0  0  0  0  0  0  0  0  0  0
    2.1390    1.4700    1.7010 C   0  0  0  0  0  0  0  0  0  0  0  0
    2.7660    0.9600    0.4990 N   0  0  1  0  0  0  0  0  0  0  0  0
    2.6790    1.9490   -0.5860 C   0  0  0  0  0  0  0  0  0  0  0  0
    4.1190    0.6100    0.7670 C   0  0  0  0  0  0  0  0  0  0  0  0
    4.8040    0.6980    1.9170 N   0  0  0  0  0  0  0  0  0  0  0  0
    6.0420    0.2630    1.7160 N   0  0  0  0  0  0  0  0  0  0  0  0
    6.1750   -0.1160    0.4260 C   0  0  0  0  0  0  0  0  0  0  0  0
    4.9770    0.1050   -0.1490 N   0  0  0  0  0  0  0  0  0  0  0  0
    5.1290   -0.2990   -1.5120 C   0  0  0  0  0  0  0  0  0  0  0  0
    4.2200   -0.2440   -2.3790 O   0  0  0  0  0  0  0  0  0  0  0  0
    6.4820   -0.7820   -1.7590 C   0  0  0  0  0  0  0  0  0  0  0  0
    7.1550   -1.2800   -2.8640 C   0  0  0  0  0  0  0  0  0  0  0  0
    8.4830   -1.6730   -2.7920 C   0  0  0  0  0  0  0  0  0  0  0  0
    9.1240   -1.5510   -1.5700 C   0  0  0  0  0  0  0  0  0  0  0  0
    8.4440   -1.0530   -0.4700 C   0  0  0  0  0  0  0  0  0  0  0  0
    7.1260   -0.6620   -0.5350 C   0  0  0  0  0  0  0  0  0  0  0  0
   -5.0050    0.2540    0.2580 C   0  0  0  0  0  0  0  0  0  0  0  0
   -4.7260   -0.4530   -0.9750 C   0  0  0  0  0  0  0  0  0  0  0  0
   -4.9350   -1.8090   -1.0990 C   0  0  0  0  0  0  0  0  0  0  0  0
   -4.6730   -2.4850   -2.2690 C   0  0  0  0  0  0  0  0  0  0  0  0
   -4.2020   -1.8440   -3.3390 N   0  0  0  0  0  0  0  0  0  0  0  0
   -3.9860   -0.5230   -3.2570 C   0  0  0  0  0  0  0  0  0  0  0  0
   -3.3630    0.3540   -4.6580 Cl  0  0  0  0  0  0  0  0  0  0  0  0
   -4.2390    0.1970   -2.0870 C   0  0  0  0  0  0  0  0  0  0  0  0
  1  2  1  0
  2  3  2  0
  2 31  1  0
  3  4  1  0
  4  5  2  0
  5  6  1  0
  6  7  1  0
  6 31  2  0
  7  8  1  0
  8  9  1  0
  9 10  2  0
  9 11  1  0
 11 12  1  0
 12 13  1  0
 13 14  2  0
 13 15  1  0
 15 16  1  0
 16 17  1  6
 16 18  1  0
 18 19  2  0
 18 22  1  0
 19 20  1  0
 20 21  2  0
 21 22  1  0
 21 30  1  0
 22 23  1  0
 23 24  2  0
 23 25  1  0
 25 26  2  0
 25 30  1  0
 26 27  1  0
 27 28  2  0
 28 29  1  0
 29 30  2  0
 31 32  1  0
 32 33  2  0
 32 38  1  0
 33 34  1  0
 34 35  2  0
 35 36  1  0
 36 37  1  0
 36 38  2  0
M  CHG  2  16   1  35   1
M  END
