
     RDKit          3D

 38 41  0  0  0  0  0  0  0  0999 V2000
   -5.7150    2.0950   -1.4610 C   0  0  0  0  0  0  0  0  0  0  0  0
   -4.5130    1.1710   -1.3870 C   0  0  2  0  0  0  0  0  0  0  0  0
   -4.7360   -0.1330   -2.0900 C   0  0  0  0  0  0  0  0  0  0  0  0
   -4.0990    0.9430    0.0390 C   0  0  0  0  0  0  0  0  0  0  0  0
   -2.9740    0.0610    0.1020 N   0  0  0  0  0  0  0  0  0  0  0  0
   -1.7970    0.7760    0.5980 C   0  0  0  0  0  0  0  0  0  0  0  0
   -0.5650    0.2650   -0.1180 C   0  0  1  0  0  0  0  0  0  0  0  0
   -0.7720    0.5280   -1.4780 O   0  0  0  0  0  0  0  0  0  0  0  0
    0.6470    0.9290    0.4210 C   0  0  2  0  0  0  0  0  0  0  0  0
    0.4630    2.4210    0.4950 C   0  0  0  0  0  0  0  0  0  0  0  0
    1.7030    3.0840    1.0400 C   0  0  0  0  0  0  0  0  0  0  0  0
    1.8910    3.3040    2.3730 C   0  0  0  0  0  0  0  0  0  0  0  0
    3.0350    3.9150    2.8660 C   0  0  0  0  0  0  0  0  0  0  0  0
    4.0240    4.3190    1.9860 C   0  0  0  0  0  0  0  0  0  0  0  0
    3.8260    4.0940    0.6440 C   0  0  0  0  0  0  0  0  0  0  0  0
    2.6820    3.4840    0.1580 C   0  0  0  0  0  0  0  0  0  0  0  0
    1.8740    0.5520   -0.2180 N   0  0  0  0  0  0  0  0  0  0  0  0
    2.9440   -0.1170    0.4300 C   0  0  0  0  0  0  0  0  0  0  0  0
    2.7660   -0.3820    1.6600 O   0  0  0  0  0  0  0  0  0  0  0  0
    4.1200   -0.4690   -0.2190 O   0  0  0  0  0  0  0  0  0  0  0  0
    5.1120   -1.1230    0.5010 C   0  0  1  0  0  0  0  0  0  0  0  0
    5.5070   -2.4550   -0.0950 C   0  0  0  0  0  0  0  0  0  0  0  0
    6.8480   -2.6380    0.0990 O   0  0  0  0  0  0  0  0  0  0  0  0
    7.3630   -1.5870    0.8090 C   0  0  1  0  0  0  0  0  0  0  0  0
    8.5790   -1.1270    0.3090 O   0  0  0  0  0  0  0  0  0  0  0  0
    8.2510   -0.6890   -0.9680 C   0  0  0  0  0  0  0  0  0  0  0  0
    6.9040    0.0080   -0.8510 C   0  0  0  0  0  0  0  0  0  0  0  0
    6.4430   -0.4080    0.5120 C   0  0  1  0  0  0  0  0  0  0  0  0
   -3.3050   -1.3300    1.0050 S   0  0  2  0  0  0  0  0  0  0  0  0
   -3.6770   -0.8820    2.4130 O   0  0  0  0  0  0  0  0  0  0  0  0
   -2.1020   -2.2330    1.1400 O   0  0  0  0  0  0  0  0  0  0  0  0
   -4.5840   -2.2880    0.3480 C   0  0  0  0  0  0  0  0  0  0  0  0
   -5.9180   -2.1170    0.7360 C   0  0  0  0  0  0  0  0  0  0  0  0
   -6.9270   -2.8920    0.2060 C   0  0  0  0  0  0  0  0  0  0  0  0
   -6.6720   -3.8670   -0.7240 C   0  0  0  0  0  0  0  0  0  0  0  0
   -7.7060   -4.6740   -1.2770 N   0  0  0  0  0  0  0  0  0  0  0  0
   -5.3610   -4.0540   -1.1210 C   0  0  0  0  0  0  0  0  0  0  0  0
   -4.3490   -3.2780   -0.5920 C   0  0  0  0  0  0  0  0  0  0  0  0
  2  1  1  1
  2  3  1  0
  2  4  1  0
  4  5  1  0
  5  6  1  0
 29  5  1  6
  6  7  1  0
  7  8  1  6
  7  9  1  0
  9 10  1  6
  9 17  1  0
 10 11  1  0
 11 12  2  0
 11 16  1  0
 12 13  1  0
 13 14  2  0
 14 15  1  0
 15 16  2  0
 17 18  1  0
 18 19  2  0
 18 20  1  0
 21 20  1  6
 21 22  1  0
 21 28  1  0
 22 23  1  0
 24 23  1  6
 24 25  1  0
 24 28  1  0
 25 26  1  0
 26 27  1  0
 28 27  1  6
 29 30  2  0
 29 31  2  0
 29 32  1  0
 32 33  2  0
 32 38  1  0
 33 34  1  0
 34 35  2  0
 35 36  1  0
 35 37  1  0
 37 38  2  0
M  END
