
     RDKit          3D

 38 43  0  0  0  0  0  0  0  0999 V2000
   10.2150    1.5660   -0.0960 C   0  0  0  0  0  0  0  0  0  0  0  0
    8.7280    1.5940   -0.4430 C   0  0  0  0  0  0  0  0  0  0  0  0
    8.3920    0.5720   -1.3040 O   0  0  0  0  0  0  0  0  0  0  0  0
    7.0740    0.5470   -1.6580 C   0  0  0  0  0  0  0  0  0  0  0  0
    6.1160    0.3590   -0.5440 C   0  0  0  0  0  0  0  0  0  0  0  0
    6.3260    0.2090    0.7230 O   0  0  0  0  0  0  0  0  0  0  0  0
    5.1980    0.0680    1.4040 C   0  0  0  0  0  0  0  0  0  0  0  0
    5.1450   -0.1090    2.7790 O   0  0  0  0  0  0  0  0  0  0  0  0
    5.0730   -1.4070    3.3620 C   0  0  0  0  0  0  0  0  0  0  0  0
    4.1590    0.1310    0.5030 C   0  0  0  0  0  0  0  0  0  0  0  0
    2.7260    0.0390    0.7660 C   0  0  0  0  0  0  0  0  0  0  0  0
    1.7620    0.0750   -0.1730 N   0  0  0  0  0  0  0  0  0  0  0  0
    0.5400   -0.0380    0.3740 C   0  0  0  0  0  0  0  0  0  0  0  0
   -0.7450   -0.0560   -0.1500 C   0  0  0  0  0  0  0  0  0  0  0  0
   -1.8130   -0.1890    0.7080 C   0  0  0  0  0  0  0  0  0  0  0  0
   -1.5510   -0.2960    2.0210 N   0  0  0  0  0  0  0  0  0  0  0  0
   -0.3240   -0.2820    2.5570 C   0  0  0  0  0  0  0  0  0  0  0  0
    0.7620   -0.1500    1.7220 C   0  0  0  0  0  0  0  0  0  0  0  0
    2.0980   -0.1010    1.9430 N   0  0  0  0  0  0  0  0  0  0  0  0
   -3.1000   -0.1850   -0.0620 C   0  0  2  0  0  0  0  0  0  0  0  0
   -3.7470   -1.4360    0.1990 N   0  0  0  0  0  0  0  0  0  0  0  0
   -5.0710   -1.5480   -0.3140 C   0  0  0  0  0  0  0  0  0  0  0  0
   -5.7550   -0.1860   -0.4250 C   0  0  1  0  0  0  0  0  0  0  0  0
   -7.0780   -0.3670   -0.9440 O   0  0  0  0  0  0  0  0  0  0  0  0
   -7.8830    0.5090   -0.2420 C   0  0  0  0  0  0  0  0  0  0  0  0
   -9.1740    1.0090   -0.4640 C   0  0  0  0  0  0  0  0  0  0  0  0
   -9.7210    1.8880    0.4380 C   0  0  0  0  0  0  0  0  0  0  0  0
   -9.0500    2.3050    1.5630 C   0  0  0  0  0  0  0  0  0  0  0  0
   -7.7840    1.8150    1.7830 C   0  0  0  0  0  0  0  0  0  0  0  0
   -7.2110    0.9170    0.8730 C   0  0  0  0  0  0  0  0  0  0  0  0
   -5.9730    0.3010    0.8820 O   0  0  0  0  0  0  0  0  0  0  0  0
   -2.7010    0.0690   -1.4550 C   0  0  0  0  0  0  0  0  0  0  0  0
   -1.1910    0.0480   -1.5460 C   0  0  2  0  0  0  0  0  0  0  0  0
   -0.7580   -1.0520   -2.3850 N   0  0  2  0  0  0  0  0  0  0  0  0
   -0.6790   -2.2920   -1.6820 C   0  0  0  0  0  0  0  0  0  0  0  0
    0.5420   -0.7330   -2.9310 C   0  0  0  0  0  0  0  0  0  0  0  0
    4.7420    0.3170   -0.7410 C   0  0  0  0  0  0  0  0  0  0  0  0
    3.9220    0.4720   -2.2890 Cl  0  0  0  0  0  0  0  0  0  0  0  0
  1  2  1  0
  2  3  1  0
  3  4  1  0
  4  5  1  0
  5  6  1  0
  5 37  2  0
  6  7  1  0
  7  8  1  0
  7 10  2  0
  8  9  1  0
 10 11  1  0
 10 37  1  0
 11 12  2  0
 11 19  1  0
 12 13  1  0
 13 14  2  0
 13 18  1  0
 14 15  1  0
 14 33  1  0
 15 16  2  0
 15 20  1  0
 16 17  1  0
 17 18  2  0
 18 19  1  0
 20 21  1  6
 20 32  1  0
 21 22  1  0
 23 22  1  1
 23 24  1  0
 23 31  1  0
 24 25  1  0
 25 26  2  0
 25 30  1  0
 26 27  1  0
 27 28  2  0
 28 29  1  0
 29 30  2  0
 30 31  1  0
 33 32  1  1
 33 34  1  0
 34 35  1  1
 34 36  1  0
 37 38  1  0
M  CHG  2  21   1  34   1
M  END
