
     RDKit          3D

 25 27  0  0  0  0  0  0  0  0999 V2000
    3.9980    2.6880   -0.7150 C   0  0  0  0  0  0  0  0  0  0  0  0
    4.0750    1.2790   -0.2120 C   0  0  0  0  0  0  0  0  0  0  0  0
    5.3070    0.6740    0.0110 C   0  0  0  0  0  0  0  0  0  0  0  0
    5.3860   -0.6060    0.4680 C   0  0  0  0  0  0  0  0  0  0  0  0
    4.2210   -1.3250    0.7180 C   0  0  0  0  0  0  0  0  0  0  0  0
    3.0040   -0.7290    0.4980 C   0  0  0  0  0  0  0  0  0  0  0  0
    1.8160   -1.4050    0.7320 C   0  0  0  0  0  0  0  0  0  0  0  0
    1.8850   -2.7420    1.2090 N   0  0  0  0  0  0  0  0  0  0  0  0
    0.5680   -0.8150    0.5140 C   0  0  0  0  0  0  0  0  0  0  0  0
    0.4940    0.4580    0.0600 C   0  0  0  0  0  0  0  0  0  0  0  0
   -0.6820    1.1980   -0.2170 N   0  0  0  0  0  0  0  0  0  0  0  0
   -2.0140    0.7330   -0.1450 C   0  0  0  0  0  0  0  0  0  0  0  0
   -2.2190   -0.4480    0.1930 O   0  0  0  0  0  0  0  0  0  0  0  0
   -3.1780    1.5940   -0.4570 C   0  0  0  0  0  0  0  0  0  0  0  0
   -4.5010    0.8800   -0.4430 C   0  0  0  0  0  0  0  0  0  0  0  0
   -4.6350   -0.2000   -1.4400 C   0  0  0  0  0  0  0  0  0  0  0  0
   -5.9430   -0.9090   -1.5170 C   0  0  0  0  0  0  0  0  0  0  0  0
   -6.4340   -1.6260   -0.3210 C   0  0  0  0  0  0  0  0  0  0  0  0
   -6.7100   -0.8450    0.8520 N   0  0  0  0  0  0  0  0  0  0  0  0
    1.7010    1.1320   -0.1730 C   0  0  0  0  0  0  0  0  0  0  0  0
    2.9220    0.5670    0.0350 C   0  0  0  0  0  0  0  0  0  0  0  0
    6.8310   -0.9770    0.6090 C   0  0  0  0  0  0  0  0  0  0  0  0
    7.5550    0.2260    0.1840 C   0  0  0  0  0  0  0  0  0  0  0  0
    8.8270    0.3600    0.1440 O   0  0  0  0  0  0  0  0  0  0  0  0
    6.6270    1.2330   -0.1800 N   0  0  0  0  0  0  0  0  0  0  0  0
  1  2  1  0
  2  3  2  0
  2 21  1  0
  3  4  1  0
  3 25  1  0
  4  5  2  0
  4 22  1  0
  5  6  1  0
  6  7  2  0
  6 21  1  0
  7  8  1  0
  7  9  1  0
  9 10  2  0
 10 11  1  0
 10 20  1  0
 11 12  1  0
 12 13  2  0
 12 14  1  0
 14 15  1  0
 15 16  1  0
 16 17  1  0
 17 18  1  0
 18 19  1  0
 20 21  2  0
 22 23  1  0
 23 24  2  0
 23 25  1  0
M  CHG  1  19   1
M  END
