
     RDKit          3D

 25 26  0  0  0  0  0  0  0  0999 V2000
    5.3230    3.6700   -1.2910 C   0  0  0  0  0  0  0  0  0  0  0  0
    5.1400    2.3130   -1.8310 C   0  0  0  0  0  0  0  0  0  0  0  0
    4.3920    1.3990   -1.1620 C   0  0  0  0  0  0  0  0  0  0  0  0
    3.8340    1.8110    0.0150 O   0  0  0  0  0  0  0  0  0  0  0  0
    4.2410    0.0980   -1.7220 C   0  0  0  0  0  0  0  0  0  0  0  0
    3.6490   -0.9940   -1.4180 C   0  0  0  0  0  0  0  0  0  0  0  0
    2.8220   -1.4920   -0.3540 C   0  0  0  0  0  0  0  0  0  0  0  0
    2.4400   -2.7710   -0.5270 C   0  0  0  0  0  0  0  0  0  0  0  0
    1.5910   -3.5810    0.3730 C   0  0  0  0  0  0  0  0  0  0  0  0
    0.2830   -2.8510    0.5080 C   0  0  0  0  0  0  0  0  0  0  0  0
    0.3960   -1.7110    1.4920 C   0  0  2  0  0  0  0  0  0  0  0  0
   -0.2430   -2.2350    2.7890 C   0  0  0  0  0  0  0  0  0  0  0  0
   -0.3940   -0.5050    1.0030 C   0  0  0  0  0  0  0  0  0  0  0  0
   -1.7930   -0.9170    0.8860 N   0  0  0  0  0  0  0  0  0  0  0  0
   -2.7210    0.0600    0.4420 C   0  0  0  0  0  0  0  0  0  0  0  0
   -2.3020    1.2040    0.1760 O   0  0  0  0  0  0  0  0  0  0  0  0
   -4.0880   -0.2340    0.2960 N   0  0  0  0  0  0  0  0  0  0  0  0
   -5.0420    0.7200   -0.1470 C   0  0  0  0  0  0  0  0  0  0  0  0
   -6.0810    1.0940    0.5740 C   0  0  0  0  0  0  0  0  0  0  0  0
   -6.8850    2.0910   -0.1500 C   0  0  0  0  0  0  0  0  0  0  0  0
   -6.1370    2.2340   -1.4170 C   0  0  0  0  0  0  0  0  0  0  0  0
   -5.0900    1.4360   -1.3810 C   0  0  0  0  0  0  0  0  0  0  0  0
   -4.1300    1.3200   -2.4660 N   0  0  0  0  0  0  0  0  0  0  0  0
    1.7250   -1.3300    1.8150 N   0  0  0  0  0  0  0  0  0  0  0  0
    2.4700   -0.6280    0.7990 C   0  0  0  0  0  0  0  0  0  0  0  0
  1  2  1  0
  2  3  2  3
  3  4  1  0
  3  5  1  0
  5  6  2  3
  6  7  1  0
  7  8  2  0
  7 25  1  0
  8  9  1  0
  9 10  1  0
 10 11  1  0
 11 12  1  1
 11 13  1  0
 11 24  1  0
 13 14  1  0
 14 15  1  0
 15 16  2  0
 15 17  1  0
 17 18  1  0
 18 19  2  0
 18 22  1  0
 19 20  1  0
 20 21  1  0
 21 22  2  0
 22 23  1  0
 24 25  1  0
M  CHG  1  24   1
M  END
