
     RDKit          3D

 25 27  0  0  0  0  0  0  0  0999 V2000
   -4.2870    1.3440    1.8200 C   0  0  0  0  0  0  0  0  0  0  0  0
   -4.4550    0.5370    0.5610 C   0  0  0  0  0  0  0  0  0  0  0  0
   -3.1420    0.1350   -0.0600 C   0  0  0  0  0  0  0  0  0  0  0  0
   -2.4440    1.2820   -0.7050 C   0  0  0  0  0  0  0  0  0  0  0  0
   -2.0260    2.3420    0.1370 N   0  0  0  0  0  0  0  0  0  0  0  0
   -2.8050   -1.1040   -0.0740 C   0  0  0  0  0  0  0  0  0  0  0  0
   -3.6500   -2.2090    0.4900 C   0  0  0  0  0  0  0  0  0  0  0  0
   -3.6910   -3.3530   -0.5290 C   0  0  0  0  0  0  0  0  0  0  0  0
   -2.9640   -3.0510   -1.7440 N   0  0  0  0  0  0  0  0  0  0  0  0
   -1.6200   -2.5510   -1.5940 C   0  0  0  0  0  0  0  0  0  0  0  0
   -1.5450   -1.5240   -0.7050 C   0  0  0  0  0  0  0  0  0  0  0  0
   -0.3070   -0.8860   -0.3920 C   0  0  0  0  0  0  0  0  0  0  0  0
   -0.2600    0.0150    0.4790 O   0  0  0  0  0  0  0  0  0  0  0  0
    0.9040   -1.2420   -1.0510 N   0  0  0  0  0  0  0  0  0  0  0  0
    2.1840   -0.6760   -0.8130 C   0  0  0  0  0  0  0  0  0  0  0  0
    3.2030   -0.9100   -1.7650 C   0  0  0  0  0  0  0  0  0  0  0  0
    4.4660   -0.4130   -1.6020 C   0  0  0  0  0  0  0  0  0  0  0  0
    4.8010    0.3540   -0.4740 C   0  0  0  0  0  0  0  0  0  0  0  0
    3.8050    0.5740    0.4440 C   0  0  0  0  0  0  0  0  0  0  0  0
    2.4960    0.0670    0.2880 C   0  0  0  0  0  0  0  0  0  0  0  0
    4.0880    1.3410    1.6660 C   0  0  0  0  0  0  0  0  0  0  0  0
    5.1770    2.3430    1.4330 C   0  0  0  0  0  0  0  0  0  0  0  0
    6.3650    1.6700    0.7950 C   0  0  0  0  0  0  0  0  0  0  0  0
    7.4870    1.8340    1.3010 O   0  0  0  0  0  0  0  0  0  0  0  0
    6.1280    0.8770   -0.3640 N   0  0  0  0  0  0  0  0  0  0  0  0
  1  2  1  0
  2  3  1  0
  3  4  1  0
  3  6  2  3
  4  5  1  0
  6  7  1  0
  6 11  1  0
  7  8  1  0
  8  9  1  0
  9 10  1  0
 10 11  2  0
 11 12  1  0
 12 13  2  0
 12 14  1  0
 14 15  1  0
 15 16  2  0
 15 20  1  0
 16 17  1  0
 17 18  2  0
 18 19  1  0
 18 25  1  0
 19 20  2  0
 19 21  1  0
 21 22  1  0
 22 23  1  0
 23 24  2  0
 23 25  1  0
M  CHG  1   5   1
M  END
