
     RDKit          3D

 25 28  0  0  0  0  0  0  0  0999 V2000
    4.5970   -1.0650    0.6040 C   0  0  0  0  0  0  0  0  0  0  0  0
    4.6510    0.0820   -0.3660 C   0  0  1  0  0  0  0  0  0  0  0  0
    3.6350    0.0460   -1.4690 C   0  0  0  0  0  0  0  0  0  0  0  0
    2.2710    0.0520   -1.0130 N   0  0  0  0  0  0  0  0  0  0  0  0
    1.6360    1.2180   -0.8380 C   0  0  0  0  0  0  0  0  0  0  0  0
    2.1740    2.3350   -1.0570 O   0  0  0  0  0  0  0  0  0  0  0  0
    0.3410    1.2580   -0.4050 N   0  0  0  0  0  0  0  0  0  0  0  0
   -0.3560    0.1340   -0.1330 C   0  0  0  0  0  0  0  0  0  0  0  0
   -1.6780    0.1820    0.3100 C   0  0  0  0  0  0  0  0  0  0  0  0
   -2.3210   -0.9950    0.5660 C   0  0  0  0  0  0  0  0  0  0  0  0
   -1.6670   -2.1900    0.3860 C   0  0  0  0  0  0  0  0  0  0  0  0
   -0.4110   -2.1870   -0.0360 N   0  0  0  0  0  0  0  0  0  0  0  0
    0.2860   -1.0710   -0.3080 C   0  0  0  0  0  0  0  0  0  0  0  0
    1.6080   -1.0860   -0.7510 C   0  0  0  0  0  0  0  0  0  0  0  0
    2.1370   -2.2160   -0.8910 O   0  0  0  0  0  0  0  0  0  0  0  0
   -3.7360   -0.9470    1.0420 C   0  0  2  0  0  0  0  0  0  0  0  0
   -4.4130   -2.2050    0.7970 N   0  0  0  0  0  0  0  0  0  0  0  0
   -4.4050    0.2120    0.3770 C   0  0  2  0  0  0  0  0  0  0  0  0
   -5.8640    0.3340    0.7140 C   0  0  0  0  0  0  0  0  0  0  0  0
   -4.2530    0.1490   -1.1290 C   0  0  0  0  0  0  0  0  0  0  0  0
   -3.7260    1.4800    0.8560 C   0  0  0  0  0  0  0  0  0  0  0  0
   -2.2790    1.5330    0.4630 C   0  0  0  0  0  0  0  0  0  0  0  0
    4.9730    1.3820    0.2690 C   0  0  0  0  0  0  0  0  0  0  0  0
    6.4590    1.0150    0.1520 C   0  0  0  0  0  0  0  0  0  0  0  0
    6.0510    0.1100   -1.0000 C   0  0  0  0  0  0  0  0  0  0  0  0
  2  1  1  1
  2  3  1  0
  2 23  1  0
  2 25  1  0
  3  4  1  0
  4  5  1  0
  4 14  1  0
  5  6  2  0
  5  7  1  0
  7  8  1  0
  8  9  2  0
  8 13  1  0
  9 10  1  0
  9 22  1  0
 10 11  2  0
 10 16  1  0
 11 12  1  0
 12 13  2  0
 13 14  1  0
 14 15  2  0
 16 17  1  6
 16 18  1  0
 18 19  1  6
 18 20  1  0
 18 21  1  0
 21 22  1  0
 23 24  1  0
 24 25  1  0
M  CHG  1  17   1
M  END
