
     RDKit          3D

 25 27  0  0  0  0  0  0  0  0999 V2000
   -1.6800   -3.5670    0.0600 C   0  0  0  0  0  0  0  0  0  0  0  0
   -1.9980   -2.3920   -0.3660 C   0  0  0  0  0  0  0  0  0  0  0  0
   -3.4110   -2.0100   -0.7310 C   0  0  0  0  0  0  0  0  0  0  0  0
   -3.7150   -0.8440    0.1610 C   0  0  0  0  0  0  0  0  0  0  0  0
   -2.7070    0.1830    0.1170 C   0  0  0  0  0  0  0  0  0  0  0  0
   -1.4000    0.0580   -0.1680 C   0  0  0  0  0  0  0  0  0  0  0  0
   -0.9900   -1.3450   -0.4730 C   0  0  0  0  0  0  0  0  0  0  0  0
    0.1110   -1.6020   -1.1450 C   0  0  0  0  0  0  0  0  0  0  0  0
    0.3570   -2.9550   -1.7870 C   0  0  0  0  0  0  0  0  0  0  0  0
   -0.5110    1.1450   -0.4520 C   0  0  0  0  0  0  0  0  0  0  0  0
    0.9230    1.0500   -0.3930 C   0  0  0  0  0  0  0  0  0  0  0  0
    1.6110    2.0330   -0.8660 O   0  0  0  0  0  0  0  0  0  0  0  0
    1.7430    0.0660    0.1500 N   0  0  0  0  0  0  0  0  0  0  0  0
    3.1850    0.0800    0.1380 C   0  0  1  0  0  0  0  0  0  0  0  0
    3.8100    0.0430    1.4880 C   0  0  0  0  0  0  0  0  0  0  0  0
    5.2160   -0.4380    1.2100 C   0  0  0  0  0  0  0  0  0  0  0  0
    5.2900   -0.7870   -0.2480 C   0  0  0  0  0  0  0  0  0  0  0  0
    3.8120   -1.0760   -0.5630 C   0  0  0  0  0  0  0  0  0  0  0  0
   -0.9930    2.4270   -0.5380 C   0  0  0  0  0  0  0  0  0  0  0  0
   -0.1560    3.5960   -0.8230 C   0  0  0  0  0  0  0  0  0  0  0  0
   -2.4050    2.5360   -0.3410 N   0  0  0  0  0  0  0  0  0  0  0  0
   -3.1420    1.5930    0.4600 C   0  0  1  0  0  0  0  0  0  0  0  0
   -4.5090    1.6730    0.2490 O   0  0  0  0  0  0  0  0  0  0  0  0
   -2.8440    1.8640    1.8560 N   0  0  0  0  0  0  0  0  0  0  0  0
   -3.2400    3.1620    2.1850 N   0  0  0  0  0  0  0  0  0  0  0  0
  1  2  2  0
  2  3  1  0
  2  7  1  0
  3  4  1  0
  4  5  1  0
  5  6  2  0
  5 22  1  0
  6  7  1  0
  6 10  1  0
  7  8  2  3
  8  9  1  0
 10 11  1  0
 10 19  2  0
 11 12  2  0
 11 13  1  0
 14 13  1  1
 14 15  1  0
 14 18  1  0
 15 16  1  0
 16 17  1  0
 17 18  1  0
 19 20  1  0
 19 21  1  0
 21 22  1  0
 22 23  1  1
 22 24  1  0
 24 25  1  0
M  END
