
     RDKit          3D

 11 12  0  0  0  0  0  0  0  0999 V2000
   -0.7900    2.8220   -0.1500 N   0  0  0  0  0  0  0  0  0  0  0  0
   -0.7860    1.4010   -0.0580 C   0  0  0  0  0  0  0  0  0  0  0  0
   -1.8380    0.5680    0.0430 N   0  0  0  0  0  0  0  0  0  0  0  0
   -1.4390   -0.7010    0.1070 C   0  0  0  0  0  0  0  0  0  0  0  0
   -2.2740   -1.8470    0.2180 N   0  0  0  0  0  0  0  0  0  0  0  0
   -0.0600   -0.7350    0.0480 C   0  0  0  0  0  0  0  0  0  0  0  0
    0.8660   -1.7730    0.0750 C   0  0  0  0  0  0  0  0  0  0  0  0
    2.2000   -1.4110   -0.0080 C   0  0  0  0  0  0  0  0  0  0  0  0
    2.6000   -0.0940   -0.1110 C   0  0  0  0  0  0  0  0  0  0  0  0
    1.6810    0.9090   -0.1350 C   0  0  0  0  0  0  0  0  0  0  0  0
    0.3350    0.5870   -0.0550 C   0  0  0  0  0  0  0  0  0  0  0  0
  1  2  1  0
  2  3  1  0
  2 11  2  0
  3  4  1  0
  4  5  1  0
  4  6  2  0
  6  7  1  0
  6 11  1  0
  7  8  2  0
  8  9  1  0
  9 10  2  0
 10 11  1  0
M  END
