
     RDKit          3D

 25 27  0  0  0  0  0  0  0  0999 V2000
    6.1380    2.6860   -1.1970 C   0  0  0  0  0  0  0  0  0  0  0  0
    5.2120    1.8260   -0.7340 O   0  0  0  0  0  0  0  0  0  0  0  0
    4.9860    0.5730   -0.3380 C   0  0  0  0  0  0  0  0  0  0  0  0
    5.9350   -0.4200   -0.2940 C   0  0  0  0  0  0  0  0  0  0  0  0
    5.6600   -1.6900    0.1010 C   0  0  0  0  0  0  0  0  0  0  0  0
    4.3560   -1.9950    0.4810 C   0  0  0  0  0  0  0  0  0  0  0  0
    4.0800   -3.2730    0.9350 N   0  0  0  0  0  0  0  0  0  0  0  0
    3.3760   -0.9920    0.4360 C   0  0  0  0  0  0  0  0  0  0  0  0
    3.6350    0.2900    0.0370 C   0  0  0  0  0  0  0  0  0  0  0  0
    2.7100    1.4210    0.0610 C   0  0  0  0  0  0  0  0  0  0  0  0
    1.6020    1.2820   -0.8310 N   0  0  0  0  0  0  0  0  0  0  0  0
    0.5340    0.4510   -0.4660 C   0  0  0  0  0  0  0  0  0  0  0  0
   -0.7920    1.1370   -0.7100 C   0  0  0  0  0  0  0  0  0  0  0  0
   -0.7500    2.2600   -1.2420 O   0  0  0  0  0  0  0  0  0  0  0  0
   -1.9750    0.4750   -0.3450 N   0  0  0  0  0  0  0  0  0  0  0  0
   -3.2470    0.9250   -0.7730 C   0  0  0  0  0  0  0  0  0  0  0  0
   -4.3450   -0.0880   -0.5510 C   0  0  2  0  0  0  0  0  0  0  0  0
   -5.1970    0.2510    0.6480 C   0  0  0  0  0  0  0  0  0  0  0  0
   -4.5520    1.2740    1.5430 C   0  0  0  0  0  0  0  0  0  0  0  0
   -3.1620    0.9830    1.9330 C   0  0  0  0  0  0  0  0  0  0  0  0
   -2.7720   -0.4360    1.8020 C   0  0  0  0  0  0  0  0  0  0  0  0
   -1.9460   -0.6650    0.5500 C   0  0  1  0  0  0  0  0  0  0  0  0
   -2.4950   -1.7930   -0.3250 C   0  0  0  0  0  0  0  0  0  0  0  0
   -3.9340   -1.5290   -0.5750 C   0  0  2  0  0  0  0  0  0  0  0  0
   -4.2160   -2.1850   -1.8780 N   0  0  0  0  0  0  0  0  0  0  0  0
  1  2  1  0
  2  3  1  0
  3  4  2  0
  3  9  1  0
  4  5  1  0
  5  6  2  0
  6  7  1  0
  6  8  1  0
  8  9  2  0
  9 10  1  0
 10 11  1  0
 11 12  1  0
 12 13  1  0
 13 14  2  0
 13 15  1  0
 15 16  1  0
 15 22  1  0
 16 17  1  0
 17 18  1  1
 17 24  1  0
 18 19  1  0
 19 20  1  0
 20 21  1  0
 22 21  1  1
 22 23  1  0
 23 24  1  0
 24 25  1  6
M  CHG  1  11   1
M  END
