
     RDKit          3D

 12 13  0  0  0  0  0  0  0  0999 V2000
    3.6720   -1.1870    0.3190 N   0  0  0  0  0  0  0  0  0  0  0  0
    2.7520   -0.2990    0.2380 C   0  0  0  0  0  0  0  0  0  0  0  0
    1.4220   -0.6620    0.2460 C   0  0  0  0  0  0  0  0  0  0  0  0
    0.4290    0.2880    0.1620 C   0  0  0  0  0  0  0  0  0  0  0  0
   -0.9960   -0.1040    0.1620 C   0  0  0  0  0  0  0  0  0  0  0  0
   -1.5820   -1.2420   -0.3630 C   0  0  0  0  0  0  0  0  0  0  0  0
   -2.9340   -1.2030   -0.1210 C   0  0  0  0  0  0  0  0  0  0  0  0
   -3.1630   -0.0600    0.5400 N   0  0  0  0  0  0  0  0  0  0  0  0
   -2.0110    0.6300    0.7280 C   0  0  0  0  0  0  0  0  0  0  0  0
    0.8060    1.6110    0.0700 C   0  0  0  0  0  0  0  0  0  0  0  0
    2.1510    1.9120    0.0650 C   0  0  0  0  0  0  0  0  0  0  0  0
    3.0620    0.9710    0.1480 O   0  0  0  0  0  0  0  0  0  0  0  0
  1  2  2  0
  2  3  1  0
  2 12  1  0
  3  4  2  0
  4  5  1  0
  4 10  1  0
  5  6  1  0
  5  9  2  0
  6  7  2  0
  7  8  1  0
  8  9  1  0
 10 11  2  0
 11 12  1  0
M  END
