
     RDKit          3D

 12 13  0  0  0  0  0  0  0  0999 V2000
    3.3760   -0.0290   -0.0770 C   0  0  0  0  0  0  0  0  0  0  0  0
    1.9210    0.2600   -0.1740 C   0  0  0  0  0  0  0  0  0  0  0  0
    1.5200    1.4260   -0.6950 N   0  0  0  0  0  0  0  0  0  0  0  0
    0.1930    1.6450   -0.7630 C   0  0  0  0  0  0  0  0  0  0  0  0
   -0.1820    2.7300   -1.2490 O   0  0  0  0  0  0  0  0  0  0  0  0
   -0.7460    0.7290   -0.3240 C   0  0  0  0  0  0  0  0  0  0  0  0
   -2.1030    0.9450   -0.3890 C   0  0  0  0  0  0  0  0  0  0  0  0
   -3.0240    0.0090    0.0590 C   0  0  0  0  0  0  0  0  0  0  0  0
   -2.5720   -1.1830    0.5910 C   0  0  0  0  0  0  0  0  0  0  0  0
   -1.2060   -1.3810    0.6490 C   0  0  0  0  0  0  0  0  0  0  0  0
   -0.2990   -0.4590    0.2070 C   0  0  0  0  0  0  0  0  0  0  0  0
    1.0310   -0.6480    0.2610 N   0  0  0  0  0  0  0  0  0  0  0  0
  1  2  1  0
  2  3  2  0
  2 12  1  0
  3  4  1  0
  4  5  2  0
  4  6  1  0
  6  7  2  0
  6 11  1  0
  7  8  1  0
  8  9  2  0
  9 10  1  0
 10 11  2  0
 11 12  1  0
M  END
