
     RDKit          3D

 12 13  0  0  0  0  0  0  0  0999 V2000
    3.1280   -1.5180    1.7730 O   0  0  0  0  0  0  0  0  0  0  0  0
    2.5390   -0.8280    0.9130 C   0  0  0  0  0  0  0  0  0  0  0  0
    3.3400   -0.1560   -0.0140 C   0  0  0  0  0  0  0  0  0  0  0  0
    2.7280    0.6090   -0.9700 C   0  0  0  0  0  0  0  0  0  0  0  0
    1.3900    0.6710   -0.9650 N   0  0  0  0  0  0  0  0  0  0  0  0
    0.6300    0.0060   -0.0500 C   0  0  0  0  0  0  0  0  0  0  0  0
   -0.8190    0.1340   -0.1230 C   0  0  0  0  0  0  0  0  0  0  0  0
   -1.6570   -0.4570    0.7010 C   0  0  0  0  0  0  0  0  0  0  0  0
   -3.0400   -0.1050    0.3310 C   0  0  0  0  0  0  0  0  0  0  0  0
   -2.8830    0.7820   -0.8340 C   0  0  0  0  0  0  0  0  0  0  0  0
   -1.5930    0.8990   -1.0690 C   0  0  0  0  0  0  0  0  0  0  0  0
    1.2100   -0.7480    0.8950 N   0  0  0  0  0  0  0  0  0  0  0  0
  1  2  2  0
  2  3  1  0
  2 12  1  0
  3  4  2  0
  4  5  1  0
  5  6  2  0
  6  7  1  0
  6 12  1  0
  7  8  2  0
  7 11  1  0
  8  9  1  0
  9 10  1  0
 10 11  2  0
M  END
