
     RDKit          3D

 12 12  0  0  0  0  0  0  0  0999 V2000
   -2.3180   -1.5580    0.7940 N   0  0  0  0  0  0  0  0  0  0  0  0
   -1.5000   -0.4220    0.5250 C   0  0  1  0  0  0  0  0  0  0  0  0
   -0.0370   -0.8170    0.2700 C   0  0  0  0  0  0  0  0  0  0  0  0
    0.6450    0.5170    0.0320 C   0  0  1  0  0  0  0  0  0  0  0  0
    2.1170    0.4720    0.2700 C   0  0  1  0  0  0  0  0  0  0  0  0
    2.3480    0.0680    1.5710 O   0  0  0  0  0  0  0  0  0  0  0  0
    2.8730   -0.3970   -0.6730 C   0  0  0  0  0  0  0  0  0  0  0  0
    4.2410   -0.2650   -0.3510 O   0  0  0  0  0  0  0  0  0  0  0  0
    0.2780    0.9080   -1.2340 O   0  0  0  0  0  0  0  0  0  0  0  0
   -1.0200    1.3240   -1.2280 C   0  0  0  0  0  0  0  0  0  0  0  0
   -2.0010    0.4570   -0.5560 C   0  0  2  0  0  0  0  0  0  0  0  0
   -3.0050    1.2850   -0.0000 O   0  0  0  0  0  0  0  0  0  0  0  0
  2  1  1  6
  2  3  1  0
  2 11  1  0
  4  3  1  6
  4  5  1  0
  4  9  1  0
  5  6  1  1
  5  7  1  0
  7  8  1  0
  9 10  1  0
 10 11  1  0
 11 12  1  1
M  CHG  1   1   1
M  END
