
     RDKit          3D

 12 12  0  0  0  0  0  0  0  0999 V2000
    2.1700   -1.4800    0.0710 C   0  0  0  0  0  0  0  0  0  0  0  0
    1.4890   -0.3590   -0.6980 C   0  0  2  0  0  0  0  0  0  0  0  0
    1.6710   -0.6020   -2.0390 O   0  0  0  0  0  0  0  0  0  0  0  0
    2.1500    0.9300   -0.2990 C   0  0  0  0  0  0  0  0  0  0  0  0
    1.9830    1.2030    1.0550 O   0  0  0  0  0  0  0  0  0  0  0  0
    0.0360   -0.4210   -0.3600 C   0  0  2  0  0  0  0  0  0  0  0  0
   -0.8180    0.5110   -1.1940 C   0  0  0  0  0  0  0  0  0  0  0  0
   -1.9870    0.6820   -0.2120 C   0  0  1  0  0  0  0  0  0  0  0  0
   -2.7470   -0.5310   -0.1000 N   0  0  0  0  0  0  0  0  0  0  0  0
   -1.1720    0.8300    1.0590 C   0  0  1  0  0  0  0  0  0  0  0  0
   -1.9690    0.7270    2.1920 O   0  0  0  0  0  0  0  0  0  0  0  0
   -0.2540   -0.1910    0.9590 O   0  0  0  0  0  0  0  0  0  0  0  0
  2  1  1  1
  2  3  1  0
  2  4  1  0
  2  6  1  0
  4  5  1  0
  6  7  1  6
  6 12  1  0
  7  8  1  0
  8  9  1  1
  8 10  1  0
 10 11  1  1
 10 12  1  0
M  CHG  1   9   1
M  END
