
     RDKit          3D

 23 25  0  0  0  0  0  0  0  0999 V2000
   -3.2050    3.8730    0.9080 C   0  0  0  0  0  0  0  0  0  0  0  0
   -2.5950    2.5660    0.5190 C   0  0  0  0  0  0  0  0  0  0  0  0
   -1.3080    2.2950    0.9490 C   0  0  0  0  0  0  0  0  0  0  0  0
   -0.7660    1.0790    0.5750 C   0  0  0  0  0  0  0  0  0  0  0  0
   -1.4760    0.1750   -0.1870 C   0  0  0  0  0  0  0  0  0  0  0  0
   -2.7490    0.4680   -0.6040 C   0  0  0  0  0  0  0  0  0  0  0  0
   -3.3170    1.6750   -0.2490 C   0  0  0  0  0  0  0  0  0  0  0  0
   -4.9530    2.0730   -0.7700 Cl  0  0  0  0  0  0  0  0  0  0  0  0
   -0.9070   -1.0880   -0.4390 N   0  0  0  0  0  0  0  0  0  0  0  0
   -1.6830   -2.2600   -0.5690 C   0  0  0  0  0  0  0  0  0  0  0  0
   -1.0030   -3.3370   -0.8380 O   0  0  0  0  0  0  0  0  0  0  0  0
   -3.1090   -2.4960   -0.4500 C   0  0  0  0  0  0  0  0  0  0  0  0
   -3.3650   -3.8820   -0.1940 O   0  0  0  0  0  0  0  0  0  0  0  0
    0.5580   -1.2380   -0.5220 C   0  0  0  0  0  0  0  0  0  0  0  0
    1.2320   -0.3190    0.3990 C   0  0  0  0  0  0  0  0  0  0  0  0
    2.5200   -0.3420    0.8910 C   0  0  0  0  0  0  0  0  0  0  0  0
    3.5740   -1.3690    0.6600 C   0  0  0  0  0  0  0  0  0  0  0  0
    4.2030   -1.2670   -0.6960 C   0  0  0  0  0  0  0  0  0  0  0  0
    4.8710    0.0750   -0.9200 C   0  0  0  0  0  0  0  0  0  0  0  0
    5.5920    0.1090   -2.5520 Cl  0  0  0  0  0  0  0  0  0  0  0  0
    2.6340    0.7820    1.6440 N   0  0  0  0  0  0  0  0  0  0  0  0
    1.5350    1.4800    1.6530 N   0  0  0  0  0  0  0  0  0  0  0  0
    0.6470    0.8190    0.8890 C   0  0  0  0  0  0  0  0  0  0  0  0
  1  2  1  0
  2  3  2  0
  2  7  1  0
  3  4  1  0
  4  5  2  0
  4 23  1  0
  5  6  1  0
  5  9  1  0
  6  7  2  0
  7  8  1  0
  9 10  1  0
  9 14  1  0
 10 11  2  0
 10 12  1  0
 12 13  1  0
 14 15  1  0
 15 16  1  0
 15 23  2  0
 16 17  1  0
 16 21  2  0
 17 18  1  0
 18 19  1  0
 19 20  1  0
 21 22  1  0
 22 23  1  0
M  END
