
     RDKit          3D

 13 13  0  0  0  0  0  0  0  0999 V2000
    0.1990   -1.3510   -1.3210 N   0  0  0  0  0  0  0  0  0  0  0  0
    0.2650   -0.3020   -0.3290 C   0  0  2  0  0  0  0  0  0  0  0  0
    1.0660   -0.8500    0.8560 C   0  0  1  0  0  0  0  0  0  0  0  0
    0.8250   -2.1940    0.9260 O   0  0  0  0  0  0  0  0  0  0  0  0
    2.5120   -0.5300    0.5890 C   0  0  0  0  0  0  0  0  0  0  0  0
    2.6970    0.7560    1.1980 O   0  0  0  0  0  0  0  0  0  0  0  0
    3.0280    1.5730    0.2660 O   0  0  0  0  0  0  0  0  0  0  0  0
   -0.9610    0.3870   -0.1400 C   0  0  2  0  0  0  0  0  0  0  0  0
   -1.2830    1.1560   -1.2760 O   0  0  0  0  0  0  0  0  0  0  0  0
   -1.1500    1.2440    1.0660 C   0  0  0  0  0  0  0  0  0  0  0  0
   -2.6630    1.4250    0.9690 C   0  0  0  0  0  0  0  0  0  0  0  0
   -3.0670    0.0890    0.8600 O   0  0  0  0  0  0  0  0  0  0  0  0
   -2.1830   -0.5340    0.0210 C   0  0  0  0  0  0  0  0  0  0  0  0
  2  1  1  6
  2  3  1  0
  2  8  1  0
  3  4  1  6
  3  5  1  0
  5  6  1  0
  6  7  1  0
  8  9  1  6
  8 10  1  0
  8 13  1  0
 10 11  1  0
 11 12  1  0
 12 13  1  0
M  CHG  1   1   1
M  END
