
     RDKit          3D

  9  9  0  0  0  0  0  0  0  0999 V2000
   -1.9760    0.5150    1.2870 C   0  0  0  0  0  0  0  0  0  0  0  0
   -1.4340    0.4020   -0.1190 C   0  0  2  0  0  0  0  0  0  0  0  0
   -2.0180   -0.7240   -0.8930 C   0  0  0  0  0  0  0  0  0  0  0  0
    0.0060    0.3840   -0.0360 N   0  0  0  0  0  0  0  0  0  0  0  0
    0.8810   -0.6000   -0.3170 C   0  0  0  0  0  0  0  0  0  0  0  0
    2.1430   -0.1290   -0.0780 C   0  0  0  0  0  0  0  0  0  0  0  0
    3.3810   -0.8030   -0.2310 N   0  0  0  0  0  0  0  0  0  0  0  0
    1.9830    1.1710    0.3540 C   0  0  0  0  0  0  0  0  0  0  0  0
    0.6810    1.4670    0.3740 N   0  0  0  0  0  0  0  0  0  0  0  0
  2  1  1  1
  2  3  1  0
  2  4  1  0
  4  5  1  0
  4  9  1  0
  5  6  2  0
  6  7  1  0
  6  8  1  0
  8  9  2  0
M  END
