
     RDKit          3D

  9  9  0  0  0  0  0  0  0  0999 V2000
    2.9250    0.6910   -0.2210 C   0  0  0  0  0  0  0  0  0  0  0  0
    1.5490    0.1570   -0.1000 C   0  0  0  0  0  0  0  0  0  0  0  0
    1.3500   -1.2040    0.0150 C   0  0  0  0  0  0  0  0  0  0  0  0
    0.1170   -1.7400    0.1270 N   0  0  0  0  0  0  0  0  0  0  0  0
   -0.9750   -0.9550    0.1310 C   0  0  0  0  0  0  0  0  0  0  0  0
   -2.2990   -1.4550    0.2450 N   0  0  0  0  0  0  0  0  0  0  0  0
   -0.7930    0.4060    0.0160 C   0  0  0  0  0  0  0  0  0  0  0  0
   -1.9820    1.2790    0.0180 C   0  0  0  0  0  0  0  0  0  0  0  0
    0.4510    0.9340   -0.0960 N   0  0  0  0  0  0  0  0  0  0  0  0
  1  2  1  0
  2  3  2  0
  2  9  1  0
  3  4  1  0
  4  5  2  0
  5  6  1  0
  5  7  1  0
  7  8  1  0
  7  9  2  0
M  END
