
     RDKit          3D

  9  9  0  0  0  0  0  0  0  0999 V2000
   -0.5230   -1.5260    0.4700 C   0  0  0  0  0  0  0  0  0  0  0  0
   -0.6840   -0.0600    0.0880 C   0  0  2  0  0  0  0  0  0  0  0  0
   -1.3360    0.7510    1.1650 C   0  0  0  0  0  0  0  0  0  0  0  0
   -1.4450   -0.0360   -1.2190 C   0  0  0  0  0  0  0  0  0  0  0  0
    0.7130    0.4670   -0.1250 C   0  0  0  0  0  0  0  0  0  0  0  0
    1.0640    1.5800   -0.7890 N   0  0  0  0  0  0  0  0  0  0  0  0
    2.3840    1.7010   -0.7630 N   0  0  0  0  0  0  0  0  0  0  0  0
    2.9250    0.6760   -0.0830 C   0  0  0  0  0  0  0  0  0  0  0  0
    1.8750   -0.0670    0.2980 N   0  0  0  0  0  0  0  0  0  0  0  0
  2  1  1  1
  2  3  1  0
  2  4  1  0
  2  5  1  0
  5  6  2  0
  5  9  1  0
  6  7  1  0
  7  8  2  0
  8  9  1  0
M  END
