
     RDKit          3D

 15 16  0  0  0  0  0  0  0  0999 V2000
   -2.7050    0.2950   -1.3320 C   0  0  0  0  0  0  0  0  0  0  0  0
   -2.3180    0.2620    0.0400 N   0  0  0  0  0  0  0  0  0  0  0  0
   -3.3540    0.4700    0.9800 C   0  0  0  0  0  0  0  0  0  0  0  0
   -1.2040   -0.4980    0.4050 C   0  0  0  0  0  0  0  0  0  0  0  0
    0.1180    0.0200    0.0200 C   0  0  0  0  0  0  0  0  0  0  0  0
    1.2710   -0.7330    0.2790 C   0  0  0  0  0  0  0  0  0  0  0  0
    1.1160   -2.0100    0.8780 N   0  0  0  0  0  0  0  0  0  0  0  0
    2.4990   -0.2160   -0.0490 C   0  0  0  0  0  0  0  0  0  0  0  0
    3.7780   -0.7330    0.0910 C   0  0  0  0  0  0  0  0  0  0  0  0
    4.6270    0.1600   -0.3830 O   0  0  0  0  0  0  0  0  0  0  0  0
    3.9760    1.2210   -0.8200 C   0  0  0  0  0  0  0  0  0  0  0  0
    2.6270    1.0320   -0.6320 C   0  0  0  0  0  0  0  0  0  0  0  0
    1.5290    1.7020   -0.8560 O   0  0  0  0  0  0  0  0  0  0  0  0
    0.3100    1.2420   -0.5530 C   0  0  0  0  0  0  0  0  0  0  0  0
   -0.6800    1.9710   -0.8060 O   0  0  0  0  0  0  0  0  0  0  0  0
  1  2  1  0
  2  3  1  0
  2  4  1  0
  4  5  1  0
  5  6  2  0
  5 14  1  0
  6  7  1  0
  6  8  1  0
  8  9  2  0
  8 12  1  0
  9 10  1  0
 10 11  1  0
 11 12  2  0
 12 13  1  0
 13 14  1  0
 14 15  2  0
M  END
