
     RDKit          3D

 12 13  0  0  0  0  0  0  0  0999 V2000
    3.8820   -0.1160   -0.0750 O   0  0  0  0  0  0  0  0  0  0  0  0
    2.8410   -0.7370   -0.3650 N   0  0  0  0  0  0  0  0  0  0  0  0
    3.0180   -1.9670   -0.9530 O   0  0  0  0  0  0  0  0  0  0  0  0
    1.5400   -0.2160   -0.1110 C   0  0  0  0  0  0  0  0  0  0  0  0
    1.3880    1.0200    0.4790 C   0  0  0  0  0  0  0  0  0  0  0  0
    0.1370    1.5650    0.7450 C   0  0  0  0  0  0  0  0  0  0  0  0
   -1.0100    0.8640    0.4170 C   0  0  0  0  0  0  0  0  0  0  0  0
   -2.3400    1.1080    0.5400 N   0  0  0  0  0  0  0  0  0  0  0  0
   -3.0410    0.1020    0.0640 N   0  0  0  0  0  0  0  0  0  0  0  0
   -2.1650   -0.8190   -0.3790 C   0  0  0  0  0  0  0  0  0  0  0  0
   -0.8640   -0.3810   -0.1770 C   0  0  0  0  0  0  0  0  0  0  0  0
    0.3910   -0.9040   -0.4330 C   0  0  0  0  0  0  0  0  0  0  0  0
  1  2  2  0
  2  3  1  0
  2  4  1  0
  4  5  1  0
  4 12  2  0
  5  6  2  0
  6  7  1  0
  7  8  2  0
  7 11  1  0
  8  9  1  0
  9 10  1  0
 10 11  2  0
 11 12  1  0
M  CHG  2   2   1   3  -1
M  END
