
     RDKit          3D

 15 16  0  0  0  0  0  0  0  0999 V2000
    3.4950   -2.7030   -0.8690 C   0  0  0  0  0  0  0  0  0  0  0  0
    2.8120   -1.4870   -0.6380 O   0  0  0  0  0  0  0  0  0  0  0  0
    1.4700   -1.4220   -0.3040 C   0  0  0  0  0  0  0  0  0  0  0  0
    0.8440   -2.4880   -0.2030 O   0  0  0  0  0  0  0  0  0  0  0  0
    0.8370   -0.1170   -0.0810 C   0  0  0  0  0  0  0  0  0  0  0  0
    1.4000    1.1000   -0.1580 N   0  0  0  0  0  0  0  0  0  0  0  0
    0.4940    2.0510    0.1140 C   0  0  0  0  0  0  0  0  0  0  0  0
    0.7240    3.5060    0.1320 C   0  0  0  0  0  0  0  0  0  0  0  0
   -0.7340    1.4310    0.3860 C   0  0  0  0  0  0  0  0  0  0  0  0
   -0.5040    0.0820    0.2610 C   0  0  0  0  0  0  0  0  0  0  0  0
   -1.7520   -0.6180    0.5330 C   0  0  0  0  0  0  0  0  0  0  0  0
   -1.8640   -2.0120    0.4900 O   0  0  0  0  0  0  0  0  0  0  0  0
   -3.0070   -2.5070   -0.0900 N   0  0  0  0  0  0  0  0  0  0  0  0
   -2.6960    0.2650    0.8120 C   0  0  0  0  0  0  0  0  0  0  0  0
   -2.1520    1.6310    0.7470 C   0  0  0  0  0  0  0  0  0  0  0  0
  1  2  1  0
  2  3  1  0
  3  4  2  0
  3  5  1  0
  5  6  1  0
  5 10  2  0
  6  7  1  0
  7  8  1  0
  7  9  2  0
  9 10  1  0
  9 15  1  0
 10 11  1  0
 11 12  1  0
 11 14  2  0
 12 13  1  0
 14 15  1  0
M  END
