
     RDKit          3D

 15 15  0  0  0  0  0  0  0  0999 V2000
   -2.9940    1.8520    0.7630 C   0  0  0  0  0  0  0  0  0  0  0  0
   -2.7990    0.7290    0.0990 C   0  0  0  0  0  0  0  0  0  0  0  0
   -1.4570    0.2360   -0.2070 C   0  0  0  0  0  0  0  0  0  0  0  0
   -1.2580   -0.8890   -0.8730 C   0  0  0  0  0  0  0  0  0  0  0  0
   -2.3700   -1.7410   -1.3630 C   0  0  0  0  0  0  0  0  0  0  0  0
   -0.3870    0.9640    0.2110 O   0  0  0  0  0  0  0  0  0  0  0  0
    0.9350    0.6840   -0.0110 C   0  0  0  0  0  0  0  0  0  0  0  0
    1.6070   -0.0910    0.9050 C   0  0  0  0  0  0  0  0  0  0  0  0
    0.8620   -0.5830    2.0880 C   0  0  0  0  0  0  0  0  0  0  0  0
    2.9210   -0.4120    0.7550 N   0  0  0  0  0  0  0  0  0  0  0  0
    3.5750    0.0480   -0.3290 C   0  0  0  0  0  0  0  0  0  0  0  0
    4.8000   -0.2390   -0.4900 O   0  0  0  0  0  0  0  0  0  0  0  0
    2.9650    0.8130   -1.2610 N   0  0  0  0  0  0  0  0  0  0  0  0
    1.6570    1.1270   -1.1020 C   0  0  0  0  0  0  0  0  0  0  0  0
    1.0840    1.8350   -1.9610 O   0  0  0  0  0  0  0  0  0  0  0  0
  1  2  2  0
  2  3  1  0
  3  4  2  3
  3  6  1  0
  4  5  1  0
  6  7  1  0
  7  8  2  0
  7 14  1  0
  8  9  1  0
  8 10  1  0
 10 11  1  0
 11 12  2  0
 11 13  1  0
 13 14  1  0
 14 15  2  0
M  END
