
     RDKit          3D

 13 14  0  0  0  0  0  0  0  0999 V2000
   -2.9030    0.3520    1.6750 O   0  0  0  0  0  0  0  0  0  0  0  0
   -3.5100   -0.0200    0.6550 N   0  0  0  0  0  0  0  0  0  0  0  0
   -4.8670   -0.0810    0.6160 O   0  0  0  0  0  0  0  0  0  0  0  0
   -2.7070   -0.3890   -0.4970 C   0  0  0  0  0  0  0  0  0  0  0  0
   -1.2540   -0.2430   -0.2180 C   0  0  0  0  0  0  0  0  0  0  0  0
   -0.4340   -1.2250    0.2980 C   0  0  0  0  0  0  0  0  0  0  0  0
    0.8260   -0.6240    0.3800 C   0  0  0  0  0  0  0  0  0  0  0  0
    2.0470   -1.1030    0.8180 C   0  0  0  0  0  0  0  0  0  0  0  0
    3.1670   -0.3140    0.8050 C   0  0  0  0  0  0  0  0  0  0  0  0
    3.0640    0.9810    0.3450 C   0  0  0  0  0  0  0  0  0  0  0  0
    1.8760    1.5030   -0.0990 C   0  0  0  0  0  0  0  0  0  0  0  0
    0.7550    0.6760   -0.0740 C   0  0  0  0  0  0  0  0  0  0  0  0
   -0.5330    0.8740   -0.4320 N   0  0  0  0  0  0  0  0  0  0  0  0
  1  2  2  0
  2  3  1  0
  2  4  1  0
  4  5  1  0
  5  6  2  0
  5 13  1  0
  6  7  1  0
  7  8  2  0
  7 12  1  0
  8  9  1  0
  9 10  2  0
 10 11  1  0
 11 12  2  0
 12 13  1  0
M  CHG  2   2   1   3  -1
M  END
