
     RDKit          3D

 13 14  0  0  0  0  0  0  0  0999 V2000
   -1.4560   -2.6710    0.5610 O   0  0  0  0  0  0  0  0  0  0  0  0
   -1.8790   -1.7180   -0.1030 N   0  0  0  0  0  0  0  0  0  0  0  0
   -3.0280   -1.8340   -0.8830 O   0  0  0  0  0  0  0  0  0  0  0  0
   -1.2380   -0.4610   -0.0770 C   0  0  0  0  0  0  0  0  0  0  0  0
   -2.1040    0.6400   -0.1690 C   0  0  0  0  0  0  0  0  0  0  0  0
   -1.5170    1.8830   -0.1490 C   0  0  0  0  0  0  0  0  0  0  0  0
   -0.1800    2.0950   -0.0470 C   0  0  0  0  0  0  0  0  0  0  0  0
    0.6640    1.0070    0.0430 C   0  0  0  0  0  0  0  0  0  0  0  0
    1.9930    1.2220    0.1370 N   0  0  0  0  0  0  0  0  0  0  0  0
    2.8340    0.1840    0.2170 C   0  0  0  0  0  0  0  0  0  0  0  0
    2.3590   -1.1040    0.2040 C   0  0  0  0  0  0  0  0  0  0  0  0
    0.9950   -1.3390    0.1070 C   0  0  0  0  0  0  0  0  0  0  0  0
    0.1240   -0.2740    0.0260 C   0  0  0  0  0  0  0  0  0  0  0  0
  1  2  2  0
  2  3  1  0
  2  4  1  0
  4  5  2  0
  4 13  1  0
  5  6  1  0
  6  7  2  0
  7  8  1  0
  8  9  2  0
  8 13  1  0
  9 10  1  0
 10 11  2  0
 11 12  1  0
 12 13  2  0
M  CHG  2   2   1   3  -1
M  END
