
     RDKit          3D

 15 16  0  0  0  0  0  0  0  0999 V2000
   -2.9210   -1.2700    0.2670 C   0  0  0  0  0  0  0  0  0  0  0  0
   -1.9550   -0.2630    0.8200 C   0  0  0  0  0  0  0  0  0  0  0  0
   -1.1220    0.4190   -0.2140 C   0  0  1  0  0  0  0  0  0  0  0  0
   -2.0940    1.1430   -1.1620 C   0  0  0  0  0  0  0  0  0  0  0  0
   -2.6430    2.0770   -0.2930 O   0  0  0  0  0  0  0  0  0  0  0  0
   -1.6110    2.5720    0.4810 C   0  0  0  0  0  0  0  0  0  0  0  0
   -0.4900    1.5940    0.3820 C   0  0  0  0  0  0  0  0  0  0  0  0
    0.6790    1.9090    0.7830 N   0  0  0  0  0  0  0  0  0  0  0  0
    1.8210    1.0800    0.7450 C   0  0  0  0  0  0  0  0  0  0  0  0
    1.9710   -0.1280    0.2530 C   0  0  0  0  0  0  0  0  0  0  0  0
    3.2040   -0.7490    0.3330 O   0  0  0  0  0  0  0  0  0  0  0  0
    4.3930   -0.1260    0.7210 C   0  0  0  0  0  0  0  0  0  0  0  0
    0.9550   -0.8970   -0.3810 N   0  0  0  0  0  0  0  0  0  0  0  0
    1.2270   -2.3440   -0.3570 C   0  0  0  0  0  0  0  0  0  0  0  0
   -0.2570   -0.4690   -1.0190 C   0  0  0  0  0  0  0  0  0  0  0  0
  1  2  1  0
  3  2  1  1
  3  4  1  0
  3  7  1  0
  3 15  1  0
  4  5  1  0
  5  6  1  0
  6  7  1  0
  7  8  2  0
  8  9  1  0
  9 10  2  0
 10 11  1  0
 10 13  1  0
 11 12  1  0
 13 14  1  0
 13 15  1  0
M  END
