
     RDKit          3D

 12 13  0  0  0  0  0  0  0  0999 V2000
    2.1420    0.4070    2.5930 C   0  0  0  0  0  0  0  0  0  0  0  0
    2.0030   -0.7080    1.7130 O   0  0  0  0  0  0  0  0  0  0  0  0
    1.0850   -0.6030    0.6790 C   0  0  0  0  0  0  0  0  0  0  0  0
    0.3170    0.5330    0.4850 C   0  0  0  0  0  0  0  0  0  0  0  0
   -0.5980    0.6370   -0.5460 C   0  0  0  0  0  0  0  0  0  0  0  0
   -0.7490   -0.4280   -1.4080 C   0  0  0  0  0  0  0  0  0  0  0  0
    0.0100   -1.5730   -1.2310 C   0  0  0  0  0  0  0  0  0  0  0  0
    0.9250   -1.6620   -0.1920 C   0  0  0  0  0  0  0  0  0  0  0  0
    1.6990   -2.7870    0.0170 O   0  0  0  0  0  0  0  0  0  0  0  0
   -1.7220   -0.1200   -2.3770 O   0  0  0  0  0  0  0  0  0  0  0  0
   -2.5750    0.8350   -1.7320 C   0  0  0  0  0  0  0  0  0  0  0  0
   -1.5440    1.6780   -1.0160 C   0  0  0  0  0  0  0  0  0  0  0  0
  1  2  1  0
  2  3  1  0
  3  4  2  0
  3  8  1  0
  4  5  1  0
  5  6  2  0
  5 12  1  0
  6  7  1  0
  6 10  1  0
  7  8  2  0
  8  9  1  0
 10 11  1  0
 11 12  1  0
M  END
