
     RDKit          3D

 12 13  0  0  0  0  0  0  0  0999 V2000
    3.3890   -1.1020    0.0190 C   0  0  0  0  0  0  0  0  0  0  0  0
    2.8320    0.1800   -0.0980 O   0  0  0  0  0  0  0  0  0  0  0  0
    1.4570    0.3510   -0.0360 C   0  0  0  0  0  0  0  0  0  0  0  0
    0.9740    1.6380   -0.1580 C   0  0  0  0  0  0  0  0  0  0  0  0
   -0.4010    1.8680   -0.1030 C   0  0  0  0  0  0  0  0  0  0  0  0
   -0.9080    3.1560   -0.2230 O   0  0  0  0  0  0  0  0  0  0  0  0
   -1.2610    0.8210    0.0710 C   0  0  0  0  0  0  0  0  0  0  0  0
   -0.7830   -0.4630    0.1930 C   0  0  0  0  0  0  0  0  0  0  0  0
    0.5710   -0.6960    0.1400 C   0  0  0  0  0  0  0  0  0  0  0  0
   -1.9710   -1.3360    0.3690 C   0  0  0  0  0  0  0  0  0  0  0  0
   -3.0620   -0.5020   -0.2660 C   0  0  0  0  0  0  0  0  0  0  0  0
   -2.6600    0.8120    0.1550 O   0  0  0  0  0  0  0  0  0  0  0  0
  1  2  1  0
  2  3  1  0
  3  4  2  0
  3  9  1  0
  4  5  1  0
  5  6  1  0
  5  7  2  0
  7  8  1  0
  7 12  1  0
  8  9  2  0
  8 10  1  0
 10 11  1  0
 11 12  1  0
M  END
