
     RDKit          3D

 12 13  0  0  0  0  0  0  0  0999 V2000
    3.4040   -1.0210   -0.4810 C   0  0  0  0  0  0  0  0  0  0  0  0
    2.8190    0.2610   -0.5960 O   0  0  0  0  0  0  0  0  0  0  0  0
    1.4560    0.3680   -0.3510 C   0  0  0  0  0  0  0  0  0  0  0  0
    0.8450    1.6210   -0.4550 C   0  0  0  0  0  0  0  0  0  0  0  0
   -0.5020    1.7420   -0.2150 C   0  0  0  0  0  0  0  0  0  0  0  0
   -1.1690    2.9730   -0.3050 O   0  0  0  0  0  0  0  0  0  0  0  0
   -1.2440    0.5970    0.1320 C   0  0  0  0  0  0  0  0  0  0  0  0
   -0.6530   -0.6360    0.2360 C   0  0  0  0  0  0  0  0  0  0  0  0
    0.6980   -0.7350   -0.0080 C   0  0  0  0  0  0  0  0  0  0  0  0
   -1.7230   -1.6010    0.6110 C   0  0  0  0  0  0  0  0  0  0  0  0
   -2.9070   -0.9300    0.3310 O   0  0  0  0  0  0  0  0  0  0  0  0
   -2.6750    0.4050    0.4470 C   0  0  0  0  0  0  0  0  0  0  0  0
  1  2  1  0
  2  3  1  0
  3  4  2  0
  3  9  1  0
  4  5  1  0
  5  6  1  0
  5  7  2  0
  7  8  1  0
  7 12  1  0
  8  9  2  0
  8 10  1  0
 10 11  1  0
 11 12  1  0
M  END
