
     RDKit          3D

 12 13  0  0  0  0  0  0  0  0999 V2000
   -3.9180   -0.5510    0.7520 O   0  0  0  0  0  0  0  0  0  0  0  0
   -3.2400    0.3810    0.0050 C   0  0  0  0  0  0  0  0  0  0  0  0
   -1.8020    0.0340   -0.1860 C   0  0  0  0  0  0  0  0  0  0  0  0
   -1.3870   -0.7230   -1.2610 C   0  0  0  0  0  0  0  0  0  0  0  0
   -0.0450   -1.0390   -1.4260 C   0  0  0  0  0  0  0  0  0  0  0  0
    0.9190   -0.6210   -0.5430 C   0  0  0  0  0  0  0  0  0  0  0  0
    0.5130    0.1400    0.5400 C   0  0  0  0  0  0  0  0  0  0  0  0
   -0.8220    0.4480    0.6950 C   0  0  0  0  0  0  0  0  0  0  0  0
    1.5030    0.5490    1.4160 O   0  0  0  0  0  0  0  0  0  0  0  0
    2.8440    0.7690    1.0240 C   0  0  0  0  0  0  0  0  0  0  0  0
    3.2730   -0.0410   -0.1470 C   0  0  0  0  0  0  0  0  0  0  0  0
    2.2620   -0.9000   -0.6500 O   0  0  0  0  0  0  0  0  0  0  0  0
  1  2  1  0
  2  3  1  0
  3  4  2  0
  3  8  1  0
  4  5  1  0
  5  6  2  0
  6  7  1  0
  6 12  1  0
  7  8  2  0
  7  9  1  0
  9 10  1  0
 10 11  1  0
 11 12  1  0
M  END
