
     RDKit          3D

 11 12  0  0  0  0  0  0  0  0999 V2000
   -3.3390   -0.4850    1.3710 O   0  0  0  0  0  0  0  0  0  0  0  0
   -2.4140   -0.3060    0.6130 C   0  0  0  0  0  0  0  0  0  0  0  0
   -1.6400   -1.4390    0.1280 C   0  0  0  0  0  0  0  0  0  0  0  0
   -0.4540   -1.0880   -0.7060 C   0  0  0  0  0  0  0  0  0  0  0  0
    0.2270    0.1950   -0.3180 C   0  0  1  0  0  0  0  0  0  0  0  0
    1.0800   -0.0500    0.9110 C   0  0  0  0  0  0  0  0  0  0  0  0
    2.5110    0.0770    0.4420 C   0  0  0  0  0  0  0  0  0  0  0  0
    2.3520    0.1710   -1.0440 C   0  0  0  0  0  0  0  0  0  0  0  0
    1.0860    0.5270   -1.3490 O   0  0  0  0  0  0  0  0  0  0  0  0
   -0.6840    1.3470   -0.1030 C   0  0  0  0  0  0  0  0  0  0  0  0
   -2.0950    1.0540    0.2020 C   0  0  0  0  0  0  0  0  0  0  0  0
  1  2  2  0
  2  3  1  0
  2 11  1  0
  3  4  1  0
  5  4  1  6
  5  6  1  0
  5  9  1  0
  5 10  1  0
  6  7  1  0
  7  8  1  0
  8  9  1  0
 10 11  1  0
M  END
