
     RDKit          3D

 19 21  0  0  0  0  0  0  0  0999 V2000
    0.5430    2.9360   -0.8940 N   0  0  0  0  0  0  0  0  0  0  0  0
    0.1370    1.6470   -0.4840 C   0  0  0  0  0  0  0  0  0  0  0  0
   -1.2200    1.3580   -0.4240 C   0  0  0  0  0  0  0  0  0  0  0  0
   -1.6040    0.1070   -0.0280 C   0  0  0  0  0  0  0  0  0  0  0  0
   -3.0100   -0.1960    0.0400 N   0  0  0  0  0  0  0  0  0  0  0  0
   -3.5990   -1.2150    0.8800 C   0  0  0  0  0  0  0  0  0  0  0  0
   -4.9130   -1.5200    0.2130 C   0  0  0  0  0  0  0  0  0  0  0  0
   -5.3730   -0.1020   -0.1710 C   0  0  0  0  0  0  0  0  0  0  0  0
   -4.0630    0.4200   -0.6670 C   0  0  0  0  0  0  0  0  0  0  0  0
   -3.9570    1.2700   -1.5690 O   0  0  0  0  0  0  0  0  0  0  0  0
   -0.6870   -0.8560    0.3070 C   0  0  0  0  0  0  0  0  0  0  0  0
    0.6740   -0.5920    0.2550 C   0  0  0  0  0  0  0  0  0  0  0  0
    1.0660    0.6670   -0.1440 C   0  0  0  0  0  0  0  0  0  0  0  0
    2.4880    0.9650   -0.2020 C   0  0  0  0  0  0  0  0  0  0  0  0
    3.4070    0.0550    0.1180 C   0  0  0  0  0  0  0  0  0  0  0  0
    4.8240    0.4050    0.0420 C   0  0  0  0  0  0  0  0  0  0  0  0
    5.5900   -0.4160   -0.8730 N   0  0  0  0  0  0  0  0  0  0  0  0
    3.0270   -1.2530    0.5320 N   0  0  0  0  0  0  0  0  0  0  0  0
    1.6650   -1.5640    0.5970 N   0  0  0  0  0  0  0  0  0  0  0  0
  1  2  1  0
  2  3  2  0
  2 13  1  0
  3  4  1  0
  4  5  1  0
  4 11  2  0
  5  6  1  0
  5  9  1  0
  6  7  1  0
  7  8  1  0
  8  9  1  0
  9 10  2  0
 11 12  1  0
 12 13  2  0
 12 19  1  0
 13 14  1  0
 14 15  2  0
 15 16  1  0
 15 18  1  0
 16 17  1  0
 18 19  1  0
M  CHG  1  17   1
M  END
