
     RDKit          3D

 19 21  0  0  0  0  0  0  0  0999 V2000
   -4.8180   -0.6970   -0.7090 N   0  0  0  0  0  0  0  0  0  0  0  0
   -3.4780   -0.9000   -1.1090 C   0  0  0  0  0  0  0  0  0  0  0  0
   -3.2430   -1.6180   -2.2500 N   0  0  0  0  0  0  0  0  0  0  0  0
   -2.0270   -1.8500   -2.7010 C   0  0  0  0  0  0  0  0  0  0  0  0
   -0.9930   -1.3680   -2.0180 N   0  0  0  0  0  0  0  0  0  0  0  0
   -1.1130   -0.6550   -0.8920 C   0  0  0  0  0  0  0  0  0  0  0  0
    0.0170   -0.2030   -0.2070 N   0  0  0  0  0  0  0  0  0  0  0  0
    0.3820   -0.7840    1.0990 C   0  0  0  0  0  0  0  0  0  0  0  0
    1.6750   -1.5860    0.9160 C   0  0  0  0  0  0  0  0  0  0  0  0
    2.4820   -0.9700   -0.2290 C   0  0  0  0  0  0  0  0  0  0  0  0
    2.2950    0.5080   -0.2280 C   0  0  2  0  0  0  0  0  0  0  0  0
    3.3940    1.3100   -0.8530 C   0  0  0  0  0  0  0  0  0  0  0  0
    3.9570    1.5460    0.4450 N   0  0  0  0  0  0  0  0  0  0  0  0
    2.6820    1.2030    1.0410 C   0  0  0  0  0  0  0  0  0  0  0  0
    0.9010    0.8280   -0.7320 C   0  0  0  0  0  0  0  0  0  0  0  0
   -2.3920   -0.4010   -0.4040 C   0  0  0  0  0  0  0  0  0  0  0  0
   -2.4990    0.3640    0.7950 C   0  0  0  0  0  0  0  0  0  0  0  0
   -3.5870    0.6580    1.4430 C   0  0  0  0  0  0  0  0  0  0  0  0
   -3.4850    1.4410    2.6310 O   0  0  0  0  0  0  0  0  0  0  0  0
  1  2  1  0
  2  3  2  0
  2 16  1  0
  3  4  1  0
  4  5  2  0
  5  6  1  0
  6  7  1  0
  6 16  2  0
  7  8  1  0
  7 15  1  0
  8  9  1  0
  9 10  1  0
 11 10  1  1
 11 12  1  0
 11 14  1  0
 11 15  1  0
 12 13  1  0
 13 14  1  0
 16 17  1  0
 17 18  2  3
 18 19  1  0
M  CHG  1  13   1
M  END
