
     RDKit          3D

 19 22  0  0  0  0  0  0  0  0999 V2000
    4.7430    1.3330    0.6240 C   0  0  0  0  0  0  0  0  0  0  0  0
    3.3190    1.0430    0.2660 C   0  0  0  0  0  0  0  0  0  0  0  0
    2.4230    1.9640   -0.1070 N   0  0  0  0  0  0  0  0  0  0  0  0
    1.2830    1.3380   -0.3340 N   0  0  0  0  0  0  0  0  0  0  0  0
    1.3770    0.0190   -0.1250 C   0  0  0  0  0  0  0  0  0  0  0  0
    0.7420   -1.1790   -0.1430 C   0  0  0  0  0  0  0  0  0  0  0  0
   -0.5990   -1.5620   -0.4940 C   0  0  0  0  0  0  0  0  0  0  0  0
   -1.7350   -0.8230   -0.6160 C   0  0  0  0  0  0  0  0  0  0  0  0
   -2.0080    0.6020   -0.4100 C   0  0  1  0  0  0  0  0  0  0  0  0
   -3.5240    0.8870   -0.2440 C   0  0  0  0  0  0  0  0  0  0  0  0
   -3.1250    1.9270    0.7710 C   0  0  0  0  0  0  0  0  0  0  0  0
   -1.8540    1.1220    0.9860 C   0  0  0  0  0  0  0  0  0  0  0  0
   -2.7470   -1.6530   -1.0010 N   0  0  0  0  0  0  0  0  0  0  0  0
   -2.2690   -2.8500   -1.1130 N   0  0  0  0  0  0  0  0  0  0  0  0
   -0.9810   -2.8760   -0.8240 C   0  0  0  0  0  0  0  0  0  0  0  0
   -0.2400   -3.8680   -0.8380 O   0  0  0  0  0  0  0  0  0  0  0  0
    1.6780   -2.1050    0.2340 N   0  0  0  0  0  0  0  0  0  0  0  0
    2.8550   -1.5210    0.4810 C   0  0  0  0  0  0  0  0  0  0  0  0
    2.7130   -0.1800    0.2680 C   0  0  0  0  0  0  0  0  0  0  0  0
  1  2  1  0
  2  3  2  0
  2 19  1  0
  3  4  1  0
  4  5  1  0
  5  6  2  0
  5 19  1  0
  6  7  1  0
  6 17  1  0
  7  8  2  0
  7 15  1  0
  9  8  1  1
  8 13  1  0
  9 10  1  0
  9 12  1  0
 10 11  1  0
 11 12  1  0
 13 14  1  0
 14 15  1  0
 15 16  2  0
 17 18  1  0
 18 19  2  0
M  CHG  1   3   1
M  END
