
     RDKit          3D

 19 21  0  0  0  0  0  0  0  0999 V2000
   -1.7880   -1.5940    1.9790 C   0  0  0  0  0  0  0  0  0  0  0  0
   -1.6880   -1.6460    0.4800 C   0  0  1  0  0  0  0  0  0  0  0  0
   -2.9720   -1.8390   -0.1630 N   0  0  0  0  0  0  0  0  0  0  0  0
   -3.6110   -0.5250   -0.0180 C   0  0  0  0  0  0  0  0  0  0  0  0
   -2.4350    0.3600   -0.3120 C   0  0  0  0  0  0  0  0  0  0  0  0
   -2.3250    1.6400   -0.7960 C   0  0  0  0  0  0  0  0  0  0  0  0
   -1.0710    2.2310   -0.9780 C   0  0  0  0  0  0  0  0  0  0  0  0
   -0.9800    3.5520   -1.4780 N   0  0  0  0  0  0  0  0  0  0  0  0
   -0.0050    1.4890   -0.6590 N   0  0  0  0  0  0  0  0  0  0  0  0
   -0.0090    0.2550   -0.1890 C   0  0  0  0  0  0  0  0  0  0  0  0
    1.1280   -0.5260    0.1470 N   0  0  0  0  0  0  0  0  0  0  0  0
    2.4730   -0.1310    0.0420 C   0  0  0  0  0  0  0  0  0  0  0  0
    2.9190    1.0870   -0.4060 C   0  0  0  0  0  0  0  0  0  0  0  0
    4.2900    1.3820   -0.4720 C   0  0  0  0  0  0  0  0  0  0  0  0
    5.2380    0.4670   -0.0910 C   0  0  0  0  0  0  0  0  0  0  0  0
    4.7930   -0.7150    0.3440 N   0  0  0  0  0  0  0  0  0  0  0  0
    3.4870   -1.0220    0.4160 C   0  0  0  0  0  0  0  0  0  0  0  0
    3.0650   -2.2760    0.8800 O   0  0  0  0  0  0  0  0  0  0  0  0
   -1.2770   -0.3210   -0.0130 C   0  0  0  0  0  0  0  0  0  0  0  0
  2  1  1  1
  2  3  1  0
  2 19  1  0
  3  4  1  0
  4  5  1  0
  5  6  2  0
  5 19  1  0
  6  7  1  0
  7  8  1  0
  7  9  2  0
  9 10  1  0
 10 11  1  0
 10 19  2  0
 11 12  1  0
 12 13  2  0
 12 17  1  0
 13 14  1  0
 14 15  2  0
 15 16  1  0
 16 17  2  0
 17 18  1  0
M  CHG  1   3   1
M  END
