
     RDKit          3D

 19 21  0  0  0  0  0  0  0  0999 V2000
    0.4000    3.8380   -0.4130 N   0  0  0  0  0  0  0  0  0  0  0  0
   -0.0030    2.6580    0.2620 C   0  0  0  0  0  0  0  0  0  0  0  0
   -0.9930    2.7330    0.9930 O   0  0  0  0  0  0  0  0  0  0  0  0
    0.7330    1.4170    0.0900 C   0  0  0  0  0  0  0  0  0  0  0  0
    1.8980    1.4820   -0.6340 N   0  0  0  0  0  0  0  0  0  0  0  0
    2.6860    0.4330   -0.8420 C   0  0  0  0  0  0  0  0  0  0  0  0
    3.8920    0.2270   -1.5180 C   0  0  0  0  0  0  0  0  0  0  0  0
    4.2220   -1.0590   -1.3870 N   0  0  0  0  0  0  0  0  0  0  0  0
    3.2930   -1.6640   -0.6690 N   0  0  0  0  0  0  0  0  0  0  0  0
    2.3330   -0.7850   -0.3150 C   0  0  0  0  0  0  0  0  0  0  0  0
    1.1710   -0.8730    0.4120 C   0  0  0  0  0  0  0  0  0  0  0  0
    0.8020   -2.1200    0.9580 N   0  0  0  0  0  0  0  0  0  0  0  0
    0.3290    0.2230    0.6400 C   0  0  0  0  0  0  0  0  0  0  0  0
   -0.9270    0.0120    1.3790 C   0  0  0  0  0  0  0  0  0  0  0  0
   -2.1060   -0.2790    0.5180 C   0  0  0  0  0  0  0  0  0  0  0  0
   -2.8450   -1.3730    0.6720 C   0  0  0  0  0  0  0  0  0  0  0  0
   -3.9170   -1.3530   -0.3300 C   0  0  0  0  0  0  0  0  0  0  0  0
   -3.6990   -0.1140   -1.0880 C   0  0  0  0  0  0  0  0  0  0  0  0
   -2.6430    0.4950   -0.5790 C   0  0  0  0  0  0  0  0  0  0  0  0
  1  2  1  0
  2  3  2  0
  2  4  1  0
  4  5  2  0
  4 13  1  0
  5  6  1  0
  6  7  2  0
  6 10  1  0
  7  8  1  0
  8  9  1  0
  9 10  2  0
 10 11  1  0
 11 12  1  0
 11 13  2  0
 13 14  1  0
 14 15  1  0
 15 16  2  0
 15 19  1  0
 16 17  1  0
 17 18  1  0
 18 19  2  0
M  CHG  1   9   1
M  END
