
     RDKit          3D

 11 11  0  0  0  0  0  0  0  0999 V2000
   -1.0730    1.8050   -1.0130 C   0  0  0  0  0  0  0  0  0  0  0  0
   -0.1290    0.9980   -0.2660 N   0  0  0  0  0  0  0  0  0  0  0  0
    1.1340    1.5880    0.0620 C   0  0  0  0  0  0  0  0  0  0  0  0
    2.3070    0.9750    0.2890 C   0  0  0  0  0  0  0  0  0  0  0  0
    2.6320   -0.4450    0.2680 C   0  0  0  0  0  0  0  0  0  0  0  0
    1.7460   -1.4350    0.2830 C   0  0  0  0  0  0  0  0  0  0  0  0
    0.2870   -1.3810    0.3220 C   0  0  0  0  0  0  0  0  0  0  0  0
   -0.5190   -0.3260    0.0840 C   0  0  0  0  0  0  0  0  0  0  0  0
   -1.9380   -0.5580    0.1920 C   0  0  0  0  0  0  0  0  0  0  0  0
   -2.4230   -1.8490    0.5290 N   0  0  0  0  0  0  0  0  0  0  0  0
   -2.7690    0.3470   -0.0020 O   0  0  0  0  0  0  0  0  0  0  0  0
  1  2  1  0
  2  3  1  0
  2  8  1  0
  3  4  2  0
  4  5  1  0
  5  6  2  0
  6  7  1  0
  7  8  2  0
  8  9  1  0
  9 10  1  0
  9 11  2  0
M  END
