
     RDKit          3D

 11 11  0  0  0  0  0  0  0  0999 V2000
    2.7540    1.2320   -0.9110 C   0  0  0  0  0  0  0  0  0  0  0  0
    1.6460    0.5890   -0.5550 C   0  0  0  0  0  0  0  0  0  0  0  0
    1.3750   -0.7740   -0.9730 C   0  0  0  0  0  0  0  0  0  0  0  0
    2.3090   -1.4540   -1.7830 N   0  0  0  0  0  0  0  0  0  0  0  0
    0.2690   -1.3690   -0.5980 C   0  0  0  0  0  0  0  0  0  0  0  0
   -0.7190   -0.7540    0.2150 N   0  0  0  0  0  0  0  0  0  0  0  0
   -2.0110   -0.3360   -0.2970 C   0  0  0  0  0  0  0  0  0  0  0  0
   -2.1630    1.1220   -0.0350 C   0  0  0  0  0  0  0  0  0  0  0  0
   -1.5980    1.6110    1.0800 O   0  0  0  0  0  0  0  0  0  0  0  0
   -1.1960    0.7780    2.0590 C   0  0  0  0  0  0  0  0  0  0  0  0
   -0.5320   -0.4870    1.6310 C   0  0  0  0  0  0  0  0  0  0  0  0
  1  2  2  0
  2  3  1  0
  3  4  1  0
  3  5  2  3
  5  6  1  0
  6  7  1  0
  6 11  1  0
  7  8  1  0
  8  9  1  0
  9 10  1  0
 10 11  1  0
M  END
