
     RDKit          3D

 11 12  0  0  0  0  0  0  0  0999 V2000
    3.1830    0.0170    0.3030 C   0  0  0  0  0  0  0  0  0  0  0  0
    1.9810   -0.4380   -0.0560 C   0  0  0  0  0  0  0  0  0  0  0  0
    1.6800   -1.5510   -0.7210 N   0  0  0  0  0  0  0  0  0  0  0  0
    0.3570   -1.6010   -0.8580 C   0  0  0  0  0  0  0  0  0  0  0  0
   -0.2600   -2.5430   -1.4500 O   0  0  0  0  0  0  0  0  0  0  0  0
   -0.2510   -0.5210   -0.2880 N   0  0  0  0  0  0  0  0  0  0  0  0
   -1.6640   -0.3220   -0.2880 C   0  0  2  0  0  0  0  0  0  0  0  0
   -2.3200    1.0010   -0.5190 C   0  0  0  0  0  0  0  0  0  0  0  0
   -2.4640    0.2660    0.7750 C   0  0  0  0  0  0  0  0  0  0  0  0
    0.7620    0.1950    0.2070 C   0  0  0  0  0  0  0  0  0  0  0  0
    0.6970    1.3310    0.8550 C   0  0  0  0  0  0  0  0  0  0  0  0
  1  2  2  0
  2  3  1  0
  2 10  1  0
  3  4  1  0
  4  5  2  0
  4  6  1  0
  7  6  1  1
  6 10  1  0
  7  8  1  0
  7  9  1  0
  8  9  1  0
 10 11  2  0
M  END
