
     RDKit          3D

 11 12  0  0  0  0  0  0  0  0999 V2000
   -3.2000    0.5960   -0.6280 C   0  0  0  0  0  0  0  0  0  0  0  0
   -1.8040    0.2210   -0.2620 C   0  0  0  0  0  0  0  0  0  0  0  0
   -1.5710   -0.8220    0.6130 C   0  0  0  0  0  0  0  0  0  0  0  0
   -0.3170   -1.2230    0.9950 C   0  0  0  0  0  0  0  0  0  0  0  0
    0.7680   -0.5460    0.4750 C   0  0  0  0  0  0  0  0  0  0  0  0
    2.1070   -0.6240    0.5920 N   0  0  0  0  0  0  0  0  0  0  0  0
    2.7040    0.3160   -0.1650 C   0  0  0  0  0  0  0  0  0  0  0  0
    3.9890    0.4940   -0.2630 N   0  0  0  0  0  0  0  0  0  0  0  0
    1.7100    1.0500   -0.8130 C   0  0  0  0  0  0  0  0  0  0  0  0
    0.4800    0.5490   -0.4450 C   0  0  0  0  0  0  0  0  0  0  0  0
   -0.7740    0.8620   -0.7540 O   0  0  0  0  0  0  0  0  0  0  0  0
  1  2  1  0
  2  3  2  0
  2 11  1  0
  3  4  1  0
  4  5  2  0
  5  6  1  0
  5 10  1  0
  6  7  1  0
  7  8  2  0
  7  9  1  0
  9 10  2  0
 10 11  1  0
M  END
