
     RDKit          3D

 11 12  0  0  0  0  0  0  0  0999 V2000
    3.4970   -1.1800    0.2210 O   0  0  0  0  0  0  0  0  0  0  0  0
    2.4230   -0.5280    0.1530 C   0  0  0  0  0  0  0  0  0  0  0  0
    2.3860    0.8510    0.1510 C   0  0  0  0  0  0  0  0  0  0  0  0
    1.2390    1.5530    0.0790 N   0  0  0  0  0  0  0  0  0  0  0  0
    0.0800    0.8750    0.0050 C   0  0  0  0  0  0  0  0  0  0  0  0
   -1.1530    1.5280   -0.0720 C   0  0  0  0  0  0  0  0  0  0  0  0
   -2.3280    0.8130   -0.1470 C   0  0  0  0  0  0  0  0  0  0  0  0
   -2.3120   -0.5660   -0.1460 C   0  0  0  0  0  0  0  0  0  0  0  0
   -1.0970   -1.2490   -0.0700 C   0  0  0  0  0  0  0  0  0  0  0  0
    0.0670   -0.5050    0.0040 C   0  0  0  0  0  0  0  0  0  0  0  0
    1.2460   -1.1770    0.0780 N   0  0  0  0  0  0  0  0  0  0  0  0
  1  2  2  0
  2  3  1  0
  2 11  1  0
  3  4  2  0
  4  5  1  0
  5  6  2  0
  5 10  1  0
  6  7  1  0
  7  8  2  0
  8  9  1  0
  9 10  2  0
 10 11  1  0
M  END
