
     RDKit          3D

 10 11  0  0  0  0  0  0  0  0999 V2000
    0.9620    2.5390   -0.0690 O   0  0  0  0  0  0  0  0  0  0  0  0
    0.9450    1.2820    0.0050 C   0  0  0  0  0  0  0  0  0  0  0  0
    2.0810    0.5560    0.1460 N   0  0  0  0  0  0  0  0  0  0  0  0
    2.0680   -0.7880    0.2260 C   0  0  0  0  0  0  0  0  0  0  0  0
    0.8440   -1.4250    0.1580 C   0  0  0  0  0  0  0  0  0  0  0  0
   -0.3280   -0.7040    0.0140 C   0  0  0  0  0  0  0  0  0  0  0  0
   -1.6720   -1.0250   -0.0830 C   0  0  0  0  0  0  0  0  0  0  0  0
   -2.4330    0.1190   -0.2170 C   0  0  0  0  0  0  0  0  0  0  0  0
   -1.5540    1.1380   -0.2030 N   0  0  0  0  0  0  0  0  0  0  0  0
   -0.2940    0.6810   -0.0660 C   0  0  0  0  0  0  0  0  0  0  0  0
  1  2  2  0
  2  3  1  0
  2 10  1  0
  3  4  1  0
  4  5  2  0
  5  6  1  0
  6  7  1  0
  6 10  2  0
  7  8  2  0
  8  9  1  0
  9 10  1  0
M  END
