
     RDKit          3D

 23 24  0  0  0  0  0  0  0  0999 V2000
   -4.6340    1.6050    1.7860 O   0  0  0  0  0  0  0  0  0  0  0  0
   -3.2890    1.7040    1.4380 C   0  0  0  0  0  0  0  0  0  0  0  0
   -2.6880    0.3100    1.1930 C   0  0  2  0  0  0  0  0  0  0  0  0
   -1.4020    0.4750    0.8650 O   0  0  0  0  0  0  0  0  0  0  0  0
   -0.8500   -0.2270   -0.1550 C   0  0  2  0  0  0  0  0  0  0  0  0
    0.4130    0.2440   -0.3200 O   0  0  0  0  0  0  0  0  0  0  0  0
    1.4660   -0.5830   -0.0980 C   0  0  2  0  0  0  0  0  0  0  0  0
    2.3420   -0.0190    0.9660 C   0  0  1  0  0  0  0  0  0  0  0  0
    2.7830   -1.0920    1.9700 C   0  0  0  0  0  0  0  0  0  0  0  0
    3.6060   -2.0320    1.4000 O   0  0  0  0  0  0  0  0  0  0  0  0
    3.4920    0.5920    0.5080 O   0  0  0  0  0  0  0  0  0  0  0  0
    3.2200    1.3500   -0.6250 C   0  0  1  0  0  0  0  0  0  0  0  0
    4.2200    2.2480   -0.9180 O   0  0  0  0  0  0  0  0  0  0  0  0
    3.0980    0.3600   -1.7660 C   0  0  1  0  0  0  0  0  0  0  0  0
    4.3910   -0.1690   -1.9700 O   0  0  0  0  0  0  0  0  0  0  0  0
    2.1910   -0.7640   -1.4320 C   0  0  1  0  0  0  0  0  0  0  0  0
    2.8140   -1.9990   -1.5070 O   0  0  0  0  0  0  0  0  0  0  0  0
   -1.7370   -0.1850   -1.3600 C   0  0  2  0  0  0  0  0  0  0  0  0
   -2.0140    1.1130   -1.7720 O   0  0  0  0  0  0  0  0  0  0  0  0
   -3.0140   -0.9240   -0.9870 C   0  0  2  0  0  0  0  0  0  0  0  0
   -3.9110   -0.8570   -2.0470 O   0  0  0  0  0  0  0  0  0  0  0  0
   -3.5760   -0.4650    0.3150 C   0  0  2  0  0  0  0  0  0  0  0  0
   -4.7360    0.2870    0.0140 O   0  0  0  0  0  0  0  0  0  0  0  0
  1  2  1  0
  3  2  1  6
  3  4  1  0
  3 22  1  0
  4  5  1  0
  5  6  1  6
  5 18  1  0
  7  6  1  6
  7  8  1  0
  7 16  1  0
  8  9  1  1
  8 11  1  0
  9 10  1  0
 11 12  1  0
 12 13  1  6
 12 14  1  0
 14 15  1  1
 14 16  1  0
 16 17  1  1
 18 19  1  1
 18 20  1  0
 20 21  1  6
 20 22  1  0
 22 23  1  6
M  END
