
     RDKit          3D

 13 12  0  0  0  0  0  0  0  0999 V2000
   -3.1020   -1.9770   -0.9390 C   0  0  0  0  0  0  0  0  0  0  0  0
   -1.9140   -1.2660   -1.2130 O   0  0  0  0  0  0  0  0  0  0  0  0
   -0.7950   -1.3970   -0.3310 C   0  0  0  0  0  0  0  0  0  0  0  0
   -0.3460   -2.6180   -0.2090 C   0  0  0  0  0  0  0  0  0  0  0  0
    0.7240   -2.9040    0.6070 O   0  0  0  0  0  0  0  0  0  0  0  0
   -0.2800   -0.2040    0.3200 C   0  0  0  0  0  0  0  0  0  0  0  0
   -0.8890    0.9500    0.0890 C   0  0  0  0  0  0  0  0  0  0  0  0
   -0.5030    2.2540    0.6690 C   0  0  0  0  0  0  0  0  0  0  0  0
   -0.1540    3.1650   -0.3910 N   0  0  0  0  0  0  0  0  0  0  0  0
    0.7840   -0.2130    1.1390 O   0  0  0  0  0  0  0  0  0  0  0  0
    2.1410   -0.2500    0.9310 C   0  0  0  0  0  0  0  0  0  0  0  0
    2.5750    0.9600    0.0980 C   0  0  0  0  0  0  0  0  0  0  0  0
    1.9350    0.9640   -1.1300 O   0  0  0  0  0  0  0  0  0  0  0  0
  1  2  1  0
  2  3  1  0
  3  4  2  3
  3  6  1  0
  4  5  1  0
  6  7  2  3
  6 10  1  0
  7  8  1  0
  8  9  1  0
 10 11  1  0
 11 12  1  0
 12 13  1  0
M  END
