
     RDKit          3D

 23 23  0  0  0  0  0  0  0  0999 V2000
   -2.1430    0.5620   -3.2430 O   0  0  0  0  0  0  0  0  0  0  0  0
   -2.1860    1.1120   -2.1420 C   0  0  0  0  0  0  0  0  0  0  0  0
   -1.7690    2.4070   -1.9980 O   0  0  0  0  0  0  0  0  0  0  0  0
   -2.6950    0.3890   -0.9250 C   0  0  2  0  0  0  0  0  0  0  0  0
   -3.7630    1.2260   -0.2920 C   0  0  0  0  0  0  0  0  0  0  0  0
   -4.4110    0.7430    0.8050 O   0  0  0  0  0  0  0  0  0  0  0  0
   -1.5260    0.1550    0.0290 C   0  0  1  0  0  0  0  0  0  0  0  0
   -2.0240   -0.5800    1.2170 C   0  0  0  0  0  0  0  0  0  0  0  0
   -1.0310   -0.9590    2.2820 C   0  0  1  0  0  0  0  0  0  0  0  0
   -1.8530   -1.6050    3.2800 O   0  0  0  0  0  0  0  0  0  0  0  0
   -0.1660   -1.9880    1.9190 O   0  0  0  0  0  0  0  0  0  0  0  0
   -0.4450   -0.6420   -0.6660 C   0  0  0  0  0  0  0  0  0  0  0  0
    0.8040    0.1580   -0.4240 C   0  0  2  0  0  0  0  0  0  0  0  0
    1.3520    0.5730   -1.7970 C   0  0  0  0  0  0  0  0  0  0  0  0
    1.4870   -0.6000   -2.5420 O   0  0  0  0  0  0  0  0  0  0  0  0
    1.7620   -0.6790    0.1220 O   0  0  0  0  0  0  0  0  0  0  0  0
    2.9640   -0.1420    0.4390 C   0  0  1  0  0  0  0  0  0  0  0  0
    3.0060   -0.1460    1.8650 O   0  0  0  0  0  0  0  0  0  0  0  0
    4.1670   -0.9570    0.0200 C   0  0  1  0  0  0  0  0  0  0  0  0
    4.2580   -1.1740   -1.3390 O   0  0  0  0  0  0  0  0  0  0  0  0
    5.3630   -0.3380    0.4100 O   0  0  0  0  0  0  0  0  0  0  0  0
    0.3630    1.2670    0.4200 C   0  0  0  0  0  0  0  0  0  0  0  0
   -0.9740    1.3890    0.3200 O   0  0  0  0  0  0  0  0  0  0  0  0
  1  2  2  0
  2  3  1  0
  2  4  1  0
  4  5  1  1
  4  7  1  0
  5  6  1  0
  7  8  1  1
  7 12  1  0
  7 23  1  0
  8  9  1  0
  9 10  1  1
  9 11  1  0
 12 13  1  0
 13 14  1  6
 13 16  1  0
 13 22  1  0
 14 15  1  0
 16 17  1  0
 17 18  1  1
 17 19  1  0
 19 20  1  6
 19 21  1  0
 22 23  1  0
M  END
