
     RDKit          3D

 22 24  0  0  0  0  0  0  0  0999 V2000
    4.2880    2.5570   -0.2710 O   0  0  0  0  0  0  0  0  0  0  0  0
    3.4170    1.6850   -0.1150 C   0  0  0  0  0  0  0  0  0  0  0  0
    3.1720    1.1710    1.1360 O   0  0  0  0  0  0  0  0  0  0  0  0
    2.5610   -0.0930    1.2260 C   0  0  2  0  0  0  0  0  0  0  0  0
    3.4890   -1.0580    0.8710 O   0  0  0  0  0  0  0  0  0  0  0  0
    1.3550   -0.1000    0.3030 C   0  0  1  0  0  0  0  0  0  0  0  0
    0.7560   -1.4860    0.4350 C   0  0  2  0  0  0  0  0  0  0  0  0
    1.6400   -2.4730    0.0470 O   0  0  0  0  0  0  0  0  0  0  0  0
   -0.5460   -1.6220   -0.3040 C   0  0  1  0  0  0  0  0  0  0  0  0
   -1.0070   -2.9200   -0.1040 O   0  0  0  0  0  0  0  0  0  0  0  0
   -1.5270   -0.6670    0.3350 C   0  0  2  0  0  0  0  0  0  0  0  0
   -2.7760   -0.6770   -0.5280 C   0  0  0  0  0  0  0  0  0  0  0  0
   -3.5110    0.6360   -0.4340 C   0  0  0  0  0  0  0  0  0  0  0  0
   -2.6280    1.8040   -0.7670 C   0  0  0  0  0  0  0  0  0  0  0  0
   -1.3000    1.3650   -0.7930 O   0  0  0  0  0  0  0  0  0  0  0  0
   -1.0280    0.7250    0.4280 C   0  0  1  0  0  0  0  0  0  0  0  0
   -1.8340    1.3970    1.3780 O   0  0  0  0  0  0  0  0  0  0  0  0
    0.3780    0.9020    0.8450 C   0  0  2  0  0  0  0  0  0  0  0  0
    0.7800    2.1920    0.5000 O   0  0  0  0  0  0  0  0  0  0  0  0
    1.6950    0.2410   -1.1130 C   0  0  2  0  0  0  0  0  0  0  0  0
    2.0280   -0.8770   -1.8740 O   0  0  0  0  0  0  0  0  0  0  0  0
    2.6930    1.2290   -1.1900 O   0  0  0  0  0  0  0  0  0  0  0  0
  1  2  2  0
  2  3  1  0
  2 22  1  0
  3  4  1  0
  4  5  1  6
  6  4  1  1
  6  7  1  0
  6 18  1  0
  6 20  1  0
  7  8  1  6
  7  9  1  0
  9 10  1  1
  9 11  1  0
 11 12  1  6
 11 16  1  0
 12 13  1  0
 13 14  1  0
 14 15  1  0
 15 16  1  0
 16 17  1  1
 16 18  1  0
 18 19  1  6
 20 21  1  6
 20 22  1  0
M  END
