
     RDKit          3D

 22 22  0  0  0  0  0  0  0  0999 V2000
   -1.6660   -0.7030    1.8420 O   0  0  0  0  0  0  0  0  0  0  0  0
   -1.9670   -1.1240    0.6960 C   0  0  0  0  0  0  0  0  0  0  0  0
   -2.7910   -2.2340    0.6410 O   0  0  0  0  0  0  0  0  0  0  0  0
   -1.4820   -0.4880   -0.5680 C   0  0  2  0  0  0  0  0  0  0  0  0
   -2.0450   -1.2460   -1.6250 O   0  0  0  0  0  0  0  0  0  0  0  0
   -0.0130   -0.6860   -0.6170 C   0  0  0  0  0  0  0  0  0  0  0  0
    0.8360    0.2310    0.1840 C   0  0  2  0  0  0  0  0  0  0  0  0
    0.9000   -0.2720    1.4800 O   0  0  0  0  0  0  0  0  0  0  0  0
    2.1460   -0.5460    1.9520 C   0  0  1  0  0  0  0  0  0  0  0  0
    2.4580    0.3540    3.0100 O   0  0  0  0  0  0  0  0  0  0  0  0
    2.2850   -1.7950    2.4790 O   0  0  0  0  0  0  0  0  0  0  0  0
    3.2870   -2.5750    1.9960 C   0  0  0  0  0  0  0  0  0  0  0  0
    3.2640   -2.9130    0.5480 C   0  0  0  0  0  0  0  0  0  0  0  0
    2.1240   -3.6060    0.1610 O   0  0  0  0  0  0  0  0  0  0  0  0
    0.2210    1.6080    0.2280 C   0  0  0  0  0  0  0  0  0  0  0  0
   -0.7110    1.7780   -0.9770 C   0  0  2  0  0  0  0  0  0  0  0  0
   -0.1060    1.4790   -2.1700 O   0  0  0  0  0  0  0  0  0  0  0  0
   -1.0300    3.2630   -1.0140 C   0  0  0  0  0  0  0  0  0  0  0  0
    0.2040    3.9170   -1.1720 O   0  0  0  0  0  0  0  0  0  0  0  0
   -1.8990    0.9380   -0.6730 C   0  0  1  0  0  0  0  0  0  0  0  0
   -3.0540    1.1550   -1.6140 C   0  0  0  0  0  0  0  0  0  0  0  0
   -4.1400    0.4170   -1.1470 O   0  0  0  0  0  0  0  0  0  0  0  0
  1  2  2  0
  2  3  1  0
  2  4  1  0
  4  5  1  6
  4  6  1  0
  4 20  1  0
  6  7  1  0
  7  8  1  1
  7 15  1  0
  8  9  1  0
  9 10  1  1
  9 11  1  0
 11 12  1  0
 12 13  1  0
 13 14  1  0
 15 16  1  0
 16 17  1  6
 16 18  1  0
 16 20  1  0
 18 19  1  0
 20 21  1  6
 21 22  1  0
M  END
