
     RDKit          3D

 25 28  0  0  0  0  0  0  0  0999 V2000
   -0.9980   -2.7860   -2.0350 C   0  0  0  0  0  0  0  0  0  0  0  0
   -1.4560   -1.5860   -1.3200 C   0  0  0  0  0  0  0  0  0  0  0  0
   -2.7530   -1.3300   -1.0490 N   0  0  0  0  0  0  0  0  0  0  0  0
   -2.9010   -0.1950   -0.4030 N   0  0  0  0  0  0  0  0  0  0  0  0
   -4.1430    0.3360    0.0200 C   0  0  0  0  0  0  0  0  0  0  0  0
   -4.9900   -0.3200    0.8830 C   0  0  0  0  0  0  0  0  0  0  0  0
   -6.2040    0.1940    1.2960 C   0  0  0  0  0  0  0  0  0  0  0  0
   -6.5590    1.4010    0.8190 N   0  0  0  0  0  0  0  0  0  0  0  0
   -5.7460    2.0850   -0.0410 C   0  0  0  0  0  0  0  0  0  0  0  0
   -4.5340    1.5830   -0.4590 C   0  0  0  0  0  0  0  0  0  0  0  0
   -3.7220    2.2730   -1.3200 F   0  0  0  0  0  0  0  0  0  0  0  0
   -1.6670    0.3080   -0.2440 C   0  0  0  0  0  0  0  0  0  0  0  0
   -1.3340    1.6090    0.4450 C   0  0  0  0  0  0  0  0  0  0  0  0
   -0.7270   -0.5480   -0.8130 C   0  0  0  0  0  0  0  0  0  0  0  0
    0.6960   -0.3570   -0.8280 N   0  0  0  0  0  0  0  0  0  0  0  0
    1.6200   -1.2700   -1.3750 C   0  0  0  0  0  0  0  0  0  0  0  0
    3.0180   -1.1600   -0.8640 C   0  0  0  0  0  0  0  0  0  0  0  0
    3.2540   -1.4760    0.4960 N   0  0  0  0  0  0  0  0  0  0  0  0
    2.7160   -0.5580    1.4340 C   0  0  0  0  0  0  0  0  0  0  0  0
    3.5680    0.6580    1.1790 C   0  0  0  0  0  0  0  0  0  0  0  0
    3.7140    2.0130    1.1460 C   0  0  0  0  0  0  0  0  0  0  0  0
    4.9630    2.3370    0.7740 N   0  0  0  0  0  0  0  0  0  0  0  0
    5.6310    1.1950    0.5640 C   0  0  0  0  0  0  0  0  0  0  0  0
    4.8120    0.1250    0.8010 C   0  0  0  0  0  0  0  0  0  0  0  0
    4.6960   -1.3680    0.8170 C   0  0  0  0  0  0  0  0  0  0  0  0
  1  2  1  0
  2  3  2  0
  2 14  1  0
  3  4  1  0
  4  5  1  0
  4 12  1  0
  5  6  2  0
  5 10  1  0
  6  7  1  0
  7  8  2  0
  8  9  1  0
  9 10  2  0
 10 11  1  0
 12 13  1  0
 12 14  2  0
 14 15  1  0
 15 16  1  0
 16 17  1  0
 17 18  1  0
 18 19  1  0
 18 25  1  0
 19 20  1  0
 20 21  2  0
 20 24  1  0
 21 22  1  0
 22 23  1  0
 23 24  2  0
 24 25  1  0
M  CHG  1   8   1
M  END
