
     RDKit          3D

 25 28  0  0  0  0  0  0  0  0999 V2000
    1.8160    1.9800   -1.9790 N   0  0  0  0  0  0  0  0  0  0  0  0
    0.6620    1.3230   -1.4780 C   0  0  0  0  0  0  0  0  0  0  0  0
   -0.6210    1.5260   -1.7690 N   0  0  0  0  0  0  0  0  0  0  0  0
   -1.4250    0.6960   -1.1140 C   0  0  0  0  0  0  0  0  0  0  0  0
   -2.7730    0.5200   -1.0550 N   0  0  0  0  0  0  0  0  0  0  0  0
   -3.3510   -0.4200   -0.2590 C   0  0  0  0  0  0  0  0  0  0  0  0
   -4.7770   -0.5400   -0.2370 N   0  0  0  0  0  0  0  0  0  0  0  0
   -5.4600   -1.4420    0.6200 C   0  0  0  0  0  0  0  0  0  0  0  0
   -6.7630   -0.9360    1.1990 C   0  0  0  0  0  0  0  0  0  0  0  0
   -7.4660    0.0720    0.3680 C   0  0  0  0  0  0  0  0  0  0  0  0
   -6.5350    1.0720   -0.2940 C   0  0  0  0  0  0  0  0  0  0  0  0
   -5.5600    0.2840   -1.1600 C   0  0  0  0  0  0  0  0  0  0  0  0
   -2.5440   -1.2070    0.4970 C   0  0  0  0  0  0  0  0  0  0  0  0
   -1.1900   -1.0280    0.4370 N   0  0  0  0  0  0  0  0  0  0  0  0
   -0.6230   -0.1030   -0.3450 C   0  0  0  0  0  0  0  0  0  0  0  0
    0.7100    0.2820   -0.5610 C   0  0  0  0  0  0  0  0  0  0  0  0
    1.8260   -0.2800    0.1790 C   0  0  0  0  0  0  0  0  0  0  0  0
    2.9980   -0.6410   -0.6020 N   0  0  0  0  0  0  0  0  0  0  0  0
    4.1320   -0.2380    0.2000 C   0  0  1  0  0  0  0  0  0  0  0  0
    4.9050   -1.3880    0.7530 C   0  0  0  0  0  0  0  0  0  0  0  0
    6.3180   -1.0250    1.0890 C   0  0  0  0  0  0  0  0  0  0  0  0
    6.5100    0.3980    1.5250 C   0  0  1  0  0  0  0  0  0  0  0  0
    7.8820    0.6630    1.5470 F   0  0  0  0  0  0  0  0  0  0  0  0
    5.8570    1.4070    0.6310 C   0  0  0  0  0  0  0  0  0  0  0  0
    5.1040    0.6690   -0.4930 C   0  0  0  0  0  0  0  0  0  0  0  0
  1  2  1  0
  2  3  1  0
  2 16  2  0
  3  4  1  0
  4  5  2  0
  4 15  1  0
  5  6  1  0
  6  7  1  0
  6 13  2  0
  7  8  1  0
  7 12  1  0
  8  9  1  0
  9 10  1  0
 10 11  1  0
 11 12  1  0
 13 14  1  0
 14 15  2  0
 15 16  1  0
 16 17  1  0
 17 18  1  0
 19 18  1  6
 19 20  1  0
 19 25  1  0
 20 21  1  0
 21 22  1  0
 22 23  1  6
 22 24  1  0
 24 25  1  0
M  CHG  1  18   1
M  END
