
     RDKit          3D

 25 27  0  0  0  0  0  0  0  0999 V2000
   -0.7710    2.7040   -1.5960 N   0  0  0  0  0  0  0  0  0  0  0  0
   -0.1640    1.7150   -0.7240 C   0  0  0  0  0  0  0  0  0  0  0  0
    0.9520    1.2700   -0.8330 N   0  0  0  0  0  0  0  0  0  0  0  0
    2.1160    0.5810   -0.6680 C   0  0  0  0  0  0  0  0  0  0  0  0
    3.0490    0.9050    0.4300 C   0  0  0  0  0  0  0  0  0  0  0  0
    2.8660    1.9170    1.3450 C   0  0  0  0  0  0  0  0  0  0  0  0
    3.7720    2.1210    2.2910 N   0  0  0  0  0  0  0  0  0  0  0  0
    4.8870    1.3640    2.3960 C   0  0  0  0  0  0  0  0  0  0  0  0
    5.1030    0.3430    1.4990 C   0  0  0  0  0  0  0  0  0  0  0  0
    4.1710    0.1630    0.5560 N   0  0  0  0  0  0  0  0  0  0  0  0
    2.5060   -0.4460   -1.4840 C   0  0  0  0  0  0  0  0  0  0  0  0
    1.8470   -1.0170   -2.6240 C   0  0  0  0  0  0  0  0  0  0  0  0
    2.3690   -0.5600   -3.8710 F   0  0  0  0  0  0  0  0  0  0  0  0
    0.9170   -1.9270   -2.8040 C   0  0  0  0  0  0  0  0  0  0  0  0
    0.1600   -2.7490   -1.9100 C   0  0  0  0  0  0  0  0  0  0  0  0
   -0.6950   -2.4780   -0.9480 C   0  0  0  0  0  0  0  0  0  0  0  0
   -1.3880   -3.5240   -0.1190 C   0  0  0  0  0  0  0  0  0  0  0  0
   -1.1140   -3.4360    1.2730 N   0  0  0  0  0  0  0  0  0  0  0  0
   -0.9820   -1.0760   -0.6620 C   0  0  0  0  0  0  0  0  0  0  0  0
   -2.3210   -0.7420   -0.0810 C   0  0  0  0  0  0  0  0  0  0  0  0
   -2.3430    0.7400   -0.1240 N   0  0  0  0  0  0  0  0  0  0  0  0
   -3.4670    1.2010    0.6690 C   0  0  0  0  0  0  0  0  0  0  0  0
   -3.1230    2.6000    1.0560 C   0  0  0  0  0  0  0  0  0  0  0  0
   -1.6330    2.6740    0.9470 C   0  0  0  0  0  0  0  0  0  0  0  0
   -1.1540    1.3350    0.3720 C   0  0  2  0  0  0  0  0  0  0  0  0
  1  2  1  0
  2  3  2  0
  2 25  1  0
  3  4  1  0
  4  5  1  0
  4 11  2  0
  5  6  2  0
  5 10  1  0
  6  7  1  0
  7  8  2  0
  8  9  1  0
  9 10  2  0
 11 12  1  0
 12 13  1  0
 12 14  2  0
 14 15  1  0
 15 16  2  0
 16 17  1  0
 16 19  1  0
 17 18  1  0
 19 20  1  0
 20 21  1  0
 21 22  1  0
 21 25  1  0
 22 23  1  0
 23 24  1  0
 25 24  1  6
M  CHG  1  18   1
M  END
