
     RDKit          3D

 25 28  0  0  0  0  0  0  0  0999 V2000
    0.8340   -3.0150    3.2890 N   0  0  0  0  0  0  0  0  0  0  0  0
    1.1260   -2.4980    2.0060 C   0  0  0  0  0  0  0  0  0  0  0  0
    1.8950   -3.2010    1.1290 N   0  0  0  0  0  0  0  0  0  0  0  0
    2.1790   -2.7210   -0.0870 C   0  0  0  0  0  0  0  0  0  0  0  0
    1.7050   -1.4950   -0.5020 C   0  0  0  0  0  0  0  0  0  0  0  0
    0.9190   -0.7660    0.3830 C   0  0  0  0  0  0  0  0  0  0  0  0
    0.4110    0.5310   -0.0370 C   0  0  0  0  0  0  0  0  0  0  0  0
    1.2000    1.6310   -0.3310 C   0  0  0  0  0  0  0  0  0  0  0  0
    2.6610    1.6730   -0.2660 C   0  0  0  0  0  0  0  0  0  0  0  0
    3.2610    1.4680    0.9830 C   0  0  0  0  0  0  0  0  0  0  0  0
    4.6250    1.4870    1.1550 C   0  0  0  0  0  0  0  0  0  0  0  0
    5.4540    1.7160    0.0620 C   0  0  0  0  0  0  0  0  0  0  0  0
    6.8000    1.7420    0.1870 F   0  0  0  0  0  0  0  0  0  0  0  0
    4.8590    1.9170   -1.1640 C   0  0  0  0  0  0  0  0  0  0  0  0
    3.4850    1.8950   -1.3240 C   0  0  0  0  0  0  0  0  0  0  0  0
    0.3430    2.6120   -0.6740 N   0  0  0  0  0  0  0  0  0  0  0  0
   -0.9240    2.1310   -0.5940 C   0  0  0  0  0  0  0  0  0  0  0  0
   -0.8900    0.8450   -0.2000 N   0  0  0  0  0  0  0  0  0  0  0  0
   -2.0250   -0.0360    0.0090 C   0  0  1  0  0  0  0  0  0  0  0  0
   -3.2000    0.6980    0.6180 C   0  0  0  0  0  0  0  0  0  0  0  0
   -4.3000    0.9160   -0.3860 C   0  0  0  0  0  0  0  0  0  0  0  0
   -4.8790   -0.3740   -0.7220 N   0  0  0  0  0  0  0  0  0  0  0  0
   -3.8350   -1.3580   -0.9350 C   0  0  0  0  0  0  0  0  0  0  0  0
   -2.4920   -0.6920   -1.2500 C   0  0  0  0  0  0  0  0  0  0  0  0
    0.6760   -1.3060    1.5780 N   0  0  0  0  0  0  0  0  0  0  0  0
  1  2  1  0
  2  3  2  0
  2 25  1  0
  3  4  1  0
  4  5  2  0
  5  6  1  0
  6  7  1  0
  6 25  2  0
  7  8  2  0
  7 18  1  0
  8  9  1  0
  8 16  1  0
  9 10  2  0
  9 15  1  0
 10 11  1  0
 11 12  2  0
 12 13  1  0
 12 14  1  0
 14 15  2  0
 16 17  2  0
 17 18  1  0
 19 18  1  6
 19 20  1  0
 19 24  1  0
 20 21  1  0
 21 22  1  0
 22 23  1  0
 23 24  1  0
M  CHG  1  22   1
M  END
