
     RDKit          3D

 25 27  0  0  0  0  0  0  0  0999 V2000
    6.0340   -0.4290    0.5880 C   0  0  0  0  0  0  0  0  0  0  0  0
    4.7270   -0.7590   -0.0470 C   0  0  0  0  0  0  0  0  0  0  0  0
    4.5720   -0.9870   -1.3390 C   0  0  0  0  0  0  0  0  0  0  0  0
    3.1550   -1.2670   -1.5330 C   0  0  0  0  0  0  0  0  0  0  0  0
    2.6520   -1.5300   -2.6540 O   0  0  0  0  0  0  0  0  0  0  0  0
    2.4710   -1.1950   -0.2920 N   0  0  0  0  0  0  0  0  0  0  0  0
    1.0790   -1.4020   -0.0460 C   0  0  0  0  0  0  0  0  0  0  0  0
    0.2890   -0.1640   -0.1530 C   0  0  0  0  0  0  0  0  0  0  0  0
    0.9370    1.0210   -0.4650 C   0  0  0  0  0  0  0  0  0  0  0  0
    0.2030    2.1960   -0.5690 C   0  0  0  0  0  0  0  0  0  0  0  0
    0.8160    3.5030   -0.8990 C   0  0  0  0  0  0  0  0  0  0  0  0
   -1.1570    2.1500   -0.3570 C   0  0  0  0  0  0  0  0  0  0  0  0
   -1.9440    3.4030   -0.4670 C   0  0  0  0  0  0  0  0  0  0  0  0
   -1.8080    0.9750   -0.0460 C   0  0  0  0  0  0  0  0  0  0  0  0
   -1.0730   -0.2090    0.0590 C   0  0  0  0  0  0  0  0  0  0  0  0
   -1.6470   -1.4130    0.3640 O   0  0  0  0  0  0  0  0  0  0  0  0
   -2.9620   -1.6610    0.6060 C   0  0  0  0  0  0  0  0  0  0  0  0
   -3.4950   -1.3240    1.7630 C   0  0  0  0  0  0  0  0  0  0  0  0
   -4.9180   -1.5840    2.0440 C   0  0  0  0  0  0  0  0  0  0  0  0
   -5.6100   -2.1970    1.0000 O   0  0  0  0  0  0  0  0  0  0  0  0
   -5.0510   -2.5440   -0.1960 C   0  0  0  0  0  0  0  0  0  0  0  0
   -3.7740   -2.2990   -0.4200 C   0  0  0  0  0  0  0  0  0  0  0  0
   -3.1180   -2.7670   -1.9740 Cl  0  0  0  0  0  0  0  0  0  0  0  0
    3.4740   -0.8680    0.6730 C   0  0  0  0  0  0  0  0  0  0  0  0
    3.3380   -0.6990    1.9130 O   0  0  0  0  0  0  0  0  0  0  0  0
  1  2  1  0
  2  3  2  0
  2 24  1  0
  3  4  1  0
  4  5  2  0
  4  6  1  0
  6  7  1  0
  6 24  1  0
  7  8  1  0
  8  9  2  0
  8 15  1  0
  9 10  1  0
 10 11  1  0
 10 12  2  0
 12 13  1  0
 12 14  1  0
 14 15  2  0
 15 16  1  0
 16 17  1  0
 17 18  2  0
 17 22  1  0
 18 19  1  0
 19 20  1  0
 20 21  1  0
 21 22  2  0
 22 23  1  0
 24 25  2  0
M  END
