
     RDKit          3D

 25 26  0  0  0  0  0  0  0  0999 V2000
    6.7230   -2.0670    1.2430 C   0  0  0  0  0  0  0  0  0  0  0  0
    7.3150   -1.0690    0.3200 C   0  0  0  0  0  0  0  0  0  0  0  0
    6.4980   -0.1500   -0.2680 C   0  0  0  0  0  0  0  0  0  0  0  0
    7.2220    1.0110   -1.3490 Cl  0  0  0  0  0  0  0  0  0  0  0  0
    5.0980   -0.1610    0.0100 C   0  0  0  0  0  0  0  0  0  0  0  0
    4.1490    0.6080   -0.4310 C   0  0  0  0  0  0  0  0  0  0  0  0
    4.2680    1.7180   -1.3550 C   0  0  0  0  0  0  0  0  0  0  0  0
    3.1930    2.4170   -1.7140 C   0  0  0  0  0  0  0  0  0  0  0  0
    1.8440    2.1720   -1.2560 C   0  0  0  0  0  0  0  0  0  0  0  0
    1.6430    1.1850   -0.4160 C   0  0  0  0  0  0  0  0  0  0  0  0
    0.2760    0.9200    0.0620 C   0  0  0  0  0  0  0  0  0  0  0  0
    0.0610   -0.0170    0.8640 O   0  0  0  0  0  0  0  0  0  0  0  0
   -0.7780    1.6870   -0.3570 O   0  0  0  0  0  0  0  0  0  0  0  0
   -2.1070    1.5250    0.0310 C   0  0  0  0  0  0  0  0  0  0  0  0
   -2.6520    0.1890   -0.3250 C   0  0  0  0  0  0  0  0  0  0  0  0
   -1.9160   -0.6380   -0.9110 O   0  0  0  0  0  0  0  0  0  0  0  0
   -4.0280   -0.1640    0.0020 C   0  0  0  0  0  0  0  0  0  0  0  0
   -4.9330    0.6750    0.6510 C   0  0  0  0  0  0  0  0  0  0  0  0
   -6.1430    0.0110    0.7940 C   0  0  0  0  0  0  0  0  0  0  0  0
   -7.3480    0.5900    1.4400 C   0  0  0  0  0  0  0  0  0  0  0  0
   -5.9690   -1.2000    0.2440 N   0  0  0  0  0  0  0  0  0  0  0  0
   -4.7160   -1.3190   -0.2310 C   0  0  0  0  0  0  0  0  0  0  0  0
   -4.1730   -2.5230   -0.9050 C   0  0  0  0  0  0  0  0  0  0  0  0
    2.7430    0.3700    0.0330 C   0  0  0  0  0  0  0  0  0  0  0  0
    2.5780   -0.5840    0.8400 O   0  0  0  0  0  0  0  0  0  0  0  0
  1  2  1  0
  2  3  2  3
  3  4  1  0
  3  5  1  0
  5  6  2  3
  6  7  1  0
  6 24  1  0
  7  8  2  0
  8  9  1  0
  9 10  2  0
 10 11  1  0
 10 24  1  0
 11 12  2  0
 11 13  1  0
 13 14  1  0
 14 15  1  0
 15 16  2  0
 15 17  1  0
 17 18  1  0
 17 22  2  0
 18 19  2  0
 19 20  1  0
 19 21  1  0
 21 22  1  0
 22 23  1  0
 24 25  2  0
M  END
