
     RDKit          3D

 22 25  0  0  0  0  0  0  0  0999 V2000
   -3.1690   -1.9540   -1.2250 C   0  0  0  0  0  0  0  0  0  0  0  0
   -2.5640   -0.9880   -0.3060 N   0  0  0  0  0  0  0  0  0  0  0  0
   -1.4250   -1.1550    0.3900 C   0  0  0  0  0  0  0  0  0  0  0  0
   -0.6160   -2.3980    0.3030 C   0  0  0  0  0  0  0  0  0  0  0  0
    0.5950   -2.3490    1.0550 N   0  0  0  0  0  0  0  0  0  0  0  0
    1.6300   -1.4110    0.7940 C   0  0  0  0  0  0  0  0  0  0  0  0
    2.7810   -1.3610    1.5750 C   0  0  0  0  0  0  0  0  0  0  0  0
    3.7780   -0.4450    1.3060 C   0  0  0  0  0  0  0  0  0  0  0  0
    3.6840    0.4510    0.2670 C   0  0  0  0  0  0  0  0  0  0  0  0
    4.6820    1.3730   -0.0090 C   0  0  0  0  0  0  0  0  0  0  0  0
    4.5450    2.2560   -1.0650 C   0  0  0  0  0  0  0  0  0  0  0  0
    3.4000    2.1970   -1.8320 C   0  0  0  0  0  0  0  0  0  0  0  0
    2.4440    1.2930   -1.5460 N   0  0  0  0  0  0  0  0  0  0  0  0
    2.5590    0.4150   -0.5110 C   0  0  0  0  0  0  0  0  0  0  0  0
    1.5540   -0.5050   -0.2430 C   0  0  0  0  0  0  0  0  0  0  0  0
   -1.2530   -0.0430    1.0870 N   0  0  0  0  0  0  0  0  0  0  0  0
   -2.2600    0.8500    0.8600 C   0  0  0  0  0  0  0  0  0  0  0  0
   -2.5170    2.0840    1.3240 N   0  0  0  0  0  0  0  0  0  0  0  0
   -3.6120    2.7280    0.9080 C   0  0  0  0  0  0  0  0  0  0  0  0
   -4.4690    2.1560    0.0200 C   0  0  0  0  0  0  0  0  0  0  0  0
   -4.2140    0.8900   -0.4640 C   0  0  0  0  0  0  0  0  0  0  0  0
   -3.0800    0.2060   -0.0400 C   0  0  0  0  0  0  0  0  0  0  0  0
  1  2  1  0
  2  3  1  0
  2 22  1  0
  3  4  1  0
  3 16  2  0
  4  5  1  0
  5  6  1  0
  6  7  2  0
  6 15  1  0
  7  8  1  0
  8  9  2  0
  9 10  1  0
  9 14  1  0
 10 11  2  0
 11 12  1  0
 12 13  2  0
 13 14  1  0
 14 15  2  0
 16 17  1  0
 17 18  2  0
 17 22  1  0
 18 19  1  0
 19 20  2  0
 20 21  1  0
 21 22  2  0
M  END
