
     RDKit          3D

 25 27  0  0  0  0  0  0  0  0999 V2000
   -3.1880   -1.8160    1.3510 C   0  0  0  0  0  0  0  0  0  0  0  0
   -3.3450   -0.5360    0.5270 C   0  0  1  0  0  0  0  0  0  0  0  0
   -2.0460   -0.0550    0.3080 O   0  0  0  0  0  0  0  0  0  0  0  0
   -1.7600    1.1060   -0.4100 C   0  0  0  0  0  0  0  0  0  0  0  0
   -2.7590    1.7160   -0.8640 O   0  0  0  0  0  0  0  0  0  0  0  0
   -0.4110    1.5870   -0.6260 C   0  0  0  0  0  0  0  0  0  0  0  0
   -0.2420    2.7470   -1.3520 C   0  0  0  0  0  0  0  0  0  0  0  0
    1.0130    3.2520   -1.5900 C   0  0  0  0  0  0  0  0  0  0  0  0
    2.1340    2.6130   -1.1090 C   0  0  0  0  0  0  0  0  0  0  0  0
    3.7430    3.2850   -1.4300 Cl  0  0  0  0  0  0  0  0  0  0  0  0
    1.9740    1.4620   -0.3890 C   0  0  0  0  0  0  0  0  0  0  0  0
    3.1710    0.7800    0.1230 C   0  0  0  0  0  0  0  0  0  0  0  0
    3.6440    1.0530    1.2610 O   0  0  0  0  0  0  0  0  0  0  0  0
    3.8530   -0.2170   -0.6310 N   0  0  0  0  0  0  0  0  0  0  0  0
    5.0110   -0.8640   -0.1140 C   0  0  0  0  0  0  0  0  0  0  0  0
    6.2140   -0.8510   -0.6640 C   0  0  0  0  0  0  0  0  0  0  0  0
    7.1780   -1.6340    0.1510 C   0  0  0  0  0  0  0  0  0  0  0  0
    6.3300   -2.1020    1.2650 C   0  0  0  0  0  0  0  0  0  0  0  0
    5.0880   -1.6630    1.1150 C   0  0  0  0  0  0  0  0  0  0  0  0
    0.7090    0.9680   -0.1600 C   0  0  0  0  0  0  0  0  0  0  0  0
   -4.0500   -0.9390   -0.7410 C   0  0  0  0  0  0  0  0  0  0  0  0
   -5.4470   -1.3540   -0.3950 C   0  0  0  0  0  0  0  0  0  0  0  0
   -6.2050   -0.3570    0.1580 O   0  0  0  0  0  0  0  0  0  0  0  0
   -5.5130    0.7200    0.6350 C   0  0  0  0  0  0  0  0  0  0  0  0
   -4.2170    0.3880    1.3120 C   0  0  0  0  0  0  0  0  0  0  0  0
  2  1  1  1
  2  3  1  0
  2 21  1  0
  2 25  1  0
  3  4  1  0
  4  5  2  0
  4  6  1  0
  6  7  2  0
  6 20  1  0
  7  8  1  0
  8  9  2  0
  9 10  1  0
  9 11  1  0
 11 12  1  0
 11 20  2  0
 12 13  2  0
 12 14  1  0
 14 15  1  0
 15 16  2  0
 15 19  1  0
 16 17  1  0
 17 18  1  0
 18 19  2  0
 21 22  1  0
 22 23  1  0
 23 24  1  0
 24 25  1  0
M  END
