
     RDKit          3D

 39 42  0  0  0  0  0  0  0  0999 V2000
   -0.7980   -1.7330    0.8220 C   0  0  0  0  0  0  0  0  0  0  0  0
    0.2940   -1.5430   -0.1660 C   0  0  2  0  0  0  0  0  0  0  0  0
    1.0770   -2.8470   -0.2680 C   0  0  0  0  0  0  0  0  0  0  0  0
    1.2040   -0.5040    0.2080 N   0  0  0  0  0  0  0  0  0  0  0  0
    1.6190   -0.5820    1.5820 C   0  0  0  0  0  0  0  0  0  0  0  0
    2.8940    0.1740    1.7830 C   0  0  0  0  0  0  0  0  0  0  0  0
    4.0460   -0.3820    0.9870 C   0  0  0  0  0  0  0  0  0  0  0  0
    3.9220   -1.4480    0.3770 O   0  0  0  0  0  0  0  0  0  0  0  0
    5.2580    0.3420    0.9550 N   0  0  0  0  0  0  0  0  0  0  0  0
    6.4100   -0.0520    0.2430 C   0  0  0  0  0  0  0  0  0  0  0  0
    6.4330   -1.0730   -0.6630 C   0  0  0  0  0  0  0  0  0  0  0  0
    7.5530   -1.3880   -1.3450 N   0  0  0  0  0  0  0  0  0  0  0  0
    8.6870   -0.7180   -1.1680 C   0  0  0  0  0  0  0  0  0  0  0  0
    8.7350    0.3190   -0.2740 C   0  0  0  0  0  0  0  0  0  0  0  0
    9.9400    1.0080   -0.0970 C   0  0  0  0  0  0  0  0  0  0  0  0
   10.0280    2.0450    0.7930 C   0  0  0  0  0  0  0  0  0  0  0  0
    8.8980    2.3700    1.4880 C   0  0  0  0  0  0  0  0  0  0  0  0
    7.6720    1.6930    1.3290 C   0  0  0  0  0  0  0  0  0  0  0  0
    7.6030    0.6650    0.4410 C   0  0  0  0  0  0  0  0  0  0  0  0
   -0.2640   -1.2790   -1.5710 C   0  0  1  0  0  0  0  0  0  0  0  0
   -1.0460   -2.3440   -2.0790 N   0  0  0  0  0  0  0  0  0  0  0  0
   -0.7970    0.1050   -1.7290 C   0  0  0  0  0  0  0  0  0  0  0  0
   -1.8670    0.4920   -0.8570 N   0  0  0  0  0  0  0  0  0  0  0  0
   -1.9870    1.9310   -0.9090 C   0  0  0  0  0  0  0  0  0  0  0  0
   -3.0820    2.4950   -1.7130 C   0  0  0  0  0  0  0  0  0  0  0  0
   -3.4790    1.6570   -2.8960 C   0  0  0  0  0  0  0  0  0  0  0  0
   -3.6520    0.2100   -2.5370 C   0  0  0  0  0  0  0  0  0  0  0  0
   -3.1290   -0.1190   -1.1720 C   0  0  2  0  0  0  0  0  0  0  0  0
   -4.1140    0.2470   -0.0900 C   0  0  0  0  0  0  0  0  0  0  0  0
   -3.7910    0.9800    0.8600 O   0  0  0  0  0  0  0  0  0  0  0  0
   -5.4370   -0.2640   -0.1640 N   0  0  0  0  0  0  0  0  0  0  0  0
   -6.4820   -0.0370    0.7360 C   0  0  0  0  0  0  0  0  0  0  0  0
   -6.3430    0.6750    1.8830 C   0  0  0  0  0  0  0  0  0  0  0  0
   -7.4260    0.8600    2.7560 C   0  0  0  0  0  0  0  0  0  0  0  0
   -7.1810    1.8070    4.2560 S   0  0  0  0  0  0  0  0  0  0  0  0
   -8.6230    0.3520    2.5020 N   0  0  0  0  0  0  0  0  0  0  0  0
   -8.7880   -0.3500    1.3830 C   0  0  0  0  0  0  0  0  0  0  0  0
   -7.7370   -0.5660    0.4750 C   0  0  0  0  0  0  0  0  0  0  0  0
   -8.0370   -1.3010   -0.6290 O   0  0  0  0  0  0  0  0  0  0  0  0
  2  1  1  1
  2  3  1  0
  2  4  1  0
  2 20  1  0
  4  5  1  0
  5  6  1  0
  6  7  1  0
  7  8  2  0
  7  9  1  0
  9 10  1  0
 10 11  2  0
 10 19  1  0
 11 12  1  0
 12 13  2  0
 13 14  1  0
 14 15  2  0
 14 19  1  0
 15 16  1  0
 16 17  2  0
 17 18  1  0
 18 19  2  0
 20 21  1  1
 20 22  1  0
 22 23  1  0
 23 24  1  0
 23 28  1  0
 24 25  1  0
 25 26  1  0
 26 27  1  0
 27 28  1  0
 28 29  1  1
 29 30  2  0
 29 31  1  0
 31 32  1  0
 32 33  2  0
 32 38  1  0
 33 34  1  0
 34 35  1  0
 34 36  2  0
 36 37  1  0
 37 38  2  0
 38 39  1  0
M  CHG  3   4   1  21   1  36   1
M  END
