
     RDKit          3D

 38 40  0  0  0  0  0  0  0  0999 V2000
    9.5050   -3.3390    0.3890 C   0  0  0  0  0  0  0  0  0  0  0  0
    8.5030   -2.4310    1.0220 C   0  0  0  0  0  0  0  0  0  0  0  0
    7.2280   -2.5130    0.3960 O   0  0  0  0  0  0  0  0  0  0  0  0
    6.1940   -1.7240    0.8700 C   0  0  0  0  0  0  0  0  0  0  0  0
    6.4150   -0.9600    1.8380 O   0  0  0  0  0  0  0  0  0  0  0  0
    4.8550   -1.7690    0.2610 C   0  0  0  0  0  0  0  0  0  0  0  0
    3.8490   -0.8560    0.9180 C   0  0  2  0  0  0  0  0  0  0  0  0
    3.6010   -1.1500    2.3590 C   0  0  0  0  0  0  0  0  0  0  0  0
    2.3650    0.0740    2.9170 S   0  0  0  0  0  0  0  0  0  0  0  0
    1.5760    0.8870    1.5270 C   0  0  0  0  0  0  0  0  0  0  0  0
    1.6810    0.1950    0.2210 C   0  0  2  0  0  0  0  0  0  0  0  0
    0.3120   -0.2380   -0.2520 N   0  0  0  0  0  0  0  0  0  0  0  0
   -0.1120    0.3280   -1.4860 C   0  0  0  0  0  0  0  0  0  0  0  0
   -0.7580    1.6650   -1.3780 C   0  0  0  0  0  0  0  0  0  0  0  0
   -0.0270    2.8200   -1.2520 C   0  0  0  0  0  0  0  0  0  0  0  0
   -0.9220    3.8610   -1.1790 C   0  0  0  0  0  0  0  0  0  0  0  0
   -0.7900    5.2460   -1.0470 C   0  0  0  0  0  0  0  0  0  0  0  0
   -1.9050    6.0650   -1.0000 C   0  0  0  0  0  0  0  0  0  0  0  0
   -1.7450    7.4270   -0.8690 O   0  0  0  0  0  0  0  0  0  0  0  0
   -3.1370    5.4590   -1.0870 C   0  0  0  0  0  0  0  0  0  0  0  0
   -3.2880    4.1050   -1.2170 C   0  0  0  0  0  0  0  0  0  0  0  0
   -2.1620    3.2710   -1.2660 C   0  0  0  0  0  0  0  0  0  0  0  0
   -1.9960    1.9860   -1.3810 O   0  0  0  0  0  0  0  0  0  0  0  0
   -0.4360   -1.0920    0.5550 C   0  0  0  0  0  0  0  0  0  0  0  0
    0.2070   -1.3170    1.7170 O   0  0  0  0  0  0  0  0  0  0  0  0
   -1.6670   -1.8030    0.5330 C   0  0  0  0  0  0  0  0  0  0  0  0
   -2.5630   -1.9460   -0.6140 C   0  0  2  0  0  0  0  0  0  0  0  0
   -3.7390   -2.8550   -0.0120 C   0  0  0  0  0  0  0  0  0  0  0  0
   -2.0020   -2.8590   -1.6660 C   0  0  0  0  0  0  0  0  0  0  0  0
   -2.8740   -3.0340   -2.8710 C   0  0  0  0  0  0  0  0  0  0  0  0
   -3.2710   -0.8030   -1.0830 N   0  0  0  0  0  0  0  0  0  0  0  0
   -4.2330   -0.1410   -0.2740 C   0  0  0  0  0  0  0  0  0  0  0  0
   -3.9890    0.6630    0.7210 C   0  0  0  0  0  0  0  0  0  0  0  0
   -5.0320    1.3050    1.5050 C   0  0  0  0  0  0  0  0  0  0  0  0
   -4.7790    2.0790    2.4630 O   0  0  0  0  0  0  0  0  0  0  0  0
   -6.3820    1.0890    1.2270 O   0  0  0  0  0  0  0  0  0  0  0  0
   -7.4200    1.6930    1.9640 C   0  0  0  0  0  0  0  0  0  0  0  0
    2.5290   -1.0350    0.1820 C   0  0  0  0  0  0  0  0  0  0  0  0
  1  2  1  0
  2  3  1  0
  3  4  1  0
  4  5  2  0
  4  6  1  0
  7  6  1  6
  7  8  1  0
  7 38  1  0
  8  9  1  0
  9 10  1  0
 10 11  1  0
 11 12  1  1
 11 38  1  0
 12 13  1  0
 12 24  1  0
 13 14  1  0
 14 15  2  0
 14 23  1  0
 15 16  1  0
 16 17  2  0
 16 22  1  0
 17 18  1  0
 18 19  1  0
 18 20  2  0
 20 21  1  0
 21 22  2  0
 22 23  1  0
 24 25  2  0
 24 26  1  0
 26 27  1  0
 27 28  1  1
 27 29  1  0
 27 31  1  0
 29 30  1  0
 31 32  1  0
 32 33  2  3
 33 34  1  0
 34 35  2  0
 34 36  1  0
 36 37  1  0
M  END
