
     RDKit          3D

 39 42  0  0  0  0  0  0  0  0999 V2000
   -4.7450   -2.6460   -3.1770 C   0  0  0  0  0  0  0  0  0  0  0  0
   -4.6780   -1.6960   -2.0360 C   0  0  0  0  0  0  0  0  0  0  0  0
   -4.5050   -0.3500   -2.2630 C   0  0  0  0  0  0  0  0  0  0  0  0
   -4.4430    0.5410   -1.1710 C   0  0  0  0  0  0  0  0  0  0  0  0
   -4.5580    0.0340    0.0830 C   0  0  0  0  0  0  0  0  0  0  0  0
   -4.7350   -1.3500    0.2810 C   0  0  0  0  0  0  0  0  0  0  0  0
   -4.7970   -2.2290   -0.7710 C   0  0  0  0  0  0  0  0  0  0  0  0
   -4.9830   -3.6890   -0.5680 C   0  0  0  0  0  0  0  0  0  0  0  0
   -5.0830   -4.0190    0.8410 N   0  0  0  0  0  0  0  0  0  0  0  0
   -4.4800    1.1460    1.0660 C   0  0  1  0  0  0  0  0  0  0  0  0
   -3.4120    0.8250    2.0700 C   0  0  0  0  0  0  0  0  0  0  0  0
   -2.0410    0.6110    1.5990 C   0  0  0  0  0  0  0  0  0  0  0  0
   -1.3290    1.6340    0.9440 N   0  0  2  0  0  0  0  0  0  0  0  0
   -0.1830    1.0180    0.2480 C   0  0  0  0  0  0  0  0  0  0  0  0
    0.7920    0.4260    1.1830 C   0  0  0  0  0  0  0  0  0  0  0  0
    1.9900   -0.2370    0.5730 C   0  0  0  0  0  0  0  0  0  0  0  0
    2.9410    0.8970   -0.3650 S   0  0  1  0  0  0  0  0  0  0  0  0
    2.1760    1.4500   -1.5540 O   0  0  0  0  0  0  0  0  0  0  0  0
    3.3950    2.0690    0.4520 O   0  0  0  0  0  0  0  0  0  0  0  0
    4.3470    0.1250   -1.0450 N   0  0  0  0  0  0  0  0  0  0  0  0
    5.1580   -0.3480    0.0710 C   0  0  0  0  0  0  0  0  0  0  0  0
    6.3380   -0.9950   -0.5060 C   0  0  0  0  0  0  0  0  0  0  0  0
    6.6480   -2.2450   -0.3130 C   0  0  0  0  0  0  0  0  0  0  0  0
    7.8670   -2.7580   -0.9580 C   0  0  0  0  0  0  0  0  0  0  0  0
    8.1970   -4.0140   -0.7780 C   0  0  0  0  0  0  0  0  0  0  0  0
    7.3890   -4.8900    0.0350 C   0  0  0  0  0  0  0  0  0  0  0  0
    6.2920   -4.4720    0.6290 C   0  0  0  0  0  0  0  0  0  0  0  0
    5.8700   -3.1040    0.4750 N   0  0  0  0  0  0  0  0  0  0  0  0
   -0.8750    2.7020    1.8070 C   0  0  0  0  0  0  0  0  0  0  0  0
   -0.0110    3.6290    1.0460 C   0  0  0  0  0  0  0  0  0  0  0  0
    1.1490    4.0970    1.6240 C   0  0  0  0  0  0  0  0  0  0  0  0
    2.0020    4.9580    0.9940 C   0  0  0  0  0  0  0  0  0  0  0  0
    1.6830    5.3640   -0.2550 N   0  0  0  0  0  0  0  0  0  0  0  0
    0.5670    4.9520   -0.8880 C   0  0  0  0  0  0  0  0  0  0  0  0
    0.2820    5.4130   -2.2060 N   0  0  0  0  0  0  0  0  0  0  0  0
   -0.2910    4.0730   -0.2300 C   0  0  0  0  0  0  0  0  0  0  0  0
   -4.2610    2.3330    0.2420 C   0  0  0  0  0  0  0  0  0  0  0  0
   -4.0990    3.5140    0.6620 O   0  0  0  0  0  0  0  0  0  0  0  0
   -4.2610    1.9440   -1.1190 N   0  0  0  0  0  0  0  0  0  0  0  0
  1  2  1  0
  2  3  2  0
  2  7  1  0
  3  4  1  0
  4  5  2  0
  4 39  1  0
  5  6  1  0
  5 10  1  0
  6  7  2  0
  7  8  1  0
  8  9  1  0
 10 11  1  1
 10 37  1  0
 11 12  1  0
 13 12  1  1
 13 14  1  0
 13 29  1  0
 14 15  1  0
 15 16  1  0
 17 16  1  1
 17 18  2  0
 17 19  2  0
 17 20  1  0
 20 21  1  0
 21 22  1  0
 22 23  2  3
 23 24  1  0
 23 28  1  0
 24 25  2  0
 25 26  1  0
 26 27  2  0
 27 28  1  0
 29 30  1  0
 30 31  2  0
 30 36  1  0
 31 32  1  0
 32 33  2  0
 33 34  1  0
 34 35  1  0
 34 36  2  0
 37 38  2  0
 37 39  1  0
M  CHG  2   9   1  13   1
M  END
