
     RDKit          3D

 39 42  0  0  0  0  0  0  0  0999 V2000
   -3.6960    1.2170   -2.1570 N   0  0  0  0  0  0  0  0  0  0  0  0
   -4.4880    0.1200   -1.7290 C   0  0  0  0  0  0  0  0  0  0  0  0
   -5.2160   -0.4420   -2.6030 O   0  0  0  0  0  0  0  0  0  0  0  0
   -4.4890   -0.3800   -0.3060 C   0  0  1  0  0  0  0  0  0  0  0  0
   -3.5460    0.4060    0.4270 N   0  0  0  0  0  0  0  0  0  0  0  0
   -2.8070   -0.3390    1.4010 C   0  0  0  0  0  0  0  0  0  0  0  0
   -1.7960   -1.2580    0.8680 C   0  0  0  0  0  0  0  0  0  0  0  0
   -1.2420   -2.2780    1.6500 C   0  0  0  0  0  0  0  0  0  0  0  0
   -0.2920   -3.1380    1.1510 C   0  0  0  0  0  0  0  0  0  0  0  0
    0.1570   -3.0240   -0.1610 C   0  0  0  0  0  0  0  0  0  0  0  0
   -0.3710   -2.0300   -0.9500 C   0  0  0  0  0  0  0  0  0  0  0  0
    0.0470   -1.8490   -2.3460 C   0  0  0  0  0  0  0  0  0  0  0  0
    1.4820   -1.6440   -2.5010 N   0  0  0  0  0  0  0  0  0  0  0  0
    2.1370   -0.4330   -2.1840 C   0  0  0  0  0  0  0  0  0  0  0  0
    1.4830    0.5330   -1.7380 O   0  0  0  0  0  0  0  0  0  0  0  0
    3.5430   -0.2520   -2.3510 N   0  0  0  0  0  0  0  0  0  0  0  0
    4.2260    0.9460   -2.0350 C   0  0  0  0  0  0  0  0  0  0  0  0
    5.2030    0.9210   -1.1370 C   0  0  0  0  0  0  0  0  0  0  0  0
    5.9410    2.1180   -0.7700 C   0  0  0  0  0  0  0  0  0  0  0  0
    6.9020    2.1560    0.1110 C   0  0  0  0  0  0  0  0  0  0  0  0
    7.3580    0.9920    0.8470 C   0  0  0  0  0  0  0  0  0  0  0  0
    6.5930    0.0570    1.4890 C   0  0  0  0  0  0  0  0  0  0  0  0
    7.4620   -0.8920    2.0410 C   0  0  0  0  0  0  0  0  0  0  0  0
    8.7440   -0.4970    1.7130 C   0  0  0  0  0  0  0  0  0  0  0  0
    9.9190   -1.1990    2.0910 N   0  0  0  0  0  0  0  0  0  0  0  0
    8.6680    0.6350    0.9970 N   0  0  0  0  0  0  0  0  0  0  0  0
    5.5500    3.3170   -1.4350 N   0  0  0  0  0  0  0  0  0  0  0  0
    4.4980    3.3440   -2.4030 C   0  0  0  0  0  0  0  0  0  0  0  0
    3.8640    2.1930   -2.6870 C   0  0  0  0  0  0  0  0  0  0  0  0
   -1.3370   -1.1700   -0.4150 C   0  0  0  0  0  0  0  0  0  0  0  0
   -5.8540   -0.0910    0.2110 C   0  0  0  0  0  0  0  0  0  0  0  0
   -6.2860    1.2030    0.3660 C   0  0  0  0  0  0  0  0  0  0  0  0
   -7.5700    1.4760    0.8550 C   0  0  0  0  0  0  0  0  0  0  0  0
   -8.4410    0.4660    1.1970 C   0  0  0  0  0  0  0  0  0  0  0  0
  -10.0500    0.8250    1.8060 S   0  0  1  0  0  0  0  0  0  0  0  0
  -10.8150   -0.4450    1.9770 O   0  0  0  0  0  0  0  0  0  0  0  0
   -9.8820    1.5580    3.1050 O   0  0  0  0  0  0  0  0  0  0  0  0
   -8.0110   -0.8350    1.0420 C   0  0  0  0  0  0  0  0  0  0  0  0
   -6.7340   -1.1030    0.5560 C   0  0  0  0  0  0  0  0  0  0  0  0
  1  2  1  0
  2  3  2  0
  2  4  1  0
  4  5  1  1
  4 31  1  0
  5  6  1  0
  6  7  1  0
  7  8  2  0
  7 30  1  0
  8  9  1  0
  9 10  2  0
 10 11  1  0
 11 12  1  0
 11 30  2  0
 12 13  1  0
 13 14  1  0
 14 15  2  0
 14 16  1  0
 16 17  1  0
 17 18  2  0
 17 29  1  0
 18 19  1  0
 19 20  2  3
 19 27  1  0
 20 21  1  0
 21 22  2  0
 21 26  1  0
 22 23  1  0
 23 24  2  0
 24 25  1  0
 24 26  1  0
 27 28  1  0
 28 29  2  0
 31 32  2  0
 31 39  1  0
 32 33  1  0
 33 34  2  0
 35 34  1  1
 34 38  1  0
 35 36  2  0
 35 37  2  0
 38 39  2  0
M  CHG  1   5   1
M  END
