
     RDKit          3D

 39 42  0  0  0  0  0  0  0  0999 V2000
   10.0970    3.4870    1.9760 C   0  0  0  0  0  0  0  0  0  0  0  0
    9.7930    3.0980    0.2490 S   0  0  0  0  0  0  0  0  0  0  0  0
    8.2780    2.1620    0.1320 C   0  0  0  0  0  0  0  0  0  0  0  0
    7.1000    2.8140   -0.0360 C   0  0  0  0  0  0  0  0  0  0  0  0
    5.9140    2.0950   -0.1300 C   0  0  0  0  0  0  0  0  0  0  0  0
    5.8580    0.7370   -0.0600 C   0  0  0  0  0  0  0  0  0  0  0  0
    4.6570   -0.0330   -0.1340 N   0  0  0  0  0  0  0  0  0  0  0  0
    3.3620    0.4300    0.1000 C   0  0  0  0  0  0  0  0  0  0  0  0
    3.2900    1.6850    0.4230 O   0  0  0  0  0  0  0  0  0  0  0  0
    2.1220   -0.3180    0.0220 C   0  0  0  0  0  0  0  0  0  0  0  0
    0.9260    0.3570    0.2890 C   0  0  0  0  0  0  0  0  0  0  0  0
   -0.3080   -0.2600    0.2350 C   0  0  0  0  0  0  0  0  0  0  0  0
   -1.5090    0.5430    0.5400 C   0  0  0  0  0  0  0  0  0  0  0  0
   -1.4230    1.6770    1.0700 O   0  0  0  0  0  0  0  0  0  0  0  0
   -2.8190    0.0770    0.2500 N   0  0  0  0  0  0  0  0  0  0  0  0
   -4.0230    0.8390    0.5380 C   0  0  1  0  0  0  0  0  0  0  0  0
   -4.6780    1.2880   -0.7200 C   0  0  0  0  0  0  0  0  0  0  0  0
   -4.8920    2.5400   -0.9490 N   0  0  0  0  0  0  0  0  0  0  0  0
   -5.5200    2.9980   -2.1500 C   0  0  0  0  0  0  0  0  0  0  0  0
   -6.6070    2.1090   -2.4660 N   0  0  0  0  0  0  0  0  0  0  0  0
   -6.0230    0.8010   -2.7750 C   0  0  2  0  0  0  0  0  0  0  0  0
   -7.0700   -0.1850   -2.9450 N   0  0  0  0  0  0  0  0  0  0  0  0
   -5.1050    0.3860   -1.7340 N   0  0  0  0  0  0  0  0  0  0  0  0
   -4.9440    0.1200    1.4350 C   0  0  0  0  0  0  0  0  0  0  0  0
   -5.5630    0.7510    2.4950 C   0  0  0  0  0  0  0  0  0  0  0  0
   -6.4140    0.0320    3.3020 C   0  0  0  0  0  0  0  0  0  0  0  0
   -6.6910   -1.3060    3.1110 C   0  0  0  0  0  0  0  0  0  0  0  0
   -6.0540   -1.9090    2.0400 C   0  0  0  0  0  0  0  0  0  0  0  0
   -5.1920   -1.2180    1.2070 C   0  0  0  0  0  0  0  0  0  0  0  0
   -0.3820   -1.5780   -0.0890 C   0  0  0  0  0  0  0  0  0  0  0  0
    0.7640   -2.2740   -0.3570 C   0  0  0  0  0  0  0  0  0  0  0  0
    2.0020   -1.6310   -0.2970 C   0  0  0  0  0  0  0  0  0  0  0  0
    3.1340   -2.3690   -0.5740 O   0  0  0  0  0  0  0  0  0  0  0  0
    3.0090   -3.7300   -0.9060 C   0  0  0  0  0  0  0  0  0  0  0  0
    4.2980   -4.3800   -1.1650 C   0  0  0  0  0  0  0  0  0  0  0  0
    4.3490   -5.7420   -1.5090 N   0  0  0  0  0  0  0  0  0  0  0  0
    5.3670   -3.7310   -1.0830 O   0  0  0  0  0  0  0  0  0  0  0  0
    7.0740    0.0670    0.1140 C   0  0  0  0  0  0  0  0  0  0  0  0
    8.2420    0.7730    0.2060 C   0  0  0  0  0  0  0  0  0  0  0  0
  1  2  1  0
  2  3  1  0
  3  4  2  0
  3 39  1  0
  4  5  1  0
  5  6  2  0
  6  7  1  0
  6 38  1  0
  7  8  1  0
  8  9  2  0
  8 10  1  0
 10 11  2  0
 10 32  1  0
 11 12  1  0
 12 13  1  0
 12 30  2  0
 13 14  2  0
 13 15  1  0
 16 15  1  6
 16 17  1  0
 16 24  1  0
 17 18  2  0
 17 23  1  0
 18 19  1  0
 19 20  1  0
 20 21  1  0
 21 22  1  1
 21 23  1  0
 24 25  2  0
 24 29  1  0
 25 26  1  0
 26 27  2  0
 27 28  1  0
 28 29  2  0
 30 31  1  0
 31 32  2  0
 32 33  1  0
 33 34  1  0
 34 35  1  0
 35 36  1  0
 35 37  2  0
 38 39  2  0
M  CHG  2  18   1  22   1
M  END
