
     RDKit          3D

 24 25  0  0  0  0  0  0  0  0999 V2000
   -1.7410    1.7680    3.4600 O   0  0  0  0  0  0  0  0  0  0  0  0
   -1.9510    1.6770    2.1770 C   0  0  0  0  0  0  0  0  0  0  0  0
   -2.8860    0.7200    1.7870 N   0  0  0  0  0  0  0  0  0  0  0  0
   -2.7000   -0.2570    0.7430 C   0  0  0  0  0  0  0  0  0  0  0  0
   -1.7550   -1.3590    1.1790 C   0  0  0  0  0  0  0  0  0  0  0  0
   -1.3610   -2.1470    0.0070 N   0  0  0  0  0  0  0  0  0  0  0  0
   -2.4190   -2.5720   -0.7500 O   0  0  0  0  0  0  0  0  0  0  0  0
   -2.1070   -3.0470   -1.9160 O   0  0  0  0  0  0  0  0  0  0  0  0
   -0.0270   -2.4860   -0.3330 C   0  0  0  0  0  0  0  0  0  0  0  0
    0.1520   -3.7590   -0.5460 O   0  0  0  0  0  0  0  0  0  0  0  0
    0.9480   -1.5530   -0.4180 O   0  0  0  0  0  0  0  0  0  0  0  0
    1.3020   -0.6130   -1.3430 C   0  0  2  0  0  0  0  0  0  0  0  0
    2.7910   -0.5220   -1.5330 C   0  0  0  0  0  0  0  0  0  0  0  0
    3.5390   -0.1650   -0.4100 O   0  0  0  0  0  0  0  0  0  0  0  0
    3.6430   -0.9090    0.7410 C   0  0  0  0  0  0  0  0  0  0  0  0
    3.0630   -2.0090    0.8760 O   0  0  0  0  0  0  0  0  0  0  0  0
    4.4050   -0.4610    1.8190 O   0  0  0  0  0  0  0  0  0  0  0  0
    0.8110    0.7680   -1.0130 C   0  0  0  0  0  0  0  0  0  0  0  0
    1.1460    1.7300   -1.8890 N   0  0  0  0  0  0  0  0  0  0  0  0
    0.7380    2.9980   -1.7130 C   0  0  0  0  0  0  0  0  0  0  0  0
   -0.0380    3.2660   -0.6000 C   0  0  0  0  0  0  0  0  0  0  0  0
   -0.3720    2.2630    0.2900 C   0  0  0  0  0  0  0  0  0  0  0  0
    0.0810    1.0410    0.0290 N   0  0  0  0  0  0  0  0  0  0  0  0
   -1.1750    2.5850    1.4210 N   0  0  0  0  0  0  0  0  0  0  0  0
  1  2  2  0
  2  3  1  0
  2 24  1  0
  3  4  1  0
  4  5  1  0
  5  6  1  0
  6  7  1  0
  6  9  1  0
  7  8  1  0
  9 10  2  0
  9 11  1  0
 11 12  1  0
 12 13  1  1
 12 18  1  0
 13 14  1  0
 14 15  1  0
 15 16  2  0
 15 17  1  0
 18 19  1  0
 18 23  2  0
 19 20  2  0
 20 21  1  0
 21 22  2  0
 22 23  1  0
 22 24  1  0
M  END
