
     RDKit          3D

 24 24  0  0  0  0  0  0  0  0999 V2000
   -5.3350   -2.4580    0.9850 N   0  0  0  0  0  0  0  0  0  0  0  0
   -4.4480   -2.7460    0.1150 C   0  0  0  0  0  0  0  0  0  0  0  0
   -4.6490   -3.8000   -0.7900 N   0  0  0  0  0  0  0  0  0  0  0  0
   -3.2430   -1.9970    0.0550 N   0  0  0  0  0  0  0  0  0  0  0  0
   -2.1140   -2.6750    0.2400 O   0  0  0  0  0  0  0  0  0  0  0  0
   -3.3000   -0.6180   -0.1900 C   0  0  0  0  0  0  0  0  0  0  0  0
   -4.4670   -0.0650   -0.3560 O   0  0  0  0  0  0  0  0  0  0  0  0
   -2.1760    0.2930   -0.2830 C   0  0  0  0  0  0  0  0  0  0  0  0
   -0.9330   -0.0550   -0.1490 C   0  0  0  0  0  0  0  0  0  0  0  0
    0.2190    0.8600   -0.2410 C   0  0  0  0  0  0  0  0  0  0  0  0
    1.5060    0.3970   -0.0840 O   0  0  0  0  0  0  0  0  0  0  0  0
    2.2070    0.3170    1.1180 C   0  0  0  0  0  0  0  0  0  0  0  0
    3.5910   -0.2580    0.7890 C   0  0  0  0  0  0  0  0  0  0  0  0
    3.4430   -1.5350    0.2120 O   0  0  0  0  0  0  0  0  0  0  0  0
    4.9940   -2.1640   -0.1490 P   0  0  0  0  0  0  0  0  0  0  0  0
    5.1270   -3.8230    0.3340 O   0  0  0  0  0  0  0  0  0  0  0  0
    6.2830   -1.2570    0.5440 O   0  0  0  0  0  0  0  0  0  0  0  0
    0.0050    2.1550   -0.4800 C   0  0  0  0  0  0  0  0  0  0  0  0
    1.1480    2.9810   -0.5580 N   0  0  0  0  0  0  0  0  0  0  0  0
    1.1390    4.3700   -0.8010 C   0  0  0  0  0  0  0  0  0  0  0  0
    0.0700    4.9810   -0.9710 O   0  0  0  0  0  0  0  0  0  0  0  0
    2.3550    5.1000   -0.8570 O   0  0  0  0  0  0  0  0  0  0  0  0
   -1.3400    2.5380   -0.6270 N   0  0  0  0  0  0  0  0  0  0  0  0
   -2.5060    1.7130   -0.5510 C   0  0  0  0  0  0  0  0  0  0  0  0
  1  2  2  0
  2  3  1  0
  2  4  1  0
  4  5  1  0
  4  6  1  0
  6  7  2  0
  6  8  1  0
  8  9  2  0
  8 24  1  0
  9 10  1  0
 10 11  1  0
 10 18  2  0
 11 12  1  0
 12 13  1  0
 13 14  1  0
 14 15  1  0
 15 16  1  0
 15 17  1  0
 18 19  1  0
 18 23  1  0
 19 20  1  0
 20 21  2  0
 20 22  1  0
 23 24  1  0
M  END
