
     RDKit          3D

 20 20  0  0  0  0  0  0  0  0999 V2000
    0.1330    1.4370   -0.0540 O   0  0  0  0  0  0  0  0  0  0  0  0
    0.6580    0.3140    0.0670 C   0  0  0  0  0  0  0  0  0  0  0  0
    2.0720    0.2750    0.5310 C   0  0  0  0  0  0  0  0  0  0  0  0
    2.6260    1.6380    0.7770 C   0  0  0  0  0  0  0  0  0  0  0  0
    4.3780    1.4890    1.3470 P   0  0  0  0  0  0  0  0  0  0  0  0
    4.8230    2.7180    2.4670 O   0  0  0  0  0  0  0  0  0  0  0  0
    4.6370   -0.1820    2.0990 C   0  0  0  0  0  0  0  0  0  0  0  0
    6.0100   -0.4480    2.1710 O   0  0  0  0  0  0  0  0  0  0  0  0
   -0.0860   -0.8400   -0.2320 N   0  0  0  0  0  0  0  0  0  0  0  0
   -1.4270   -0.9010   -0.6760 C   0  0  0  0  0  0  0  0  0  0  0  0
   -2.2430    0.1610   -0.8950 C   0  0  0  0  0  0  0  0  0  0  0  0
   -3.5410   -0.0560   -1.3330 C   0  0  0  0  0  0  0  0  0  0  0  0
   -4.4330    1.0570   -1.5750 C   0  0  0  0  0  0  0  0  0  0  0  0
   -5.6090    0.8650   -1.9710 O   0  0  0  0  0  0  0  0  0  0  0  0
   -4.0570    2.3860   -1.3890 O   0  0  0  0  0  0  0  0  0  0  0  0
   -3.9850   -1.3370   -1.5390 C   0  0  0  0  0  0  0  0  0  0  0  0
   -5.2840   -1.5520   -1.9770 O   0  0  0  0  0  0  0  0  0  0  0  0
   -3.1420   -2.4310   -1.3120 C   0  0  0  0  0  0  0  0  0  0  0  0
   -3.6010   -3.7280   -1.5240 O   0  0  0  0  0  0  0  0  0  0  0  0
   -1.9070   -2.1620   -0.8930 N   0  0  0  0  0  0  0  0  0  0  0  0
  1  2  2  0
  2  3  1  0
  2  9  1  0
  3  4  1  0
  4  5  1  0
  5  6  1  0
  5  7  1  0
  7  8  1  0
  9 10  1  0
 10 11  2  0
 10 20  1  0
 11 12  1  0
 12 13  1  0
 12 16  2  0
 13 14  2  0
 13 15  1  0
 16 17  1  0
 16 18  1  0
 18 19  1  0
 18 20  2  0
M  END
