
     RDKit          3D

 24 24  0  0  0  0  0  0  0  0999 V2000
    2.5650   -0.2920   -2.6150 N   0  0  0  0  0  0  0  0  0  0  0  0
    2.7280    0.7040   -1.5990 C   0  0  0  0  0  0  0  0  0  0  0  0
    3.9180    0.8140   -1.0620 N   0  0  0  0  0  0  0  0  0  0  0  0
    4.9640   -0.0280   -1.4890 C   0  0  0  0  0  0  0  0  0  0  0  0
    5.9620   -0.1870   -0.7550 O   0  0  0  0  0  0  0  0  0  0  0  0
    4.9000   -0.6730   -2.6990 O   0  0  0  0  0  0  0  0  0  0  0  0
    1.6850    1.5390   -1.1700 N   0  0  0  0  0  0  0  0  0  0  0  0
    1.2670    1.5070    0.0510 C   0  0  0  0  0  0  0  0  0  0  0  0
    0.1920    2.4390    0.2940 N   0  0  0  0  0  0  0  0  0  0  0  0
   -0.7900    2.2750    1.2790 C   0  0  0  0  0  0  0  0  0  0  0  0
   -1.0040    3.2640    2.0690 O   0  0  0  0  0  0  0  0  0  0  0  0
   -1.6130    1.0310    1.4810 C   0  0  0  0  0  0  0  0  0  0  0  0
   -3.0510    1.4960    1.4640 C   0  0  0  0  0  0  0  0  0  0  0  0
   -3.9430    0.4750    1.2590 O   0  0  0  0  0  0  0  0  0  0  0  0
   -3.3960   -0.7850    1.1140 C   0  0  0  0  0  0  0  0  0  0  0  0
   -3.0810   -1.1550   -0.2930 C   0  0  0  0  0  0  0  0  0  0  0  0
   -2.0520   -2.1400   -0.4680 N   0  0  0  0  0  0  0  0  0  0  0  0
   -1.2560   -2.7690    0.5210 C   0  0  0  0  0  0  0  0  0  0  0  0
   -1.2880   -4.0650    0.4470 O   0  0  0  0  0  0  0  0  0  0  0  0
   -0.5420   -2.0800    1.4390 O   0  0  0  0  0  0  0  0  0  0  0  0
    0.5560   -1.4230    1.4990 O   0  0  0  0  0  0  0  0  0  0  0  0
    1.2340   -0.3410    1.8350 C   0  0  0  0  0  0  0  0  0  0  0  0
    1.4070   -0.0690    3.0920 O   0  0  0  0  0  0  0  0  0  0  0  0
    1.8540    0.6460    1.0010 N   0  0  0  0  0  0  0  0  0  0  0  0
  1  2  1  0
  2  3  2  3
  2  7  1  0
  3  4  1  0
  4  5  2  0
  4  6  1  0
  7  8  2  3
  8  9  1  0
  8 24  1  0
  9 10  1  0
 10 11  2  0
 10 12  1  0
 12 13  1  0
 13 14  1  0
 14 15  1  0
 15 16  1  0
 16 17  1  0
 17 18  1  0
 18 19  2  0
 18 20  1  0
 20 21  1  0
 21 22  1  0
 22 23  2  0
 22 24  1  0
M  END
