
     RDKit          3D

 24 24  0  0  0  0  0  0  0  0999 V2000
    6.0240    1.3020   -0.3880 C   0  0  0  0  0  0  0  0  0  0  0  0
    5.1610    0.1850   -0.4790 O   0  0  0  0  0  0  0  0  0  0  0  0
    3.7890    0.2820   -0.5390 C   0  0  0  0  0  0  0  0  0  0  0  0
    3.2790    1.4250   -0.5120 O   0  0  0  0  0  0  0  0  0  0  0  0
    2.9090   -0.9040   -0.6340 C   0  0  0  0  0  0  0  0  0  0  0  0
    1.5740   -0.4860   -0.6780 O   0  0  0  0  0  0  0  0  0  0  0  0
    0.5300   -1.3850   -0.7680 C   0  0  0  0  0  0  0  0  0  0  0  0
    0.5570   -2.6540   -1.1150 C   0  0  0  0  0  0  0  0  0  0  0  0
   -0.7500   -3.2310   -1.0790 N   0  0  0  0  0  0  0  0  0  0  0  0
   -1.6070   -2.3510   -0.7150 C   0  0  0  0  0  0  0  0  0  0  0  0
   -2.9530   -2.6290   -0.5920 O   0  0  0  0  0  0  0  0  0  0  0  0
   -3.4430   -3.8450   -0.0610 C   0  0  0  0  0  0  0  0  0  0  0  0
   -2.9760   -4.0500    1.3570 C   0  0  0  0  0  0  0  0  0  0  0  0
   -1.5380   -4.0810    1.3740 N   0  0  0  0  0  0  0  0  0  0  0  0
   -0.8920   -1.1030   -0.4830 C   0  0  0  0  0  0  0  0  0  0  0  0
   -1.4190    0.0160   -0.1030 N   0  0  0  0  0  0  0  0  0  0  0  0
   -0.5570    1.0970    0.0630 O   0  0  0  0  0  0  0  0  0  0  0  0
   -1.0120    2.4030   -0.0230 C   0  0  0  0  0  0  0  0  0  0  0  0
   -0.1670    3.4550   -0.4520 N   0  0  0  0  0  0  0  0  0  0  0  0
   -2.2120    2.6530    0.2910 N   0  0  0  0  0  0  0  0  0  0  0  0
   -2.8470    3.8360    0.2800 O   0  0  0  0  0  0  0  0  0  0  0  0
   -2.1490    5.4040    0.0860 P   0  0  0  0  0  0  0  0  0  0  0  0
   -0.9590    5.7990    1.2530 O   0  0  0  0  0  0  0  0  0  0  0  0
   -3.4150    6.5930    0.1510 O   0  0  0  0  0  0  0  0  0  0  0  0
  1  2  1  0
  2  3  1  0
  3  4  2  0
  3  5  1  0
  5  6  1  0
  6  7  1  0
  7  8  2  0
  7 15  1  0
  8  9  1  0
  9 10  2  0
 10 11  1  0
 10 15  1  0
 11 12  1  0
 12 13  1  0
 13 14  1  0
 15 16  2  3
 16 17  1  0
 17 18  1  0
 18 19  1  0
 18 20  2  3
 20 21  1  0
 21 22  1  0
 22 23  1  0
 22 24  1  0
M  END
