
     RDKit          3D

 11 10  0  0  0  0  0  0  0  0999 V2000
    2.4890   -0.4530    2.1960 O   0  0  0  0  0  0  0  0  0  0  0  0
    2.6520    0.0640    1.0600 C   0  0  0  0  0  0  0  0  0  0  0  0
    3.9190    0.5380    0.6850 O   0  0  0  0  0  0  0  0  0  0  0  0
    1.5710    0.1440    0.2240 O   0  0  0  0  0  0  0  0  0  0  0  0
    0.2990   -0.3430    0.6270 C   0  0  0  0  0  0  0  0  0  0  0  0
   -0.6970   -0.1200   -0.5020 C   0  0  2  0  0  0  0  0  0  0  0  0
   -0.7640    1.3620   -0.7750 C   0  0  0  0  0  0  0  0  0  0  0  0
   -1.6700    1.6840   -1.7590 O   0  0  0  0  0  0  0  0  0  0  0  0
   -1.9340   -0.6020   -0.0900 O   0  0  0  0  0  0  0  0  0  0  0  0
   -2.2990   -1.5980   -0.8710 O   0  0  0  0  0  0  0  0  0  0  0  0
   -2.8130   -2.5220   -0.0750 O   0  0  0  0  0  0  0  0  0  0  0  0
  1  2  2  0
  2  3  1  0
  2  4  1  0
  4  5  1  0
  6  5  1  1
  6  7  1  0
  6  9  1  0
  7  8  1  0
  9 10  1  0
 10 11  1  0
M  END
