
     RDKit          3D

 11 10  0  0  0  0  0  0  0  0999 V2000
   -2.1860   -0.3030   -0.8770 C   0  0  0  0  0  0  0  0  0  0  0  0
   -1.8220   -1.4040   -0.1480 O   0  0  0  0  0  0  0  0  0  0  0  0
   -1.3050   -1.0550    1.0710 C   0  0  0  0  0  0  0  0  0  0  0  0
   -0.0670   -0.1970    0.9960 C   0  0  1  0  0  0  0  0  0  0  0  0
    0.3930    0.0940    2.2890 O   0  0  0  0  0  0  0  0  0  0  0  0
    0.4250    1.3900    2.4160 O   0  0  0  0  0  0  0  0  0  0  0  0
    0.9170   -0.9260    0.3210 O   0  0  0  0  0  0  0  0  0  0  0  0
    1.2930   -0.2820   -0.7920 O   0  0  0  0  0  0  0  0  0  0  0  0
    2.6010    0.1860   -0.9350 C   0  0  0  0  0  0  0  0  0  0  0  0
    3.3770   -0.0350    0.0310 O   0  0  0  0  0  0  0  0  0  0  0  0
    3.0230    0.8480   -2.0570 O   0  0  0  0  0  0  0  0  0  0  0  0
  1  2  1  0
  2  3  1  0
  4  3  1  1
  4  5  1  0
  4  7  1  0
  5  6  1  0
  7  8  1  0
  8  9  1  0
  9 10  2  0
  9 11  1  0
M  END
