
     RDKit          3D

 11 11  0  0  0  0  0  0  0  0999 V2000
   -1.8190   -0.4540    1.3400 C   0  0  0  0  0  0  0  0  0  0  0  0
   -1.0950    0.5720    0.5540 C   0  0  0  0  0  0  0  0  0  0  0  0
   -1.3200    2.3300    0.6520 S   0  0  0  0  0  0  0  0  0  0  0  0
   -0.1360    2.7690   -0.5470 C   0  0  0  0  0  0  0  0  0  0  0  0
    0.3760    1.5610   -0.9660 C   0  0  0  0  0  0  0  0  0  0  0  0
    1.6660    1.5630   -2.2380 Cl  0  0  0  0  0  0  0  0  0  0  0  0
   -0.1220    0.4430   -0.3960 C   0  0  0  0  0  0  0  0  0  0  0  0
    0.3460   -0.9020   -0.7620 N   0  0  0  0  0  0  0  0  0  0  0  0
    1.4280   -1.5160   -0.0860 C   0  0  0  0  0  0  0  0  0  0  0  0
    1.9770   -0.8590    0.8480 O   0  0  0  0  0  0  0  0  0  0  0  0
    1.9220   -2.7570   -0.3620 O   0  0  0  0  0  0  0  0  0  0  0  0
  1  2  1  0
  2  3  1  0
  2  7  2  0
  3  4  1  0
  4  5  2  0
  5  6  1  0
  5  7  1  0
  7  8  1  0
  8  9  1  0
  9 10  2  0
  9 11  1  0
M  END
