
     RDKit          3D

 11 11  0  0  0  0  0  0  0  0999 V2000
    2.0540    0.8400    1.2910 O   0  0  0  0  0  0  0  0  0  0  0  0
    2.1430    0.2030    0.2100 C   0  0  0  0  0  0  0  0  0  0  0  0
    2.4350   -1.1470    0.3000 O   0  0  0  0  0  0  0  0  0  0  0  0
    1.9560    0.8170   -1.1070 C   0  0  0  0  0  0  0  0  0  0  0  0
    0.2880    0.7750   -1.7430 S   0  0  0  0  0  0  0  0  0  0  0  0
   -0.9250    0.1680   -0.5920 C   0  0  0  0  0  0  0  0  0  0  0  0
   -1.3200   -1.1470   -0.4780 C   0  0  0  0  0  0  0  0  0  0  0  0
   -2.2520   -1.2010    0.5030 N   0  0  0  0  0  0  0  0  0  0  0  0
   -2.4450    0.0490    0.9990 C   0  0  0  0  0  0  0  0  0  0  0  0
   -1.6070    0.9400    0.3150 C   0  0  0  0  0  0  0  0  0  0  0  0
   -1.5100    2.6640    0.6170 Cl  0  0  0  0  0  0  0  0  0  0  0  0
  1  2  2  0
  2  3  1  0
  2  4  1  0
  4  5  1  0
  5  6  1  0
  6  7  2  0
  6 10  1  0
  7  8  1  0
  8  9  1  0
  9 10  2  0
 10 11  1  0
M  END
