
     RDKit          3D

 11 11  0  0  0  0  0  0  0  0999 V2000
   -3.5540    0.6130    0.1150 C   0  0  0  0  0  0  0  0  0  0  0  0
   -2.1400    0.5500    0.0790 O   0  0  0  0  0  0  0  0  0  0  0  0
   -1.4960   -0.5920   -0.3100 C   0  0  0  0  0  0  0  0  0  0  0  0
   -2.1740   -1.5930   -0.6370 O   0  0  0  0  0  0  0  0  0  0  0  0
    0.0000   -0.6560   -0.3480 C   0  0  0  0  0  0  0  0  0  0  0  0
    0.9310   -2.0690   -0.8300 S   0  0  0  0  0  0  0  0  0  0  0  0
    2.4800   -1.3640   -0.6120 C   0  0  0  0  0  0  0  0  0  0  0  0
    2.2130   -0.0850   -0.1810 C   0  0  0  0  0  0  0  0  0  0  0  0
    3.3310    0.7980    0.1020 N   0  0  0  0  0  0  0  0  0  0  0  0
    0.9270    0.2470   -0.0560 C   0  0  0  0  0  0  0  0  0  0  0  0
    0.3880    1.8640    0.4900 Cl  0  0  0  0  0  0  0  0  0  0  0  0
  1  2  1  0
  2  3  1  0
  3  4  2  0
  3  5  1  0
  5  6  1  0
  5 10  2  0
  6  7  1  0
  7  8  2  0
  8  9  1  0
  8 10  1  0
 10 11  1  0
M  END
