
     RDKit          3D

 11 11  0  0  0  0  0  0  0  0999 V2000
   -3.5550   -1.4730   -0.3620 O   0  0  0  0  0  0  0  0  0  0  0  0
   -3.3330   -0.2560   -0.1630 C   0  0  0  0  0  0  0  0  0  0  0  0
   -4.7140    0.8070   -0.0480 Cl  0  0  0  0  0  0  0  0  0  0  0  0
   -1.9680    0.2410   -0.0350 C   0  0  0  0  0  0  0  0  0  0  0  0
   -1.7590    1.4570    0.1630 O   0  0  0  0  0  0  0  0  0  0  0  0
   -0.8450   -0.6120   -0.1270 N   0  0  0  0  0  0  0  0  0  0  0  0
    0.5090   -0.2020   -0.0130 C   0  0  0  0  0  0  0  0  0  0  0  0
    1.0390    1.0440    0.2020 C   0  0  0  0  0  0  0  0  0  0  0  0
    2.4260    0.9960    0.2460 C   0  0  0  0  0  0  0  0  0  0  0  0
    2.7450   -0.2950    0.0560 N   0  0  0  0  0  0  0  0  0  0  0  0
    1.6290   -1.0260   -0.1000 C   0  0  0  0  0  0  0  0  0  0  0  0
  1  2  2  0
  2  3  1  0
  2  4  1  0
  4  5  2  0
  4  6  1  0
  6  7  1  0
  7  8  1  0
  7 11  2  0
  8  9  2  0
  9 10  1  0
 10 11  1  0
M  END
