
     RDKit          3D

 10 10  0  0  0  0  0  0  0  0999 V2000
    3.5090    0.0900   -0.0880 C   0  0  0  0  0  0  0  0  0  0  0  0
    2.1070    0.2640   -0.0800 O   0  0  0  0  0  0  0  0  0  0  0  0
    1.2420   -0.8380    0.0060 C   0  0  0  0  0  0  0  0  0  0  0  0
    1.7760   -1.9730    0.0760 O   0  0  0  0  0  0  0  0  0  0  0  0
   -0.1980   -0.6530    0.0130 C   0  0  0  0  0  0  0  0  0  0  0  0
   -0.9130    0.4390   -0.0520 C   0  0  0  0  0  0  0  0  0  0  0  0
   -0.2390    1.7150   -0.1470 N   0  0  0  0  0  0  0  0  0  0  0  0
   -2.3340    0.3350   -0.0260 C   0  0  0  0  0  0  0  0  0  0  0  0
   -2.8410   -0.9940    0.3010 C   0  0  0  0  0  0  0  0  0  0  0  0
   -1.3450   -2.0380    0.1250 S   0  0  0  0  0  0  0  0  0  0  0  0
  1  2  1  0
  2  3  1  0
  3  4  2  0
  3  5  1  0
  5  6  2  0
  5 10  1  0
  6  7  1  0
  6  8  1  0
  8  9  1  0
  9 10  1  0
M  END
