
     RDKit          3D

 36 39  0  0  0  0  0  0  0  0999 V2000
   -5.1190   -4.1100   -1.1050 C   0  0  0  0  0  0  0  0  0  0  0  0
   -3.8100   -3.4370   -1.4540 C   0  0  0  0  0  0  0  0  0  0  0  0
   -2.9920   -3.1190   -0.4670 C   0  0  0  0  0  0  0  0  0  0  0  0
   -3.3200   -3.4080    0.9550 C   0  0  0  0  0  0  0  0  0  0  0  0
   -2.2320   -3.4560    1.7850 O   0  0  0  0  0  0  0  0  0  0  0  0
   -1.3560   -2.3830    1.7120 C   0  0  0  0  0  0  0  0  0  0  0  0
   -1.5680   -1.4950    0.5560 C   0  0  1  0  0  0  0  0  0  0  0  0
   -0.4400   -0.5950    0.3600 N   0  0  0  0  0  0  0  0  0  0  0  0
   -0.6800    0.6300   -0.2640 C   0  0  0  0  0  0  0  0  0  0  0  0
   -1.8990    0.8520   -0.6160 O   0  0  0  0  0  0  0  0  0  0  0  0
    0.2510    1.6790   -0.5640 C   0  0  0  0  0  0  0  0  0  0  0  0
    1.5990    1.6770   -0.4410 C   0  0  0  0  0  0  0  0  0  0  0  0
    2.5410    0.6480   -0.1280 C   0  0  0  0  0  0  0  0  0  0  0  0
    3.3660    0.7070    0.7990 O   0  0  0  0  0  0  0  0  0  0  0  0
    2.6520   -0.5450   -0.8540 N   0  0  0  0  0  0  0  0  0  0  0  0
    3.4920   -1.5450   -0.5160 C   0  0  0  0  0  0  0  0  0  0  0  0
    3.9670   -2.2590   -1.3760 N   0  0  0  0  0  0  0  0  0  0  0  0
    4.8240   -3.2710   -1.2400 N   0  0  0  0  0  0  0  0  0  0  0  0
    5.3660   -3.7530   -0.2180 C   0  0  0  0  0  0  0  0  0  0  0  0
    6.3150   -4.8900   -0.2040 C   0  0  0  0  0  0  0  0  0  0  0  0
    6.6310   -5.2530   -1.5200 O   0  0  0  0  0  0  0  0  0  0  0  0
    5.0620   -3.2120    1.0790 N   0  0  0  0  0  0  0  0  0  0  0  0
    3.5160   -2.4130    1.1490 S   0  0  0  0  0  0  0  0  0  0  0  0
    2.0750    2.9460   -0.8260 C   0  0  0  0  0  0  0  0  0  0  0  0
    1.0590    3.6510   -1.1590 O   0  0  0  0  0  0  0  0  0  0  0  0
   -0.0750    2.9610   -1.0290 C   0  0  0  0  0  0  0  0  0  0  0  0
   -1.3740    3.5140   -1.3370 C   0  0  0  0  0  0  0  0  0  0  0  0
   -2.2160    4.0290   -0.2480 C   0  0  0  0  0  0  0  0  0  0  0  0
   -1.6760    5.1620    0.5410 C   0  0  0  0  0  0  0  0  0  0  0  0
   -2.2760    6.3720    0.4550 C   0  0  0  0  0  0  0  0  0  0  0  0
   -1.5490    7.3170    1.3350 C   0  0  0  0  0  0  0  0  0  0  0  0
   -0.5050    6.4880    1.9500 C   0  0  0  0  0  0  0  0  0  0  0  0
    0.4050    6.9050    2.8540 F   0  0  0  0  0  0  0  0  0  0  0  0
   -0.5940    5.2460    1.4750 C   0  0  0  0  0  0  0  0  0  0  0  0
    0.4280    3.9190    2.0080 Cl  0  0  0  0  0  0  0  0  0  0  0  0
   -1.6690   -2.4370   -0.6820 C   0  0  0  0  0  0  0  0  0  0  0  0
  1  2  1  0
  2  3  2  3
  3  4  1  0
  3 36  1  0
  4  5  1  0
  5  6  1  0
  6  7  1  0
  7  8  1  6
  7 36  1  0
  8  9  1  0
  9 10  2  0
  9 11  1  0
 11 12  1  0
 11 26  2  0
 12 13  1  0
 12 24  2  0
 13 14  2  0
 13 15  1  0
 15 16  1  0
 16 17  2  0
 16 23  1  0
 17 18  1  0
 18 19  2  0
 19 20  1  0
 19 22  1  0
 20 21  1  0
 22 23  1  0
 24 25  1  0
 25 26  1  0
 26 27  1  0
 27 28  1  0
 28 29  1  0
 29 30  2  0
 29 34  1  0
 30 31  1  0
 31 32  1  0
 32 33  1  0
 32 34  2  0
 34 35  1  0
M  END
