
     RDKit          3D

 35 38  0  0  0  0  0  0  0  0999 V2000
   -8.1800    3.2390   -0.4230 C   0  0  0  0  0  0  0  0  0  0  0  0
   -7.2040    2.7020   -1.4430 C   0  0  0  0  0  0  0  0  0  0  0  0
   -6.0780    2.1350   -0.7370 N   0  0  0  0  0  0  0  0  0  0  0  0
   -4.9720    1.5400   -1.3850 C   0  0  0  0  0  0  0  0  0  0  0  0
   -4.9600    1.4970   -2.6370 O   0  0  0  0  0  0  0  0  0  0  0  0
   -3.8400    0.9730   -0.6140 C   0  0  0  0  0  0  0  0  0  0  0  0
   -3.7150    0.9540    0.7520 C   0  0  0  0  0  0  0  0  0  0  0  0
   -2.5290    0.3430    1.0460 C   0  0  0  0  0  0  0  0  0  0  0  0
   -1.9560    0.0010   -0.1600 C   0  0  0  0  0  0  0  0  0  0  0  0
   -0.6530   -0.6880   -0.3440 C   0  0  2  0  0  0  0  0  0  0  0  0
   -0.6980   -2.2740    0.5740 S   0  0  0  0  0  0  0  0  0  0  0  0
   -1.8640   -3.4070   -0.1090 C   0  0  0  0  0  0  0  0  0  0  0  0
   -1.4770   -4.2670   -1.0670 N   0  0  0  0  0  0  0  0  0  0  0  0
   -2.3040   -5.1580   -1.6340 C   0  0  0  0  0  0  0  0  0  0  0  0
   -1.8910   -5.9490   -2.5360 O   0  0  0  0  0  0  0  0  0  0  0  0
   -3.5760   -5.1700   -1.2050 N   0  0  0  0  0  0  0  0  0  0  0  0
   -3.9860   -4.3040   -0.2330 C   0  0  0  0  0  0  0  0  0  0  0  0
   -5.1740   -4.3320    0.1530 O   0  0  0  0  0  0  0  0  0  0  0  0
   -3.1520   -3.4220    0.3240 N   0  0  0  0  0  0  0  0  0  0  0  0
    0.3980    0.1310    0.3200 C   0  0  0  0  0  0  0  0  0  0  0  0
    0.0330    1.1930    0.8850 O   0  0  0  0  0  0  0  0  0  0  0  0
    1.7620   -0.2580    0.3230 N   0  0  0  0  0  0  0  0  0  0  0  0
    2.7250    0.6220    1.0070 C   0  0  1  0  0  0  0  0  0  0  0  0
    3.2520   -0.1720    2.1150 C   0  0  0  0  0  0  0  0  0  0  0  0
    4.5140   -0.4150    2.3260 C   0  0  0  0  0  0  0  0  0  0  0  0
    5.5420    0.1030    1.4450 C   0  0  0  0  0  0  0  0  0  0  0  0
    6.8630   -0.1890    1.7200 C   0  0  0  0  0  0  0  0  0  0  0  0
    7.8340    0.3110    0.8690 C   0  0  0  0  0  0  0  0  0  0  0  0
    9.5140   -0.0580    1.2170 Cl  0  0  0  0  0  0  0  0  0  0  0  0
    7.4690    1.0730   -0.2100 C   0  0  0  0  0  0  0  0  0  0  0  0
    8.5590    1.5930   -1.1040 C   0  0  0  0  0  0  0  0  0  0  0  0
    6.1500    1.3380   -0.4450 C   0  0  0  0  0  0  0  0  0  0  0  0
    5.1160    0.8570    0.3830 C   0  0  0  0  0  0  0  0  0  0  0  0
    3.7170    1.1720    0.0840 C   0  0  0  0  0  0  0  0  0  0  0  0
   -2.7770    0.3990   -1.1000 O   0  0  0  0  0  0  0  0  0  0  0  0
  1  2  1  0
  2  3  1  0
  3  4  1  0
  4  5  2  0
  4  6  1  0
  6  7  2  0
  6 35  1  0
  7  8  1  0
  8  9  2  0
  9 10  1  0
  9 35  1  0
 10 11  1  1
 10 20  1  0
 11 12  1  0
 12 13  2  0
 12 19  1  0
 13 14  1  0
 14 15  2  0
 14 16  1  0
 16 17  1  0
 17 18  2  0
 17 19  1  0
 20 21  2  0
 20 22  1  0
 23 22  1  6
 23 24  1  0
 23 34  1  0
 24 25  2  0
 25 26  1  0
 26 27  2  0
 26 33  1  0
 27 28  1  0
 28 29  1  0
 28 30  2  0
 30 31  1  0
 30 32  1  0
 32 33  2  0
 33 34  1  0
M  END
