
     RDKit          3D

 36 39  0  0  0  0  0  0  0  0999 V2000
   -5.9010    2.9290   -0.8280 C   0  0  0  0  0  0  0  0  0  0  0  0
   -7.0070    1.9890   -1.2350 C   0  0  0  0  0  0  0  0  0  0  0  0
   -7.1020    0.8030   -0.2700 C   0  0  2  0  0  0  0  0  0  0  0  0
   -7.3810    1.2490    1.1250 C   0  0  0  0  0  0  0  0  0  0  0  0
   -6.2060    1.2620    2.0380 C   0  0  0  0  0  0  0  0  0  0  0  0
   -4.9630    1.0550    1.3860 O   0  0  0  0  0  0  0  0  0  0  0  0
   -4.8640    0.0700    0.4160 C   0  0  0  0  0  0  0  0  0  0  0  0
   -5.9380   -0.0740   -0.4320 C   0  0  0  0  0  0  0  0  0  0  0  0
   -5.8740   -1.0590   -1.4250 C   0  0  0  0  0  0  0  0  0  0  0  0
   -6.8770   -1.1710   -2.1920 O   0  0  0  0  0  0  0  0  0  0  0  0
   -4.7900   -1.8450   -1.5470 N   0  0  0  0  0  0  0  0  0  0  0  0
   -3.7270   -1.7260   -0.7340 C   0  0  0  0  0  0  0  0  0  0  0  0
   -2.6190   -2.5290   -0.8610 C   0  0  0  0  0  0  0  0  0  0  0  0
   -1.5680   -2.3470    0.0100 C   0  0  0  0  0  0  0  0  0  0  0  0
   -1.5920   -1.3900    0.9990 C   0  0  0  0  0  0  0  0  0  0  0  0
   -0.5240   -1.1760    1.9130 N   0  0  0  0  0  0  0  0  0  0  0  0
    0.6160   -0.7580    1.5940 C   0  0  0  0  0  0  0  0  0  0  0  0
    1.7350   -0.5130    2.4020 N   0  0  0  0  0  0  0  0  0  0  0  0
    2.9630   -0.4400    1.7420 C   0  0  0  0  0  0  0  0  0  0  0  0
    4.0700   -0.2180    2.3530 O   0  0  0  0  0  0  0  0  0  0  0  0
    2.9290   -0.6310    0.3040 C   0  0  0  0  0  0  0  0  0  0  0  0
    3.8210   -0.9370   -0.5960 C   0  0  0  0  0  0  0  0  0  0  0  0
    3.2370   -1.0460   -2.2820 Cl  0  0  0  0  0  0  0  0  0  0  0  0
    5.2210   -1.2120   -0.3920 C   0  0  0  0  0  0  0  0  0  0  0  0
    5.7150   -1.1780    0.7510 O   0  0  0  0  0  0  0  0  0  0  0  0
    6.1080   -1.5330   -1.4610 N   0  0  0  0  0  0  0  0  0  0  0  0
    7.4970   -1.7990   -1.3020 C   0  0  0  0  0  0  0  0  0  0  0  0
    8.2470   -0.6380   -0.7860 C   0  0  0  0  0  0  0  0  0  0  0  0
    9.4820   -0.8160   -0.5730 O   0  0  0  0  0  0  0  0  0  0  0  0
    7.6880    0.6140   -0.5290 N   0  0  0  0  0  0  0  0  0  0  0  0
    8.4880    1.7330   -0.0070 C   0  0  0  0  0  0  0  0  0  0  0  0
    9.1020    1.4240    1.3220 C   0  0  0  0  0  0  0  0  0  0  0  0
    8.0930    1.1480    2.2340 F   0  0  0  0  0  0  0  0  0  0  0  0
    1.1450   -0.3410   -0.0580 S   0  0  0  0  0  0  0  0  0  0  0  0
   -2.7020   -0.5940    1.1170 C   0  0  0  0  0  0  0  0  0  0  0  0
   -3.7770   -0.7600    0.2470 C   0  0  0  0  0  0  0  0  0  0  0  0
  1  2  1  0
  3  2  1  6
  3  4  1  0
  3  8  1  0
  4  5  1  0
  5  6  1  0
  6  7  1  0
  7  8  2  0
  7 36  1  0
  8  9  1  0
  9 10  2  0
  9 11  1  0
 11 12  1  0
 12 13  2  0
 12 36  1  0
 13 14  1  0
 14 15  2  0
 15 16  1  0
 15 35  1  0
 16 17  2  3
 17 18  1  0
 17 34  1  0
 18 19  1  0
 19 20  2  0
 19 21  1  0
 21 22  2  3
 21 34  1  0
 22 23  1  0
 22 24  1  0
 24 25  2  0
 24 26  1  0
 26 27  1  0
 27 28  1  0
 28 29  2  0
 28 30  1  0
 30 31  1  0
 31 32  1  0
 32 33  1  0
 35 36  2  0
M  END
