
     RDKit          3D

 27 30  0  0  0  0  0  0  0  0999 V2000
    4.3060    1.8880    2.3030 C   0  0  0  0  0  0  0  0  0  0  0  0
    3.7320    0.9530    1.2920 C   0  0  0  0  0  0  0  0  0  0  0  0
    2.9420    1.2430    0.2430 N   0  0  0  0  0  0  0  0  0  0  0  0
    2.6340    0.1460   -0.4280 N   0  0  0  0  0  0  0  0  0  0  0  0
    1.8190    0.1170   -1.5840 C   0  0  0  0  0  0  0  0  0  0  0  0
    2.3710   -0.3460   -2.7770 C   0  0  0  0  0  0  0  0  0  0  0  0
    1.5450   -0.3580   -3.8770 C   0  0  0  0  0  0  0  0  0  0  0  0
    0.2420    0.0520   -3.8490 C   0  0  0  0  0  0  0  0  0  0  0  0
   -0.2570    0.5020   -2.6410 C   0  0  0  0  0  0  0  0  0  0  0  0
    0.5090    0.5450   -1.4950 C   0  0  0  0  0  0  0  0  0  0  0  0
   -0.0080    1.0080   -0.2540 N   0  0  0  0  0  0  0  0  0  0  0  0
   -1.3750    1.4390   -0.2270 C   0  0  0  0  0  0  0  0  0  0  0  0
   -2.4030    0.5700    0.0520 C   0  0  0  0  0  0  0  0  0  0  0  0
   -3.6950    1.0980    0.0520 C   0  0  0  0  0  0  0  0  0  0  0  0
   -3.9030    2.4010   -0.2120 N   0  0  0  0  0  0  0  0  0  0  0  0
   -2.9270    3.2320   -0.4790 N   0  0  0  0  0  0  0  0  0  0  0  0
   -1.6690    2.7710   -0.4900 C   0  0  0  0  0  0  0  0  0  0  0  0
   -0.7110    3.5540   -0.7440 O   0  0  0  0  0  0  0  0  0  0  0  0
   -4.9230    0.3500    0.3230 C   0  0  0  0  0  0  0  0  0  0  0  0
   -4.8840   -0.4640    1.5830 C   0  0  0  0  0  0  0  0  0  0  0  0
   -3.8770   -1.5560    1.5810 C   0  0  0  0  0  0  0  0  0  0  0  0
   -3.1350   -1.7370    0.3040 C   0  0  0  0  0  0  0  0  0  0  0  0
   -1.9180   -0.8110    0.3090 C   0  0  0  0  0  0  0  0  0  0  0  0
    3.2110   -0.9290    0.1540 C   0  0  0  0  0  0  0  0  0  0  0  0
    3.1470   -2.3560   -0.2450 C   0  0  0  0  0  0  0  0  0  0  0  0
    3.9040   -0.4210    1.2400 C   0  0  0  0  0  0  0  0  0  0  0  0
    4.7110   -1.2280    2.2030 C   0  0  0  0  0  0  0  0  0  0  0  0
  1  2  1  0
  2  3  2  0
  2 26  1  0
  3  4  1  0
  4  5  1  0
  4 24  1  0
  5  6  2  0
  5 10  1  0
  6  7  1  0
  7  8  2  0
  8  9  1  0
  9 10  2  0
 10 11  1  0
 11 12  1  0
 12 13  2  0
 12 17  1  0
 13 14  1  0
 13 23  1  0
 14 15  2  0
 14 19  1  0
 15 16  1  0
 16 17  1  0
 17 18  2  0
 19 20  1  0
 20 21  1  0
 21 22  1  0
 22 23  1  0
 24 25  1  0
 24 26  2  0
 26 27  1  0
M  END
