
     RDKit          3D

 27 30  0  0  0  0  0  0  0  0999 V2000
   -2.0230   -0.0590    3.1020 C   0  0  0  0  0  0  0  0  0  0  0  0
   -3.3710   -0.2200    2.6260 C   0  0  0  0  0  0  0  0  0  0  0  0
   -4.0670   -0.3710    1.5680 C   0  0  0  0  0  0  0  0  0  0  0  0
   -5.5530   -0.4870    1.7800 C   0  0  0  0  0  0  0  0  0  0  0  0
   -6.3380   -0.6430    0.7540 C   0  0  0  0  0  0  0  0  0  0  0  0
   -5.9080   -0.7150   -0.5790 N   0  0  0  0  0  0  0  0  0  0  0  0
   -4.5180   -0.6160   -0.8950 C   0  0  0  0  0  0  0  0  0  0  0  0
   -4.1160   -0.6870   -2.1750 N   0  0  0  0  0  0  0  0  0  0  0  0
   -2.8240   -0.6010   -2.5210 C   0  0  0  0  0  0  0  0  0  0  0  0
   -2.3950   -0.6820   -3.9540 C   0  0  0  0  0  0  0  0  0  0  0  0
   -1.9160   -0.4360   -1.5210 C   0  0  0  0  0  0  0  0  0  0  0  0
   -2.3240   -0.3610   -0.1840 C   0  0  0  0  0  0  0  0  0  0  0  0
   -1.3640   -0.1960    0.7680 O   0  0  0  0  0  0  0  0  0  0  0  0
   -0.0040   -0.0970    0.4900 C   0  0  0  0  0  0  0  0  0  0  0  0
    0.7600   -1.2640    0.4580 C   0  0  0  0  0  0  0  0  0  0  0  0
    2.1030   -1.1390    0.1810 C   0  0  0  0  0  0  0  0  0  0  0  0
    2.6940    0.0910   -0.0600 C   0  0  0  0  0  0  0  0  0  0  0  0
    4.0670    0.1350   -0.3350 N   0  0  0  0  0  0  0  0  0  0  0  0
    4.8660    1.0860   -0.0550 C   0  0  0  0  0  0  0  0  0  0  0  0
    6.2630    0.9730   -0.4100 C   0  0  0  0  0  0  0  0  0  0  0  0
    6.8810   -0.1020   -1.0540 C   0  0  0  0  0  0  0  0  0  0  0  0
    8.1860    0.1850   -1.1990 N   0  0  0  0  0  0  0  0  0  0  0  0
    8.4480    1.3790   -0.6880 N   0  0  0  0  0  0  0  0  0  0  0  0
    7.2980    1.8750   -0.2040 C   0  0  0  0  0  0  0  0  0  0  0  0
    1.9490    1.2440   -0.0300 C   0  0  0  0  0  0  0  0  0  0  0  0
    0.5990    1.1150    0.2490 C   0  0  0  0  0  0  0  0  0  0  0  0
   -3.6430   -0.4470    0.1880 C   0  0  0  0  0  0  0  0  0  0  0  0
  1  2  1  0
  2  3  2  3
  3  4  1  0
  3 27  1  0
  4  5  2  0
  5  6  1  0
  6  7  1  0
  7  8  2  0
  7 27  1  0
  8  9  1  0
  9 10  1  0
  9 11  2  0
 11 12  1  0
 12 13  1  0
 12 27  2  0
 13 14  1  0
 14 15  2  0
 14 26  1  0
 15 16  1  0
 16 17  2  0
 17 18  1  0
 17 25  1  0
 18 19  2  3
 19 20  1  0
 20 21  1  0
 20 24  2  0
 21 22  2  0
 22 23  1  0
 23 24  1  0
 25 26  2  0
M  END
