
     RDKit          3D

  9  9  0  0  0  0  0  0  0  0999 V2000
    0.6580    2.1910   -0.8380 C   0  0  0  0  0  0  0  0  0  0  0  0
    0.0310    1.1320   -0.3060 C   0  0  0  0  0  0  0  0  0  0  0  0
   -1.2680    1.2500    0.1470 O   0  0  0  0  0  0  0  0  0  0  0  0
   -2.2570    0.3080   -0.0500 C   0  0  0  0  0  0  0  0  0  0  0  0
   -1.9440   -1.0950    0.4140 C   0  0  0  0  0  0  0  0  0  0  0  0
   -0.3150   -1.6280   -0.1880 S   0  0  0  0  0  0  0  0  0  0  0  0
    0.6900   -0.1520   -0.1920 C   0  0  0  0  0  0  0  0  0  0  0  0
    1.9720   -0.2530   -0.0870 C   0  0  0  0  0  0  0  0  0  0  0  0
    2.6060   -1.5200    0.0250 N   0  0  0  0  0  0  0  0  0  0  0  0
  1  2  2  0
  2  3  1  0
  2  7  1  0
  3  4  1  0
  4  5  1  0
  5  6  1  0
  6  7  1  0
  7  8  2  3
  8  9  1  0
M  END
