
     RDKit          3D

  8  9  0  0  0  0  0  0  0  0999 V2000
    2.3120   -0.0570    0.0310 C   0  0  0  0  0  0  0  0  0  0  0  0
    1.2240   -1.0000   -0.1050 N   0  0  0  0  0  0  0  0  0  0  0  0
   -0.0510   -0.4260   -0.0340 C   0  0  0  0  0  0  0  0  0  0  0  0
   -0.1370    0.8270   -0.3350 C   0  0  0  0  0  0  0  0  0  0  0  0
   -1.5200    1.2680   -0.2130 C   0  0  0  0  0  0  0  0  0  0  0  0
   -2.2090    0.0770   -0.3250 O   0  0  0  0  0  0  0  0  0  0  0  0
   -1.4460   -0.8870    0.3170 C   0  0  0  0  0  0  0  0  0  0  0  0
    1.4980    1.4050   -0.7510 S   0  0  0  0  0  0  0  0  0  0  0  0
  1  2  1  0
  1  8  1  0
  2  3  1  0
  3  4  2  0
  3  7  1  0
  4  5  1  0
  4  8  1  0
  5  6  1  0
  6  7  1  0
M  END
