
     RDKit          3D

  9  9  0  0  0  0  0  0  0  0999 V2000
    1.3060    3.1430    0.4300 N   0  0  0  0  0  0  0  0  0  0  0  0
    0.8030    2.1160    0.2490 C   0  0  0  0  0  0  0  0  0  0  0  0
    0.1760    0.8200    0.0350 C   0  0  0  0  0  0  0  0  0  0  0  0
   -1.1420    0.7310    0.0330 C   0  0  0  0  0  0  0  0  0  0  0  0
   -1.8400   -0.5620   -0.1800 C   0  0  0  0  0  0  0  0  0  0  0  0
   -0.9600   -1.6300   -0.3700 O   0  0  0  0  0  0  0  0  0  0  0  0
    0.4240   -1.5530   -0.3700 C   0  0  0  0  0  0  0  0  0  0  0  0
    0.9920   -0.3700   -0.1750 C   0  0  0  0  0  0  0  0  0  0  0  0
    2.7630   -0.1510   -0.1540 S   0  0  0  0  0  0  0  0  0  0  0  0
  1  2  3  0
  2  3  1  0
  3  4  2  0
  3  8  1  0
  4  5  1  0
  5  6  1  0
  6  7  1  0
  7  8  2  0
  8  9  1  0
M  END
