
     RDKit          3D

 27 30  0  0  0  0  0  0  0  0999 V2000
    2.3380    2.2970    0.4870 C   0  0  0  0  0  0  0  0  0  0  0  0
    3.4090    1.9450    1.0910 C   0  0  0  0  0  0  0  0  0  0  0  0
    4.4280    1.0320    0.7300 C   0  0  0  0  0  0  0  0  0  0  0  0
    5.5100    1.0290    1.5490 C   0  0  0  0  0  0  0  0  0  0  0  0
    6.7240    0.2250    1.4200 C   0  0  0  0  0  0  0  0  0  0  0  0
    7.1780   -0.2460    0.2370 C   0  0  0  0  0  0  0  0  0  0  0  0
    6.5850   -0.0760   -1.0870 N   0  0  0  0  0  0  0  0  0  0  0  0
    5.1400   -0.2430   -1.2640 C   0  0  0  0  0  0  0  0  0  0  0  0
    4.5490   -0.9770   -2.1980 N   0  0  0  0  0  0  0  0  0  0  0  0
    3.2330   -1.0820   -1.8490 C   0  0  0  0  0  0  0  0  0  0  0  0
    3.0220   -0.3830   -0.6570 C   0  0  0  0  0  0  0  0  0  0  0  0
    1.7920   -0.4000    0.1350 C   0  0  0  0  0  0  0  0  0  0  0  0
    1.7540   -0.3170    1.3900 O   0  0  0  0  0  0  0  0  0  0  0  0
    0.5220   -0.5160   -0.5400 N   0  0  0  0  0  0  0  0  0  0  0  0
   -0.6770   -0.5320    0.2210 C   0  0  0  0  0  0  0  0  0  0  0  0
   -1.8680   -0.6360   -0.3400 C   0  0  0  0  0  0  0  0  0  0  0  0
   -1.8840   -0.7360   -1.8210 C   0  0  0  0  0  0  0  0  0  0  0  0
   -3.2980   -0.6120   -2.3410 C   0  0  0  0  0  0  0  0  0  0  0  0
   -3.9700    0.6410   -1.8340 C   0  0  0  0  0  0  0  0  0  0  0  0
   -4.9260    0.3650   -0.7110 C   0  0  0  0  0  0  0  0  0  0  0  0
   -4.2680   -0.2370    0.4220 N   0  0  0  0  0  0  0  0  0  0  0  0
   -4.9860   -0.4520    1.5680 C   0  0  0  0  0  0  0  0  0  0  0  0
   -6.4190   -0.1170    1.7580 C   0  0  0  0  0  0  0  0  0  0  0  0
   -4.1480   -1.0210    2.4820 C   0  0  0  0  0  0  0  0  0  0  0  0
   -2.9140   -1.1500    1.8840 C   0  0  0  0  0  0  0  0  0  0  0  0
   -3.0130   -0.6450    0.5730 C   0  0  0  0  0  0  0  0  0  0  0  0
    4.2030    0.1260   -0.3420 N   0  0  0  0  0  0  0  0  0  0  0  0
  1  2  2  0
  2  3  1  0
  3  4  2  0
  3 27  1  0
  4  5  1  0
  5  6  2  0
  6  7  1  0
  7  8  1  0
  8  9  2  0
  8 27  1  0
  9 10  1  0
 10 11  2  0
 11 12  1  0
 11 27  1  0
 12 13  2  0
 12 14  1  0
 14 15  1  0
 15 16  2  3
 16 17  1  0
 16 26  1  0
 17 18  1  0
 18 19  1  0
 19 20  1  0
 20 21  1  0
 21 22  1  0
 21 26  1  0
 22 23  1  0
 22 24  2  0
 24 25  1  0
 25 26  2  0
M  END
