
     RDKit          3D

 11 12  0  0  0  0  0  0  0  0999 V2000
    2.8400   -0.2790   -0.1110 N   0  0  0  0  0  0  0  0  0  0  0  0
    1.4300   -0.0250   -0.0600 C   0  0  0  0  0  0  0  0  0  0  0  0
    0.9910    1.2810   -0.1030 C   0  0  0  0  0  0  0  0  0  0  0  0
   -0.3720    1.4820   -0.0520 C   0  0  0  0  0  0  0  0  0  0  0  0
   -0.9880    3.1280   -0.1020 Cl  0  0  0  0  0  0  0  0  0  0  0  0
   -1.2970    0.4640    0.0380 C   0  0  0  0  0  0  0  0  0  0  0  0
   -2.6340    0.3760    0.1020 N   0  0  0  0  0  0  0  0  0  0  0  0
   -3.0010   -0.9140    0.1800 C   0  0  0  0  0  0  0  0  0  0  0  0
   -1.8920   -1.6080    0.1640 O   0  0  0  0  0  0  0  0  0  0  0  0
   -0.8290   -0.8350    0.0790 C   0  0  0  0  0  0  0  0  0  0  0  0
    0.5290   -1.0610    0.0290 C   0  0  0  0  0  0  0  0  0  0  0  0
  1  2  1  0
  2  3  2  0
  2 11  1  0
  3  4  1  0
  4  5  1  0
  4  6  2  0
  6  7  1  0
  6 10  1  0
  7  8  2  0
  8  9  1  0
  9 10  1  0
 10 11  2  0
M  END
