
     RDKit          3D

 11 12  0  0  0  0  0  0  0  0999 V2000
   -3.6790   -0.5830    0.0910 O   0  0  0  0  0  0  0  0  0  0  0  0
   -2.4270   -0.3620    0.0590 C   0  0  0  0  0  0  0  0  0  0  0  0
   -1.8010    0.8230    0.0120 N   0  0  0  0  0  0  0  0  0  0  0  0
   -0.4680    0.6540   -0.0100 C   0  0  0  0  0  0  0  0  0  0  0  0
    0.6290    1.5010   -0.0570 C   0  0  0  0  0  0  0  0  0  0  0  0
    1.9310    1.0410   -0.0690 C   0  0  0  0  0  0  0  0  0  0  0  0
    2.1350   -0.3240   -0.0330 C   0  0  0  0  0  0  0  0  0  0  0  0
    3.7830   -0.9690   -0.0470 Cl  0  0  0  0  0  0  0  0  0  0  0  0
    1.0630   -1.1930    0.0140 C   0  0  0  0  0  0  0  0  0  0  0  0
   -0.2380   -0.7030    0.0260 C   0  0  0  0  0  0  0  0  0  0  0  0
   -1.4560   -1.2860    0.0670 N   0  0  0  0  0  0  0  0  0  0  0  0
  1  2  2  0
  2  3  1  0
  2 11  1  0
  3  4  1  0
  4  5  2  0
  4 10  1  0
  5  6  1  0
  6  7  2  0
  7  8  1  0
  7  9  1  0
  9 10  2  0
 10 11  1  0
M  END
