
     RDKit          3D

 11 12  0  0  0  0  0  0  0  0999 V2000
   -0.6950    2.6710    0.0990 O   0  0  0  0  0  0  0  0  0  0  0  0
   -0.6810    1.2870    0.1130 C   0  0  0  0  0  0  0  0  0  0  0  0
   -1.8170    0.5080    0.1350 C   0  0  0  0  0  0  0  0  0  0  0  0
   -1.7820   -0.8780    0.1480 C   0  0  0  0  0  0  0  0  0  0  0  0
   -3.2460   -1.8340    0.1760 Cl  0  0  0  0  0  0  0  0  0  0  0  0
   -0.5290   -1.4640    0.1380 C   0  0  0  0  0  0  0  0  0  0  0  0
    0.6420   -0.7180    0.1150 C   0  0  0  0  0  0  0  0  0  0  0  0
    1.9570   -1.0760    0.1020 N   0  0  0  0  0  0  0  0  0  0  0  0
    2.6480    0.0740    0.0820 C   0  0  0  0  0  0  0  0  0  0  0  0
    1.8130    1.1300    0.0830 N   0  0  0  0  0  0  0  0  0  0  0  0
    0.5610    0.6610    0.1030 C   0  0  0  0  0  0  0  0  0  0  0  0
  1  2  1  0
  2  3  2  0
  2 11  1  0
  3  4  1  0
  4  5  1  0
  4  6  2  0
  6  7  1  0
  7  8  1  0
  7 11  2  0
  8  9  1  0
  9 10  2  0
 10 11  1  0
M  END
