
     RDKit          3D

 11 12  0  0  0  0  0  0  0  0999 V2000
   -1.4640    2.1050   -0.0970 O   0  0  0  0  0  0  0  0  0  0  0  0
   -1.1570    0.7830   -0.0010 C   0  0  0  0  0  0  0  0  0  0  0  0
   -2.1340   -0.1920    0.1370 C   0  0  0  0  0  0  0  0  0  0  0  0
   -1.7900   -1.5130    0.2300 C   0  0  0  0  0  0  0  0  0  0  0  0
   -0.5220   -1.9370    0.1940 N   0  0  0  0  0  0  0  0  0  0  0  0
    0.4500   -1.0150    0.0610 C   0  0  0  0  0  0  0  0  0  0  0  0
    1.8420   -1.1650   -0.0050 C   0  0  0  0  0  0  0  0  0  0  0  0
    2.3920    0.0410   -0.1380 N   0  0  0  0  0  0  0  0  0  0  0  0
    1.3920    0.9580   -0.1600 C   0  0  0  0  0  0  0  0  0  0  0  0
    1.6050    2.7030   -0.3200 Cl  0  0  0  0  0  0  0  0  0  0  0  0
    0.1650    0.3350   -0.0380 C   0  0  0  0  0  0  0  0  0  0  0  0
  1  2  1  0
  2  3  2  0
  2 11  1  0
  3  4  1  0
  4  5  2  0
  5  6  1  0
  6  7  2  0
  6 11  1  0
  7  8  1  0
  8  9  1  0
  9 10  1  0
  9 11  2  0
M  END
