
     RDKit          3D

 11 12  0  0  0  0  0  0  0  0999 V2000
   -0.5440    2.4270   -0.2110 N   0  0  0  0  0  0  0  0  0  0  0  0
    0.1910    1.2280   -0.1270 C   0  0  0  0  0  0  0  0  0  0  0  0
    1.5430    1.1920   -0.1820 N   0  0  0  0  0  0  0  0  0  0  0  0
    2.2470    0.0510   -0.1030 C   0  0  0  0  0  0  0  0  0  0  0  0
    4.0130    0.0860   -0.1830 Cl  0  0  0  0  0  0  0  0  0  0  0  0
    1.6380   -1.1770    0.0420 C   0  0  0  0  0  0  0  0  0  0  0  0
    0.2600   -1.2000    0.1040 C   0  0  0  0  0  0  0  0  0  0  0  0
   -0.6170   -2.1950    0.2380 O   0  0  0  0  0  0  0  0  0  0  0  0
   -1.8340   -1.7250    0.2460 C   0  0  0  0  0  0  0  0  0  0  0  0
   -1.7640   -0.3570    0.1100 C   0  0  0  0  0  0  0  0  0  0  0  0
   -0.4340   -0.0130    0.0200 C   0  0  0  0  0  0  0  0  0  0  0  0
  1  2  1  0
  2  3  2  0
  2 11  1  0
  3  4  1  0
  4  5  1  0
  4  6  2  0
  6  7  1  0
  7  8  1  0
  7 11  2  0
  8  9  1  0
  9 10  2  0
 10 11  1  0
M  END
