
     RDKit          3D

 26 28  0  0  0  0  0  0  0  0999 V2000
   -7.5720    1.5330    0.5270 N   0  0  0  0  0  0  0  0  0  0  0  0
   -6.1780    1.6190    0.2770 C   0  0  0  0  0  0  0  0  0  0  0  0
   -5.5900    2.7750   -0.1130 N   0  0  0  0  0  0  0  0  0  0  0  0
   -4.2580    2.7890   -0.3340 C   0  0  0  0  0  0  0  0  0  0  0  0
   -3.5190    1.6720   -0.1710 N   0  0  0  0  0  0  0  0  0  0  0  0
   -4.0770    0.5100    0.2160 C   0  0  0  0  0  0  0  0  0  0  0  0
   -5.4280    0.4760    0.4460 C   0  0  0  0  0  0  0  0  0  0  0  0
   -5.7280   -0.7820    0.8150 N   0  0  0  0  0  0  0  0  0  0  0  0
   -4.5810   -1.4870    0.8070 C   0  0  0  0  0  0  0  0  0  0  0  0
   -3.5520   -0.6930    0.4360 N   0  0  0  0  0  0  0  0  0  0  0  0
   -2.2060   -1.1270    0.3260 C   0  0  2  0  0  0  0  0  0  0  0  0
   -1.2600   -0.1150    0.4720 O   0  0  0  0  0  0  0  0  0  0  0  0
   -0.0910   -0.8070    0.2700 C   0  0  2  0  0  0  0  0  0  0  0  0
    1.1180    0.0730    0.0500 C   0  0  0  0  0  0  0  0  0  0  0  0
    2.5120   -1.0680   -0.1900 S   0  0  0  0  0  0  0  0  0  0  0  0
    4.0580   -0.1740   -0.4820 C   0  0  0  0  0  0  0  0  0  0  0  0
    4.3960    0.5660    0.7830 C   0  0  0  0  0  0  0  0  0  0  0  0
    5.6750    1.3590    0.6660 C   0  0  2  0  0  0  0  0  0  0  0  0
    5.6380    2.3460   -0.3600 N   0  0  0  0  0  0  0  0  0  0  0  0
    6.7540    0.3710    0.3430 C   0  0  0  0  0  0  0  0  0  0  0  0
    7.4460    0.4980   -0.6920 O   0  0  0  0  0  0  0  0  0  0  0  0
    6.9980   -0.7020    1.1950 O   0  0  0  0  0  0  0  0  0  0  0  0
   -0.3570   -1.5030   -1.0580 C   0  0  1  0  0  0  0  0  0  0  0  0
    0.3470   -2.6900   -1.0570 O   0  0  0  0  0  0  0  0  0  0  0  0
   -1.8570   -1.7020   -1.0270 C   0  0  1  0  0  0  0  0  0  0  0  0
   -2.0930   -3.0620   -1.1150 O   0  0  0  0  0  0  0  0  0  0  0  0
  1  2  1  0
  2  3  2  0
  2  7  1  0
  3  4  1  0
  4  5  2  0
  5  6  1  0
  6  7  2  0
  6 10  1  0
  7  8  1  0
  8  9  2  0
  9 10  1  0
 11 10  1  6
 11 12  1  0
 11 25  1  0
 12 13  1  0
 13 14  1  6
 13 23  1  0
 14 15  1  0
 15 16  1  0
 16 17  1  0
 17 18  1  0
 18 19  1  6
 18 20  1  0
 20 21  2  0
 20 22  1  0
 23 24  1  1
 23 25  1  0
 25 26  1  1
M  END
