
     RDKit          3D

 45 47  0  0  0  0  0  0  0  0999 V2000
   -6.7910    3.6720   -2.8510 C   0  0  0  0  0  0  0  0  0  0  0  0
   -5.5510    3.4940   -1.9990 C   0  0  0  0  0  0  0  0  0  0  0  0
   -5.1430    2.1460   -1.9980 O   0  0  0  0  0  0  0  0  0  0  0  0
   -4.0160    1.7970   -1.2750 C   0  0  0  0  0  0  0  0  0  0  0  0
   -3.2930    2.7240   -0.5700 C   0  0  0  0  0  0  0  0  0  0  0  0
   -2.1520    2.3280    0.1480 C   0  0  0  0  0  0  0  0  0  0  0  0
   -1.7380    1.0250    0.1630 C   0  0  0  0  0  0  0  0  0  0  0  0
   -0.6030    0.6270    0.9030 N   0  0  0  0  0  0  0  0  0  0  0  0
   -0.1370    1.1740    2.1010 C   0  0  0  0  0  0  0  0  0  0  0  0
   -0.8110    2.1490    2.5940 O   0  0  0  0  0  0  0  0  0  0  0  0
    1.0750    0.7330    2.8700 C   0  0  2  0  0  0  0  0  0  0  0  0
    1.8980    1.9730    3.1950 C   0  0  0  0  0  0  0  0  0  0  0  0
    1.8630   -0.2970    2.1660 C   0  0  0  0  0  0  0  0  0  0  0  0
    3.1030   -0.0520    1.7930 C   0  0  0  0  0  0  0  0  0  0  0  0
    4.0240   -0.8880    1.1110 C   0  0  0  0  0  0  0  0  0  0  0  0
    5.2290   -0.6010    0.7440 C   0  0  0  0  0  0  0  0  0  0  0  0
    5.9880    0.6130    0.8930 C   0  0  0  0  0  0  0  0  0  0  0  0
    5.4380    1.8560    0.9130 C   0  0  0  0  0  0  0  0  0  0  0  0
    6.1880    2.9960    1.1430 C   0  0  0  0  0  0  0  0  0  0  0  0
    7.5300    2.8840    1.3560 C   0  0  0  0  0  0  0  0  0  0  0  0
    8.3730    4.0950    1.6120 C   0  0  0  0  0  0  0  0  0  0  0  0
    8.1090    1.6260    1.3380 C   0  0  0  0  0  0  0  0  0  0  0  0
    7.3770    0.5040    1.1150 C   0  0  0  0  0  0  0  0  0  0  0  0
    7.9370   -0.7780    1.1660 N   0  0  0  0  0  0  0  0  0  0  0  0
    9.3350   -0.9960    1.1930 C   0  0  0  0  0  0  0  0  0  0  0  0
   10.2190   -0.1450    1.1730 O   0  0  0  0  0  0  0  0  0  0  0  0
    1.2670   -1.6070    1.9550 C   0  0  0  0  0  0  0  0  0  0  0  0
    1.8150   -2.5920    1.4100 O   0  0  0  0  0  0  0  0  0  0  0  0
   -0.0610   -1.8910    2.3800 O   0  0  0  0  0  0  0  0  0  0  0  0
   -0.6150   -3.1790    2.1670 C   0  0  0  0  0  0  0  0  0  0  0  0
   -0.6640   -3.5610    0.7610 C   0  0  0  0  0  0  0  0  0  0  0  0
   -1.1900   -4.8950    0.3650 C   0  0  0  0  0  0  0  0  0  0  0  0
   -0.2860   -2.8250   -0.1420 O   0  0  0  0  0  0  0  0  0  0  0  0
   -2.4960    0.1200   -0.5610 C   0  0  0  0  0  0  0  0  0  0  0  0
   -3.6070    0.4570   -1.2720 C   0  0  0  0  0  0  0  0  0  0  0  0
   -4.4360   -0.4810   -2.0300 C   0  0  0  0  0  0  0  0  0  0  0  0
   -4.8680   -0.2650   -3.3200 C   0  0  0  0  0  0  0  0  0  0  0  0
   -5.6710   -1.2100   -3.9770 C   0  0  0  0  0  0  0  0  0  0  0  0
   -6.0520   -2.3780   -3.3570 C   0  0  0  0  0  0  0  0  0  0  0  0
   -7.0800   -3.5890   -4.1660 S   0  0  0  0  0  0  0  0  0  0  0  0
   -8.0380   -4.2410   -3.1410 O   0  0  0  0  0  0  0  0  0  0  0  0
   -5.6170   -2.5890   -2.0670 C   0  0  0  0  0  0  0  0  0  0  0  0
   -4.8240   -1.6600   -1.4120 C   0  0  0  0  0  0  0  0  0  0  0  0
   -4.3870   -1.8750   -0.1080 O   0  0  0  0  0  0  0  0  0  0  0  0
   -4.7900   -3.0780    0.5260 C   0  0  0  0  0  0  0  0  0  0  0  0
  1  2  1  0
  2  3  1  0
  3  4  1  0
  4  5  2  0
  4 35  1  0
  5  6  1  0
  6  7  2  0
  7  8  1  0
  7 34  1  0
  8  9  1  0
  9 10  2  0
  9 11  1  0
 11 12  1  6
 11 13  1  0
 13 14  2  3
 13 27  1  0
 14 15  1  0
 15 16  2  3
 16 17  1  0
 17 18  2  0
 17 23  1  0
 18 19  1  0
 19 20  2  0
 20 21  1  0
 20 22  1  0
 22 23  2  0
 23 24  1  0
 24 25  1  0
 25 26  2  0
 27 28  2  0
 27 29  1  0
 29 30  1  0
 30 31  1  0
 31 32  1  0
 31 33  2  0
 34 35  2  0
 35 36  1  0
 36 37  2  0
 36 43  1  0
 37 38  1  0
 38 39  2  0
 39 40  1  0
 39 42  1  0
 40 41  2  0
 42 43  2  0
 43 44  1  0
 44 45  1  0
M  END
