
     RDKit          3D

 45 47  0  0  0  0  0  0  0  0999 V2000
   10.9720   -0.3330    2.7830 C   0  0  0  0  0  0  0  0  0  0  0  0
    9.7180   -1.0070    3.2860 C   0  0  0  0  0  0  0  0  0  0  0  0
    8.5530   -0.2980    2.9830 O   0  0  0  0  0  0  0  0  0  0  0  0
    8.1700   -0.0490    1.6830 C   0  0  0  0  0  0  0  0  0  0  0  0
    8.8880   -0.4870    0.5980 C   0  0  0  0  0  0  0  0  0  0  0  0
    8.4880   -0.2250   -0.7090 C   0  0  0  0  0  0  0  0  0  0  0  0
    7.3490    0.4890   -0.9650 C   0  0  0  0  0  0  0  0  0  0  0  0
    6.9340    0.7590   -2.2340 O   0  0  0  0  0  0  0  0  0  0  0  0
    7.5780    0.3730   -3.4190 C   0  0  0  0  0  0  0  0  0  0  0  0
    8.9790    0.9350   -3.5460 C   0  0  0  0  0  0  0  0  0  0  0  0
    6.6070    0.9410    0.1280 C   0  0  0  0  0  0  0  0  0  0  0  0
    5.3890    1.7100   -0.1800 C   0  0  0  0  0  0  0  0  0  0  0  0
    4.6860    2.1350    0.7710 O   0  0  0  0  0  0  0  0  0  0  0  0
    5.0000    1.9780   -1.4590 O   0  0  0  0  0  0  0  0  0  0  0  0
    3.8940    2.6750   -1.9010 C   0  0  0  0  0  0  0  0  0  0  0  0
    2.6310    1.9780   -1.5610 C   0  0  0  0  0  0  0  0  0  0  0  0
    1.5130    2.5500   -1.8490 O   0  0  0  0  0  0  0  0  0  0  0  0
    2.5570    0.7190   -0.9400 N   0  0  0  0  0  0  0  0  0  0  0  0
    1.4190   -0.0270   -0.5880 C   0  0  0  0  0  0  0  0  0  0  0  0
    0.1370    0.2760   -0.9690 C   0  0  0  0  0  0  0  0  0  0  0  0
   -0.9810   -0.4910   -0.6420 C   0  0  0  0  0  0  0  0  0  0  0  0
   -2.2460   -0.1000   -1.1210 N   0  0  0  0  0  0  0  0  0  0  0  0
   -3.5130   -0.4910   -0.6410 C   0  0  0  0  0  0  0  0  0  0  0  0
   -3.5430   -1.2720    0.3350 O   0  0  0  0  0  0  0  0  0  0  0  0
   -4.7540   -0.0050   -1.2580 C   0  0  0  0  0  0  0  0  0  0  0  0
   -4.6460    0.7620   -2.2390 O   0  0  0  0  0  0  0  0  0  0  0  0
   -6.0860   -0.3710   -0.7830 C   0  0  0  0  0  0  0  0  0  0  0  0
   -7.1010    0.1500   -1.4500 C   0  0  0  0  0  0  0  0  0  0  0  0
   -8.4800   -0.1150   -1.1200 C   0  0  0  0  0  0  0  0  0  0  0  0
   -9.6010    0.5210   -1.9100 C   0  0  0  0  0  0  0  0  0  0  0  0
   -9.4810    2.0350   -1.7910 C   0  0  0  0  0  0  0  0  0  0  0  0
   -8.7270   -0.9240   -0.1180 C   0  0  0  0  0  0  0  0  0  0  0  0
   -7.6990   -1.5870    0.6850 C   0  0  2  0  0  0  0  0  0  0  0  0
   -7.9700   -1.5700    2.1860 C   0  0  0  0  0  0  0  0  0  0  0  0
   -9.2870   -2.2720    2.4810 C   0  0  0  0  0  0  0  0  0  0  0  0
   -6.3220   -1.1750    0.4050 C   0  0  2  0  0  0  0  0  0  0  0  0
   -5.6950   -0.2780    1.8990 S   0  0  0  0  0  0  0  0  0  0  0  0
   -5.6610    1.4860    1.6370 C   0  0  0  0  0  0  0  0  0  0  0  0
   -7.0100    2.0670    1.4690 C   0  0  0  0  0  0  0  0  0  0  0  0
   -0.7670   -1.6150    0.1070 C   0  0  0  0  0  0  0  0  0  0  0  0
    0.5360   -1.9400    0.5060 C   0  0  0  0  0  0  0  0  0  0  0  0
    1.6310   -1.1800    0.1800 C   0  0  0  0  0  0  0  0  0  0  0  0
    2.9060   -1.5250    0.5900 O   0  0  0  0  0  0  0  0  0  0  0  0
    3.2500   -2.6430    1.3480 C   0  0  0  0  0  0  0  0  0  0  0  0
    7.0110    0.6770    1.4040 C   0  0  0  0  0  0  0  0  0  0  0  0
  1  2  1  0
  2  3  1  0
  3  4  1  0
  4  5  2  0
  4 45  1  0
  5  6  1  0
  6  7  2  0
  7  8  1  0
  7 11  1  0
  8  9  1  0
  9 10  1  0
 11 12  1  0
 11 45  2  0
 12 13  2  0
 12 14  1  0
 14 15  1  0
 15 16  1  0
 16 17  2  0
 16 18  1  0
 18 19  1  0
 19 20  2  0
 19 42  1  0
 20 21  1  0
 21 22  1  0
 21 40  2  0
 22 23  1  0
 23 24  2  0
 23 25  1  0
 25 26  2  0
 25 27  1  0
 27 28  2  0
 27 36  1  0
 28 29  1  0
 29 30  1  0
 29 32  2  0
 30 31  1  0
 32 33  1  0
 33 34  1  1
 33 36  1  0
 34 35  1  0
 36 37  1  1
 37 38  1  0
 38 39  1  0
 40 41  1  0
 41 42  2  0
 42 43  1  0
 43 44  1  0
M  END
