
     RDKit          3D

 40 44  0  0  0  0  0  0  0  0999 V2000
   -4.0000   -3.1700    0.7240 C   0  0  0  0  0  0  0  0  0  0  0  0
   -2.9710   -2.6380    1.6990 C   0  0  2  0  0  0  0  0  0  0  0  0
   -1.8370   -3.5950    1.7930 C   0  0  0  0  0  0  0  0  0  0  0  0
   -3.6960   -2.7510    3.0900 C   0  0  0  0  0  0  0  0  0  0  0  0
   -2.6370   -1.1950    1.4810 C   0  0  0  0  0  0  0  0  0  0  0  0
   -2.1250   -0.7710    0.1810 C   0  0  2  0  0  0  0  0  0  0  0  0
   -0.9060   -1.3770   -0.1960 N   0  0  0  0  0  0  0  0  0  0  0  0
    0.1110   -0.3710    0.1850 C   0  0  1  0  0  0  0  0  0  0  0  0
    1.4500   -0.7750   -0.0920 C   0  0  0  0  0  0  0  0  0  0  0  0
    1.6550   -1.8040   -0.7790 O   0  0  0  0  0  0  0  0  0  0  0  0
    2.5770   -0.0580    0.3890 N   0  0  0  0  0  0  0  0  0  0  0  0
    3.9290   -0.3680    0.1910 C   0  0  0  0  0  0  0  0  0  0  0  0
    4.3460   -1.6130   -0.1710 C   0  0  0  0  0  0  0  0  0  0  0  0
    5.7020   -1.8930   -0.4000 C   0  0  0  0  0  0  0  0  0  0  0  0
    6.6340   -0.9000   -0.2570 C   0  0  0  0  0  0  0  0  0  0  0  0
    8.0480   -1.1790   -0.4940 C   0  0  0  0  0  0  0  0  0  0  0  0
    9.0210   -0.1570   -0.4760 N   0  0  0  0  0  0  0  0  0  0  0  0
    8.4360   -2.3580   -0.7250 O   0  0  0  0  0  0  0  0  0  0  0  0
    6.2390    0.3560    0.1060 C   0  0  0  0  0  0  0  0  0  0  0  0
    4.8980    0.6120    0.3260 C   0  0  0  0  0  0  0  0  0  0  0  0
   -0.5540    0.7840   -0.5030 C   0  0  2  0  0  0  0  0  0  0  0  0
    0.1560    1.8580   -1.0680 C   0  0  0  0  0  0  0  0  0  0  0  0
    1.3340    1.6390   -1.7430 C   0  0  0  0  0  0  0  0  0  0  0  0
    1.9960    2.6790   -2.4130 C   0  0  0  0  0  0  0  0  0  0  0  0
    1.5100    3.9540   -2.4350 C   0  0  0  0  0  0  0  0  0  0  0  0
    0.3400    4.1940   -1.7730 C   0  0  0  0  0  0  0  0  0  0  0  0
   -0.3580    5.7970   -1.7480 Cl  0  0  0  0  0  0  0  0  0  0  0  0
   -0.2980    3.1780   -1.1210 C   0  0  0  0  0  0  0  0  0  0  0  0
   -1.4180    3.4790   -0.4820 F   0  0  0  0  0  0  0  0  0  0  0  0
   -1.8470    0.7850    0.1500 C   0  0  2  0  0  0  0  0  0  0  0  0
   -2.0300    1.2320    1.4990 C   0  0  0  0  0  0  0  0  0  0  0  0
   -1.3080    1.2340    2.5480 O   0  0  0  0  0  0  0  0  0  0  0  0
   -3.3610    1.7950    1.5920 N   0  0  0  0  0  0  0  0  0  0  0  0
   -3.9180    1.8450    0.2930 C   0  0  0  0  0  0  0  0  0  0  0  0
   -5.1120    2.3490   -0.1630 C   0  0  0  0  0  0  0  0  0  0  0  0
   -5.4160    2.3610   -1.5070 C   0  0  0  0  0  0  0  0  0  0  0  0
   -6.9650    3.0160   -2.0610 Cl  0  0  0  0  0  0  0  0  0  0  0  0
   -4.5120    1.8600   -2.4030 C   0  0  0  0  0  0  0  0  0  0  0  0
   -3.3160    1.3520   -1.9510 C   0  0  0  0  0  0  0  0  0  0  0  0
   -3.0050    1.3370   -0.6000 C   0  0  0  0  0  0  0  0  0  0  0  0
  2  1  1  6
  2  3  1  0
  2  4  1  0
  2  5  1  0
  6  5  1  1
  6  7  1  0
  6 30  1  0
  7  8  1  0
  8  9  1  6
  8 21  1  0
  9 10  2  0
  9 11  1  0
 11 12  1  0
 12 13  2  0
 12 20  1  0
 13 14  1  0
 14 15  2  0
 15 16  1  0
 15 19  1  0
 16 17  1  0
 16 18  2  0
 19 20  2  0
 21 22  1  1
 21 30  1  0
 22 23  2  0
 22 28  1  0
 23 24  1  0
 24 25  2  0
 25 26  1  0
 26 27  1  0
 26 28  2  0
 28 29  1  0
 30 31  1  1
 30 40  1  0
 31 32  2  0
 31 33  1  0
 33 34  1  0
 34 35  2  0
 34 40  1  0
 35 36  1  0
 36 37  1  0
 36 38  2  0
 38 39  1  0
 39 40  2  0
M  END
