
     RDKit          3D

 27 31  0  0  0  0  0  0  0  0999 V2000
    6.5240    0.2990    2.9150 C   0  0  0  0  0  0  0  0  0  0  0  0
    5.3420   -0.1990    2.5700 C   0  0  0  0  0  0  0  0  0  0  0  0
    4.8420   -0.0370    1.1670 C   0  0  0  0  0  0  0  0  0  0  0  0
    3.5790    0.7060    1.1820 N   0  0  0  0  0  0  0  0  0  0  0  0
    3.4300    1.4810   -0.0330 C   0  0  0  0  0  0  0  0  0  0  0  0
    2.6300    0.6720   -1.0150 C   0  0  0  0  0  0  0  0  0  0  0  0
    3.2480   -0.1810   -1.8990 C   0  0  0  0  0  0  0  0  0  0  0  0
    2.5050   -0.9190   -2.7960 C   0  0  0  0  0  0  0  0  0  0  0  0
    3.1480   -1.8480   -3.7620 C   0  0  0  0  0  0  0  0  0  0  0  0
    1.1850   -0.7810   -2.7780 N   0  0  0  0  0  0  0  0  0  0  0  0
    0.5350    0.0480   -1.9240 C   0  0  0  0  0  0  0  0  0  0  0  0
   -0.8830    0.1250   -1.9840 N   0  0  0  0  0  0  0  0  0  0  0  0
   -1.5670    0.1550   -3.1690 C   0  0  0  0  0  0  0  0  0  0  0  0
   -2.9280    0.2300   -2.8540 C   0  0  0  0  0  0  0  0  0  0  0  0
   -3.0220    0.2440   -1.5020 C   0  0  0  0  0  0  0  0  0  0  0  0
   -4.0910    0.3070   -0.6160 C   0  0  0  0  0  0  0  0  0  0  0  0
   -3.7850    0.2990    0.6920 C   0  0  0  0  0  0  0  0  0  0  0  0
   -4.8100    0.3600    1.5680 C   0  0  0  0  0  0  0  0  0  0  0  0
   -4.1390    0.3310    2.7980 C   0  0  0  0  0  0  0  0  0  0  0  0
   -4.8070    0.3750    4.1000 C   0  0  0  0  0  0  0  0  0  0  0  0
   -2.8180    0.2580    2.5530 O   0  0  0  0  0  0  0  0  0  0  0  0
   -2.5730    0.2360    1.2760 C   0  0  0  0  0  0  0  0  0  0  0  0
   -1.5210    0.1740    0.3980 N   0  0  0  0  0  0  0  0  0  0  0  0
   -1.7530    0.1780   -0.9540 C   0  0  0  0  0  0  0  0  0  0  0  0
   -6.0620    0.4240    0.7560 C   0  0  0  0  0  0  0  0  0  0  0  0
   -5.5520    0.3860   -0.6870 C   0  0  0  0  0  0  0  0  0  0  0  0
    1.2780    0.7580   -1.0580 N   0  0  0  0  0  0  0  0  0  0  0  0
  1  2  2  0
  2  3  1  0
  3  4  1  0
  4  5  1  0
  5  6  1  0
  6  7  2  0
  6 27  1  0
  7  8  1  0
  8  9  1  0
  8 10  2  0
 10 11  1  0
 11 12  1  0
 11 27  2  0
 12 13  1  0
 12 24  1  0
 13 14  2  0
 14 15  1  0
 15 16  2  0
 15 24  1  0
 16 17  1  0
 16 26  1  0
 17 18  1  0
 17 22  2  0
 18 19  2  0
 18 25  1  0
 19 20  1  0
 19 21  1  0
 21 22  1  0
 22 23  1  0
 23 24  2  0
 25 26  1  0
M  CHG  1   4   1
M  END
