
     RDKit          3D

 27 30  0  0  0  0  0  0  0  0999 V2000
    1.4460    0.4840   -2.2910 C   0  0  0  0  0  0  0  0  0  0  0  0
    2.7070    0.3680   -2.0330 C   0  0  0  0  0  0  0  0  0  0  0  0
    3.3150    0.0480   -0.7730 C   0  0  0  0  0  0  0  0  0  0  0  0
    4.6670   -0.0170   -0.8000 C   0  0  0  0  0  0  0  0  0  0  0  0
    5.6390   -0.3040    0.2250 C   0  0  0  0  0  0  0  0  0  0  0  0
    5.3850   -0.5860    1.4950 C   0  0  0  0  0  0  0  0  0  0  0  0
    4.0840   -0.6720    2.1510 C   0  0  0  0  0  0  0  0  0  0  0  0
    2.8670   -0.4970    1.6710 C   0  0  0  0  0  0  0  0  0  0  0  0
    1.6510   -0.6010    2.3930 N   0  0  0  0  0  0  0  0  0  0  0  0
    0.5510   -0.3240    1.4950 C   0  0  0  0  0  0  0  0  0  0  0  0
   -0.8680   -0.3700    1.9470 C   0  0  0  0  0  0  0  0  0  0  0  0
   -1.8100    0.2070    1.0360 N   0  0  0  0  0  0  0  0  0  0  0  0
   -2.1240    1.6080    1.2210 C   0  0  0  0  0  0  0  0  0  0  0  0
   -1.2950    2.5720    0.4580 C   0  0  2  0  0  0  0  0  0  0  0  0
   -1.7120    3.9860    0.8010 C   0  0  0  0  0  0  0  0  0  0  0  0
   -1.6500    4.7950   -0.2300 C   0  0  0  0  0  0  0  0  0  0  0  0
   -1.1830    4.0370   -1.4150 C   0  0  0  0  0  0  0  0  0  0  0  0
   -1.6670    2.6300   -1.0410 C   0  0  0  0  0  0  0  0  0  0  0  0
   -2.4330   -0.5310    0.0300 C   0  0  0  0  0  0  0  0  0  0  0  0
   -3.2560    0.1060   -0.7290 O   0  0  0  0  0  0  0  0  0  0  0  0
   -2.2780   -1.9190   -0.2740 N   0  0  0  0  0  0  0  0  0  0  0  0
   -3.0180   -2.4880   -1.4120 C   0  0  0  0  0  0  0  0  0  0  0  0
   -3.0210   -3.9590   -1.1530 C   0  0  0  0  0  0  0  0  0  0  0  0
   -1.5940   -4.1360   -0.6180 C   0  0  0  0  0  0  0  0  0  0  0  0
   -1.5020   -2.9510    0.3440 C   0  0  0  0  0  0  0  0  0  0  0  0
    1.0670   -0.0800    0.3530 N   0  0  0  0  0  0  0  0  0  0  0  0
    2.4520   -0.1540    0.3300 N   0  0  0  0  0  0  0  0  0  0  0  0
  1  2  2  0
  2  3  1  0
  3  4  2  0
  3 27  1  0
  4  5  1  0
  5  6  2  0
  6  7  1  0
  7  8  2  0
  8  9  1  0
  8 27  1  0
  9 10  1  0
 10 11  1  0
 10 26  2  0
 11 12  1  0
 12 13  1  0
 12 19  1  0
 14 13  1  1
 14 15  1  0
 14 18  1  0
 15 16  2  0
 16 17  1  0
 17 18  1  0
 19 20  2  0
 19 21  1  0
 21 22  1  0
 21 25  1  0
 22 23  1  0
 23 24  1  0
 24 25  1  0
 26 27  1  0
M  END
