
     RDKit          3D

 24 26  0  0  0  0  0  0  0  0999 V2000
   -4.3770   -2.8840   -0.3100 N   0  0  0  0  0  0  0  0  0  0  0  0
   -3.1440   -2.1570   -0.2640 C   0  0  0  0  0  0  0  0  0  0  0  0
   -1.9550   -2.6980   -0.6630 C   0  0  0  0  0  0  0  0  0  0  0  0
   -0.7950   -1.9180   -0.5860 C   0  0  0  0  0  0  0  0  0  0  0  0
   -0.8350   -0.6380   -0.1250 C   0  0  0  0  0  0  0  0  0  0  0  0
    0.3090    0.1670   -0.1350 N   0  0  0  0  0  0  0  0  0  0  0  0
    1.6520   -0.2990   -0.2760 C   0  0  0  0  0  0  0  0  0  0  0  0
    1.8740   -1.5200   -0.3940 O   0  0  0  0  0  0  0  0  0  0  0  0
    2.7200    0.6320   -0.2800 N   0  0  0  0  0  0  0  0  0  0  0  0
    4.0860    0.3380   -0.4040 C   0  0  0  0  0  0  0  0  0  0  0  0
    4.6200   -0.9080   -0.3200 C   0  0  0  0  0  0  0  0  0  0  0  0
    5.9820   -1.1690   -0.4630 C   0  0  0  0  0  0  0  0  0  0  0  0
    6.8620   -0.1380   -0.7020 C   0  0  0  0  0  0  0  0  0  0  0  0
    6.3550    1.1350   -0.7920 C   0  0  0  0  0  0  0  0  0  0  0  0
    5.0080    1.3680   -0.6480 C   0  0  0  0  0  0  0  0  0  0  0  0
   -2.0560   -0.0790    0.2870 C   0  0  0  0  0  0  0  0  0  0  0  0
   -2.1640    1.2180    0.9260 C   0  0  0  0  0  0  0  0  0  0  0  0
   -1.1560    1.8730    1.3490 O   0  0  0  0  0  0  0  0  0  0  0  0
   -3.4780    1.9090    1.1450 C   0  0  0  0  0  0  0  0  0  0  0  0
   -4.4670    1.8280    0.2730 C   0  0  0  0  0  0  0  0  0  0  0  0
   -5.6790    2.4340    0.5490 C   0  0  0  0  0  0  0  0  0  0  0  0
   -5.3600    3.1670    2.1710 S   0  0  0  0  0  0  0  0  0  0  0  0
   -3.6420    2.6040    2.3440 C   0  0  0  0  0  0  0  0  0  0  0  0
   -3.2080   -0.8560    0.2110 C   0  0  0  0  0  0  0  0  0  0  0  0
  1  2  1  0
  2  3  2  0
  2 24  1  0
  3  4  1  0
  4  5  2  0
  5  6  1  0
  5 16  1  0
  6  7  1  0
  7  8  2  0
  7  9  1  0
  9 10  1  0
 10 11  2  0
 10 15  1  0
 11 12  1  0
 12 13  2  0
 13 14  1  0
 14 15  2  0
 16 17  1  0
 16 24  2  0
 17 18  2  0
 17 19  1  0
 19 20  1  0
 19 23  2  0
 20 21  2  0
 21 22  1  0
 22 23  1  0
M  END
