
     RDKit          3D

 25 27  0  0  0  0  0  0  0  0999 V2000
    8.5770   -0.6260   -1.3900 C   0  0  0  0  0  0  0  0  0  0  0  0
    7.2920   -0.6100   -1.9520 O   0  0  0  0  0  0  0  0  0  0  0  0
    6.1370   -0.3730   -1.2220 C   0  0  0  0  0  0  0  0  0  0  0  0
    6.1450   -0.1300    0.1330 C   0  0  0  0  0  0  0  0  0  0  0  0
    4.9640    0.0990    0.8060 C   0  0  0  0  0  0  0  0  0  0  0  0
    3.7140    0.0980    0.1690 C   0  0  0  0  0  0  0  0  0  0  0  0
    2.5830    0.3570    0.9630 N   0  0  0  0  0  0  0  0  0  0  0  0
    1.2470    0.2040    0.5250 C   0  0  0  0  0  0  0  0  0  0  0  0
    0.9910   -0.1860   -0.6300 O   0  0  0  0  0  0  0  0  0  0  0  0
    0.1550    0.4940    1.3960 N   0  0  0  0  0  0  0  0  0  0  0  0
   -1.2180    0.3860    1.0860 C   0  0  0  0  0  0  0  0  0  0  0  0
   -2.1030    0.6520    2.1450 C   0  0  0  0  0  0  0  0  0  0  0  0
   -3.4550    0.5990    2.0260 C   0  0  0  0  0  0  0  0  0  0  0  0
   -4.3480    0.8860    3.1640 C   0  0  0  0  0  0  0  0  0  0  0  0
   -3.9830    0.2660    0.8000 C   0  0  0  0  0  0  0  0  0  0  0  0
   -5.3560    0.1960    0.6190 C   0  0  0  0  0  0  0  0  0  0  0  0
   -5.8580   -0.1400   -0.6190 C   0  0  0  0  0  0  0  0  0  0  0  0
   -7.2800   -0.2140   -0.8120 N   0  0  0  0  0  0  0  0  0  0  0  0
   -5.0480   -0.4130   -1.7020 C   0  0  0  0  0  0  0  0  0  0  0  0
   -5.6880   -0.8490   -3.3120 S   0  0  0  0  0  0  0  0  0  0  0  0
   -3.6850   -0.3390   -1.5040 C   0  0  0  0  0  0  0  0  0  0  0  0
   -3.1460   -0.0010   -0.2580 C   0  0  0  0  0  0  0  0  0  0  0  0
   -1.7750    0.0620   -0.1040 C   0  0  0  0  0  0  0  0  0  0  0  0
    3.7330   -0.1430   -1.1650 C   0  0  0  0  0  0  0  0  0  0  0  0
    4.9260   -0.3790   -1.8720 C   0  0  0  0  0  0  0  0  0  0  0  0
  1  2  1  0
  2  3  1  0
  3  4  2  0
  3 25  1  0
  4  5  1  0
  5  6  2  0
  6  7  1  0
  6 24  1  0
  7  8  1  0
  8  9  2  0
  8 10  1  0
 10 11  1  0
 11 12  2  0
 11 23  1  0
 12 13  1  0
 13 14  1  0
 13 15  2  0
 15 16  1  0
 15 22  1  0
 16 17  2  0
 17 18  1  0
 17 19  1  0
 19 20  1  0
 19 21  2  0
 21 22  1  0
 22 23  2  0
 24 25  2  0
M  END
