
     RDKit          3D

 25 27  0  0  0  0  0  0  0  0999 V2000
   -3.6630    1.3370   -2.3820 C   0  0  0  0  0  0  0  0  0  0  0  0
   -3.9110    0.2650   -1.7450 C   0  0  0  0  0  0  0  0  0  0  0  0
   -3.4660   -0.4550   -0.5930 C   0  0  0  0  0  0  0  0  0  0  0  0
   -4.0760   -1.6380   -0.2830 C   0  0  0  0  0  0  0  0  0  0  0  0
   -5.1730   -2.0950   -1.1780 C   0  0  0  0  0  0  0  0  0  0  0  0
   -3.7050   -2.4390    0.8510 C   0  0  0  0  0  0  0  0  0  0  0  0
   -4.2930   -3.5910    1.1460 C   0  0  0  0  0  0  0  0  0  0  0  0
   -2.6460   -1.9850    1.7050 N   0  0  0  0  0  0  0  0  0  0  0  0
   -2.0080   -0.7690    1.4000 C   0  0  0  0  0  0  0  0  0  0  0  0
   -0.9780   -0.3150    2.2200 C   0  0  0  0  0  0  0  0  0  0  0  0
   -0.3170    0.8620    1.9750 C   0  0  0  0  0  0  0  0  0  0  0  0
    0.9670    1.3650    3.0510 S   0  0  1  0  0  0  0  0  0  0  0  0
    0.5620    2.6920    3.6260 O   0  0  0  0  0  0  0  0  0  0  0  0
    1.1100    0.3980    4.1710 O   0  0  0  0  0  0  0  0  0  0  0  0
    2.4140    1.4940    2.1200 N   0  0  0  0  0  0  0  0  0  0  0  0
    2.7500    0.2010    1.5580 C   0  0  0  0  0  0  0  0  0  0  0  0
    4.0160    0.3750    0.7590 C   0  0  1  0  0  0  0  0  0  0  0  0
    4.4770   -0.9150    0.1150 C   0  0  0  0  0  0  0  0  0  0  0  0
    5.5730   -0.3870   -0.8200 C   0  0  0  0  0  0  0  0  0  0  0  0
    5.1150    1.0000   -1.2150 C   0  0  0  0  0  0  0  0  0  0  0  0
    3.8490    1.2760   -0.4290 C   0  0  0  0  0  0  0  0  0  0  0  0
   -0.6850    1.6140    0.8860 C   0  0  0  0  0  0  0  0  0  0  0  0
   -0.0300    2.8470    0.5870 N   0  0  0  0  0  0  0  0  0  0  0  0
   -1.7170    1.1740    0.0520 C   0  0  0  0  0  0  0  0  0  0  0  0
   -2.3830   -0.0080    0.2950 C   0  0  0  0  0  0  0  0  0  0  0  0
  1  2  2  0
  2  3  1  0
  3  4  2  0
  3 25  1  0
  4  5  1  0
  4  6  1  0
  6  7  2  0
  6  8  1  0
  8  9  1  0
  9 10  2  0
  9 25  1  0
 10 11  1  0
 11 12  1  0
 11 22  2  0
 12 13  2  0
 12 14  2  0
 12 15  1  6
 15 16  1  0
 17 16  1  6
 17 18  1  0
 17 21  1  0
 18 19  1  0
 19 20  1  0
 20 21  1  0
 22 23  1  0
 22 24  1  0
 24 25  2  0
M  END
