
     RDKit          3D

 25 27  0  0  0  0  0  0  0  0999 V2000
   -1.2760    5.8420    0.6440 C   0  0  0  0  0  0  0  0  0  0  0  0
   -0.6850    4.5750    0.5000 O   0  0  0  0  0  0  0  0  0  0  0  0
   -1.4180    3.4120    0.5960 C   0  0  0  0  0  0  0  0  0  0  0  0
   -2.6510    3.4780    0.8180 O   0  0  0  0  0  0  0  0  0  0  0  0
   -0.8030    2.0920    0.4460 C   0  0  0  0  0  0  0  0  0  0  0  0
   -1.5370    1.0060    0.5450 C   0  0  0  0  0  0  0  0  0  0  0  0
   -0.8830   -0.3080    0.3890 C   0  0  0  0  0  0  0  0  0  0  0  0
   -1.6460   -1.3820    0.4860 C   0  0  0  0  0  0  0  0  0  0  0  0
   -3.0430   -1.5160    0.7250 N   0  0  0  0  0  0  0  0  0  0  0  0
   -4.0610   -1.3070   -0.2540 C   0  0  1  0  0  0  0  0  0  0  0  0
   -3.9990   -2.1980   -1.4710 C   0  0  0  0  0  0  0  0  0  0  0  0
   -5.0190   -3.1300   -0.8280 C   0  0  0  0  0  0  0  0  0  0  0  0
   -5.3620   -1.9780    0.1120 C   0  0  0  0  0  0  0  0  0  0  0  0
   -0.6000   -2.8040    0.2170 S   0  0  0  0  0  0  0  0  0  0  0  0
    0.7600   -1.8350   -0.5760 C   0  0  0  0  0  0  0  0  0  0  0  0
    0.5030   -0.5370    0.1650 C   0  0  0  0  0  0  0  0  0  0  0  0
    1.5010    0.1880    0.5180 N   0  0  0  0  0  0  0  0  0  0  0  0
    2.8470   -0.0750    0.2770 C   0  0  0  0  0  0  0  0  0  0  0  0
    3.5900   -0.7020    1.2750 C   0  0  0  0  0  0  0  0  0  0  0  0
    4.9120   -1.0010    1.1320 C   0  0  0  0  0  0  0  0  0  0  0  0
    5.5680   -0.6820   -0.0370 C   0  0  0  0  0  0  0  0  0  0  0  0
    6.9310   -1.0050   -0.1470 N   0  0  0  0  0  0  0  0  0  0  0  0
    4.8540   -0.0560   -1.0490 C   0  0  0  0  0  0  0  0  0  0  0  0
    3.5190    0.2390   -0.8890 C   0  0  0  0  0  0  0  0  0  0  0  0
    2.7720    0.9060   -1.9780 C   0  0  0  0  0  0  0  0  0  0  0  0
  1  2  1  0
  2  3  1  0
  3  4  2  0
  3  5  1  0
  5  6  2  3
  6  7  1  0
  7  8  2  0
  7 16  1  0
  8  9  1  0
  8 14  1  0
 10  9  1  1
 10 11  1  0
 10 13  1  0
 11 12  1  0
 12 13  1  0
 14 15  1  0
 15 16  1  0
 16 17  2  3
 17 18  1  0
 18 19  2  0
 18 24  1  0
 19 20  1  0
 20 21  2  0
 21 22  1  0
 21 23  1  0
 23 24  2  0
 24 25  1  0
M  END
