
     RDKit          3D

 35 38  0  0  0  0  0  0  0  0999 V2000
    0.5340   -1.0120    4.2590 C   0  0  0  0  0  0  0  0  0  0  0  0
    0.2710   -1.4750    2.9150 C   0  0  0  0  0  0  0  0  0  0  0  0
   -0.6390   -1.1130    1.9730 C   0  0  0  0  0  0  0  0  0  0  0  0
   -0.3900   -1.9430    0.8460 C   0  0  0  0  0  0  0  0  0  0  0  0
   -1.1090   -1.8690   -0.3150 C   0  0  0  0  0  0  0  0  0  0  0  0
   -2.1540   -0.9690   -0.4710 C   0  0  0  0  0  0  0  0  0  0  0  0
   -2.3910   -0.1490    0.6470 C   0  0  0  0  0  0  0  0  0  0  0  0
   -1.6720   -0.1970    1.8490 C   0  0  0  0  0  0  0  0  0  0  0  0
   -2.0090    0.6660    2.8890 C   0  0  0  0  0  0  0  0  0  0  0  0
   -1.4310    1.9950    3.0550 C   0  0  0  0  0  0  0  0  0  0  0  0
   -1.2650    3.0310    2.2730 C   0  0  0  0  0  0  0  0  0  0  0  0
   -0.2630    3.3240    1.2390 C   0  0  0  0  0  0  0  0  0  0  0  0
   -0.5020    3.3910   -0.1020 C   0  0  0  0  0  0  0  0  0  0  0  0
   -1.6720    3.2200   -0.9140 C   0  0  0  0  0  0  0  0  0  0  0  0
   -2.1470    2.2940   -1.7020 C   0  0  0  0  0  0  0  0  0  0  0  0
   -1.6070    0.9840   -2.0760 C   0  0  0  0  0  0  0  0  0  0  0  0
   -2.6270    0.1420   -2.6320 N   0  0  0  0  0  0  0  0  0  0  0  0
   -2.2800   -0.3540   -3.9230 C   0  0  0  0  0  0  0  0  0  0  0  0
   -3.0680   -0.8690   -1.7010 C   0  0  0  0  0  0  0  0  0  0  0  0
    1.1400    3.6660    1.5680 N   0  0  0  0  0  0  0  0  0  0  0  0
    2.1490    3.1020    2.3450 C   0  0  0  0  0  0  0  0  0  0  0  0
    2.2210    3.3420    3.6520 O   0  0  0  0  0  0  0  0  0  0  0  0
    3.2420    2.2220    1.9490 N   0  0  0  0  0  0  0  0  0  0  0  0
    3.0900    1.0420    1.1010 C   0  0  0  0  0  0  0  0  0  0  0  0
    3.0070    1.1000   -0.2840 C   0  0  0  0  0  0  0  0  0  0  0  0
    2.9200   -0.0480   -1.0960 C   0  0  0  0  0  0  0  0  0  0  0  0
    2.9090   -1.3540   -0.6300 C   0  0  0  0  0  0  0  0  0  0  0  0
    2.9880   -1.4000    0.7560 C   0  0  0  0  0  0  0  0  0  0  0  0
    3.0720   -0.2610    1.5870 C   0  0  0  0  0  0  0  0  0  0  0  0
    2.8340   -2.5290   -1.4610 N   0  0  0  0  0  0  0  0  0  0  0  0
    1.5990   -3.2130   -1.7930 C   0  0  0  0  0  0  0  0  0  0  0  0
    1.5220   -4.4950   -1.6770 O   0  0  0  0  0  0  0  0  0  0  0  0
    0.3530   -2.6110   -2.2690 C   0  0  1  0  0  0  0  0  0  0  0  0
   -0.1120   -3.4480   -3.4510 C   0  0  0  0  0  0  0  0  0  0  0  0
   -0.6080   -2.8140   -1.2680 O   0  0  0  0  0  0  0  0  0  0  0  0
  1  2  1  0
  2  3  2  3
  3  4  1  0
  3  8  1  0
  4  5  2  0
  5  6  1  0
  5 35  1  0
  6  7  2  0
  6 19  1  0
  7  8  1  0
  8  9  2  0
  9 10  1  0
 10 11  2  0
 11 12  1  0
 12 13  2  0
 12 20  1  0
 13 14  1  0
 14 15  2  0
 15 16  1  0
 16 17  1  0
 17 18  1  0
 17 19  1  0
 20 21  1  0
 21 22  2  0
 21 23  1  0
 23 24  1  0
 24 25  2  0
 24 29  1  0
 25 26  1  0
 26 27  2  0
 27 28  1  0
 27 30  1  0
 28 29  2  0
 30 31  1  0
 31 32  2  0
 31 33  1  0
 33 34  1  6
 33 35  1  0
M  END
