
     RDKit          3D

 35 41  0  0  0  0  0  0  0  0999 V2000
    4.8180    3.3710    1.1900 C   0  0  0  0  0  0  0  0  0  0  0  0
    4.3230    1.9200    1.2400 C   0  0  2  0  0  0  0  0  0  0  0  0
    5.3780    0.9480    0.8430 C   0  0  0  0  0  0  0  0  0  0  0  0
    5.0340    0.1030   -0.3400 C   0  0  0  0  0  0  0  0  0  0  0  0
    3.6360   -0.4030   -0.3050 C   0  0  0  0  0  0  0  0  0  0  0  0
    3.2930   -1.6820   -0.6500 C   0  0  0  0  0  0  0  0  0  0  0  0
    1.9650   -2.0840   -0.5930 C   0  0  0  0  0  0  0  0  0  0  0  0
    0.9620   -1.2270   -0.1950 C   0  0  0  0  0  0  0  0  0  0  0  0
    1.3250    0.0570    0.1490 C   0  0  0  0  0  0  0  0  0  0  0  0
    2.6460    0.4700    0.0960 C   0  0  0  0  0  0  0  0  0  0  0  0
    3.0630    1.8450    0.4590 C   0  0  0  0  0  0  0  0  0  0  0  0
   -0.4540   -1.6510   -0.1330 C   0  0  1  0  0  0  0  0  0  0  0  0
   -1.4000   -0.6030   -0.4720 C   0  0  0  0  0  0  0  0  0  0  0  0
   -2.4540   -0.3230    0.4160 C   0  0  0  0  0  0  0  0  0  0  0  0
   -3.2560    0.6390    0.0280 N   0  0  0  0  0  0  0  0  0  0  0  0
   -4.2690    1.0040    0.7440 C   0  0  0  0  0  0  0  0  0  0  0  0
   -4.8880    2.0350    0.0390 N   0  0  0  0  0  0  0  0  0  0  0  0
   -4.1740    2.2340   -1.1110 C   0  0  0  0  0  0  0  0  0  0  0  0
   -4.1620    3.0020   -2.2130 N   0  0  0  0  0  0  0  0  0  0  0  0
   -3.1990    2.8580   -3.1800 C   0  0  0  0  0  0  0  0  0  0  0  0
   -3.2380    3.6060   -4.1890 O   0  0  0  0  0  0  0  0  0  0  0  0
   -2.1670    1.9170   -3.1050 C   0  0  0  0  0  0  0  0  0  0  0  0
   -2.1560    1.1210   -1.9910 C   0  0  0  0  0  0  0  0  0  0  0  0
   -1.2460    0.1160   -1.6760 C   0  0  0  0  0  0  0  0  0  0  0  0
   -0.3440   -0.0870   -2.4880 O   0  0  0  0  0  0  0  0  0  0  0  0
   -3.1550    1.3220   -1.0610 C   0  0  0  0  0  0  0  0  0  0  0  0
   -4.2240    0.1230    1.9400 C   0  0  1  0  0  0  0  0  0  0  0  0
   -3.9950    0.9350    3.1970 C   0  0  0  0  0  0  0  0  0  0  0  0
   -5.4550   -0.7140    2.0170 C   0  0  0  0  0  0  0  0  0  0  0  0
   -2.9840   -0.7850    1.7130 C   0  0  0  0  0  0  0  0  0  0  0  0
   -0.7200   -2.8600   -1.0020 C   0  0  0  0  0  0  0  0  0  0  0  0
    0.3510   -3.8750   -0.9210 C   0  0  0  0  0  0  0  0  0  0  0  0
    0.1080   -5.0990   -0.8130 O   0  0  0  0  0  0  0  0  0  0  0  0
    1.7000   -3.4300   -0.9680 N   0  0  0  0  0  0  0  0  0  0  0  0
    2.7870   -4.3020   -1.3800 C   0  0  0  0  0  0  0  0  0  0  0  0
  2  1  1  6
  2  3  1  0
  2 11  1  0
  3  4  1  0
  4  5  1  0
  5  6  2  0
  5 10  1  0
  6  7  1  0
  7  8  2  0
  7 34  1  0
  8  9  1  0
  8 12  1  0
  9 10  2  0
 10 11  1  0
 12 13  1  6
 12 31  1  0
 13 14  2  0
 13 24  1  0
 14 15  1  0
 14 30  1  0
 15 16  1  0
 15 26  1  0
 16 17  2  0
 16 27  1  0
 17 18  1  0
 18 19  1  0
 18 26  2  0
 19 20  1  0
 20 21  2  0
 20 22  1  0
 22 23  2  0
 23 24  1  0
 23 26  1  0
 24 25  2  0
 27 28  1  1
 27 29  1  0
 27 30  1  0
 31 32  1  0
 32 33  2  0
 32 34  1  0
 34 35  1  0
M  END
