
     RDKit          3D

 35 40  0  0  0  0  0  0  0  0999 V2000
   -0.5730   -3.2100   -0.3050 C   0  0  0  0  0  0  0  0  0  0  0  0
    0.2470   -2.0190    0.2560 C   0  0  0  0  0  0  0  0  0  0  0  0
    1.2760   -2.3910    0.6840 O   0  0  0  0  0  0  0  0  0  0  0  0
   -0.4220   -0.7530    0.1330 C   0  0  0  0  0  0  0  0  0  0  0  0
    0.0430    0.4040    0.6090 C   0  0  0  0  0  0  0  0  0  0  0  0
    1.2900    0.4390    1.3130 C   0  0  0  0  0  0  0  0  0  0  0  0
    1.9940   -0.6240    1.9240 N   0  0  0  0  0  0  0  0  0  0  0  0
    3.3760   -0.9130    1.6330 C   0  0  0  0  0  0  0  0  0  0  0  0
    4.0110   -0.1610    0.6780 C   0  0  0  0  0  0  0  0  0  0  0  0
    5.3590   -0.4120    0.3880 C   0  0  0  0  0  0  0  0  0  0  0  0
    6.0230    0.3940   -0.6290 C   0  0  0  0  0  0  0  0  0  0  0  0
    7.3370    0.2650   -1.0210 C   0  0  0  0  0  0  0  0  0  0  0  0
    7.5360    1.2290   -2.0040 C   0  0  0  0  0  0  0  0  0  0  0  0
    6.4180    1.8890   -2.1890 O   0  0  0  0  0  0  0  0  0  0  0  0
    5.4890    1.4180   -1.3830 C   0  0  0  0  0  0  0  0  0  0  0  0
    5.9660   -1.3840    1.0650 N   0  0  0  0  0  0  0  0  0  0  0  0
    5.3240   -2.1140    2.0020 C   0  0  0  0  0  0  0  0  0  0  0  0
    4.0320   -1.8850    2.2910 N   0  0  0  0  0  0  0  0  0  0  0  0
    1.8660    1.6440    1.5450 C   0  0  0  0  0  0  0  0  0  0  0  0
    1.2450    2.8650    1.1390 C   0  0  0  0  0  0  0  0  0  0  0  0
    0.0650    2.8850    0.5550 C   0  0  0  0  0  0  0  0  0  0  0  0
   -0.6820    1.6760    0.3140 C   0  0  1  0  0  0  0  0  0  0  0  0
   -1.0440    1.5440   -1.1550 C   0  0  0  0  0  0  0  0  0  0  0  0
   -0.6850    2.3520   -2.0090 O   0  0  0  0  0  0  0  0  0  0  0  0
   -1.8300    0.4170   -1.4710 N   0  0  0  0  0  0  0  0  0  0  0  0
   -2.7680    0.3800   -2.5480 C   0  0  0  0  0  0  0  0  0  0  0  0
   -4.1320   -0.0760   -2.0090 C   0  0  2  0  0  0  0  0  0  0  0  0
   -5.1420    1.0240   -2.3120 C   0  0  0  0  0  0  0  0  0  0  0  0
   -4.1540   -0.3030   -0.5460 C   0  0  0  0  0  0  0  0  0  0  0  0
   -5.3100   -0.1980    0.0680 C   0  0  0  0  0  0  0  0  0  0  0  0
   -5.4960   -0.3900    1.4900 C   0  0  0  0  0  0  0  0  0  0  0  0
   -4.3080   -0.7660    2.2790 C   0  0  0  0  0  0  0  0  0  0  0  0
   -3.0620   -0.8560    1.4950 C   0  0  0  0  0  0  0  0  0  0  0  0
   -2.9340   -0.6600    0.2320 C   0  0  0  0  0  0  0  0  0  0  0  0
   -1.7230   -0.7210   -0.6040 C   0  0  2  0  0  0  0  0  0  0  0  0
  1  2  1  0
  2  3  2  0
  2  4  1  0
  4  5  2  0
 35  4  1  1
  5  6  1  0
  5 22  1  0
  6  7  1  0
  6 19  2  0
  7  8  1  0
  8  9  2  0
  8 18  1  0
  9 10  1  0
 10 11  1  0
 10 16  2  0
 11 12  1  0
 11 15  2  0
 12 13  2  0
 13 14  1  0
 14 15  1  0
 16 17  1  0
 17 18  2  0
 19 20  1  0
 20 21  2  0
 22 21  1  6
 22 23  1  0
 23 24  2  0
 23 25  1  0
 25 26  1  0
 25 35  1  0
 26 27  1  0
 27 28  1  1
 27 29  1  0
 29 30  2  0
 29 34  1  0
 30 31  1  0
 31 32  1  0
 32 33  1  0
 33 34  2  0
 34 35  1  0
M  END
