
     RDKit          3D

 30 32  0  0  0  0  0  0  0  0999 V2000
   -2.0980   -3.6500   -0.7840 C   0  0  0  0  0  0  0  0  0  0  0  0
   -2.0110   -2.9140    0.5070 C   0  0  0  0  0  0  0  0  0  0  0  0
   -2.2460   -1.6230    0.6100 C   0  0  0  0  0  0  0  0  0  0  0  0
   -2.0880   -1.1720    1.9830 C   0  0  0  0  0  0  0  0  0  0  0  0
   -0.9760   -2.1860    2.8600 Cl  0  0  0  0  0  0  0  0  0  0  0  0
   -2.5890   -0.1840    2.7080 C   0  0  0  0  0  0  0  0  0  0  0  0
   -3.5250    0.9180    2.5040 C   0  0  0  0  0  0  0  0  0  0  0  0
   -4.7360    0.6050    1.7000 C   0  0  0  0  0  0  0  0  0  0  0  0
   -4.5810   -0.4220    0.6330 C   0  0  0  0  0  0  0  0  0  0  0  0
   -3.6980    0.0560   -0.5100 C   0  0  1  0  0  0  0  0  0  0  0  0
   -3.2980    1.3380   -0.3180 O   0  0  0  0  0  0  0  0  0  0  0  0
   -2.1880    1.7410   -0.9800 C   0  0  2  0  0  0  0  0  0  0  0  0
   -2.3030    3.1350   -1.5600 C   0  0  0  0  0  0  0  0  0  0  0  0
   -1.8610    0.7270   -2.0730 C   0  0  0  0  0  0  0  0  0  0  0  0
   -1.4910   -0.4710   -1.4240 N   0  0  0  0  0  0  0  0  0  0  0  0
   -0.2150   -0.6070   -0.8730 C   0  0  0  0  0  0  0  0  0  0  0  0
    0.8510   -0.6970   -1.9330 C   0  0  1  0  0  0  0  0  0  0  0  0
    0.9460    0.4090   -2.7580 O   0  0  0  0  0  0  0  0  0  0  0  0
    2.2340   -0.8280   -1.2730 C   0  0  0  0  0  0  0  0  0  0  0  0
    2.4300    0.3960   -0.5610 O   0  0  0  0  0  0  0  0  0  0  0  0
    3.6220    0.5400    0.1300 C   0  0  0  0  0  0  0  0  0  0  0  0
    4.6010   -0.4400    0.1510 C   0  0  0  0  0  0  0  0  0  0  0  0
    5.7810   -0.2740    0.8460 C   0  0  0  0  0  0  0  0  0  0  0  0
    6.0360    0.8800    1.5530 C   0  0  0  0  0  0  0  0  0  0  0  0
    7.3250    1.0590    2.3110 C   0  0  0  0  0  0  0  0  0  0  0  0
    8.0630   -0.1300    2.1890 O   0  0  0  0  0  0  0  0  0  0  0  0
    5.0700    1.8600    1.5390 C   0  0  0  0  0  0  0  0  0  0  0  0
    3.8740    1.7010    0.8390 C   0  0  0  0  0  0  0  0  0  0  0  0
    2.6450    2.9430    0.8210 Cl  0  0  0  0  0  0  0  0  0  0  0  0
   -2.6080   -0.9700   -0.6630 C   0  0  1  0  0  0  0  0  0  0  0  0
  1  2  1  0
  2  3  2  3
  3  4  1  0
  3 30  1  0
  4  5  1  0
  4  6  2  0
  6  7  1  0
  7  8  1  0
  8  9  1  0
 10  9  1  1
 10 11  1  0
 10 30  1  0
 11 12  1  0
 12 13  1  6
 12 14  1  0
 14 15  1  0
 15 16  1  0
 30 15  1  1
 16 17  1  0
 17 18  1  1
 17 19  1  0
 19 20  1  0
 20 21  1  0
 21 22  2  0
 21 28  1  0
 22 23  1  0
 23 24  2  0
 24 25  1  0
 24 27  1  0
 25 26  1  0
 27 28  2  0
 28 29  1  0
M  END
