
     RDKit          3D

 30 32  0  0  0  0  0  0  0  0999 V2000
    1.9450    5.4750    2.0910 C   0  0  0  0  0  0  0  0  0  0  0  0
    1.1580    4.3460    1.5740 C   0  0  0  0  0  0  0  0  0  0  0  0
   -0.5840    4.5330    1.4850 Cl  0  0  0  0  0  0  0  0  0  0  0  0
    1.7160    3.1880    1.1720 C   0  0  0  0  0  0  0  0  0  0  0  0
    0.9060    2.1150    0.6760 C   0  0  0  0  0  0  0  0  0  0  0  0
    1.2740    0.9260    0.2440 C   0  0  0  0  0  0  0  0  0  0  0  0
    2.6420    0.5080    0.2070 C   0  0  0  0  0  0  0  0  0  0  0  0
    3.5970    1.2870    0.6020 O   0  0  0  0  0  0  0  0  0  0  0  0
    3.1310   -0.7480   -0.2390 N   0  0  0  0  0  0  0  0  0  0  0  0
    4.5850   -1.0520   -0.2230 C   0  0  2  0  0  0  0  0  0  0  0  0
    4.9710   -1.3140   -1.6570 C   0  0  0  0  0  0  0  0  0  0  0  0
    5.9130   -2.4790   -1.6290 C   0  0  0  0  0  0  0  0  0  0  0  0
    5.8950   -3.0750   -0.2540 C   0  0  2  0  0  0  0  0  0  0  0  0
    5.4500   -4.7950   -0.2600 Cl  0  0  0  0  0  0  0  0  0  0  0  0
    4.8460   -2.3210    0.5420 C   0  0  0  0  0  0  0  0  0  0  0  0
    0.1860    0.0580   -0.1980 C   0  0  0  0  0  0  0  0  0  0  0  0
    0.3990   -1.0830   -0.6260 O   0  0  0  0  0  0  0  0  0  0  0  0
   -1.1390    0.4700   -0.1580 O   0  0  0  0  0  0  0  0  0  0  0  0
   -2.1480   -0.3910   -0.5900 C   0  0  2  0  0  0  0  0  0  0  0  0
   -2.8780    0.1690   -1.7770 C   0  0  0  0  0  0  0  0  0  0  0  0
   -3.2510    1.4870   -1.9310 C   0  0  0  0  0  0  0  0  0  0  0  0
   -3.9070    1.6200   -3.1580 C   0  0  0  0  0  0  0  0  0  0  0  0
   -3.8920    0.3470   -3.6860 C   0  0  0  0  0  0  0  0  0  0  0  0
   -3.2820   -0.4520   -2.8400 O   0  0  0  0  0  0  0  0  0  0  0  0
   -3.0810   -0.8070    0.5130 C   0  0  2  0  0  0  0  0  0  0  0  0
   -2.3810   -1.5260    1.6250 C   0  0  0  0  0  0  0  0  0  0  0  0
   -4.1530   -1.7580   -0.0160 C   0  0  0  0  0  0  0  0  0  0  0  0
   -5.2700   -1.7110    0.9860 C   0  0  0  0  0  0  0  0  0  0  0  0
   -5.1360   -0.3960    1.7060 C   0  0  0  0  0  0  0  0  0  0  0  0
   -3.9170    0.2890    1.0850 C   0  0  0  0  0  0  0  0  0  0  0  0
  1  2  1  0
  2  3  1  0
  2  4  2  3
  4  5  1  0
  5  6  2  3
  6  7  1  0
  6 16  1  0
  7  8  2  0
  7  9  1  0
 10  9  1  6
 10 11  1  0
 10 15  1  0
 11 12  1  0
 12 13  1  0
 13 14  1  6
 13 15  1  0
 16 17  2  0
 16 18  1  0
 19 18  1  1
 19 20  1  0
 19 25  1  0
 20 21  2  0
 20 24  1  0
 21 22  1  0
 22 23  2  0
 23 24  1  0
 25 26  1  1
 25 27  1  0
 25 30  1  0
 27 28  1  0
 28 29  1  0
 29 30  1  0
M  END
