
     RDKit          3D

 30 32  0  0  0  0  0  0  0  0999 V2000
   -5.3920   -0.9580    0.1380 C   0  0  0  0  0  0  0  0  0  0  0  0
   -4.7140   -1.9080    0.8380 O   0  0  0  0  0  0  0  0  0  0  0  0
   -3.5430   -1.5740    1.4370 C   0  0  0  0  0  0  0  0  0  0  0  0
   -2.5030   -1.1030    0.4800 C   0  0  2  0  0  0  0  0  0  0  0  0
   -1.1790   -0.8340    1.1650 C   0  0  0  0  0  0  0  0  0  0  0  0
   -0.2330   -0.1790    0.3640 N   0  0  0  0  0  0  0  0  0  0  0  0
    0.8580    0.3720    1.0380 C   0  0  2  0  0  0  0  0  0  0  0  0
    0.4250    1.4970    1.9360 C   0  0  0  0  0  0  0  0  0  0  0  0
   -0.2040    2.6630    1.3370 C   0  0  0  0  0  0  0  0  0  0  0  0
   -1.5810    2.7140    1.2090 C   0  0  0  0  0  0  0  0  0  0  0  0
   -2.2490    3.7660    0.6080 C   0  0  0  0  0  0  0  0  0  0  0  0
   -4.0120    3.7400    0.4850 Cl  0  0  0  0  0  0  0  0  0  0  0  0
   -1.5610    4.8240    0.1050 C   0  0  0  0  0  0  0  0  0  0  0  0
   -2.2440    5.8720   -0.4960 O   0  0  0  0  0  0  0  0  0  0  0  0
   -0.1930    4.8290    0.2050 C   0  0  0  0  0  0  0  0  0  0  0  0
    0.4660    3.7520    0.8190 C   0  0  0  0  0  0  0  0  0  0  0  0
    2.1880    3.9080    0.9680 Cl  0  0  0  0  0  0  0  0  0  0  0  0
    2.1470    0.4980    0.3730 C   0  0  2  0  0  0  0  0  0  0  0  0
    2.1960    1.2370   -0.7900 O   0  0  0  0  0  0  0  0  0  0  0  0
    2.9000   -0.7520    0.0740 C   0  0  0  0  0  0  0  0  0  0  0  0
    4.1260   -0.6310   -0.5560 C   0  0  0  0  0  0  0  0  0  0  0  0
    4.8340   -1.7670   -0.8510 C   0  0  0  0  0  0  0  0  0  0  0  0
    4.3250   -3.0100   -0.5210 C   0  0  0  0  0  0  0  0  0  0  0  0
    5.1270   -4.2250   -0.8610 C   0  0  0  0  0  0  0  0  0  0  0  0
    3.1090   -3.1290    0.1040 C   0  0  0  0  0  0  0  0  0  0  0  0
    2.3990   -1.9730    0.3990 C   0  0  0  0  0  0  0  0  0  0  0  0
   -0.4920   -0.0920   -0.9580 C   0  0  1  0  0  0  0  0  0  0  0  0
   -0.2180   -1.4410   -1.6390 C   0  0  0  0  0  0  0  0  0  0  0  0
   -1.9400    0.2220   -1.2480 C   0  0  0  0  0  0  0  0  0  0  0  0
   -2.8170    0.0420   -0.2230 O   0  0  0  0  0  0  0  0  0  0  0  0
  1  2  1  0
  2  3  1  0
  4  3  1  1
  4  5  1  0
  4 30  1  0
  5  6  1  0
  6  7  1  0
  6 27  1  0
  7  8  1  6
  7 18  1  0
  8  9  1  0
  9 10  2  0
  9 16  1  0
 10 11  1  0
 11 12  1  0
 11 13  2  0
 13 14  1  0
 13 15  1  0
 15 16  2  0
 16 17  1  0
 18 19  1  6
 18 20  1  0
 20 21  2  0
 20 26  1  0
 21 22  1  0
 22 23  2  0
 23 24  1  0
 23 25  1  0
 25 26  2  0
 27 28  1  6
 27 29  1  0
 29 30  1  0
M  END
