
     RDKit          3D

 29 30  0  0  0  0  0  0  0  0999 V2000
    4.0290   -1.6720   -1.1010 C   0  0  0  0  0  0  0  0  0  0  0  0
    3.7980   -0.2590   -1.5930 C   0  0  0  0  0  0  0  0  0  0  0  0
    3.5820    0.7200   -0.5120 C   0  0  0  0  0  0  0  0  0  0  0  0
    2.4680    0.9280    0.2460 C   0  0  0  0  0  0  0  0  0  0  0  0
    1.1500    0.3130    0.2600 C   0  0  0  0  0  0  0  0  0  0  0  0
    0.3280    0.7050    1.1680 O   0  0  0  0  0  0  0  0  0  0  0  0
    0.6690   -0.6710   -0.6150 N   0  0  0  0  0  0  0  0  0  0  0  0
   -0.5910   -1.2920   -0.6390 C   0  0  0  0  0  0  0  0  0  0  0  0
   -1.5860   -1.0040    0.2380 C   0  0  0  0  0  0  0  0  0  0  0  0
   -2.8500   -1.6120    0.2290 C   0  0  0  0  0  0  0  0  0  0  0  0
   -4.0920   -1.2080    1.3780 S   0  0  1  0  0  0  0  0  0  0  0  0
   -4.8760   -2.4060    1.7600 O   0  0  0  0  0  0  0  0  0  0  0  0
   -3.3960   -0.6850    2.6260 O   0  0  0  0  0  0  0  0  0  0  0  0
   -5.0500    0.0680    0.7740 N   0  0  0  0  0  0  0  0  0  0  0  0
   -4.2840    1.2570    0.5600 C   0  0  0  0  0  0  0  0  0  0  0  0
   -3.7460    1.2440   -0.8450 C   0  0  0  0  0  0  0  0  0  0  0  0
   -6.2770    0.2620    1.4860 C   0  0  0  0  0  0  0  0  0  0  0  0
   -7.3720   -0.5550    0.8760 C   0  0  0  0  0  0  0  0  0  0  0  0
   -3.0710   -2.5580   -0.7410 C   0  0  0  0  0  0  0  0  0  0  0  0
   -2.0770   -2.8650   -1.6400 C   0  0  0  0  0  0  0  0  0  0  0  0
   -0.8330   -2.2580   -1.6210 C   0  0  0  0  0  0  0  0  0  0  0  0
    0.0920   -2.6410   -2.5700 O   0  0  0  0  0  0  0  0  0  0  0  0
    2.8100    1.9380    1.0950 N   0  0  0  0  0  0  0  0  0  0  0  0
    4.0440    2.3600    0.9140 C   0  0  0  0  0  0  0  0  0  0  0  0
    4.7160    3.4590    1.6910 C   0  0  0  0  0  0  0  0  0  0  0  0
    4.5760    1.6270   -0.0880 C   0  0  0  0  0  0  0  0  0  0  0  0
    5.9200    1.7560   -0.6180 C   0  0  0  0  0  0  0  0  0  0  0  0
    7.0040    0.9390   -0.0030 C   0  0  0  0  0  0  0  0  0  0  0  0
    6.1750    2.5410   -1.5790 O   0  0  0  0  0  0  0  0  0  0  0  0
  1  2  1  0
  2  3  1  0
  3  4  2  0
  3 26  1  0
  4  5  1  0
  4 23  1  0
  5  6  2  0
  5  7  1  0
  7  8  1  0
  8  9  2  0
  8 21  1  0
  9 10  1  0
 10 11  1  0
 10 19  2  0
 11 12  2  0
 11 13  2  0
 11 14  1  6
 14 15  1  0
 14 17  1  0
 15 16  1  0
 17 18  1  0
 19 20  1  0
 20 21  2  0
 21 22  1  0
 23 24  1  0
 24 25  1  0
 24 26  2  0
 26 27  1  0
 27 28  1  0
 27 29  2  0
M  END
