
     RDKit          3D

 30 32  0  0  0  0  0  0  0  0999 V2000
   -6.4670   -0.8820    2.0310 C   0  0  0  0  0  0  0  0  0  0  0  0
   -5.7110   -1.2120    0.7460 C   0  0  1  0  0  0  0  0  0  0  0  0
   -6.4590   -0.5640   -0.3700 C   0  0  0  0  0  0  0  0  0  0  0  0
   -5.5560    0.0350   -1.4120 C   0  0  0  0  0  0  0  0  0  0  0  0
   -4.5730    0.8850   -0.5860 C   0  0  0  0  0  0  0  0  0  0  0  0
   -3.7900    0.1040    0.3910 C   0  0  2  0  0  0  0  0  0  0  0  0
   -2.4110   -0.2900    0.0470 C   0  0  1  0  0  0  0  0  0  0  0  0
   -2.2530   -1.1280   -1.1930 C   0  0  0  0  0  0  0  0  0  0  0  0
   -0.9730   -1.9310   -1.1300 C   0  0  0  0  0  0  0  0  0  0  0  0
    0.1630   -1.2390   -0.4640 C   0  0  2  0  0  0  0  0  0  0  0  0
    0.6790   -2.0310    1.0370 Cl  0  0  0  0  0  0  0  0  0  0  0  0
   -0.0890    0.2350   -0.2270 C   0  0  0  0  0  0  0  0  0  0  0  0
    1.0140    1.1030   -0.2700 C   0  0  0  0  0  0  0  0  0  0  0  0
    2.3220    0.5910   -0.6030 C   0  0  0  0  0  0  0  0  0  0  0  0
    3.4220    0.6400    0.1550 C   0  0  0  0  0  0  0  0  0  0  0  0
    3.4240    1.2270    1.4520 C   0  0  0  0  0  0  0  0  0  0  0  0
    4.5630    1.3310    2.2770 N   0  0  0  0  0  0  0  0  0  0  0  0
    2.3520    1.6960    1.9410 O   0  0  0  0  0  0  0  0  0  0  0  0
    4.6340    0.0610   -0.4150 C   0  0  0  0  0  0  0  0  0  0  0  0
    4.5730   -0.4470   -1.5890 O   0  0  0  0  0  0  0  0  0  0  0  0
    5.9190    0.0340    0.2980 C   0  0  0  0  0  0  0  0  0  0  0  0
    6.9800   -0.6240   -0.6060 C   0  0  0  0  0  0  0  0  0  0  0  0
    8.3020   -0.6460    0.1400 C   0  0  0  0  0  0  0  0  0  0  0  0
    8.0880   -1.3920    1.3010 O   0  0  0  0  0  0  0  0  0  0  0  0
    0.7520    2.4360   -0.0440 C   0  0  0  0  0  0  0  0  0  0  0  0
   -0.5250    2.9010    0.2140 C   0  0  0  0  0  0  0  0  0  0  0  0
   -0.8340    4.6100    0.5010 Cl  0  0  0  0  0  0  0  0  0  0  0  0
   -1.5940    2.0380    0.2530 C   0  0  0  0  0  0  0  0  0  0  0  0
   -1.3610    0.7060    0.0300 C   0  0  0  0  0  0  0  0  0  0  0  0
   -4.4320   -0.9650    0.9120 O   0  0  0  0  0  0  0  0  0  0  0  0
  2  1  1  1
  2  3  1  0
  2 30  1  0
  3  4  1  0
  4  5  1  0
  6  5  1  6
  6  7  1  0
  6 30  1  0
  7  8  1  6
  7 29  1  0
  8  9  1  0
  9 10  1  0
 10 11  1  1
 10 12  1  0
 12 13  2  0
 12 29  1  0
 13 14  1  0
 13 25  1  0
 14 15  2  3
 15 16  1  0
 15 19  1  0
 16 17  1  0
 16 18  2  0
 19 20  2  0
 19 21  1  0
 21 22  1  0
 22 23  1  0
 23 24  1  0
 25 26  2  0
 26 27  1  0
 26 28  1  0
 28 29  2  0
M  END
