
     RDKit          3D

 29 31  0  0  0  0  0  0  0  0999 V2000
    4.6750    3.1790    1.5830 C   0  0  0  0  0  0  0  0  0  0  0  0
    4.5080    1.8310    1.2100 O   0  0  0  0  0  0  0  0  0  0  0  0
    3.2250    1.3170    0.9950 C   0  0  0  0  0  0  0  0  0  0  0  0
    2.1330    2.1370    1.1510 C   0  0  0  0  0  0  0  0  0  0  0  0
    0.8520    1.6420    0.9440 C   0  0  0  0  0  0  0  0  0  0  0  0
    0.7740    0.2860    0.5790 C   0  0  0  0  0  0  0  0  0  0  0  0
    1.8360   -0.5350    0.4150 C   0  0  0  0  0  0  0  0  0  0  0  0
    1.6940   -1.8450    0.0320 O   0  0  0  0  0  0  0  0  0  0  0  0
    1.7420   -2.2200   -1.3500 C   0  0  0  0  0  0  0  0  0  0  0  0
    3.1010   -0.0320    0.6250 C   0  0  0  0  0  0  0  0  0  0  0  0
    4.2740   -0.7600    0.4990 O   0  0  0  0  0  0  0  0  0  0  0  0
    5.0470   -0.8970   -0.6490 C   0  0  0  0  0  0  0  0  0  0  0  0
   -0.4740   -0.4500    0.4030 C   0  0  0  0  0  0  0  0  0  0  0  0
   -0.1410   -1.6840    0.9200 C   0  0  0  0  0  0  0  0  0  0  0  0
   -0.8080   -2.8450    0.6060 C   0  0  0  0  0  0  0  0  0  0  0  0
   -1.9240   -3.0700   -0.1910 C   0  0  0  0  0  0  0  0  0  0  0  0
   -2.1400   -4.3680   -0.6260 O   0  0  0  0  0  0  0  0  0  0  0  0
   -1.3330   -5.4570   -0.3300 C   0  0  0  0  0  0  0  0  0  0  0  0
   -2.8190   -2.0940   -0.5720 C   0  0  0  0  0  0  0  0  0  0  0  0
   -3.9220   -2.5460   -0.9500 O   0  0  0  0  0  0  0  0  0  0  0  0
   -2.7190   -0.6930   -0.6120 C   0  0  0  0  0  0  0  0  0  0  0  0
   -1.6860    0.0320   -0.1210 C   0  0  0  0  0  0  0  0  0  0  0  0
   -2.0360    1.4730   -0.2030 C   0  0  1  0  0  0  0  0  0  0  0  0
   -3.4380    1.6700   -0.3930 N   0  0  0  0  0  0  0  0  0  0  0  0
   -3.9700    2.3500   -1.5080 C   0  0  0  0  0  0  0  0  0  0  0  0
   -5.4300    2.5680   -1.7280 C   0  0  0  0  0  0  0  0  0  0  0  0
   -3.1530    2.7920   -2.3590 O   0  0  0  0  0  0  0  0  0  0  0  0
   -1.5530    2.0750    1.1240 C   0  0  0  0  0  0  0  0  0  0  0  0
   -0.2040    2.6630    1.1020 C   0  0  0  0  0  0  0  0  0  0  0  0
  1  2  1  0
  2  3  1  0
  3  4  2  0
  3 10  1  0
  4  5  1  0
  5  6  2  0
  5 29  1  0
  6  7  1  0
  6 13  1  0
  7  8  1  0
  7 10  2  0
  8  9  1  0
 10 11  1  0
 11 12  1  0
 13 14  2  0
 13 22  1  0
 14 15  1  0
 15 16  2  0
 16 17  1  0
 16 19  1  0
 17 18  1  0
 19 20  2  0
 19 21  1  0
 21 22  2  0
 22 23  1  0
 23 24  1  1
 23 28  1  0
 24 25  1  0
 25 26  1  0
 25 27  2  0
 28 29  1  0
M  END
