
     RDKit          3D

 31 33  0  0  0  0  0  0  0  0999 V2000
   -7.1640   -0.5370   -1.9620 C   0  0  0  0  0  0  0  0  0  0  0  0
   -6.6940   -1.7020   -2.2380 C   0  0  0  0  0  0  0  0  0  0  0  0
   -7.3460   -2.6330   -3.1030 O   0  0  0  0  0  0  0  0  0  0  0  0
   -6.7750   -3.8400   -3.3260 C   0  0  0  0  0  0  0  0  0  0  0  0
   -5.6690   -4.1780   -2.7790 N   0  0  0  0  0  0  0  0  0  0  0  0
   -4.9360   -3.3190   -1.8930 C   0  0  0  0  0  0  0  0  0  0  0  0
   -5.4290   -2.1450   -1.6490 C   0  0  0  0  0  0  0  0  0  0  0  0
   -4.6670   -1.1570   -0.9160 N   0  0  0  0  0  0  0  0  0  0  0  0
   -4.3150   -0.0290   -1.7750 C   0  0  0  0  0  0  0  0  0  0  0  0
   -4.6890   -0.0610   -3.0070 O   0  0  0  0  0  0  0  0  0  0  0  0
   -3.5730    1.1250   -1.3120 C   0  0  0  0  0  0  0  0  0  0  0  0
   -1.8260    1.1590   -1.7110 S   0  0  0  0  0  0  0  0  0  0  0  0
   -0.7900    0.1100   -0.7080 C   0  0  0  0  0  0  0  0  0  0  0  0
   -0.1270    0.5790    0.3690 C   0  0  0  0  0  0  0  0  0  0  0  0
    0.6900   -0.1260    1.2380 C   0  0  0  0  0  0  0  0  0  0  0  0
    1.4120    0.4640    2.3240 C   0  0  0  0  0  0  0  0  0  0  0  0
    2.2020   -0.2010    3.0400 O   0  0  0  0  0  0  0  0  0  0  0  0
    1.3160    1.8040    2.6810 O   0  0  0  0  0  0  0  0  0  0  0  0
    2.0320    2.4430    3.6860 C   0  0  0  0  0  0  0  0  0  0  0  0
    3.4680    2.3740    3.1490 C   0  0  0  0  0  0  0  0  0  0  0  0
    4.5850    2.3130    2.7100 C   0  0  0  0  0  0  0  0  0  0  0  0
    5.9020    2.2480    2.1900 C   0  0  0  0  0  0  0  0  0  0  0  0
    6.9320    2.9260    2.9300 C   0  0  0  0  0  0  0  0  0  0  0  0
    8.0910    2.7160    2.2540 C   0  0  0  0  0  0  0  0  0  0  0  0
    7.7770    1.9560    1.1650 C   0  0  0  0  0  0  0  0  0  0  0  0
    8.7550    1.4830    0.1480 C   0  0  0  0  0  0  0  0  0  0  0  0
    6.4790    1.7070    1.1650 O   0  0  0  0  0  0  0  0  0  0  0  0
    0.7780   -1.4980    0.8860 C   0  0  0  0  0  0  0  0  0  0  0  0
    0.1040   -2.0150   -0.2180 C   0  0  0  0  0  0  0  0  0  0  0  0
   -0.6790   -1.2330   -1.0300 C   0  0  0  0  0  0  0  0  0  0  0  0
   -1.3520   -1.7400   -2.2620 C   0  0  0  0  0  0  0  0  0  0  0  0
  1  2  2  0
  2  3  1  0
  2  7  1  0
  3  4  1  0
  4  5  2  0
  5  6  1  0
  6  7  2  0
  7  8  1  0
  8  9  1  0
  9 10  2  0
  9 11  1  0
 11 12  1  0
 12 13  1  0
 13 14  2  0
 13 30  1  0
 14 15  1  0
 15 16  1  0
 15 28  2  0
 16 17  2  0
 16 18  1  0
 18 19  1  0
 19 20  1  0
 20 21  3  0
 21 22  1  0
 22 23  2  0
 22 27  1  0
 23 24  1  0
 24 25  2  0
 25 26  1  0
 25 27  1  0
 28 29  1  0
 29 30  2  0
 30 31  1  0
M  END
