
     RDKit          3D

 31 33  0  0  0  0  0  0  0  0999 V2000
   -0.1000    4.6530   -1.5620 C   0  0  0  0  0  0  0  0  0  0  0  0
   -1.1940    3.9640   -0.7730 C   0  0  1  0  0  0  0  0  0  0  0  0
   -1.0640    4.3310    0.6990 C   0  0  0  0  0  0  0  0  0  0  0  0
   -2.5180    4.5170   -1.2530 C   0  0  0  0  0  0  0  0  0  0  0  0
   -1.2090    2.5830   -0.9760 O   0  0  0  0  0  0  0  0  0  0  0  0
   -0.1130    1.7530   -0.6700 C   0  0  0  0  0  0  0  0  0  0  0  0
    0.8680    2.3720   -0.2000 O   0  0  0  0  0  0  0  0  0  0  0  0
   -0.1620    0.3270   -0.8920 C   0  0  0  0  0  0  0  0  0  0  0  0
    0.7810   -0.5370   -0.6490 C   0  0  0  0  0  0  0  0  0  0  0  0
    2.0790   -0.2590   -0.1060 C   0  0  0  0  0  0  0  0  0  0  0  0
    3.0350   -1.1480    0.1380 C   0  0  0  0  0  0  0  0  0  0  0  0
    2.8780   -2.5490   -0.1230 C   0  0  0  0  0  0  0  0  0  0  0  0
    1.9150   -3.2060   -0.5870 N   0  0  0  0  0  0  0  0  0  0  0  0
    4.4210   -3.2940    0.3640 S   0  0  0  0  0  0  0  0  0  0  0  0
    5.1730   -1.7520    0.8730 C   0  0  0  0  0  0  0  0  0  0  0  0
    4.3370   -0.8020    0.6880 C   0  0  0  0  0  0  0  0  0  0  0  0
    4.8350    0.5820    1.0830 C   0  0  0  0  0  0  0  0  0  0  0  0
    6.2750    0.6960    0.7770 C   0  0  0  0  0  0  0  0  0  0  0  0
    6.7060    1.7870    0.3420 O   0  0  0  0  0  0  0  0  0  0  0  0
    7.1600   -0.3960    0.9660 N   0  0  0  0  0  0  0  0  0  0  0  0
    6.5550   -1.6060    1.4180 C   0  0  0  0  0  0  0  0  0  0  0  0
   -1.3650   -0.1640   -1.4290 O   0  0  0  0  0  0  0  0  0  0  0  0
   -2.1790   -1.0310   -0.7290 C   0  0  0  0  0  0  0  0  0  0  0  0
   -2.9910   -0.4360    0.1200 C   0  0  0  0  0  0  0  0  0  0  0  0
   -4.0270   -0.8060    1.0860 C   0  0  0  0  0  0  0  0  0  0  0  0
   -4.7880   -1.8730    1.2660 C   0  0  0  0  0  0  0  0  0  0  0  0
   -5.6620   -1.7700    2.3580 O   0  0  0  0  0  0  0  0  0  0  0  0
   -4.9060   -3.1540    0.5460 C   0  0  0  0  0  0  0  0  0  0  0  0
   -3.6010   -3.7520    0.1410 C   0  0  0  0  0  0  0  0  0  0  0  0
   -3.2560   -3.2050   -1.2390 C   0  0  0  0  0  0  0  0  0  0  0  0
   -1.9550   -2.4540   -1.0910 C   0  0  0  0  0  0  0  0  0  0  0  0
  2  1  1  6
  2  3  1  0
  2  4  1  0
  2  5  1  0
  5  6  1  0
  6  7  2  0
  6  8  1  0
  8  9  2  3
  8 22  1  0
  9 10  1  0
 10 11  2  3
 11 12  1  0
 11 16  1  0
 12 13  2  0
 12 14  1  0
 14 15  1  0
 15 16  2  0
 15 21  1  0
 16 17  1  0
 17 18  1  0
 18 19  2  0
 18 20  1  0
 20 21  1  0
 22 23  1  0
 23 24  2  0
 23 31  1  0
 24 25  1  0
 25 26  2  0
 26 27  1  0
 26 28  1  0
 28 29  1  0
 29 30  1  0
 30 31  1  0
M  END
