
     RDKit          3D

 29 30  0  0  0  0  0  0  0  0999 V2000
   -5.7920    1.6180   -0.6430 C   0  0  0  0  0  0  0  0  0  0  0  0
   -4.5530    1.9570    0.1970 C   0  0  1  0  0  0  0  0  0  0  0  0
   -4.9190    3.2280    0.9800 C   0  0  0  0  0  0  0  0  0  0  0  0
   -4.3010    0.7830    1.0730 C   0  0  0  0  0  0  0  0  0  0  0  0
   -2.8520    0.3700    1.1930 C   0  0  0  0  0  0  0  0  0  0  0  0
   -2.1430    0.3700   -0.1110 C   0  0  2  0  0  0  0  0  0  0  0  0
   -2.7440   -0.1910   -1.1900 O   0  0  0  0  0  0  0  0  0  0  0  0
   -0.6650   -0.0380    0.0940 C   0  0  1  0  0  0  0  0  0  0  0  0
   -0.1490    0.5030    1.2210 O   0  0  0  0  0  0  0  0  0  0  0  0
   -0.1940   -1.1950   -0.6190 C   0  0  1  0  0  0  0  0  0  0  0  0
    1.2160   -0.6080   -1.0430 N   0  0  0  0  0  0  0  0  0  0  0  0
    1.9630   -0.2990    0.1140 C   0  0  0  0  0  0  0  0  0  0  0  0
    2.7170    1.0340    0.0100 C   0  0  0  0  0  0  0  0  0  0  0  0
    3.6860    1.0930   -1.1080 C   0  0  0  0  0  0  0  0  0  0  0  0
    4.6870    0.1690   -1.1070 O   0  0  0  0  0  0  0  0  0  0  0  0
    5.5070    0.1090   -0.0200 C   0  0  0  0  0  0  0  0  0  0  0  0
    6.2170    1.3820    0.3440 C   0  0  0  0  0  0  0  0  0  0  0  0
    7.0380    1.8650   -0.6620 O   0  0  0  0  0  0  0  0  0  0  0  0
    0.1880   -2.4920   -0.2600 C   0  0  0  0  0  0  0  0  0  0  0  0
    1.4620   -2.9870   -0.4060 C   0  0  0  0  0  0  0  0  0  0  0  0
    1.8570   -4.2930   -0.1880 C   0  0  0  0  0  0  0  0  0  0  0  0
    0.9260   -5.2130    0.2050 C   0  0  0  0  0  0  0  0  0  0  0  0
    1.3430   -6.8820    0.5080 Cl  0  0  0  0  0  0  0  0  0  0  0  0
   -0.3810   -4.7890    0.3670 C   0  0  0  0  0  0  0  0  0  0  0  0
   -0.7270   -3.4880    0.1430 C   0  0  0  0  0  0  0  0  0  0  0  0
   -2.3520   -2.9660    0.3420 Cl  0  0  0  0  0  0  0  0  0  0  0  0
   -2.2000    1.8670   -0.4890 C   0  0  0  0  0  0  0  0  0  0  0  0
   -1.1780    2.5470   -0.6260 O   0  0  0  0  0  0  0  0  0  0  0  0
   -3.4840    2.3260   -0.6470 O   0  0  0  0  0  0  0  0  0  0  0  0
  2  1  1  6
  2  3  1  0
  2  4  1  0
  2 29  1  0
  4  5  1  0
  5  6  1  0
  6  7  1  6
  6  8  1  0
  6 27  1  0
  8  9  1  1
  8 10  1  0
 10 11  1  1
 10 19  1  0
 11 12  1  0
 12 13  1  0
 13 14  1  0
 14 15  1  0
 15 16  1  0
 16 17  1  0
 17 18  1  0
 19 20  2  0
 19 25  1  0
 20 21  1  0
 21 22  2  0
 22 23  1  0
 22 24  1  0
 24 25  2  0
 25 26  1  0
 27 28  2  0
 27 29  1  0
M  END
