
     RDKit          3D

 30 32  0  0  0  0  0  0  0  0999 V2000
    6.9480   -2.8800    0.2830 C   0  0  0  0  0  0  0  0  0  0  0  0
    6.1490   -2.2790   -0.8520 C   0  0  0  0  0  0  0  0  0  0  0  0
    5.2890   -1.1830   -0.3330 C   0  0  0  0  0  0  0  0  0  0  0  0
    4.0020   -1.2620   -0.4630 C   0  0  0  0  0  0  0  0  0  0  0  0
    2.9860   -0.3200   -0.0350 C   0  0  0  0  0  0  0  0  0  0  0  0
    1.6330   -0.5620   -0.2600 C   0  0  0  0  0  0  0  0  0  0  0  0
    1.2450   -1.8360   -0.9670 C   0  0  0  0  0  0  0  0  0  0  0  0
    0.7360    0.2630    0.1170 O   0  0  0  0  0  0  0  0  0  0  0  0
    0.9680    1.4360    0.7580 C   0  0  0  0  0  0  0  0  0  0  0  0
   -0.0280    2.2610    1.1270 C   0  0  0  0  0  0  0  0  0  0  0  0
   -1.4690    2.2380    1.0120 C   0  0  0  0  0  0  0  0  0  0  0  0
   -2.1330    3.1770    1.4560 O   0  0  0  0  0  0  0  0  0  0  0  0
   -2.1690    1.1570    0.3950 N   0  0  0  0  0  0  0  0  0  0  0  0
   -3.5700    1.1220    0.2730 C   0  0  0  0  0  0  0  0  0  0  0  0
   -4.1450    2.1810    0.7370 O   0  0  0  0  0  0  0  0  0  0  0  0
   -4.4160    0.1150   -0.2770 C   0  0  0  0  0  0  0  0  0  0  0  0
   -4.1490   -1.2050   -0.4350 C   0  0  0  0  0  0  0  0  0  0  0  0
   -2.8810   -1.7770    0.1070 C   0  0  0  0  0  0  0  0  0  0  0  0
   -5.0640   -2.0800   -1.0620 C   0  0  0  0  0  0  0  0  0  0  0  0
   -6.2610   -1.6130   -1.5300 C   0  0  0  0  0  0  0  0  0  0  0  0
   -6.5230   -0.3100   -1.3710 N   0  0  0  0  0  0  0  0  0  0  0  0
   -5.6650    0.5330   -0.7800 C   0  0  0  0  0  0  0  0  0  0  0  0
   -5.9940    1.8680   -0.6460 O   0  0  0  0  0  0  0  0  0  0  0  0
   -7.2370    2.3120   -1.1400 C   0  0  0  0  0  0  0  0  0  0  0  0
    0.8470    3.6030    1.9030 S   0  0  0  0  0  0  0  0  0  0  0  0
    2.4530    2.9620    1.6760 C   0  0  0  0  0  0  0  0  0  0  0  0
    3.7100    3.6240    2.1200 C   0  0  0  0  0  0  0  0  0  0  0  0
    2.2490    1.7550    1.0190 C   0  0  0  0  0  0  0  0  0  0  0  0
    3.2730    0.8540    0.6110 C   0  0  0  0  0  0  0  0  0  0  0  0
    4.4610    1.1970    0.8780 O   0  0  0  0  0  0  0  0  0  0  0  0
  1  2  1  0
  2  3  1  0
  3  4  2  3
  4  5  1  0
  5  6  2  0
  5 29  1  0
  6  7  1  0
  6  8  1  0
  8  9  1  0
  9 10  2  0
  9 28  1  0
 10 11  1  0
 10 25  1  0
 11 12  2  0
 11 13  1  0
 13 14  1  0
 14 15  2  0
 14 16  1  0
 16 17  2  0
 16 22  1  0
 17 18  1  0
 17 19  1  0
 19 20  2  0
 20 21  1  0
 21 22  2  0
 22 23  1  0
 23 24  1  0
 25 26  1  0
 26 27  1  0
 26 28  2  0
 28 29  1  0
 29 30  2  0
M  END
