
     RDKit          3D

 21 23  0  0  0  0  0  0  0  0999 V2000
    0.7460    4.4760    0.3420 C   0  0  0  0  0  0  0  0  0  0  0  0
    0.5660    3.1310   -0.0320 O   0  0  0  0  0  0  0  0  0  0  0  0
   -0.4300    2.3170    0.4630 C   0  0  0  0  0  0  0  0  0  0  0  0
   -1.1970    2.8990    1.3120 O   0  0  0  0  0  0  0  0  0  0  0  0
   -0.6480    0.9390    0.1080 C   0  0  0  0  0  0  0  0  0  0  0  0
   -0.0110    0.1120   -0.7310 C   0  0  0  0  0  0  0  0  0  0  0  0
    1.1780    0.5450   -1.5350 C   0  0  0  0  0  0  0  0  0  0  0  0
    2.3850   -0.2860   -1.1940 C   0  0  0  0  0  0  0  0  0  0  0  0
    2.7720   -0.1830    0.2540 C   0  0  2  0  0  0  0  0  0  0  0  0
    3.1040    1.2270    0.6490 C   0  0  0  0  0  0  0  0  0  0  0  0
    3.9580   -1.0820    0.5330 C   0  0  0  0  0  0  0  0  0  0  0  0
   -0.5770   -1.2260   -0.7540 C   0  0  2  0  0  0  0  0  0  0  0  0
   -1.1680   -1.8240   -1.9650 C   0  0  0  0  0  0  0  0  0  0  0  0
   -1.5820   -3.2580   -1.6380 C   0  0  0  0  0  0  0  0  0  0  0  0
   -2.2770   -3.3320   -0.3790 O   0  0  0  0  0  0  0  0  0  0  0  0
   -2.6060   -2.1760    0.3170 C   0  0  0  0  0  0  0  0  0  0  0  0
   -3.6460   -1.9650    1.1010 C   0  0  0  0  0  0  0  0  0  0  0  0
   -3.8790   -0.6730    1.7870 C   0  0  0  0  0  0  0  0  0  0  0  0
   -2.8630    0.3960    1.6390 C   0  0  0  0  0  0  0  0  0  0  0  0
   -1.7720    0.1260    0.6710 C   0  0  0  0  0  0  0  0  0  0  0  0
   -1.7190   -1.0430    0.1750 C   0  0  0  0  0  0  0  0  0  0  0  0
  1  2  1  0
  2  3  1  0
  3  4  2  0
  3  5  1  0
  5  6  2  0
  5 20  1  0
  6  7  1  0
  6 12  1  0
  7  8  1  0
  8  9  1  0
  9 10  1  6
  9 11  1  0
 12 13  1  6
 12 21  1  0
 13 14  1  0
 14 15  1  0
 15 16  1  0
 16 17  2  0
 16 21  1  0
 17 18  1  0
 18 19  1  0
 19 20  1  0
 20 21  2  0
M  END
