
     RDKit          3D

 21 22  0  0  0  0  0  0  0  0999 V2000
   -4.8620   -2.5350    0.8670 C   0  0  0  0  0  0  0  0  0  0  0  0
   -3.9700   -1.3670    0.6060 C   0  0  0  0  0  0  0  0  0  0  0  0
   -2.6930   -1.5130    0.5210 C   0  0  0  0  0  0  0  0  0  0  0  0
   -1.7330   -0.3540    0.2540 C   0  0  0  0  0  0  0  0  0  0  0  0
   -0.5130   -0.7390    0.2260 C   0  0  0  0  0  0  0  0  0  0  0  0
    0.8080   -0.2160    0.0500 C   0  0  0  0  0  0  0  0  0  0  0  0
    1.8890   -1.0580    0.0530 C   0  0  0  0  0  0  0  0  0  0  0  0
    2.0240   -2.4320    0.1930 O   0  0  0  0  0  0  0  0  0  0  0  0
    3.2380   -3.0910    0.1700 C   0  0  0  0  0  0  0  0  0  0  0  0
    4.3620   -2.4290    0.0080 C   0  0  0  0  0  0  0  0  0  0  0  0
    4.2740   -0.9740   -0.1450 C   0  0  0  0  0  0  0  0  0  0  0  0
    3.1140   -0.3040   -0.1260 C   0  0  0  0  0  0  0  0  0  0  0  0
    2.7970    1.1020   -0.2460 C   0  0  0  0  0  0  0  0  0  0  0  0
    3.5650    2.1440   -0.4150 C   0  0  0  0  0  0  0  0  0  0  0  0
    5.0300    2.1480   -0.5350 C   0  0  0  0  0  0  0  0  0  0  0  0
    1.3010    1.1220   -0.1250 C   0  0  0  0  0  0  0  0  0  0  0  0
    0.7070    2.2130   -0.1810 O   0  0  0  0  0  0  0  0  0  0  0  0
   -2.3640    0.9380    0.0520 C   0  0  1  0  0  0  0  0  0  0  0  0
   -2.9270    1.5750    1.3150 C   0  0  0  0  0  0  0  0  0  0  0  0
   -1.7590    1.8480   -0.7220 O   0  0  0  0  0  0  0  0  0  0  0  0
   -2.4390    2.1570   -1.8780 C   0  0  0  0  0  0  0  0  0  0  0  0
  1  2  1  0
  2  3  2  3
  3  4  1  0
  4  5  2  3
  4 18  1  0
  5  6  1  0
  6  7  2  0
  6 16  1  0
  7  8  1  0
  7 12  1  0
  8  9  1  0
  9 10  2  0
 10 11  1  0
 11 12  2  0
 12 13  1  0
 13 14  2  3
 13 16  1  0
 14 15  1  0
 16 17  2  0
 18 19  1  1
 18 20  1  0
 20 21  1  0
M  END
