
     RDKit          3D

 21 23  0  0  0  0  0  0  0  0999 V2000
   -3.8380    2.5090    0.9860 C   0  0  0  0  0  0  0  0  0  0  0  0
   -3.2950    1.3480    1.1470 C   0  0  0  0  0  0  0  0  0  0  0  0
   -4.0590    0.3100    1.7120 O   0  0  0  0  0  0  0  0  0  0  0  0
   -3.6310   -0.9250    2.0440 C   0  0  0  0  0  0  0  0  0  0  0  0
   -2.2500   -1.2420    1.5890 C   0  0  0  0  0  0  0  0  0  0  0  0
   -1.6510   -2.4440    1.6610 O   0  0  0  0  0  0  0  0  0  0  0  0
   -0.4520   -2.3320    1.1850 C   0  0  0  0  0  0  0  0  0  0  0  0
    0.5050   -3.5010    1.1060 C   0  0  0  0  0  0  0  0  0  0  0  0
   -0.2480   -0.9930    0.7790 C   0  0  0  0  0  0  0  0  0  0  0  0
    1.0190   -0.6420    0.1800 C   0  0  2  0  0  0  0  0  0  0  0  0
    1.7470    0.5320    0.7360 C   0  0  0  0  0  0  0  0  0  0  0  0
    2.4990    1.3350   -0.2760 C   0  0  0  0  0  0  0  0  0  0  0  0
    2.5430    2.5410   -0.2540 O   0  0  0  0  0  0  0  0  0  0  0  0
    3.2450    0.6780   -1.3810 C   0  0  0  0  0  0  0  0  0  0  0  0
    2.6140   -0.6530   -1.6190 C   0  0  2  0  0  0  0  0  0  0  0  0
    2.7860   -1.2080   -3.0050 C   0  0  0  0  0  0  0  0  0  0  0  0
    1.1030   -0.4520   -1.3230 C   0  0  0  0  0  0  0  0  0  0  0  0
   -1.4100   -0.3070    1.0390 C   0  0  0  0  0  0  0  0  0  0  0  0
   -1.9190    1.0830    0.7740 C   0  0  0  0  0  0  0  0  0  0  0  0
   -1.1650    1.8750    0.0940 C   0  0  0  0  0  0  0  0  0  0  0  0
   -1.4290    3.2290   -0.4990 C   0  0  0  0  0  0  0  0  0  0  0  0
  1  2  2  0
  2  3  1  0
  2 19  1  0
  3  4  1  0
  4  5  1  0
  5  6  1  0
  5 18  2  0
  6  7  1  0
  7  8  1  0
  7  9  2  0
 10  9  1  1
  9 18  1  0
 10 11  1  0
 10 17  1  0
 11 12  1  0
 12 13  2  0
 12 14  1  0
 14 15  1  0
 15 16  1  6
 15 17  1  0
 18 19  1  0
 19 20  2  3
 20 21  1  0
M  END
