
     RDKit          3D

 21 22  0  0  0  0  0  0  0  0999 V2000
   -4.7740    1.7990   -1.6570 C   0  0  0  0  0  0  0  0  0  0  0  0
   -4.6550    0.9000   -0.7670 C   0  0  0  0  0  0  0  0  0  0  0  0
   -3.5570    0.3290   -0.0630 C   0  0  0  0  0  0  0  0  0  0  0  0
   -4.0190   -0.6810    0.8090 C   0  0  0  0  0  0  0  0  0  0  0  0
   -3.1160   -1.4470    1.6650 C   0  0  0  0  0  0  0  0  0  0  0  0
   -2.1550    0.4750   -0.0290 C   0  0  0  0  0  0  0  0  0  0  0  0
   -1.2840    1.2500   -0.5890 C   0  0  0  0  0  0  0  0  0  0  0  0
   -1.2790    2.3900   -1.5360 C   0  0  0  0  0  0  0  0  0  0  0  0
   -0.3540    3.2480   -0.7780 O   0  0  0  0  0  0  0  0  0  0  0  0
    0.7680    2.4360   -0.5170 C   0  0  0  0  0  0  0  0  0  0  0  0
    1.9160    2.8660   -0.4480 O   0  0  0  0  0  0  0  0  0  0  0  0
    0.2220    1.0760   -0.3780 C   0  0  0  0  0  0  0  0  0  0  0  0
    0.8690   -0.0520   -0.3240 C   0  0  0  0  0  0  0  0  0  0  0  0
    0.0470   -1.3330   -0.5290 C   0  0  0  0  0  0  0  0  0  0  0  0
    2.2180   -0.2710    0.1010 C   0  0  0  0  0  0  0  0  0  0  0  0
    2.7760   -1.5190    0.0220 C   0  0  0  0  0  0  0  0  0  0  0  0
    4.1780   -1.5100    0.5090 C   0  0  0  0  0  0  0  0  0  0  0  0
    4.6040   -2.4960    1.2740 C   0  0  0  0  0  0  0  0  0  0  0  0
    5.0230   -0.3780    0.0760 C   0  0  0  0  0  0  0  0  0  0  0  0
    4.3020    0.8020    0.1320 O   0  0  0  0  0  0  0  0  0  0  0  0
    3.1100    0.6770    0.7930 C   0  0  0  0  0  0  0  0  0  0  0  0
  1  2  2  0
  2  3  1  0
  3  4  2  3
  3  6  1  0
  4  5  1  0
  6  7  2  3
  7  8  1  0
  7 12  1  0
  8  9  1  0
  9 10  1  0
 10 11  2  0
 10 12  1  0
 12 13  2  3
 13 14  1  0
 13 15  1  0
 15 16  2  0
 15 21  1  0
 16 17  1  0
 17 18  2  0
 17 19  1  0
 19 20  1  0
 20 21  1  0
M  END
