
     RDKit          3D

 38 41  0  0  0  0  0  0  0  0999 V2000
    7.6220   -0.1200    1.9100 C   0  0  0  0  0  0  0  0  0  0  0  0
    7.8390   -0.9790    0.9410 C   0  0  0  0  0  0  0  0  0  0  0  0
    8.7080   -2.1980    1.2010 C   0  0  0  0  0  0  0  0  0  0  0  0
    8.7020   -2.8620   -0.1150 C   0  0  0  0  0  0  0  0  0  0  0  0
    7.9960   -2.2090   -0.9770 C   0  0  0  0  0  0  0  0  0  0  0  0
    7.4160   -1.0060   -0.3860 N   0  0  0  0  0  0  0  0  0  0  0  0
    6.6430   -0.1420   -1.1910 C   0  0  0  0  0  0  0  0  0  0  0  0
    5.8920    0.9670   -0.6020 C   0  0  1  0  0  0  0  0  0  0  0  0
    5.2870    1.6610   -1.7240 O   0  0  0  0  0  0  0  0  0  0  0  0
    4.7080    0.4410    0.2020 C   0  0  0  0  0  0  0  0  0  0  0  0
    3.8920    1.5440    0.6460 N   0  0  0  0  0  0  0  0  0  0  0  0
    2.5280    1.0970    1.5610 S   0  0  2  0  0  0  0  0  0  0  0  0
    2.3930    1.8580    2.8430 O   0  0  0  0  0  0  0  0  0  0  0  0
    2.5050   -0.4010    1.8200 O   0  0  0  0  0  0  0  0  0  0  0  0
    1.0790    1.4600    0.6140 C   0  0  0  0  0  0  0  0  0  0  0  0
    0.6040    2.7760    0.6430 C   0  0  0  0  0  0  0  0  0  0  0  0
   -0.5220    3.0580   -0.1000 C   0  0  0  0  0  0  0  0  0  0  0  0
   -1.0480    4.4490   -0.0730 C   0  0  0  0  0  0  0  0  0  0  0  0
   -1.1500    2.0860   -0.8370 C   0  0  0  0  0  0  0  0  0  0  0  0
   -0.6640    0.8030   -0.8480 C   0  0  0  0  0  0  0  0  0  0  0  0
   -1.4810   -0.3710   -1.8510 S   0  0  1  0  0  0  0  0  0  0  0  0
   -1.3380    0.0400   -3.2960 O   0  0  0  0  0  0  0  0  0  0  0  0
   -0.7220   -1.6840   -1.6890 O   0  0  0  0  0  0  0  0  0  0  0  0
   -3.0880   -0.5470   -1.3720 N   0  0  0  0  0  0  0  0  0  0  0  0
   -3.3720   -0.9970   -0.0720 C   0  0  0  0  0  0  0  0  0  0  0  0
   -4.8500   -1.1290    0.2590 C   0  0  1  0  0  0  0  0  0  0  0  0
   -5.6030    0.1350    0.1520 C   0  0  0  0  0  0  0  0  0  0  0  0
   -6.4180    0.5440    1.1690 C   0  0  0  0  0  0  0  0  0  0  0  0
   -7.1510    1.7390    1.0740 C   0  0  0  0  0  0  0  0  0  0  0  0
   -7.0540    2.5230   -0.0630 C   0  0  0  0  0  0  0  0  0  0  0  0
   -6.2400    2.1080   -1.0710 C   0  0  0  0  0  0  0  0  0  0  0  0
   -5.5110    0.9160   -0.9730 C   0  0  0  0  0  0  0  0  0  0  0  0
   -5.5050   -2.0560   -0.7590 C   0  0  0  0  0  0  0  0  0  0  0  0
   -5.0740   -3.4510   -0.5460 C   0  0  0  0  0  0  0  0  0  0  0  0
   -5.2370   -3.9590    0.6720 C   0  0  0  0  0  0  0  0  0  0  0  0
   -5.8540   -2.9770    1.6520 C   0  0  0  0  0  0  0  0  0  0  0  0
   -4.9020   -1.7590    1.6310 C   0  0  0  0  0  0  0  0  0  0  0  0
    0.4610    0.4780   -0.1170 C   0  0  0  0  0  0  0  0  0  0  0  0
  1  2  2  0
  2  3  1  0
  2  6  1  0
  3  4  1  0
  4  5  2  0
  5  6  1  0
  6  7  1  0
  7  8  1  0
  8  9  1  6
  8 10  1  0
 10 11  1  0
 12 11  1  6
 12 13  2  0
 12 14  2  0
 12 15  1  0
 15 16  2  0
 15 38  1  0
 16 17  1  0
 17 18  1  0
 17 19  2  0
 19 20  1  0
 20 21  1  0
 20 38  2  0
 21 22  2  0
 21 23  2  0
 21 24  1  1
 24 25  1  0
 26 25  1  6
 26 27  1  0
 26 33  1  0
 26 37  1  0
 27 28  2  0
 27 32  1  0
 28 29  1  0
 29 30  2  0
 30 31  1  0
 31 32  2  0
 33 34  1  0
 34 35  2  0
 35 36  1  0
 36 37  1  0
M  END
