
     RDKit          3D

 38 41  0  0  0  0  0  0  0  0999 V2000
    9.4300    2.2590   -0.3350 C   0  0  0  0  0  0  0  0  0  0  0  0
    8.6030    1.4860    0.3460 C   0  0  0  0  0  0  0  0  0  0  0  0
    8.5660    0.0280    0.0260 C   0  0  0  0  0  0  0  0  0  0  0  0
    6.9110   -0.3670   -0.4900 S   0  0  1  0  0  0  0  0  0  0  0  0
    6.5070    0.4280   -1.6940 O   0  0  0  0  0  0  0  0  0  0  0  0
    6.7780   -1.8230   -0.8190 O   0  0  0  0  0  0  0  0  0  0  0  0
    5.8190    0.0220    0.8500 C   0  0  0  0  0  0  0  0  0  0  0  0
    4.4320   -0.2990    0.4430 C   0  0  0  0  0  0  0  0  0  0  0  0
    4.2390   -0.7650   -0.7050 O   0  0  0  0  0  0  0  0  0  0  0  0
    3.3750   -0.0730    1.3550 N   0  0  0  0  0  0  0  0  0  0  0  0
    2.0110   -0.3640    1.0120 C   0  0  0  0  0  0  0  0  0  0  0  0
    1.4990    0.4230   -0.1820 C   0  0  2  0  0  0  0  0  0  0  0  0
    1.5640    1.9010    0.0700 C   0  0  0  0  0  0  0  0  0  0  0  0
    0.1280   -0.0850   -0.4470 C   0  0  0  0  0  0  0  0  0  0  0  0
   -0.1970   -0.5980   -1.5540 O   0  0  0  0  0  0  0  0  0  0  0  0
   -0.8480   -0.0040    0.5520 N   0  0  0  0  0  0  0  0  0  0  0  0
   -2.2120   -0.5160    0.3070 C   0  0  0  0  0  0  0  0  0  0  0  0
   -3.1440    0.3440   -0.1440 C   0  0  0  0  0  0  0  0  0  0  0  0
   -3.2130    1.7400   -0.4640 C   0  0  0  0  0  0  0  0  0  0  0  0
   -2.1790    2.5910   -0.2470 C   0  0  0  0  0  0  0  0  0  0  0  0
   -2.2620    3.9500   -0.5830 C   0  0  0  0  0  0  0  0  0  0  0  0
   -3.4040    4.4470   -1.1440 C   0  0  0  0  0  0  0  0  0  0  0  0
   -3.4730    5.8610   -1.4880 C   0  0  0  0  0  0  0  0  0  0  0  0
   -2.3600    6.7940   -1.2580 C   0  0  0  0  0  0  0  0  0  0  0  0
   -4.5320    6.2890   -2.0010 O   0  0  0  0  0  0  0  0  0  0  0  0
   -4.4740    3.5920   -1.3750 C   0  0  0  0  0  0  0  0  0  0  0  0
   -4.3610    2.2560   -1.0310 C   0  0  0  0  0  0  0  0  0  0  0  0
   -4.5950   -0.7440   -0.3290 S   0  0  0  0  0  0  0  0  0  0  0  0
   -3.7800   -2.2250    0.2220 C   0  0  0  0  0  0  0  0  0  0  0  0
   -4.2590   -3.5260    0.3620 C   0  0  0  0  0  0  0  0  0  0  0  0
   -3.4070   -4.5190    0.8200 C   0  0  0  0  0  0  0  0  0  0  0  0
   -2.1250   -4.1240    1.1040 C   0  0  0  0  0  0  0  0  0  0  0  0
   -1.6710   -2.8550    0.9630 C   0  0  0  0  0  0  0  0  0  0  0  0
   -2.5130   -1.8220    0.5000 C   0  0  0  0  0  0  0  0  0  0  0  0
   -3.8830   -5.8340    0.9640 N   0  0  0  0  0  0  0  0  0  0  0  0
   -5.2630   -6.1790    0.6890 C   0  0  0  0  0  0  0  0  0  0  0  0
   -5.9360   -5.2410   -0.2590 C   0  0  0  0  0  0  0  0  0  0  0  0
   -5.6630   -3.7810    0.0120 C   0  0  0  0  0  0  0  0  0  0  0  0
  1  2  2  0
  2  3  1  0
  4  3  1  1
  4  5  2  0
  4  6  2  0
  4  7  1  0
  7  8  1  0
  8  9  2  0
  8 10  1  0
 10 11  1  0
 11 12  1  0
 12 13  1  1
 12 14  1  0
 14 15  2  0
 14 16  1  0
 16 17  1  0
 17 18  2  0
 17 34  1  0
 18 19  1  0
 18 28  1  0
 19 20  2  0
 19 27  1  0
 20 21  1  0
 21 22  2  0
 22 23  1  0
 22 26  1  0
 23 24  1  0
 23 25  2  0
 26 27  2  0
 28 29  1  0
 29 30  2  0
 29 34  1  0
 30 31  1  0
 30 38  1  0
 31 32  2  0
 31 35  1  0
 32 33  1  0
 33 34  2  0
 35 36  1  0
 36 37  1  0
 37 38  1  0
M  END
