
     RDKit          3D

 38 41  0  0  0  0  0  0  0  0999 V2000
    5.1180    1.3930   -2.7630 C   0  0  0  0  0  0  0  0  0  0  0  0
    4.0830    0.8720   -1.8510 C   0  0  0  0  0  0  0  0  0  0  0  0
    2.7820    1.3450   -1.9900 C   0  0  0  0  0  0  0  0  0  0  0  0
    1.7460    0.9160   -1.1850 C   0  0  0  0  0  0  0  0  0  0  0  0
    2.0500   -0.0210   -0.2130 C   0  0  0  0  0  0  0  0  0  0  0  0
    3.3390   -0.4950   -0.0690 C   0  0  0  0  0  0  0  0  0  0  0  0
    4.3520   -0.0470   -0.8900 C   0  0  0  0  0  0  0  0  0  0  0  0
    5.6730   -0.5640   -0.7130 N   0  0  0  0  0  0  0  0  0  0  0  0
    5.9800   -1.5440    0.3080 C   0  0  0  0  0  0  0  0  0  0  0  0
    7.4180   -1.8910    0.2350 C   0  0  0  0  0  0  0  0  0  0  0  0
    7.8870   -3.1000    0.0100 C   0  0  0  0  0  0  0  0  0  0  0  0
    9.3590   -3.0360    0.0120 C   0  0  0  0  0  0  0  0  0  0  0  0
    9.6700   -1.6280    0.2680 C   0  0  0  0  0  0  0  0  0  0  0  0
    8.5320   -0.9730    0.3960 C   0  0  0  0  0  0  0  0  0  0  0  0
    0.7780   -0.3030    0.4990 C   0  0  0  0  0  0  0  0  0  0  0  0
   -0.2230    0.0690   -0.5920 C   0  0  1  0  0  0  0  0  0  0  0  0
   -1.5700    0.2780    0.0560 C   0  0  0  0  0  0  0  0  0  0  0  0
   -2.5620    0.7970   -0.7620 N   0  0  0  0  0  0  0  0  0  0  0  0
   -3.2010    2.0420   -0.4420 C   0  0  1  0  0  0  0  0  0  0  0  0
   -3.4560    2.1590    1.0320 C   0  0  0  0  0  0  0  0  0  0  0  0
   -2.4670    3.1870   -0.9860 C   0  0  0  0  0  0  0  0  0  0  0  0
   -2.9990    4.5570   -0.7740 C   0  0  0  0  0  0  0  0  0  0  0  0
   -3.0710    5.1190    0.5500 C   0  0  0  0  0  0  0  0  0  0  0  0
   -4.0680    6.1540    0.7690 N   0  0  0  0  0  0  0  0  0  0  0  0
   -2.3940    4.8620    1.5720 O   0  0  0  0  0  0  0  0  0  0  0  0
   -3.4720   -0.2800   -1.6900 S   0  0  2  0  0  0  0  0  0  0  0  0
   -2.5860   -1.1410   -2.5820 O   0  0  0  0  0  0  0  0  0  0  0  0
   -4.4360    0.4010   -2.6200 O   0  0  0  0  0  0  0  0  0  0  0  0
   -4.3550   -1.3990   -0.6750 C   0  0  0  0  0  0  0  0  0  0  0  0
   -5.6370   -1.0860   -0.2780 C   0  0  0  0  0  0  0  0  0  0  0  0
   -6.3860   -1.9330    0.5280 C   0  0  0  0  0  0  0  0  0  0  0  0
   -5.8510   -3.1320    0.9570 C   0  0  0  0  0  0  0  0  0  0  0  0
   -6.8060   -4.2150    1.9840 S   0  0  0  0  0  0  0  0  0  0  0  0
   -6.5540   -3.8330    3.7270 C   0  0  0  0  0  0  0  0  0  0  0  0
   -8.2730   -4.0260    1.6250 O   0  0  0  0  0  0  0  0  0  0  0  0
   -4.5680   -3.4430    0.5590 C   0  0  0  0  0  0  0  0  0  0  0  0
   -3.8150   -2.5940   -0.2500 C   0  0  0  0  0  0  0  0  0  0  0  0
    0.3720    1.2190   -1.1090 O   0  0  0  0  0  0  0  0  0  0  0  0
  1  2  1  0
  2  3  2  0
  2  7  1  0
  3  4  1  0
  4  5  2  0
  4 38  1  0
  5  6  1  0
  5 15  1  0
  6  7  2  0
  7  8  1  0
  8  9  1  0
  9 10  1  0
 10 11  2  0
 10 14  1  0
 11 12  1  0
 12 13  1  0
 13 14  2  0
 15 16  1  0
 16 17  1  1
 16 38  1  0
 17 18  1  0
 18 19  1  0
 26 18  1  1
 19 20  1  1
 19 21  1  0
 21 22  1  0
 22 23  1  0
 23 24  1  0
 23 25  2  0
 26 27  2  0
 26 28  2  0
 26 29  1  0
 29 30  2  0
 29 37  1  0
 30 31  1  0
 31 32  2  0
 32 33  1  0
 32 36  1  0
 33 34  1  1
 33 35  2  0
 36 37  2  0
M  END
