
     RDKit          3D

 38 41  0  0  0  0  0  0  0  0999 V2000
   -7.9510   -0.7190    1.1370 C   0  0  0  0  0  0  0  0  0  0  0  0
   -7.0810   -1.9070    1.3360 C   0  0  0  0  0  0  0  0  0  0  0  0
   -6.7650   -2.6380    0.1080 C   0  0  0  0  0  0  0  0  0  0  0  0
   -5.9600   -1.9910   -0.9690 C   0  0  0  0  0  0  0  0  0  0  0  0
   -4.6170   -1.5920   -0.5560 C   0  0  0  0  0  0  0  0  0  0  0  0
   -3.6540   -2.6150   -0.5260 C   0  0  0  0  0  0  0  0  0  0  0  0
   -2.3910   -2.4230   -0.0310 C   0  0  0  0  0  0  0  0  0  0  0  0
   -2.0220   -1.1890    0.4640 C   0  0  0  0  0  0  0  0  0  0  0  0
   -0.7220   -1.0560    0.9790 N   0  0  0  0  0  0  0  0  0  0  0  0
   -0.0610    0.1520    1.3180 C   0  0  0  0  0  0  0  0  0  0  0  0
   -0.6210    1.2530    1.1680 O   0  0  0  0  0  0  0  0  0  0  0  0
    1.3380    0.1040    1.8670 C   0  0  0  0  0  0  0  0  0  0  0  0
    1.8080    1.5240    2.0600 C   0  0  0  0  0  0  0  0  0  0  0  0
    3.2270    1.5700    2.6210 C   0  0  0  0  0  0  0  0  0  0  0  0
    4.0410    0.8960    1.5990 C   0  0  0  0  0  0  0  0  0  0  0  0
    3.6960    0.7340    0.4270 O   0  0  0  0  0  0  0  0  0  0  0  0
    5.2980    0.3570    1.8870 N   0  0  0  0  0  0  0  0  0  0  0  0
    6.0720   -0.2420    0.9070 C   0  0  0  0  0  0  0  0  0  0  0  0
    6.9310   -1.0310    1.2630 N   0  0  0  0  0  0  0  0  0  0  0  0
    7.6770   -1.6360    0.2580 C   0  0  0  0  0  0  0  0  0  0  0  0
    7.9040   -2.8480    0.0830 O   0  0  0  0  0  0  0  0  0  0  0  0
    8.2120   -0.5710   -0.6720 C   0  0  2  0  0  0  0  0  0  0  0  0
    8.7300   -1.0760   -1.9470 C   0  0  0  0  0  0  0  0  0  0  0  0
   10.0850   -0.3580   -2.0880 C   0  0  0  0  0  0  0  0  0  0  0  0
    9.9200    0.9040   -1.2650 C   0  0  2  0  0  0  0  0  0  0  0  0
   11.4780    1.6420   -0.8230 S   0  0  0  0  0  0  0  0  0  0  0  0
   11.9360    2.5210   -1.9980 O   0  0  0  0  0  0  0  0  0  0  0  0
    9.1640    0.3640   -0.0430 C   0  0  0  0  0  0  0  0  0  0  0  0
    6.5040    0.1500   -0.8190 S   0  0  0  0  0  0  0  0  0  0  0  0
   -2.9510   -0.1960    0.4340 C   0  0  0  0  0  0  0  0  0  0  0  0
   -4.2490   -0.3820   -0.0740 C   0  0  0  0  0  0  0  0  0  0  0  0
   -5.1420    0.7690   -0.2080 C   0  0  0  0  0  0  0  0  0  0  0  0
   -4.9040    1.9800    0.4180 C   0  0  0  0  0  0  0  0  0  0  0  0
   -5.9380    2.8250    0.0740 C   0  0  0  0  0  0  0  0  0  0  0  0
   -6.7630    2.0960   -0.7440 C   0  0  0  0  0  0  0  0  0  0  0  0
   -8.0130    2.6670   -1.3340 C   0  0  0  0  0  0  0  0  0  0  0  0
   -8.7050    1.6220   -2.1820 C   0  0  0  0  0  0  0  0  0  0  0  0
   -6.2490    0.9260   -0.8660 O   0  0  0  0  0  0  0  0  0  0  0  0
  1  2  1  0
  2  3  1  0
  3  4  1  0
  4  5  1  0
  5  6  2  0
  5 31  1  0
  6  7  1  0
  7  8  2  0
  8  9  1  0
  8 30  1  0
  9 10  1  0
 10 11  2  0
 10 12  1  0
 12 13  1  0
 13 14  1  0
 14 15  1  0
 15 16  2  0
 15 17  1  0
 17 18  1  0
 18 19  2  0
 18 29  1  0
 19 20  1  0
 20 21  2  0
 20 22  1  0
 22 23  1  6
 22 28  1  0
 22 29  1  0
 23 24  1  0
 24 25  1  0
 25 26  1  1
 25 28  1  0
 26 27  2  0
 30 31  2  0
 31 32  1  0
 32 33  2  0
 32 38  1  0
 33 34  1  0
 34 35  2  0
 35 36  1  0
 35 38  1  0
 36 37  1  0
M  END
