
     RDKit          3D

 29 32  0  0  0  0  0  0  0  0999 V2000
    8.9300    1.0040    2.1520 C   0  0  0  0  0  0  0  0  0  0  0  0
    7.8160    0.5040    1.3040 C   0  0  0  0  0  0  0  0  0  0  0  0
    6.4850    0.5020    1.6370 C   0  0  0  0  0  0  0  0  0  0  0  0
    5.7800   -0.0300    0.5830 C   0  0  0  0  0  0  0  0  0  0  0  0
    4.4330   -0.2610    0.3790 C   0  0  0  0  0  0  0  0  0  0  0  0
    4.0520   -0.8190   -0.8210 C   0  0  0  0  0  0  0  0  0  0  0  0
    2.6350   -1.0470   -1.0780 C   0  0  0  0  0  0  0  0  0  0  0  0
    2.3000   -1.5860   -2.1570 O   0  0  0  0  0  0  0  0  0  0  0  0
    1.7290   -0.6520   -0.1110 O   0  0  0  0  0  0  0  0  0  0  0  0
    0.3350   -0.8400   -0.3050 C   0  0  1  0  0  0  0  0  0  0  0  0
   -0.2190   -1.7150    0.7680 C   0  0  0  0  0  0  0  0  0  0  0  0
   -1.5820   -1.3820    1.2440 C   0  0  0  0  0  0  0  0  0  0  0  0
   -2.0960   -0.0160    1.1650 C   0  0  2  0  0  0  0  0  0  0  0  0
   -3.4290    0.2490    0.5800 C   0  0  0  0  0  0  0  0  0  0  0  0
   -4.1760    1.3460    1.1190 C   0  0  0  0  0  0  0  0  0  0  0  0
   -3.6040    2.0290    2.2810 C   0  0  0  0  0  0  0  0  0  0  0  0
   -5.3910    1.7210    0.6120 C   0  0  0  0  0  0  0  0  0  0  0  0
   -5.9230    1.0310   -0.4440 C   0  0  0  0  0  0  0  0  0  0  0  0
   -7.2640    1.4110   -1.0280 C   0  0  0  0  0  0  0  0  0  0  0  0
   -5.2080   -0.0160   -0.9580 C   0  0  0  0  0  0  0  0  0  0  0  0
   -5.7820   -0.7950   -2.1030 C   0  0  0  0  0  0  0  0  0  0  0  0
   -3.9500   -0.4330   -0.4680 C   0  0  0  0  0  0  0  0  0  0  0  0
   -3.2820   -1.4930   -1.1950 C   0  0  0  0  0  0  0  0  0  0  0  0
   -1.1220    0.9490    0.6370 N   0  0  0  0  0  0  0  0  0  0  0  0
   -0.2820    0.4930   -0.4060 C   0  0  0  0  0  0  0  0  0  0  0  0
    4.9610   -1.1450   -1.8010 C   0  0  0  0  0  0  0  0  0  0  0  0
    6.2880   -0.9150   -1.5970 C   0  0  0  0  0  0  0  0  0  0  0  0
    6.6940   -0.3570   -0.4040 C   0  0  0  0  0  0  0  0  0  0  0  0
    7.9010   -0.0250    0.0590 N   0  0  0  0  0  0  0  0  0  0  0  0
  1  2  1  0
  2  3  2  0
  2 29  1  0
  3  4  1  0
  4  5  2  0
  4 28  1  0
  5  6  1  0
  6  7  1  0
  6 26  2  0
  7  8  2  0
  7  9  1  0
 10  9  1  1
 10 11  1  0
 10 25  1  0
 11 12  1  0
 12 13  1  0
 13 14  1  6
 13 24  1  0
 14 15  2  0
 14 22  1  0
 15 16  1  0
 15 17  1  0
 17 18  2  0
 18 19  1  0
 18 20  1  0
 20 21  1  0
 20 22  2  0
 22 23  1  0
 24 25  1  0
 26 27  1  0
 27 28  2  0
 28 29  1  0
M  CHG  1  24   1
M  END
