
     RDKit          3D

 30 33  0  0  0  0  0  0  0  0999 V2000
   -1.5470    0.9750    1.8200 C   0  0  0  0  0  0  0  0  0  0  0  0
   -0.8340    0.5420    0.7500 C   0  0  0  0  0  0  0  0  0  0  0  0
    0.2160    1.4740    0.2010 C   0  0  0  0  0  0  0  0  0  0  0  0
    0.2720    2.7290    0.8020 C   0  0  0  0  0  0  0  0  0  0  0  0
    0.9270    3.8410    0.2800 C   0  0  0  0  0  0  0  0  0  0  0  0
    1.5690    3.7290   -0.9070 C   0  0  0  0  0  0  0  0  0  0  0  0
    1.5450    2.5100   -1.5350 C   0  0  0  0  0  0  0  0  0  0  0  0
    0.8830    1.3530   -1.0010 C   0  0  0  0  0  0  0  0  0  0  0  0
    0.9720    0.1880   -1.7150 O   0  0  0  0  0  0  0  0  0  0  0  0
    1.9760   -0.8550   -1.6890 C   0  0  0  0  0  0  0  0  0  0  0  0
    3.1400   -0.4630   -0.8890 C   0  0  0  0  0  0  0  0  0  0  0  0
    3.8790    0.6340   -1.3200 C   0  0  0  0  0  0  0  0  0  0  0  0
    4.8650    1.2340   -0.6200 C   0  0  0  0  0  0  0  0  0  0  0  0
    5.1760    0.7040    0.6490 C   0  0  0  0  0  0  0  0  0  0  0  0
    4.4550   -0.3770    1.0690 C   0  0  0  0  0  0  0  0  0  0  0  0
    4.7680   -0.8590    2.3140 F   0  0  0  0  0  0  0  0  0  0  0  0
    3.4550   -0.9640    0.3270 C   0  0  0  0  0  0  0  0  0  0  0  0
    2.8600   -2.1970    0.8660 C   0  0  0  0  0  0  0  0  0  0  0  0
    1.5780   -2.0370    1.4290 N   0  0  0  0  0  0  0  0  0  0  0  0
    0.3250   -2.4610    1.0790 C   0  0  0  0  0  0  0  0  0  0  0  0
   -0.0560   -3.6000    1.7260 O   0  0  0  0  0  0  0  0  0  0  0  0
   -0.7280   -1.9650    0.1600 C   0  0  0  0  0  0  0  0  0  0  0  0
   -1.3190   -3.0430   -0.5280 C   0  0  0  0  0  0  0  0  0  0  0  0
   -2.5520   -2.8780   -1.1370 C   0  0  0  0  0  0  0  0  0  0  0  0
   -3.1670   -1.6460   -1.0370 C   0  0  0  0  0  0  0  0  0  0  0  0
   -2.6380   -0.5710   -0.3840 C   0  0  0  0  0  0  0  0  0  0  0  0
   -3.4810    0.6540   -0.1350 C   0  0  0  0  0  0  0  0  0  0  0  0
   -4.6770    0.2950    0.5230 N   0  0  0  0  0  0  0  0  0  0  0  0
   -5.8110   -0.3440    0.0420 C   0  0  0  0  0  0  0  0  0  0  0  0
   -1.3410   -0.7190    0.2380 C   0  0  0  0  0  0  0  0  0  0  0  0
  1  2  2  0
  2  3  1  0
  2 30  1  0
  3  4  2  0
  3  8  1  0
  4  5  1  0
  5  6  2  0
  6  7  1  0
  7  8  2  0
  8  9  1  0
  9 10  1  0
 10 11  1  0
 11 12  2  0
 11 17  1  0
 12 13  1  0
 13 14  2  0
 14 15  1  0
 15 16  1  0
 15 17  2  0
 17 18  1  0
 18 19  1  0
 19 20  1  0
 20 21  2  0
 20 22  1  0
 22 23  2  0
 22 30  1  0
 23 24  1  0
 24 25  2  0
 25 26  1  0
 26 27  1  0
 26 30  2  0
 27 28  1  0
 28 29  1  0
M  CHG  1  28   1
M  END
