
     RDKit          3D

 31 34  0  0  0  0  0  0  0  0999 V2000
   -7.6860    1.1160   -1.4500 C   0  0  0  0  0  0  0  0  0  0  0  0
   -6.8690    0.7060   -0.2280 C   0  0  0  0  0  0  0  0  0  0  0  0
   -5.6310    1.5110   -0.1280 C   0  0  0  0  0  0  0  0  0  0  0  0
   -5.5520    2.8190    0.3160 C   0  0  0  0  0  0  0  0  0  0  0  0
   -6.8760    3.8530    0.8710 Cl  0  0  0  0  0  0  0  0  0  0  0  0
   -4.2070    3.1400    0.2260 C   0  0  0  0  0  0  0  0  0  0  0  0
   -3.5640    2.0700   -0.2440 N   0  0  0  0  0  0  0  0  0  0  0  0
   -4.3970    1.0940   -0.4600 N   0  0  0  0  0  0  0  0  0  0  0  0
   -4.0900   -0.2530   -0.9750 C   0  0  0  0  0  0  0  0  0  0  0  0
   -4.9610   -1.1730   -2.0290 S   0  0  0  0  0  0  0  0  0  0  0  0
   -3.8350   -2.6030   -2.0530 N   0  0  0  0  0  0  0  0  0  0  0  0
   -2.8180   -2.1880   -1.1700 C   0  0  0  0  0  0  0  0  0  0  0  0
   -1.7040   -3.2310   -1.0030 C   0  0  0  0  0  0  0  0  0  0  0  0
   -2.9370   -1.0000   -0.6180 C   0  0  0  0  0  0  0  0  0  0  0  0
   -2.0140   -0.3330    0.3490 C   0  0  0  0  0  0  0  0  0  0  0  0
   -0.8600   -0.9610    0.7820 N   0  0  2  0  0  0  0  0  0  0  0  0
   -0.9290   -1.5850    2.0950 C   0  0  0  0  0  0  0  0  0  0  0  0
    0.5280   -1.8700    2.3670 C   0  0  0  0  0  0  0  0  0  0  0  0
    1.2720   -0.8550    1.5250 C   0  0  2  0  0  0  0  0  0  0  0  0
    2.3330   -0.3250    1.9660 O   0  0  0  0  0  0  0  0  0  0  0  0
    3.5580   -0.0490    1.8150 C   0  0  0  0  0  0  0  0  0  0  0  0
    3.8900    0.8510    0.6380 C   0  0  2  0  0  0  0  0  0  0  0  0
    3.0510    2.0990    0.6350 C   0  0  0  0  0  0  0  0  0  0  0  0
    3.7100    0.1450   -0.6860 C   0  0  0  0  0  0  0  0  0  0  0  0
    5.0950   -0.1230   -1.3360 C   0  0  1  0  0  0  0  0  0  0  0  0
    4.8300   -0.8660   -2.4540 O   0  0  0  0  0  0  0  0  0  0  0  0
    5.3960   -2.1160   -2.5010 C   0  0  0  0  0  0  0  0  0  0  0  0
    5.6670    1.2430   -1.6170 C   0  0  0  0  0  0  0  0  0  0  0  0
    5.7320    1.9460   -0.2610 C   0  0  0  0  0  0  0  0  0  0  0  0
    5.2740    1.1290    0.7550 O   0  0  0  0  0  0  0  0  0  0  0  0
    0.1170    0.1240    1.1730 C   0  0  0  0  0  0  0  0  0  0  0  0
  1  2  1  0
  2  3  1  0
  3  4  2  0
  3  8  1  0
  4  5  1  0
  4  6  1  0
  6  7  2  0
  7  8  1  0
  8  9  1  0
  9 10  1  0
  9 14  2  0
 10 11  1  0
 11 12  2  0
 12 13  1  0
 12 14  1  0
 14 15  1  0
 16 15  1  1
 16 17  1  0
 16 31  1  0
 17 18  1  0
 18 19  1  0
 19 20  1  1
 19 31  1  0
 20 21  1  0
 21 22  1  0
 22 23  1  6
 22 24  1  0
 22 30  1  0
 24 25  1  0
 25 26  1  6
 25 28  1  0
 26 27  1  0
 28 29  1  0
 29 30  1  0
M  CHG  1  16   1
M  END
