
     RDKit          3D

 30 33  0  0  0  0  0  0  0  0999 V2000
    4.7140   -1.2760    2.0410 C   0  0  0  0  0  0  0  0  0  0  0  0
    4.1940   -0.7540    0.9660 C   0  0  0  0  0  0  0  0  0  0  0  0
    4.9360    0.2450    0.2200 C   0  0  0  0  0  0  0  0  0  0  0  0
    4.4260    0.7880   -0.8700 C   0  0  0  0  0  0  0  0  0  0  0  0
    5.1880    1.7590   -1.5660 N   0  0  0  0  0  0  0  0  0  0  0  0
    2.8580   -1.1470    0.5150 C   0  0  0  0  0  0  0  0  0  0  0  0
    2.9860   -1.6990   -0.7700 O   0  0  0  0  0  0  0  0  0  0  0  0
    1.6930   -2.0620   -1.2480 C   0  0  0  0  0  0  0  0  0  0  0  0
    1.1680   -2.9920   -0.2870 C   0  0  0  0  0  0  0  0  0  0  0  0
    0.1740   -3.1190    0.5240 C   0  0  0  0  0  0  0  0  0  0  0  0
    0.1090   -4.3810    1.3410 C   0  0  0  0  0  0  0  0  0  0  0  0
   -0.8790   -4.5290    2.1760 C   0  0  0  0  0  0  0  0  0  0  0  0
   -1.8720   -3.5780    2.3490 O   0  0  0  0  0  0  0  0  0  0  0  0
   -1.8780   -2.3950    1.6340 C   0  0  0  0  0  0  0  0  0  0  0  0
   -2.8550   -1.4450    1.7990 C   0  0  0  0  0  0  0  0  0  0  0  0
   -2.8650   -0.2410    1.0790 C   0  0  0  0  0  0  0  0  0  0  0  0
   -1.8830    0.0310    0.1740 C   0  0  0  0  0  0  0  0  0  0  0  0
   -0.8870   -0.9470    0.0120 C   0  0  0  0  0  0  0  0  0  0  0  0
   -0.8660   -2.1280    0.7070 C   0  0  0  0  0  0  0  0  0  0  0  0
   -1.8090    1.2630   -0.6340 C   0  0  2  0  0  0  0  0  0  0  0  0
   -1.8780    0.8910   -2.1360 C   0  0  0  0  0  0  0  0  0  0  0  0
   -0.4290    1.8880   -0.4730 C   0  0  0  0  0  0  0  0  0  0  0  0
   -2.8820    2.1930   -0.3500 C   0  0  0  0  0  0  0  0  0  0  0  0
   -2.9410    3.4280   -1.0270 C   0  0  0  0  0  0  0  0  0  0  0  0
   -3.9150    4.3470   -0.8220 C   0  0  0  0  0  0  0  0  0  0  0  0
   -4.8980    4.0510    0.0990 C   0  0  0  0  0  0  0  0  0  0  0  0
   -4.8800    2.8610    0.7800 C   0  0  0  0  0  0  0  0  0  0  0  0
   -5.8450    2.5650    1.6880 F   0  0  0  0  0  0  0  0  0  0  0  0
   -3.8640    1.9130    0.5610 C   0  0  0  0  0  0  0  0  0  0  0  0
   -3.8990    0.7030    1.3040 N   0  0  0  0  0  0  0  0  0  0  0  0
  1  2  2  0
  2  3  1  0
  2  6  1  0
  3  4  2  3
  4  5  1  0
  6  7  1  0
  7  8  1  0
  8  9  1  0
  9 10  2  3
 10 11  1  0
 10 19  1  0
 11 12  2  0
 12 13  1  0
 13 14  1  0
 14 15  2  0
 14 19  1  0
 15 16  1  0
 16 17  2  0
 16 30  1  0
 17 18  1  0
 17 20  1  0
 18 19  2  0
 20 21  1  6
 20 22  1  0
 20 23  1  0
 23 24  2  0
 23 29  1  0
 24 25  1  0
 25 26  2  0
 26 27  1  0
 27 28  1  0
 27 29  2  0
 29 30  1  0
M  CHG  1   5   1
M  END
