
     RDKit          3D

 29 32  0  0  0  0  0  0  0  0999 V2000
   -7.6770    0.3050   -1.4480 C   0  0  0  0  0  0  0  0  0  0  0  0
   -6.4230    0.7270   -0.8890 N   0  0  0  0  0  0  0  0  0  0  0  0
   -5.6250   -0.3270   -0.3380 C   0  0  1  0  0  0  0  0  0  0  0  0
   -6.3260   -1.0430    0.7930 C   0  0  0  0  0  0  0  0  0  0  0  0
   -5.2250   -1.3320   -1.3740 C   0  0  0  0  0  0  0  0  0  0  0  0
   -4.3990    0.2950    0.2530 C   0  0  0  0  0  0  0  0  0  0  0  0
   -4.5070    1.2650    1.2360 C   0  0  0  0  0  0  0  0  0  0  0  0
   -3.4140    1.8780    1.8040 C   0  0  0  0  0  0  0  0  0  0  0  0
   -2.1300    1.5330    1.3960 C   0  0  0  0  0  0  0  0  0  0  0  0
   -1.0480    2.1290    1.9180 N   0  0  0  0  0  0  0  0  0  0  0  0
    0.1640    1.7900    1.4910 C   0  0  0  0  0  0  0  0  0  0  0  0
    0.3090    0.8210    0.5070 C   0  0  0  0  0  0  0  0  0  0  0  0
    1.6730    0.4940    0.0910 C   0  0  0  0  0  0  0  0  0  0  0  0
    2.3580    1.4260   -0.6950 C   0  0  0  0  0  0  0  0  0  0  0  0
    3.6600    1.2210   -1.1090 C   0  0  0  0  0  0  0  0  0  0  0  0
    4.3160    0.0820   -0.7500 C   0  0  0  0  0  0  0  0  0  0  0  0
    3.6720   -0.8550    0.0240 C   0  0  0  0  0  0  0  0  0  0  0  0
    2.3560   -0.6380    0.4340 C   0  0  0  0  0  0  0  0  0  0  0  0
    4.4110   -2.0300    0.4180 C   0  0  0  0  0  0  0  0  0  0  0  0
    3.7970   -3.1020    0.5840 O   0  0  0  0  0  0  0  0  0  0  0  0
    5.8730   -1.9380    0.6170 C   0  0  0  0  0  0  0  0  0  0  0  0
    6.5290   -0.7900   -0.0690 C   0  0  2  0  0  0  0  0  0  0  0  0
    7.8350   -1.2430   -0.6670 C   0  0  0  0  0  0  0  0  0  0  0  0
    6.8590    0.3040    0.9500 C   0  0  0  0  0  0  0  0  0  0  0  0
    5.6880   -0.1830   -1.1670 C   0  0  0  0  0  0  0  0  0  0  0  0
   -0.7640    0.1880   -0.0510 C   0  0  0  0  0  0  0  0  0  0  0  0
   -0.6330   -0.6880   -0.9370 O   0  0  0  0  0  0  0  0  0  0  0  0
   -2.0190    0.5680    0.4190 C   0  0  0  0  0  0  0  0  0  0  0  0
   -3.1290   -0.0580   -0.1590 C   0  0  0  0  0  0  0  0  0  0  0  0
  1  2  1  0
  2  3  1  0
  3  4  1  1
  3  5  1  0
  3  6  1  0
  6  7  2  0
  6 29  1  0
  7  8  1  0
  8  9  2  0
  9 10  1  0
  9 28  1  0
 10 11  1  0
 11 12  2  0
 12 13  1  0
 12 26  1  0
 13 14  2  0
 13 18  1  0
 14 15  1  0
 15 16  2  0
 16 17  1  0
 16 25  1  0
 17 18  2  0
 17 19  1  0
 19 20  2  0
 19 21  1  0
 21 22  1  0
 22 23  1  6
 22 24  1  0
 22 25  1  0
 26 27  2  0
 26 28  1  0
 28 29  2  0
M  CHG  1   2   1
M  END
