
     RDKit          3D

 18 19  0  0  0  0  0  0  0  0999 V2000
    4.4270    1.6160    0.5950 C   0  0  0  0  0  0  0  0  0  0  0  0
    3.6030    0.5710   -0.0570 C   0  0  0  0  0  0  0  0  0  0  0  0
    2.6680   -0.2450    0.5550 C   0  0  0  0  0  0  0  0  0  0  0  0
    2.1040   -1.0890   -0.3570 C   0  0  0  0  0  0  0  0  0  0  0  0
    0.8780   -2.2900   -0.0350 S   0  0  2  0  0  0  0  0  0  0  0  0
    1.0580   -2.8720    1.3220 O   0  0  0  0  0  0  0  0  0  0  0  0
    1.0410   -3.3630   -1.1000 O   0  0  0  0  0  0  0  0  0  0  0  0
   -0.6860   -1.5800   -0.2320 N   0  0  0  0  0  0  0  0  0  0  0  0
   -0.9140   -0.5010    0.6790 C   0  0  0  0  0  0  0  0  0  0  0  0
   -2.2780    0.0350    0.4280 C   0  0  0  0  0  0  0  0  0  0  0  0
   -2.4900    1.0550   -0.4830 C   0  0  0  0  0  0  0  0  0  0  0  0
   -3.7460    1.5590   -0.7230 C   0  0  0  0  0  0  0  0  0  0  0  0
   -4.0240    2.8490   -1.8730 Cl  0  0  0  0  0  0  0  0  0  0  0  0
   -4.8210    1.0380   -0.0440 C   0  0  0  0  0  0  0  0  0  0  0  0
   -4.6020    0.0220    0.8610 C   0  0  0  0  0  0  0  0  0  0  0  0
   -3.3620   -0.4380    1.0640 N   0  0  0  0  0  0  0  0  0  0  0  0
    2.7010   -0.7900   -1.5630 C   0  0  0  0  0  0  0  0  0  0  0  0
    3.6000    0.2160   -1.3440 N   0  0  0  0  0  0  0  0  0  0  0  0
  1  2  1  0
  2  3  2  0
  2 18  1  0
  3  4  1  0
  4  5  1  0
  4 17  2  0
  5  6  2  0
  5  7  2  0
  5  8  1  1
  8  9  1  0
  9 10  1  0
 10 11  2  0
 10 16  1  0
 11 12  1  0
 12 13  1  0
 12 14  2  0
 14 15  1  0
 15 16  2  0
 17 18  1  0
M  CHG  1  16   1
M  END
