
     RDKit          3D

 18 19  0  0  0  0  0  0  0  0999 V2000
   -0.8070    1.3960    0.0770 N   0  0  0  0  0  0  0  0  0  0  0  0
   -1.2520    0.1990    0.1040 C   0  0  0  0  0  0  0  0  0  0  0  0
   -0.2480   -0.8390    0.1590 N   0  0  0  0  0  0  0  0  0  0  0  0
    0.9340   -0.7270    0.8450 N   0  0  0  0  0  0  0  0  0  0  0  0
    2.2250   -0.5120    0.3270 C   0  0  0  0  0  0  0  0  0  0  0  0
    2.8620    0.6690    0.5960 C   0  0  0  0  0  0  0  0  0  0  0  0
    4.1250    0.8860    0.0860 C   0  0  0  0  0  0  0  0  0  0  0  0
    4.8010   -0.0370   -0.6970 C   0  0  0  0  0  0  0  0  0  0  0  0
    6.4070    0.2900   -1.3260 Cl  0  0  0  0  0  0  0  0  0  0  0  0
    4.1430   -1.2210   -0.9580 C   0  0  0  0  0  0  0  0  0  0  0  0
    2.8620   -1.4500   -0.4450 C   0  0  0  0  0  0  0  0  0  0  0  0
   -2.6620   -0.1850    0.0760 C   0  0  0  0  0  0  0  0  0  0  0  0
   -3.1610   -1.4700    0.1190 C   0  0  0  0  0  0  0  0  0  0  0  0
   -4.5280   -1.3760    0.0770 C   0  0  0  0  0  0  0  0  0  0  0  0
   -4.8370   -0.1290    0.0120 O   0  0  0  0  0  0  0  0  0  0  0  0
   -3.7340    0.6300    0.0100 C   0  0  0  0  0  0  0  0  0  0  0  0
   -3.8750    2.3670   -0.0730 S   0  0  0  0  0  0  0  0  0  0  0  0
   -5.1290    2.8410   -0.7440 O   0  0  0  0  0  0  0  0  0  0  0  0
  1  2  2  0
  2  3  1  0
  2 12  1  0
  3  4  1  0
  4  5  1  0
  5  6  2  0
  5 11  1  0
  6  7  1  0
  7  8  2  0
  8  9  1  0
  8 10  1  0
 10 11  2  0
 12 13  1  0
 12 16  2  0
 13 14  2  0
 14 15  1  0
 15 16  1  0
 16 17  1  0
 17 18  2  0
M  CHG  1   1   1
M  END
