
     RDKit          3D

 18 19  0  0  0  0  0  0  0  0999 V2000
    1.2150   -2.3170    0.3330 O   0  0  0  0  0  0  0  0  0  0  0  0
    0.9850   -1.1000    0.4270 C   0  0  0  0  0  0  0  0  0  0  0  0
   -0.2800   -0.6060    0.7460 N   0  0  0  0  0  0  0  0  0  0  0  0
   -1.3980   -1.3640    0.9640 N   0  0  0  0  0  0  0  0  0  0  0  0
   -2.2360   -1.3210   -0.2380 C   0  0  0  0  0  0  0  0  0  0  0  0
   -3.3320   -0.2960   -0.0160 C   0  0  0  0  0  0  0  0  0  0  0  0
   -3.8690    0.3290   -1.0810 C   0  0  0  0  0  0  0  0  0  0  0  0
   -4.8110    1.2940   -0.8660 C   0  0  0  0  0  0  0  0  0  0  0  0
   -4.9790    1.3490    0.8610 S   0  0  0  0  0  0  0  0  0  0  0  0
   -3.7500    0.0480    1.2270 C   0  0  0  0  0  0  0  0  0  0  0  0
    2.1030   -0.1400    0.1860 C   0  0  0  0  0  0  0  0  0  0  0  0
    1.9300    1.1810    0.2120 N   0  0  0  0  0  0  0  0  0  0  0  0
    2.9340    2.0620   -0.0580 C   0  0  0  0  0  0  0  0  0  0  0  0
    4.2010    1.5990   -0.3780 C   0  0  0  0  0  0  0  0  0  0  0  0
    4.4110    0.2530   -0.4160 C   0  0  0  0  0  0  0  0  0  0  0  0
    5.9970   -0.3710   -0.8060 Cl  0  0  0  0  0  0  0  0  0  0  0  0
    3.3480   -0.6100   -0.1310 C   0  0  0  0  0  0  0  0  0  0  0  0
    3.5200   -1.9730   -0.1630 O   0  0  0  0  0  0  0  0  0  0  0  0
  1  2  2  0
  2  3  1  0
  2 11  1  0
  3  4  1  0
  4  5  1  0
  5  6  1  0
  6  7  1  0
  6 10  2  0
  7  8  2  0
  8  9  1  0
  9 10  1  0
 11 12  2  0
 11 17  1  0
 12 13  1  0
 13 14  2  0
 14 15  1  0
 15 16  1  0
 15 17  2  0
 17 18  1  0
M  CHG  1  12   1
M  END
