
     RDKit          3D

 18 19  0  0  0  0  0  0  0  0999 V2000
    5.5790    0.4060    0.0520 C   0  0  0  0  0  0  0  0  0  0  0  0
    5.1290   -0.8640   -0.4130 O   0  0  0  0  0  0  0  0  0  0  0  0
    3.7590   -1.0410   -0.5310 C   0  0  0  0  0  0  0  0  0  0  0  0
    2.8570   -0.1180   -0.2420 N   0  0  0  0  0  0  0  0  0  0  0  0
    1.4960   -0.3400   -0.3760 C   0  0  0  0  0  0  0  0  0  0  0  0
    0.5100    0.9950    0.1070 S   0  0  0  0  0  0  0  0  0  0  0  0
   -1.1780    0.8410    0.3940 C   0  0  0  0  0  0  0  0  0  0  0  0
   -1.9310   -0.2960    0.5380 C   0  0  0  0  0  0  0  0  0  0  0  0
   -3.3150   -0.2550    0.7270 C   0  0  0  0  0  0  0  0  0  0  0  0
   -3.9870    0.9420    0.7800 C   0  0  0  0  0  0  0  0  0  0  0  0
   -5.4090    0.9930    0.9740 N   0  0  0  0  0  0  0  0  0  0  0  0
   -3.2670    2.0870    0.6420 C   0  0  0  0  0  0  0  0  0  0  0  0
   -1.9160    2.0440    0.4560 C   0  0  0  0  0  0  0  0  0  0  0  0
   -1.0940    3.5960    0.2910 Cl  0  0  0  0  0  0  0  0  0  0  0  0
    1.0780   -1.5670   -0.8260 C   0  0  0  0  0  0  0  0  0  0  0  0
    1.9990   -2.5080   -1.1190 N   0  0  0  0  0  0  0  0  0  0  0  0
    3.3160   -2.2770   -0.9840 C   0  0  0  0  0  0  0  0  0  0  0  0
    4.1540   -3.1630   -1.2610 O   0  0  0  0  0  0  0  0  0  0  0  0
  1  2  1  0
  2  3  1  0
  3  4  2  0
  3 17  1  0
  4  5  1  0
  5  6  1  0
  5 15  2  0
  6  7  1  0
  7  8  2  0
  7 13  1  0
  8  9  1  0
  9 10  2  0
 10 11  1  0
 10 12  1  0
 12 13  2  0
 13 14  1  0
 15 16  1  0
 16 17  1  0
 17 18  2  0
M  CHG  1  11   1
M  END
