
     RDKit          3D

 20 21  0  0  0  0  0  0  0  0999 V2000
    3.1410    2.1730    0.9870 C   0  0  0  0  0  0  0  0  0  0  0  0
    3.9300    0.9520    0.8380 N   0  0  0  0  0  0  0  0  0  0  0  0
    4.9820    0.6540    1.5600 N   0  0  0  0  0  0  0  0  0  0  0  0
    5.4200   -0.5370    1.1220 C   0  0  0  0  0  0  0  0  0  0  0  0
    4.6280   -0.9910    0.1080 C   0  0  0  0  0  0  0  0  0  0  0  0
    3.6570   -0.0030   -0.0650 C   0  0  0  0  0  0  0  0  0  0  0  0
    2.5600   -0.0340   -1.0540 C   0  0  0  0  0  0  0  0  0  0  0  0
    1.4510   -0.6650   -0.4410 O   0  0  0  0  0  0  0  0  0  0  0  0
    0.2400   -0.8670   -1.0800 C   0  0  0  0  0  0  0  0  0  0  0  0
    0.1100   -0.4760   -2.2570 O   0  0  0  0  0  0  0  0  0  0  0  0
   -0.8830   -1.5260   -0.4070 C   0  0  2  0  0  0  0  0  0  0  0  0
   -2.1050   -1.6400   -1.2950 C   0  0  0  0  0  0  0  0  0  0  0  0
   -3.2910   -1.6230   -0.3520 C   0  0  2  0  0  0  0  0  0  0  0  0
   -4.1520   -0.4720   -0.5960 N   0  0  0  0  0  0  0  0  0  0  0  0
   -2.7170   -1.4440    1.0410 C   0  0  0  0  0  0  0  0  0  0  0  0
   -1.4310   -0.6870    0.7310 C   0  0  2  0  0  0  0  0  0  0  0  0
   -1.8460    0.9320    0.0850 S   0  0  0  0  0  0  0  0  0  0  0  0
   -2.5000    2.0250    1.3020 C   0  0  0  0  0  0  0  0  0  0  0  0
   -2.8750    3.3360    0.9510 N   0  0  0  0  0  0  0  0  0  0  0  0
   -2.6360    1.6430    2.4860 O   0  0  0  0  0  0  0  0  0  0  0  0
  1  2  1  0
  2  3  1  0
  2  6  1  0
  3  4  2  0
  4  5  1  0
  5  6  2  0
  6  7  1  0
  7  8  1  0
  8  9  1  0
  9 10  2  0
 11  9  1  6
 11 12  1  0
 11 16  1  0
 12 13  1  0
 13 14  1  6
 13 15  1  0
 15 16  1  0
 16 17  1  6
 17 18  1  0
 18 19  1  0
 18 20  2  0
M  END
