
     RDKit          3D

 25 27  0  0  0  0  0  0  0  0999 V2000
   -4.4560    2.5890   -0.7160 C   0  0  0  0  0  0  0  0  0  0  0  0
   -3.6280    2.0650   -1.8610 C   0  0  0  0  0  0  0  0  0  0  0  0
   -2.5090    1.3960   -1.3610 O   0  0  0  0  0  0  0  0  0  0  0  0
   -2.4970    0.2970   -0.5420 C   0  0  0  0  0  0  0  0  0  0  0  0
   -3.6200   -0.3180   -0.0870 C   0  0  0  0  0  0  0  0  0  0  0  0
   -3.5530   -1.4200    0.7340 C   0  0  0  0  0  0  0  0  0  0  0  0
   -2.3010   -1.9190    1.1110 C   0  0  0  0  0  0  0  0  0  0  0  0
   -2.2110   -3.0160    1.9290 C   0  0  0  0  0  0  0  0  0  0  0  0
   -0.9730   -3.4890    2.2870 C   0  0  0  0  0  0  0  0  0  0  0  0
    0.1560   -2.8550    1.8180 C   0  0  0  0  0  0  0  0  0  0  0  0
    0.1100   -1.7510    0.9950 C   0  0  0  0  0  0  0  0  0  0  0  0
    1.2520   -1.0730    0.4930 N   0  0  0  0  0  0  0  0  0  0  0  0
    1.7570    0.1270    0.8420 C   0  0  0  0  0  0  0  0  0  0  0  0
    2.8810    0.4070    0.1040 C   0  0  0  0  0  0  0  0  0  0  0  0
    3.7130    1.5520    0.1510 N   0  0  0  0  0  0  0  0  0  0  0  0
    3.4870    2.6460    1.0280 C   0  0  0  0  0  0  0  0  0  0  0  0
    4.4090    3.7340    0.9650 N   0  0  0  0  0  0  0  0  0  0  0  0
    2.5140    2.6390    1.8150 O   0  0  0  0  0  0  0  0  0  0  0  0
    3.0460   -0.6950   -0.7280 C   0  0  0  0  0  0  0  0  0  0  0  0
    4.0690   -0.9450   -1.7190 C   0  0  0  0  0  0  0  0  0  0  0  0
    4.0490   -2.1470   -2.4630 N   0  0  0  0  0  0  0  0  0  0  0  0
    4.9710   -0.1180   -1.9300 O   0  0  0  0  0  0  0  0  0  0  0  0
    2.0310   -1.5450   -0.4390 N   0  0  0  0  0  0  0  0  0  0  0  0
   -1.1490   -1.2870    0.6440 C   0  0  0  0  0  0  0  0  0  0  0  0
   -1.2450   -0.1980   -0.1680 C   0  0  0  0  0  0  0  0  0  0  0  0
  1  2  1  0
  2  3  1  0
  3  4  1  0
  4  5  2  0
  4 25  1  0
  5  6  1  0
  6  7  2  0
  7  8  1  0
  7 24  1  0
  8  9  2  0
  9 10  1  0
 10 11  2  0
 11 12  1  0
 11 24  1  0
 12 13  1  0
 12 23  1  0
 13 14  2  0
 14 15  1  0
 14 19  1  0
 15 16  1  0
 16 17  1  0
 16 18  2  0
 19 20  1  0
 19 23  2  0
 20 21  1  0
 20 22  2  0
 24 25  2  0
M  END
