
     RDKit          3D

 21 22  0  0  0  0  0  0  0  0999 V2000
    0.7320   -0.2090   -2.3610 C   0  0  0  0  0  0  0  0  0  0  0  0
    1.1150    0.2250   -0.9640 C   0  0  2  0  0  0  0  0  0  0  0  0
    2.3190   -0.3190   -0.5250 O   0  0  0  0  0  0  0  0  0  0  0  0
    3.4640    0.3920   -0.2310 C   0  0  0  0  0  0  0  0  0  0  0  0
    3.4140    1.6410   -0.3720 O   0  0  0  0  0  0  0  0  0  0  0  0
    4.6970   -0.2220    0.2230 C   0  0  0  0  0  0  0  0  0  0  0  0
    5.7540    0.5160    0.4870 C   0  0  0  0  0  0  0  0  0  0  0  0
    6.9910   -0.0690    0.9400 N   0  0  0  0  0  0  0  0  0  0  0  0
    7.0530   -1.4550    1.0980 N   0  0  0  0  0  0  0  0  0  0  0  0
    5.9260   -2.2080    0.8130 N   0  0  0  0  0  0  0  0  0  0  0  0
    4.8100   -1.6580    0.4030 C   0  0  0  0  0  0  0  0  0  0  0  0
    0.0050    0.0340    0.0060 C   0  0  0  0  0  0  0  0  0  0  0  0
    0.2670   -0.5760    1.0740 O   0  0  0  0  0  0  0  0  0  0  0  0
   -1.2720    0.4730   -0.1860 O   0  0  0  0  0  0  0  0  0  0  0  0
   -2.3390    0.3120    0.6990 C   0  0  1  0  0  0  0  0  0  0  0  0
   -2.8960    1.6340    1.1500 C   0  0  0  0  0  0  0  0  0  0  0  0
   -4.2060    1.2380    1.7960 C   0  0  0  0  0  0  0  0  0  0  0  0
   -4.5840   -0.1080    1.2150 C   0  0  0  0  0  0  0  0  0  0  0  0
   -3.5250   -0.3870    0.1390 C   0  0  1  0  0  0  0  0  0  0  0  0
   -4.0620    0.3260   -1.4440 S   0  0  0  0  0  0  0  0  0  0  0  0
   -5.4670   -0.5490   -2.0470 N   0  0  0  0  0  0  0  0  0  0  0  0
  2  1  1  6
  2  3  1  0
  2 12  1  0
  3  4  1  0
  4  5  2  0
  4  6  1  0
  6  7  2  0
  6 11  1  0
  7  8  1  0
  8  9  1  0
  9 10  1  0
 10 11  2  0
 12 13  2  0
 12 14  1  0
 15 14  1  6
 15 16  1  0
 15 19  1  0
 16 17  1  0
 17 18  1  0
 18 19  1  0
 19 20  1  6
 20 21  1  0
M  CHG  1  21   1
M  END
