
     RDKit          3D

 21 22  0  0  0  0  0  0  0  0999 V2000
   -2.9740   -0.7190    1.3540 C   0  0  0  0  0  0  0  0  0  0  0  0
   -2.4190    0.2050    0.2920 C   0  0  1  0  0  0  0  0  0  0  0  0
   -0.8990    0.2370    0.3610 C   0  0  0  0  0  0  0  0  0  0  0  0
   -0.3060    1.3010    0.5990 O   0  0  0  0  0  0  0  0  0  0  0  0
   -0.1540   -0.9370    0.1570 N   0  0  0  0  0  0  0  0  0  0  0  0
    1.2250   -1.1490    0.1710 C   0  0  0  0  0  0  0  0  0  0  0  0
    1.5940   -2.5760   -0.0990 C   0  0  0  0  0  0  0  0  0  0  0  0
    0.6120   -3.5660   -0.3370 N   0  0  0  0  0  0  0  0  0  0  0  0
    2.8010   -2.8690   -0.1080 O   0  0  0  0  0  0  0  0  0  0  0  0
    2.2120   -0.3370    0.3740 C   0  0  0  0  0  0  0  0  0  0  0  0
    2.0520    1.0290    0.6400 N   0  0  0  0  0  0  0  0  0  0  0  0
    2.8200    2.0590    0.6290 C   0  0  0  0  0  0  0  0  0  0  0  0
    4.1830    2.1100    0.3130 N   0  0  0  0  0  0  0  0  0  0  0  0
    5.1690    1.2560   -0.2130 C   0  0  0  0  0  0  0  0  0  0  0  0
    4.7810    0.0250   -0.9140 C   0  0  0  0  0  0  0  0  0  0  0  0
    3.9080   -1.0330    0.3070 S   0  0  0  0  0  0  0  0  0  0  0  0
   -2.8570   -0.3220   -1.0560 C   0  0  0  0  0  0  0  0  0  0  0  0
   -3.6510    0.5760   -1.7510 O   0  0  0  0  0  0  0  0  0  0  0  0
   -4.6940    1.0220   -0.9460 C   0  0  0  0  0  0  0  0  0  0  0  0
   -4.1660    1.7180    0.2730 C   0  0  0  0  0  0  0  0  0  0  0  0
   -2.8410    1.5000    0.5330 O   0  0  0  0  0  0  0  0  0  0  0  0
  2  1  1  1
  2  3  1  0
  2 17  1  0
  2 21  1  0
  3  4  2  0
  3  5  1  0
  5  6  1  0
  6  7  1  0
  6 10  2  3
  7  8  1  0
  7  9  2  0
 10 11  1  0
 10 16  1  0
 11 12  2  0
 12 13  1  0
 13 14  1  0
 14 15  1  0
 15 16  1  0
 17 18  1  0
 18 19  1  0
 19 20  1  0
 20 21  1  0
M  END
