
     RDKit          3D

 20 21  0  0  0  0  0  0  0  0999 V2000
   -4.1980   -2.6180   -0.7620 C   0  0  0  0  0  0  0  0  0  0  0  0
   -2.7730   -2.3330   -0.6870 N   0  0  0  0  0  0  0  0  0  0  0  0
   -2.5720   -1.4450    0.4180 C   0  0  0  0  0  0  0  0  0  0  0  0
   -1.1460   -1.0690    0.6110 C   0  0  0  0  0  0  0  0  0  0  0  0
   -0.7420    0.1770    0.5510 C   0  0  0  0  0  0  0  0  0  0  0  0
   -1.5080    1.4410    0.2990 C   0  0  0  0  0  0  0  0  0  0  0  0
   -0.5040    2.4590    0.0960 N   0  0  0  0  0  0  0  0  0  0  0  0
   -0.7060    3.8400    0.1760 C   0  0  0  0  0  0  0  0  0  0  0  0
    0.3710    4.7580   -0.0470 N   0  0  0  0  0  0  0  0  0  0  0  0
   -1.8190    4.3710    0.4430 O   0  0  0  0  0  0  0  0  0  0  0  0
    0.7410    1.7840   -0.2050 C   0  0  0  0  0  0  0  0  0  0  0  0
    0.6590    0.6100    0.7350 C   0  0  1  0  0  0  0  0  0  0  0  0
    0.7490    1.1370    2.0370 O   0  0  0  0  0  0  0  0  0  0  0  0
    1.6780   -0.4280    0.5530 C   0  0  2  0  0  0  0  0  0  0  0  0
    2.1460   -0.6480   -0.8550 C   0  0  0  0  0  0  0  0  0  0  0  0
    3.3940   -1.9350   -0.9990 S   0  0  0  0  0  0  0  0  0  0  0  0
    4.9480   -1.5310   -0.2070 C   0  0  0  0  0  0  0  0  0  0  0  0
    1.1980   -1.6640    1.0520 O   0  0  0  0  0  0  0  0  0  0  0  0
   -0.1210   -2.0770    0.8800 C   0  0  0  0  0  0  0  0  0  0  0  0
   -0.4640   -3.2850    0.9460 O   0  0  0  0  0  0  0  0  0  0  0  0
  1  2  1  0
  2  3  1  0
  3  4  1  0
  4  5  2  0
  4 19  1  0
  5  6  1  0
  5 12  1  0
  6  7  1  0
  7  8  1  0
  7 11  1  0
  8  9  1  0
  8 10  2  0
 11 12  1  0
 12 13  1  1
 12 14  1  0
 14 15  1  6
 14 18  1  0
 15 16  1  0
 16 17  1  0
 18 19  1  0
 19 20  2  0
M  END
