
     RDKit          3D

 21 22  0  0  0  0  0  0  0  0999 V2000
   -1.6680    4.4330    0.3730 C   0  0  0  0  0  0  0  0  0  0  0  0
   -1.0520    3.2690   -0.1430 O   0  0  0  0  0  0  0  0  0  0  0  0
   -0.8950    2.1040    0.5800 C   0  0  0  0  0  0  0  0  0  0  0  0
   -1.3230    2.0720    1.7600 O   0  0  0  0  0  0  0  0  0  0  0  0
   -0.2280    0.8940   -0.0280 C   0  0  1  0  0  0  0  0  0  0  0  0
    1.1000    1.3620   -0.5250 C   0  0  0  0  0  0  0  0  0  0  0  0
    2.1280    0.3080   -0.7030 C   0  0  1  0  0  0  0  0  0  0  0  0
    3.3760    0.8750   -0.3560 O   0  0  0  0  0  0  0  0  0  0  0  0
    1.8810   -0.9730    0.0120 C   0  0  1  0  0  0  0  0  0  0  0  0
    3.1390   -1.7450    0.3200 C   0  0  0  0  0  0  0  0  0  0  0  0
    3.9190   -2.1240   -0.8860 C   0  0  0  0  0  0  0  0  0  0  0  0
    5.0520   -2.8300   -0.4570 O   0  0  0  0  0  0  0  0  0  0  0  0
    1.0940   -0.6740    1.2670 C   0  0  0  0  0  0  0  0  0  0  0  0
   -0.1970   -0.1850    0.8880 N   0  0  0  0  0  0  0  0  0  0  0  0
   -1.0760   -1.2710    0.6330 C   0  0  0  0  0  0  0  0  0  0  0  0
   -2.4190   -0.6830    0.2300 C   0  0  0  0  0  0  0  0  0  0  0  0
   -3.1160    0.1760    0.0110 N   0  0  0  0  0  0  0  0  0  0  0  0
   -4.3610    0.1420   -0.3520 N   0  0  0  0  0  0  0  0  0  0  0  0
   -4.9810   -0.8920   -0.5160 C   0  0  0  0  0  0  0  0  0  0  0  0
   -6.2760   -1.3370   -0.8870 N   0  0  0  0  0  0  0  0  0  0  0  0
   -3.6200   -2.1420   -0.0960 S   0  0  0  0  0  0  0  0  0  0  0  0
  1  2  1  0
  2  3  1  0
  3  4  2  0
  5  3  1  1
  5  6  1  0
  5 14  1  0
  6  7  1  0
  7  8  1  1
  7  9  1  0
  9 10  1  1
  9 13  1  0
 10 11  1  0
 11 12  1  0
 13 14  1  0
 14 15  1  0
 15 16  1  0
 16 17  2  0
 16 21  1  0
 17 18  1  0
 18 19  2  0
 19 20  1  0
 19 21  1  0
M  END
