
     RDKit          3D

 21 22  0  0  0  0  0  0  0  0999 V2000
    3.8180   -2.0450   -0.8130 C   0  0  0  0  0  0  0  0  0  0  0  0
    3.7930   -0.6810   -0.2640 C   0  0  0  0  0  0  0  0  0  0  0  0
    2.8120    0.1990   -0.4080 C   0  0  0  0  0  0  0  0  0  0  0  0
    1.5450   -0.0500   -1.1660 C   0  0  0  0  0  0  0  0  0  0  0  0
    0.3860    0.0760   -0.3440 N   0  0  0  0  0  0  0  0  0  0  0  0
   -0.8970   -0.1370   -0.9450 C   0  0  0  0  0  0  0  0  0  0  0  0
   -0.9890   -0.4310   -2.1800 O   0  0  0  0  0  0  0  0  0  0  0  0
   -2.1430   -0.0310   -0.1870 C   0  0  2  0  0  0  0  0  0  0  0  0
   -2.1070   -1.1050    0.8920 C   0  0  0  0  0  0  0  0  0  0  0  0
   -3.2870   -0.2940   -1.0350 N   0  0  0  0  0  0  0  0  0  0  0  0
   -4.5700    0.2210   -0.7040 C   0  0  0  0  0  0  0  0  0  0  0  0
   -5.5240    0.2700   -1.5230 O   0  0  0  0  0  0  0  0  0  0  0  0
   -4.8020    0.7320    0.6890 C   0  0  0  0  0  0  0  0  0  0  0  0
   -3.6230    1.5150    1.0300 N   0  0  0  0  0  0  0  0  0  0  0  0
   -2.3590    1.3140    0.4080 C   0  0  0  0  0  0  0  0  0  0  0  0
   -1.5030    2.2350    0.3810 O   0  0  0  0  0  0  0  0  0  0  0  0
    3.1630    1.3620    0.2520 O   0  0  0  0  0  0  0  0  0  0  0  0
    4.3990    1.2590    0.8490 C   0  0  0  0  0  0  0  0  0  0  0  0
    5.0580    2.1340    1.5510 N   0  0  0  0  0  0  0  0  0  0  0  0
    4.8780   -0.0840    0.5430 C   0  0  0  0  0  0  0  0  0  0  0  0
    6.2900   -0.7810    0.9860 S   0  0  0  0  0  0  0  0  0  0  0  0
  1  2  1  0
  2  3  2  0
  2 20  1  0
  3  4  1  0
  3 17  1  0
  4  5  1  0
  5  6  1  0
  6  7  2  0
  6  8  1  0
  8  9  1  1
  8 10  1  0
  8 15  1  0
 10 11  1  0
 11 12  2  0
 11 13  1  0
 13 14  1  0
 14 15  1  0
 15 16  2  0
 17 18  1  0
 18 19  2  0
 18 20  1  0
 20 21  2  0
M  END
