
     RDKit          3D

 21 22  0  0  0  0  0  0  0  0999 V2000
    4.2880    1.7160   -2.3800 O   0  0  0  0  0  0  0  0  0  0  0  0
    4.4110    1.1680   -1.2670 C   0  0  0  0  0  0  0  0  0  0  0  0
    3.1600    0.5590   -0.7570 C   0  0  0  0  0  0  0  0  0  0  0  0
    2.9890   -0.4100    0.0970 C   0  0  0  0  0  0  0  0  0  0  0  0
    1.6960   -0.8810    0.4850 C   0  0  0  0  0  0  0  0  0  0  0  0
    0.4700   -0.3120   -0.0460 C   0  0  0  0  0  0  0  0  0  0  0  0
    0.3340    0.5780   -0.9100 O   0  0  0  0  0  0  0  0  0  0  0  0
   -0.8200   -0.7920    0.4470 N   0  0  0  0  0  0  0  0  0  0  0  0
   -1.9890   -0.2520   -0.0540 N   0  0  0  0  0  0  0  0  0  0  0  0
   -3.2480   -0.6840    0.4550 C   0  0  0  0  0  0  0  0  0  0  0  0
   -3.2250   -1.5580    1.3560 O   0  0  0  0  0  0  0  0  0  0  0  0
   -4.5060   -0.1260   -0.0600 C   0  0  0  0  0  0  0  0  0  0  0  0
   -5.7060   -0.4710    0.3560 C   0  0  0  0  0  0  0  0  0  0  0  0
   -6.7300    0.3210   -0.4110 C   0  0  0  0  0  0  0  0  0  0  0  0
   -5.9260    1.1530   -1.3070 C   0  0  0  0  0  0  0  0  0  0  0  0
   -4.6740    0.8880   -1.0960 C   0  0  0  0  0  0  0  0  0  0  0  0
    4.1080   -1.1610    0.7890 C   0  0  0  0  0  0  0  0  0  0  0  0
    4.9000   -0.3010    1.6180 N   0  0  0  0  0  0  0  0  0  0  0  0
    6.2740    0.2250    0.6570 S   0  0  0  0  0  0  0  0  0  0  0  0
    7.3570    0.8530    1.4750 O   0  0  0  0  0  0  0  0  0  0  0  0
    5.6800    1.1890   -0.6440 N   0  0  0  0  0  0  0  0  0  0  0  0
  1  2  2  0
  2  3  1  0
  2 21  1  0
  3  4  2  0
  4  5  1  0
  4 17  1  0
  5  6  1  0
  6  7  2  0
  6  8  1  0
  8  9  1  0
  9 10  1  0
 10 11  2  0
 10 12  1  0
 12 13  2  0
 12 16  1  0
 13 14  1  0
 14 15  1  0
 15 16  2  0
 17 18  1  0
 19 18  1  1
 19 20  2  0
 19 21  1  0
M  END
