
     RDKit          3D

 26 29  0  0  0  0  0  0  0  0999 V2000
   -0.2270    4.5840    0.0750 C   0  0  0  0  0  0  0  0  0  0  0  0
   -1.3270    3.6020    0.3870 C   0  0  0  0  0  0  0  0  0  0  0  0
   -0.9130    2.3260   -0.0730 O   0  0  0  0  0  0  0  0  0  0  0  0
   -1.7050    1.1990    0.0650 C   0  0  0  0  0  0  0  0  0  0  0  0
   -2.8020    1.3900    0.6210 O   0  0  0  0  0  0  0  0  0  0  0  0
   -1.2470   -0.1410   -0.4290 C   0  0  0  0  0  0  0  0  0  0  0  0
   -0.0390   -0.2290   -1.0250 C   0  0  0  0  0  0  0  0  0  0  0  0
    0.9690    0.6940   -1.3080 N   0  0  0  0  0  0  0  0  0  0  0  0
    2.1090    0.8420   -0.8160 C   0  0  0  0  0  0  0  0  0  0  0  0
    3.0040    1.9180   -1.3010 C   0  0  0  0  0  0  0  0  0  0  0  0
    4.3980    1.3570   -1.5060 C   0  0  0  0  0  0  0  0  0  0  0  0
    4.8260    0.7150   -0.3450 O   0  0  0  0  0  0  0  0  0  0  0  0
    4.0440   -0.0830    0.4730 C   0  0  0  0  0  0  0  0  0  0  0  0
    4.3370   -0.9060    1.4500 C   0  0  0  0  0  0  0  0  0  0  0  0
    3.0710   -1.4810    1.9560 C   0  0  0  0  0  0  0  0  0  0  0  0
    2.0330   -0.8540    1.1180 C   0  0  0  0  0  0  0  0  0  0  0  0
    2.5930   -0.0290    0.2380 C   0  0  0  0  0  0  0  0  0  0  0  0
    0.0870   -2.0370   -1.4800 S   0  0  0  0  0  0  0  0  0  0  0  0
   -1.4590   -2.4110   -0.8240 C   0  0  0  0  0  0  0  0  0  0  0  0
   -2.0000   -1.2560   -0.3120 C   0  0  0  0  0  0  0  0  0  0  0  0
   -3.3410   -1.2080    0.3620 C   0  0  0  0  0  0  0  0  0  0  0  0
   -3.9150   -2.5090    0.7190 C   0  0  0  0  0  0  0  0  0  0  0  0
   -4.4430   -3.3530   -0.3980 C   0  0  0  0  0  0  0  0  0  0  0  0
   -3.3710   -4.2070   -0.7670 O   0  0  0  0  0  0  0  0  0  0  0  0
   -2.0490   -3.8120   -0.8610 C   0  0  0  0  0  0  0  0  0  0  0  0
   -1.1510   -4.6920   -1.0010 O   0  0  0  0  0  0  0  0  0  0  0  0
  1  2  1  0
  2  3  1  0
  3  4  1  0
  4  5  2  0
  4  6  1  0
  6  7  2  0
  6 20  1  0
  7  8  1  0
  7 18  1  0
  8  9  2  3
  9 10  1  0
  9 17  1  0
 10 11  1  0
 11 12  1  0
 12 13  1  0
 13 14  2  0
 13 17  1  0
 14 15  1  0
 15 16  1  0
 16 17  2  0
 18 19  1  0
 19 20  2  0
 19 25  1  0
 20 21  1  0
 21 22  1  0
 22 23  1  0
 23 24  1  0
 24 25  1  0
 25 26  2  0
M  END
