
     RDKit          3D

  9  8  0  0  0  0  0  0  0  0999 V2000
   -1.7520   -0.7420    1.0270 N   0  0  0  0  0  0  0  0  0  0  0  0
   -1.0920   -1.0840   -0.1900 C   0  0  0  0  0  0  0  0  0  0  0  0
   -0.1640   -0.0520   -0.7190 C   0  0  1  0  0  0  0  0  0  0  0  0
   -0.8720    1.2670   -1.0160 C   0  0  0  0  0  0  0  0  0  0  0  0
   -1.4480    1.7590    0.1770 O   0  0  0  0  0  0  0  0  0  0  0  0
    1.0080    0.2510    0.1430 C   0  0  2  0  0  0  0  0  0  0  0  0
    1.7690    1.2420   -0.5120 O   0  0  0  0  0  0  0  0  0  0  0  0
    1.9280   -0.9160    0.3690 C   0  0  0  0  0  0  0  0  0  0  0  0
    2.9870   -0.4600    1.1610 O   0  0  0  0  0  0  0  0  0  0  0  0
  1  2  1  0
  3  2  1  1
  3  4  1  0
  3  6  1  0
  4  5  1  0
  6  7  1  6
  6  8  1  0
  8  9  1  0
M  CHG  1   1   1
M  END
