
     RDKit          3D

 10  9  0  0  0  0  0  0  0  0999 V2000
    2.7610    0.8100    0.0630 C   0  0  0  0  0  0  0  0  0  0  0  0
    1.5350   -0.1020    0.0440 C   0  0  2  0  0  0  0  0  0  0  0  0
    1.9840   -1.3850   -0.2200 O   0  0  0  0  0  0  0  0  0  0  0  0
    0.5690    0.4060   -0.9800 C   0  0  0  0  0  0  0  0  0  0  0  0
   -0.5660   -0.3010   -1.1770 O   0  0  0  0  0  0  0  0  0  0  0  0
   -1.4330   -0.4890   -0.1510 C   0  0  2  0  0  0  0  0  0  0  0  0
   -0.7960   -1.3340    0.8620 N   0  0  0  0  0  0  0  0  0  0  0  0
   -2.5090   -1.2490   -0.6940 O   0  0  0  0  0  0  0  0  0  0  0  0
   -2.0330    0.7350    0.4500 C   0  0  0  0  0  0  0  0  0  0  0  0
   -2.6240    1.5120   -0.5210 O   0  0  0  0  0  0  0  0  0  0  0  0
  2  1  1  6
  2  3  1  0
  2  4  1  0
  4  5  1  0
  5  6  1  0
  6  7  1  1
  6  8  1  0
  6  9  1  0
  9 10  1  0
M  END
