
     RDKit          3D

 27 30  0  0  0  0  0  0  0  0999 V2000
   -2.7860   -3.5020    0.2950 C   0  0  0  0  0  0  0  0  0  0  0  0
   -2.9110   -2.5080   -0.7050 O   0  0  0  0  0  0  0  0  0  0  0  0
   -3.6730   -1.3590   -0.4530 C   0  0  0  0  0  0  0  0  0  0  0  0
   -5.0140   -1.3020   -0.7370 C   0  0  0  0  0  0  0  0  0  0  0  0
   -5.6600   -2.3890   -1.2880 O   0  0  0  0  0  0  0  0  0  0  0  0
   -5.7240   -0.1280   -0.4640 C   0  0  0  0  0  0  0  0  0  0  0  0
   -5.1240    0.9860    0.0860 C   0  0  0  0  0  0  0  0  0  0  0  0
   -3.7750    0.9150    0.3670 C   0  0  0  0  0  0  0  0  0  0  0  0
   -3.0660   -0.2510    0.0970 C   0  0  0  0  0  0  0  0  0  0  0  0
   -1.6850   -0.3170    0.3870 N   0  0  0  0  0  0  0  0  0  0  0  0
   -0.6750    0.0450   -0.5290 C   0  0  0  0  0  0  0  0  0  0  0  0
   -1.0270    0.4490   -1.6640 O   0  0  0  0  0  0  0  0  0  0  0  0
    0.7200   -0.0430   -0.1770 N   0  0  0  0  0  0  0  0  0  0  0  0
    1.6500    0.3540   -1.1950 C   0  0  0  0  0  0  0  0  0  0  0  0
    3.0200    0.1880   -0.6320 C   0  0  0  0  0  0  0  0  0  0  0  0
    3.5900   -0.1330    0.2980 N   0  0  0  0  0  0  0  0  0  0  0  0
    4.9110   -0.1760    0.5150 C   0  0  0  0  0  0  0  0  0  0  0  0
    5.6950    0.2020   -0.4710 C   0  0  0  0  0  0  0  0  0  0  0  0
    4.5020    0.6250   -1.7320 S   0  0  0  0  0  0  0  0  0  0  0  0
    7.1050    0.3180   -0.6820 C   0  0  0  0  0  0  0  0  0  0  0  0
    8.0180   -0.2900    0.3080 C   0  0  0  0  0  0  0  0  0  0  0  0
    7.1100   -1.4680    1.3040 S   0  0  0  0  0  0  0  0  0  0  0  0
    5.5600   -0.6200    1.8050 C   0  0  0  0  0  0  0  0  0  0  0  0
   -3.1750    2.0370    0.9200 O   0  0  0  0  0  0  0  0  0  0  0  0
   -3.8010    3.2890    0.8290 C   0  0  0  0  0  0  0  0  0  0  0  0
   -5.2570    3.1490    1.1790 C   0  0  0  0  0  0  0  0  0  0  0  0
   -5.8310    2.1520    0.3570 O   0  0  0  0  0  0  0  0  0  0  0  0
  1  2  1  0
  2  3  1  0
  3  4  2  0
  3  9  1  0
  4  5  1  0
  4  6  1  0
  6  7  2  0
  7  8  1  0
  7 27  1  0
  8  9  2  0
  8 24  1  0
  9 10  1  0
 10 11  1  0
 11 12  2  0
 11 13  1  0
 13 14  1  0
 14 15  1  0
 15 16  2  0
 15 19  1  0
 16 17  1  0
 17 18  2  0
 17 23  1  0
 18 19  1  0
 18 20  1  0
 20 21  1  0
 21 22  1  0
 22 23  1  0
 24 25  1  0
 25 26  1  0
 26 27  1  0
M  END
