
     RDKit          3D

 28 30  0  0  0  0  0  0  0  0999 V2000
   -6.0570    2.5310   -1.6430 C   0  0  0  0  0  0  0  0  0  0  0  0
   -5.6070    2.0540   -0.4070 O   0  0  0  0  0  0  0  0  0  0  0  0
   -4.6030    1.1260   -0.2280 C   0  0  0  0  0  0  0  0  0  0  0  0
   -4.0400    0.6630   -1.2520 O   0  0  0  0  0  0  0  0  0  0  0  0
   -4.1480    0.6400    1.0880 C   0  0  0  0  0  0  0  0  0  0  0  0
   -3.0830   -0.3300    0.9890 N   0  0  0  0  0  0  0  0  0  0  0  0
   -3.2060   -1.5680    0.3090 C   0  0  0  0  0  0  0  0  0  0  0  0
   -4.3800   -1.7420   -0.2030 O   0  0  0  0  0  0  0  0  0  0  0  0
   -2.2130   -2.5960    0.1520 C   0  0  0  0  0  0  0  0  0  0  0  0
   -2.6200   -3.9100    0.0630 N   0  0  0  0  0  0  0  0  0  0  0  0
   -1.5690   -4.6880   -0.0640 C   0  0  0  0  0  0  0  0  0  0  0  0
   -1.5950   -5.9460   -0.1680 O   0  0  0  0  0  0  0  0  0  0  0  0
   -0.4870   -3.9360   -0.0650 N   0  0  0  0  0  0  0  0  0  0  0  0
   -0.8730   -2.6230    0.0660 C   0  0  0  0  0  0  0  0  0  0  0  0
    0.0400   -1.4940   -0.0120 C   0  0  0  0  0  0  0  0  0  0  0  0
   -0.0630   -0.1690   -0.3530 C   0  0  0  0  0  0  0  0  0  0  0  0
    1.0410    0.5840   -0.3820 C   0  0  0  0  0  0  0  0  0  0  0  0
    2.2530    0.0140   -0.0720 C   0  0  0  0  0  0  0  0  0  0  0  0
    3.5750    0.5730   -0.0220 C   0  0  0  0  0  0  0  0  0  0  0  0
    3.7220    1.8990   -0.3270 C   0  0  0  0  0  0  0  0  0  0  0  0
    4.9720    2.4600   -0.2890 C   0  0  0  0  0  0  0  0  0  0  0  0
    6.0850    1.7290    0.0480 C   0  0  0  0  0  0  0  0  0  0  0  0
    7.7090    2.4320    0.1040 S   0  0  0  0  0  0  0  0  0  0  0  0
    7.8490    3.2560    1.3870 O   0  0  0  0  0  0  0  0  0  0  0  0
    5.9240    0.3930    0.3520 C   0  0  0  0  0  0  0  0  0  0  0  0
    7.3320   -0.5810    0.7900 Cl  0  0  0  0  0  0  0  0  0  0  0  0
    4.6670   -0.2050    0.3220 C   0  0  0  0  0  0  0  0  0  0  0  0
    1.7700   -1.6540    0.2700 S   0  0  0  0  0  0  0  0  0  0  0  0
  1  2  1  0
  2  3  1  0
  3  4  2  0
  3  5  1  0
  5  6  1  0
  6  7  1  0
  7  8  2  0
  7  9  1  0
  9 10  1  0
  9 14  2  0
 10 11  1  0
 11 12  2  0
 11 13  1  0
 13 14  1  0
 14 15  1  0
 15 16  2  0
 15 28  1  0
 16 17  1  0
 17 18  2  0
 18 19  1  0
 18 28  1  0
 19 20  2  0
 19 27  1  0
 20 21  1  0
 21 22  2  0
 22 23  1  0
 22 25  1  0
 23 24  2  0
 25 26  1  0
 25 27  2  0
M  END
