
     RDKit          3D

 28 31  0  0  0  0  0  0  0  0999 V2000
   -5.3790    2.7790   -0.3800 C   0  0  0  0  0  0  0  0  0  0  0  0
   -5.6210    1.6650    0.4090 O   0  0  0  0  0  0  0  0  0  0  0  0
   -4.8930    0.5210    0.3840 C   0  0  0  0  0  0  0  0  0  0  0  0
   -3.7940    0.2460   -0.4140 C   0  0  0  0  0  0  0  0  0  0  0  0
   -3.1240   -0.9440   -0.3610 C   0  0  0  0  0  0  0  0  0  0  0  0
   -2.0020   -1.2340   -1.1370 N   0  0  0  0  0  0  0  0  0  0  0  0
   -1.5060   -0.4860   -2.2080 C   0  0  0  0  0  0  0  0  0  0  0  0
   -2.0640    0.5530   -2.6000 O   0  0  0  0  0  0  0  0  0  0  0  0
   -0.2550   -0.9200   -2.9430 C   0  0  0  0  0  0  0  0  0  0  0  0
    0.5240   -2.2160   -1.9300 S   0  0  0  0  0  0  0  0  0  0  0  0
    1.1120   -1.3780   -0.4470 C   0  0  0  0  0  0  0  0  0  0  0  0
    0.5270   -1.1460    0.7120 N   0  0  0  0  0  0  0  0  0  0  0  0
    1.4140   -0.4790    1.4690 N   0  0  0  0  0  0  0  0  0  0  0  0
    2.5150   -0.3180    0.7630 C   0  0  0  0  0  0  0  0  0  0  0  0
    3.8020    0.3540    1.1300 C   0  0  0  0  0  0  0  0  0  0  0  0
    3.8480    0.9290    2.4010 C   0  0  0  0  0  0  0  0  0  0  0  0
    5.5350    1.6170    2.4530 S   0  0  0  0  0  0  0  0  0  0  0  0
    6.0000    1.0790    0.8100 C   0  0  0  0  0  0  0  0  0  0  0  0
    4.9080    0.4540    0.3660 C   0  0  0  0  0  0  0  0  0  0  0  0
    5.2410    0.0010   -0.9670 O   0  0  0  0  0  0  0  0  0  0  0  0
    6.6640   -0.0120   -1.0960 C   0  0  0  0  0  0  0  0  0  0  0  0
    7.1300    1.0920   -0.1570 C   0  0  0  0  0  0  0  0  0  0  0  0
    2.3110   -0.8700   -0.3940 O   0  0  0  0  0  0  0  0  0  0  0  0
   -3.5400   -1.9460    0.5270 C   0  0  0  0  0  0  0  0  0  0  0  0
   -2.7070   -3.4980    0.6290 Cl  0  0  0  0  0  0  0  0  0  0  0  0
   -4.6240   -1.6840    1.3200 C   0  0  0  0  0  0  0  0  0  0  0  0
   -5.2970   -0.4890    1.2660 C   0  0  0  0  0  0  0  0  0  0  0  0
   -6.3850   -0.2650    2.0790 O   0  0  0  0  0  0  0  0  0  0  0  0
  1  2  1  0
  2  3  1  0
  3  4  2  0
  3 27  1  0
  4  5  1  0
  5  6  1  0
  5 24  2  0
  6  7  1  0
  7  8  2  0
  7  9  1  0
  9 10  1  0
 10 11  1  0
 11 12  2  0
 11 23  1  0
 12 13  1  0
 13 14  2  0
 14 15  1  0
 14 23  1  0
 15 16  2  0
 15 19  1  0
 16 17  1  0
 17 18  1  0
 18 19  2  0
 18 22  1  0
 19 20  1  0
 20 21  1  0
 21 22  1  0
 24 25  1  0
 24 26  1  0
 26 27  2  0
 27 28  1  0
M  END
