
     RDKit          3D

 26 28  0  0  0  0  0  0  0  0999 V2000
    4.0550    1.8320    2.2280 C   0  0  0  0  0  0  0  0  0  0  0  0
    4.0710    0.6910    1.2030 C   0  0  1  0  0  0  0  0  0  0  0  0
    4.7050   -0.5460    1.8380 C   0  0  0  0  0  0  0  0  0  0  0  0
    2.7750    0.4220    0.7510 O   0  0  0  0  0  0  0  0  0  0  0  0
    2.2750    0.4940   -0.5140 C   0  0  0  0  0  0  0  0  0  0  0  0
    3.0400    0.8690   -1.5890 C   0  0  0  0  0  0  0  0  0  0  0  0
    2.4400    0.9110   -2.8360 C   0  0  0  0  0  0  0  0  0  0  0  0
    1.1210    0.5950   -3.0340 C   0  0  0  0  0  0  0  0  0  0  0  0
    0.5620    0.6500   -4.2940 C   0  0  0  0  0  0  0  0  0  0  0  0
   -0.7520    0.3350   -4.4910 C   0  0  0  0  0  0  0  0  0  0  0  0
   -1.5000   -0.0380   -3.4010 C   0  0  0  0  0  0  0  0  0  0  0  0
   -0.9440   -0.0960   -2.1260 C   0  0  0  0  0  0  0  0  0  0  0  0
   -1.6920   -0.4780   -0.9860 N   0  0  0  0  0  0  0  0  0  0  0  0
   -2.4470    0.3120   -0.1820 C   0  0  0  0  0  0  0  0  0  0  0  0
   -3.0100   -0.4680    0.8220 C   0  0  0  0  0  0  0  0  0  0  0  0
   -3.8670   -0.0350    1.8710 N   0  0  0  0  0  0  0  0  0  0  0  0
   -4.3010    1.2980    2.0750 C   0  0  0  0  0  0  0  0  0  0  0  0
   -5.1600    1.6110    3.1630 N   0  0  0  0  0  0  0  0  0  0  0  0
   -3.9290    2.1950    1.3000 O   0  0  0  0  0  0  0  0  0  0  0  0
   -2.5640   -1.7510    0.5880 C   0  0  0  0  0  0  0  0  0  0  0  0
   -2.8740   -2.9420    1.3670 C   0  0  0  0  0  0  0  0  0  0  0  0
   -2.3280   -4.2140    0.9920 N   0  0  0  0  0  0  0  0  0  0  0  0
   -3.6060   -2.9240    2.3670 O   0  0  0  0  0  0  0  0  0  0  0  0
   -1.7740   -1.6990   -0.5130 N   0  0  0  0  0  0  0  0  0  0  0  0
    0.3890    0.2220   -1.9190 C   0  0  0  0  0  0  0  0  0  0  0  0
    0.9310    0.1620   -0.6570 C   0  0  0  0  0  0  0  0  0  0  0  0
  2  1  1  1
  2  3  1  0
  2  4  1  0
  4  5  1  0
  5  6  2  0
  5 26  1  0
  6  7  1  0
  7  8  2  0
  8  9  1  0
  8 25  1  0
  9 10  2  0
 10 11  1  0
 11 12  2  0
 12 13  1  0
 12 25  1  0
 13 14  1  0
 13 24  1  0
 14 15  2  0
 15 16  1  0
 15 20  1  0
 16 17  1  0
 17 18  1  0
 17 19  2  0
 20 21  1  0
 20 24  2  0
 21 22  1  0
 21 23  2  0
 25 26  2  0
M  END
