
     RDKit          3D

 27 29  0  0  0  0  0  0  0  0999 V2000
   -5.4720   -1.2350    3.3020 C   0  0  0  0  0  0  0  0  0  0  0  0
   -5.8870   -0.5270    2.1510 O   0  0  0  0  0  0  0  0  0  0  0  0
   -5.0080   -0.3550    1.1030 C   0  0  0  0  0  0  0  0  0  0  0  0
   -3.7140   -0.8610    1.1420 C   0  0  0  0  0  0  0  0  0  0  0  0
   -2.8400   -0.6790    0.0770 C   0  0  0  0  0  0  0  0  0  0  0  0
   -1.1780   -1.3320    0.1320 S   0  0  0  0  0  0  0  0  0  0  0  0
   -0.0290   -0.1190    0.8470 C   0  0  0  0  0  0  0  0  0  0  0  0
    1.3280   -0.7800    0.8400 C   0  0  0  0  0  0  0  0  0  0  0  0
    1.7670   -1.5170    1.8790 C   0  0  0  0  0  0  0  0  0  0  0  0
    3.4250   -2.0720    1.3640 S   0  0  0  0  0  0  0  0  0  0  0  0
    3.2260   -1.1450   -0.2890 C   0  0  0  0  0  0  0  0  0  0  0  0
    4.3770   -1.2210   -1.2650 C   0  0  0  0  0  0  0  0  0  0  0  0
    5.2430   -0.0600   -0.9520 C   0  0  0  0  0  0  0  0  0  0  0  0
    5.0890    1.1700   -1.5400 C   0  0  0  0  0  0  0  0  0  0  0  0
    5.9220    2.2050   -1.2080 C   0  0  0  0  0  0  0  0  0  0  0  0
    5.8100    3.3380   -1.7250 O   0  0  0  0  0  0  0  0  0  0  0  0
    6.8890    2.0060   -0.3030 N   0  0  0  0  0  0  0  0  0  0  0  0
    7.0360    0.7990    0.2720 C   0  0  0  0  0  0  0  0  0  0  0  0
    7.9380    0.6330    1.1090 O   0  0  0  0  0  0  0  0  0  0  0  0
    6.2220   -0.2210   -0.0490 N   0  0  0  0  0  0  0  0  0  0  0  0
    2.1930   -0.7060   -0.1560 N   0  0  0  0  0  0  0  0  0  0  0  0
   -3.3010    0.0210   -1.0210 C   0  0  0  0  0  0  0  0  0  0  0  0
   -4.5810    0.5390   -1.0970 C   0  0  0  0  0  0  0  0  0  0  0  0
   -5.0220    1.2380   -2.2060 O   0  0  0  0  0  0  0  0  0  0  0  0
   -4.1220    1.4120   -3.2760 C   0  0  0  0  0  0  0  0  0  0  0  0
   -5.4250    0.3360   -0.0110 C   0  0  0  0  0  0  0  0  0  0  0  0
   -6.7160    0.8310   -0.0290 O   0  0  0  0  0  0  0  0  0  0  0  0
  1  2  1  0
  2  3  1  0
  3  4  2  0
  3 26  1  0
  4  5  1  0
  5  6  1  0
  5 22  2  0
  6  7  1  0
  7  8  1  0
  8  9  2  0
  8 21  1  0
  9 10  1  0
 10 11  1  0
 11 12  1  0
 11 21  2  0
 12 13  1  0
 13 14  2  0
 13 20  1  0
 14 15  1  0
 15 16  2  0
 15 17  1  0
 17 18  1  0
 18 19  2  0
 18 20  1  0
 22 23  1  0
 23 24  1  0
 23 26  2  0
 24 25  1  0
 26 27  1  0
M  END
