
     RDKit          3D

 28 31  0  0  0  0  0  0  0  0999 V2000
    4.2790   -1.6250    1.3240 C   0  0  0  0  0  0  0  0  0  0  0  0
    5.2630   -0.7720    1.1110 C   0  0  0  0  0  0  0  0  0  0  0  0
    6.6620   -1.2670    0.9740 C   0  0  0  0  0  0  0  0  0  0  0  0
    7.7230   -0.5650    2.2230 Cl  0  0  0  0  0  0  0  0  0  0  0  0
    4.9930    0.6870    1.0030 C   0  0  2  0  0  0  0  0  0  0  0  0
    3.6150    0.9440    1.1400 O   0  0  0  0  0  0  0  0  0  0  0  0
    2.6960    0.8020    0.1080 C   0  0  0  0  0  0  0  0  0  0  0  0
    1.3610    0.6370    0.3430 C   0  0  0  0  0  0  0  0  0  0  0  0
    0.4310    0.4930   -0.6970 C   0  0  0  0  0  0  0  0  0  0  0  0
   -0.9450    0.3360   -0.3590 N   0  0  0  0  0  0  0  0  0  0  0  0
   -1.9910    0.0060   -1.2120 C   0  0  0  0  0  0  0  0  0  0  0  0
   -1.7650   -0.1900   -2.4260 O   0  0  0  0  0  0  0  0  0  0  0  0
   -3.3750   -0.1100   -0.6710 C   0  0  0  0  0  0  0  0  0  0  0  0
   -4.0000   -0.0290    0.2620 N   0  0  0  0  0  0  0  0  0  0  0  0
   -5.3310   -0.2110    0.4210 C   0  0  0  0  0  0  0  0  0  0  0  0
   -6.0090   -0.5240   -0.6420 C   0  0  0  0  0  0  0  0  0  0  0  0
   -4.7350   -0.5650   -1.9090 S   0  0  0  0  0  0  0  0  0  0  0  0
   -7.4170   -0.7450   -0.6250 C   0  0  0  0  0  0  0  0  0  0  0  0
   -7.7980   -0.5410    1.1030 S   0  0  1  0  0  0  0  0  0  0  0  0
   -8.7650    0.5910    1.3130 O   0  0  0  0  0  0  0  0  0  0  0  0
   -8.2830   -1.8100    1.7240 O   0  0  0  0  0  0  0  0  0  0  0  0
   -6.1660   -0.1000    1.6830 C   0  0  0  0  0  0  0  0  0  0  0  0
    0.9420    0.5280   -1.9630 C   0  0  0  0  0  0  0  0  0  0  0  0
    2.2870    0.6920   -2.2480 C   0  0  0  0  0  0  0  0  0  0  0  0
    3.1590    0.8290   -1.1880 C   0  0  0  0  0  0  0  0  0  0  0  0
    4.5530    1.0000   -1.4450 N   0  0  0  0  0  0  0  0  0  0  0  0
    5.4380    1.1400   -0.3390 C   0  0  0  0  0  0  0  0  0  0  0  0
    6.5590    1.6450   -0.5620 O   0  0  0  0  0  0  0  0  0  0  0  0
  1  2  2  0
  2  3  1  0
  5  2  1  6
  3  4  1  0
  5  6  1  0
  5 27  1  0
  6  7  1  0
  7  8  2  0
  7 25  1  0
  8  9  1  0
  9 10  1  0
  9 23  2  0
 10 11  1  0
 11 12  2  0
 11 13  1  0
 13 14  2  0
 13 17  1  0
 14 15  1  0
 15 16  2  0
 15 22  1  0
 16 17  1  0
 16 18  1  0
 19 18  1  6
 19 20  2  0
 19 21  2  0
 19 22  1  0
 23 24  1  0
 24 25  2  0
 25 26  1  0
 26 27  1  0
 27 28  2  0
M  END
