
     RDKit          3D

 27 29  0  0  0  0  0  0  0  0999 V2000
    2.0160    2.6530   -1.9190 C   0  0  0  0  0  0  0  0  0  0  0  0
    2.5730    1.3840   -1.7230 O   0  0  0  0  0  0  0  0  0  0  0  0
    2.0700    0.5420   -0.7650 C   0  0  0  0  0  0  0  0  0  0  0  0
    0.9920    0.9570    0.0200 C   0  0  0  0  0  0  0  0  0  0  0  0
    0.4740    0.1280    0.9840 C   0  0  0  0  0  0  0  0  0  0  0  0
   -0.8970    0.5880    2.0220 S   0  0  0  0  0  0  0  0  0  0  0  0
   -2.4580    0.1400    1.3200 C   0  0  0  0  0  0  0  0  0  0  0  0
   -2.5810   -0.4950    0.1020 C   0  0  0  0  0  0  0  0  0  0  0  0
   -3.8200   -0.8240   -0.4030 C   0  0  0  0  0  0  0  0  0  0  0  0
   -4.9890   -0.5320    0.2890 C   0  0  0  0  0  0  0  0  0  0  0  0
   -6.1990   -0.8670   -0.2310 N   0  0  0  0  0  0  0  0  0  0  0  0
   -7.3040   -0.5660    0.4720 C   0  0  0  0  0  0  0  0  0  0  0  0
   -8.4230   -0.8940   -0.0440 O   0  0  0  0  0  0  0  0  0  0  0  0
   -7.2350    0.0570    1.6740 N   0  0  0  0  0  0  0  0  0  0  0  0
   -6.0400    0.3850    2.1810 C   0  0  0  0  0  0  0  0  0  0  0  0
   -5.9960    0.9630    3.2970 O   0  0  0  0  0  0  0  0  0  0  0  0
   -4.8710    0.1020    1.5060 C   0  0  0  0  0  0  0  0  0  0  0  0
   -3.6200    0.4270    2.0020 C   0  0  0  0  0  0  0  0  0  0  0  0
    1.0350   -1.1240    1.1680 C   0  0  0  0  0  0  0  0  0  0  0  0
    2.1150   -1.5460    0.3840 C   0  0  0  0  0  0  0  0  0  0  0  0
    2.6350   -0.7110   -0.5850 C   0  0  0  0  0  0  0  0  0  0  0  0
    3.7030   -1.0580   -1.4000 O   0  0  0  0  0  0  0  0  0  0  0  0
    5.0050   -0.7570   -0.9820 C   0  0  0  0  0  0  0  0  0  0  0  0
    5.1410   -0.1860    0.1100 O   0  0  0  0  0  0  0  0  0  0  0  0
    6.1500   -1.0690   -1.7360 N   0  0  0  0  0  0  0  0  0  0  0  0
    7.4840   -0.7380   -1.2650 C   0  0  0  0  0  0  0  0  0  0  0  0
    7.6600    1.0580   -1.0240 S   0  0  0  0  0  0  0  0  0  0  0  0
  1  2  1  0
  2  3  1  0
  3  4  2  0
  3 21  1  0
  4  5  1  0
  5  6  1  0
  5 19  2  0
  6  7  1  0
  7  8  2  0
  7 18  1  0
  8  9  1  0
  9 10  2  0
 10 11  1  0
 10 17  1  0
 11 12  1  0
 12 13  2  0
 12 14  1  0
 14 15  1  0
 15 16  2  0
 15 17  1  0
 17 18  2  0
 19 20  1  0
 20 21  2  0
 21 22  1  0
 22 23  1  0
 23 24  2  0
 23 25  1  0
 25 26  1  0
 26 27  1  0
M  END
