
     RDKit          3D

 23 24  0  0  0  0  0  0  0  0999 V2000
    1.3690    4.0230   -0.3270 C   0  0  0  0  0  0  0  0  0  0  0  0
    0.6380    2.7400   -0.6670 C   0  0  0  0  0  0  0  0  0  0  0  0
    1.4070    1.6510   -0.1250 N   0  0  0  0  0  0  0  0  0  0  0  0
    0.7440    0.3940   -0.0950 C   0  0  1  0  0  0  0  0  0  0  0  0
   -0.0970    0.0730   -1.2770 C   0  0  0  0  0  0  0  0  0  0  0  0
   -1.1280   -0.8860   -0.9220 N   0  0  0  0  0  0  0  0  0  0  0  0
   -2.3510   -0.2840   -0.5020 C   0  0  0  0  0  0  0  0  0  0  0  0
   -3.4910   -1.1710   -1.0130 C   0  0  0  0  0  0  0  0  0  0  0  0
   -4.8050   -0.5700   -0.5910 C   0  0  0  0  0  0  0  0  0  0  0  0
   -4.8260   -0.5060    0.7970 O   0  0  0  0  0  0  0  0  0  0  0  0
   -6.0630    0.0600    1.1780 C   0  0  0  0  0  0  0  0  0  0  0  0
   -0.5920   -1.9850    0.2920 S   0  0  1  0  0  0  0  0  0  0  0  0
   -1.1120   -1.6160    1.6500 O   0  0  0  0  0  0  0  0  0  0  0  0
   -0.9920   -3.3820   -0.0840 O   0  0  0  0  0  0  0  0  0  0  0  0
    1.1950   -1.9850    0.3020 C   0  0  0  0  0  0  0  0  0  0  0  0
    2.4740   -3.0440    0.4840 S   0  0  0  0  0  0  0  0  0  0  0  0
    3.8350   -1.7960    0.2820 C   0  0  0  0  0  0  0  0  0  0  0  0
    5.5010   -2.2020    0.3580 S   0  0  1  0  0  0  0  0  0  0  0  0
    6.4810   -0.8230    0.1320 N   0  0  0  0  0  0  0  0  0  0  0  0
    5.8550   -2.8540    1.6840 O   0  0  0  0  0  0  0  0  0  0  0  0
    5.8070   -3.2170   -0.7090 O   0  0  0  0  0  0  0  0  0  0  0  0
    3.1300   -0.6830    0.0930 C   0  0  0  0  0  0  0  0  0  0  0  0
    1.7950   -0.6620    0.0830 C   0  0  0  0  0  0  0  0  0  0  0  0
  1  2  1  0
  2  3  1  0
  4  3  1  6
  4  5  1  0
  4 23  1  0
  5  6  1  0
  6  7  1  0
 12  6  1  6
  7  8  1  0
  8  9  1  0
  9 10  1  0
 10 11  1  0
 12 13  2  0
 12 14  2  0
 12 15  1  0
 15 16  1  0
 15 23  2  0
 16 17  1  0
 17 18  1  0
 17 22  2  0
 18 19  1  6
 18 20  2  0
 18 21  2  0
 22 23  1  0
M  CHG  1   3   1
M  END
