
     RDKit          3D

 23 24  0  0  0  0  0  0  0  0999 V2000
    6.8380    1.9480    0.6830 C   0  0  0  0  0  0  0  0  0  0  0  0
    6.3640    0.6620    0.7700 O   0  0  0  0  0  0  0  0  0  0  0  0
    5.7430    0.3890   -0.4990 C   0  0  0  0  0  0  0  0  0  0  0  0
    4.5080   -0.3490   -0.1640 C   0  0  0  0  0  0  0  0  0  0  0  0
    4.1340   -0.4570    1.0080 O   0  0  0  0  0  0  0  0  0  0  0  0
    3.7180   -0.9630   -1.2060 N   0  0  0  0  0  0  0  0  0  0  0  0
    2.5730   -1.5730   -0.6450 N   0  0  0  0  0  0  0  0  0  0  0  0
    1.2650   -1.4730   -1.1410 C   0  0  0  0  0  0  0  0  0  0  0  0
    0.9730   -0.8990   -2.1410 O   0  0  0  0  0  0  0  0  0  0  0  0
    0.2640   -2.1650   -0.1960 C   0  0  0  0  0  0  0  0  0  0  0  0
    0.4540   -3.4450    0.0940 C   0  0  0  0  0  0  0  0  0  0  0  0
   -0.9560   -3.8400    1.1480 S   0  0  0  0  0  0  0  0  0  0  0  0
   -1.6880   -2.1570    1.0810 C   0  0  0  0  0  0  0  0  0  0  0  0
   -0.7800   -1.4500    0.2580 C   0  0  0  0  0  0  0  0  0  0  0  0
   -0.8260    0.0830    0.0880 C   0  0  0  0  0  0  0  0  0  0  0  0
   -2.1810    0.6670   -0.8090 S   0  0  0  0  0  0  0  0  0  0  0  0
   -3.8580    0.3020   -0.4100 C   0  0  2  0  0  0  0  0  0  0  0  0
   -4.6920    1.3790   -1.0500 C   0  0  0  0  0  0  0  0  0  0  0  0
   -5.7870    1.7380   -0.2460 N   0  0  0  0  0  0  0  0  0  0  0  0
   -5.0890    1.6430    1.3250 S   0  0  2  0  0  0  0  0  0  0  0  0
   -6.0360    1.4970    2.4360 O   0  0  0  0  0  0  0  0  0  0  0  0
   -4.0620    2.7330    1.5060 O   0  0  0  0  0  0  0  0  0  0  0  0
   -4.1820    0.1220    1.0120 C   0  0  0  0  0  0  0  0  0  0  0  0
  1  2  1  0
  2  3  1  0
  3  4  1  0
  4  5  2  0
  4  6  1  0
  6  7  1  0
  7  8  1  0
  8  9  2  0
  8 10  1  0
 10 11  2  0
 10 14  1  0
 11 12  1  0
 12 13  1  0
 13 14  2  0
 14 15  1  0
 15 16  1  0
 17 16  1  1
 17 18  1  0
 17 23  1  0
 18 19  1  0
 19 20  1  0
 20 21  2  0
 20 22  2  0
 20 23  1  6
M  CHG  1  19   1
M  END
