
     RDKit          3D

 23 23  0  0  0  0  0  0  0  0999 V2000
    6.5430   -0.9620   -1.1620 C   0  0  0  0  0  0  0  0  0  0  0  0
    6.1360    0.4560   -0.7580 C   0  0  2  0  0  0  0  0  0  0  0  0
    7.3300    1.0520   -0.0490 C   0  0  0  0  0  0  0  0  0  0  0  0
    5.0240    0.3340    0.1000 O   0  0  0  0  0  0  0  0  0  0  0  0
    3.7740    0.8730   -0.1560 C   0  0  0  0  0  0  0  0  0  0  0  0
    3.6340    1.5130   -1.2290 O   0  0  0  0  0  0  0  0  0  0  0  0
    2.6380    0.6900    0.8230 C   0  0  0  0  0  0  0  0  0  0  0  0
    1.2020    1.5230    0.1340 S   0  0  0  0  0  0  0  0  0  0  0  0
   -0.2160    1.3000    1.1440 C   0  0  0  0  0  0  0  0  0  0  0  0
   -0.7970    2.6110    1.9600 S   0  0  0  0  0  0  0  0  0  0  0  0
   -0.8190    0.0530    1.3610 N   0  0  0  0  0  0  0  0  0  0  0  0
   -0.4940   -1.1700    0.7530 C   0  0  0  0  0  0  0  0  0  0  0  0
    0.4550   -1.1470   -0.1120 O   0  0  0  0  0  0  0  0  0  0  0  0
   -1.1490   -2.4730    1.0260 C   0  0  0  0  0  0  0  0  0  0  0  0
   -2.2230   -2.3220    1.9110 O   0  0  0  0  0  0  0  0  0  0  0  0
   -3.3350   -1.5380    1.6070 C   0  0  0  0  0  0  0  0  0  0  0  0
   -3.6510   -1.0620    0.4760 N   0  0  0  0  0  0  0  0  0  0  0  0
   -4.7970   -0.3030    0.3610 C   0  0  0  0  0  0  0  0  0  0  0  0
   -5.2330    0.2540   -0.7910 C   0  0  0  0  0  0  0  0  0  0  0  0
   -6.4720    1.0600   -0.8500 C   0  0  0  0  0  0  0  0  0  0  0  0
   -7.4090    0.4670   -1.7610 N   0  0  0  0  0  0  0  0  0  0  0  0
   -5.5260   -0.1190    1.5250 O   0  0  0  0  0  0  0  0  0  0  0  0
   -4.6190   -0.9900    2.7290 S   0  0  0  0  0  0  0  0  0  0  0  0
  2  1  1  1
  2  3  1  0
  2  4  1  0
  4  5  1  0
  5  6  2  0
  5  7  1  0
  7  8  1  0
  8  9  1  0
  9 10  2  0
  9 11  1  0
 11 12  1  0
 12 13  2  0
 12 14  1  0
 14 15  1  0
 15 16  1  0
 16 17  2  0
 16 23  1  0
 17 18  1  0
 18 19  2  3
 18 22  1  0
 19 20  1  0
 20 21  1  0
 22 23  1  0
M  CHG  1  21   1
M  END
