
     RDKit          3D

 22 22  0  0  0  0  0  0  0  0999 V2000
    5.6600    0.7310   -0.4750 O   0  0  0  0  0  0  0  0  0  0  0  0
    4.4210    0.9060   -0.2010 C   0  0  0  0  0  0  0  0  0  0  0  0
    3.8620    2.1050   -0.6070 O   0  0  0  0  0  0  0  0  0  0  0  0
    3.7190   -0.1630    0.5070 C   0  0  0  0  0  0  0  0  0  0  0  0
    2.3210    0.2020    0.9220 C   0  0  1  0  0  0  0  0  0  0  0  0
    2.3740    1.3790    1.8560 C   0  0  0  0  0  0  0  0  0  0  0  0
    3.2170    1.0430    2.9300 O   0  0  0  0  0  0  0  0  0  0  0  0
    1.5090    0.4450   -0.1860 O   0  0  0  0  0  0  0  0  0  0  0  0
    0.4660   -0.4610   -0.2880 C   0  0  1  0  0  0  0  0  0  0  0  0
   -0.7740    0.1690   -0.3520 O   0  0  0  0  0  0  0  0  0  0  0  0
   -1.6760   -0.7320   -0.8150 C   0  0  2  0  0  0  0  0  0  0  0  0
   -2.5210   -0.1290   -1.7980 O   0  0  0  0  0  0  0  0  0  0  0  0
   -2.6100   -1.3570    0.1590 C   0  0  1  0  0  0  0  0  0  0  0  0
   -2.0510   -2.0400    1.2150 O   0  0  0  0  0  0  0  0  0  0  0  0
   -3.8850   -0.6570    0.4410 C   0  0  0  0  0  0  0  0  0  0  0  0
   -3.9830    0.2170    1.4580 O   0  0  0  0  0  0  0  0  0  0  0  0
   -3.1860    1.3050    1.5200 C   0  0  0  0  0  0  0  0  0  0  0  0
   -3.4970    2.0880    2.6650 O   0  0  0  0  0  0  0  0  0  0  0  0
   -0.9070   -1.7850   -1.6040 C   0  0  0  0  0  0  0  0  0  0  0  0
    0.4720   -1.1960   -1.6080 C   0  0  1  0  0  0  0  0  0  0  0  0
    0.6850   -0.1550   -2.6960 C   0  0  0  0  0  0  0  0  0  0  0  0
   -0.2830    0.8120   -2.7380 O   0  0  0  0  0  0  0  0  0  0  0  0
  1  2  2  0
  2  3  1  0
  2  4  1  0
  5  4  1  6
  5  6  1  0
  5  8  1  0
  6  7  1  0
  9  8  1  6
  9 10  1  0
  9 20  1  0
 10 11  1  0
 11 12  1  6
 11 13  1  0
 11 19  1  0
 13 14  1  1
 13 15  1  0
 15 16  1  0
 16 17  1  0
 17 18  1  0
 19 20  1  0
 20 21  1  6
 21 22  1  0
M  END
