
     RDKit          3D

 23 24  0  0  0  0  0  0  0  0999 V2000
   -3.3900   -2.9140   -0.5980 C   0  0  0  0  0  0  0  0  0  0  0  0
   -1.9330   -2.7220   -0.2090 C   0  0  0  0  0  0  0  0  0  0  0  0
   -1.7810   -1.9950    1.0210 N   0  0  0  0  0  0  0  0  0  0  0  0
   -0.8550   -0.9080    0.9570 C   0  0  1  0  0  0  0  0  0  0  0  0
    0.3340   -1.2050    0.0700 C   0  0  0  0  0  0  0  0  0  0  0  0
    1.4890   -0.4240    0.4570 N   0  0  0  0  0  0  0  0  0  0  0  0
    2.5830   -0.4990   -0.4540 C   0  0  0  0  0  0  0  0  0  0  0  0
    3.8690   -0.5670    0.3250 C   0  0  0  0  0  0  0  0  0  0  0  0
    5.0950   -0.6610   -0.5170 C   0  0  0  0  0  0  0  0  0  0  0  0
    5.3130    0.3860   -1.3760 O   0  0  0  0  0  0  0  0  0  0  0  0
    5.4700    1.6020   -0.7350 C   0  0  0  0  0  0  0  0  0  0  0  0
    1.0990    1.2260    0.7320 S   0  0  2  0  0  0  0  0  0  0  0  0
    1.8580    2.1630   -0.1600 O   0  0  0  0  0  0  0  0  0  0  0  0
    1.3700    1.5190    2.1780 O   0  0  0  0  0  0  0  0  0  0  0  0
   -0.6270    1.4240    0.3690 C   0  0  0  0  0  0  0  0  0  0  0  0
   -1.6050    2.7410   -0.1610 S   0  0  0  0  0  0  0  0  0  0  0  0
   -3.1580    1.8620   -0.2020 C   0  0  0  0  0  0  0  0  0  0  0  0
   -4.6880    2.5550   -0.6620 S   0  0  2  0  0  0  0  0  0  0  0  0
   -5.0070    3.8610    0.4440 N   0  0  0  0  0  0  0  0  0  0  0  0
   -5.7270    1.5240   -0.4370 O   0  0  0  0  0  0  0  0  0  0  0  0
   -4.6890    3.1150   -2.0370 O   0  0  0  0  0  0  0  0  0  0  0  0
   -2.7960    0.6390    0.1930 C   0  0  0  0  0  0  0  0  0  0  0  0
   -1.5210    0.3730    0.4930 C   0  0  0  0  0  0  0  0  0  0  0  0
  1  2  1  0
  2  3  1  0
  4  3  1  6
  4  5  1  0
  4 23  1  0
  5  6  1  0
  6  7  1  0
 12  6  1  6
  7  8  1  0
  8  9  1  0
  9 10  1  0
 10 11  1  0
 12 13  2  0
 12 14  2  0
 12 15  1  0
 15 16  1  0
 15 23  2  0
 16 17  1  0
 17 18  1  0
 17 22  2  0
 18 19  1  1
 18 20  2  0
 18 21  2  0
 22 23  1  0
M  CHG  1   3   1
M  END
