
     RDKit          3D

 23 24  0  0  0  0  0  0  0  0999 V2000
   -1.6580    2.1520   -1.1210 N   0  0  0  0  0  0  0  0  0  0  0  0
   -1.2360    0.9150   -0.5260 C   0  0  0  0  0  0  0  0  0  0  0  0
   -2.1140    0.0930    0.0210 C   0  0  0  0  0  0  0  0  0  0  0  0
   -3.5230    0.4600    0.0140 C   0  0  0  0  0  0  0  0  0  0  0  0
   -4.4770   -0.2610    0.5190 C   0  0  0  0  0  0  0  0  0  0  0  0
   -4.2090   -1.8370    1.3110 S   0  0  2  0  0  0  0  0  0  0  0  0
   -4.6680   -2.9500    0.4310 O   0  0  0  0  0  0  0  0  0  0  0  0
   -5.1040   -1.8140    2.5420 O   0  0  0  0  0  0  0  0  0  0  0  0
   -6.0690    0.4230    0.3780 S   0  0  2  0  0  0  0  0  0  0  0  0
   -6.4540    1.2110    1.5950 O   0  0  0  0  0  0  0  0  0  0  0  0
   -7.0810   -0.6400    0.0650 O   0  0  0  0  0  0  0  0  0  0  0  0
   -5.8890    1.5610   -0.9690 C   0  0  0  0  0  0  0  0  0  0  0  0
   -4.1160    1.9860   -0.7230 S   0  0  0  0  0  0  0  0  0  0  0  0
    0.1480    0.5910   -0.5380 N   0  0  0  0  0  0  0  0  0  0  0  0
    0.6130   -0.3170   -1.5790 C   0  0  0  0  0  0  0  0  0  0  0  0
    1.5850   -1.3090   -1.0120 C   0  0  0  0  0  0  0  0  0  0  0  0
    2.6520   -0.5670   -0.3430 N   0  0  2  0  0  0  0  0  0  0  0  0
    3.7280   -1.4420    0.0560 C   0  0  0  0  0  0  0  0  0  0  0  0
    5.0950   -0.8540   -0.2960 C   0  0  0  0  0  0  0  0  0  0  0  0
    5.2900    0.4800    0.4080 C   0  0  0  0  0  0  0  0  0  0  0  0
    6.5490    0.9550    0.0440 O   0  0  0  0  0  0  0  0  0  0  0  0
    2.0350    0.0190    0.8490 C   0  0  0  0  0  0  0  0  0  0  0  0
    1.0850    1.1230    0.4270 C   0  0  0  0  0  0  0  0  0  0  0  0
  1  2  1  0
  2  3  2  3
  2 14  1  0
  3  4  1  0
  4  5  2  0
  4 13  1  0
  6  5  1  6
  5  9  1  0
  6  7  2  0
  6  8  2  0
  9 10  2  0
  9 11  2  0
  9 12  1  6
 12 13  1  0
 14 15  1  0
 14 23  1  0
 15 16  1  0
 16 17  1  0
 17 18  1  1
 17 22  1  0
 18 19  1  0
 19 20  1  0
 20 21  1  0
 22 23  1  0
M  CHG  1  17   1
M  END
