
     RDKit          3D

 23 24  0  0  0  0  0  0  0  0999 V2000
   -4.0130   -0.4570    1.5990 C   0  0  0  0  0  0  0  0  0  0  0  0
   -4.6280   -0.1250    0.2430 C   0  0  0  0  0  0  0  0  0  0  0  0
   -5.9300   -0.2130    0.0520 C   0  0  0  0  0  0  0  0  0  0  0  0
   -6.1750    0.2510   -1.6140 S   0  0  2  0  0  0  0  0  0  0  0  0
   -7.0140    1.4910   -1.7350 O   0  0  0  0  0  0  0  0  0  0  0  0
   -6.7240   -0.8840   -2.4280 O   0  0  0  0  0  0  0  0  0  0  0  0
   -4.4910    0.5470   -1.9830 C   0  0  0  0  0  0  0  0  0  0  0  0
   -3.8470    0.2890   -0.8650 C   0  0  0  0  0  0  0  0  0  0  0  0
   -2.4000    0.4390   -0.8290 N   0  0  0  0  0  0  0  0  0  0  0  0
   -1.6710   -0.2120   -1.6410 C   0  0  0  0  0  0  0  0  0  0  0  0
   -0.2540   -0.1060   -1.6520 N   0  0  0  0  0  0  0  0  0  0  0  0
    0.4160    0.2770   -0.4900 N   0  0  0  0  0  0  0  0  0  0  0  0
    0.4320   -0.5810    0.6500 C   0  0  0  0  0  0  0  0  0  0  0  0
   -0.1800   -1.6780    0.5760 O   0  0  0  0  0  0  0  0  0  0  0  0
    1.1450   -0.1950    1.8900 C   0  0  0  0  0  0  0  0  0  0  0  0
    2.2120    1.2190    1.6860 S   0  0  0  0  0  0  0  0  0  0  0  0
    3.7030    0.9430    0.7550 C   0  0  1  0  0  0  0  0  0  0  0  0
    4.6310    0.0570    1.5730 C   0  0  0  0  0  0  0  0  0  0  0  0
    5.9080   -0.0490    0.7660 C   0  0  0  0  0  0  0  0  0  0  0  0
    5.2480   -0.1830   -0.9030 S   0  0  2  0  0  0  0  0  0  0  0  0
    5.4020   -1.5790   -1.4330 O   0  0  0  0  0  0  0  0  0  0  0  0
    5.8820    0.8480   -1.7580 O   0  0  0  0  0  0  0  0  0  0  0  0
    3.5180    0.1970   -0.5530 C   0  0  0  0  0  0  0  0  0  0  0  0
  1  2  1  0
  2  3  2  0
  2  8  1  0
  4  3  1  1
  4  5  2  0
  4  6  2  0
  4  7  1  0
  7  8  2  0
  8  9  1  0
  9 10  2  3
 10 11  1  0
 11 12  1  0
 12 13  1  0
 13 14  2  0
 13 15  1  0
 15 16  1  0
 17 16  1  1
 17 18  1  0
 17 23  1  0
 18 19  1  0
 20 19  1  1
 20 21  2  0
 20 22  2  0
 20 23  1  0
M  CHG  1   9   1
M  END
