
     RDKit          3D

 23 24  0  0  0  0  0  0  0  0999 V2000
    7.3210   -0.3840   -0.5890 C   0  0  0  0  0  0  0  0  0  0  0  0
    6.8630    1.0220   -0.2900 C   0  0  0  0  0  0  0  0  0  0  0  0
    5.6770    0.9680    0.5690 N   0  0  0  0  0  0  0  0  0  0  0  0
    4.4460    1.0710   -0.1650 C   0  0  0  0  0  0  0  0  0  0  0  0
    3.4500    0.0610    0.2290 C   0  0  0  0  0  0  0  0  0  0  0  0
    3.6940   -1.1100    0.8850 C   0  0  0  0  0  0  0  0  0  0  0  0
    2.4410   -1.7070    1.0250 C   0  0  0  0  0  0  0  0  0  0  0  0
    1.5090   -0.8800    0.4530 C   0  0  0  0  0  0  0  0  0  0  0  0
    0.0560   -1.1220    0.3770 C   0  0  0  0  0  0  0  0  0  0  0  0
   -0.9640   -0.6620    0.0030 N   0  0  0  0  0  0  0  0  0  0  0  0
   -2.1710   -1.0750    0.0580 N   0  0  0  0  0  0  0  0  0  0  0  0
   -3.3710   -0.3930   -0.4420 C   0  0  0  0  0  0  0  0  0  0  0  0
   -3.9290    0.4760    0.5480 N   0  0  0  0  0  0  0  0  0  0  0  0
   -5.1120    1.1590    0.1360 C   0  0  0  0  0  0  0  0  0  0  0  0
   -6.2840    0.2300   -0.0310 C   0  0  0  0  0  0  0  0  0  0  0  0
   -7.7540    1.0850   -0.5380 S   0  0  2  0  0  0  0  0  0  0  0  0
   -8.1490    2.1070    0.5080 O   0  0  0  0  0  0  0  0  0  0  0  0
   -8.9000    0.1010   -0.6370 O   0  0  0  0  0  0  0  0  0  0  0  0
   -7.5870    1.8710   -1.9910 O   0  0  0  0  0  0  0  0  0  0  0  0
   -2.2530   -2.3400    0.7060 C   0  0  0  0  0  0  0  0  0  0  0  0
   -3.4000   -2.9920    0.8930 O   0  0  0  0  0  0  0  0  0  0  0  0
   -0.6240   -2.7430    1.1310 S   0  0  0  0  0  0  0  0  0  0  0  0
    2.1660    0.1380    0.0050 O   0  0  0  0  0  0  0  0  0  0  0  0
  1  2  1  0
  2  3  1  0
  3  4  1  0
  4  5  1  0
  5  6  2  0
  5 23  1  0
  6  7  1  0
  7  8  2  0
  8  9  1  0
  8 23  1  0
  9 10  2  0
  9 22  1  0
 10 11  1  0
 11 12  1  0
 11 20  1  0
 12 13  1  0
 13 14  1  0
 14 15  1  0
 15 16  1  0
 16 17  2  0
 16 18  2  0
 16 19  1  6
 20 21  2  0
 20 22  1  0
M  CHG  1   3   1
M  END
