
     RDKit          3D

 23 23  0  0  0  0  0  0  0  0999 V2000
   -3.2740   -3.3280   -0.3430 C   0  0  0  0  0  0  0  0  0  0  0  0
   -2.2070   -2.4010   -0.8680 C   0  0  0  0  0  0  0  0  0  0  0  0
   -2.1240   -1.1680    0.0310 C   0  0  1  0  0  0  0  0  0  0  0  0
   -1.1100   -0.2620   -0.4480 N   0  0  0  0  0  0  0  0  0  0  0  0
    0.1110   -0.5640    0.2100 C   0  0  0  0  0  0  0  0  0  0  0  0
    0.1450   -1.6170    1.1570 N   0  0  0  0  0  0  0  0  0  0  0  0
    1.1990    0.1240   -0.0560 C   0  0  0  0  0  0  0  0  0  0  0  0
    2.4360   -0.1930    0.6190 C   0  0  0  0  0  0  0  0  0  0  0  0
    3.5550    0.4730    0.3830 C   0  0  0  0  0  0  0  0  0  0  0  0
    3.6930    1.8410   -0.7890 S   0  0  0  0  0  0  0  0  0  0  0  0
    5.4280    2.1320   -0.4900 C   0  0  0  0  0  0  0  0  0  0  0  0
    6.3120    3.2730   -1.2160 S   0  0  0  0  0  0  0  0  0  0  0  0
    5.8440    1.2090    0.4600 N   0  0  0  0  0  0  0  0  0  0  0  0
    7.2450    1.1830    0.9300 C   0  0  0  0  0  0  0  0  0  0  0  0
    4.8700    0.3290    0.9300 C   0  0  0  0  0  0  0  0  0  0  0  0
    5.0890   -0.5830    1.8080 O   0  0  0  0  0  0  0  0  0  0  0  0
   -3.4430   -0.4950    0.0610 C   0  0  0  0  0  0  0  0  0  0  0  0
   -4.4340   -1.1520    0.4570 O   0  0  0  0  0  0  0  0  0  0  0  0
   -3.5500    0.8160   -0.3410 O   0  0  0  0  0  0  0  0  0  0  0  0
   -4.8160    1.4640   -0.3130 C   0  0  0  0  0  0  0  0  0  0  0  0
   -4.6300    3.1220   -0.8810 S   0  0  1  0  0  0  0  0  0  0  0  0
   -5.4460    4.0580   -0.0150 O   0  0  0  0  0  0  0  0  0  0  0  0
   -3.2070    3.5880   -0.8390 O   0  0  0  0  0  0  0  0  0  0  0  0
  1  2  1  0
  3  2  1  6
  3  4  1  0
  3 17  1  0
  4  5  1  0
  5  6  1  0
  5  7  2  3
  7  8  1  0
  8  9  2  3
  9 10  1  0
  9 15  1  0
 10 11  1  0
 11 12  2  0
 11 13  1  0
 13 14  1  0
 13 15  1  0
 15 16  2  0
 17 18  2  0
 17 19  1  0
 19 20  1  0
 21 20  1  1
 21 22  2  0
 21 23  2  0
M  CHG  1   4   1
M  END
