
     RDKit          3D

 18 19  0  0  0  0  0  0  0  0999 V2000
   -4.1070   -1.1170    0.0430 C   0  0  0  0  0  0  0  0  0  0  0  0
   -2.9670   -0.6200    0.8330 C   0  0  0  0  0  0  0  0  0  0  0  0
   -2.7820   -1.2110    2.0880 O   0  0  0  0  0  0  0  0  0  0  0  0
   -2.1200    0.3450    0.4180 C   0  0  0  0  0  0  0  0  0  0  0  0
   -2.3580    0.9200   -0.8840 C   0  0  0  0  0  0  0  0  0  0  0  0
   -3.3050    0.5660   -1.6390 O   0  0  0  0  0  0  0  0  0  0  0  0
   -1.5240    1.9230   -1.3770 O   0  0  0  0  0  0  0  0  0  0  0  0
   -1.0020    0.7920    1.2560 C   0  0  2  0  0  0  0  0  0  0  0  0
   -1.1960    2.0950    1.7570 O   0  0  0  0  0  0  0  0  0  0  0  0
    0.3470    0.6130    0.6880 C   0  0  0  0  0  0  0  0  0  0  0  0
    1.0230    1.6460    0.0860 C   0  0  0  0  0  0  0  0  0  0  0  0
    2.2990    1.4520   -0.4650 C   0  0  0  0  0  0  0  0  0  0  0  0
    2.8920    0.2350   -0.4140 C   0  0  0  0  0  0  0  0  0  0  0  0
    2.2350   -0.8160    0.1830 C   0  0  0  0  0  0  0  0  0  0  0  0
    0.9970   -0.6190    0.7160 C   0  0  0  0  0  0  0  0  0  0  0  0
    3.1080   -1.9910    0.0900 C   0  0  0  0  0  0  0  0  0  0  0  0
    4.2450   -1.6170   -0.5690 O   0  0  0  0  0  0  0  0  0  0  0  0
    4.1860   -0.2900   -0.8850 C   0  0  0  0  0  0  0  0  0  0  0  0
  1  2  1  0
  2  3  1  0
  2  4  2  3
  4  5  1  0
  4  8  1  0
  5  6  2  0
  5  7  1  0
  8  9  1  6
  8 10  1  0
 10 11  2  0
 10 15  1  0
 11 12  1  0
 12 13  2  0
 13 14  1  0
 13 18  1  0
 14 15  2  0
 14 16  1  0
 16 17  1  0
 17 18  1  0
M  END
