
     RDKit          3D

 17 18  0  0  0  0  0  0  0  0999 V2000
   -2.8540   -2.7280    0.7020 O   0  0  0  0  0  0  0  0  0  0  0  0
   -3.5180   -1.8670   -0.1670 C   0  0  0  0  0  0  0  0  0  0  0  0
   -2.4990   -0.9020   -0.7510 C   0  0  0  0  0  0  0  0  0  0  0  0
   -1.9250   -0.1960    0.3240 O   0  0  0  0  0  0  0  0  0  0  0  0
   -0.9490    0.7710    0.1980 C   0  0  0  0  0  0  0  0  0  0  0  0
   -1.3490    2.0810    0.0050 C   0  0  0  0  0  0  0  0  0  0  0  0
   -2.6780    2.4280   -0.0610 O   0  0  0  0  0  0  0  0  0  0  0  0
   -0.3880    3.0870   -0.1280 C   0  0  0  0  0  0  0  0  0  0  0  0
    0.9560    2.7500   -0.0630 C   0  0  0  0  0  0  0  0  0  0  0  0
    1.3540    1.4460    0.1290 C   0  0  0  0  0  0  0  0  0  0  0  0
    0.3700    0.4860    0.2550 C   0  0  0  0  0  0  0  0  0  0  0  0
    0.6140   -0.9640    0.4860 C   0  0  2  0  0  0  0  0  0  0  0  0
    1.1490   -1.0290    1.7990 O   0  0  0  0  0  0  0  0  0  0  0  0
    1.6840   -1.3780   -0.5020 C   0  0  0  0  0  0  0  0  0  0  0  0
    3.0250   -1.1070    0.1610 C   0  0  0  0  0  0  0  0  0  0  0  0
    3.5150    0.2350   -0.2940 C   0  0  0  0  0  0  0  0  0  0  0  0
    2.7240    1.2880    0.1680 O   0  0  0  0  0  0  0  0  0  0  0  0
  1  2  1  0
  2  3  1  0
  3  4  1  0
  4  5  1  0
  5  6  2  0
  5 11  1  0
  6  7  1  0
  6  8  1  0
  8  9  2  0
  9 10  1  0
 10 11  2  0
 10 17  1  0
 11 12  1  0
 12 13  1  1
 12 14  1  0
 14 15  1  0
 15 16  1  0
 16 17  1  0
M  END
