
     RDKit          3D

 18 19  0  0  0  0  0  0  0  0999 V2000
   -3.3140    2.4020    0.6970 C   0  0  0  0  0  0  0  0  0  0  0  0
   -3.0150    0.9540    0.4420 C   0  0  0  0  0  0  0  0  0  0  0  0
   -4.0740    0.1040    0.3740 C   0  0  0  0  0  0  0  0  0  0  0  0
   -3.8670   -1.2270    0.1440 C   0  0  0  0  0  0  0  0  0  0  0  0
   -4.9160   -2.1210    0.0690 O   0  0  0  0  0  0  0  0  0  0  0  0
   -2.5680   -1.7330   -0.0230 C   0  0  0  0  0  0  0  0  0  0  0  0
   -2.4800   -3.0630   -0.2450 O   0  0  0  0  0  0  0  0  0  0  0  0
   -1.5140   -0.8800    0.0460 C   0  0  0  0  0  0  0  0  0  0  0  0
   -0.1550   -1.3510   -0.1210 C   0  0  0  0  0  0  0  0  0  0  0  0
    0.1350   -2.5290   -0.3310 O   0  0  0  0  0  0  0  0  0  0  0  0
    0.9450   -0.4670   -0.0500 O   0  0  0  0  0  0  0  0  0  0  0  0
    2.2690   -0.9480   -0.2150 C   0  0  0  0  0  0  0  0  0  0  0  0
    3.2770    0.1070   -0.1100 C   0  0  0  0  0  0  0  0  0  0  0  0
    4.2480    0.1190    0.7960 C   0  0  0  0  0  0  0  0  0  0  0  0
    5.0730    1.3400    0.5960 C   0  0  0  0  0  0  0  0  0  0  0  0
    4.7970    1.6890   -0.7010 O   0  0  0  0  0  0  0  0  0  0  0  0
    3.4630    1.3420   -0.9270 C   0  0  0  0  0  0  0  0  0  0  0  0
   -1.7530    0.4780    0.2820 C   0  0  0  0  0  0  0  0  0  0  0  0
  1  2  1  0
  2  3  2  0
  2 18  1  0
  3  4  1  0
  4  5  1  0
  4  6  2  0
  6  7  1  0
  6  8  1  0
  8  9  1  0
  8 18  2  0
  9 10  2  0
  9 11  1  0
 11 12  1  0
 12 13  1  0
 13 14  2  0
 13 17  1  0
 14 15  1  0
 15 16  1  0
 16 17  1  0
M  END
