
     RDKit          3D

 18 19  0  0  0  0  0  0  0  0999 V2000
   -3.3500    1.9120   -0.9500 C   0  0  0  0  0  0  0  0  0  0  0  0
   -2.3750    1.3120   -0.3040 C   0  0  0  0  0  0  0  0  0  0  0  0
   -1.2770    2.0830    0.0400 C   0  0  0  0  0  0  0  0  0  0  0  0
   -0.0170    1.6800    0.4950 C   0  0  0  0  0  0  0  0  0  0  0  0
    0.8330    2.6680    0.9730 O   0  0  0  0  0  0  0  0  0  0  0  0
    0.5110    0.4000    0.5330 C   0  0  0  0  0  0  0  0  0  0  0  0
    1.8890    0.2650    0.6460 O   0  0  0  0  0  0  0  0  0  0  0  0
    2.6160    0.2100   -0.5780 C   0  0  0  0  0  0  0  0  0  0  0  0
    4.1020    0.0640   -0.3320 C   0  0  0  0  0  0  0  0  0  0  0  0
    4.4170   -1.0810    0.3690 O   0  0  0  0  0  0  0  0  0  0  0  0
   -0.1360   -0.8160    0.4760 C   0  0  0  0  0  0  0  0  0  0  0  0
    0.3730   -2.0700    0.6400 C   0  0  0  0  0  0  0  0  0  0  0  0
    1.5990   -2.2650    0.8830 O   0  0  0  0  0  0  0  0  0  0  0  0
   -0.5880   -2.9360    0.5030 O   0  0  0  0  0  0  0  0  0  0  0  0
   -1.7530   -2.3660    0.2520 C   0  0  0  0  0  0  0  0  0  0  0  0
   -2.9140   -2.9680    0.0630 C   0  0  0  0  0  0  0  0  0  0  0  0
   -1.5570   -1.0050    0.2160 C   0  0  0  0  0  0  0  0  0  0  0  0
   -2.5230   -0.0400   -0.0190 C   0  0  0  0  0  0  0  0  0  0  0  0
  1  2  2  0
  2  3  1  0
  2 18  1  0
  3  4  2  0
  4  5  1  0
  4  6  1  0
  6  7  1  0
  6 11  2  0
  7  8  1  0
  8  9  1  0
  9 10  1  0
 11 12  1  0
 11 17  1  0
 12 13  2  0
 12 14  1  0
 14 15  1  0
 15 16  2  0
 15 17  1  0
 17 18  2  0
M  END
