
     RDKit          3D

  6  6  0  0  0  0  0  0  0  0999 V2000
    1.9240    0.6220    0.2800 C   0  0  0  0  0  0  0  0  0  0  0  0
    0.6640    0.2840    0.0600 C   0  0  0  0  0  0  0  0  0  0  0  0
   -0.5410    1.1120    0.1330 C   0  0  0  0  0  0  0  0  0  0  0  0
   -1.6390    0.3690    0.0510 C   0  0  0  0  0  0  0  0  0  0  0  0
   -1.2710   -0.9990   -0.0820 N   0  0  0  0  0  0  0  0  0  0  0  0
    0.1450   -1.0680   -0.3300 C   0  0  0  0  0  0  0  0  0  0  0  0
  1  2  2  0
  2  3  1  0
  2  6  1  0
  3  4  2  0
  4  5  1  0
  5  6  1  0
M  END
