
     RDKit          3D

  6  6  0  0  0  0  0  0  0  0999 V2000
    1.9940    0.4610   -0.1920 C   0  0  0  0  0  0  0  0  0  0  0  0
    0.6760    0.2360   -0.0570 C   0  0  0  0  0  0  0  0  0  0  0  0
    0.0140   -1.0730   -0.0270 C   0  0  0  0  0  0  0  0  0  0  0  0
   -1.4120   -0.7750    0.1360 C   0  0  0  0  0  0  0  0  0  0  0  0
   -1.5860    0.5240    0.1960 C   0  0  0  0  0  0  0  0  0  0  0  0
   -0.3470    1.2000    0.0840 N   0  0  0  0  0  0  0  0  0  0  0  0
  1  2  2  0
  2  3  1  0
  2  6  1  0
  3  4  1  0
  4  5  2  0
  5  6  1  0
M  END
