
     RDKit          3D

  6  6  0  0  0  0  0  0  0  0999 V2000
    2.2170   -0.0040   -0.0130 C   0  0  0  0  0  0  0  0  0  0  0  0
    0.8970    0.0360   -0.0280 C   0  0  0  0  0  0  0  0  0  0  0  0
   -0.0330   -1.1350    0.1350 C   0  0  0  0  0  0  0  0  0  0  0  0
   -1.3120   -0.4230    0.5310 C   0  0  0  0  0  0  0  0  0  0  0  0
   -1.2380    0.7570   -0.4470 C   0  0  0  0  0  0  0  0  0  0  0  0
    0.1180    1.2130   -0.2040 N   0  0  0  0  0  0  0  0  0  0  0  0
  1  2  2  0
  2  3  1  0
  2  6  1  0
  3  4  1  0
  4  5  1  0
  5  6  1  0
M  END
