
     RDKit          3D

  6  6  0  0  0  0  0  0  0  0999 V2000
   -1.7290   -0.4340    0.0490 C   0  0  0  0  0  0  0  0  0  0  0  0
   -0.4840   -0.0030    0.0210 C   0  0  0  0  0  0  0  0  0  0  0  0
    0.7090   -0.8590   -0.0820 C   0  0  0  0  0  0  0  0  0  0  0  0
    1.7610   -0.0640   -0.0800 C   0  0  0  0  0  0  0  0  0  0  0  0
    1.3130    1.2970    0.0200 N   0  0  0  0  0  0  0  0  0  0  0  0
    0.0330    1.3490    0.0780 C   0  0  0  0  0  0  0  0  0  0  0  0
  1  2  2  0
  2  3  1  0
  2  6  1  0
  3  4  2  0
  4  5  1  0
  5  6  2  0
M  END
