
     RDKit          3D

  6  6  0  0  0  0  0  0  0  0999 V2000
    0.9550   -1.0460    0.0700 C   0  0  0  0  0  0  0  0  0  0  0  0
   -0.3320   -1.2800    0.0300 C   0  0  0  0  0  0  0  0  0  0  0  0
   -1.3140   -0.1950   -0.0330 C   0  0  0  0  0  0  0  0  0  0  0  0
   -0.7140    1.0970   -0.0440 N   0  0  0  0  0  0  0  0  0  0  0  0
    0.6630    1.2970    0.0000 C   0  0  0  0  0  0  0  0  0  0  0  0
    1.5240    0.2970    0.0570 C   0  0  0  0  0  0  0  0  0  0  0  0
  1  2  2  0
  1  6  1  0
  2  3  1  0
  3  4  1  0
  4  5  1  0
  5  6  2  0
M  END
