
     RDKit          3D

  8  7  0  0  0  0  0  0  0  0999 V2000
   -1.6360    1.2000    0.2600 O   0  0  0  0  0  0  0  0  0  0  0  0
   -2.2210    0.1210   -0.4060 C   0  0  0  0  0  0  0  0  0  0  0  0
   -1.5620   -1.0340    0.0560 O   0  0  0  0  0  0  0  0  0  0  0  0
   -0.2160   -1.0040   -0.2050 C   0  0  0  0  0  0  0  0  0  0  0  0
    0.4310    0.0810    0.3970 O   0  0  0  0  0  0  0  0  0  0  0  0
    1.7790   -0.0050    0.0560 C   0  0  2  0  0  0  0  0  0  0  0  0
    2.4750   -0.2040    1.2700 O   0  0  0  0  0  0  0  0  0  0  0  0
    2.2310    1.1780   -0.5500 O   0  0  0  0  0  0  0  0  0  0  0  0
  1  2  1  0
  2  3  1  0
  3  4  1  0
  4  5  1  0
  5  6  1  0
  6  7  1  1
  6  8  1  0
M  END
