
     RDKit          3D

  7  6  0  0  0  0  0  0  0  0999 V2000
   -1.8600    0.7710    0.5670 O   0  0  0  0  0  0  0  0  0  0  0  0
   -1.5950   -0.1910   -0.4040 C   0  0  0  0  0  0  0  0  0  0  0  0
   -0.3420   -0.9700   -0.1110 C   0  0  0  0  0  0  0  0  0  0  0  0
    0.8840   -0.0930   -0.0390 C   0  0  1  0  0  0  0  0  0  0  0  0
    1.0370    0.5500   -1.2780 O   0  0  0  0  0  0  0  0  0  0  0  0
    0.8440    0.7960    1.0080 O   0  0  0  0  0  0  0  0  0  0  0  0
    1.8220    0.5680    1.8250 O   0  0  0  0  0  0  0  0  0  0  0  0
  1  2  1  0
  2  3  1  0
  3  4  1  0
  4  5  1  6
  4  6  1  0
  6  7  1  0
M  END
