
     RDKit          3D

  8  7  0  0  0  0  0  0  0  0999 V2000
    3.5720   -0.3770   -0.1250 O   0  0  0  0  0  0  0  0  0  0  0  0
    2.3910   -0.4150   -0.7020 O   0  0  0  0  0  0  0  0  0  0  0  0
    1.4040    0.2120    0.0630 C   0  0  0  0  0  0  0  0  0  0  0  0
    0.2300   -0.7530    0.1720 C   0  0  0  0  0  0  0  0  0  0  0  0
   -0.7930   -0.2340    0.9260 O   0  0  0  0  0  0  0  0  0  0  0  0
   -1.9140    0.1440    0.2230 C   0  0  2  0  0  0  0  0  0  0  0  0
   -2.5900   -0.9130   -0.3740 O   0  0  0  0  0  0  0  0  0  0  0  0
   -1.6840    1.1780   -0.6850 O   0  0  0  0  0  0  0  0  0  0  0  0
  1  2  1  0
  2  3  1  0
  3  4  1  0
  4  5  1  0
  5  6  1  0
  6  7  1  6
  6  8  1  0
M  END
