
     RDKit          3D

  8  7  0  0  0  0  0  0  0  0999 V2000
   -1.4680    0.3630    1.5160 O   0  0  0  0  0  0  0  0  0  0  0  0
   -1.0930    0.3800    0.3290 C   0  0  0  0  0  0  0  0  0  0  0  0
   -1.5280    1.3500   -0.5450 O   0  0  0  0  0  0  0  0  0  0  0  0
   -0.1630   -0.6630   -0.1450 C   0  0  2  0  0  0  0  0  0  0  0  0
    0.1580   -1.5520    0.8910 O   0  0  0  0  0  0  0  0  0  0  0  0
    1.0970    0.0490   -0.5600 C   0  0  0  0  0  0  0  0  0  0  0  0
    0.9880    0.8920   -1.4900 O   0  0  0  0  0  0  0  0  0  0  0  0
    2.3170   -0.2000    0.0370 O   0  0  0  0  0  0  0  0  0  0  0  0
  1  2  2  0
  2  3  1  0
  2  4  1  0
  4  5  1  1
  4  6  1  0
  6  7  2  0
  6  8  1  0
M  END
