
     RDKit          3D

  8  7  0  0  0  0  0  0  0  0999 V2000
   -1.9380   -0.6360   -0.5100 O   0  0  0  0  0  0  0  0  0  0  0  0
   -0.9400    0.0420   -0.1580 C   0  0  0  0  0  0  0  0  0  0  0  0
   -0.9860    1.4060   -0.4140 O   0  0  0  0  0  0  0  0  0  0  0  0
   -2.0290    2.0060   -1.0080 O   0  0  0  0  0  0  0  0  0  0  0  0
    0.2250   -0.5850    0.4970 C   0  0  1  0  0  0  0  0  0  0  0  0
   -0.0230   -1.9530    0.6160 O   0  0  0  0  0  0  0  0  0  0  0  0
    1.4930   -0.4350   -0.3080 C   0  0  0  0  0  0  0  0  0  0  0  0
    1.8720    0.8650   -0.5130 O   0  0  0  0  0  0  0  0  0  0  0  0
  1  2  2  0
  2  3  1  0
  2  5  1  0
  3  4  1  0
  5  6  1  6
  5  7  1  0
  7  8  1  0
M  END
