
     RDKit          3D

  6  5  0  0  0  0  0  0  0  0999 V2000
   -0.0540    1.2720    0.5740 C   0  0  0  0  0  0  0  0  0  0  0  0
   -0.1050   -0.1220    0.1480 N   0  0  0  0  0  0  0  0  0  0  0  0
   -1.2580   -0.5110   -0.6550 C   0  0  0  0  0  0  0  0  0  0  0  0
    0.8710   -1.0720    0.4640 C   0  0  0  0  0  0  0  0  0  0  0  0
    2.1070   -1.0230    0.0850 N   0  0  0  0  0  0  0  0  0  0  0  0
    2.7620    0.4010   -0.9860 Br  0  0  0  0  0  0  0  0  0  0  0  0
  1  2  1  0
  2  3  1  0
  2  4  1  0
  4  5  2  3
  5  6  1  0
M  END
