
     RDKit          3D

 23 24  0  0  0  0  0  0  0  0999 V2000
   -0.2390    1.6700   -3.0400 C   0  0  0  0  0  0  0  0  0  0  0  0
    0.3610    1.0000   -1.8780 C   0  0  0  0  0  0  0  0  0  0  0  0
    1.6810    0.7630   -2.0130 C   0  0  0  0  0  0  0  0  0  0  0  0
    2.4910    0.1110   -0.9910 C   0  0  0  0  0  0  0  0  0  0  0  0
    3.7770   -0.0700   -1.2320 C   0  0  0  0  0  0  0  0  0  0  0  0
    4.7000   -0.6970   -0.3220 C   0  0  0  0  0  0  0  0  0  0  0  0
    4.2710   -1.1980    0.9870 C   0  0  0  0  0  0  0  0  0  0  0  0
    5.9990   -0.8450   -0.6450 C   0  0  0  0  0  0  0  0  0  0  0  0
    6.9650   -1.4650    0.2280 C   0  0  0  0  0  0  0  0  0  0  0  0
    8.1610   -1.5570   -0.1650 O   0  0  0  0  0  0  0  0  0  0  0  0
    6.7000   -1.9770    1.4760 O   0  0  0  0  0  0  0  0  0  0  0  0
   -0.3030    0.5540   -0.6910 C   0  0  0  0  0  0  0  0  0  0  0  0
   -1.5560    0.7410   -0.4340 C   0  0  0  0  0  0  0  0  0  0  0  0
   -2.5710    1.4240   -1.2320 C   0  0  0  0  0  0  0  0  0  0  0  0
   -3.7260    0.4740   -1.5520 C   0  0  0  0  0  0  0  0  0  0  0  0
   -4.2730   -0.1670   -0.3220 C   0  0  2  0  0  0  0  0  0  0  0  0
   -5.5630    0.5880    0.0290 C   0  0  0  0  0  0  0  0  0  0  0  0
   -3.4060   -0.2880    0.8280 C   0  0  0  0  0  0  0  0  0  0  0  0
   -3.9130   -0.8620    1.9780 C   0  0  0  0  0  0  0  0  0  0  0  0
   -3.0920   -0.9970    3.0790 C   0  0  0  0  0  0  0  0  0  0  0  0
   -1.7650   -0.5690    3.0610 C   0  0  0  0  0  0  0  0  0  0  0  0
   -1.2660    0.0040    1.9080 C   0  0  0  0  0  0  0  0  0  0  0  0
   -2.0890    0.1330    0.8240 C   0  0  0  0  0  0  0  0  0  0  0  0
  1  2  1  0
  2  3  2  3
  2 12  1  0
  3  4  1  0
  4  5  2  3
  5  6  1  0
  6  7  1  0
  6  8  2  3
  8  9  1  0
  9 10  2  0
  9 11  1  0
 12 13  2  3
 13 14  1  0
 13 23  1  0
 14 15  1  0
 15 16  1  0
 16 17  1  1
 16 18  1  0
 18 19  2  0
 18 23  1  0
 19 20  1  0
 20 21  2  0
 21 22  1  0
 22 23  2  0
M  END
