
     RDKit          3D

  6  5  0  0  0  0  0  0  0  0999 V2000
   -0.3460   -1.2240   -0.1640 C   0  0  0  0  0  0  0  0  0  0  0  0
    0.1980   -0.0390   -0.0030 C   0  0  0  0  0  0  0  0  0  0  0  0
    1.5460    0.1050    0.4790 C   0  0  0  0  0  0  0  0  0  0  0  0
    2.6390    0.2380    0.8840 N   0  0  0  0  0  0  0  0  0  0  0  0
   -0.5600    1.1240   -0.3100 N   0  0  0  0  0  0  0  0  0  0  0  0
   -2.1800    1.4250    0.5890 Br  0  0  0  0  0  0  0  0  0  0  0  0
  1  2  2  0
  2  3  1  0
  2  5  1  0
  3  4  3  0
  5  6  1  0
M  END
