
     RDKit          3D

  6  6  0  0  0  0  0  0  0  0999 V2000
    2.9490   -0.7070   -0.0400 Br  0  0  0  0  0  0  0  0  0  0  0  0
    1.0710   -0.4040   -0.0020 C   0  0  0  0  0  0  0  0  0  0  0  0
    0.1310   -1.3520    0.1150 N   0  0  0  0  0  0  0  0  0  0  0  0
   -1.0740   -0.7600    0.1050 C   0  0  0  0  0  0  0  0  0  0  0  0
   -0.8380    0.6000   -0.0240 C   0  0  0  0  0  0  0  0  0  0  0  0
    0.4810    0.7840   -0.0860 N   0  0  0  0  0  0  0  0  0  0  0  0
  1  2  1  0
  2  3  2  0
  2  6  1  0
  3  4  1  0
  4  5  2  0
  5  6  1  0
M  END
