
     RDKit          3D

  6  5  0  0  0  0  0  0  0  0999 V2000
   -0.3700    1.0370   -0.9250 C   0  0  0  0  0  0  0  0  0  0  0  0
   -0.0920    0.0270    0.0710 N   0  0  0  0  0  0  0  0  0  0  0  0
   -1.0760   -0.9810    0.3920 C   0  0  0  0  0  0  0  0  0  0  0  0
    1.1630    0.0720    0.7030 C   0  0  0  0  0  0  0  0  0  0  0  0
    2.2420   -0.4230    0.2270 N   0  0  0  0  0  0  0  0  0  0  0  0
    1.2320    0.9480    2.4020 Br  0  0  0  0  0  0  0  0  0  0  0  0
  1  2  1  0
  2  3  1  0
  2  4  1  0
  4  5  2  0
  4  6  1  0
M  END
