
     RDKit          3D

  6  5  0  0  0  0  0  0  0  0999 V2000
    2.0170    0.1200    0.0340 C   0  0  0  0  0  0  0  0  0  0  0  0
    1.0490   -0.4320   -0.6050 N   0  0  0  0  0  0  0  0  0  0  0  0
   -0.2400    0.1140   -0.4540 C   0  0  0  0  0  0  0  0  0  0  0  0
   -0.4530    1.2960   -0.8820 N   0  0  0  0  0  0  0  0  0  0  0  0
   -1.3000   -0.6830    0.1860 C   0  0  0  0  0  0  0  0  0  0  0  0
   -0.8290   -1.1770    2.0110 Br  0  0  0  0  0  0  0  0  0  0  0  0
  1  2  2  0
  2  3  1  0
  3  4  2  0
  3  5  1  0
  5  6  1  0
M  END
