
     RDKit          3D

 24 26  0  0  0  0  0  0  0  0999 V2000
   -6.4000    0.1600   -1.2440 N   0  0  0  0  0  0  0  0  0  0  0  0
   -5.3130    0.9370   -0.7500 C   0  0  0  0  0  0  0  0  0  0  0  0
   -3.9840    0.2060   -0.7320 C   0  0  2  0  0  0  0  0  0  0  0  0
   -4.0620   -1.0290    0.1430 C   0  0  0  0  0  0  0  0  0  0  0  0
   -4.4230   -0.5940    1.5580 C   0  0  0  0  0  0  0  0  0  0  0  0
   -4.4960   -1.7090    2.3980 O   0  0  0  0  0  0  0  0  0  0  0  0
   -3.0290    1.0890   -0.0940 N   0  0  0  0  0  0  0  0  0  0  0  0
   -1.6290    0.8120   -0.0530 C   0  0  0  0  0  0  0  0  0  0  0  0
   -0.8070    1.5390    0.8160 C   0  0  0  0  0  0  0  0  0  0  0  0
    0.5410    1.2810    0.8390 C   0  0  0  0  0  0  0  0  0  0  0  0
    1.0640    0.3070    0.0030 C   0  0  0  0  0  0  0  0  0  0  0  0
    2.3960    0.0480    0.0210 N   0  0  0  0  0  0  0  0  0  0  0  0
    2.9120   -0.8890   -0.7790 C   0  0  0  0  0  0  0  0  0  0  0  0
    4.3110   -1.1590   -0.8040 N   0  0  0  0  0  0  0  0  0  0  0  0
    5.2730   -0.5280    0.0030 C   0  0  0  0  0  0  0  0  0  0  0  0
    6.4370   -0.0850   -0.6380 C   0  0  0  0  0  0  0  0  0  0  0  0
    7.4540    0.5120    0.0870 C   0  0  0  0  0  0  0  0  0  0  0  0
    7.3430    0.6830    1.4390 C   0  0  0  0  0  0  0  0  0  0  0  0
    6.2020    0.2460    2.0510 C   0  0  0  0  0  0  0  0  0  0  0  0
    5.1530   -0.3630    1.3540 C   0  0  0  0  0  0  0  0  0  0  0  0
    2.1140   -1.6250   -1.6530 C   0  0  0  0  0  0  0  0  0  0  0  0
    0.7780   -1.3860   -1.6930 C   0  0  0  0  0  0  0  0  0  0  0  0
    0.2490   -0.4070   -0.8530 C   0  0  0  0  0  0  0  0  0  0  0  0
   -1.1200   -0.1570   -0.8880 C   0  0  0  0  0  0  0  0  0  0  0  0
  1  2  1  0
  3  2  1  1
  3  4  1  0
  3  7  1  0
  4  5  1  0
  5  6  1  0
  7  8  1  0
  8  9  2  0
  8 24  1  0
  9 10  1  0
 10 11  2  0
 11 12  1  0
 11 23  1  0
 12 13  2  0
 13 14  1  0
 13 21  1  0
 14 15  1  0
 15 16  2  0
 15 20  1  0
 16 17  1  0
 17 18  2  0
 18 19  1  0
 19 20  2  0
 21 22  2  0
 22 23  1  0
 23 24  2  0
M  CHG  2   1   1  12   1
M  END
