
     RDKit          3D

 24 25  0  0  0  0  0  0  0  0999 V2000
   -5.8660    2.2580    0.0520 C   0  0  0  0  0  0  0  0  0  0  0  0
   -6.3760    1.4740   -1.0580 C   0  0  0  0  0  0  0  0  0  0  0  0
   -7.1060    2.0550   -1.8710 O   0  0  0  0  0  0  0  0  0  0  0  0
   -6.1110    0.0700   -1.3030 C   0  0  0  0  0  0  0  0  0  0  0  0
   -5.0960   -0.5860   -0.4240 C   0  0  0  0  0  0  0  0  0  0  0  0
   -3.7190   -0.0020   -0.5430 C   0  0  0  0  0  0  0  0  0  0  0  0
   -2.8050   -0.7970    0.3830 C   0  0  0  0  0  0  0  0  0  0  0  0
   -1.4010   -0.2470    0.3060 C   0  0  0  0  0  0  0  0  0  0  0  0
   -1.1190    0.7280   -0.4740 N   0  0  0  0  0  0  0  0  0  0  0  0
    0.1280    1.3380   -0.6360 C   0  0  0  0  0  0  0  0  0  0  0  0
    1.3000    0.5670   -0.0190 C   0  0  0  0  0  0  0  0  0  0  0  0
    2.4860    0.9030   -0.3640 C   0  0  0  0  0  0  0  0  0  0  0  0
    3.8250    0.4850   -0.0710 C   0  0  0  0  0  0  0  0  0  0  0  0
    4.8680    1.1320   -0.6560 C   0  0  0  0  0  0  0  0  0  0  0  0
    4.5460    2.2060   -1.5400 N   0  0  0  0  0  0  0  0  0  0  0  0
    6.2480    0.8070   -0.4440 C   0  0  0  0  0  0  0  0  0  0  0  0
    7.2580    1.5760   -1.1280 N   0  0  0  0  0  0  0  0  0  0  0  0
    6.6250   -0.1280    0.3180 N   0  0  0  0  0  0  0  0  0  0  0  0
    0.9670   -0.4830    0.8850 C   0  0  0  0  0  0  0  0  0  0  0  0
   -0.3190   -0.8720    1.0250 C   0  0  0  0  0  0  0  0  0  0  0  0
   -0.6060   -2.0170    1.9520 C   0  0  0  0  0  0  0  0  0  0  0  0
    0.3780   -3.1540    1.7630 C   0  0  0  0  0  0  0  0  0  0  0  0
    1.7680   -2.6720    1.3980 C   0  0  0  0  0  0  0  0  0  0  0  0
    1.8710   -1.2140    1.7960 C   0  0  0  0  0  0  0  0  0  0  0  0
  1  2  1  0
  2  3  2  0
  2  4  1  0
  4  5  1  0
  5  6  1  0
  6  7  1  0
  7  8  1  0
  8  9  2  0
  8 20  1  0
  9 10  1  0
 10 11  1  0
 11 12  2  3
 11 19  1  0
 12 13  1  0
 13 14  2  3
 14 15  1  0
 14 16  1  0
 16 17  1  0
 16 18  2  0
 19 20  2  0
 19 24  1  0
 20 21  1  0
 21 22  1  0
 22 23  1  0
 23 24  1  0
M  CHG  1  18   1
M  END
