
     RDKit          3D

 38 42  0  0  0  0  0  0  0  0999 V2000
   -7.2450   -1.7120    0.6860 C   0  0  0  0  0  0  0  0  0  0  0  0
   -6.6630   -0.9180    1.7930 C   0  0  0  0  0  0  0  0  0  0  0  0
   -5.3970   -0.2690    1.3460 C   0  0  0  0  0  0  0  0  0  0  0  0
   -5.1380    0.9210    0.7520 C   0  0  0  0  0  0  0  0  0  0  0  0
   -6.0000    2.0180    0.3770 C   0  0  0  0  0  0  0  0  0  0  0  0
   -6.6910    2.0620   -0.9140 C   0  0  2  0  0  0  0  0  0  0  0  0
   -7.6630    0.9770   -1.2520 C   0  0  0  0  0  0  0  0  0  0  0  0
   -5.7340    2.1790   -2.0990 C   0  0  0  0  0  0  0  0  0  0  0  0
   -7.5240    3.3710   -0.9870 C   0  0  0  0  0  0  0  0  0  0  0  0
   -3.7780    0.9560    0.5460 N   0  0  0  0  0  0  0  0  0  0  0  0
   -3.2100   -0.1600    0.9920 C   0  0  0  0  0  0  0  0  0  0  0  0
   -1.8810   -0.5980    1.0130 C   0  0  0  0  0  0  0  0  0  0  0  0
   -0.8430    0.2230    0.4920 N   0  0  0  0  0  0  0  0  0  0  0  0
    0.5180   -0.2180    0.4620 C   0  0  1  0  0  0  0  0  0  0  0  0
    0.8090   -1.3750   -0.4270 C   0  0  0  0  0  0  0  0  0  0  0  0
    1.8170   -0.9760   -1.5070 C   0  0  0  0  0  0  0  0  0  0  0  0
    3.0900   -0.5190   -0.8670 C   0  0  2  0  0  0  0  0  0  0  0  0
    3.9110   -1.6560   -0.4550 N   0  0  0  0  0  0  0  0  0  0  0  0
    3.4800   -2.8670   -0.2530 N   0  0  0  0  0  0  0  0  0  0  0  0
    4.4750   -3.6700    0.1240 C   0  0  0  0  0  0  0  0  0  0  0  0
    5.6260   -2.8840    0.1570 C   0  0  0  0  0  0  0  0  0  0  0  0
    5.2540   -1.6190   -0.2110 C   0  0  0  0  0  0  0  0  0  0  0  0
    6.0250   -0.4460   -0.3510 N   0  0  0  0  0  0  0  0  0  0  0  0
    7.4400   -0.4050   -0.0570 C   0  0  0  0  0  0  0  0  0  0  0  0
    8.0190   -1.4380    0.3420 O   0  0  0  0  0  0  0  0  0  0  0  0
    8.1820    0.7920   -0.2140 N   0  0  0  0  0  0  0  0  0  0  0  0
    9.5500    0.9590    0.0420 C   0  0  0  0  0  0  0  0  0  0  0  0
   10.1260    2.1730   -0.3500 C   0  0  0  0  0  0  0  0  0  0  0  0
   11.4380    2.3950   -0.1170 N   0  0  0  0  0  0  0  0  0  0  0  0
   12.2430    1.5130    0.4770 C   0  0  0  0  0  0  0  0  0  0  0  0
   11.7190    0.3420    0.8640 N   0  0  0  0  0  0  0  0  0  0  0  0
   10.4010    0.0800    0.6470 C   0  0  0  0  0  0  0  0  0  0  0  0
    2.8610    0.4400    0.2710 C   0  0  0  0  0  0  0  0  0  0  0  0
    1.4360    0.9530    0.1720 C   0  0  0  0  0  0  0  0  0  0  0  0
   -1.6110   -1.8330    1.5570 C   0  0  0  0  0  0  0  0  0  0  0  0
   -2.5900   -2.6630    2.0830 C   0  0  0  0  0  0  0  0  0  0  0  0
   -3.9040   -2.2110    2.0530 C   0  0  0  0  0  0  0  0  0  0  0  0
   -4.1790   -0.9700    1.5070 C   0  0  0  0  0  0  0  0  0  0  0  0
  1  2  1  0
  2  3  1  0
  3  4  2  0
  3 38  1  0
  4  5  1  0
  4 10  1  0
  5  6  1  0
  6  7  1  6
  6  8  1  0
  6  9  1  0
 10 11  1  0
 11 12  2  0
 11 38  1  0
 12 13  1  0
 12 35  1  0
 14 13  1  6
 14 15  1  0
 14 34  1  0
 15 16  1  0
 16 17  1  0
 17 18  1  1
 17 33  1  0
 18 19  1  0
 18 22  1  0
 19 20  2  0
 20 21  1  0
 21 22  2  0
 22 23  1  0
 23 24  1  0
 24 25  2  0
 24 26  1  0
 26 27  1  0
 27 28  2  0
 27 32  1  0
 28 29  1  0
 29 30  2  0
 30 31  1  0
 31 32  2  0
 33 34  1  0
 35 36  2  0
 36 37  1  0
 37 38  2  0
M  END
