
     RDKit          3D

 38 42  0  0  0  0  0  0  0  0999 V2000
   -5.6220    1.9880    3.0130 C   0  0  0  0  0  0  0  0  0  0  0  0
   -6.5510    2.2810    1.9600 N   0  0  0  0  0  0  0  0  0  0  0  0
   -6.4260    1.6880    0.6870 C   0  0  0  0  0  0  0  0  0  0  0  0
   -5.3890    0.7910    0.4190 C   0  0  0  0  0  0  0  0  0  0  0  0
   -5.3300    0.2280   -0.8360 C   0  0  0  0  0  0  0  0  0  0  0  0
   -4.3250   -0.6920   -1.1960 N   0  0  0  0  0  0  0  0  0  0  0  0
   -3.0630   -0.8540   -0.6480 C   0  0  0  0  0  0  0  0  0  0  0  0
   -2.6910   -0.1050    0.2850 O   0  0  0  0  0  0  0  0  0  0  0  0
   -2.1340   -1.8400   -1.0850 N   0  0  0  0  0  0  0  0  0  0  0  0
   -0.8390   -2.0470   -0.5830 C   0  0  0  0  0  0  0  0  0  0  0  0
   -0.5660   -2.7660    0.5570 C   0  0  0  0  0  0  0  0  0  0  0  0
   -1.5700   -3.2800    1.3370 C   0  0  0  0  0  0  0  0  0  0  0  0
   -1.2280   -3.9780    2.4750 C   0  0  0  0  0  0  0  0  0  0  0  0
    0.1060   -4.1560    2.8240 C   0  0  0  0  0  0  0  0  0  0  0  0
    1.0520   -3.6480    2.0500 N   0  0  0  0  0  0  0  0  0  0  0  0
    0.7540   -2.9540    0.9200 C   0  0  0  0  0  0  0  0  0  0  0  0
    1.7860   -2.4720    0.2130 N   0  0  0  0  0  0  0  0  0  0  0  0
    1.5550   -1.7630   -0.9150 C   0  0  0  0  0  0  0  0  0  0  0  0
    2.6370   -1.2810   -1.6290 C   0  0  0  0  0  0  0  0  0  0  0  0
    3.9740   -1.5460   -1.2170 N   0  0  0  0  0  0  0  0  0  0  0  0
    5.1210   -1.0690   -1.9300 C   0  0  0  0  0  0  0  0  0  0  0  0
    5.3090    0.3580   -1.8620 N   0  0  0  0  0  0  0  0  0  0  0  0
    5.6720    0.9720   -0.6350 C   0  0  0  0  0  0  0  0  0  0  0  0
    5.9280    0.2790    0.5190 C   0  0  0  0  0  0  0  0  0  0  0  0
    6.3060    0.9770    1.6710 C   0  0  0  0  0  0  0  0  0  0  0  0
    6.4330    2.3480    1.6930 C   0  0  0  0  0  0  0  0  0  0  0  0
    6.8430    3.0500    2.9320 C   0  0  0  0  0  0  0  0  0  0  0  0
    6.1730    3.0450    0.5290 C   0  0  0  0  0  0  0  0  0  0  0  0
    5.8020    2.3610   -0.6050 C   0  0  0  0  0  0  0  0  0  0  0  0
    2.4310   -0.5490   -2.7930 C   0  0  0  0  0  0  0  0  0  0  0  0
    1.1350   -0.3330   -3.1900 C   0  0  0  0  0  0  0  0  0  0  0  0
    0.0620   -0.8210   -2.4680 C   0  0  0  0  0  0  0  0  0  0  0  0
    0.2500   -1.5550   -1.3010 C   0  0  0  0  0  0  0  0  0  0  0  0
   -6.2940    0.5540   -1.8280 C   0  0  0  0  0  0  0  0  0  0  0  0
   -7.3000    1.4410   -1.5340 C   0  0  0  0  0  0  0  0  0  0  0  0
   -7.3490    1.9920   -0.2820 C   0  0  0  0  0  0  0  0  0  0  0  0
   -8.4350    2.9250    0.0100 C   0  0  0  0  0  0  0  0  0  0  0  0
   -9.2890    3.6410    0.2270 N   0  0  0  0  0  0  0  0  0  0  0  0
  1  2  1  0
  2  3  1  0
  3  4  2  0
  3 36  1  0
  4  5  1  0
  5  6  1  0
  5 34  2  0
  6  7  1  0
  7  8  2  0
  7  9  1  0
  9 10  1  0
 10 11  1  0
 10 33  2  0
 11 12  2  0
 11 16  1  0
 12 13  1  0
 13 14  2  0
 14 15  1  0
 15 16  2  0
 16 17  1  0
 17 18  2  0
 18 19  1  0
 18 33  1  0
 19 20  1  0
 19 30  2  0
 20 21  1  0
 21 22  1  0
 22 23  1  0
 23 24  2  0
 23 29  1  0
 24 25  1  0
 25 26  2  0
 26 27  1  0
 26 28  1  0
 28 29  2  0
 30 31  1  0
 31 32  2  0
 32 33  1  0
 34 35  1  0
 35 36  2  0
 36 37  1  0
 37 38  3  0
M  END
