
     RDKit          3D

 38 41  0  0  0  0  0  0  0  0999 V2000
   11.8110    2.5000   -1.2420 C   0  0  0  0  0  0  0  0  0  0  0  0
   11.2950    1.2890   -1.7020 O   0  0  0  0  0  0  0  0  0  0  0  0
   10.3710    0.6170   -0.3990 S   0  0  0  0  0  0  0  0  0  0  0  0
    8.7660    1.2840   -0.3200 N   0  0  0  0  0  0  0  0  0  0  0  0
    7.8040    0.6200   -1.1380 C   0  0  0  0  0  0  0  0  0  0  0  0
    6.4330    1.2670   -1.0080 C   0  0  2  0  0  0  0  0  0  0  0  0
    5.8670    1.0560    0.3780 C   0  0  0  0  0  0  0  0  0  0  0  0
    5.4080   -0.3990    0.2710 C   0  0  0  0  0  0  0  0  0  0  0  0
    4.9240   -0.4100   -1.1520 C   0  0  1  0  0  0  0  0  0  0  0  0
    3.4270   -0.3720   -1.2160 C   0  0  0  0  0  0  0  0  0  0  0  0
    2.8970    0.5800   -1.8230 O   0  0  0  0  0  0  0  0  0  0  0  0
    2.6390   -1.3780   -0.6120 N   0  0  0  0  0  0  0  0  0  0  0  0
    1.2280   -1.4450   -0.6040 C   0  0  0  0  0  0  0  0  0  0  0  0
    0.4050   -0.5230   -1.1310 C   0  0  0  0  0  0  0  0  0  0  0  0
   -0.9870   -0.7080   -1.0560 C   0  0  0  0  0  0  0  0  0  0  0  0
   -1.5540   -1.8120   -0.4560 C   0  0  0  0  0  0  0  0  0  0  0  0
   -3.0470   -1.8590   -0.4270 C   0  0  1  0  0  0  0  0  0  0  0  0
   -3.4660   -0.5000    0.1130 C   0  0  0  0  0  0  0  0  0  0  0  0
   -2.6010    0.3080    0.5110 O   0  0  0  0  0  0  0  0  0  0  0  0
   -4.8380   -0.1720    0.1560 N   0  0  0  0  0  0  0  0  0  0  0  0
   -5.3570    1.0490    0.6300 C   0  0  0  0  0  0  0  0  0  0  0  0
   -4.6640    2.1810    0.9170 C   0  0  0  0  0  0  0  0  0  0  0  0
   -5.2850    3.3440    1.3590 C   0  0  0  0  0  0  0  0  0  0  0  0
   -4.4490    4.5300    1.6420 C   0  0  0  0  0  0  0  0  0  0  0  0
   -6.6370    3.3970    1.5260 C   0  0  0  0  0  0  0  0  0  0  0  0
   -7.3650    2.2790    1.2470 C   0  0  0  0  0  0  0  0  0  0  0  0
   -6.7700    1.0910    0.8000 C   0  0  0  0  0  0  0  0  0  0  0  0
   -7.5040    0.0590    0.5480 O   0  0  0  0  0  0  0  0  0  0  0  0
   -8.3570   -0.8980    0.3340 C   0  0  0  0  0  0  0  0  0  0  0  0
   -3.5420   -1.9040   -1.8490 C   0  0  0  0  0  0  0  0  0  0  0  0
   -4.1660   -3.2530   -2.1690 C   0  0  0  0  0  0  0  0  0  0  0  0
   -5.2660   -3.4450   -1.2820 O   0  0  0  0  0  0  0  0  0  0  0  0
   -5.0030   -3.2370    0.0630 C   0  0  0  0  0  0  0  0  0  0  0  0
   -5.9380   -3.3430    0.9020 O   0  0  0  0  0  0  0  0  0  0  0  0
   -3.6120   -2.8970    0.4610 C   0  0  0  0  0  0  0  0  0  0  0  0
   -0.7200   -2.7450    0.0760 C   0  0  0  0  0  0  0  0  0  0  0  0
    0.6590   -2.5710    0.0070 C   0  0  0  0  0  0  0  0  0  0  0  0
    5.4930    0.6430   -1.8120 O   0  0  0  0  0  0  0  0  0  0  0  0
  1  2  1  0
  2  3  1  0
  3  4  1  0
  4  5  1  0
  6  5  1  1
  6  7  1  0
  6 38  1  0
  7  8  1  0
  8  9  1  0
  9 10  1  1
  9 38  1  0
 10 11  2  0
 10 12  1  0
 12 13  1  0
 13 14  2  0
 13 37  1  0
 14 15  1  0
 15 16  2  0
 16 17  1  0
 16 36  1  0
 17 18  1  1
 17 30  1  0
 17 35  1  0
 18 19  2  0
 18 20  1  0
 20 21  1  0
 21 22  2  0
 21 27  1  0
 22 23  1  0
 23 24  1  0
 23 25  2  0
 25 26  1  0
 26 27  2  0
 27 28  1  0
 28 29  1  0
 30 31  1  0
 31 32  1  0
 32 33  1  0
 33 34  2  0
 33 35  1  0
 36 37  2  0
M  END
