
     RDKit          3D

 38 41  0  0  0  0  0  0  0  0999 V2000
   -4.0040    5.4870   -0.3420 C   0  0  0  0  0  0  0  0  0  0  0  0
   -4.8560    4.4020    0.2840 C   0  0  1  0  0  0  0  0  0  0  0  0
   -6.1520    4.3400   -0.4920 C   0  0  0  0  0  0  0  0  0  0  0  0
   -4.1600    3.1330    0.3060 N   0  0  0  0  0  0  0  0  0  0  0  0
   -4.1170    2.3930    1.3710 C   0  0  0  0  0  0  0  0  0  0  0  0
   -4.7830    2.8880    2.5210 N   0  0  0  0  0  0  0  0  0  0  0  0
   -3.4250    1.1470    1.3740 N   0  0  0  0  0  0  0  0  0  0  0  0
   -3.6520    0.2280    0.3250 C   0  0  0  0  0  0  0  0  0  0  0  0
   -4.6380    0.3620   -0.6390 C   0  0  0  0  0  0  0  0  0  0  0  0
   -4.8100   -0.5990   -1.6200 C   0  0  0  0  0  0  0  0  0  0  0  0
   -4.0010   -1.7120   -1.6550 C   0  0  0  0  0  0  0  0  0  0  0  0
   -3.0230   -1.8230   -0.6800 C   0  0  0  0  0  0  0  0  0  0  0  0
   -2.8140   -0.8960    0.3130 C   0  0  0  0  0  0  0  0  0  0  0  0
   -1.8460   -1.0010    1.2790 O   0  0  0  0  0  0  0  0  0  0  0  0
   -0.9340   -2.0400    1.2830 C   0  0  0  0  0  0  0  0  0  0  0  0
   -0.9890   -2.9760    2.3300 C   0  0  0  0  0  0  0  0  0  0  0  0
   -0.1260   -4.0410    2.4220 C   0  0  0  0  0  0  0  0  0  0  0  0
    0.8400   -4.2100    1.4520 C   0  0  0  0  0  0  0  0  0  0  0  0
    1.7970   -5.3650    1.5320 C   0  0  0  0  0  0  0  0  0  0  0  0
    2.3200   -5.6320    0.2050 N   0  0  0  0  0  0  0  0  0  0  0  0
    0.9040   -3.2940    0.4170 C   0  0  0  0  0  0  0  0  0  0  0  0
    0.0330   -2.2140    0.3210 C   0  0  0  0  0  0  0  0  0  0  0  0
    0.2530   -1.2770   -0.7910 C   0  0  2  0  0  0  0  0  0  0  0  0
    0.2090   -1.8740   -2.1550 C   0  0  0  0  0  0  0  0  0  0  0  0
    1.4870   -2.4780   -2.5880 C   0  0  0  0  0  0  0  0  0  0  0  0
    1.5730   -3.5770   -3.1570 O   0  0  0  0  0  0  0  0  0  0  0  0
    2.6850   -1.7180   -2.3180 N   0  0  0  0  0  0  0  0  0  0  0  0
    2.6610   -0.7320   -1.2930 C   0  0  0  0  0  0  0  0  0  0  0  0
    3.8160    0.0150   -1.0280 C   0  0  0  0  0  0  0  0  0  0  0  0
    3.8500    0.9910   -0.0460 C   0  0  0  0  0  0  0  0  0  0  0  0
    5.0730    1.7430    0.2010 C   0  0  0  0  0  0  0  0  0  0  0  0
    5.0480    2.6170    1.1040 O   0  0  0  0  0  0  0  0  0  0  0  0
    6.3180    1.5210   -0.5540 C   0  0  0  0  0  0  0  0  0  0  0  0
    7.4360    2.4230   -0.0880 C   0  0  0  0  0  0  0  0  0  0  0  0
    8.6520    2.2160   -0.8130 N   0  0  0  0  0  0  0  0  0  0  0  0
    2.7100    1.2060    0.6640 C   0  0  0  0  0  0  0  0  0  0  0  0
    1.5640    0.4830    0.4200 C   0  0  0  0  0  0  0  0  0  0  0  0
    1.5290   -0.4930   -0.5610 C   0  0  0  0  0  0  0  0  0  0  0  0
  2  1  1  6
  2  3  1  0
  2  4  1  0
  4  5  2  3
  5  6  1  0
  5  7  1  0
  7  8  1  0
  8  9  2  0
  8 13  1  0
  9 10  1  0
 10 11  2  0
 11 12  1  0
 12 13  2  0
 13 14  1  0
 14 15  1  0
 15 16  2  0
 15 22  1  0
 16 17  1  0
 17 18  2  0
 18 19  1  0
 18 21  1  0
 19 20  1  0
 21 22  2  0
 23 22  1  1
 23 24  1  0
 23 38  1  0
 24 25  1  0
 25 26  2  0
 25 27  1  0
 27 28  1  0
 28 29  2  0
 28 38  1  0
 29 30  1  0
 30 31  1  0
 30 36  2  0
 31 32  2  0
 31 33  1  0
 33 34  1  0
 34 35  1  0
 36 37  1  0
 37 38  2  0
M  CHG  2   4   1  20   1
M  END
