
     RDKit          3D

 38 41  0  0  0  0  0  0  0  0999 V2000
   -3.9340    4.3200    0.4990 C   0  0  0  0  0  0  0  0  0  0  0  0
   -3.3280    3.6690   -0.5930 O   0  0  0  0  0  0  0  0  0  0  0  0
   -3.7370    3.7450   -1.8830 C   0  0  0  0  0  0  0  0  0  0  0  0
   -4.7660    4.4720   -2.1250 O   0  0  0  0  0  0  0  0  0  0  0  0
   -3.1110    3.0670   -3.0660 C   0  0  0  0  0  0  0  0  0  0  0  0
   -3.9850    1.5710   -3.4180 S   0  0  0  0  0  0  0  0  0  0  0  0
   -3.7750    0.2700   -2.0670 C   0  0  0  0  0  0  0  0  0  0  0  0
   -4.7760   -0.5270   -2.0360 C   0  0  0  0  0  0  0  0  0  0  0  0
   -5.2360   -1.6670   -1.3200 C   0  0  0  0  0  0  0  0  0  0  0  0
   -6.4440   -1.7510   -0.5720 C   0  0  0  0  0  0  0  0  0  0  0  0
   -6.5270   -3.0170   -0.0450 C   0  0  0  0  0  0  0  0  0  0  0  0
   -5.4160   -3.6540   -0.4630 N   0  0  0  0  0  0  0  0  0  0  0  0
   -4.7200   -2.8430   -1.1820 O   0  0  0  0  0  0  0  0  0  0  0  0
   -2.6670    0.4260   -1.2240 C   0  0  0  0  0  0  0  0  0  0  0  0
   -1.8000    1.3550   -1.6690 O   0  0  0  0  0  0  0  0  0  0  0  0
   -2.2200   -0.1150   -0.0400 N   0  0  0  0  0  0  0  0  0  0  0  0
   -0.9700    0.5490    0.4930 C   0  0  0  0  0  0  0  0  0  0  0  0
    0.2400   -0.1050   -0.0150 C   0  0  0  0  0  0  0  0  0  0  0  0
    1.4690    0.6380    0.4980 C   0  0  0  0  0  0  0  0  0  0  0  0
    1.3190    1.6820    1.1880 O   0  0  0  0  0  0  0  0  0  0  0  0
    2.7860    0.1920    0.2240 N   0  0  0  0  0  0  0  0  0  0  0  0
    3.9180    0.9340    0.7300 C   0  0  1  0  0  0  0  0  0  0  0  0
    4.7440    0.1110    1.7080 C   0  0  0  0  0  0  0  0  0  0  0  0
    6.1070    0.6930    1.9100 C   0  0  2  0  0  0  0  0  0  0  0  0
    6.0880    2.1620    1.5350 C   0  0  0  0  0  0  0  0  0  0  0  0
    6.0490    2.0430    0.0140 C   0  0  2  0  0  0  0  0  0  0  0  0
    4.7880    1.3570   -0.4310 C   0  0  0  0  0  0  0  0  0  0  0  0
    7.2080    1.1000   -0.2180 C   0  0  0  0  0  0  0  0  0  0  0  0
    7.0570    0.0950    0.8820 C   0  0  1  0  0  0  0  0  0  0  0  0
    8.2850   -0.1950    1.4400 O   0  0  0  0  0  0  0  0  0  0  0  0
   -2.7260   -1.1330    0.8160 C   0  0  0  0  0  0  0  0  0  0  0  0
   -2.3160   -2.5130    0.5510 C   0  0  0  0  0  0  0  0  0  0  0  0
   -1.5800   -2.8970   -0.5190 C   0  0  0  0  0  0  0  0  0  0  0  0
   -1.2510   -4.2280   -0.7640 C   0  0  0  0  0  0  0  0  0  0  0  0
   -1.6740   -5.2080    0.0910 C   0  0  0  0  0  0  0  0  0  0  0  0
   -2.4250   -4.8330    1.1860 C   0  0  0  0  0  0  0  0  0  0  0  0
   -2.7450   -3.5150    1.4200 C   0  0  0  0  0  0  0  0  0  0  0  0
   -3.5010   -3.1880    2.5330 O   0  0  0  0  0  0  0  0  0  0  0  0
  1  2  1  0
  2  3  1  0
  3  4  2  0
  3  5  1  0
  5  6  1  0
  6  7  1  0
  7  8  2  3
  7 14  1  0
  8  9  1  0
  9 10  2  0
  9 13  1  0
 10 11  1  0
 11 12  2  0
 12 13  1  0
 14 15  2  0
 14 16  1  0
 16 17  1  0
 16 31  1  0
 17 18  1  0
 18 19  1  0
 19 20  2  0
 19 21  1  0
 22 21  1  6
 22 23  1  0
 22 27  1  0
 24 23  1  6
 24 25  1  0
 24 29  1  0
 25 26  1  0
 26 27  1  1
 26 28  1  0
 28 29  1  0
 29 30  1  1
 31 32  1  0
 32 33  2  0
 32 37  1  0
 33 34  1  0
 34 35  2  0
 35 36  1  0
 36 37  2  0
 37 38  1  0
M  END
