
     RDKit          3D

 38 41  0  0  0  0  0  0  0  0999 V2000
    5.9170    5.9030    0.4980 C   0  0  0  0  0  0  0  0  0  0  0  0
    5.5970    4.7710    1.0540 C   0  0  0  0  0  0  0  0  0  0  0  0
    4.7520    3.8140    0.3930 C   0  0  0  0  0  0  0  0  0  0  0  0
    4.3590    2.6290    0.8650 C   0  0  0  0  0  0  0  0  0  0  0  0
    3.4990    1.8530   -0.0150 C   0  0  0  0  0  0  0  0  0  0  0  0
    3.1810    2.3780   -1.1490 O   0  0  0  0  0  0  0  0  0  0  0  0
    2.9820    0.5650    0.2690 N   0  0  0  0  0  0  0  0  0  0  0  0
    2.1340   -0.0440   -0.7460 C   0  0  1  0  0  0  0  0  0  0  0  0
    2.9270   -1.2100   -1.3400 C   0  0  0  0  0  0  0  0  0  0  0  0
    1.9250   -2.2870   -1.6260 C   0  0  0  0  0  0  0  0  0  0  0  0
    0.5900   -1.6870   -1.2580 C   0  0  1  0  0  0  0  0  0  0  0  0
   -0.3850   -2.6890   -0.9510 N   0  0  2  0  0  0  0  0  0  0  0  0
   -1.4890   -2.5300   -1.8540 C   0  0  0  0  0  0  0  0  0  0  0  0
   -2.5860   -1.6900   -1.3100 C   0  0  0  0  0  0  0  0  0  0  0  0
   -2.5760   -1.1580   -0.1670 O   0  0  0  0  0  0  0  0  0  0  0  0
   -3.7710   -1.4210   -2.0760 N   0  0  0  0  0  0  0  0  0  0  0  0
   -4.8450   -0.6140   -1.5690 C   0  0  0  0  0  0  0  0  0  0  0  0
   -4.4150    0.7630   -1.2300 C   0  0  0  0  0  0  0  0  0  0  0  0
   -3.2120    1.0800   -1.4060 O   0  0  0  0  0  0  0  0  0  0  0  0
   -5.2680    1.7240   -0.7280 O   0  0  0  0  0  0  0  0  0  0  0  0
   -4.9190    3.0140   -0.3980 C   0  0  0  0  0  0  0  0  0  0  0  0
   -4.4740    3.2870    0.8650 C   0  0  0  0  0  0  0  0  0  0  0  0
   -4.1140    4.5840    1.2260 C   0  0  0  0  0  0  0  0  0  0  0  0
   -4.1950    5.6200    0.3310 C   0  0  0  0  0  0  0  0  0  0  0  0
   -4.6490    5.3330   -0.9510 C   0  0  0  0  0  0  0  0  0  0  0  0
   -5.0080    4.0310   -1.3100 C   0  0  0  0  0  0  0  0  0  0  0  0
   -5.4440    3.8460   -2.6000 O   0  0  0  0  0  0  0  0  0  0  0  0
   -0.7390   -2.8360    0.4200 C   0  0  0  0  0  0  0  0  0  0  0  0
    0.1250   -3.8280    1.1740 C   0  0  2  0  0  0  0  0  0  0  0  0
   -0.2480   -5.2170    0.6810 C   0  0  0  0  0  0  0  0  0  0  0  0
    0.2050   -6.0690    1.8490 C   0  0  0  0  0  0  0  0  0  0  0  0
    0.1090   -5.1160    3.0040 C   0  0  0  0  0  0  0  0  0  0  0  0
   -0.3300   -3.8830    2.4950 O   0  0  0  0  0  0  0  0  0  0  0  0
    0.9190   -0.7340   -0.1600 C   0  0  0  0  0  0  0  0  0  0  0  0
    4.7510    2.1440    2.1590 C   0  0  0  0  0  0  0  0  0  0  0  0
    4.3170    0.8920    2.6280 O   0  0  0  0  0  0  0  0  0  0  0  0
    5.5320    2.7700    3.0450 C   0  0  0  0  0  0  0  0  0  0  0  0
    6.2100    4.3820    2.6770 S   0  0  0  0  0  0  0  0  0  0  0  0
  1  2  2  0
  2  3  1  0
  2 38  1  0
  3  4  2  0
  4  5  1  0
  4 35  1  0
  5  6  2  0
  5  7  1  0
  8  7  1  1
  8  9  1  0
  8 34  1  0
  9 10  1  0
 11 10  1  1
 11 12  1  0
 11 34  1  0
 12 13  1  6
 12 28  1  0
 13 14  1  0
 14 15  2  0
 14 16  1  0
 16 17  1  0
 17 18  1  0
 18 19  2  0
 18 20  1  0
 20 21  1  0
 21 22  2  0
 21 26  1  0
 22 23  1  0
 23 24  2  0
 24 25  1  0
 25 26  2  0
 26 27  1  0
 29 28  1  6
 29 30  1  0
 29 33  1  0
 30 31  1  0
 31 32  1  0
 32 33  1  0
 35 36  1  0
 35 37  2  0
 37 38  1  0
M  CHG  1  12   1
M  END
