
     RDKit          3D

 38 41  0  0  0  0  0  0  0  0999 V2000
   -3.1300    2.0010    0.1240 C   0  0  0  0  0  0  0  0  0  0  0  0
   -3.2430    1.4300    1.4920 C   0  0  1  0  0  0  0  0  0  0  0  0
   -1.9130    1.7850    2.1880 C   0  0  0  0  0  0  0  0  0  0  0  0
   -4.2820    2.2760    2.2470 C   0  0  0  0  0  0  0  0  0  0  0  0
   -3.5150   -0.0150    1.6320 C   0  0  1  0  0  0  0  0  0  0  0  0
   -4.7980   -0.5080    1.0100 C   0  0  0  0  0  0  0  0  0  0  0  0
   -4.8430   -0.6260   -0.4270 C   0  0  0  0  0  0  0  0  0  0  0  0
   -6.1660   -0.4370   -0.8480 C   0  0  0  0  0  0  0  0  0  0  0  0
   -6.5510   -0.4920   -2.1670 C   0  0  0  0  0  0  0  0  0  0  0  0
   -7.8380   -0.3070   -2.5620 F   0  0  0  0  0  0  0  0  0  0  0  0
   -5.5470   -0.7460   -3.0750 C   0  0  0  0  0  0  0  0  0  0  0  0
   -4.2480   -0.9340   -2.6980 C   0  0  0  0  0  0  0  0  0  0  0  0
   -3.8700   -0.8760   -1.3460 C   0  0  0  0  0  0  0  0  0  0  0  0
   -2.1460   -1.1480   -1.1890 S   0  0  2  0  0  0  0  0  0  0  0  0
   -1.4840   -0.1730   -2.1470 O   0  0  0  0  0  0  0  0  0  0  0  0
   -1.8190   -2.5400   -1.6980 O   0  0  0  0  0  0  0  0  0  0  0  0
   -1.5360   -0.9130    0.3800 N   0  0  0  0  0  0  0  0  0  0  0  0
   -0.4870   -1.8780    0.6420 C   0  0  0  0  0  0  0  0  0  0  0  0
    0.9010   -1.3930    0.5970 C   0  0  1  0  0  0  0  0  0  0  0  0
    1.8250   -2.4340    0.8880 O   0  0  0  0  0  0  0  0  0  0  0  0
    1.4100   -0.6680   -0.5690 C   0  0  2  0  0  0  0  0  0  0  0  0
    1.6590   -1.4270   -1.8300 C   0  0  0  0  0  0  0  0  0  0  0  0
    2.6330   -2.5120   -1.7470 C   0  0  0  0  0  0  0  0  0  0  0  0
    2.2350   -3.7890   -1.4550 C   0  0  0  0  0  0  0  0  0  0  0  0
    3.1140   -4.8430   -1.3630 C   0  0  0  0  0  0  0  0  0  0  0  0
    4.4690   -4.6230   -1.5730 C   0  0  0  0  0  0  0  0  0  0  0  0
    4.8930   -3.3450   -1.8690 C   0  0  0  0  0  0  0  0  0  0  0  0
    3.9770   -2.2930   -1.9550 C   0  0  0  0  0  0  0  0  0  0  0  0
    2.7410   -0.1280   -0.1970 N   0  0  0  0  0  0  0  0  0  0  0  0
    3.0430    1.2330   -0.1570 C   0  0  0  0  0  0  0  0  0  0  0  0
    2.1650    2.0640   -0.4440 O   0  0  0  0  0  0  0  0  0  0  0  0
    4.2950    1.7070    0.1940 O   0  0  0  0  0  0  0  0  0  0  0  0
    4.5400    3.0980    0.2170 C   0  0  1  0  0  0  0  0  0  0  0  0
    5.0460    3.5820    1.5360 C   0  0  0  0  0  0  0  0  0  0  0  0
    6.1510    4.5270    1.1600 C   0  0  0  0  0  0  0  0  0  0  0  0
    6.0750    4.7010   -0.2200 O   0  0  0  0  0  0  0  0  0  0  0  0
    5.6170    3.5070   -0.7470 C   0  0  0  0  0  0  0  0  0  0  0  0
   -2.4460   -0.9880    1.4490 C   0  0  0  0  0  0  0  0  0  0  0  0
  2  1  1  6
  2  3  1  0
  2  4  1  0
  2  5  1  0
  5  6  1  6
  5 38  1  0
  6  7  1  0
  7  8  2  0
  7 13  1  0
  8  9  1  0
  9 10  1  0
  9 11  2  0
 11 12  1  0
 12 13  2  0
 13 14  1  0
 14 15  2  0
 14 16  2  0
 14 17  1  1
 17 18  1  0
 17 38  1  0
 18 19  1  0
 19 20  1  6
 19 21  1  0
 21 22  1  6
 21 29  1  0
 22 23  1  0
 23 24  2  0
 23 28  1  0
 24 25  1  0
 25 26  2  0
 26 27  1  0
 27 28  2  0
 29 30  1  0
 30 31  2  0
 30 32  1  0
 33 32  1  1
 33 34  1  0
 33 37  1  0
 34 35  1  0
 35 36  1  0
 36 37  1  0
M  END
