
     RDKit          3D

 38 41  0  0  0  0  0  0  0  0999 V2000
   -0.2360   -2.9770    2.3460 C   0  0  0  0  0  0  0  0  0  0  0  0
   -1.0920   -2.7600    3.5660 C   0  0  0  0  0  0  0  0  0  0  0  0
   -2.2460   -1.8030    3.2430 C   0  0  0  0  0  0  0  0  0  0  0  0
   -2.0570   -0.6220    2.9020 O   0  0  0  0  0  0  0  0  0  0  0  0
   -1.8650    0.5660    2.5650 C   0  0  2  0  0  0  0  0  0  0  0  0
   -3.0430    1.4210    2.1770 C   0  0  0  0  0  0  0  0  0  0  0  0
   -3.9180    1.0030    1.0920 C   0  0  1  0  0  0  0  0  0  0  0  0
   -5.0090    2.0790    0.9490 C   0  0  0  0  0  0  0  0  0  0  0  0
   -6.0410    1.5130    0.0280 C   0  0  0  0  0  0  0  0  0  0  0  0
   -5.0450    0.6140   -1.1420 S   0  0  2  0  0  0  0  0  0  0  0  0
   -4.9580    1.2690   -2.4630 O   0  0  0  0  0  0  0  0  0  0  0  0
   -5.5700   -0.7660   -1.2130 O   0  0  0  0  0  0  0  0  0  0  0  0
   -3.4530    0.6830   -0.2550 C   0  0  0  0  0  0  0  0  0  0  0  0
   -0.5400    0.9970    1.9090 C   0  0  2  0  0  0  0  0  0  0  0  0
   -0.7320    2.3780    1.2830 C   0  0  0  0  0  0  0  0  0  0  0  0
   -0.6430    2.4720    0.0880 O   0  0  0  0  0  0  0  0  0  0  0  0
   -0.2940    0.1680    0.8070 N   0  0  0  0  0  0  0  0  0  0  0  0
    0.8270    0.2580   -0.0840 C   0  0  0  0  0  0  0  0  0  0  0  0
    1.6060    1.1580    0.1980 O   0  0  0  0  0  0  0  0  0  0  0  0
    1.0140   -0.5970   -1.1680 N   0  0  0  0  0  0  0  0  0  0  0  0
    2.1110   -0.5540   -2.0520 C   0  0  0  0  0  0  0  0  0  0  0  0
    3.2340    0.2000   -1.7540 C   0  0  0  0  0  0  0  0  0  0  0  0
    4.3650    0.2500   -2.5690 C   0  0  0  0  0  0  0  0  0  0  0  0
    4.3910   -0.4800   -3.7380 C   0  0  0  0  0  0  0  0  0  0  0  0
    3.2880   -1.2320   -4.0490 C   0  0  0  0  0  0  0  0  0  0  0  0
    3.2970   -1.9550   -5.2140 C   0  0  0  0  0  0  0  0  0  0  0  0
    2.1900   -2.7290   -5.5770 C   0  0  0  0  0  0  0  0  0  0  0  0
    1.0920   -2.7620   -4.7620 C   0  0  0  0  0  0  0  0  0  0  0  0
    1.0580   -2.0390   -3.5780 C   0  0  0  0  0  0  0  0  0  0  0  0
    2.1500   -1.2870   -3.2370 C   0  0  0  0  0  0  0  0  0  0  0  0
    5.5220   -0.4480   -4.5720 N   0  0  0  0  0  0  0  0  0  0  0  0
    6.6350    0.3680   -4.1580 C   0  0  0  0  0  0  0  0  0  0  0  0
    7.7660    0.1460   -4.6470 O   0  0  0  0  0  0  0  0  0  0  0  0
    6.4400    1.4650   -3.1600 C   0  0  0  0  0  0  0  0  0  0  0  0
    5.4720    1.0300   -2.2170 O   0  0  0  0  0  0  0  0  0  0  0  0
    0.5490    1.2760    2.9000 C   0  0  1  0  0  0  0  0  0  0  0  0
    0.1880    2.4250    3.8570 C   0  0  0  0  0  0  0  0  0  0  0  0
    0.8660    0.1300    3.8450 C   0  0  0  0  0  0  0  0  0  0  0  0
  1  2  1  0
  2  3  1  0
  3  4  1  0
  4  5  1  0
  5  6  1  6
  5 14  1  0
  7  6  1  1
  7  8  1  0
  7 13  1  0
  8  9  1  0
 10  9  1  1
 10 11  2  0
 10 12  2  0
 10 13  1  0
 14 15  1  0
 14 17  1  6
 14 36  1  0
 15 16  2  0
 17 18  1  0
 18 19  2  0
 18 20  1  0
 20 21  1  0
 21 22  2  0
 21 30  1  0
 22 23  1  0
 23 24  2  0
 23 35  1  0
 24 25  1  0
 24 31  1  0
 25 26  2  0
 25 30  1  0
 26 27  1  0
 27 28  2  0
 28 29  1  0
 29 30  2  0
 31 32  1  0
 32 33  2  0
 32 34  1  0
 34 35  1  0
 36 37  1  1
 36 38  1  0
M  END
