
     RDKit          3D

 37 40  0  0  0  0  0  0  0  0999 V2000
  -10.8350    1.1760    0.0810 C   0  0  0  0  0  0  0  0  0  0  0  0
  -10.4520    0.3810   -0.8500 C   0  0  0  0  0  0  0  0  0  0  0  0
   -9.1250   -0.0830   -1.1990 C   0  0  0  0  0  0  0  0  0  0  0  0
   -9.0270   -0.8790   -2.2690 C   0  0  0  0  0  0  0  0  0  0  0  0
   -7.7860   -1.4630   -2.7930 C   0  0  0  0  0  0  0  0  0  0  0  0
   -7.9550    0.3740   -0.4890 C   0  0  0  0  0  0  0  0  0  0  0  0
   -7.9970    0.5500    0.8740 C   0  0  0  0  0  0  0  0  0  0  0  0
   -6.9360    1.1020    1.5690 C   0  0  0  0  0  0  0  0  0  0  0  0
   -5.8030    1.4820    0.8540 C   0  0  0  0  0  0  0  0  0  0  0  0
   -4.6400    2.0840    1.5550 C   0  0  2  0  0  0  0  0  0  0  0  0
   -4.6120    3.5880    1.4090 C   0  0  0  0  0  0  0  0  0  0  0  0
   -3.4140    1.5480    1.1170 O   0  0  0  0  0  0  0  0  0  0  0  0
   -2.6070    0.8650    2.0140 C   0  0  0  0  0  0  0  0  0  0  0  0
   -3.0250    0.7550    3.1930 O   0  0  0  0  0  0  0  0  0  0  0  0
   -1.3140    0.2770    1.6580 C   0  0  0  0  0  0  0  0  0  0  0  0
   -0.5620   -0.4060    2.5830 C   0  0  0  0  0  0  0  0  0  0  0  0
    0.6740   -0.9450    2.2200 C   0  0  0  0  0  0  0  0  0  0  0  0
    1.2020   -0.8330    0.9590 C   0  0  0  0  0  0  0  0  0  0  0  0
    2.4450   -1.3540    0.5370 N   0  0  0  0  0  0  0  0  0  0  0  0
    2.8900   -1.0640   -0.8140 C   0  0  0  0  0  0  0  0  0  0  0  0
    4.3610   -0.7070   -0.8750 C   0  0  0  0  0  0  0  0  0  0  0  0
    5.1430   -1.6350   -0.1050 N   0  0  0  0  0  0  0  0  0  0  0  0
    6.2100   -2.3360   -0.6830 C   0  0  0  0  0  0  0  0  0  0  0  0
    7.4350   -1.9080   -0.5690 C   0  0  0  0  0  0  0  0  0  0  0  0
    7.7610   -0.6730    0.1700 C   0  0  0  0  0  0  0  0  0  0  0  0
    8.4530    0.2660   -0.7420 C   0  0  0  0  0  0  0  0  0  0  0  0
    7.9250    1.3680   -1.3350 C   0  0  0  0  0  0  0  0  0  0  0  0
    8.9420    1.9420   -2.1030 C   0  0  0  0  0  0  0  0  0  0  0  0
   10.0310    1.1830   -1.9540 N   0  0  0  0  0  0  0  0  0  0  0  0
    9.7640    0.1710   -1.1430 C   0  0  0  0  0  0  0  0  0  0  0  0
   10.7430   -0.8890   -0.7450 C   0  0  0  0  0  0  0  0  0  0  0  0
    4.7400   -1.7920    1.2970 C   0  0  0  0  0  0  0  0  0  0  0  0
    3.2610   -2.1530    1.3890 C   0  0  0  0  0  0  0  0  0  0  0  0
    0.4080   -0.1420    0.0760 N   0  0  0  0  0  0  0  0  0  0  0  0
   -0.7770    0.3840    0.3960 C   0  0  0  0  0  0  0  0  0  0  0  0
   -5.7310    1.3170   -0.5100 C   0  0  0  0  0  0  0  0  0  0  0  0
   -6.8060    0.7640   -1.1810 C   0  0  0  0  0  0  0  0  0  0  0  0
  1  2  2  0
  2  3  1  0
  3  4  2  3
  3  6  1  0
  4  5  1  0
  6  7  2  0
  6 37  1  0
  7  8  1  0
  8  9  2  0
  9 10  1  0
  9 36  1  0
 10 11  1  6
 10 12  1  0
 12 13  1  0
 13 14  2  0
 13 15  1  0
 15 16  2  0
 15 35  1  0
 16 17  1  0
 17 18  2  0
 18 19  1  0
 18 34  1  0
 19 20  1  0
 19 33  1  0
 20 21  1  0
 21 22  1  0
 22 23  1  0
 22 32  1  0
 23 24  2  3
 24 25  1  0
 25 26  1  0
 26 27  1  0
 26 30  2  0
 27 28  2  0
 28 29  1  0
 29 30  1  0
 30 31  1  0
 32 33  1  0
 34 35  2  0
 36 37  2  0
M  END
