
     RDKit          3D

 37 40  0  0  0  0  0  0  0  0999 V2000
   -7.2470   -2.2000    0.6970 C   0  0  0  0  0  0  0  0  0  0  0  0
   -7.2520   -0.9030    0.5910 C   0  0  0  0  0  0  0  0  0  0  0  0
   -6.6480   -0.1400   -0.5090 C   0  0  0  0  0  0  0  0  0  0  0  0
   -5.6690    0.8320   -0.1500 N   0  0  0  0  0  0  0  0  0  0  0  0
   -4.3100    0.7730   -0.0200 C   0  0  0  0  0  0  0  0  0  0  0  0
   -3.7620    1.9430    0.2900 O   0  0  0  0  0  0  0  0  0  0  0  0
   -3.3860   -0.3370   -0.1650 C   0  0  0  0  0  0  0  0  0  0  0  0
   -3.7130   -1.6410   -0.3970 C   0  0  0  0  0  0  0  0  0  0  0  0
   -2.7470   -2.6460   -0.5400 C   0  0  0  0  0  0  0  0  0  0  0  0
   -1.4140   -2.3690   -0.4540 C   0  0  0  0  0  0  0  0  0  0  0  0
   -0.4030   -3.4480   -0.6070 C   0  0  1  0  0  0  0  0  0  0  0  0
   -1.1160   -4.7830   -0.6800 C   0  0  0  0  0  0  0  0  0  0  0  0
    0.3840   -3.3240   -1.8990 C   0  0  0  0  0  0  0  0  0  0  0  0
   -1.0530   -1.0350   -0.2180 C   0  0  0  0  0  0  0  0  0  0  0  0
    0.3420   -0.8060   -0.1440 N   0  0  0  0  0  0  0  0  0  0  0  0
    1.0020    0.4380    0.0380 C   0  0  0  0  0  0  0  0  0  0  0  0
    0.3030    1.4800    0.1500 O   0  0  0  0  0  0  0  0  0  0  0  0
    2.4630    0.5150    0.0940 C   0  0  0  0  0  0  0  0  0  0  0  0
    3.1120    0.4260    1.2970 C   0  0  0  0  0  0  0  0  0  0  0  0
    4.5150    0.5110    1.3760 C   0  0  0  0  0  0  0  0  0  0  0  0
    5.2870    0.3530    2.6150 C   0  0  0  0  0  0  0  0  0  0  0  0
    5.1840    0.6880    0.2050 C   0  0  0  0  0  0  0  0  0  0  0  0
    4.5320    0.7790   -1.0560 C   0  0  0  0  0  0  0  0  0  0  0  0
    3.1700    0.6910   -1.0920 C   0  0  0  0  0  0  0  0  0  0  0  0
    5.4040    0.9230   -2.2490 C   0  0  0  0  0  0  0  0  0  0  0  0
    6.4980   -0.1330   -2.0420 C   0  0  0  0  0  0  0  0  0  0  0  0
    7.3030    0.0420   -0.8220 C   0  0  0  0  0  0  0  0  0  0  0  0
    6.5960    0.8290    0.2180 N   0  0  0  0  0  0  0  0  0  0  0  0
    7.2080    1.6590    1.1840 C   0  0  0  0  0  0  0  0  0  0  0  0
    6.4180    2.7620    1.7940 C   0  0  0  0  0  0  0  0  0  0  0  0
   -1.9990   -0.0610   -0.0790 C   0  0  0  0  0  0  0  0  0  0  0  0
   -6.2570    2.1550    0.1190 C   0  0  0  0  0  0  0  0  0  0  0  0
   -6.8020    2.4340    1.3220 C   0  0  0  0  0  0  0  0  0  0  0  0
   -7.3550    3.6750    1.5810 C   0  0  0  0  0  0  0  0  0  0  0  0
   -7.3390    4.6030    0.6080 N   0  0  0  0  0  0  0  0  0  0  0  0
   -6.8110    4.3750   -0.6010 C   0  0  0  0  0  0  0  0  0  0  0  0
   -6.2600    3.1290   -0.8510 C   0  0  0  0  0  0  0  0  0  0  0  0
  1  2  2  0
  2  3  1  0
  3  4  1  0
  4  5  1  0
  4 32  1  0
  5  6  2  0
  5  7  1  0
  7  8  2  0
  7 31  1  0
  8  9  1  0
  9 10  2  0
 10 11  1  0
 10 14  1  0
 11 12  1  6
 11 13  1  0
 14 15  1  0
 14 31  2  0
 15 16  1  0
 16 17  2  0
 16 18  1  0
 18 19  2  0
 18 24  1  0
 19 20  1  0
 20 21  1  0
 20 22  2  0
 22 23  1  0
 22 28  1  0
 23 24  2  0
 23 25  1  0
 25 26  1  0
 26 27  1  0
 27 28  1  0
 28 29  1  0
 29 30  1  0
 32 33  2  0
 32 37  1  0
 33 34  1  0
 34 35  2  0
 35 36  1  0
 36 37  2  0
M  END
