
     RDKit          3D

 37 40  0  0  0  0  0  0  0  0999 V2000
   -7.7440    2.3940   -0.1550 C   0  0  0  0  0  0  0  0  0  0  0  0
   -6.5060    1.4910   -0.1940 C   0  0  0  0  0  0  0  0  0  0  0  0
   -5.3270    2.3720    0.1580 C   0  0  1  0  0  0  0  0  0  0  0  0
   -5.5940    2.9240    1.5480 C   0  0  0  0  0  0  0  0  0  0  0  0
   -4.0710    1.6000    0.2260 C   0  0  0  0  0  0  0  0  0  0  0  0
   -4.1440    0.2180    0.0370 C   0  0  0  0  0  0  0  0  0  0  0  0
   -3.0010   -0.5840    0.0890 C   0  0  0  0  0  0  0  0  0  0  0  0
   -3.0690   -1.9690   -0.1790 N   0  0  0  0  0  0  0  0  0  0  0  0
   -4.2610   -2.7170   -0.2490 C   0  0  0  0  0  0  0  0  0  0  0  0
   -5.5230   -2.3550   -0.1010 N   0  0  0  0  0  0  0  0  0  0  0  0
   -6.3640   -3.3840   -0.2440 C   0  0  0  0  0  0  0  0  0  0  0  0
   -5.5820   -4.4820   -0.5020 C   0  0  0  0  0  0  0  0  0  0  0  0
   -4.3140   -4.0610   -0.5010 N   0  0  0  0  0  0  0  0  0  0  0  0
   -3.1540   -4.8850   -0.7270 C   0  0  0  0  0  0  0  0  0  0  0  0
   -1.7990    0.0480    0.3370 C   0  0  0  0  0  0  0  0  0  0  0  0
   -0.5660   -0.6890    0.5230 C   0  0  0  0  0  0  0  0  0  0  0  0
   -0.5220   -1.9320    0.6060 O   0  0  0  0  0  0  0  0  0  0  0  0
    0.7200    0.0950    0.6090 C   0  0  2  0  0  0  0  0  0  0  0  0
    0.9840    0.7010   -0.7450 C   0  0  0  0  0  0  0  0  0  0  0  0
    2.1410    1.6650   -0.5620 C   0  0  0  0  0  0  0  0  0  0  0  0
    3.2920    0.8940   -0.1380 N   0  0  0  0  0  0  0  0  0  0  0  0
    4.4890    0.9850   -0.8720 C   0  0  0  0  0  0  0  0  0  0  0  0
    4.5070    1.7380   -1.8710 O   0  0  0  0  0  0  0  0  0  0  0  0
    5.6980    0.2480   -0.5270 C   0  0  0  0  0  0  0  0  0  0  0  0
    6.6000    0.8460    0.3360 C   0  0  0  0  0  0  0  0  0  0  0  0
    6.3260    2.2160    0.8880 C   0  0  0  0  0  0  0  0  0  0  0  0
    7.7430    0.1490    0.6660 C   0  0  0  0  0  0  0  0  0  0  0  0
    7.9990   -1.1170    0.1560 C   0  0  0  0  0  0  0  0  0  0  0  0
    9.2290   -1.8740    0.5090 C   0  0  0  0  0  0  0  0  0  0  0  0
    7.0590   -1.6520   -0.6980 C   0  0  0  0  0  0  0  0  0  0  0  0
    5.9020   -0.9930   -1.0560 C   0  0  0  0  0  0  0  0  0  0  0  0
    4.9190   -1.5810   -1.9710 C   0  0  0  0  0  0  0  0  0  0  0  0
    3.1210    0.0660    1.0390 C   0  0  0  0  0  0  0  0  0  0  0  0
    1.8960   -0.8380    0.8830 C   0  0  0  0  0  0  0  0  0  0  0  0
   -1.7630    1.4510    0.5240 C   0  0  0  0  0  0  0  0  0  0  0  0
   -2.8790    2.2260    0.4700 C   0  0  0  0  0  0  0  0  0  0  0  0
   -2.8420    3.7050    0.6660 C   0  0  0  0  0  0  0  0  0  0  0  0
  1  2  1  0
  2  3  1  0
  3  4  1  1
  3  5  1  0
  5  6  2  0
  5 36  1  0
  6  7  1  0
  7  8  1  0
  7 15  2  0
  8  9  1  0
  9 10  2  0
  9 13  1  0
 10 11  1  0
 11 12  2  0
 12 13  1  0
 13 14  1  0
 15 16  1  0
 15 35  1  0
 16 17  2  0
 18 16  1  6
 18 19  1  0
 18 34  1  0
 19 20  1  0
 20 21  1  0
 21 22  1  0
 21 33  1  0
 22 23  2  0
 22 24  1  0
 24 25  2  0
 24 31  1  0
 25 26  1  0
 25 27  1  0
 27 28  2  0
 28 29  1  0
 28 30  1  0
 30 31  2  0
 31 32  1  0
 33 34  1  0
 35 36  2  0
 36 37  1  0
M  END
