
     RDKit          3D

 37 40  0  0  0  0  0  0  0  0999 V2000
   -2.6140   -0.7790    3.9280 C   0  0  0  0  0  0  0  0  0  0  0  0
   -1.6740   -0.6020    2.7260 C   0  0  0  0  0  0  0  0  0  0  0  0
   -2.0080   -1.5190    1.6450 C   0  0  0  0  0  0  0  0  0  0  0  0
   -2.3370   -1.3320    0.4120 C   0  0  0  0  0  0  0  0  0  0  0  0
   -2.6140   -2.5830   -0.4130 C   0  0  0  0  0  0  0  0  0  0  0  0
   -2.4500   -0.1320   -0.3420 N   0  0  0  0  0  0  0  0  0  0  0  0
   -1.4100    0.7830   -0.4030 C   0  0  0  0  0  0  0  0  0  0  0  0
   -1.2620    2.0500    0.2630 C   0  0  0  0  0  0  0  0  0  0  0  0
   -0.0390    2.7740    0.0330 C   0  0  0  0  0  0  0  0  0  0  0  0
    1.1040    2.2190   -0.7210 C   0  0  0  0  0  0  0  0  0  0  0  0
    1.4120    2.7630   -1.8000 O   0  0  0  0  0  0  0  0  0  0  0  0
    1.8480    1.1160   -0.2630 N   0  0  0  0  0  0  0  0  0  0  0  0
    2.9370    0.4810   -0.8850 C   0  0  0  0  0  0  0  0  0  0  0  0
    3.1650    0.5790   -2.2250 C   0  0  0  0  0  0  0  0  0  0  0  0
    4.2380   -0.0180   -2.8600 C   0  0  0  0  0  0  0  0  0  0  0  0
    5.1250   -0.7540   -2.0830 C   0  0  0  0  0  0  0  0  0  0  0  0
    4.9460   -0.8860   -0.7400 C   0  0  0  0  0  0  0  0  0  0  0  0
    5.8550   -1.6350    0.0260 N   0  0  0  0  0  0  0  0  0  0  0  0
    6.7430   -2.5920   -0.5650 C   0  0  0  0  0  0  0  0  0  0  0  0
    8.1660   -2.1650   -0.2820 C   0  0  0  0  0  0  0  0  0  0  0  0
    8.4010   -1.7840    0.9610 C   0  0  0  0  0  0  0  0  0  0  0  0
    7.3410   -1.7860    1.9750 C   0  0  0  0  0  0  0  0  0  0  0  0
    5.9630   -1.4600    1.4710 C   0  0  0  0  0  0  0  0  0  0  0  0
    3.8420   -0.2630   -0.1390 C   0  0  0  0  0  0  0  0  0  0  0  0
   -0.1150    3.9470    0.6790 C   0  0  0  0  0  0  0  0  0  0  0  0
   -1.3060    4.0170    1.3090 C   0  0  0  0  0  0  0  0  0  0  0  0
   -2.0000    2.8360    1.0410 N   0  0  0  0  0  0  0  0  0  0  0  0
   -3.2730    2.7150    1.6110 C   0  0  0  0  0  0  0  0  0  0  0  0
   -4.2740    1.6650    1.5460 C   0  0  0  0  0  0  0  0  0  0  0  0
   -3.6840    3.7120    2.3480 O   0  0  0  0  0  0  0  0  0  0  0  0
   -3.6790    0.0100   -1.1160 C   0  0  0  0  0  0  0  0  0  0  0  0
   -4.7870   -0.7600   -0.8790 C   0  0  0  0  0  0  0  0  0  0  0  0
   -5.9350   -0.6070   -1.6460 C   0  0  0  0  0  0  0  0  0  0  0  0
   -5.9920    0.3180   -2.6620 C   0  0  0  0  0  0  0  0  0  0  0  0
   -7.2420    0.4650   -3.4720 C   0  0  0  0  0  0  0  0  0  0  0  0
   -4.8730    1.0720   -2.8750 C   0  0  0  0  0  0  0  0  0  0  0  0
   -3.7260    0.9420   -2.1320 C   0  0  0  0  0  0  0  0  0  0  0  0
  1  2  1  0
  2  3  1  0
  3  4  2  3
  4  5  1  0
  4  6  1  0
  6  7  1  0
  6 31  1  0
  7  8  1  0
  8  9  2  0
  8 27  1  0
  9 10  1  0
  9 25  1  0
 10 11  2  0
 10 12  1  0
 12 13  1  0
 13 14  2  0
 13 24  1  0
 14 15  1  0
 15 16  2  0
 16 17  1  0
 17 18  1  0
 17 24  2  0
 18 19  1  0
 18 23  1  0
 19 20  1  0
 20 21  2  0
 21 22  1  0
 22 23  1  0
 25 26  2  0
 26 27  1  0
 27 28  1  0
 28 29  1  0
 28 30  2  0
 31 32  2  0
 31 37  1  0
 32 33  1  0
 33 34  2  0
 34 35  1  0
 34 36  1  0
 36 37  2  0
M  END
