
     RDKit          3D

 37 40  0  0  0  0  0  0  0  0999 V2000
   -9.6570   -0.4980   -1.1110 C   0  0  0  0  0  0  0  0  0  0  0  0
   -8.9340   -0.0610    0.1890 C   0  0  0  0  0  0  0  0  0  0  0  0
   -7.9760   -0.8440    0.5590 C   0  0  0  0  0  0  0  0  0  0  0  0
   -7.0500   -0.8240    1.6960 C   0  0  0  0  0  0  0  0  0  0  0  0
   -5.7090   -0.7480    1.4080 O   0  0  0  0  0  0  0  0  0  0  0  0
   -4.8270   -1.5620    0.7730 C   0  0  0  0  0  0  0  0  0  0  0  0
   -5.1730   -2.7900    0.2610 C   0  0  0  0  0  0  0  0  0  0  0  0
   -4.1970   -3.5330   -0.3690 C   0  0  0  0  0  0  0  0  0  0  0  0
   -2.9110   -3.0680   -0.4860 C   0  0  0  0  0  0  0  0  0  0  0  0
   -2.5200   -1.8440    0.0130 C   0  0  0  0  0  0  0  0  0  0  0  0
   -1.1440   -1.3800   -0.1280 C   0  0  0  0  0  0  0  0  0  0  0  0
   -0.0860   -2.0250   -0.7290 C   0  0  0  0  0  0  0  0  0  0  0  0
    1.0470   -1.2300   -0.6420 C   0  0  0  0  0  0  0  0  0  0  0  0
    2.4020   -1.5190   -1.1480 C   0  0  0  0  0  0  0  0  0  0  0  0
    2.5590   -2.6320   -1.7360 O   0  0  0  0  0  0  0  0  0  0  0  0
    3.4300   -0.6200   -0.9830 N   0  0  0  0  0  0  0  0  0  0  0  0
    3.2250    0.6480   -0.3080 C   0  0  0  0  0  0  0  0  0  0  0  0
    4.5010    1.4540   -0.4990 C   0  0  0  0  0  0  0  0  0  0  0  0
    5.6690    0.7830    0.0570 N   0  0  0  0  0  0  0  0  0  0  0  0
    6.8690    1.3590   -0.5200 C   0  0  0  0  0  0  0  0  0  0  0  0
    8.1100    0.8790    0.1210 C   0  0  0  0  0  0  0  0  0  0  0  0
    8.0910    0.0390    1.2030 C   0  0  0  0  0  0  0  0  0  0  0  0
    9.2590   -0.3990    1.8350 C   0  0  0  0  0  0  0  0  0  0  0  0
   10.4480    0.0410    1.3380 C   0  0  0  0  0  0  0  0  0  0  0  0
   10.4790    0.8790    0.2620 C   0  0  0  0  0  0  0  0  0  0  0  0
   11.7760    1.3750   -0.3010 C   0  0  0  0  0  0  0  0  0  0  0  0
    9.3360    1.3130   -0.3640 C   0  0  0  0  0  0  0  0  0  0  0  0
    9.3860    2.2340   -1.5470 C   0  0  0  0  0  0  0  0  0  0  0  0
    5.6900   -0.6280   -0.2800 C   0  0  0  0  0  0  0  0  0  0  0  0
    4.7670   -0.8790   -1.4640 C   0  0  0  0  0  0  0  0  0  0  0  0
    0.6420   -0.1210    0.0110 N   0  0  0  0  0  0  0  0  0  0  0  0
   -0.6550   -0.2120    0.3140 N   0  0  0  0  0  0  0  0  0  0  0  0
   -3.4920   -1.1140    0.6350 C   0  0  0  0  0  0  0  0  0  0  0  0
   -9.4600    1.1590    0.7510 C   0  0  2  0  0  0  0  0  0  0  0  0
   -8.7020    1.7460    1.8900 C   0  0  0  0  0  0  0  0  0  0  0  0
  -10.9270    0.9370    1.1710 C   0  0  0  0  0  0  0  0  0  0  0  0
   -9.5550    2.2720   -0.3140 C   0  0  0  0  0  0  0  0  0  0  0  0
  1  2  1  0
  2  3  2  3
  2 34  1  0
  3  4  1  0
  4  5  1  0
  5  6  1  0
  6  7  2  0
  6 33  1  0
  7  8  1  0
  8  9  2  0
  9 10  1  0
 10 11  1  0
 10 33  2  0
 11 12  2  0
 11 32  1  0
 12 13  1  0
 13 14  1  0
 13 31  2  0
 14 15  2  0
 14 16  1  0
 16 17  1  0
 16 30  1  0
 17 18  1  0
 18 19  1  0
 19 20  1  0
 19 29  1  0
 20 21  1  0
 21 22  2  0
 21 27  1  0
 22 23  1  0
 23 24  2  0
 24 25  1  0
 25 26  1  0
 25 27  2  0
 27 28  1  0
 29 30  1  0
 31 32  1  0
 34 35  1  1
 34 36  1  0
 34 37  1  0
M  END
