
     RDKit          3D

 36 39  0  0  0  0  0  0  0  0999 V2000
   -6.0970   -1.9160   -0.2500 C   0  0  0  0  0  0  0  0  0  0  0  0
   -4.7630   -2.3040    0.3420 C   0  0  1  0  0  0  0  0  0  0  0  0
   -4.3360   -3.6830   -0.0710 C   0  0  0  0  0  0  0  0  0  0  0  0
   -3.7200   -3.7050   -1.4500 C   0  0  0  0  0  0  0  0  0  0  0  0
   -3.5580   -2.3800   -1.9870 N   0  0  0  0  0  0  0  0  0  0  0  0
   -2.7500   -1.6310   -0.9890 C   0  0  1  0  0  0  0  0  0  0  0  0
   -2.0660   -0.5110   -1.6780 C   0  0  0  0  0  0  0  0  0  0  0  0
   -1.1910    0.3630   -0.8680 C   0  0  0  0  0  0  0  0  0  0  0  0
    0.1070    0.1180   -0.7870 C   0  0  0  0  0  0  0  0  0  0  0  0
    1.0390    0.9380   -0.0140 C   0  0  0  0  0  0  0  0  0  0  0  0
    0.6440    1.9250    0.6190 O   0  0  0  0  0  0  0  0  0  0  0  0
    2.4410    0.6650    0.0620 N   0  0  0  0  0  0  0  0  0  0  0  0
    3.3500    1.4710    0.8270 C   0  0  0  0  0  0  0  0  0  0  0  0
    4.7480    0.8610    0.6580 C   0  0  0  0  0  0  0  0  0  0  0  0
    4.7300   -0.5020    1.1420 N   0  0  1  0  0  0  0  0  0  0  0  0
    5.0990   -1.3840    0.0940 C   0  0  0  0  0  0  0  0  0  0  0  0
    6.3640   -2.1640    0.3860 C   0  0  0  0  0  0  0  0  0  0  0  0
    7.3590   -1.2190    0.8230 N   0  0  0  0  0  0  0  0  0  0  0  0
    8.6080   -1.0620    0.1330 C   0  0  0  0  0  0  0  0  0  0  0  0
    7.0060   -0.4650    1.9780 C   0  0  0  0  0  0  0  0  0  0  0  0
    7.8410    0.2060    2.6230 O   0  0  0  0  0  0  0  0  0  0  0  0
    5.5510   -0.5570    2.3360 C   0  0  0  0  0  0  0  0  0  0  0  0
    0.6950   -1.0840   -1.4700 C   0  0  1  0  0  0  0  0  0  0  0  0
    1.6690   -0.7320   -2.3770 F   0  0  0  0  0  0  0  0  0  0  0  0
    1.3730   -1.8420   -0.4870 F   0  0  0  0  0  0  0  0  0  0  0  0
   -1.7520    1.5210   -0.2330 N   0  0  0  0  0  0  0  0  0  0  0  0
   -2.1360    1.6390    1.1200 C   0  0  0  0  0  0  0  0  0  0  0  0
   -2.1750    3.0830    1.6430 C   0  0  0  0  0  0  0  0  0  0  0  0
   -3.1920    3.7780    0.8110 C   0  0  0  0  0  0  0  0  0  0  0  0
   -4.2000    4.5490    1.0900 C   0  0  0  0  0  0  0  0  0  0  0  0
   -4.6500    4.9730    2.2960 F   0  0  0  0  0  0  0  0  0  0  0  0
   -4.8330    4.9210   -0.1980 C   0  0  0  0  0  0  0  0  0  0  0  0
   -4.0170    4.2350   -1.2290 C   0  0  0  0  0  0  0  0  0  0  0  0
   -3.0480    3.5600   -0.6420 C   0  0  0  0  0  0  0  0  0  0  0  0
   -1.9470    2.7100   -1.0950 C   0  0  0  0  0  0  0  0  0  0  0  0
   -3.6950   -1.2610    0.0860 C   0  0  0  0  0  0  0  0  0  0  0  0
  2  1  1  6
  2  3  1  0
  2 36  1  0
  3  4  1  0
  4  5  1  0
  5  6  1  0
  6  7  1  6
  6 36  1  0
  7  8  1  0
  8  9  2  3
  8 26  1  0
  9 10  1  0
  9 23  1  0
 10 11  2  0
 10 12  1  0
 12 13  1  0
 13 14  1  0
 15 14  1  6
 15 16  1  0
 15 22  1  0
 16 17  1  0
 17 18  1  0
 18 19  1  0
 18 20  1  0
 20 21  2  0
 20 22  1  0
 23 24  1  6
 23 25  1  0
 26 27  1  0
 26 35  1  0
 27 28  1  0
 28 29  1  0
 29 30  2  0
 29 34  1  0
 30 31  1  0
 30 32  1  0
 32 33  1  0
 33 34  2  0
 34 35  1  0
M  CHG  2   5   1  15   1
M  END
