
     RDKit          3D

 36 39  0  0  0  0  0  0  0  0999 V2000
   -6.8110   -3.2070   -0.8190 C   0  0  0  0  0  0  0  0  0  0  0  0
   -7.4480   -2.1440   -0.5440 C   0  0  0  0  0  0  0  0  0  0  0  0
   -6.9410   -0.7970   -0.4430 C   0  0  0  0  0  0  0  0  0  0  0  0
   -7.7250    0.2820   -0.1450 C   0  0  0  0  0  0  0  0  0  0  0  0
   -9.1280    0.6590    0.1640 C   0  0  0  0  0  0  0  0  0  0  0  0
   -9.1780    2.0510   -0.2410 N   0  0  0  0  0  0  0  0  0  0  0  0
   -7.9380    2.6060    0.2430 C   0  0  0  0  0  0  0  0  0  0  0  0
   -6.9680    1.4950   -0.1010 C   0  0  0  0  0  0  0  0  0  0  0  0
   -5.7180    1.2220   -0.3650 C   0  0  0  0  0  0  0  0  0  0  0  0
   -5.6080   -0.2310   -0.5970 C   0  0  0  0  0  0  0  0  0  0  0  0
   -4.4780   -0.8340   -0.8720 C   0  0  0  0  0  0  0  0  0  0  0  0
   -3.2960   -0.0680   -0.9740 N   0  0  0  0  0  0  0  0  0  0  0  0
   -2.6430    0.4070    0.0570 C   0  0  0  0  0  0  0  0  0  0  0  0
   -1.4320    1.1840   -0.3040 C   0  0  0  0  0  0  0  0  0  0  0  0
   -0.5210    0.2030   -0.9020 N   0  0  0  0  0  0  0  0  0  0  0  0
   -0.0270   -0.6930    0.0950 C   0  0  0  0  0  0  0  0  0  0  0  0
    0.9950   -0.1130    1.0200 C   0  0  0  0  0  0  0  0  0  0  0  0
    2.2240    0.2950    0.2270 C   0  0  0  0  0  0  0  0  0  0  0  0
    2.8590   -0.7780   -0.4810 N   0  0  2  0  0  0  0  0  0  0  0  0
    2.9840   -2.0060    0.2190 C   0  0  0  0  0  0  0  0  0  0  0  0
    4.4540   -2.3470    0.2130 C   0  0  0  0  0  0  0  0  0  0  0  0
    5.1080   -0.9710    0.1500 C   0  0  1  0  0  0  0  0  0  0  0  0
    6.4640   -1.0350   -0.3980 C   0  0  0  0  0  0  0  0  0  0  0  0
    6.8580   -2.1490   -0.8390 O   0  0  0  0  0  0  0  0  0  0  0  0
    7.3160    0.0890   -0.4410 N   0  0  0  0  0  0  0  0  0  0  0  0
    6.9780    1.4150    0.0190 C   0  0  0  0  0  0  0  0  0  0  0  0
    8.0860    2.0260    0.8590 C   0  0  0  0  0  0  0  0  0  0  0  0
    9.3500    1.7050    0.4440 O   0  0  0  0  0  0  0  0  0  0  0  0
    9.5770    0.3780    0.1820 C   0  0  0  0  0  0  0  0  0  0  0  0
    8.6570   -0.0760   -0.9670 C   0  0  0  0  0  0  0  0  0  0  0  0
    4.1860   -0.3230   -0.8810 C   0  0  0  0  0  0  0  0  0  0  0  0
   -3.1040    0.0920    1.3860 C   0  0  0  0  0  0  0  0  0  0  0  0
   -4.1810   -0.7830    1.5430 F   0  0  0  0  0  0  0  0  0  0  0  0
   -2.6140    0.5170    2.5250 C   0  0  0  0  0  0  0  0  0  0  0  0
   -3.1870    0.1040    3.7080 F   0  0  0  0  0  0  0  0  0  0  0  0
   -1.5850    1.3680    2.6590 F   0  0  0  0  0  0  0  0  0  0  0  0
  1  2  2  0
  2  3  1  0
  3  4  2  0
  3 10  1  0
  4  5  1  0
  4  8  1  0
  5  6  1  0
  6  7  1  0
  7  8  1  0
  8  9  2  0
  9 10  1  0
 10 11  2  3
 11 12  1  0
 12 13  2  3
 13 14  1  0
 13 32  1  0
 14 15  1  0
 15 16  1  0
 16 17  1  0
 17 18  1  0
 19 18  1  1
 19 20  1  0
 19 31  1  0
 20 21  1  0
 21 22  1  0
 22 23  1  6
 22 31  1  0
 23 24  2  0
 23 25  1  0
 25 26  1  0
 25 30  1  0
 26 27  1  0
 27 28  1  0
 28 29  1  0
 29 30  1  0
 32 33  1  0
 32 34  2  3
 34 35  1  0
 34 36  1  0
M  CHG  2   6   1  19   1
M  END
