
     RDKit          3D

 36 38  0  0  0  0  0  0  0  0999 V2000
    4.9470    3.7240   -2.9260 C   0  0  0  0  0  0  0  0  0  0  0  0
    3.8350    2.7370   -3.0950 C   0  0  0  0  0  0  0  0  0  0  0  0
    3.5960    2.0210   -1.7570 C   0  0  0  0  0  0  0  0  0  0  0  0
    3.7600    0.7600   -1.7720 C   0  0  0  0  0  0  0  0  0  0  0  0
    3.6390   -0.3020   -0.7460 C   0  0  0  0  0  0  0  0  0  0  0  0
    3.9180   -1.5710   -1.1920 C   0  0  0  0  0  0  0  0  0  0  0  0
    3.9130   -2.8330   -0.4910 C   0  0  0  0  0  0  0  0  0  0  0  0
    2.9350   -3.6580   -0.1800 C   0  0  0  0  0  0  0  0  0  0  0  0
    1.6360   -3.5750   -0.4280 O   0  0  0  0  0  0  0  0  0  0  0  0
    0.6660   -3.9050   -1.3090 C   0  0  0  0  0  0  0  0  0  0  0  0
   -0.6440   -4.0770   -0.5280 C   0  0  1  0  0  0  0  0  0  0  0  0
   -0.4710   -4.9650    0.6520 C   0  0  0  0  0  0  0  0  0  0  0  0
   -1.0630   -2.7260   -0.2310 N   0  0  0  0  0  0  0  0  0  0  0  0
   -0.2990   -2.0500    0.7760 C   0  0  0  0  0  0  0  0  0  0  0  0
    0.0140   -0.6790    0.2860 C   0  0  1  0  0  0  0  0  0  0  0  0
   -1.3870   -0.0680    0.0060 C   0  0  0  0  0  0  0  0  0  0  0  0
   -2.0220    0.2330    1.2910 N   0  0  0  0  0  0  0  0  0  0  0  0
   -3.3980    0.1100    1.5700 C   0  0  0  0  0  0  0  0  0  0  0  0
   -3.9470   -1.0360    2.0370 N   0  0  0  0  0  0  0  0  0  0  0  0
   -5.2610   -1.1290    2.2990 C   0  0  0  0  0  0  0  0  0  0  0  0
   -6.1080   -0.0660    2.1060 C   0  0  0  0  0  0  0  0  0  0  0  0
   -5.5870    1.1310    1.6280 C   0  0  0  0  0  0  0  0  0  0  0  0
   -4.2570    1.2110    1.3670 C   0  0  0  0  0  0  0  0  0  0  0  0
   -3.6390    2.3800    0.8760 N   0  0  0  0  0  0  0  0  0  0  0  0
   -4.2900    3.6010    0.5950 C   0  0  0  0  0  0  0  0  0  0  0  0
   -3.5160    4.7930    0.0690 C   0  0  0  0  0  0  0  0  0  0  0  0
   -5.4990    3.7910    0.7480 O   0  0  0  0  0  0  0  0  0  0  0  0
   -1.1510    0.7070    2.3840 C   0  0  0  0  0  0  0  0  0  0  0  0
    0.0350    1.2870    1.7140 C   0  0  0  0  0  0  0  0  0  0  0  0
    0.8190    0.1790    1.0890 N   0  0  0  0  0  0  0  0  0  0  0  0
    2.2070    0.1810    1.3570 C   0  0  0  0  0  0  0  0  0  0  0  0
    3.2730   -0.0050    0.6240 C   0  0  0  0  0  0  0  0  0  0  0  0
    3.2000    2.8740   -0.6490 C   0  0  2  0  0  0  0  0  0  0  0  0
    3.4670    4.2170   -1.0220 F   0  0  0  0  0  0  0  0  0  0  0  0
    3.9310    2.6390    0.5020 F   0  0  0  0  0  0  0  0  0  0  0  0
    1.8660    2.7980   -0.3800 F   0  0  0  0  0  0  0  0  0  0  0  0
  1  2  1  0
  2  3  1  0
  3  4  2  3
  3 33  1  0
  4  5  1  0
  5  6  2  0
  5 32  1  0
  6  7  1  0
  7  8  2  0
  8  9  1  0
  9 10  1  0
 10 11  1  0
 11 12  1  1
 11 13  1  0
 13 14  1  0
 15 14  1  1
 15 16  1  0
 15 30  1  0
 16 17  1  0
 17 18  1  0
 17 28  1  0
 18 19  2  0
 18 23  1  0
 19 20  1  0
 20 21  2  0
 21 22  1  0
 22 23  2  0
 23 24  1  0
 24 25  1  0
 25 26  1  0
 25 27  2  0
 28 29  1  0
 29 30  1  0
 30 31  1  0
 31 32  2  0
 33 34  1  6
 33 35  1  0
 33 36  1  0
M  CHG  2  13   1  19   1
M  END
