
     RDKit          3D

 22 24  0  0  0  0  0  0  0  0999 V2000
   -6.0310   -0.5250    0.0920 N   0  0  0  0  0  0  0  0  0  0  0  0
   -4.8030   -1.2740   -0.0570 C   0  0  0  0  0  0  0  0  0  0  0  0
   -3.6090   -0.3990    0.0630 C   0  0  0  0  0  0  0  0  0  0  0  0
   -3.1510   -0.0650    1.3130 C   0  0  0  0  0  0  0  0  0  0  0  0
   -2.0360    0.7550    1.4590 C   0  0  0  0  0  0  0  0  0  0  0  0
   -1.3630    1.2540    0.3640 C   0  0  0  0  0  0  0  0  0  0  0  0
   -0.1920    2.1340    0.5190 C   0  0  0  0  0  0  0  0  0  0  0  0
    1.0760    1.4120    0.5810 N   0  0  0  0  0  0  0  0  0  0  0  0
    1.1850    0.0100    0.6010 C   0  0  0  0  0  0  0  0  0  0  0  0
    0.1350   -0.6830    0.5870 O   0  0  0  0  0  0  0  0  0  0  0  0
    2.5150   -0.7060    0.6460 C   0  0  0  0  0  0  0  0  0  0  0  0
    2.6110   -1.6370    1.6960 C   0  0  0  0  0  0  0  0  0  0  0  0
    4.3520   -2.1650    1.5160 S   0  0  0  0  0  0  0  0  0  0  0  0
    4.7560   -1.1430    0.1250 C   0  0  0  0  0  0  0  0  0  0  0  0
    5.8940   -0.9980   -0.6060 N   0  0  0  0  0  0  0  0  0  0  0  0
    5.9020   -0.1550   -1.6490 C   0  0  0  0  0  0  0  0  0  0  0  0
    4.7790    0.5080   -1.9230 N   0  0  0  0  0  0  0  0  0  0  0  0
    3.6440    0.3920   -1.2280 C   0  0  0  0  0  0  0  0  0  0  0  0
    2.6500    1.0760   -1.6020 O   0  0  0  0  0  0  0  0  0  0  0  0
    3.5810   -0.4830   -0.1120 C   0  0  0  0  0  0  0  0  0  0  0  0
   -1.8520    0.8970   -0.8840 C   0  0  0  0  0  0  0  0  0  0  0  0
   -2.9520    0.0870   -1.0410 C   0  0  0  0  0  0  0  0  0  0  0  0
  1  2  1  0
  2  3  1  0
  3  4  2  0
  3 22  1  0
  4  5  1  0
  5  6  2  0
  6  7  1  0
  6 21  1  0
  7  8  1  0
  8  9  1  0
  9 10  2  0
  9 11  1  0
 11 12  2  0
 11 20  1  0
 12 13  1  0
 13 14  1  0
 14 15  1  0
 14 20  2  0
 15 16  2  0
 16 17  1  0
 17 18  1  0
 18 19  2  0
 18 20  1  0
 21 22  2  0
M  END
