
     RDKit          3D

 27 28  0  0  0  0  0  0  0  0999 V2000
    4.7000   -0.8250    2.8610 C   0  0  0  0  0  0  0  0  0  0  0  0
    5.1770   -1.2480    1.6330 O   0  0  0  0  0  0  0  0  0  0  0  0
    4.2070   -1.3690    0.6650 C   0  0  0  0  0  0  0  0  0  0  0  0
    3.5110   -0.0730    0.3910 C   0  0  2  0  0  0  0  0  0  0  0  0
    2.5210   -0.3260   -0.6430 N   0  0  0  0  0  0  0  0  0  0  0  0
    1.2280   -0.6750   -0.0920 C   0  0  2  0  0  0  0  0  0  0  0  0
    0.4260   -1.3270   -1.1630 C   0  0  0  0  0  0  0  0  0  0  0  0
   -1.0040   -1.6110   -0.7780 C   0  0  2  0  0  0  0  0  0  0  0  0
   -1.8150   -1.4660   -1.9630 N   0  0  0  0  0  0  0  0  0  0  0  0
   -1.4790   -0.8020    0.3670 C   0  0  2  0  0  0  0  0  0  0  0  0
   -2.9720   -0.6650    0.5000 C   0  0  0  0  0  0  0  0  0  0  0  0
   -3.6690   -1.9760    0.6700 C   0  0  0  0  0  0  0  0  0  0  0  0
   -3.8970   -2.5350    1.8610 N   0  0  0  0  0  0  0  0  0  0  0  0
   -4.5350   -3.6900    1.6270 C   0  0  0  0  0  0  0  0  0  0  0  0
   -4.6740   -3.7920    0.3030 N   0  0  0  0  0  0  0  0  0  0  0  0
   -4.1510   -2.7620   -0.2380 O   0  0  0  0  0  0  0  0  0  0  0  0
   -0.8810    0.5790    0.4510 C   0  0  2  0  0  0  0  0  0  0  0  0
   -1.3420    1.4730   -0.5860 N   0  0  0  0  0  0  0  0  0  0  0  0
   -2.1130    2.6230   -0.2710 C   0  0  0  0  0  0  0  0  0  0  0  0
   -2.3980    2.8610    0.9360 O   0  0  0  0  0  0  0  0  0  0  0  0
   -2.5650    3.5030   -1.2950 N   0  0  0  0  0  0  0  0  0  0  0  0
   -3.3470    4.6530   -0.8910 C   0  0  0  0  0  0  0  0  0  0  0  0
   -4.4850    4.1990   -0.2460 O   0  0  0  0  0  0  0  0  0  0  0  0
    0.6200    0.5700    0.4760 C   0  0  0  0  0  0  0  0  0  0  0  0
    4.5010    0.8690   -0.2070 C   0  0  0  0  0  0  0  0  0  0  0  0
    4.4130    1.3650   -1.5240 N   0  0  0  0  0  0  0  0  0  0  0  0
    5.4640    1.2400    0.5030 O   0  0  0  0  0  0  0  0  0  0  0  0
  1  2  1  0
  2  3  1  0
  4  3  1  6
  4  5  1  0
  4 25  1  0
  6  5  1  6
  6  7  1  0
  6 24  1  0
  7  8  1  0
  8  9  1  6
  8 10  1  0
 10 11  1  6
 10 17  1  0
 11 12  1  0
 12 13  2  0
 12 16  1  0
 13 14  1  0
 14 15  2  0
 15 16  1  0
 17 18  1  6
 17 24  1  0
 18 19  1  0
 19 20  2  0
 19 21  1  0
 21 22  1  0
 22 23  1  0
 25 26  1  0
 25 27  2  0
M  CHG  2   5   1   9   1
M  END
