
     RDKit          3D

 26 27  0  0  0  0  0  0  0  0999 V2000
    4.3800    1.9450   -1.9360 N   0  0  0  0  0  0  0  0  0  0  0  0
    3.4540    0.9030   -1.4250 C   0  0  0  0  0  0  0  0  0  0  0  0
    4.2340    0.1090   -0.4460 C   0  0  0  0  0  0  0  0  0  0  0  0
    3.5890   -1.0330    0.2220 C   0  0  1  0  0  0  0  0  0  0  0  0
    3.1470   -2.0330   -0.6470 O   0  0  0  0  0  0  0  0  0  0  0  0
    4.7350   -1.7410    1.0150 C   0  0  0  0  0  0  0  0  0  0  0  0
    5.7660   -2.1790    0.0960 N   0  0  0  0  0  0  0  0  0  0  0  0
    2.4970   -0.7640    1.1880 C   0  0  0  0  0  0  0  0  0  0  0  0
    1.2480   -0.3820    0.5740 N   0  0  0  0  0  0  0  0  0  0  0  0
    0.0930   -0.0620    1.3370 C   0  0  0  0  0  0  0  0  0  0  0  0
    0.1910   -0.1210    2.5890 O   0  0  0  0  0  0  0  0  0  0  0  0
   -1.2030    0.3350    0.6840 C   0  0  1  0  0  0  0  0  0  0  0  0
   -1.5490   -0.6870   -0.3140 C   0  0  0  0  0  0  0  0  0  0  0  0
   -2.4860   -1.5200   -0.3100 N   0  0  0  0  0  0  0  0  0  0  0  0
   -3.5030   -1.8220    0.5390 N   0  0  0  0  0  0  0  0  0  0  0  0
   -4.7880   -1.2350    0.3470 C   0  0  0  0  0  0  0  0  0  0  0  0
   -5.5010   -1.0430    1.3950 O   0  0  0  0  0  0  0  0  0  0  0  0
   -5.3890   -0.8270   -0.9200 C   0  0  2  0  0  0  0  0  0  0  0  0
   -4.7200   -0.1650   -2.0260 C   0  0  0  0  0  0  0  0  0  0  0  0
   -5.5120    0.6840   -1.0540 C   0  0  2  0  0  0  0  0  0  0  0  0
   -4.7530    1.4550   -0.0330 C   0  0  0  0  0  0  0  0  0  0  0  0
   -3.6350    2.1230   -0.5560 O   0  0  0  0  0  0  0  0  0  0  0  0
   -2.9610    2.7360    0.4970 C   0  0  0  0  0  0  0  0  0  0  0  0
   -2.8450    1.8700    1.6930 C   0  0  0  0  0  0  0  0  0  0  0  0
   -3.3280    2.2250    2.8220 O   0  0  0  0  0  0  0  0  0  0  0  0
   -2.1970    0.6030    1.6660 N   0  0  0  0  0  0  0  0  0  0  0  0
  1  2  1  0
  2  3  1  0
  3  4  1  0
  4  5  1  6
  4  6  1  0
  4  8  1  0
  6  7  1  0
  8  9  1  0
  9 10  1  0
 10 11  2  0
 12 10  1  1
 12 13  1  0
 12 26  1  0
 13 14  2  0
 14 15  1  0
 15 16  1  0
 16 17  2  0
 16 18  1  0
 18 19  1  6
 18 20  1  0
 20 19  1  6
 20 21  1  0
 21 22  1  0
 22 23  1  0
 23 24  1  0
 24 25  2  0
 24 26  1  0
M  CHG  2   1   1   7   1
M  END
