
     RDKit          3D

 27 29  0  0  0  0  0  0  0  0999 V2000
    7.6230   -1.2460   -0.1720 C   0  0  0  0  0  0  0  0  0  0  0  0
    7.0050    0.0870    0.1010 C   0  0  0  0  0  0  0  0  0  0  0  0
    7.6840    1.1460    0.5710 N   0  0  0  0  0  0  0  0  0  0  0  0
    6.7690    2.1510    0.6800 C   0  0  0  0  0  0  0  0  0  0  0  0
    5.5680    1.6960    0.2810 N   0  0  0  0  0  0  0  0  0  0  0  0
    5.6830    0.4120   -0.0860 C   0  0  0  0  0  0  0  0  0  0  0  0
    4.6630   -0.4960   -0.5840 C   0  0  0  0  0  0  0  0  0  0  0  0
    4.9430   -1.6830   -0.8850 O   0  0  0  0  0  0  0  0  0  0  0  0
    3.3010   -0.0500   -0.7430 N   0  0  0  0  0  0  0  0  0  0  0  0
    2.3410   -0.9920   -1.2380 C   0  0  0  0  0  0  0  0  0  0  0  0
    0.9510   -0.5170   -1.3560 C   0  0  0  0  0  0  0  0  0  0  0  0
    0.2260   -0.1320   -0.1060 C   0  0  1  0  0  0  0  0  0  0  0  0
    0.8030    0.9310    0.6400 N   0  0  0  0  0  0  0  0  0  0  0  0
   -1.2620    0.0700   -0.3860 C   0  0  1  0  0  0  0  0  0  0  0  0
   -1.7410   -1.0300   -1.1410 O   0  0  0  0  0  0  0  0  0  0  0  0
   -2.0230    0.0810    0.8810 C   0  0  2  0  0  0  0  0  0  0  0  0
   -1.9130   -1.0940    1.7040 N   0  0  0  0  0  0  0  0  0  0  0  0
   -3.0940   -1.0970    2.4930 N   0  0  0  0  0  0  0  0  0  0  0  0
   -4.0180   -0.3990    1.8810 C   0  0  0  0  0  0  0  0  0  0  0  0
   -5.4300   -0.0630    2.2280 C   0  0  1  0  0  0  0  0  0  0  0  0
   -5.3770    1.1380    2.9660 O   0  0  0  0  0  0  0  0  0  0  0  0
   -6.2100    0.1830    1.1190 O   0  0  0  0  0  0  0  0  0  0  0  0
   -5.6870   -0.2910   -0.0580 C   0  0  1  0  0  0  0  0  0  0  0  0
   -6.6810   -0.1760   -1.1740 C   0  0  0  0  0  0  0  0  0  0  0  0
   -7.0760    1.1410   -1.4020 O   0  0  0  0  0  0  0  0  0  0  0  0
   -4.3800    0.4380   -0.4020 C   0  0  0  0  0  0  0  0  0  0  0  0
   -3.4700    0.0870    0.6630 N   0  0  0  0  0  0  0  0  0  0  0  0
  1  2  1  0
  2  3  1  0
  2  6  2  0
  3  4  1  0
  4  5  2  0
  5  6  1  0
  6  7  1  0
  7  8  2  0
  7  9  1  0
  9 10  1  0
 10 11  1  0
 11 12  1  0
 12 13  1  6
 12 14  1  0
 14 15  1  6
 14 16  1  0
 16 17  1  1
 16 27  1  0
 17 18  1  0
 18 19  2  0
 19 20  1  0
 19 27  1  0
 20 21  1  1
 20 22  1  0
 22 23  1  0
 23 24  1  6
 23 26  1  0
 24 25  1  0
 26 27  1  0
M  CHG  1  13   1
M  END
