
     RDKit          3D

 27 29  0  0  0  0  0  0  0  0999 V2000
   -5.0530   -0.9010    0.2480 N   0  0  0  0  0  0  0  0  0  0  0  0
   -4.6160    0.4150    0.5250 C   0  0  0  0  0  0  0  0  0  0  0  0
   -5.4300    1.3910    0.3200 N   0  0  0  0  0  0  0  0  0  0  0  0
   -3.2480    0.6720    1.0420 C   0  0  2  0  0  0  0  0  0  0  0  0
   -2.0590    0.2350    0.1930 C   0  0  1  0  0  0  0  0  0  0  0  0
   -0.8710    1.1370    0.1490 C   0  0  0  0  0  0  0  0  0  0  0  0
   -0.4650    1.6760    1.2090 O   0  0  0  0  0  0  0  0  0  0  0  0
   -0.1610    1.4240   -1.0470 N   0  0  0  0  0  0  0  0  0  0  0  0
    0.9670    2.2770   -1.1100 C   0  0  0  0  0  0  0  0  0  0  0  0
    2.2180    1.7320   -0.9390 C   0  0  0  0  0  0  0  0  0  0  0  0
    2.3360    0.3090   -0.7040 C   0  0  0  0  0  0  0  0  0  0  0  0
    1.2820   -0.3860   -0.6640 O   0  0  0  0  0  0  0  0  0  0  0  0
    3.5780   -0.3690   -0.5130 N   0  0  0  0  0  0  0  0  0  0  0  0
    3.6260   -1.8110   -0.2790 C   0  0  0  0  0  0  0  0  0  0  0  0
    5.0450   -2.2000   -0.1220 C   0  0  0  0  0  0  0  0  0  0  0  0
    5.3410   -3.5720    0.1170 N   0  0  0  0  0  0  0  0  0  0  0  0
    5.9460   -1.3510   -0.1970 O   0  0  0  0  0  0  0  0  0  0  0  0
    3.3060    2.5500   -0.9980 N   0  0  0  0  0  0  0  0  0  0  0  0
    3.1910    3.8700   -1.2180 C   0  0  0  0  0  0  0  0  0  0  0  0
    4.2010    4.6400   -1.2740 O   0  0  0  0  0  0  0  0  0  0  0  0
    1.9770    4.4220   -1.3870 N   0  0  0  0  0  0  0  0  0  0  0  0
    0.8640    3.6320   -1.3340 C   0  0  0  0  0  0  0  0  0  0  0  0
   -0.2730    4.1390   -1.4910 O   0  0  0  0  0  0  0  0  0  0  0  0
   -2.3710   -0.4270    1.4770 C   0  0  2  0  0  0  0  0  0  0  0  0
   -2.7660   -1.8570    1.4330 C   0  0  2  0  0  0  0  0  0  0  0  0
   -1.6800   -2.8190    1.9350 C   0  0  0  0  0  0  0  0  0  0  0  0
   -2.1740   -2.8520    0.5370 C   0  0  0  0  0  0  0  0  0  0  0  0
  1  2  1  0
  2  3  2  0
  4  2  1  6
  4  5  1  0
  4 24  1  0
  5  6  1  1
  5 24  1  0
  6  7  2  0
  6  8  1  0
  8  9  1  0
  9 10  2  0
  9 22  1  0
 10 11  1  0
 10 18  1  0
 11 12  2  0
 11 13  1  0
 13 14  1  0
 14 15  1  0
 15 16  1  0
 15 17  2  0
 18 19  1  0
 19 20  2  0
 19 21  1  0
 21 22  1  0
 22 23  2  0
 24 25  1  6
 25 26  1  1
 25 27  1  0
 26 27  1  0
M  CHG  1   3   1
M  END
