
     RDKit          3D

 12 13  0  0  0  0  0  0  0  0999 V2000
    3.7260    0.3720    0.8670 C   0  0  0  0  0  0  0  0  0  0  0  0
    2.3930   -0.0380    0.3360 C   0  0  0  0  0  0  0  0  0  0  0  0
    2.1950   -1.0450   -0.6210 C   0  0  0  0  0  0  0  0  0  0  0  0
    0.8180   -1.0860   -0.8150 C   0  0  0  0  0  0  0  0  0  0  0  0
    0.2470   -0.1170    0.0200 C   0  0  0  0  0  0  0  0  0  0  0  0
   -1.1810    0.1270    0.0850 C   0  0  0  0  0  0  0  0  0  0  0  0
   -2.0380    0.2910   -0.9290 C   0  0  0  0  0  0  0  0  0  0  0  0
   -1.7570    0.2680   -2.2710 O   0  0  0  0  0  0  0  0  0  0  0  0
   -3.3530    0.5070   -0.2960 C   0  0  0  0  0  0  0  0  0  0  0  0
   -2.9870    1.0800    0.9440 O   0  0  0  0  0  0  0  0  0  0  0  0
   -1.9840    0.1890    1.3500 C   0  0  0  0  0  0  0  0  0  0  0  0
    1.2200    0.4490    0.6560 O   0  0  0  0  0  0  0  0  0  0  0  0
  1  2  1  0
  2  3  2  0
  2 12  1  0
  3  4  1  0
  4  5  2  0
  5  6  1  0
  5 12  1  0
  6  7  2  0
  6 11  1  0
  7  8  1  0
  7  9  1  0
  9 10  1  0
 10 11  1  0
M  END
