
     RDKit          3D

 12 13  0  0  0  0  0  0  0  0999 V2000
   -2.3170   -1.7280   -0.1220 C   0  0  0  0  0  0  0  0  0  0  0  0
   -1.0750   -0.9050   -0.0640 C   0  0  0  0  0  0  0  0  0  0  0  0
    0.1810   -1.4780   -0.1340 C   0  0  0  0  0  0  0  0  0  0  0  0
    1.3480   -0.7500   -0.0840 C   0  0  0  0  0  0  0  0  0  0  0  0
    1.2580    0.6140    0.0420 C   0  0  0  0  0  0  0  0  0  0  0  0
    0.0380    1.2220    0.1150 C   0  0  0  0  0  0  0  0  0  0  0  0
   -0.0160    2.7060    0.2510 C   0  0  0  0  0  0  0  0  0  0  0  0
   -1.1160    0.4680    0.0620 C   0  0  0  0  0  0  0  0  0  0  0  0
   -2.3480    1.1370    0.1400 O   0  0  0  0  0  0  0  0  0  0  0  0
    2.5880    1.0860    0.0670 O   0  0  0  0  0  0  0  0  0  0  0  0
    3.3350    0.0680    0.5140 O   0  0  0  0  0  0  0  0  0  0  0  0
    2.8050   -1.0480   -0.1310 C   0  0  0  0  0  0  0  0  0  0  0  0
  1  2  1  0
  2  3  2  0
  2  8  1  0
  3  4  1  0
  4  5  2  0
  4 12  1  0
  5  6  1  0
  5 10  1  0
  6  7  1  0
  6  8  2  0
  8  9  1  0
 10 11  1  0
 11 12  1  0
M  END
