
     RDKit          3D

 12 13  0  0  0  0  0  0  0  0999 V2000
    0.1950   -0.0860    1.8730 O   0  0  0  0  0  0  0  0  0  0  0  0
   -0.0880    0.0080    0.5030 C   0  0  1  0  0  0  0  0  0  0  0  0
    1.2460   -0.0910   -0.2510 C   0  0  1  0  0  0  0  0  0  0  0  0
    2.1020    0.9460    0.1330 O   0  0  0  0  0  0  0  0  0  0  0  0
    3.3120    0.5060   -0.4060 C   0  0  0  0  0  0  0  0  0  0  0  0
    3.2970   -0.9540   -0.0850 C   0  0  0  0  0  0  0  0  0  0  0  0
    1.9490   -1.2080    0.1550 O   0  0  0  0  0  0  0  0  0  0  0  0
   -0.8880   -1.1970    0.1210 C   0  0  0  0  0  0  0  0  0  0  0  0
   -2.3410   -1.1040    0.4920 C   0  0  0  0  0  0  0  0  0  0  0  0
   -2.9840    0.1730    0.0810 C   0  0  0  0  0  0  0  0  0  0  0  0
   -2.0400    1.1540   -0.5630 C   0  0  0  0  0  0  0  0  0  0  0  0
   -0.7650    1.3090    0.2550 C   0  0  0  0  0  0  0  0  0  0  0  0
  2  1  1  1
  2  3  1  0
  2  8  1  0
  2 12  1  0
  3  4  1  1
  3  7  1  0
  4  5  1  0
  5  6  1  0
  6  7  1  0
  8  9  1  0
  9 10  1  0
 10 11  1  0
 11 12  1  0
M  END
