
     RDKit          3D

 12 12  0  0  0  0  0  0  0  0999 V2000
   -3.1610    1.4630   -0.3660 C   0  0  0  0  0  0  0  0  0  0  0  0
   -2.1520    0.5960   -0.1990 C   0  0  0  0  0  0  0  0  0  0  0  0
   -0.7840    1.0620   -0.1800 C   0  0  0  0  0  0  0  0  0  0  0  0
    0.2480    0.2530   -0.0190 C   0  0  0  0  0  0  0  0  0  0  0  0
    1.5960    0.7450   -0.0040 C   0  0  0  0  0  0  0  0  0  0  0  0
    1.8020    1.9750   -0.1480 O   0  0  0  0  0  0  0  0  0  0  0  0
    2.7010   -0.0750    0.1620 O   0  0  0  0  0  0  0  0  0  0  0  0
    4.0340    0.4210    0.1750 C   0  0  0  0  0  0  0  0  0  0  0  0
   -0.0760   -1.1590    0.1400 C   0  0  0  0  0  0  0  0  0  0  0  0
    0.9640   -2.1050    0.3180 O   0  0  0  0  0  0  0  0  0  0  0  0
   -1.2850   -1.6440    0.1320 C   0  0  0  0  0  0  0  0  0  0  0  0
   -2.4710   -0.8170   -0.0390 C   0  0  0  0  0  0  0  0  0  0  0  0
  1  2  2  0
  2  3  1  0
  2 12  1  0
  3  4  2  0
  4  5  1  0
  4  9  1  0
  5  6  2  0
  5  7  1  0
  7  8  1  0
  9 10  1  0
  9 11  2  0
 11 12  1  0
M  END
