
     RDKit          3D

 22 23  0  0  0  0  0  0  0  0999 V2000
    5.9380   -2.0010   -2.0450 C   0  0  0  0  0  0  0  0  0  0  0  0
    5.6230   -2.4470   -0.6630 C   0  0  0  0  0  0  0  0  0  0  0  0
    4.4570   -2.1340   -0.1260 C   0  0  0  0  0  0  0  0  0  0  0  0
    4.0810   -2.5540    1.2650 C   0  0  0  0  0  0  0  0  0  0  0  0
    3.4680   -1.3800    1.9840 C   0  0  0  0  0  0  0  0  0  0  0  0
    2.5180   -0.6690    1.1920 N   0  0  0  0  0  0  0  0  0  0  0  0
    2.4900   -0.6440   -0.0610 C   0  0  0  0  0  0  0  0  0  0  0  0
    1.2450    0.2900   -0.9640 S   0  0  0  0  0  0  0  0  0  0  0  0
    0.1840    1.0930    0.3020 C   0  0  0  0  0  0  0  0  0  0  0  0
   -0.8390    1.8600   -0.4230 C   0  0  0  0  0  0  0  0  0  0  0  0
   -0.6300    3.1810   -0.8050 C   0  0  0  0  0  0  0  0  0  0  0  0
   -1.7780    3.5570   -1.4620 C   0  0  0  0  0  0  0  0  0  0  0  0
   -2.0260    4.9010   -2.0600 C   0  0  0  0  0  0  0  0  0  0  0  0
   -2.5920    2.5090   -1.4530 N   0  0  0  0  0  0  0  0  0  0  0  0
   -2.0510    1.4780   -0.8340 N   0  0  0  0  0  0  0  0  0  0  0  0
   -2.6710    0.2060   -0.6360 C   0  0  0  0  0  0  0  0  0  0  0  0
   -3.5410    0.1430    0.6260 C   0  0  2  0  0  0  0  0  0  0  0  0
   -2.7460    0.4060    1.7240 O   0  0  0  0  0  0  0  0  0  0  0  0
   -4.0010   -1.2940    0.7320 C   0  0  0  0  0  0  0  0  0  0  0  0
   -4.7170   -1.5990    1.8530 O   0  0  0  0  0  0  0  0  0  0  0  0
   -5.8590   -0.8530    1.9340 C   0  0  0  0  0  0  0  0  0  0  0  0
    3.4620   -1.3780   -0.8110 N   0  0  0  0  0  0  0  0  0  0  0  0
  1  2  1  0
  2  3  2  3
  3  4  1  0
  3 22  1  0
  4  5  1  0
  5  6  1  0
  6  7  2  0
  7  8  1  0
  7 22  1  0
  8  9  1  0
  9 10  1  0
 10 11  2  0
 10 15  1  0
 11 12  1  0
 12 13  1  0
 12 14  2  0
 14 15  1  0
 15 16  1  0
 16 17  1  0
 17 18  1  1
 17 19  1  0
 19 20  1  0
 20 21  1  0
M  END
