
     RDKit          3D

 22 22  0  0  0  0  0  0  0  0999 V2000
    4.0330   -2.7950   -0.1800 C   0  0  0  0  0  0  0  0  0  0  0  0
    2.6110   -2.4260   -0.1360 C   0  0  0  0  0  0  0  0  0  0  0  0
    2.0400   -1.4760    0.5450 C   0  0  0  0  0  0  0  0  0  0  0  0
    0.5720   -1.3240    0.4020 C   0  0  0  0  0  0  0  0  0  0  0  0
   -0.1010   -2.1070   -0.3690 N   0  0  0  0  0  0  0  0  0  0  0  0
   -1.4750   -1.9320   -0.4750 N   0  0  0  0  0  0  0  0  0  0  0  0
   -2.0600   -0.6250   -0.7100 C   0  0  0  0  0  0  0  0  0  0  0  0
   -1.2230    0.3020   -0.8030 O   0  0  0  0  0  0  0  0  0  0  0  0
   -3.5110   -0.5310   -0.8080 C   0  0  0  0  0  0  0  0  0  0  0  0
   -3.9490    0.8900   -0.9480 C   0  0  2  0  0  0  0  0  0  0  0  0
   -5.4760    0.8540   -1.0720 C   0  0  0  0  0  0  0  0  0  0  0  0
   -3.4240    1.5790   -2.1830 C   0  0  0  0  0  0  0  0  0  0  0  0
   -3.5580    1.7320    0.2480 C   0  0  0  0  0  0  0  0  0  0  0  0
   -4.1530    1.2230    1.5230 C   0  0  0  0  0  0  0  0  0  0  0  0
    2.8660   -0.3690    1.6130 S   0  0  0  0  0  0  0  0  0  0  0  0
    4.5950   -0.6550    1.6860 C   0  0  0  0  0  0  0  0  0  0  0  0
    5.4030    0.3200    1.2370 C   0  0  0  0  0  0  0  0  0  0  0  0
    6.8400    0.3130    1.1960 C   0  0  0  0  0  0  0  0  0  0  0  0
    7.2750    1.4230    0.7000 N   0  0  0  0  0  0  0  0  0  0  0  0
    6.2220    2.2720    0.3620 N   0  0  0  0  0  0  0  0  0  0  0  0
    5.0130    1.6260    0.6800 C   0  0  0  0  0  0  0  0  0  0  0  0
    3.8170    1.9820    0.5610 O   0  0  0  0  0  0  0  0  0  0  0  0
  1  2  1  0
  2  3  2  3
  3  4  1  0
  3 15  1  0
  4  5  2  3
  5  6  1  0
  6  7  1  0
  7  8  2  0
  7  9  1  0
  9 10  1  0
 10 11  1  6
 10 12  1  0
 10 13  1  0
 13 14  1  0
 15 16  1  0
 16 17  2  3
 17 18  1  0
 17 21  1  0
 18 19  2  0
 19 20  1  0
 20 21  1  0
 21 22  2  0
M  END
