
     RDKit          3D

 22 23  0  0  0  0  0  0  0  0999 V2000
    5.3710   -2.0460    0.6540 C   0  0  0  0  0  0  0  0  0  0  0  0
    4.3450   -1.5680    1.6410 C   0  0  0  0  0  0  0  0  0  0  0  0
    3.8900    0.1070    1.4020 S   0  0  2  0  0  0  0  0  0  0  0  0
    5.0600    1.0280    1.7030 O   0  0  0  0  0  0  0  0  0  0  0  0
    2.8110    0.4810    2.4180 O   0  0  0  0  0  0  0  0  0  0  0  0
    3.2680    0.4000   -0.1480 N   0  0  0  0  0  0  0  0  0  0  0  0
    2.1060   -0.1920   -0.6890 C   0  0  0  0  0  0  0  0  0  0  0  0
    1.8630   -1.5410   -0.7860 C   0  0  0  0  0  0  0  0  0  0  0  0
    0.7140   -2.0440   -1.3550 C   0  0  0  0  0  0  0  0  0  0  0  0
   -0.2500   -1.2210   -1.8550 C   0  0  0  0  0  0  0  0  0  0  0  0
   -0.0700    0.1460   -1.7900 C   0  0  0  0  0  0  0  0  0  0  0  0
   -1.0580    1.0360   -2.3040 N   0  0  0  0  0  0  0  0  0  0  0  0
   -0.9190    1.8600   -3.3460 C   0  0  0  0  0  0  0  0  0  0  0  0
   -2.0710    2.5540   -3.5420 N   0  0  0  0  0  0  0  0  0  0  0  0
   -2.9130    2.1380   -2.6020 N   0  0  0  0  0  0  0  0  0  0  0  0
   -2.2940    1.1930   -1.8250 C   0  0  0  0  0  0  0  0  0  0  0  0
   -2.8660    0.4820   -0.6840 C   0  0  0  0  0  0  0  0  0  0  0  0
   -2.6450    1.1860    0.6350 C   0  0  0  0  0  0  0  0  0  0  0  0
   -3.2570    0.4080    1.7820 C   0  0  2  0  0  0  0  0  0  0  0  0
   -2.6590   -0.9710    1.9010 C   0  0  0  0  0  0  0  0  0  0  0  0
   -4.7460    0.2430    1.5410 C   0  0  0  0  0  0  0  0  0  0  0  0
    1.0880    0.6120   -1.2170 C   0  0  0  0  0  0  0  0  0  0  0  0
  1  2  1  0
  3  2  1  6
  3  4  2  0
  3  5  2  0
  3  6  1  0
  6  7  1  0
  7  8  2  0
  7 22  1  0
  8  9  1  0
  9 10  2  0
 10 11  1  0
 11 12  1  0
 11 22  2  0
 12 13  1  0
 12 16  1  0
 13 14  2  0
 14 15  1  0
 15 16  2  0
 16 17  1  0
 17 18  1  0
 18 19  1  0
 19 20  1  6
 19 21  1  0
M  END
