
     RDKit          3D

 22 23  0  0  0  0  0  0  0  0999 V2000
    6.3140    0.8570    0.0140 C   0  0  0  0  0  0  0  0  0  0  0  0
    6.1840   -0.0590   -0.9310 C   0  0  0  0  0  0  0  0  0  0  0  0
    5.1220   -1.4340   -0.7940 S   0  0  1  0  0  0  0  0  0  0  0  0
    4.8710   -2.0450   -2.1410 O   0  0  0  0  0  0  0  0  0  0  0  0
    5.7290   -2.4810    0.1250 O   0  0  0  0  0  0  0  0  0  0  0  0
    3.6160   -0.9640   -0.1380 N   0  0  0  0  0  0  0  0  0  0  0  0
    2.9560   -0.0050   -0.9960 C   0  0  0  0  0  0  0  0  0  0  0  0
    1.6520    0.4290   -0.4690 C   0  0  0  0  0  0  0  0  0  0  0  0
    1.6070    1.5370    0.3640 C   0  0  0  0  0  0  0  0  0  0  0  0
    0.3940    1.8980    0.8210 N   0  0  0  0  0  0  0  0  0  0  0  0
   -0.7420    1.2410    0.5070 C   0  0  0  0  0  0  0  0  0  0  0  0
   -0.6960    0.1410   -0.3210 C   0  0  0  0  0  0  0  0  0  0  0  0
   -1.8980   -0.6140   -0.7000 C   0  0  0  0  0  0  0  0  0  0  0  0
   -3.1370   -0.0350   -0.2510 N   0  0  0  0  0  0  0  0  0  0  0  0
   -3.4690    1.2770   -0.7240 C   0  0  0  0  0  0  0  0  0  0  0  0
   -4.3170    2.1720   -0.2230 C   0  0  0  0  0  0  0  0  0  0  0  0
   -5.0990    1.9870    0.9440 N   0  0  0  0  0  0  0  0  0  0  0  0
   -5.3420    0.9240    1.6710 C   0  0  0  0  0  0  0  0  0  0  0  0
   -4.8330   -0.4230    1.4450 C   0  0  0  0  0  0  0  0  0  0  0  0
   -3.8860   -0.8580    0.6240 C   0  0  0  0  0  0  0  0  0  0  0  0
   -3.6240   -2.2930    0.6480 C   0  0  0  0  0  0  0  0  0  0  0  0
    0.5180   -0.2780   -0.8210 C   0  0  0  0  0  0  0  0  0  0  0  0
  1  2  2  0
  2  3  1  0
  3  4  2  0
  3  5  2  0
  3  6  1  1
  6  7  1  0
  7  8  1  0
  8  9  2  0
  8 22  1  0
  9 10  1  0
 10 11  2  0
 11 12  1  0
 12 13  1  0
 12 22  2  0
 13 14  1  0
 14 15  1  0
 14 20  1  0
 15 16  2  0
 16 17  1  0
 17 18  2  0
 18 19  1  0
 19 20  2  0
 20 21  1  0
M  END
