
     RDKit          3D

 22 22  0  0  0  0  0  0  0  0999 V2000
   -3.2130    4.0270    1.8650 C   0  0  0  0  0  0  0  0  0  0  0  0
   -3.3400    2.7650    1.5600 C   0  0  0  0  0  0  0  0  0  0  0  0
   -2.3020    1.8170    1.4010 N   0  0  0  0  0  0  0  0  0  0  0  0
   -0.9250    2.1760    1.5740 C   0  0  0  0  0  0  0  0  0  0  0  0
   -2.6670    0.4690    1.0610 C   0  0  0  0  0  0  0  0  0  0  0  0
   -3.8630    0.2110    0.9300 O   0  0  0  0  0  0  0  0  0  0  0  0
   -1.6270   -0.5870    0.8720 C   0  0  0  0  0  0  0  0  0  0  0  0
   -0.4370   -0.2420    0.9920 N   0  0  0  0  0  0  0  0  0  0  0  0
    0.8130   -0.6510    0.9510 N   0  0  0  0  0  0  0  0  0  0  0  0
    1.6640   -0.2550   -0.1650 C   0  0  0  0  0  0  0  0  0  0  0  0
    1.2000    0.4710   -1.0740 O   0  0  0  0  0  0  0  0  0  0  0  0
    3.0490   -0.7410   -0.1560 C   0  0  0  0  0  0  0  0  0  0  0  0
    3.8720   -0.2260   -1.2910 C   0  0  0  0  0  0  0  0  0  0  0  0
    4.0000    1.2570   -1.2750 C   0  0  0  0  0  0  0  0  0  0  0  0
    4.8520    1.7620   -2.4430 C   0  0  0  0  0  0  0  0  0  0  0  0
   -2.0520   -1.9210    0.4980 C   0  0  0  0  0  0  0  0  0  0  0  0
   -1.1210   -2.7970    0.1890 C   0  0  0  0  0  0  0  0  0  0  0  0
   -1.1990   -4.2000   -0.2280 C   0  0  0  0  0  0  0  0  0  0  0  0
   -2.1110   -4.8040   -0.8790 N   0  0  0  0  0  0  0  0  0  0  0  0
   -3.6210   -4.0680   -1.4900 S   0  0  0  0  0  0  0  0  0  0  0  0
   -4.2470   -3.0270   -0.1580 C   0  0  0  0  0  0  0  0  0  0  0  0
   -3.4850   -2.2070    0.5620 C   0  0  0  0  0  0  0  0  0  0  0  0
  1  2  2  0
  2  3  1  0
  3  4  1  0
  3  5  1  0
  5  6  2  0
  5  7  1  0
  7  8  2  3
  7 16  1  0
  8  9  1  0
  9 10  1  0
 10 11  2  0
 10 12  1  0
 12 13  1  0
 13 14  1  0
 14 15  1  0
 16 17  2  0
 16 22  1  0
 17 18  1  0
 18 19  2  0
 19 20  1  0
 20 21  1  0
 21 22  2  0
M  END
