
     RDKit          3D

 22 23  0  0  0  0  0  0  0  0999 V2000
   -5.7040    1.2200   -1.6940 C   0  0  0  0  0  0  0  0  0  0  0  0
   -4.3430    1.1720   -2.2540 C   0  0  0  0  0  0  0  0  0  0  0  0
   -3.3160    0.9030   -1.5030 C   0  0  0  0  0  0  0  0  0  0  0  0
   -3.4590    0.6410   -0.0900 C   0  0  0  0  0  0  0  0  0  0  0  0
   -4.5900    0.6320    0.6240 N   0  0  0  0  0  0  0  0  0  0  0  0
   -4.3480    0.3500    1.9130 C   0  0  0  0  0  0  0  0  0  0  0  0
   -5.3700    0.2580    2.9800 C   0  0  0  0  0  0  0  0  0  0  0  0
   -2.9950    0.1750    2.0000 C   0  0  0  0  0  0  0  0  0  0  0  0
   -2.4410    0.3520    0.7770 N   0  0  0  0  0  0  0  0  0  0  0  0
   -1.0320    0.2520    0.4520 C   0  0  0  0  0  0  0  0  0  0  0  0
   -0.7460   -1.1790    0.0730 C   0  0  0  0  0  0  0  0  0  0  0  0
    0.7050   -1.3940   -0.2860 C   0  0  0  0  0  0  0  0  0  0  0  0
    1.1320   -0.5970   -1.3930 N   0  0  0  0  0  0  0  0  0  0  0  0
    2.7960   -0.9220   -1.7140 S   0  0  2  0  0  0  0  0  0  0  0  0
    3.1050   -0.7660   -3.1930 O   0  0  0  0  0  0  0  0  0  0  0  0
    3.0830   -2.3530   -1.3700 O   0  0  0  0  0  0  0  0  0  0  0  0
    3.8500    0.1150   -0.8630 N   0  0  0  0  0  0  0  0  0  0  0  0
    3.7370    0.0060    0.5590 C   0  0  0  0  0  0  0  0  0  0  0  0
    4.8990    0.6280    1.2510 C   0  0  0  0  0  0  0  0  0  0  0  0
    6.1120    0.3130    0.8030 C   0  0  0  0  0  0  0  0  0  0  0  0
    6.1430   -0.6410   -0.3560 C   0  0  0  0  0  0  0  0  0  0  0  0
    5.1740   -0.0320   -1.3780 C   0  0  0  0  0  0  0  0  0  0  0  0
  1  2  1  0
  2  3  2  3
  3  4  1  0
  4  5  2  0
  4  9  1  0
  5  6  1  0
  6  7  1  0
  6  8  2  0
  8  9  1  0
  9 10  1  0
 10 11  1  0
 11 12  1  0
 12 13  1  0
 14 13  1  6
 14 15  2  0
 14 16  2  0
 14 17  1  0
 17 18  1  0
 17 22  1  0
 18 19  1  0
 19 20  2  0
 20 21  1  0
 21 22  1  0
M  END
