
     RDKit          3D

 22 23  0  0  0  0  0  0  0  0999 V2000
   -5.2880   -1.3450    2.4710 C   0  0  0  0  0  0  0  0  0  0  0  0
   -5.6950   -0.6670    1.2080 C   0  0  0  0  0  0  0  0  0  0  0  0
   -4.6460    0.3830    0.8130 C   0  0  0  0  0  0  0  0  0  0  0  0
   -3.3900   -0.2630    0.6200 N   0  0  0  0  0  0  0  0  0  0  0  0
   -2.1650    0.3770    0.2910 C   0  0  0  0  0  0  0  0  0  0  0  0
   -0.9780   -0.2370    0.1020 N   0  0  0  0  0  0  0  0  0  0  0  0
   -0.0220    0.6500   -0.1880 C   0  0  0  0  0  0  0  0  0  0  0  0
    1.3640    0.3140   -0.4470 C   0  0  0  0  0  0  0  0  0  0  0  0
    2.3160    1.3030   -0.7260 C   0  0  0  0  0  0  0  0  0  0  0  0
    3.6340    0.9940   -0.9730 C   0  0  0  0  0  0  0  0  0  0  0  0
    4.5320    2.0080   -1.2410 O   0  0  0  0  0  0  0  0  0  0  0  0
    4.2810    3.3680   -1.3060 C   0  0  0  0  0  0  0  0  0  0  0  0
    4.0500   -0.3460   -0.9480 C   0  0  0  0  0  0  0  0  0  0  0  0
    5.3850   -0.6130   -1.2020 O   0  0  0  0  0  0  0  0  0  0  0  0
    5.9560   -1.8980   -1.2140 C   0  0  0  0  0  0  0  0  0  0  0  0
    3.0980   -1.3000   -0.6720 C   0  0  0  0  0  0  0  0  0  0  0  0
    1.7640   -1.0020   -0.4210 C   0  0  0  0  0  0  0  0  0  0  0  0
    0.8200   -1.9640   -0.1460 O   0  0  0  0  0  0  0  0  0  0  0  0
    1.0090   -3.3420   -0.0700 C   0  0  0  0  0  0  0  0  0  0  0  0
   -0.6620    1.8260   -0.1700 N   0  0  0  0  0  0  0  0  0  0  0  0
   -1.9430    1.6880    0.1130 N   0  0  0  0  0  0  0  0  0  0  0  0
   -2.9210    2.7810    0.2100 C   0  0  0  0  0  0  0  0  0  0  0  0
  1  2  1  0
  2  3  1  0
  3  4  1  0
  4  5  1  0
  5  6  2  0
  5 21  1  0
  6  7  1  0
  7  8  1  0
  7 20  2  0
  8  9  2  0
  8 17  1  0
  9 10  1  0
 10 11  1  0
 10 13  2  0
 11 12  1  0
 13 14  1  0
 13 16  1  0
 14 15  1  0
 16 17  2  0
 17 18  1  0
 18 19  1  0
 20 21  1  0
 21 22  1  0
M  END
