
     RDKit          3D

 20 22  0  0  0  0  0  0  0  0999 V2000
   -2.7810    2.8190   -0.0850 C   0  0  0  0  0  0  0  0  0  0  0  0
   -2.0770    1.4960   -0.0640 C   0  0  0  0  0  0  0  0  0  0  0  0
   -0.7040    1.3920   -0.0660 C   0  0  0  0  0  0  0  0  0  0  0  0
   -0.0480    0.1800   -0.0460 C   0  0  0  0  0  0  0  0  0  0  0  0
    1.3480    0.1160   -0.0490 C   0  0  0  0  0  0  0  0  0  0  0  0
    2.0120   -1.0820   -0.0300 C   0  0  0  0  0  0  0  0  0  0  0  0
    1.2790   -2.2430   -0.0070 C   0  0  0  0  0  0  0  0  0  0  0  0
   -0.1180   -2.1700   -0.0050 C   0  0  0  0  0  0  0  0  0  0  0  0
   -0.8010   -0.9870   -0.0240 C   0  0  0  0  0  0  0  0  0  0  0  0
   -2.1730   -0.9320   -0.0210 C   0  0  0  0  0  0  0  0  0  0  0  0
   -3.0290   -2.1380    0.0030 C   0  0  2  0  0  0  0  0  0  0  0  0
   -3.9600   -2.0580   -1.0500 F   0  0  0  0  0  0  0  0  0  0  0  0
   -3.8340   -2.0480    1.1520 F   0  0  0  0  0  0  0  0  0  0  0  0
   -2.7910    0.3280   -0.0410 C   0  0  0  0  0  0  0  0  0  0  0  0
   -4.1430    0.3740   -0.0390 F   0  0  0  0  0  0  0  0  0  0  0  0
    3.4170   -1.0590   -0.0340 N   0  0  0  0  0  0  0  0  0  0  0  0
    4.0950    0.0240   -0.0550 C   0  0  0  0  0  0  0  0  0  0  0  0
    5.5130   -0.0530   -0.0580 O   0  0  0  0  0  0  0  0  0  0  0  0
    3.4710    1.3590   -0.0770 C   0  0  0  0  0  0  0  0  0  0  0  0
    2.0800    1.2750   -0.0710 O   0  0  0  0  0  0  0  0  0  0  0  0
  1  2  1  0
  2  3  2  0
  2 14  1  0
  3  4  1  0
  4  5  2  0
  4  9  1  0
  5  6  1  0
  5 20  1  0
  6  7  2  0
  6 16  1  0
  7  8  1  0
  8  9  2  0
  9 10  1  0
 10 11  1  0
 10 14  2  0
 11 12  1  6
 11 13  1  0
 14 15  1  0
 16 17  2  0
 17 18  1  0
 17 19  1  0
 19 20  1  0
M  END
