
     RDKit          3D

 19 21  0  0  0  0  0  0  0  0999 V2000
    1.7800   -1.4770   -1.4660 O   0  0  0  0  0  0  0  0  0  0  0  0
    2.3400   -0.5440   -0.5990 C   0  0  0  0  0  0  0  0  0  0  0  0
    3.7100   -0.3980   -0.5270 C   0  0  0  0  0  0  0  0  0  0  0  0
    4.3100    0.5050    0.3090 C   0  0  0  0  0  0  0  0  0  0  0  0
    5.6510    0.6660    0.3950 F   0  0  0  0  0  0  0  0  0  0  0  0
    3.5170    1.3040    1.1170 C   0  0  0  0  0  0  0  0  0  0  0  0
    4.0480    2.2180    1.9680 F   0  0  0  0  0  0  0  0  0  0  0  0
    2.1370    1.1540    1.0430 C   0  0  0  0  0  0  0  0  0  0  0  0
    1.5390    0.2470    0.2020 C   0  0  0  0  0  0  0  0  0  0  0  0
    0.0740    0.1080    0.1430 C   0  0  0  0  0  0  0  0  0  0  0  0
   -0.5830   -0.7520   -0.6490 N   0  0  0  0  0  0  0  0  0  0  0  0
   -1.8980   -0.5800   -0.4170 C   0  0  0  0  0  0  0  0  0  0  0  0
   -3.0110   -1.1800   -0.9370 C   0  0  0  0  0  0  0  0  0  0  0  0
   -4.2770   -0.8150   -0.5220 C   0  0  0  0  0  0  0  0  0  0  0  0
   -5.3630   -1.4300   -1.0580 F   0  0  0  0  0  0  0  0  0  0  0  0
   -4.4050    0.1870    0.4470 C   0  0  0  0  0  0  0  0  0  0  0  0
   -3.2900    0.7990    0.9770 C   0  0  0  0  0  0  0  0  0  0  0  0
   -2.0350    0.4170    0.5470 C   0  0  0  0  0  0  0  0  0  0  0  0
   -0.8090    0.7840    0.8370 O   0  0  0  0  0  0  0  0  0  0  0  0
  1  2  1  0
  2  3  2  0
  2  9  1  0
  3  4  1  0
  4  5  1  0
  4  6  2  0
  6  7  1  0
  6  8  1  0
  8  9  2  0
  9 10  1  0
 10 11  2  0
 10 19  1  0
 11 12  1  0
 12 13  2  0
 12 18  1  0
 13 14  1  0
 14 15  1  0
 14 16  2  0
 16 17  1  0
 17 18  2  0
 18 19  1  0
M  END
