
     RDKit          3D

 21 23  0  0  0  0  0  0  0  0999 V2000
   -4.4640    0.2100    1.5080 C   0  0  0  0  0  0  0  0  0  0  0  0
   -3.6700    0.8330    0.3360 C   0  0  1  0  0  0  0  0  0  0  0  0
   -3.7830    2.3300    0.5660 C   0  0  0  0  0  0  0  0  0  0  0  0
   -4.6120    2.7260    1.4460 O   0  0  0  0  0  0  0  0  0  0  0  0
   -3.0270    3.2000   -0.1450 O   0  0  0  0  0  0  0  0  0  0  0  0
   -2.2540    0.4930    0.5660 C   0  0  0  0  0  0  0  0  0  0  0  0
   -1.3890    1.2140    1.3230 C   0  0  0  0  0  0  0  0  0  0  0  0
   -0.0250    0.9240    1.3610 C   0  0  0  0  0  0  0  0  0  0  0  0
    0.5240   -0.0990    0.6290 C   0  0  0  0  0  0  0  0  0  0  0  0
    1.9320   -0.3700    0.3340 C   0  0  2  0  0  0  0  0  0  0  0  0
    2.9230   -0.6720    1.3580 C   0  0  0  0  0  0  0  0  0  0  0  0
    4.3150   -0.4010    0.8450 C   0  0  0  0  0  0  0  0  0  0  0  0
    4.3760    0.7700   -0.0790 C   0  0  0  0  0  0  0  0  0  0  0  0
    3.6240    0.4520   -1.3230 C   0  0  0  0  0  0  0  0  0  0  0  0
    2.3050   -0.2550   -1.1240 C   0  0  0  0  0  0  0  0  0  0  0  0
   -0.4090   -0.8160   -0.1290 C   0  0  0  0  0  0  0  0  0  0  0  0
    0.0350   -1.9810   -0.7750 C   0  0  0  0  0  0  0  0  0  0  0  0
   -0.8100   -2.8360   -1.4470 C   0  0  0  0  0  0  0  0  0  0  0  0
   -2.1480   -2.5730   -1.5100 C   0  0  0  0  0  0  0  0  0  0  0  0
   -2.6140   -1.4070   -0.8580 C   0  0  0  0  0  0  0  0  0  0  0  0
   -1.7310   -0.5670   -0.1850 C   0  0  0  0  0  0  0  0  0  0  0  0
  2  1  1  1
  2  3  1  0
  2  6  1  0
  3  4  2  0
  3  5  1  0
  6  7  2  0
  6 21  1  0
  7  8  1  0
  8  9  2  0
 10  9  1  1
  9 16  1  0
 10 11  1  0
 10 15  1  0
 11 12  1  0
 12 13  1  0
 13 14  1  0
 14 15  1  0
 16 17  2  0
 16 21  1  0
 17 18  1  0
 18 19  2  0
 19 20  1  0
 20 21  2  0
M  END
