
     RDKit          3D

 20 21  0  0  0  0  0  0  0  0999 V2000
   -1.4860    3.7740   -1.1360 C   0  0  0  0  0  0  0  0  0  0  0  0
   -1.9990    2.4500   -0.6540 C   0  0  0  0  0  0  0  0  0  0  0  0
   -1.1620    1.3810   -1.0500 O   0  0  0  0  0  0  0  0  0  0  0  0
   -1.4450    0.0770   -0.7140 C   0  0  0  0  0  0  0  0  0  0  0  0
   -2.6840   -0.3700   -0.9740 C   0  0  0  0  0  0  0  0  0  0  0  0
   -3.0530   -1.7220   -0.6510 C   0  0  0  0  0  0  0  0  0  0  0  0
   -2.1540   -2.5120   -0.0950 C   0  0  0  0  0  0  0  0  0  0  0  0
   -2.6070   -3.9020    0.2140 C   0  0  0  0  0  0  0  0  0  0  0  0
   -0.8760   -2.0790    0.1830 O   0  0  0  0  0  0  0  0  0  0  0  0
   -0.4400   -0.7560   -0.1090 C   0  0  0  0  0  0  0  0  0  0  0  0
    0.7920   -0.4380    0.1920 C   0  0  0  0  0  0  0  0  0  0  0  0
    1.6960   -1.4320    0.8160 C   0  0  0  0  0  0  0  0  0  0  0  0
    2.9330   -1.0940    1.1120 C   0  0  0  0  0  0  0  0  0  0  0  0
    3.4860    0.2250    0.8600 C   0  0  0  0  0  0  0  0  0  0  0  0
    4.9040    0.4910    1.2390 C   0  0  1  0  0  0  0  0  0  0  0  0
    5.7810   -0.3430    0.5840 F   0  0  0  0  0  0  0  0  0  0  0  0
    5.1630    1.8290    0.9330 F   0  0  0  0  0  0  0  0  0  0  0  0
    5.1170    0.3370    2.5930 F   0  0  0  0  0  0  0  0  0  0  0  0
    2.7170    1.1370    0.3070 C   0  0  0  0  0  0  0  0  0  0  0  0
    1.3500    0.8210   -0.0390 N   0  0  0  0  0  0  0  0  0  0  0  0
  1  2  1  0
  2  3  1  0
  3  4  1  0
  4  5  2  0
  4 10  1  0
  5  6  1  0
  6  7  2  0
  7  8  1  0
  7  9  1  0
  9 10  1  0
 10 11  2  3
 11 12  1  0
 11 20  1  0
 12 13  2  0
 13 14  1  0
 14 15  1  0
 14 19  2  0
 15 16  1  6
 15 17  1  0
 15 18  1  0
 19 20  1  0
M  END
