
     RDKit          3D

 10 10  0  0  0  0  0  0  0  0999 V2000
   -1.2940    1.8480   -1.0450 C   0  0  0  0  0  0  0  0  0  0  0  0
   -0.5750    0.8030   -1.5370 O   0  0  0  0  0  0  0  0  0  0  0  0
   -0.1080   -0.0290   -0.5490 C   0  0  1  0  0  0  0  0  0  0  0  0
   -1.1740   -0.6610    0.2960 C   0  0  0  0  0  0  0  0  0  0  0  0
   -0.6710   -1.5330    1.3060 N   0  0  0  0  0  0  0  0  0  0  0  0
    0.7120   -1.1840   -1.1460 C   0  0  0  0  0  0  0  0  0  0  0  0
    1.3410   -1.6920   -0.0100 O   0  0  0  0  0  0  0  0  0  0  0  0
    1.7270   -0.5990    0.7470 C   0  0  0  0  0  0  0  0  0  0  0  0
    1.0080    0.6130    0.2410 C   0  0  2  0  0  0  0  0  0  0  0  0
    0.5680    1.4630    1.2280 O   0  0  0  0  0  0  0  0  0  0  0  0
  1  2  1  0
  2  3  1  0
  3  4  1  1
  3  6  1  0
  3  9  1  0
  4  5  1  0
  6  7  1  0
  7  8  1  0
  8  9  1  0
  9 10  1  1
M  END
