
     RDKit          3D

 20 22  0  0  0  0  0  0  0  0999 V2000
    1.2910    3.9610    0.3110 O   0  0  0  0  0  0  0  0  0  0  0  0
    1.1820    2.7120    0.1760 C   0  0  0  0  0  0  0  0  0  0  0  0
   -0.0720    2.1910   -0.0270 C   0  0  0  0  0  0  0  0  0  0  0  0
   -0.1730    0.8300   -0.1680 C   0  0  0  0  0  0  0  0  0  0  0  0
   -1.4220    0.1010   -0.3850 C   0  0  2  0  0  0  0  0  0  0  0  0
   -2.5740    0.9910   -0.7760 C   0  0  0  0  0  0  0  0  0  0  0  0
   -3.7130   -0.0390   -0.7190 C   0  0  0  0  0  0  0  0  0  0  0  0
   -3.4430   -0.6670    0.6370 C   0  0  0  0  0  0  0  0  0  0  0  0
   -1.9630   -0.5070    0.8940 C   0  0  0  0  0  0  0  0  0  0  0  0
    1.0100    0.0900   -0.0950 C   0  0  0  0  0  0  0  0  0  0  0  0
    1.2210   -1.2320   -0.1970 N   0  0  0  0  0  0  0  0  0  0  0  0
    2.5520   -1.5080   -0.0610 C   0  0  0  0  0  0  0  0  0  0  0  0
    3.0440   -2.7120   -0.1200 C   0  0  0  0  0  0  0  0  0  0  0  0
    4.3290   -3.0090    0.0060 F   0  0  0  0  0  0  0  0  0  0  0  0
    3.2260   -0.3180    0.1360 C   0  0  0  0  0  0  0  0  0  0  0  0
    4.5080   -0.0740    0.3150 C   0  0  0  0  0  0  0  0  0  0  0  0
    5.4950   -0.9630    0.3480 F   0  0  0  0  0  0  0  0  0  0  0  0
    4.8680    1.2510    0.4940 F   0  0  0  0  0  0  0  0  0  0  0  0
    2.2340    0.6720    0.1100 C   0  0  0  0  0  0  0  0  0  0  0  0
    2.2660    1.9770    0.2380 O   0  0  0  0  0  0  0  0  0  0  0  0
  1  2  2  0
  2  3  1  0
  2 20  1  0
  3  4  2  0
  5  4  1  1
  4 10  1  0
  5  6  1  0
  5  9  1  0
  6  7  1  0
  7  8  1  0
  8  9  1  0
 10 11  1  0
 10 19  2  0
 11 12  1  0
 12 13  2  3
 12 15  1  0
 13 14  1  0
 15 16  2  3
 15 19  1  0
 16 17  1  0
 16 18  1  0
 19 20  1  0
M  END
