
     RDKit          3D

 21 21  0  0  0  0  0  0  0  0999 V2000
   -2.0400   -2.9860   -1.0840 C   0  0  0  0  0  0  0  0  0  0  0  0
   -1.5910   -1.8740   -0.1340 C   0  0  2  0  0  0  0  0  0  0  0  0
   -0.8750   -2.5020    0.8530 O   0  0  0  0  0  0  0  0  0  0  0  0
   -2.7180   -1.2890    0.4700 O   0  0  0  0  0  0  0  0  0  0  0  0
   -2.2200   -0.3720    1.3920 C   0  0  0  0  0  0  0  0  0  0  0  0
   -1.6240    0.8170    0.6870 C   0  0  2  0  0  0  0  0  0  0  0  0
   -2.6220    1.3950   -0.0740 O   0  0  0  0  0  0  0  0  0  0  0  0
   -0.4210    0.3940   -0.1750 C   0  0  2  0  0  0  0  0  0  0  0  0
    0.7190    0.0670    0.6720 C   0  0  0  0  0  0  0  0  0  0  0  0
    1.9840   -0.3870    0.0460 C   0  0  0  0  0  0  0  0  0  0  0  0
    3.0360   -0.6200    1.1070 C   0  0  0  0  0  0  0  0  0  0  0  0
    3.0000   -1.6780    1.8100 O   0  0  0  0  0  0  0  0  0  0  0  0
    4.0440    0.2820    1.3440 O   0  0  0  0  0  0  0  0  0  0  0  0
    4.9630    0.0430    2.2970 O   0  0  0  0  0  0  0  0  0  0  0  0
   -0.1790    1.4110   -1.2370 C   0  0  0  0  0  0  0  0  0  0  0  0
    0.0470    2.7690   -0.9420 N   0  0  0  0  0  0  0  0  0  0  0  0
    1.1170    3.3800   -0.2720 C   0  0  0  0  0  0  0  0  0  0  0  0
    2.0990    2.7620    0.1750 O   0  0  0  0  0  0  0  0  0  0  0  0
    1.1420    4.7720   -0.0600 O   0  0  0  0  0  0  0  0  0  0  0  0
   -0.8940   -0.8590   -0.9410 C   0  0  1  0  0  0  0  0  0  0  0  0
    0.0630   -1.4300   -1.7210 O   0  0  0  0  0  0  0  0  0  0  0  0
  2  1  1  6
  2  3  1  0
  2  4  1  0
  2 20  1  0
  4  5  1  0
  5  6  1  0
  6  7  1  6
  6  8  1  0
  8  9  1  1
  8 15  1  0
  8 20  1  0
  9 10  1  0
 10 11  1  0
 11 12  2  0
 11 13  1  0
 13 14  1  0
 15 16  1  0
 16 17  1  0
 17 18  2  0
 17 19  1  0
 20 21  1  1
M  END
