
     RDKit          3D

 21 21  0  0  0  0  0  0  0  0999 V2000
   -4.3680    0.3070   -1.9940 N   0  0  0  0  0  0  0  0  0  0  0  0
   -4.1820   -0.8170   -1.1440 C   0  0  0  0  0  0  0  0  0  0  0  0
   -4.7550   -1.9030   -1.4130 O   0  0  0  0  0  0  0  0  0  0  0  0
   -3.3230   -0.7550    0.0670 C   0  0  2  0  0  0  0  0  0  0  0  0
   -4.1710   -1.0420    1.2820 C   0  0  0  0  0  0  0  0  0  0  0  0
   -4.6990   -2.3310    1.2060 O   0  0  0  0  0  0  0  0  0  0  0  0
   -2.8080    0.5180    0.1540 O   0  0  0  0  0  0  0  0  0  0  0  0
   -1.4040    0.5250    0.0740 C   0  0  0  0  0  0  0  0  0  0  0  0
   -0.8710    1.9280    0.1730 C   0  0  2  0  0  0  0  0  0  0  0  0
   -1.4780    2.6310   -0.9080 O   0  0  0  0  0  0  0  0  0  0  0  0
    0.5980    2.0560   -0.0670 C   0  0  0  0  0  0  0  0  0  0  0  0
    1.4810    1.2850    0.8790 C   0  0  2  0  0  0  0  0  0  0  0  0
    2.7920    1.5570    0.4920 O   0  0  0  0  0  0  0  0  0  0  0  0
    3.7010    0.6110    0.9540 C   0  0  0  0  0  0  0  0  0  0  0  0
    3.3830   -0.7490    0.3170 C   0  0  2  0  0  0  0  0  0  0  0  0
    3.2890   -1.6670    1.3370 O   0  0  0  0  0  0  0  0  0  0  0  0
    4.3750   -1.1010   -0.7480 C   0  0  0  0  0  0  0  0  0  0  0  0
    5.6600   -1.2280   -0.2840 O   0  0  0  0  0  0  0  0  0  0  0  0
    2.0130   -0.5240   -0.3380 C   0  0  1  0  0  0  0  0  0  0  0  0
    1.5460   -1.6940   -0.9250 O   0  0  0  0  0  0  0  0  0  0  0  0
    1.1880   -0.0820    0.6920 O   0  0  0  0  0  0  0  0  0  0  0  0
  1  2  1  0
  2  3  2  0
  2  4  1  0
  4  5  1  1
  4  7  1  0
  5  6  1  0
  7  8  1  0
  8  9  1  0
  9 10  1  6
  9 11  1  0
 12 11  1  6
 12 13  1  0
 12 21  1  0
 13 14  1  0
 14 15  1  0
 15 16  1  1
 15 17  1  0
 15 19  1  0
 17 18  1  0
 19 20  1  1
 19 21  1  0
M  END
