
     RDKit          3D

 20 20  0  0  0  0  0  0  0  0999 V2000
    5.4080   -0.2920    1.7030 O   0  0  0  0  0  0  0  0  0  0  0  0
    5.0040   -0.1570    0.3730 C   0  0  0  0  0  0  0  0  0  0  0  0
    3.5030   -0.2190    0.3530 C   0  0  1  0  0  0  0  0  0  0  0  0
    2.8880    0.8980    1.1910 C   0  0  0  0  0  0  0  0  0  0  0  0
    1.5480    0.8070    1.2910 O   0  0  0  0  0  0  0  0  0  0  0  0
    0.8810   -0.0200    0.4420 C   0  0  1  0  0  0  0  0  0  0  0  0
    0.8030   -1.2730    1.0530 O   0  0  0  0  0  0  0  0  0  0  0  0
   -0.5350    0.5070    0.2830 C   0  0  1  0  0  0  0  0  0  0  0  0
   -0.5050    1.7950   -0.2490 O   0  0  0  0  0  0  0  0  0  0  0  0
   -1.2900   -0.4070   -0.6100 C   0  0  0  0  0  0  0  0  0  0  0  0
   -2.7170    0.0040   -0.8520 C   0  0  1  0  0  0  0  0  0  0  0  0
   -2.8110    1.2630   -1.4420 O   0  0  0  0  0  0  0  0  0  0  0  0
   -3.3340   -1.0680   -1.7260 C   0  0  0  0  0  0  0  0  0  0  0  0
   -3.2020   -2.2820   -1.0720 O   0  0  0  0  0  0  0  0  0  0  0  0
   -3.4760    0.0250    0.4580 C   0  0  0  0  0  0  0  0  0  0  0  0
   -4.8730    0.3460    0.2500 N   0  0  0  0  0  0  0  0  0  0  0  0
   -5.5660    0.3720    1.3990 O   0  0  0  0  0  0  0  0  0  0  0  0
    1.4630   -0.2040   -0.9150 C   0  0  0  0  0  0  0  0  0  0  0  0
    2.9350    0.0110   -1.0320 C   0  0  1  0  0  0  0  0  0  0  0  0
    3.1750    1.3520   -1.3370 O   0  0  0  0  0  0  0  0  0  0  0  0
  1  2  1  0
  3  2  1  6
  3  4  1  0
  3 19  1  0
  4  5  1  0
  5  6  1  0
  6  7  1  1
  6  8  1  0
  6 18  1  0
  8  9  1  6
  8 10  1  0
 10 11  1  0
 11 12  1  6
 11 13  1  0
 11 15  1  0
 13 14  1  0
 15 16  1  0
 16 17  1  0
 18 19  1  0
 19 20  1  1
M  END
