
     RDKit          3D

 21 21  0  0  0  0  0  0  0  0999 V2000
    4.6100    2.2260    0.7920 O   0  0  0  0  0  0  0  0  0  0  0  0
    4.3570    2.1630   -0.4340 C   0  0  0  0  0  0  0  0  0  0  0  0
    5.0810    2.9390   -1.3360 O   0  0  0  0  0  0  0  0  0  0  0  0
    3.3190    1.2820   -0.8740 N   0  0  0  0  0  0  0  0  0  0  0  0
    2.5640    0.4810    0.0030 C   0  0  0  0  0  0  0  0  0  0  0  0
    2.7830    0.5140    1.2270 O   0  0  0  0  0  0  0  0  0  0  0  0
    1.5100   -0.4020   -0.5250 C   0  0  2  0  0  0  0  0  0  0  0  0
    0.4320    0.3450   -1.2600 C   0  0  1  0  0  0  0  0  0  0  0  0
   -0.3560   -0.5910   -1.9310 O   0  0  0  0  0  0  0  0  0  0  0  0
   -0.4010    1.0720   -0.2250 C   0  0  0  0  0  0  0  0  0  0  0  0
   -1.1540   -0.0500    0.5030 C   0  0  2  0  0  0  0  0  0  0  0  0
   -2.2030    0.4010    1.2240 O   0  0  0  0  0  0  0  0  0  0  0  0
   -3.4480    0.0050    0.8460 C   0  0  1  0  0  0  0  0  0  0  0  0
   -4.2110   -0.5510    1.8630 O   0  0  0  0  0  0  0  0  0  0  0  0
   -4.2090    1.2560    0.3850 C   0  0  0  0  0  0  0  0  0  0  0  0
   -4.2410    2.1170    1.4980 O   0  0  0  0  0  0  0  0  0  0  0  0
   -0.1790   -0.8970    1.2830 C   0  0  0  0  0  0  0  0  0  0  0  0
    0.9850   -1.3490    0.5090 C   0  0  2  0  0  0  0  0  0  0  0  0
    2.0600   -1.5780    1.4030 O   0  0  0  0  0  0  0  0  0  0  0  0
    0.7020   -2.7070   -0.1170 C   0  0  0  0  0  0  0  0  0  0  0  0
    0.3560   -3.6260    0.8740 O   0  0  0  0  0  0  0  0  0  0  0  0
  1  2  2  0
  2  3  1  0
  2  4  1  0
  4  5  1  0
  5  6  2  0
  7  5  1  1
  7  8  1  0
  7 18  1  0
  8  9  1  1
  8 10  1  0
 10 11  1  0
 11 12  1  1
 11 17  1  0
 12 13  1  0
 13 14  1  1
 13 15  1  0
 15 16  1  0
 17 18  1  0
 18 19  1  1
 18 20  1  0
 20 21  1  0
M  END
