
     RDKit          3D

 21 21  0  0  0  0  0  0  0  0999 V2000
    6.0020   -1.1010    0.6880 N   0  0  0  0  0  0  0  0  0  0  0  0
    5.1130   -0.0760    1.0870 C   0  0  0  0  0  0  0  0  0  0  0  0
    5.4550    0.6850    2.0160 O   0  0  0  0  0  0  0  0  0  0  0  0
    3.8260    0.0630    0.4040 C   0  0  2  0  0  0  0  0  0  0  0  0
    4.1370    0.3230   -1.0670 C   0  0  0  0  0  0  0  0  0  0  0  0
    4.8090    1.5190   -1.2100 O   0  0  0  0  0  0  0  0  0  0  0  0
    3.0440    1.0880    0.8710 O   0  0  0  0  0  0  0  0  0  0  0  0
    1.7970    0.7520    1.3130 C   0  0  0  0  0  0  0  0  0  0  0  0
    0.8940    0.1160    0.2980 C   0  0  2  0  0  0  0  0  0  0  0  0
    0.6490    0.9300   -0.8060 O   0  0  0  0  0  0  0  0  0  0  0  0
   -0.4540   -0.1540    0.9790 C   0  0  0  0  0  0  0  0  0  0  0  0
   -1.4000   -0.7980   -0.0120 C   0  0  2  0  0  0  0  0  0  0  0  0
   -1.5640    0.0770   -1.0720 O   0  0  0  0  0  0  0  0  0  0  0  0
   -2.6540    0.8940   -0.8070 C   0  0  0  0  0  0  0  0  0  0  0  0
   -3.9030    0.0400   -0.9370 C   0  0  2  0  0  0  0  0  0  0  0  0
   -4.1300   -0.2010   -2.2970 O   0  0  0  0  0  0  0  0  0  0  0  0
   -5.0930    0.7680   -0.3480 C   0  0  0  0  0  0  0  0  0  0  0  0
   -4.8130    0.9840    1.0140 O   0  0  0  0  0  0  0  0  0  0  0  0
   -3.6380   -1.2660   -0.2350 C   0  0  1  0  0  0  0  0  0  0  0  0
   -3.4100   -2.3160   -1.1430 O   0  0  0  0  0  0  0  0  0  0  0  0
   -2.5840   -1.0920    0.6420 O   0  0  0  0  0  0  0  0  0  0  0  0
  1  2  1  0
  2  3  2  0
  2  4  1  0
  4  5  1  6
  4  7  1  0
  5  6  1  0
  7  8  1  0
  8  9  1  0
  9 10  1  6
  9 11  1  0
 12 11  1  1
 12 13  1  0
 12 21  1  0
 13 14  1  0
 14 15  1  0
 15 16  1  6
 15 17  1  0
 15 19  1  0
 17 18  1  0
 19 20  1  6
 19 21  1  0
M  END
