
     RDKit          3D

 20 20  0  0  0  0  0  0  0  0999 V2000
    5.6740    0.8080   -0.8400 O   0  0  0  0  0  0  0  0  0  0  0  0
    4.9970   -0.1750   -0.1210 C   0  0  0  0  0  0  0  0  0  0  0  0
    3.5580    0.2360    0.0160 C   0  0  1  0  0  0  0  0  0  0  0  0
    2.8650    0.4070   -1.3080 C   0  0  0  0  0  0  0  0  0  0  0  0
    1.6310   -0.2380   -1.3470 O   0  0  0  0  0  0  0  0  0  0  0  0
    0.7940    0.2080   -0.3070 C   0  0  1  0  0  0  0  0  0  0  0  0
    0.6530    1.5860   -0.4800 O   0  0  0  0  0  0  0  0  0  0  0  0
   -0.5560   -0.4680   -0.5170 C   0  0  1  0  0  0  0  0  0  0  0  0
   -0.4190   -1.8320   -0.4720 O   0  0  0  0  0  0  0  0  0  0  0  0
   -1.5150    0.0920    0.4940 C   0  0  0  0  0  0  0  0  0  0  0  0
   -2.8880   -0.4860    0.4020 C   0  0  1  0  0  0  0  0  0  0  0  0
   -2.9050   -1.8690    0.5980 O   0  0  0  0  0  0  0  0  0  0  0  0
   -3.7060    0.1090    1.5510 C   0  0  0  0  0  0  0  0  0  0  0  0
   -4.9950   -0.4450    1.4310 O   0  0  0  0  0  0  0  0  0  0  0  0
   -3.5520   -0.2140   -0.9040 C   0  0  0  0  0  0  0  0  0  0  0  0
   -3.6030    1.1970   -1.2330 N   0  0  0  0  0  0  0  0  0  0  0  0
   -4.2210    1.3930   -2.4310 O   0  0  0  0  0  0  0  0  0  0  0  0
    1.3920   -0.1260    1.0170 C   0  0  0  0  0  0  0  0  0  0  0  0
    2.7490   -0.7670    0.8120 C   0  0  1  0  0  0  0  0  0  0  0  0
    2.6120   -1.9090   -0.0080 O   0  0  0  0  0  0  0  0  0  0  0  0
  1  2  1  0
  3  2  1  6
  3  4  1  0
  3 19  1  0
  4  5  1  0
  5  6  1  0
  6  7  1  1
  6  8  1  0
  6 18  1  0
  8  9  1  1
  8 10  1  0
 10 11  1  0
 11 12  1  1
 11 13  1  0
 11 15  1  0
 13 14  1  0
 15 16  1  0
 16 17  1  0
 18 19  1  0
 19 20  1  6
M  END
