
     RDKit          3D

 20 21  0  0  0  0  0  0  0  0999 V2000
   -0.2550   -0.9240   -2.6040 N   0  0  0  0  0  0  0  0  0  0  0  0
   -1.2630   -0.4500   -1.6760 C   0  0  2  0  0  0  0  0  0  0  0  0
   -1.7170    0.7550   -2.1280 O   0  0  0  0  0  0  0  0  0  0  0  0
   -0.7770   -0.4510   -0.2510 C   0  0  2  0  0  0  0  0  0  0  0  0
   -1.8970   -0.0600    0.7100 C   0  0  1  0  0  0  0  0  0  0  0  0
   -1.4810   -0.1420    2.0260 O   0  0  0  0  0  0  0  0  0  0  0  0
   -2.4760    1.2740    0.4540 C   0  0  0  0  0  0  0  0  0  0  0  0
   -3.8430    1.0210   -0.1240 C   0  0  0  0  0  0  0  0  0  0  0  0
   -3.9100   -0.3350   -0.4200 O   0  0  0  0  0  0  0  0  0  0  0  0
   -3.0960   -0.9850    0.5030 C   0  0  0  0  0  0  0  0  0  0  0  0
    0.3790    0.4530   -0.0010 C   0  0  0  0  0  0  0  0  0  0  0  0
    1.3560   -0.1850    1.0000 C   0  0  2  0  0  0  0  0  0  0  0  0
    2.4360    0.7610    1.3690 C   0  0  0  0  0  0  0  0  0  0  0  0
    3.2230    1.2440    0.3770 O   0  0  0  0  0  0  0  0  0  0  0  0
    4.0010    0.4020   -0.3430 C   0  0  2  0  0  0  0  0  0  0  0  0
    5.3640    0.7090   -0.2770 O   0  0  0  0  0  0  0  0  0  0  0  0
    3.6710    0.3590   -1.7020 O   0  0  0  0  0  0  0  0  0  0  0  0
    1.8130   -1.3230    0.4110 O   0  0  0  0  0  0  0  0  0  0  0  0
    0.8420   -2.1190   -0.1470 C   0  0  0  0  0  0  0  0  0  0  0  0
   -0.4420   -1.7490    0.0710 O   0  0  0  0  0  0  0  0  0  0  0  0
  2  1  1  6
  2  3  1  0
  2  4  1  0
  4  5  1  0
  4 11  1  6
  4 20  1  0
  5  6  1  1
  5  7  1  0
  5 10  1  0
  7  8  1  0
  8  9  1  0
  9 10  1  0
 11 12  1  0
 12 13  1  6
 12 18  1  0
 13 14  1  0
 14 15  1  0
 15 16  1  6
 15 17  1  0
 18 19  1  0
 19 20  1  0
M  END
