
     RDKit          3D

 28 29  0  0  0  0  0  0  0  0999 V2000
   -5.1340   -0.5650    1.4290 C   0  0  0  0  0  0  0  0  0  0  0  0
   -3.7730   -0.1100    1.5450 N   0  0  0  0  0  0  0  0  0  0  0  0
   -2.8550   -0.8840    0.7340 C   0  0  1  0  0  0  0  0  0  0  0  0
   -1.6170   -0.2740    0.8300 O   0  0  0  0  0  0  0  0  0  0  0  0
   -1.1160    0.2270   -0.3510 C   0  0  1  0  0  0  0  0  0  0  0  0
    0.2050    0.8410   -0.0370 C   0  0  0  0  0  0  0  0  0  0  0  0
    0.4280    2.1000   -0.2350 N   0  0  0  0  0  0  0  0  0  0  0  0
    1.9570    2.9200    0.1060 P   0  0  0  0  0  0  0  0  0  0  0  0
    1.8700    3.9940    1.4650 O   0  0  0  0  0  0  0  0  0  0  0  0
    2.4000    3.8670   -1.2810 O   0  0  0  0  0  0  0  0  0  0  0  0
    1.2590    0.1020    0.4800 O   0  0  0  0  0  0  0  0  0  0  0  0
    2.9030    0.6760    0.1180 P   0  0  0  0  0  0  0  0  0  0  0  0
    3.1270    0.7970   -1.6110 O   0  0  0  0  0  0  0  0  0  0  0  0
    4.0600   -0.6690    0.7140 C   0  0  2  0  0  0  0  0  0  0  0  0
    3.4980   -1.3980    1.8110 N   0  0  0  0  0  0  0  0  0  0  0  0
    5.4810   -0.2430    0.8810 C   0  0  0  0  0  0  0  0  0  0  0  0
    5.6780   -0.6500   -0.4760 O   0  0  0  0  0  0  0  0  0  0  0  0
    4.5890   -1.5170   -0.3860 C   0  0  0  0  0  0  0  0  0  0  0  0
    4.1720   -2.5690   -0.9520 O   0  0  0  0  0  0  0  0  0  0  0  0
   -0.9000   -0.9090   -1.3020 C   0  0  0  0  0  0  0  0  0  0  0  0
   -0.3510   -0.5380   -2.5170 O   0  0  0  0  0  0  0  0  0  0  0  0
   -1.3490    0.7100   -3.2300 P   0  0  0  0  0  0  0  0  0  0  0  0
   -2.9550    0.0770   -3.4350 O   0  0  0  0  0  0  0  0  0  0  0  0
   -1.4770    1.9510   -1.9910 O   0  0  0  0  0  0  0  0  0  0  0  0
   -2.0150    1.3010   -0.8800 C   0  0  0  0  0  0  0  0  0  0  0  0
   -2.8530   -2.2800    1.1970 C   0  0  0  0  0  0  0  0  0  0  0  0
   -3.5880   -2.6010    2.1600 O   0  0  0  0  0  0  0  0  0  0  0  0
   -2.0760   -3.2770    0.6250 O   0  0  0  0  0  0  0  0  0  0  0  0
  1  2  1  0
  3  2  1  1
  3  4  1  0
  3 26  1  0
  5  4  1  1
  5  6  1  0
  5 20  1  0
  5 25  1  0
  6  7  2  3
  6 11  1  0
  7  8  1  0
  8  9  1  0
  8 10  1  0
 11 12  1  0
 12 13  1  0
 12 14  1  0
 14 15  1  1
 14 16  1  0
 14 18  1  0
 16 17  1  0
 17 18  1  0
 18 19  2  0
 20 21  1  0
 21 22  1  0
 22 23  1  0
 22 24  1  0
 24 25  1  0
 26 27  2  0
 26 28  1  0
M  END
