
     RDKit          3D

 11 10  0  0  0  0  0  0  0  0999 V2000
   -1.9600    1.7330   -0.2550 O   0  0  0  0  0  0  0  0  0  0  0  0
   -3.0300    0.8620   -0.2850 C   0  0  0  0  0  0  0  0  0  0  0  0
   -2.6360   -0.3340   -0.8540 O   0  0  0  0  0  0  0  0  0  0  0  0
   -1.6240   -0.8850   -0.1130 C   0  0  1  0  0  0  0  0  0  0  0  0
   -2.1280   -2.1210    0.3770 O   0  0  0  0  0  0  0  0  0  0  0  0
   -0.4960   -1.2410   -0.8420 O   0  0  0  0  0  0  0  0  0  0  0  0
    0.6000   -0.6560   -0.2200 C   0  0  0  0  0  0  0  0  0  0  0  0
    1.7920   -0.9540   -0.8740 O   0  0  0  0  0  0  0  0  0  0  0  0
    2.8370   -0.3470   -0.2120 C   0  0  0  0  0  0  0  0  0  0  0  0
    2.6490    1.0370   -0.1970 O   0  0  0  0  0  0  0  0  0  0  0  0
    3.6640    1.5780    0.4410 O   0  0  0  0  0  0  0  0  0  0  0  0
  1  2  1  0
  2  3  1  0
  3  4  1  0
  4  5  1  6
  4  6  1  0
  6  7  1  0
  7  8  1  0
  8  9  1  0
  9 10  1  0
 10 11  1  0
M  END
