
     RDKit          3D

 28 29  0  0  0  0  0  0  0  0999 V2000
   -4.3650    1.5320   -1.6210 C   0  0  0  0  0  0  0  0  0  0  0  0
   -3.1040    2.1400   -0.5160 P   0  0  0  0  0  0  0  0  0  0  0  0
   -3.3860    3.5060    0.3970 O   0  0  0  0  0  0  0  0  0  0  0  0
   -1.4070    1.5750   -0.7350 C   0  0  2  0  0  0  0  0  0  0  0  0
   -0.5480    2.6280   -0.9020 O   0  0  0  0  0  0  0  0  0  0  0  0
   -1.3080    0.5330   -2.3000 P   0  0  0  0  0  0  0  0  0  0  0  0
   -0.4110    1.3470   -3.5290 O   0  0  0  0  0  0  0  0  0  0  0  0
   -0.4260   -0.7850   -1.6080 O   0  0  0  0  0  0  0  0  0  0  0  0
   -0.0210   -0.3950   -0.3510 C   0  0  1  0  0  0  0  0  0  0  0  0
    1.4100    0.0860   -0.3010 C   0  0  2  0  0  0  0  0  0  0  0  0
    2.2330   -0.7260    0.4570 O   0  0  0  0  0  0  0  0  0  0  0  0
    3.2840   -1.2140   -0.2060 N   0  0  0  0  0  0  0  0  0  0  0  0
    3.7710   -2.4110    0.3010 N   0  0  0  0  0  0  0  0  0  0  0  0
    4.3540   -0.2430   -0.3500 C   0  0  0  0  0  0  0  0  0  0  0  0
    5.7970   -0.9330   -1.2660 P   0  0  0  0  0  0  0  0  0  0  0  0
    6.8860   -1.7790   -0.2150 O   0  0  0  0  0  0  0  0  0  0  0  0
    6.5880    0.3590   -2.1080 O   0  0  0  0  0  0  0  0  0  0  0  0
    1.4460    1.3570    0.2590 O   0  0  0  0  0  0  0  0  0  0  0  0
    0.9170    1.4400    1.4320 O   0  0  0  0  0  0  0  0  0  0  0  0
   -0.4080    1.1050    1.5150 C   0  0  0  0  0  0  0  0  0  0  0  0
   -0.9810    0.5460    0.2460 C   0  0  1  0  0  0  0  0  0  0  0  0
   -2.2330   -0.2490    0.6450 C   0  0  0  0  0  0  0  0  0  0  0  0
   -1.8480   -1.2520    1.5950 N   0  0  0  0  0  0  0  0  0  0  0  0
   -2.6780   -1.9690    2.2340 C   0  0  0  0  0  0  0  0  0  0  0  0
   -2.2490   -2.9720    3.1850 C   0  0  0  0  0  0  0  0  0  0  0  0
   -3.0870   -3.6720    3.8080 O   0  0  0  0  0  0  0  0  0  0  0  0
   -4.0220   -1.7790    2.0080 O   0  0  0  0  0  0  0  0  0  0  0  0
   -4.5200   -1.3000    0.8630 O   0  0  0  0  0  0  0  0  0  0  0  0
  1  2  1  0
  2  3  1  0
  2  4  1  0
  4  5  1  6
  4  6  1  0
  4 21  1  0
  6  7  1  0
  6  8  1  0
  9  8  1  6
  9 10  1  0
  9 21  1  0
 10 11  1  1
 10 18  1  0
 11 12  1  0
 12 13  1  0
 12 14  1  0
 14 15  1  0
 15 16  1  0
 15 17  1  0
 18 19  1  0
 19 20  1  0
 20 21  1  0
 21 22  1  1
 22 23  1  0
 23 24  2  3
 24 25  1  0
 24 27  1  0
 25 26  2  0
 27 28  1  0
M  END
