
     RDKit          3D

 11 10  0  0  0  0  0  0  0  0999 V2000
    3.9680    0.7080   -0.2540 O   0  0  0  0  0  0  0  0  0  0  0  0
    2.9010   -0.1430   -0.6200 C   0  0  0  0  0  0  0  0  0  0  0  0
    2.0370   -0.4680    0.5750 C   0  0  1  0  0  0  0  0  0  0  0  0
    1.7750    0.6760    1.3290 O   0  0  0  0  0  0  0  0  0  0  0  0
    0.7710   -0.8550    0.0190 O   0  0  0  0  0  0  0  0  0  0  0  0
    0.1700    0.2250   -0.3560 O   0  0  0  0  0  0  0  0  0  0  0  0
   -1.0900    0.1570   -0.5240 O   0  0  0  0  0  0  0  0  0  0  0  0
   -1.7290   -0.8760    0.1910 C   0  0  0  0  0  0  0  0  0  0  0  0
   -3.2400   -0.5740    0.2190 C   0  0  0  0  0  0  0  0  0  0  0  0
   -3.3360    0.5860    1.0230 O   0  0  0  0  0  0  0  0  0  0  0  0
   -2.9850    1.6690    0.4760 O   0  0  0  0  0  0  0  0  0  0  0  0
  1  2  1  0
  2  3  1  0
  3  4  1  1
  3  5  1  0
  5  6  1  0
  6  7  1  0
  7  8  1  0
  8  9  1  0
  9 10  1  0
 10 11  1  0
M  END
