
     RDKit          3D

 11 10  0  0  0  0  0  0  0  0999 V2000
    1.1510   -1.4070    0.6940 O   0  0  0  0  0  0  0  0  0  0  0  0
    1.3320   -0.5900   -0.1610 C   0  0  0  0  0  0  0  0  0  0  0  0
    2.6460    0.1880   -0.2090 C   0  0  0  0  0  0  0  0  0  0  0  0
    2.6530    1.2300    0.6360 O   0  0  0  0  0  0  0  0  0  0  0  0
    3.6400    2.0380    0.2540 O   0  0  0  0  0  0  0  0  0  0  0  0
    0.4330   -0.2920   -1.1130 O   0  0  0  0  0  0  0  0  0  0  0  0
   -0.7070   -0.7380   -1.3090 O   0  0  0  0  0  0  0  0  0  0  0  0
   -1.4950   -1.3610   -0.4570 C   0  0  0  0  0  0  0  0  0  0  0  0
   -2.1480   -0.1420    0.3240 C   0  0  0  0  0  0  0  0  0  0  0  0
   -2.6680    0.6080   -0.7090 O   0  0  0  0  0  0  0  0  0  0  0  0
   -3.8350    1.0630   -0.4110 O   0  0  0  0  0  0  0  0  0  0  0  0
  1  2  2  0
  2  3  1  0
  2  6  1  0
  3  4  1  0
  4  5  1  0
  6  7  1  0
  7  8  1  0
  8  9  1  0
  9 10  1  0
 10 11  1  0
M  END
