
     RDKit          3D

 27 29  0  0  0  0  0  0  0  0999 V2000
    2.0840   -2.8340   -0.5620 C   0  0  0  0  0  0  0  0  0  0  0  0
    3.3280   -2.5490   -0.3310 C   0  0  0  0  0  0  0  0  0  0  0  0
    3.9070   -1.2690   -0.2030 C   0  0  0  0  0  0  0  0  0  0  0  0
    5.2470   -1.2810    0.1010 C   0  0  0  0  0  0  0  0  0  0  0  0
    6.1410   -0.1510    0.3060 C   0  0  0  0  0  0  0  0  0  0  0  0
    5.7590    1.1070    0.5990 C   0  0  0  0  0  0  0  0  0  0  0  0
    4.4330    1.6850    0.7870 C   0  0  0  0  0  0  0  0  0  0  0  0
    4.3820    2.8380    1.4820 F   0  0  0  0  0  0  0  0  0  0  0  0
    3.2850    1.1640    0.3290 C   0  0  0  0  0  0  0  0  0  0  0  0
    3.1250   -0.0810   -0.4470 C   0  0  0  0  0  0  0  0  0  0  0  0
    2.2840   -0.1040   -1.4340 C   0  0  0  0  0  0  0  0  0  0  0  0
    1.4000    0.9890   -1.8450 C   0  0  0  0  0  0  0  0  0  0  0  0
   -0.0710    0.7720   -1.6510 C   0  0  0  0  0  0  0  0  0  0  0  0
   -0.3610    0.6070   -0.1850 C   0  0  0  0  0  0  0  0  0  0  0  0
   -1.8000    0.4220    0.0870 C   0  0  0  0  0  0  0  0  0  0  0  0
   -2.7740    1.3760    0.0700 C   0  0  0  0  0  0  0  0  0  0  0  0
   -2.5860    2.8050   -0.2230 C   0  0  0  0  0  0  0  0  0  0  0  0
   -3.9980    0.7980    0.3750 C   0  0  0  0  0  0  0  0  0  0  0  0
   -5.2790    1.2880    0.4900 C   0  0  0  0  0  0  0  0  0  0  0  0
   -5.5400    2.5040    0.3080 O   0  0  0  0  0  0  0  0  0  0  0  0
   -6.3060    0.4800    0.8040 N   0  0  0  0  0  0  0  0  0  0  0  0
   -6.0370   -0.7980    0.9960 N   0  0  0  0  0  0  0  0  0  0  0  0
   -4.7850   -1.2780    0.8840 C   0  0  0  0  0  0  0  0  0  0  0  0
   -4.6000   -2.8980    1.1490 S   0  0  0  0  0  0  0  0  0  0  0  0
   -3.7310   -0.5050    0.5720 N   0  0  0  0  0  0  0  0  0  0  0  0
   -2.4130   -0.7580    0.4050 C   0  0  0  0  0  0  0  0  0  0  0  0
   -1.8550   -2.1270    0.5740 C   0  0  0  0  0  0  0  0  0  0  0  0
  1  2  2  0
  2  3  1  0
  3  4  2  0
  3 10  1  0
  4  5  1  0
  5  6  2  0
  6  7  1  0
  7  8  1  0
  7  9  2  0
  9 10  1  0
 10 11  2  3
 11 12  1  0
 12 13  1  0
 13 14  1  0
 14 15  1  0
 15 16  1  0
 15 26  2  0
 16 17  1  0
 16 18  2  0
 18 19  1  0
 18 25  1  0
 19 20  2  0
 19 21  1  0
 21 22  1  0
 22 23  1  0
 23 24  2  0
 23 25  1  0
 25 26  1  0
 26 27  1  0
M  END
