
     RDKit          3D

 27 30  0  0  0  0  0  0  0  0999 V2000
    6.1360    1.1230    0.3860 C   0  0  0  0  0  0  0  0  0  0  0  0
    4.8030    1.0900    0.2260 C   0  0  0  0  0  0  0  0  0  0  0  0
    4.1170   -0.1780    0.3900 C   0  0  0  0  0  0  0  0  0  0  0  0
    4.8000   -1.2610    0.6880 N   0  0  0  0  0  0  0  0  0  0  0  0
    3.9210   -2.3790    0.7980 C   0  0  0  0  0  0  0  0  0  0  0  0
    2.5810   -1.8430    0.5260 C   0  0  0  0  0  0  0  0  0  0  0  0
    2.7230   -0.5200    0.2840 C   0  0  0  0  0  0  0  0  0  0  0  0
    1.6050    0.3400   -0.0250 C   0  0  0  0  0  0  0  0  0  0  0  0
    1.5330    1.6090   -0.2830 C   0  0  0  0  0  0  0  0  0  0  0  0
    0.1980    2.2730   -0.5770 C   0  0  0  0  0  0  0  0  0  0  0  0
   -0.8970    1.3750   -0.4790 N   0  0  0  0  0  0  0  0  0  0  0  0
   -1.3390    0.8480    0.7720 C   0  0  0  0  0  0  0  0  0  0  0  0
   -0.7240    1.3800    1.8990 C   0  0  0  0  0  0  0  0  0  0  0  0
   -1.0240    0.9660    3.1770 C   0  0  0  0  0  0  0  0  0  0  0  0
   -0.3700    1.5440    4.2230 F   0  0  0  0  0  0  0  0  0  0  0  0
   -1.9680   -0.0120    3.3420 C   0  0  0  0  0  0  0  0  0  0  0  0
   -2.5880   -0.5490    2.2270 C   0  0  0  0  0  0  0  0  0  0  0  0
   -2.2860   -0.1310    0.9340 C   0  0  0  0  0  0  0  0  0  0  0  0
   -3.0080   -0.7250   -0.1960 C   0  0  0  0  0  0  0  0  0  0  0  0
   -3.9360   -1.7310    0.0010 C   0  0  0  0  0  0  0  0  0  0  0  0
   -4.6290   -2.3390   -1.0570 C   0  0  0  0  0  0  0  0  0  0  0  0
   -4.3950   -1.9390   -2.3410 C   0  0  0  0  0  0  0  0  0  0  0  0
   -3.4800   -0.9420   -2.5730 C   0  0  0  0  0  0  0  0  0  0  0  0
   -2.8150   -0.3640   -1.5110 C   0  0  0  0  0  0  0  0  0  0  0  0
   -1.7040    0.9000   -1.8960 S   0  0  1  0  0  0  0  0  0  0  0  0
   -2.4510    2.1560   -2.4730 N   0  0  0  0  0  0  0  0  0  0  0  0
   -0.7100    0.4630   -2.9520 O   0  0  0  0  0  0  0  0  0  0  0  0
  1  2  2  0
  2  3  1  0
  3  4  2  0
  3  7  1  0
  4  5  1  0
  5  6  1  0
  6  7  2  0
  7  8  1  0
  8  9  2  3
  9 10  1  0
 10 11  1  0
 11 12  1  0
 25 11  1  1
 12 13  2  0
 12 18  1  0
 13 14  1  0
 14 15  1  0
 14 16  2  0
 16 17  1  0
 17 18  2  0
 18 19  1  0
 19 20  2  0
 19 24  1  0
 20 21  1  0
 21 22  2  0
 22 23  1  0
 23 24  2  0
 24 25  1  0
 25 26  2  0
 25 27  2  0
M  END
