
     RDKit          3D

 16 16  0  0  0  0  0  0  0  0999 V2000
   -2.0610   -2.3710    0.6520 C   0  0  0  0  0  0  0  0  0  0  0  0
   -2.1410   -0.9050    0.6060 C   0  0  0  0  0  0  0  0  0  0  0  0
   -2.9260   -0.1500    1.3600 N   0  0  0  0  0  0  0  0  0  0  0  0
   -2.7580    1.1360    1.0700 C   0  0  0  0  0  0  0  0  0  0  0  0
   -1.8080    1.2020    0.0720 C   0  0  0  0  0  0  0  0  0  0  0  0
   -1.3690    2.4260   -0.5080 N   0  0  0  0  0  0  0  0  0  0  0  0
   -0.5190    2.4110   -1.4180 O   0  0  0  0  0  0  0  0  0  0  0  0
   -1.9050    3.6240   -0.0520 O   0  0  0  0  0  0  0  0  0  0  0  0
   -1.4380   -0.0550   -0.2020 N   0  0  0  0  0  0  0  0  0  0  0  0
   -0.4590   -0.5130   -1.1570 C   0  0  0  0  0  0  0  0  0  0  0  0
    0.9250   -0.6810   -0.5860 C   0  0  0  0  0  0  0  0  0  0  0  0
    1.4890    0.5070   -0.0410 N   0  0  0  0  0  0  0  0  0  0  0  0
    3.0500    0.3080    0.6020 S   0  0  1  0  0  0  0  0  0  0  0  0
    4.2930    0.5830   -0.5670 N   0  0  0  0  0  0  0  0  0  0  0  0
    3.2760    1.1660    1.8170 O   0  0  0  0  0  0  0  0  0  0  0  0
    3.1930   -1.1290    1.0520 O   0  0  0  0  0  0  0  0  0  0  0  0
  1  2  1  0
  2  3  2  0
  2  9  1  0
  3  4  1  0
  4  5  2  0
  5  6  1  0
  5  9  1  0
  6  7  2  0
  6  8  1  0
  9 10  1  0
 10 11  1  0
 11 12  1  0
 12 13  1  0
 13 14  1  6
 13 15  2  0
 13 16  2  0
M  CHG  2   6   1   8  -1
M  END
