
     RDKit          3D

 26 29  0  0  0  0  0  0  0  0999 V2000
    6.9080    0.1820    1.8750 C   0  0  0  0  0  0  0  0  0  0  0  0
    5.5480    0.0080    1.3430 C   0  0  0  0  0  0  0  0  0  0  0  0
    4.8220   -1.1000    1.7670 C   0  0  0  0  0  0  0  0  0  0  0  0
    3.5440   -1.2720    1.2720 C   0  0  0  0  0  0  0  0  0  0  0  0
    2.9700   -0.3900    0.3790 C   0  0  0  0  0  0  0  0  0  0  0  0
    1.5920   -0.6050   -0.1330 C   0  0  0  0  0  0  0  0  0  0  0  0
    1.1580   -0.3730   -1.3040 C   0  0  0  0  0  0  0  0  0  0  0  0
    1.6730    0.1520   -2.6040 C   0  0  0  0  0  0  0  0  0  0  0  0
    0.6900    0.1330   -3.4210 N   0  0  0  0  0  0  0  0  0  0  0  0
   -0.4910   -0.3620   -2.8170 C   0  0  0  0  0  0  0  0  0  0  0  0
   -0.2130   -0.6570   -1.5750 C   0  0  0  0  0  0  0  0  0  0  0  0
   -0.7860   -1.2780   -0.0030 S   0  0  2  0  0  0  0  0  0  0  0  0
   -1.1790   -2.7210   -0.1740 O   0  0  0  0  0  0  0  0  0  0  0  0
   -2.0380   -0.3300    0.5510 N   0  0  0  0  0  0  0  0  0  0  0  0
   -3.2230   -0.6220   -0.2060 C   0  0  0  0  0  0  0  0  0  0  0  0
   -4.3930    0.1610    0.1970 C   0  0  0  0  0  0  0  0  0  0  0  0
   -4.3810    1.0960    1.2060 C   0  0  0  0  0  0  0  0  0  0  0  0
   -5.4990    1.8220    1.5660 C   0  0  0  0  0  0  0  0  0  0  0  0
   -6.6940    1.6130    0.8940 C   0  0  0  0  0  0  0  0  0  0  0  0
   -6.7220    0.6800   -0.1180 C   0  0  0  0  0  0  0  0  0  0  0  0
   -5.5840   -0.0410   -0.4670 C   0  0  0  0  0  0  0  0  0  0  0  0
   -5.6540   -1.0420   -1.5680 C   0  0  0  0  0  0  0  0  0  0  0  0
    0.5340   -1.1660    0.8130 N   0  0  0  0  0  0  0  0  0  0  0  0
    3.7280    0.6930   -0.0120 C   0  0  0  0  0  0  0  0  0  0  0  0
    5.0100    0.9110    0.4530 C   0  0  0  0  0  0  0  0  0  0  0  0
    5.8370    2.0710    0.0410 C   0  0  0  0  0  0  0  0  0  0  0  0
  1  2  1  0
  2  3  2  0
  2 25  1  0
  3  4  1  0
  4  5  2  0
  5  6  1  0
  5 24  1  0
  6  7  2  0
  6 23  1  0
  7  8  1  0
  7 11  1  0
  8  9  2  0
  9 10  1  0
 10 11  2  0
 11 12  1  0
 12 13  2  0
 12 14  1  1
 12 23  2  0
 14 15  1  0
 15 16  1  0
 16 17  2  0
 16 21  1  0
 17 18  1  0
 18 19  2  0
 19 20  1  0
 20 21  2  0
 21 22  1  0
 24 25  2  0
 25 26  1  0
M  END
