
     RDKit          3D

 26 29  0  0  0  0  0  0  0  0999 V2000
    7.9130   -2.3380    0.5180 C   0  0  0  0  0  0  0  0  0  0  0  0
    6.7990   -1.3250    0.6490 C   0  0  0  0  0  0  0  0  0  0  0  0
    6.2330   -0.8900    1.8140 C   0  0  0  0  0  0  0  0  0  0  0  0
    5.2580    0.0330    1.4160 C   0  0  0  0  0  0  0  0  0  0  0  0
    5.2640    0.1260    0.0540 C   0  0  0  0  0  0  0  0  0  0  0  0
    4.4960    0.8980   -0.8960 C   0  0  0  0  0  0  0  0  0  0  0  0
    3.5500    1.7070   -0.7470 C   0  0  0  0  0  0  0  0  0  0  0  0
    2.8120    2.2240    0.4210 C   0  0  0  0  0  0  0  0  0  0  0  0
    1.3560    1.9140    0.2210 C   0  0  0  0  0  0  0  0  0  0  0  0
    0.5970    0.9750    0.5020 N   0  0  0  0  0  0  0  0  0  0  0  0
   -0.6530    1.0080    0.1800 N   0  0  0  0  0  0  0  0  0  0  0  0
   -1.2420    1.8370   -0.3750 C   0  0  0  0  0  0  0  0  0  0  0  0
   -2.5100    2.2980   -0.9130 N   0  0  0  0  0  0  0  0  0  0  0  0
   -3.6880    1.5160   -0.8120 C   0  0  0  0  0  0  0  0  0  0  0  0
   -3.6120    0.2940   -0.1870 C   0  0  0  0  0  0  0  0  0  0  0  0
   -4.7510   -0.5010   -0.0690 C   0  0  0  0  0  0  0  0  0  0  0  0
   -4.6590   -1.7190    0.5580 C   0  0  0  0  0  0  0  0  0  0  0  0
   -5.7810   -2.4990    0.6710 C   0  0  0  0  0  0  0  0  0  0  0  0
   -7.0030   -2.0690    0.1600 C   0  0  0  0  0  0  0  0  0  0  0  0
   -7.1030   -0.8390   -0.4750 C   0  0  0  0  0  0  0  0  0  0  0  0
   -5.9640   -0.0720   -0.5790 C   0  0  0  0  0  0  0  0  0  0  0  0
   -5.9960    1.1590   -1.1970 C   0  0  0  0  0  0  0  0  0  0  0  0
   -4.8930    1.9560   -1.3240 C   0  0  0  0  0  0  0  0  0  0  0  0
   -4.9370    3.1550   -1.9310 F   0  0  0  0  0  0  0  0  0  0  0  0
    0.2170    3.0630   -0.6280 S   0  0  0  0  0  0  0  0  0  0  0  0
    6.2280   -0.7310   -0.3250 O   0  0  0  0  0  0  0  0  0  0  0  0
  1  2  1  0
  2  3  2  0
  2 26  1  0
  3  4  1  0
  4  5  2  0
  5  6  1  0
  5 26  1  0
  6  7  2  3
  7  8  1  0
  8  9  1  0
  9 10  2  0
  9 25  1  0
 10 11  1  0
 11 12  2  0
 12 13  1  0
 12 25  1  0
 13 14  1  0
 14 15  2  0
 14 23  1  0
 15 16  1  0
 16 17  2  0
 16 21  1  0
 17 18  1  0
 18 19  2  0
 19 20  1  0
 20 21  2  0
 21 22  1  0
 22 23  2  0
 23 24  1  0
M  END
