
     RDKit          3D

 28 31  0  0  0  0  0  0  0  0999 V2000
   -3.0540    3.9300    0.0620 C   0  0  0  0  0  0  0  0  0  0  0  0
   -2.6750    2.5190    0.3280 C   0  0  0  0  0  0  0  0  0  0  0  0
   -1.4480    2.2030    0.8260 C   0  0  0  0  0  0  0  0  0  0  0  0
   -0.5210    3.1690    1.1020 F   0  0  0  0  0  0  0  0  0  0  0  0
   -1.0530    0.9100    1.0880 C   0  0  0  0  0  0  0  0  0  0  0  0
    0.2330    0.5980    1.6090 N   0  0  0  0  0  0  0  0  0  0  0  0
    1.3050    0.3550    0.6750 C   0  0  0  0  0  0  0  0  0  0  0  0
    1.0230    0.4380   -0.5290 O   0  0  0  0  0  0  0  0  0  0  0  0
    2.5620    0.0500    1.2190 N   0  0  0  0  0  0  0  0  0  0  0  0
    3.6950   -0.2030    0.4050 C   0  0  0  0  0  0  0  0  0  0  0  0
    3.7860    0.0900   -0.9150 C   0  0  0  0  0  0  0  0  0  0  0  0
    4.9130   -0.1990   -1.6590 C   0  0  0  0  0  0  0  0  0  0  0  0
    5.9780   -0.8040   -1.0420 C   0  0  0  0  0  0  0  0  0  0  0  0
    7.1760   -1.1890   -1.5240 N   0  0  0  0  0  0  0  0  0  0  0  0
    7.8690   -1.7360   -0.5130 C   0  0  0  0  0  0  0  0  0  0  0  0
    7.1070   -1.6980    0.6210 C   0  0  0  0  0  0  0  0  0  0  0  0
    5.8940   -1.1090    0.3140 C   0  0  0  0  0  0  0  0  0  0  0  0
    4.7690   -0.8130    1.0280 C   0  0  0  0  0  0  0  0  0  0  0  0
   -1.9630   -0.0710    0.8210 C   0  0  0  0  0  0  0  0  0  0  0  0
   -3.2590    0.2260    0.2990 C   0  0  0  0  0  0  0  0  0  0  0  0
   -3.6160    1.5040    0.0520 C   0  0  0  0  0  0  0  0  0  0  0  0
   -4.8670    2.0050   -0.4980 C   0  0  0  0  0  0  0  0  0  0  0  0
   -5.8800    1.1820   -0.8450 O   0  0  0  0  0  0  0  0  0  0  0  0
   -4.2830   -0.7970    0.0170 C   0  0  0  0  0  0  0  0  0  0  0  0
   -3.8030   -1.5380   -1.2360 C   0  0  0  0  0  0  0  0  0  0  0  0
   -2.2960   -1.7800   -1.1250 C   0  0  0  0  0  0  0  0  0  0  0  0
   -1.9360   -2.3730    0.1450 N   0  0  0  0  0  0  0  0  0  0  0  0
   -1.4420   -1.4280    1.1150 C   0  0  0  0  0  0  0  0  0  0  0  0
  1  2  1  0
  2  3  2  0
  2 21  1  0
  3  4  1  0
  3  5  1  0
  5  6  1  0
  5 19  2  0
  6  7  1  0
  7  8  2  0
  7  9  1  0
  9 10  1  0
 10 11  2  0
 10 18  1  0
 11 12  1  0
 12 13  2  0
 13 14  1  0
 13 17  1  0
 14 15  1  0
 15 16  2  0
 16 17  1  0
 17 18  2  0
 19 20  1  0
 19 28  1  0
 20 21  2  0
 20 24  1  0
 21 22  1  0
 22 23  1  0
 24 25  1  0
 25 26  1  0
 26 27  1  0
 27 28  1  0
M  CHG  1  27   1
M  END
