
     RDKit          3D

 22 24  0  0  0  0  0  0  0  0999 V2000
   -1.0900   -1.2930    2.8830 O   0  0  0  0  0  0  0  0  0  0  0  0
   -1.1080   -0.0760    1.9680 S   0  0  2  0  0  0  0  0  0  0  0  0
   -1.2050    1.1210    2.8750 O   0  0  0  0  0  0  0  0  0  0  0  0
   -2.4400   -0.1500    0.8810 C   0  0  0  0  0  0  0  0  0  0  0  0
   -3.2340    0.9880    0.7550 C   0  0  0  0  0  0  0  0  0  0  0  0
   -4.2660    1.0080   -0.1200 C   0  0  0  0  0  0  0  0  0  0  0  0
   -4.5680   -0.0770   -0.9080 C   0  0  0  0  0  0  0  0  0  0  0  0
   -5.6460   -0.0010   -1.7960 O   0  0  0  0  0  0  0  0  0  0  0  0
   -3.8190   -1.2000   -0.8120 C   0  0  0  0  0  0  0  0  0  0  0  0
   -2.7490   -1.2150    0.0990 C   0  0  0  0  0  0  0  0  0  0  0  0
   -1.9990   -2.3750    0.1890 O   0  0  0  0  0  0  0  0  0  0  0  0
    0.4340   -0.0830    1.1520 N   0  0  0  0  0  0  0  0  0  0  0  0
    1.2390   -1.0950    0.8250 C   0  0  0  0  0  0  0  0  0  0  0  0
    2.3820   -0.6360    0.2050 C   0  0  0  0  0  0  0  0  0  0  0  0
    3.5100   -1.2640   -0.3180 C   0  0  0  0  0  0  0  0  0  0  0  0
    4.5250   -0.5360   -0.8960 C   0  0  0  0  0  0  0  0  0  0  0  0
    5.6540   -1.1610   -1.4200 O   0  0  0  0  0  0  0  0  0  0  0  0
    4.4160    0.8570   -0.9550 C   0  0  0  0  0  0  0  0  0  0  0  0
    3.3010    1.4780   -0.4380 C   0  0  0  0  0  0  0  0  0  0  0  0
    3.2230    2.8530   -0.5120 O   0  0  0  0  0  0  0  0  0  0  0  0
    2.2860    0.7350    0.1410 C   0  0  0  0  0  0  0  0  0  0  0  0
    1.0850    1.0420    0.7270 C   0  0  0  0  0  0  0  0  0  0  0  0
  1  2  2  0
  2  3  2  0
  2  4  1  0
  2 12  1  6
  4  5  2  0
  4 10  1  0
  5  6  1  0
  6  7  2  0
  7  8  1  0
  7  9  1  0
  9 10  2  0
 10 11  1  0
 12 13  1  0
 12 22  1  0
 13 14  2  0
 14 15  1  0
 14 21  1  0
 15 16  2  0
 16 17  1  0
 16 18  1  0
 18 19  2  0
 19 20  1  0
 19 21  1  0
 21 22  2  0
M  END
