
     RDKit          3D

 21 23  0  0  0  0  0  0  0  0999 V2000
    5.6720   -0.3140    0.4290 C   0  0  0  0  0  0  0  0  0  0  0  0
    4.3000   -0.2170    0.1190 O   0  0  0  0  0  0  0  0  0  0  0  0
    3.8260   -0.5780   -1.1320 C   0  0  0  0  0  0  0  0  0  0  0  0
    4.6820   -0.9920   -1.9660 O   0  0  0  0  0  0  0  0  0  0  0  0
    2.3860   -0.4710   -1.4430 C   0  0  0  0  0  0  0  0  0  0  0  0
    1.7090    0.0170   -0.3210 O   0  0  0  0  0  0  0  0  0  0  0  0
    0.3580    0.2450   -0.2420 C   0  0  0  0  0  0  0  0  0  0  0  0
   -0.1530    1.4780   -0.5870 C   0  0  0  0  0  0  0  0  0  0  0  0
    0.7140    2.4740   -1.0130 O   0  0  0  0  0  0  0  0  0  0  0  0
   -1.5020    1.7340   -0.5170 C   0  0  0  0  0  0  0  0  0  0  0  0
   -2.3380    0.7150   -0.0870 C   0  0  0  0  0  0  0  0  0  0  0  0
   -1.8030   -0.5140    0.2540 C   0  0  0  0  0  0  0  0  0  0  0  0
   -0.4520   -0.7910    0.1900 C   0  0  0  0  0  0  0  0  0  0  0  0
   -0.2700   -2.1780    0.6230 C   0  0  1  0  0  0  0  0  0  0  0  0
    0.9800   -2.4310    1.2880 N   0  0  0  0  0  0  0  0  0  0  0  0
   -1.4150   -2.3420    1.6030 C   0  0  0  0  0  0  0  0  0  0  0  0
   -2.5350   -1.7390    0.7410 C   0  0  0  0  0  0  0  0  0  0  0  0
   -3.6840    0.9940   -0.0250 O   0  0  0  0  0  0  0  0  0  0  0  0
   -4.2420    2.2740   -0.0020 C   0  0  0  0  0  0  0  0  0  0  0  0
   -3.3480    3.3610   -0.4790 C   0  0  0  0  0  0  0  0  0  0  0  0
   -2.0670    2.9530   -0.8520 O   0  0  0  0  0  0  0  0  0  0  0  0
  1  2  1  0
  2  3  1  0
  3  4  2  0
  3  5  1  0
  5  6  1  0
  6  7  1  0
  7  8  2  0
  7 13  1  0
  8  9  1  0
  8 10  1  0
 10 11  2  0
 10 21  1  0
 11 12  1  0
 11 18  1  0
 12 13  2  0
 12 17  1  0
 13 14  1  0
 14 15  1  1
 14 16  1  0
 16 17  1  0
 18 19  1  0
 19 20  1  0
 20 21  1  0
M  END
