
     RDKit          3D

 22 24  0  0  0  0  0  0  0  0999 V2000
   -3.1040    3.2470   -0.4030 C   0  0  0  0  0  0  0  0  0  0  0  0
   -2.6470    1.8470   -0.4170 C   0  0  0  0  0  0  0  0  0  0  0  0
   -1.3890    1.4350   -0.8040 C   0  0  0  0  0  0  0  0  0  0  0  0
   -1.0160    0.1250   -0.7980 C   0  0  0  0  0  0  0  0  0  0  0  0
    0.2180   -0.3770   -1.1680 O   0  0  0  0  0  0  0  0  0  0  0  0
    1.2640   -0.5340   -0.2500 C   0  0  0  0  0  0  0  0  0  0  0  0
    1.0110   -0.1930    0.9130 O   0  0  0  0  0  0  0  0  0  0  0  0
    2.5230   -1.0490   -0.6420 N   0  0  0  0  0  0  0  0  0  0  0  0
    3.5720   -1.1920    0.3240 C   0  0  0  0  0  0  0  0  0  0  0  0
    3.9350    0.1510    0.9020 C   0  0  1  0  0  0  0  0  0  0  0  0
    4.9650   -0.0030    1.8430 O   0  0  0  0  0  0  0  0  0  0  0  0
    4.4220    1.0910   -0.2000 C   0  0  0  0  0  0  0  0  0  0  0  0
    4.7540    2.3250    0.3200 O   0  0  0  0  0  0  0  0  0  0  0  0
   -1.9490   -0.8360   -0.3820 C   0  0  0  0  0  0  0  0  0  0  0  0
   -3.2110   -0.4560    0.0110 C   0  0  0  0  0  0  0  0  0  0  0  0
   -3.5480    0.8650   -0.0090 C   0  0  0  0  0  0  0  0  0  0  0  0
   -5.2520    0.8820    0.5710 S   0  0  0  0  0  0  0  0  0  0  0  0
   -5.4140   -0.8370    0.8020 O   0  0  0  0  0  0  0  0  0  0  0  0
   -4.1940   -1.3720    0.4390 C   0  0  0  0  0  0  0  0  0  0  0  0
   -3.8560   -2.6810    0.4570 C   0  0  0  0  0  0  0  0  0  0  0  0
   -2.5330   -3.1730    0.0560 C   0  0  0  0  0  0  0  0  0  0  0  0
   -1.6270   -2.1830   -0.3540 O   0  0  0  0  0  0  0  0  0  0  0  0
  1  2  1  0
  2  3  2  0
  2 16  1  0
  3  4  1  0
  4  5  1  0
  4 14  2  0
  5  6  1  0
  6  7  2  0
  6  8  1  0
  8  9  1  0
  9 10  1  0
 10 11  1  1
 10 12  1  0
 12 13  1  0
 14 15  1  0
 14 22  1  0
 15 16  2  0
 15 19  1  0
 16 17  1  0
 17 18  1  0
 18 19  1  0
 19 20  2  0
 20 21  1  0
 21 22  1  0
M  END
