
     RDKit          3D

 25 28  0  0  0  0  0  0  0  0999 V2000
    7.6310   -1.5920    0.7870 C   0  0  0  0  0  0  0  0  0  0  0  0
    6.2700   -1.0250    0.6370 C   0  0  0  0  0  0  0  0  0  0  0  0
    5.9380    0.0970    1.3670 C   0  0  0  0  0  0  0  0  0  0  0  0
    4.6740    0.6220    1.2270 C   0  0  0  0  0  0  0  0  0  0  0  0
    3.7640    0.0370    0.3760 C   0  0  0  0  0  0  0  0  0  0  0  0
    4.1010   -1.0980   -0.3620 C   0  0  0  0  0  0  0  0  0  0  0  0
    5.3670   -1.6180   -0.2170 C   0  0  0  0  0  0  0  0  0  0  0  0
    3.1660   -1.6470   -1.1960 C   0  0  0  0  0  0  0  0  0  0  0  0
    3.5100   -2.6740   -1.8470 O   0  0  0  0  0  0  0  0  0  0  0  0
    1.9340   -1.1390   -1.3360 N   0  0  0  0  0  0  0  0  0  0  0  0
    1.5610   -0.0490   -0.6490 C   0  0  0  0  0  0  0  0  0  0  0  0
    0.2810    0.4830   -0.7910 C   0  0  0  0  0  0  0  0  0  0  0  0
   -0.1210    1.5970   -0.0980 C   0  0  0  0  0  0  0  0  0  0  0  0
   -1.4800    2.1210   -0.2800 C   0  0  0  0  0  0  0  0  0  0  0  0
   -2.4510    1.5850    0.6090 N   0  0  0  0  0  0  0  0  0  0  0  0
   -2.9350    0.2770    0.2750 C   0  0  2  0  0  0  0  0  0  0  0  0
   -3.6530    0.2020   -1.0260 C   0  0  0  0  0  0  0  0  0  0  0  0
   -5.0500    0.7950   -0.8880 C   0  0  0  0  0  0  0  0  0  0  0  0
   -5.8620   -0.2000   -0.0910 C   0  0  0  0  0  0  0  0  0  0  0  0
   -5.0410   -0.9280    0.9310 C   0  0  1  0  0  0  0  0  0  0  0  0
   -4.7320   -2.2920    0.5210 N   0  0  0  0  0  0  0  0  0  0  0  0
   -3.8340   -0.1720    1.3940 C   0  0  0  0  0  0  0  0  0  0  0  0
    0.8020    2.1570    0.7400 C   0  0  0  0  0  0  0  0  0  0  0  0
    2.0880    1.6400    0.8960 C   0  0  0  0  0  0  0  0  0  0  0  0
    2.4720    0.5360    0.2030 C   0  0  0  0  0  0  0  0  0  0  0  0
  1  2  1  0
  2  3  2  0
  2  7  1  0
  3  4  1  0
  4  5  2  0
  5  6  1  0
  5 25  1  0
  6  7  2  0
  6  8  1  0
  8  9  2  0
  8 10  1  0
 10 11  1  0
 11 12  2  0
 11 25  1  0
 12 13  1  0
 13 14  1  0
 13 23  2  0
 14 15  1  0
 16 15  1  1
 16 17  1  0
 16 22  1  0
 17 18  1  0
 18 19  1  0
 19 20  1  0
 20 21  1  6
 20 22  1  0
 23 24  1  0
 24 25  2  0
M  CHG  1  15   1
M  END
