
     RDKit          3D

 25 28  0  0  0  0  0  0  0  0999 V2000
   -4.0920    1.4650   -1.3540 C   0  0  0  0  0  0  0  0  0  0  0  0
   -3.3470    0.2850   -0.7970 C   0  0  0  0  0  0  0  0  0  0  0  0
   -4.0120   -0.8960   -0.6110 C   0  0  0  0  0  0  0  0  0  0  0  0
   -3.3670   -2.0010   -0.1030 C   0  0  0  0  0  0  0  0  0  0  0  0
   -4.0790   -3.2970    0.1040 C   0  0  0  0  0  0  0  0  0  0  0  0
   -2.0260   -1.9170    0.2280 C   0  0  0  0  0  0  0  0  0  0  0  0
   -1.3550   -0.7150    0.0400 C   0  0  0  0  0  0  0  0  0  0  0  0
   -1.9960    0.3760   -0.4690 C   0  0  0  0  0  0  0  0  0  0  0  0
    0.1000   -0.7150    0.1920 C   0  0  0  0  0  0  0  0  0  0  0  0
    0.7460   -1.8990    0.4630 C   0  0  0  0  0  0  0  0  0  0  0  0
    2.1320   -1.8770    0.6060 C   0  0  0  0  0  0  0  0  0  0  0  0
    2.8050   -0.6930    0.4740 C   0  0  0  0  0  0  0  0  0  0  0  0
    4.2860   -0.7060    0.6250 C   0  0  2  0  0  0  0  0  0  0  0  0
    4.8940    0.5990    0.1410 C   0  0  0  0  0  0  0  0  0  0  0  0
    4.8390   -1.8140   -0.1100 N   0  0  0  0  0  0  0  0  0  0  0  0
    2.1410    0.4360    0.2170 N   0  0  0  0  0  0  0  0  0  0  0  0
    0.7570    0.4630    0.0740 C   0  0  0  0  0  0  0  0  0  0  0  0
    0.2360    1.8070    0.2230 C   0  0  0  0  0  0  0  0  0  0  0  0
   -0.7020    2.3740    1.0630 C   0  0  0  0  0  0  0  0  0  0  0  0
   -0.7550    3.7080    0.7510 C   0  0  0  0  0  0  0  0  0  0  0  0
    0.1320    3.9290   -0.2500 C   0  0  0  0  0  0  0  0  0  0  0  0
    0.4200    5.2440   -0.9170 C   0  0  0  0  0  0  0  0  0  0  0  0
    0.6950    2.8050   -0.5370 O   0  0  0  0  0  0  0  0  0  0  0  0
    0.0390   -3.1790    0.5810 C   0  0  0  0  0  0  0  0  0  0  0  0
   -1.3670   -3.0450    0.7780 N   0  0  0  0  0  0  0  0  0  0  0  0
  1  2  1  0
  2  3  2  0
  2  8  1  0
  3  4  1  0
  4  5  1  0
  4  6  2  0
  6  7  1  0
  6 25  1  0
  7  8  2  0
  7  9  1  0
  9 10  2  0
  9 17  1  0
 10 11  1  0
 10 24  1  0
 11 12  2  0
 12 13  1  0
 12 16  1  0
 13 14  1  6
 13 15  1  0
 16 17  2  0
 17 18  1  0
 18 19  2  0
 18 23  1  0
 19 20  1  0
 20 21  2  0
 21 22  1  0
 21 23  1  0
 24 25  1  0
M  CHG  1  15   1
M  END
