
     RDKit          3D

 28 30  0  0  0  0  0  0  0  0999 V2000
   -5.7230   -2.9660    1.9870 C   0  0  0  0  0  0  0  0  0  0  0  0
   -5.9760   -1.5790    2.0950 O   0  0  0  0  0  0  0  0  0  0  0  0
   -4.9870   -0.7160    1.5980 C   0  0  0  0  0  0  0  0  0  0  0  0
   -5.1650    0.6560    1.6690 C   0  0  0  0  0  0  0  0  0  0  0  0
   -4.2120    1.5350    1.1880 C   0  0  0  0  0  0  0  0  0  0  0  0
   -3.0430    1.0640    0.6170 C   0  0  0  0  0  0  0  0  0  0  0  0
   -2.8940   -0.3050    0.5600 C   0  0  0  0  0  0  0  0  0  0  0  0
   -3.8350   -1.1890    1.0350 C   0  0  0  0  0  0  0  0  0  0  0  0
   -1.6460   -0.4970   -0.0530 C   0  0  0  0  0  0  0  0  0  0  0  0
   -1.0900    0.7270   -0.3420 C   0  0  0  0  0  0  0  0  0  0  0  0
    0.1980    1.0110   -0.9810 C   0  0  0  0  0  0  0  0  0  0  0  0
    0.6110    2.1730   -1.2060 O   0  0  0  0  0  0  0  0  0  0  0  0
    1.0510   -0.0650   -1.3800 N   0  0  0  0  0  0  0  0  0  0  0  0
    2.5890    0.2310   -2.1420 S   0  0  2  0  0  0  0  0  0  0  0  0
    2.7410    1.6660   -2.5070 O   0  0  0  0  0  0  0  0  0  0  0  0
    2.5650   -0.5670   -3.4320 O   0  0  0  0  0  0  0  0  0  0  0  0
    3.8700   -0.3620   -1.1470 C   0  0  0  0  0  0  0  0  0  0  0  0
    4.4480    0.4590   -0.2130 C   0  0  0  0  0  0  0  0  0  0  0  0
    5.4670   -0.0270    0.5710 C   0  0  0  0  0  0  0  0  0  0  0  0
    5.9110   -1.3250    0.4260 C   0  0  0  0  0  0  0  0  0  0  0  0
    7.0120   -1.8610    1.2680 C   0  0  0  0  0  0  0  0  0  0  0  0
    5.3150   -2.1490   -0.5280 C   0  0  0  0  0  0  0  0  0  0  0  0
    4.2940   -1.6640   -1.3140 C   0  0  0  0  0  0  0  0  0  0  0  0
   -1.9600    1.6630    0.0760 N   0  0  0  0  0  0  0  0  0  0  0  0
   -1.7870    3.0970   -0.0260 C   0  0  0  0  0  0  0  0  0  0  0  0
   -2.3310    3.6260   -1.3030 C   0  0  0  0  0  0  0  0  0  0  0  0
   -2.2460    4.8630   -1.5210 O   0  0  0  0  0  0  0  0  0  0  0  0
   -2.9120    2.7820   -2.2220 O   0  0  0  0  0  0  0  0  0  0  0  0
  1  2  1  0
  2  3  1  0
  3  4  2  0
  3  8  1  0
  4  5  1  0
  5  6  2  0
  6  7  1  0
  6 24  1  0
  7  8  2  0
  7  9  1  0
  9 10  2  0
 10 11  1  0
 10 24  1  0
 11 12  2  0
 11 13  1  0
 14 13  1  1
 14 15  2  0
 14 16  2  0
 14 17  1  0
 17 18  2  0
 17 23  1  0
 18 19  1  0
 19 20  2  0
 20 21  1  0
 20 22  1  0
 22 23  2  0
 24 25  1  0
 25 26  1  0
 26 27  2  0
 26 28  1  0
M  END
