
     RDKit          3D

 25 27  0  0  0  0  0  0  0  0999 V2000
    4.4890    3.9390   -1.1880 C   0  0  0  0  0  0  0  0  0  0  0  0
    4.0700    2.5740   -0.8470 C   0  0  0  0  0  0  0  0  0  0  0  0
    2.7610    2.2880   -0.7920 C   0  0  0  0  0  0  0  0  0  0  0  0
    2.3850    0.9550   -0.4590 C   0  0  0  0  0  0  0  0  0  0  0  0
    1.1960    0.4230   -0.3380 C   0  0  0  0  0  0  0  0  0  0  0  0
    1.1130   -0.9550    0.0030 C   0  0  0  0  0  0  0  0  0  0  0  0
    2.3570   -1.7010    0.0220 C   0  0  0  0  0  0  0  0  0  0  0  0
    2.7070   -2.7450    0.7170 C   0  0  0  0  0  0  0  0  0  0  0  0
    4.0870   -3.3510    0.5450 C   0  0  0  0  0  0  0  0  0  0  0  0
    4.7680   -3.3110    1.7770 O   0  0  0  0  0  0  0  0  0  0  0  0
   -0.1110   -1.5600    0.2250 C   0  0  0  0  0  0  0  0  0  0  0  0
   -0.2340   -3.0240    0.4080 C   0  0  0  0  0  0  0  0  0  0  0  0
   -1.2660   -0.8140    0.1230 C   0  0  0  0  0  0  0  0  0  0  0  0
   -2.5040   -1.3560    0.3660 C   0  0  0  0  0  0  0  0  0  0  0  0
   -2.7140   -2.6970    0.7760 N   0  0  0  0  0  0  0  0  0  0  0  0
   -3.6430   -0.5340    0.2620 C   0  0  0  0  0  0  0  0  0  0  0  0
   -4.9670   -1.1760    0.5340 C   0  0  0  0  0  0  0  0  0  0  0  0
   -3.5250    0.7820   -0.0740 C   0  0  0  0  0  0  0  0  0  0  0  0
   -2.3060    1.3360   -0.3140 C   0  0  0  0  0  0  0  0  0  0  0  0
   -1.1770    0.5410   -0.2150 C   0  0  0  0  0  0  0  0  0  0  0  0
    0.0510    1.1500   -0.4450 C   0  0  0  0  0  0  0  0  0  0  0  0
    0.0210    2.5270   -0.7880 N   0  0  0  0  0  0  0  0  0  0  0  0
   -2.4420    2.6040   -0.6150 N   0  0  0  0  0  0  0  0  0  0  0  0
   -3.8020    3.0320   -0.6030 C   0  0  0  0  0  0  0  0  0  0  0  0
   -4.5770    1.8090   -0.2380 C   0  0  0  0  0  0  0  0  0  0  0  0
  1  2  1  0
  2  3  2  3
  3  4  1  0
  4  5  2  3
  5  6  1  0
  5 21  1  0
  6  7  1  0
  6 11  2  0
  7  8  2  3
  8  9  1  0
  9 10  1  0
 11 12  1  0
 11 13  1  0
 13 14  2  0
 13 20  1  0
 14 15  1  0
 14 16  1  0
 16 17  1  0
 16 18  2  0
 18 19  1  0
 18 25  1  0
 19 20  1  0
 19 23  2  0
 20 21  2  0
 21 22  1  0
 23 24  1  0
 24 25  1  0
M  END
