
     RDKit          3D

  9  9  0  0  0  0  0  0  0  0999 V2000
   -2.6900    0.5170   -0.1100 O   0  0  0  0  0  0  0  0  0  0  0  0
   -1.7600   -0.3450    0.4340 C   0  0  0  0  0  0  0  0  0  0  0  0
   -0.4400   -0.1470   -0.2510 C   0  0  1  0  0  0  0  0  0  0  0  0
   -0.4820   -0.3850   -1.6040 O   0  0  0  0  0  0  0  0  0  0  0  0
    0.1630    1.2150    0.0380 C   0  0  0  0  0  0  0  0  0  0  0  0
    1.4640    1.0090   -0.4660 O   0  0  0  0  0  0  0  0  0  0  0  0
    1.8800   -0.2170   -0.0110 C   0  0  1  0  0  0  0  0  0  0  0  0
    2.6770    0.0120    1.1280 O   0  0  0  0  0  0  0  0  0  0  0  0
    0.6490   -1.0250    0.3360 C   0  0  0  0  0  0  0  0  0  0  0  0
  1  2  1  0
  2  3  1  0
  3  4  1  6
  3  5  1  0
  3  9  1  0
  5  6  1  0
  6  7  1  0
  7  8  1  1
  7  9  1  0
M  END
