
     RDKit          3D

 28 31  0  0  0  0  0  0  0  0999 V2000
   -7.7770    0.7860   -1.1120 C   0  0  0  0  0  0  0  0  0  0  0  0
   -7.1130    0.2750   -0.1170 C   0  0  0  0  0  0  0  0  0  0  0  0
   -5.6830    0.1830   -0.0140 C   0  0  0  0  0  0  0  0  0  0  0  0
   -5.1560    0.3680    1.2760 C   0  0  0  0  0  0  0  0  0  0  0  0
   -3.7970    0.2660    1.4060 C   0  0  0  0  0  0  0  0  0  0  0  0
   -2.9620   -0.0030    0.3500 C   0  0  0  0  0  0  0  0  0  0  0  0
   -1.5060   -0.0880    0.6270 C   0  0  0  0  0  0  0  0  0  0  0  0
   -0.5450   -0.3500   -0.3240 C   0  0  0  0  0  0  0  0  0  0  0  0
    0.6790   -0.3380    0.3610 C   0  0  0  0  0  0  0  0  0  0  0  0
    0.4100   -0.0740    1.6750 C   0  0  0  0  0  0  0  0  0  0  0  0
    1.3260    0.0480    2.8140 C   0  0  0  0  0  0  0  0  0  0  0  0
    2.5790   -0.0770    2.7820 N   0  0  0  0  0  0  0  0  0  0  0  0
    3.2090    0.0960    4.0480 O   0  0  0  0  0  0  0  0  0  0  0  0
    3.4280   -0.3570    1.6920 C   0  0  0  0  0  0  0  0  0  0  0  0
    3.7750   -1.6410    1.3330 C   0  0  0  0  0  0  0  0  0  0  0  0
    4.6370   -1.8730    0.2620 C   0  0  0  0  0  0  0  0  0  0  0  0
    5.1560   -0.8170   -0.4580 C   0  0  0  0  0  0  0  0  0  0  0  0
    4.8130    0.4600   -0.1040 C   0  0  0  0  0  0  0  0  0  0  0  0
    3.9510    0.6930    0.9690 C   0  0  0  0  0  0  0  0  0  0  0  0
    5.3340    1.5580   -0.8270 N   0  0  0  0  0  0  0  0  0  0  0  0
    6.2250    1.3360   -1.9360 C   0  0  0  0  0  0  0  0  0  0  0  0
    6.3950    2.2550   -2.7490 O   0  0  0  0  0  0  0  0  0  0  0  0
    6.8790    0.0080   -2.0200 C   0  0  0  0  0  0  0  0  0  0  0  0
    6.0180   -1.0020   -1.5320 O   0  0  0  0  0  0  0  0  0  0  0  0
   -0.9150    0.0630    1.7600 O   0  0  0  0  0  0  0  0  0  0  0  0
   -3.4640   -0.1750   -0.8490 N   0  0  0  0  0  0  0  0  0  0  0  0
   -4.8190   -0.0840   -1.0370 C   0  0  0  0  0  0  0  0  0  0  0  0
   -5.3460   -0.3310   -2.4290 C   0  0  0  0  0  0  0  0  0  0  0  0
  1  2  2  0
  2  3  1  0
  3  4  2  0
  3 27  1  0
  4  5  1  0
  5  6  2  0
  6  7  1  0
  6 26  1  0
  7  8  2  0
  7 25  1  0
  8  9  1  0
  9 10  2  0
 10 11  1  0
 10 25  1  0
 11 12  2  3
 12 13  1  0
 12 14  1  0
 14 15  2  0
 14 19  1  0
 15 16  1  0
 16 17  2  0
 17 18  1  0
 17 24  1  0
 18 19  2  0
 18 20  1  0
 20 21  1  0
 21 22  2  0
 21 23  1  0
 23 24  1  0
 26 27  2  0
 27 28  1  0
M  CHG  2  12   1  13  -1
M  END
