
     RDKit          3D

 28 30  0  0  0  0  0  0  0  0999 V2000
   -4.6120    1.8070    1.6080 C   0  0  0  0  0  0  0  0  0  0  0  0
   -4.4270    0.3890    1.3330 C   0  0  2  0  0  0  0  0  0  0  0  0
   -5.4340   -0.5910    1.8770 C   0  0  0  0  0  0  0  0  0  0  0  0
   -3.1150   -0.1660    0.9900 C   0  0  0  0  0  0  0  0  0  0  0  0
   -3.1450   -1.0080   -0.1650 O   0  0  0  0  0  0  0  0  0  0  0  0
   -1.9490   -0.0110    1.5690 C   0  0  0  0  0  0  0  0  0  0  0  0
   -1.7970    0.8200    2.7860 C   0  0  0  0  0  0  0  0  0  0  0  0
   -2.7910    1.2950    3.3730 O   0  0  0  0  0  0  0  0  0  0  0  0
   -0.5170    1.1000    3.3400 N   0  0  0  0  0  0  0  0  0  0  0  0
   -0.3810    1.9280    4.5470 C   0  0  0  0  0  0  0  0  0  0  0  0
    0.6170    0.5640    2.7080 C   0  0  0  0  0  0  0  0  0  0  0  0
    0.5400   -0.1810    1.6340 C   0  0  0  0  0  0  0  0  0  0  0  0
   -0.7470   -0.5470    0.9550 C   0  0  0  0  0  0  0  0  0  0  0  0
   -0.6240   -1.3310   -0.0310 N   0  0  0  0  0  0  0  0  0  0  0  0
   -1.5210   -1.9340   -0.8320 O   0  0  0  0  0  0  0  0  0  0  0  0
    0.7490   -1.6770   -0.4490 C   0  0  0  0  0  0  0  0  0  0  0  0
    1.3940   -2.7500    0.1130 C   0  0  0  0  0  0  0  0  0  0  0  0
    2.6890   -3.0380   -0.3070 C   0  0  0  0  0  0  0  0  0  0  0  0
    3.3110   -2.2800   -1.2520 C   0  0  0  0  0  0  0  0  0  0  0  0
    2.6550   -1.2100   -1.8060 C   0  0  0  0  0  0  0  0  0  0  0  0
    3.3050   -0.4080   -2.8050 N   0  0  0  0  0  0  0  0  0  0  0  0
    3.3150   -0.6920   -4.1290 C   0  0  0  0  0  0  0  0  0  0  0  0
    4.0180    0.2690   -4.8080 C   0  0  0  0  0  0  0  0  0  0  0  0
    4.4590    1.1810   -3.8770 C   0  0  0  0  0  0  0  0  0  0  0  0
    5.2520    2.3870   -4.1150 C   0  0  0  0  0  0  0  0  0  0  0  0
    5.6060    2.6870   -5.2690 O   0  0  0  0  0  0  0  0  0  0  0  0
    3.9920    0.7170   -2.6530 C   0  0  0  0  0  0  0  0  0  0  0  0
    1.3730   -0.9300   -1.3870 C   0  0  0  0  0  0  0  0  0  0  0  0
  2  1  1  1
  2  3  1  0
  2  4  1  0
  4  5  1  0
  4  6  2  3
  6  7  1  0
  6 13  1  0
  7  8  2  0
  7  9  1  0
  9 10  1  0
  9 11  1  0
 11 12  2  0
 12 13  1  0
 13 14  2  3
 14 15  1  0
 14 16  1  0
 16 17  2  0
 16 28  1  0
 17 18  1  0
 18 19  2  0
 19 20  1  0
 20 21  1  0
 20 28  2  0
 21 22  1  0
 21 27  1  0
 22 23  2  0
 23 24  1  0
 24 25  1  0
 24 27  2  0
 25 26  2  0
M  CHG  2  14   1  15  -1
M  END
