
     RDKit          3D

 28 31  0  0  0  0  0  0  0  0999 V2000
   -5.7240    1.6430   -2.8810 C   0  0  0  0  0  0  0  0  0  0  0  0
   -5.0730    1.1070   -1.6780 C   0  0  0  0  0  0  0  0  0  0  0  0
   -5.5950    0.1620   -0.8970 C   0  0  0  0  0  0  0  0  0  0  0  0
   -4.8660   -0.3250    0.3090 C   0  0  0  0  0  0  0  0  0  0  0  0
   -3.4010   -0.3490    0.0570 N   0  0  0  0  0  0  0  0  0  0  0  0
   -2.6510   -0.9430    1.0760 C   0  0  0  0  0  0  0  0  0  0  0  0
   -3.3240   -1.3140    2.1570 O   0  0  0  0  0  0  0  0  0  0  0  0
   -1.2320   -1.1900    1.0910 C   0  0  0  0  0  0  0  0  0  0  0  0
   -0.6420   -1.1760    2.3760 C   0  0  0  0  0  0  0  0  0  0  0  0
   -1.4210   -0.8600    3.4990 O   0  0  0  0  0  0  0  0  0  0  0  0
    0.6820   -1.4750    2.4710 C   0  0  0  0  0  0  0  0  0  0  0  0
    1.4500   -1.7860    1.3660 C   0  0  0  0  0  0  0  0  0  0  0  0
    0.8600   -1.7960    0.1240 C   0  0  0  0  0  0  0  0  0  0  0  0
    1.5940   -2.0990   -1.0480 N   0  0  0  0  0  0  0  0  0  0  0  0
    3.0220   -2.3830   -0.9620 C   0  0  0  0  0  0  0  0  0  0  0  0
    3.7650   -1.1840   -0.4790 C   0  0  0  0  0  0  0  0  0  0  0  0
    3.2300    0.0780   -0.3510 C   0  0  0  0  0  0  0  0  0  0  0  0
    4.2100    0.9160    0.1200 C   0  0  0  0  0  0  0  0  0  0  0  0
    4.2760    2.2540    0.4380 C   0  0  0  0  0  0  0  0  0  0  0  0
    5.4490    2.8080    0.9020 C   0  0  0  0  0  0  0  0  0  0  0  0
    6.5580    1.9890    1.0390 C   0  0  0  0  0  0  0  0  0  0  0  0
    6.5200    0.6570    0.7310 C   0  0  0  0  0  0  0  0  0  0  0  0
    5.3460    0.1120    0.2690 C   0  0  0  0  0  0  0  0  0  0  0  0
    5.0130   -1.1050   -0.1000 O   0  0  0  0  0  0  0  0  0  0  0  0
   -0.4730   -1.4970    0.0320 N   0  0  0  0  0  0  0  0  0  0  0  0
   -0.9850   -1.6290   -1.2300 O   0  0  0  0  0  0  0  0  0  0  0  0
   -2.8890    0.3030   -1.1200 C   0  0  0  0  0  0  0  0  0  0  0  0
   -3.7420    1.6110   -1.2630 C   0  0  0  0  0  0  0  0  0  0  0  0
  1  2  1  0
  2  3  2  0
  2 28  1  0
  3  4  1  0
  4  5  1  0
  5  6  1  0
  5 27  1  0
  6  7  2  0
  6  8  1  0
  8  9  2  0
  8 25  1  0
  9 10  1  0
  9 11  1  0
 11 12  2  0
 12 13  1  0
 13 14  1  0
 13 25  2  0
 14 15  1  0
 15 16  1  0
 16 17  2  0
 16 24  1  0
 17 18  1  0
 18 19  2  0
 18 23  1  0
 19 20  1  0
 20 21  2  0
 21 22  1  0
 22 23  2  0
 23 24  1  0
 25 26  1  0
 27 28  1  0
M  CHG  2  25   1  26  -1
M  END
