
     RDKit          3D

 28 31  0  0  0  0  0  0  0  0999 V2000
   -5.9360    2.1070   -1.6950 C   0  0  0  0  0  0  0  0  0  0  0  0
   -6.3940    0.8200   -1.0610 C   0  0  0  0  0  0  0  0  0  0  0  0
   -7.5630    0.2510   -1.2300 O   0  0  0  0  0  0  0  0  0  0  0  0
   -7.6840   -0.8430   -0.5670 N   0  0  0  0  0  0  0  0  0  0  0  0
   -8.7610   -1.7110   -0.4970 O   0  0  0  0  0  0  0  0  0  0  0  0
   -6.5220   -1.0300    0.0950 C   0  0  0  0  0  0  0  0  0  0  0  0
   -6.1670   -2.1520    0.9970 C   0  0  0  0  0  0  0  0  0  0  0  0
   -5.6750    0.0170   -0.2000 C   0  0  0  0  0  0  0  0  0  0  0  0
   -4.3170    0.2860    0.2540 C   0  0  0  0  0  0  0  0  0  0  0  0
   -3.1500   -0.1220   -0.3420 C   0  0  0  0  0  0  0  0  0  0  0  0
   -2.0770    0.3330    0.3920 C   0  0  0  0  0  0  0  0  0  0  0  0
   -0.6520    0.1320    0.1220 C   0  0  0  0  0  0  0  0  0  0  0  0
   -0.2890   -0.5250   -0.8840 O   0  0  0  0  0  0  0  0  0  0  0  0
    0.3340    0.6470    0.9460 O   0  0  0  0  0  0  0  0  0  0  0  0
    1.7010    0.4540    0.6880 C   0  0  0  0  0  0  0  0  0  0  0  0
    2.3890    1.3640   -0.0870 C   0  0  0  0  0  0  0  0  0  0  0  0
    3.7310    1.1400   -0.3180 C   0  0  0  0  0  0  0  0  0  0  0  0
    4.4010    0.0430    0.1970 C   0  0  0  0  0  0  0  0  0  0  0  0
    5.8200   -0.1140   -0.0990 C   0  0  0  0  0  0  0  0  0  0  0  0
    6.3890    0.3180   -1.2810 C   0  0  0  0  0  0  0  0  0  0  0  0
    7.7320    0.1660   -1.5540 C   0  0  0  0  0  0  0  0  0  0  0  0
    8.5700   -0.4330   -0.6380 C   0  0  0  0  0  0  0  0  0  0  0  0
    8.0240   -0.8740    0.5530 C   0  0  0  0  0  0  0  0  0  0  0  0
    6.6660   -0.7120    0.8100 C   0  0  0  0  0  0  0  0  0  0  0  0
    3.7010   -0.8630    0.9710 C   0  0  0  0  0  0  0  0  0  0  0  0
    2.3600   -0.6430    1.2050 C   0  0  0  0  0  0  0  0  0  0  0  0
   -2.6280    1.0100    1.4210 N   0  0  0  0  0  0  0  0  0  0  0  0
   -3.9390    0.9850    1.3460 N   0  0  0  0  0  0  0  0  0  0  0  0
  1  2  1  0
  2  3  1  0
  2  8  2  0
  3  4  1  0
  4  5  1  0
  4  6  2  0
  6  7  1  0
  6  8  1  0
  8  9  1  0
  9 10  1  0
  9 28  2  0
 10 11  2  0
 11 12  1  0
 11 27  1  0
 12 13  2  0
 12 14  1  0
 14 15  1  0
 15 16  2  0
 15 26  1  0
 16 17  1  0
 17 18  2  0
 18 19  1  0
 18 25  1  0
 19 20  2  0
 19 24  1  0
 20 21  1  0
 21 22  2  0
 22 23  1  0
 23 24  2  0
 25 26  2  0
 27 28  1  0
M  CHG  2   4   1   5  -1
M  END
