
     RDKit          3D

 20 22  0  0  0  0  0  0  0  0999 V2000
    6.2290    0.2690   -1.2040 C   0  0  0  0  0  0  0  0  0  0  0  0
    5.3060   -0.1450   -0.3260 C   0  0  0  0  0  0  0  0  0  0  0  0
    3.8940    0.1810   -0.5280 C   0  0  0  0  0  0  0  0  0  0  0  0
    2.9780   -0.2110    0.3110 C   0  0  0  0  0  0  0  0  0  0  0  0
    3.2810   -0.9740    1.4680 N   0  0  0  0  0  0  0  0  0  0  0  0
    2.2300   -1.3750    2.3530 C   0  0  0  0  0  0  0  0  0  0  0  0
    0.9740   -1.0620    2.1360 C   0  0  0  0  0  0  0  0  0  0  0  0
   -0.0410   -1.4700    3.0240 O   0  0  0  0  0  0  0  0  0  0  0  0
    0.5640   -0.2810    0.9750 C   0  0  0  0  0  0  0  0  0  0  0  0
   -0.7490    0.0230    0.7870 N   0  0  0  0  0  0  0  0  0  0  0  0
   -1.1010    0.7420   -0.2880 C   0  0  0  0  0  0  0  0  0  0  0  0
   -2.5240    1.1130   -0.5590 C   0  0  0  0  0  0  0  0  0  0  0  0
   -3.3970    0.5980    0.4670 N   0  0  0  0  0  0  0  0  0  0  0  0
   -4.7520    0.9970    0.1370 C   0  0  0  0  0  0  0  0  0  0  0  0
   -5.3690   -0.3120   -0.3080 C   0  0  0  0  0  0  0  0  0  0  0  0
   -4.7580   -1.2200    0.5550 O   0  0  0  0  0  0  0  0  0  0  0  0
   -3.4150   -0.8450    0.5150 C   0  0  0  0  0  0  0  0  0  0  0  0
   -0.1570    1.1690   -1.1900 C   0  0  0  0  0  0  0  0  0  0  0  0
    1.1950    0.8690   -1.0170 C   0  0  0  0  0  0  0  0  0  0  0  0
    1.5590    0.1330    0.0830 C   0  0  0  0  0  0  0  0  0  0  0  0
  1  2  2  0
  2  3  1  0
  3  4  2  3
  4  5  1  0
  4 20  1  0
  5  6  1  0
  6  7  2  0
  7  8  1  0
  7  9  1  0
  9 10  2  0
  9 20  1  0
 10 11  1  0
 11 12  1  0
 11 18  2  0
 12 13  1  0
 13 14  1  0
 13 17  1  0
 14 15  1  0
 15 16  1  0
 16 17  1  0
 18 19  1  0
 19 20  2  0
M  END
