
     RDKit          3D

  9  9  0  0  0  0  0  0  0  0999 V2000
   -2.3620   -0.3410   -0.3360 C   0  0  0  0  0  0  0  0  0  0  0  0
   -1.0290    0.2700   -0.1240 C   0  0  0  0  0  0  0  0  0  0  0  0
   -0.8680    1.6300   -0.0190 C   0  0  0  0  0  0  0  0  0  0  0  0
    0.4000    2.1580    0.1790 C   0  0  0  0  0  0  0  0  0  0  0  0
    1.4830    1.3290    0.2690 C   0  0  0  0  0  0  0  0  0  0  0  0
    1.3620   -0.0490    0.1680 C   0  0  0  0  0  0  0  0  0  0  0  0
    2.4730   -0.9290    0.2580 N   0  0  0  0  0  0  0  0  0  0  0  0
    0.0820   -0.5360   -0.0290 C   0  0  0  0  0  0  0  0  0  0  0  0
   -0.0940   -1.9430   -0.1390 N   0  0  0  0  0  0  0  0  0  0  0  0
  1  2  1  0
  2  3  2  0
  2  8  1  0
  3  4  1  0
  4  5  2  0
  5  6  1  0
  6  7  1  0
  6  8  2  0
  8  9  1  0
M  END
