
     RDKit          3D

 20 22  0  0  0  0  0  0  0  0999 V2000
   -3.0480    2.1550   -1.1590 C   0  0  0  0  0  0  0  0  0  0  0  0
   -3.4270    0.9330   -0.8840 C   0  0  0  0  0  0  0  0  0  0  0  0
   -4.8150    0.6810   -0.4230 C   0  0  0  0  0  0  0  0  0  0  0  0
   -5.1340   -0.6370   -0.8120 O   0  0  0  0  0  0  0  0  0  0  0  0
   -4.3540   -1.4700    0.0220 C   0  0  0  0  0  0  0  0  0  0  0  0
   -2.8970   -1.3850   -0.3410 C   0  0  2  0  0  0  0  0  0  0  0  0
   -2.1050   -1.4370    0.9570 C   0  0  0  0  0  0  0  0  0  0  0  0
   -0.6540   -1.3570    0.6610 C   0  0  0  0  0  0  0  0  0  0  0  0
   -0.0620   -0.1290    0.6080 C   0  0  0  0  0  0  0  0  0  0  0  0
    1.2870   -0.0300    0.3350 C   0  0  0  0  0  0  0  0  0  0  0  0
    1.9060    1.1970    0.2760 C   0  0  0  0  0  0  0  0  0  0  0  0
    3.2700    1.2100   -0.0050 C   0  0  0  0  0  0  0  0  0  0  0  0
    4.0030    0.0790   -0.2200 C   0  0  0  0  0  0  0  0  0  0  0  0
    5.3880    0.1260   -0.5040 N   0  0  0  0  0  0  0  0  0  0  0  0
    6.0800    1.3750   -0.5770 C   0  0  0  0  0  0  0  0  0  0  0  0
    3.3420   -1.1480   -0.1530 C   0  0  0  0  0  0  0  0  0  0  0  0
    2.0070   -1.1820    0.1210 C   0  0  0  0  0  0  0  0  0  0  0  0
    1.3770   -2.3670    0.1850 N   0  0  0  0  0  0  0  0  0  0  0  0
    0.0930   -2.4530    0.4450 N   0  0  0  0  0  0  0  0  0  0  0  0
   -2.5870   -0.1670   -1.0020 O   0  0  0  0  0  0  0  0  0  0  0  0
  1  2  2  0
  2  3  1  0
  2 20  1  0
  3  4  1  0
  4  5  1  0
  5  6  1  0
  6  7  1  1
  6 20  1  0
  7  8  1  0
  8  9  2  0
  8 19  1  0
  9 10  1  0
 10 11  2  0
 10 17  1  0
 11 12  1  0
 12 13  2  0
 13 14  1  0
 13 16  1  0
 14 15  1  0
 16 17  2  0
 17 18  1  0
 18 19  2  0
M  END
