
     RDKit          3D

 20 22  0  0  0  0  0  0  0  0999 V2000
    3.1710    2.5040   -0.4900 C   0  0  0  0  0  0  0  0  0  0  0  0
    3.4410    1.7950    0.6710 O   0  0  0  0  0  0  0  0  0  0  0  0
    3.5020    0.4370    0.4560 C   0  0  0  0  0  0  0  0  0  0  0  0
    2.1800   -0.1330    0.1870 C   0  0  0  0  0  0  0  0  0  0  0  0
    1.0080    0.5760    0.3080 C   0  0  0  0  0  0  0  0  0  0  0  0
   -0.2060   -0.0440    0.0940 C   0  0  0  0  0  0  0  0  0  0  0  0
   -1.4020    0.6780    0.2140 C   0  0  0  0  0  0  0  0  0  0  0  0
   -1.3490    1.8740    0.5160 O   0  0  0  0  0  0  0  0  0  0  0  0
   -2.6130    0.0730    0.0030 C   0  0  0  0  0  0  0  0  0  0  0  0
   -3.7850    0.7670    0.1180 C   0  0  0  0  0  0  0  0  0  0  0  0
   -3.7450    2.1970    0.4760 C   0  0  0  0  0  0  0  0  0  0  0  0
   -4.9530    0.0950   -0.1080 N   0  0  0  0  0  0  0  0  0  0  0  0
   -4.9790   -1.2090   -0.4350 C   0  0  0  0  0  0  0  0  0  0  0  0
   -3.8430   -1.8890   -0.5480 N   0  0  0  0  0  0  0  0  0  0  0  0
   -2.6570   -1.2670   -0.3340 C   0  0  0  0  0  0  0  0  0  0  0  0
   -1.4880   -1.9490   -0.4460 N   0  0  0  0  0  0  0  0  0  0  0  0
   -0.2910   -1.3740   -0.2430 C   0  0  0  0  0  0  0  0  0  0  0  0
    0.9160   -2.0630   -0.3560 C   0  0  0  0  0  0  0  0  0  0  0  0
    2.1380   -1.4850   -0.1520 C   0  0  0  0  0  0  0  0  0  0  0  0
    3.3860   -2.2790   -0.2900 C   0  0  0  0  0  0  0  0  0  0  0  0
  1  2  1  0
  2  3  1  0
  3  4  1  0
  4  5  2  0
  4 19  1  0
  5  6  1  0
  6  7  1  0
  6 17  2  0
  7  8  2  0
  7  9  1  0
  9 10  2  0
  9 15  1  0
 10 11  1  0
 10 12  1  0
 12 13  2  0
 13 14  1  0
 14 15  2  0
 15 16  1  0
 16 17  1  0
 17 18  1  0
 18 19  2  0
 19 20  1  0
M  END
