
     RDKit          3D

 20 22  0  0  0  0  0  0  0  0999 V2000
    4.8790   -0.5240   -2.1950 C   0  0  0  0  0  0  0  0  0  0  0  0
    5.2160   -0.8910   -0.8580 O   0  0  0  0  0  0  0  0  0  0  0  0
    4.2330   -0.9100    0.1290 C   0  0  0  0  0  0  0  0  0  0  0  0
    4.6510   -1.2790    1.3960 C   0  0  0  0  0  0  0  0  0  0  0  0
    3.7240   -1.3110    2.3940 C   0  0  0  0  0  0  0  0  0  0  0  0
    2.4190   -0.9790    2.1020 C   0  0  0  0  0  0  0  0  0  0  0  0
    1.9870   -0.6110    0.8490 C   0  0  0  0  0  0  0  0  0  0  0  0
    0.6200   -0.2620    0.5360 C   0  0  0  0  0  0  0  0  0  0  0  0
   -0.3640   -0.2730    1.4900 C   0  0  0  0  0  0  0  0  0  0  0  0
   -1.6390    0.0670    1.1360 N   0  0  0  0  0  0  0  0  0  0  0  0
   -1.9780    0.4140   -0.1090 C   0  0  0  0  0  0  0  0  0  0  0  0
   -3.3520    0.7660   -0.4240 C   0  0  0  0  0  0  0  0  0  0  0  0
   -3.7610    1.1180   -1.6250 C   0  0  0  0  0  0  0  0  0  0  0  0
   -5.1390    1.4780   -1.9770 C   0  0  0  0  0  0  0  0  0  0  0  0
   -6.0110    1.4160   -0.8950 O   0  0  0  0  0  0  0  0  0  0  0  0
   -5.6350    1.0580    0.3620 C   0  0  0  0  0  0  0  0  0  0  0  0
   -4.3830    0.7450    0.6170 C   0  0  0  0  0  0  0  0  0  0  0  0
   -1.0240    0.4290   -1.0480 N   0  0  0  0  0  0  0  0  0  0  0  0
    0.2640    0.0980   -0.7470 C   0  0  0  0  0  0  0  0  0  0  0  0
    2.9560   -0.5940   -0.1170 N   0  0  0  0  0  0  0  0  0  0  0  0
  1  2  1  0
  2  3  1  0
  3  4  2  0
  3 20  1  0
  4  5  1  0
  5  6  2  0
  6  7  1  0
  7  8  1  0
  7 20  2  0
  8  9  2  0
  8 19  1  0
  9 10  1  0
 10 11  2  0
 11 12  1  0
 11 18  1  0
 12 13  2  0
 12 17  1  0
 13 14  1  0
 14 15  1  0
 15 16  1  0
 16 17  2  0
 18 19  2  0
M  END
