
     RDKit          3D

 11 12  0  0  0  0  0  0  0  0999 V2000
   -2.5120    1.0850    0.1320 N   0  0  0  0  0  0  0  0  0  0  0  0
   -2.1000   -0.2450    0.1060 C   0  0  0  0  0  0  0  0  0  0  0  0
   -0.8850   -0.7010    0.0400 C   0  0  0  0  0  0  0  0  0  0  0  0
   -0.6420   -2.1810    0.0230 C   0  0  0  0  0  0  0  0  0  0  0  0
    0.6970   -2.5870   -0.0490 N   0  0  0  0  0  0  0  0  0  0  0  0
    1.7220   -1.8250   -0.1010 C   0  0  0  0  0  0  0  0  0  0  0  0
    1.4660   -0.3840   -0.0830 C   0  0  0  0  0  0  0  0  0  0  0  0
    0.2760    0.1790   -0.0180 C   0  0  0  0  0  0  0  0  0  0  0  0
    0.4190    1.6380   -0.0220 C   0  0  0  0  0  0  0  0  0  0  0  0
    1.7060    1.9330   -0.0890 C   0  0  0  0  0  0  0  0  0  0  0  0
    2.4990    0.6900   -0.1350 C   0  0  0  0  0  0  0  0  0  0  0  0
  1  2  1  0
  2  3  2  3
  3  4  1  0
  3  8  1  0
  4  5  1  0
  5  6  2  0
  6  7  1  0
  7  8  2  0
  7 11  1  0
  8  9  1  0
  9 10  2  0
 10 11  1  0
M  CHG  1   1   1
M  END
