
     RDKit          3D

 11 11  0  0  0  0  0  0  0  0999 V2000
    0.6610    2.2620    1.0440 C   0  0  0  0  0  0  0  0  0  0  0  0
   -0.0640    1.3500    0.4560 C   0  0  0  0  0  0  0  0  0  0  0  0
   -1.5110    1.6320    0.3330 C   0  0  0  0  0  0  0  0  0  0  0  0
   -2.3300    0.4580    0.4990 N   0  0  0  0  0  0  0  0  0  0  0  0
   -2.2790   -0.4950   -0.5660 C   0  0  0  0  0  0  0  0  0  0  0  0
   -1.2060   -1.4780   -0.2660 C   0  0  0  0  0  0  0  0  0  0  0  0
    0.0870   -1.1650   -0.0320 C   0  0  0  0  0  0  0  0  0  0  0  0
    0.9620   -2.2350    0.2370 N   0  0  0  0  0  0  0  0  0  0  0  0
    0.6860    0.1570   -0.0140 C   0  0  0  0  0  0  0  0  0  0  0  0
    1.9020    0.3260   -0.4210 C   0  0  0  0  0  0  0  0  0  0  0  0
    2.7510   -0.7600   -0.9120 C   0  0  0  0  0  0  0  0  0  0  0  0
  1  2  2  0
  2  3  1  0
  2  9  1  0
  3  4  1  0
  4  5  1  0
  5  6  1  0
  6  7  2  0
  7  8  1  0
  7  9  1  0
  9 10  2  3
 10 11  1  0
M  CHG  1   4   1
M  END
