
     RDKit          3D

 11 12  0  0  0  0  0  0  0  0999 V2000
   -1.3460    1.0290    0.9960 N   0  0  0  0  0  0  0  0  0  0  0  0
   -0.5290    0.3960   -0.0460 C   0  0  2  0  0  0  0  0  0  0  0  0
   -1.3750    0.3750   -1.2880 C   0  0  0  0  0  0  0  0  0  0  0  0
   -2.4140   -0.6580   -0.8030 C   0  0  0  0  0  0  0  0  0  0  0  0
   -1.4760   -1.6350   -0.1340 C   0  0  0  0  0  0  0  0  0  0  0  0
   -0.3990   -1.0020    0.2910 C   0  0  0  0  0  0  0  0  0  0  0  0
    0.6700   -1.7020    0.9700 N   0  0  0  0  0  0  0  0  0  0  0  0
    1.9050   -1.3790    1.0820 C   0  0  0  0  0  0  0  0  0  0  0  0
    2.6320   -0.1960    0.5580 C   0  0  0  0  0  0  0  0  0  0  0  0
    1.9140    0.3900   -0.6150 C   0  0  0  0  0  0  0  0  0  0  0  0
    0.7200    1.1830   -0.1600 C   0  0  0  0  0  0  0  0  0  0  0  0
  2  1  1  1
  2  3  1  0
  2  6  1  0
  2 11  1  0
  3  4  1  0
  4  5  1  0
  5  6  2  0
  6  7  1  0
  7  8  2  0
  8  9  1  0
  9 10  1  0
 10 11  1  0
M  CHG  1   1   1
M  END
