
     RDKit          3D

 11 11  0  0  0  0  0  0  0  0999 V2000
   -2.6740   -1.9710    0.2600 C   0  0  0  0  0  0  0  0  0  0  0  0
   -2.6790   -0.5150    0.1220 C   0  0  0  0  0  0  0  0  0  0  0  0
   -1.5950    0.2020   -0.1750 C   0  0  0  0  0  0  0  0  0  0  0  0
   -1.7240    1.6280   -0.2850 C   0  0  0  0  0  0  0  0  0  0  0  0
   -0.7550    2.5240   -0.1320 C   0  0  0  0  0  0  0  0  0  0  0  0
    0.6650    2.4420    0.1730 C   0  0  0  0  0  0  0  0  0  0  0  0
    1.3040    1.2040   -0.1130 N   0  0  0  0  0  0  0  0  0  0  0  0
    0.9030   -0.1270   -0.3370 C   0  0  0  0  0  0  0  0  0  0  0  0
    1.9910   -1.1190   -0.5600 C   0  0  0  0  0  0  0  0  0  0  0  0
    2.8890   -1.1980    0.5720 N   0  0  0  0  0  0  0  0  0  0  0  0
   -0.3450   -0.5660   -0.3650 C   0  0  0  0  0  0  0  0  0  0  0  0
  1  2  1  0
  2  3  2  3
  3  4  1  0
  3 11  1  0
  4  5  2  0
  5  6  1  0
  6  7  1  0
  7  8  1  0
  8  9  1  0
  8 11  2  0
  9 10  1  0
M  CHG  1  10   1
M  END
