
     RDKit          3D

 12 13  0  0  0  0  0  0  0  0999 V2000
    3.4400   -0.3560   -0.0560 O   0  0  0  0  0  0  0  0  0  0  0  0
    2.0960   -0.0210   -0.0010 C   0  0  0  0  0  0  0  0  0  0  0  0
    1.7320    1.2890    0.2220 C   0  0  0  0  0  0  0  0  0  0  0  0
    0.3770    1.6060    0.2750 C   0  0  0  0  0  0  0  0  0  0  0  0
   -0.6080    0.6540    0.1110 C   0  0  0  0  0  0  0  0  0  0  0  0
   -1.9590    0.9560    0.1610 C   0  0  0  0  0  0  0  0  0  0  0  0
   -2.9350   -0.0080   -0.0050 C   0  0  0  0  0  0  0  0  0  0  0  0
   -2.5350   -1.2760   -0.2210 N   0  0  0  0  0  0  0  0  0  0  0  0
   -1.2300   -1.6000   -0.2750 C   0  0  0  0  0  0  0  0  0  0  0  0
   -0.2370   -0.6550   -0.1120 C   0  0  0  0  0  0  0  0  0  0  0  0
    1.1090   -0.9710   -0.1640 C   0  0  0  0  0  0  0  0  0  0  0  0
    1.5510   -2.6220   -0.4450 Cl  0  0  0  0  0  0  0  0  0  0  0  0
  1  2  1  0
  2  3  2  0
  2 11  1  0
  3  4  1  0
  4  5  2  0
  5  6  1  0
  5 10  1  0
  6  7  2  0
  7  8  1  0
  8  9  2  0
  9 10  1  0
 10 11  2  0
 11 12  1  0
M  END
