
     RDKit          3D

 12 13  0  0  0  0  0  0  0  0999 V2000
   -3.5750    0.7470   -0.6200 C   0  0  0  0  0  0  0  0  0  0  0  0
   -2.2530    0.0520   -0.4130 C   0  0  0  0  0  0  0  0  0  0  0  0
   -2.0860   -1.3070   -0.3690 C   0  0  0  0  0  0  0  0  0  0  0  0
   -0.7240   -1.5120   -0.1630 C   0  0  0  0  0  0  0  0  0  0  0  0
   -0.1380   -0.2820   -0.0930 C   0  0  0  0  0  0  0  0  0  0  0  0
    1.2880    0.0190    0.1150 C   0  0  0  0  0  0  0  0  0  0  0  0
    2.3160   -0.8840    0.2810 C   0  0  0  0  0  0  0  0  0  0  0  0
    3.4880   -0.2020    0.4460 C   0  0  0  0  0  0  0  0  0  0  0  0
    3.1970    1.1310    0.3840 C   0  0  0  0  0  0  0  0  0  0  0  0
    4.3330    2.4830    0.5340 Cl  0  0  0  0  0  0  0  0  0  0  0  0
    1.8710    1.2280    0.1850 N   0  0  0  0  0  0  0  0  0  0  0  0
   -1.0940    0.6000   -0.2480 O   0  0  0  0  0  0  0  0  0  0  0  0
  1  2  1  0
  2  3  2  0
  2 12  1  0
  3  4  1  0
  4  5  2  0
  5  6  1  0
  5 12  1  0
  6  7  2  0
  6 11  1  0
  7  8  1  0
  8  9  2  0
  9 10  1  0
  9 11  1  0
M  END
