
     RDKit          3D

 12 13  0  0  0  0  0  0  0  0999 V2000
   -1.3550   -2.0980    1.4130 O   0  0  0  0  0  0  0  0  0  0  0  0
   -1.2770   -1.1070    0.6500 C   0  0  0  0  0  0  0  0  0  0  0  0
   -2.4010   -0.6300    0.0850 N   0  0  0  0  0  0  0  0  0  0  0  0
   -2.3800    0.4380   -0.7480 C   0  0  0  0  0  0  0  0  0  0  0  0
   -1.1840    1.0490   -1.0240 C   0  0  0  0  0  0  0  0  0  0  0  0
   -0.0270    0.5740   -0.4540 C   0  0  0  0  0  0  0  0  0  0  0  0
    1.2170    1.1430   -0.6880 C   0  0  0  0  0  0  0  0  0  0  0  0
    2.3780    0.6670   -0.1180 C   0  0  0  0  0  0  0  0  0  0  0  0
    2.3340   -0.4140    0.7220 C   0  0  0  0  0  0  0  0  0  0  0  0
    3.7970   -1.0270    1.4510 Cl  0  0  0  0  0  0  0  0  0  0  0  0
    1.1100   -1.0000    0.9720 C   0  0  0  0  0  0  0  0  0  0  0  0
   -0.0540   -0.5270    0.4040 C   0  0  0  0  0  0  0  0  0  0  0  0
  1  2  2  0
  2  3  1  0
  2 12  1  0
  3  4  1  0
  4  5  2  0
  5  6  1  0
  6  7  2  0
  6 12  1  0
  7  8  1  0
  8  9  2  0
  9 10  1  0
  9 11  1  0
 11 12  2  0
M  END
