
     RDKit          3D

 10 10  0  0  0  0  0  0  0  0999 V2000
   -2.2970    1.6900   -0.0930 O   0  0  0  0  0  0  0  0  0  0  0  0
   -2.7640    0.4770    0.4050 C   0  0  0  0  0  0  0  0  0  0  0  0
   -2.0520   -0.7060   -0.2340 C   0  0  0  0  0  0  0  0  0  0  0  0
   -0.5940   -0.6390    0.0300 C   0  0  0  0  0  0  0  0  0  0  0  0
    0.0500   -1.2080    1.1320 C   0  0  0  0  0  0  0  0  0  0  0  0
    1.3740   -0.8960    0.9600 C   0  0  0  0  0  0  0  0  0  0  0  0
    1.5020   -0.1680   -0.2050 C   0  0  0  0  0  0  0  0  0  0  0  0
    2.7790    0.3680   -0.7600 C   0  0  0  0  0  0  0  0  0  0  0  0
    2.9390    1.6500   -0.2130 O   0  0  0  0  0  0  0  0  0  0  0  0
    0.3130   -0.0500   -0.7050 O   0  0  0  0  0  0  0  0  0  0  0  0
  1  2  1  0
  2  3  1  0
  3  4  1  0
  4  5  2  0
  4 10  1  0
  5  6  1  0
  6  7  2  0
  7  8  1  0
  7 10  1  0
  8  9  1  0
M  END
