
     RDKit          3D

 11 11  0  0  0  0  0  0  0  0999 V2000
   -2.1390   -0.7240   -0.1220 C   0  0  0  0  0  0  0  0  0  0  0  0
   -0.9260    0.1450   -0.0250 C   0  0  0  0  0  0  0  0  0  0  0  0
   -1.1270    1.5180    0.0820 C   0  0  0  0  0  0  0  0  0  0  0  0
    0.0110    2.2890    0.1720 C   0  0  0  0  0  0  0  0  0  0  0  0
    1.2560    1.7930    0.1630 N   0  0  0  0  0  0  0  0  0  0  0  0
    1.4010    0.4600    0.0540 C   0  0  0  0  0  0  0  0  0  0  0  0
    2.7080   -0.1630    0.0430 N   0  0  0  0  0  0  0  0  0  0  0  0
    0.3150   -0.4300   -0.0430 C   0  0  0  0  0  0  0  0  0  0  0  0
    0.5250   -1.8260   -0.1490 N   0  0  0  0  0  0  0  0  0  0  0  0
   -0.2410   -2.6160   -0.7110 O   0  0  0  0  0  0  0  0  0  0  0  0
    1.6870   -2.3420    0.3900 O   0  0  0  0  0  0  0  0  0  0  0  0
  1  2  1  0
  2  3  2  0
  2  8  1  0
  3  4  1  0
  4  5  2  0
  5  6  1  0
  6  7  1  0
  6  8  2  0
  8  9  1  0
  9 10  2  0
  9 11  1  0
M  CHG  2   9   1  11  -1
M  END
