
     RDKit          3D

 10  9  0  0  0  0  0  0  0  0999 V2000
   -1.3510    1.5290    0.4890 C   0  0  0  0  0  0  0  0  0  0  0  0
   -1.4890    0.1020   -0.0050 C   0  0  1  0  0  0  0  0  0  0  0  0
   -1.5840   -0.8620    1.1850 C   0  0  0  0  0  0  0  0  0  0  0  0
   -2.7380   -0.0730   -0.8060 C   0  0  0  0  0  0  0  0  0  0  0  0
   -0.2600   -0.2380   -0.7370 C   0  0  0  0  0  0  0  0  0  0  0  0
   -0.1890   -0.5790   -1.9420 O   0  0  0  0  0  0  0  0  0  0  0  0
    0.9420   -0.1810   -0.0470 O   0  0  0  0  0  0  0  0  0  0  0  0
    2.1680   -0.4820   -0.6380 C   0  0  0  0  0  0  0  0  0  0  0  0
    3.2450   -0.3020    0.4430 C   0  0  0  0  0  0  0  0  0  0  0  0
    3.2050    1.0050    0.8750 O   0  0  0  0  0  0  0  0  0  0  0  0
  2  1  1  1
  2  3  1  0
  2  4  1  0
  2  5  1  0
  5  6  2  0
  5  7  1  0
  7  8  1  0
  8  9  1  0
  9 10  1  0
M  END
