
     RDKit          3D

 10 10  0  0  0  0  0  0  0  0999 V2000
    3.4260   -0.6260   -0.8920 O   0  0  0  0  0  0  0  0  0  0  0  0
    2.1530   -0.1160   -0.9890 C   0  0  0  0  0  0  0  0  0  0  0  0
    1.4010   -0.1930    0.3260 C   0  0  1  0  0  0  0  0  0  0  0  0
    2.0710    0.5240    1.2850 O   0  0  0  0  0  0  0  0  0  0  0  0
   -0.0130    0.3210    0.0880 C   0  0  2  0  0  0  0  0  0  0  0  0
   -0.7990    0.2590    1.3830 C   0  0  0  0  0  0  0  0  0  0  0  0
   -2.2240    0.6260    1.0390 C   0  0  0  0  0  0  0  0  0  0  0  0
   -2.7570   -0.3070    0.2030 O   0  0  0  0  0  0  0  0  0  0  0  0
   -2.1320   -0.5450   -0.9700 C   0  0  0  0  0  0  0  0  0  0  0  0
   -0.6630   -0.4010   -1.0300 C   0  0  0  0  0  0  0  0  0  0  0  0
  1  2  1  0
  2  3  1  0
  3  4  1  1
  3  5  1  0
  5  6  1  1
  5 10  1  0
  6  7  1  0
  7  8  1  0
  8  9  1  0
  9 10  1  0
M  END
