
     RDKit          3D

  9  9  0  0  0  0  0  0  0  0999 V2000
   -2.8480   -1.4600   -0.0680 O   0  0  0  0  0  0  0  0  0  0  0  0
   -1.9670   -0.5370   -0.0270 C   0  0  0  0  0  0  0  0  0  0  0  0
   -2.4520    0.7970   -0.0680 N   0  0  0  0  0  0  0  0  0  0  0  0
   -1.2540    2.1020   -0.0120 S   0  0  0  0  0  0  0  0  0  0  0  0
    0.3190    1.3210    0.0860 N   0  0  0  0  0  0  0  0  0  0  0  0
    0.3990    0.0380    0.1030 C   0  0  0  0  0  0  0  0  0  0  0  0
    1.7740   -0.5260    0.1870 C   0  0  0  0  0  0  0  0  0  0  0  0
    2.7580    0.4320    0.2340 O   0  0  0  0  0  0  0  0  0  0  0  0
   -0.6350   -0.8530    0.0530 O   0  0  0  0  0  0  0  0  0  0  0  0
  1  2  2  0
  2  3  1  0
  2  9  1  0
  3  4  1  0
  4  5  1  0
  5  6  2  0
  6  7  1  0
  6  9  1  0
  7  8  1  0
M  END
