
     RDKit          3D

  9  9  0  0  0  0  0  0  0  0999 V2000
   -2.4900    0.2740   -0.0760 O   0  0  0  0  0  0  0  0  0  0  0  0
   -1.2590    0.0690   -0.0430 C   0  0  0  0  0  0  0  0  0  0  0  0
   -0.3840    1.0890    0.0620 N   0  0  0  0  0  0  0  0  0  0  0  0
    0.9220    0.8510    0.0950 N   0  0  0  0  0  0  0  0  0  0  0  0
    1.3240   -0.4310    0.0210 C   0  0  0  0  0  0  0  0  0  0  0  0
    2.9430   -0.6910    0.0640 S   0  0  0  0  0  0  0  0  0  0  0  0
    0.4800   -1.4420   -0.0830 O   0  0  0  0  0  0  0  0  0  0  0  0
   -0.8210   -1.2380   -0.1180 C   0  0  0  0  0  0  0  0  0  0  0  0
   -1.6290   -2.2080   -0.2170 O   0  0  0  0  0  0  0  0  0  0  0  0
  1  2  2  0
  2  3  1  0
  2  8  1  0
  3  4  1  0
  4  5  1  0
  5  6  2  0
  5  7  1  0
  7  8  1  0
  8  9  2  0
M  END
