
     RDKit          3D

  9  9  0  0  0  0  0  0  0  0999 V2000
   -1.9890   -2.1280   -0.1450 O   0  0  0  0  0  0  0  0  0  0  0  0
   -1.3500   -1.0470    0.0630 C   0  0  0  0  0  0  0  0  0  0  0  0
   -1.9450   -0.0460    0.8600 N   0  0  0  0  0  0  0  0  0  0  0  0
   -0.9710    1.3480    1.2760 S   0  0  0  0  0  0  0  0  0  0  0  0
    0.2100    1.5340   -0.1220 C   0  0  0  0  0  0  0  0  0  0  0  0
    0.7160    0.1720   -0.3890 C   0  0  0  0  0  0  0  0  0  0  0  0
    1.9890    0.0110   -0.5070 N   0  0  0  0  0  0  0  0  0  0  0  0
    2.5480   -1.2140   -0.7540 O   0  0  0  0  0  0  0  0  0  0  0  0
   -0.0980   -0.9310   -0.5180 O   0  0  0  0  0  0  0  0  0  0  0  0
  1  2  2  0
  2  3  1  0
  2  9  1  0
  3  4  1  0
  4  5  1  0
  5  6  1  0
  6  7  2  3
  6  9  1  0
  7  8  1  0
M  END
