
     RDKit          3D

  9  9  0  0  0  0  0  0  0  0999 V2000
   -2.3240   -0.6110    0.2790 N   0  0  0  0  0  0  0  0  0  0  0  0
   -1.0570   -0.3700    0.1190 C   0  0  0  0  0  0  0  0  0  0  0  0
    0.1260   -1.5640   -0.1480 S   0  0  0  0  0  0  0  0  0  0  0  0
    1.6830   -0.8950   -0.3130 C   0  0  0  0  0  0  0  0  0  0  0  0
    2.7460   -1.5440   -0.5180 O   0  0  0  0  0  0  0  0  0  0  0  0
    1.7020    0.3850   -0.2090 O   0  0  0  0  0  0  0  0  0  0  0  0
    0.7360    1.1970   -0.0050 N   0  0  0  0  0  0  0  0  0  0  0  0
   -0.5600    0.9140    0.1550 C   0  0  0  0  0  0  0  0  0  0  0  0
   -1.4120    1.8590    0.3550 O   0  0  0  0  0  0  0  0  0  0  0  0
  1  2  2  0
  2  3  1  0
  2  8  1  0
  3  4  1  0
  4  5  2  0
  4  6  1  0
  6  7  1  0
  7  8  1  0
  8  9  2  0
M  END
