
     RDKit          3D

 15 16  0  0  0  0  0  0  0  0999 V2000
    5.2840    1.0160    0.1380 C   0  0  0  0  0  0  0  0  0  0  0  0
    4.9680   -0.2950   -0.5500 C   0  0  0  0  0  0  0  0  0  0  0  0
    3.6640   -0.7640   -0.1830 O   0  0  0  0  0  0  0  0  0  0  0  0
    2.5350    0.0130   -0.4550 C   0  0  0  0  0  0  0  0  0  0  0  0
    2.7370    1.1020   -1.0190 O   0  0  0  0  0  0  0  0  0  0  0  0
    1.1920   -0.4250   -0.0990 C   0  0  0  0  0  0  0  0  0  0  0  0
    0.0570    0.2820   -0.3360 C   0  0  0  0  0  0  0  0  0  0  0  0
   -1.0250   -0.4390    0.1350 C   0  0  0  0  0  0  0  0  0  0  0  0
   -2.4460   -0.0570    0.0890 C   0  0  0  0  0  0  0  0  0  0  0  0
   -2.9370    1.0410   -0.4080 C   0  0  0  0  0  0  0  0  0  0  0  0
   -4.4380    1.0630   -0.2640 C   0  0  0  0  0  0  0  0  0  0  0  0
   -4.6190    0.1180    0.9360 C   0  0  0  0  0  0  0  0  0  0  0  0
   -3.5450   -0.8960    0.6150 C   0  0  0  0  0  0  0  0  0  0  0  0
   -0.4820   -1.5960    0.6560 C   0  0  0  0  0  0  0  0  0  0  0  0
    0.8610   -1.5770    0.5090 N   0  0  0  0  0  0  0  0  0  0  0  0
  1  2  1  0
  2  3  1  0
  3  4  1  0
  4  5  2  0
  4  6  1  0
  6  7  2  0
  6 15  1  0
  7  8  1  0
  8  9  1  0
  8 14  2  0
  9 10  2  0
  9 13  1  0
 10 11  1  0
 11 12  1  0
 12 13  1  0
 14 15  1  0
M  END
