
     RDKit          3D

 15 16  0  0  0  0  0  0  0  0999 V2000
    4.1620   -0.0350    1.2900 C   0  0  0  0  0  0  0  0  0  0  0  0
    3.9030   -0.3020   -0.1770 C   0  0  0  0  0  0  0  0  0  0  0  0
    2.5480    0.2210   -0.5900 C   0  0  0  0  0  0  0  0  0  0  0  0
    1.5320   -0.4420    0.1960 N   0  0  0  0  0  0  0  0  0  0  0  0
    0.1490   -0.1420    0.0160 C   0  0  0  0  0  0  0  0  0  0  0  0
   -0.1990    0.8020   -0.9300 C   0  0  0  0  0  0  0  0  0  0  0  0
   -1.5470    1.1020   -1.1120 C   0  0  0  0  0  0  0  0  0  0  0  0
   -2.5190    0.4700   -0.3630 C   0  0  0  0  0  0  0  0  0  0  0  0
   -3.8660    0.7330   -0.5070 C   0  0  0  0  0  0  0  0  0  0  0  0
   -4.7780    0.0580    0.2820 C   0  0  0  0  0  0  0  0  0  0  0  0
   -4.3290   -0.8660    1.1980 C   0  0  0  0  0  0  0  0  0  0  0  0
   -5.1710   -1.4750    1.9110 O   0  0  0  0  0  0  0  0  0  0  0  0
   -3.0350   -1.0940    1.3110 O   0  0  0  0  0  0  0  0  0  0  0  0
   -2.1460   -0.4740    0.5820 C   0  0  0  0  0  0  0  0  0  0  0  0
   -0.8140   -0.7770    0.7690 C   0  0  0  0  0  0  0  0  0  0  0  0
  1  2  1  0
  2  3  1  0
  3  4  1  0
  4  5  1  0
  5  6  2  0
  5 15  1  0
  6  7  1  0
  7  8  2  0
  8  9  1  0
  8 14  1  0
  9 10  2  0
 10 11  1  0
 11 12  2  0
 11 13  1  0
 13 14  1  0
 14 15  2  0
M  END
