
     RDKit          3D

 15 16  0  0  0  0  0  0  0  0999 V2000
   -5.4130    0.0150    0.6570 C   0  0  0  0  0  0  0  0  0  0  0  0
   -4.1380    0.1010    0.0950 O   0  0  0  0  0  0  0  0  0  0  0  0
   -2.9590   -0.0970    0.7880 C   0  0  0  0  0  0  0  0  0  0  0  0
   -3.0270   -0.3750    2.0070 O   0  0  0  0  0  0  0  0  0  0  0  0
   -1.6930    0.0240    0.0720 C   0  0  0  0  0  0  0  0  0  0  0  0
   -1.5230    0.3250   -1.2640 C   0  0  0  0  0  0  0  0  0  0  0  0
   -0.1960    0.3470   -1.5540 C   0  0  0  0  0  0  0  0  0  0  0  0
    0.4850    0.0590   -0.4010 C   0  0  0  0  0  0  0  0  0  0  0  0
    1.9290   -0.0160   -0.2870 C   0  0  0  0  0  0  0  0  0  0  0  0
    2.7050    0.2110   -1.3900 C   0  0  0  0  0  0  0  0  0  0  0  0
    4.0770    0.1320   -1.2470 C   0  0  0  0  0  0  0  0  0  0  0  0
    4.6310   -0.1680   -0.0180 C   0  0  0  0  0  0  0  0  0  0  0  0
    3.8510   -0.4000    1.1060 C   0  0  0  0  0  0  0  0  0  0  0  0
    2.4810   -0.3190    0.9540 C   0  0  0  0  0  0  0  0  0  0  0  0
   -0.4440   -0.1320    0.5670 N   0  0  0  0  0  0  0  0  0  0  0  0
  1  2  1  0
  2  3  1  0
  3  4  2  0
  3  5  1  0
  5  6  2  0
  5 15  1  0
  6  7  1  0
  7  8  2  0
  8  9  1  0
  8 15  1  0
  9 10  2  0
  9 14  1  0
 10 11  1  0
 11 12  2  0
 12 13  1  0
 13 14  2  0
M  END
