
     RDKit          3D

 15 16  0  0  0  0  0  0  0  0999 V2000
    4.3790    1.4230   -0.2830 C   0  0  0  0  0  0  0  0  0  0  0  0
    4.0560    0.0660    0.0950 N   0  0  0  0  0  0  0  0  0  0  0  0
    2.7060   -0.3230    0.2120 C   0  0  0  0  0  0  0  0  0  0  0  0
    2.3430   -1.6240    0.5740 C   0  0  0  0  0  0  0  0  0  0  0  0
    1.0140   -1.9880    0.6840 C   0  0  0  0  0  0  0  0  0  0  0  0
    0.0280   -1.0560    0.4340 C   0  0  0  0  0  0  0  0  0  0  0  0
   -1.2950   -1.4250    0.5450 O   0  0  0  0  0  0  0  0  0  0  0  0
   -2.3650   -0.6010    0.3250 C   0  0  0  0  0  0  0  0  0  0  0  0
   -3.2620   -0.9460   -0.5730 C   0  0  0  0  0  0  0  0  0  0  0  0
   -4.4630   -0.1660   -0.9200 C   0  0  0  0  0  0  0  0  0  0  0  0
   -4.5210    1.0020   -0.1580 O   0  0  0  0  0  0  0  0  0  0  0  0
   -3.5980    1.3770    0.7790 C   0  0  0  0  0  0  0  0  0  0  0  0
   -2.5310    0.6440    1.0590 C   0  0  0  0  0  0  0  0  0  0  0  0
    0.4170    0.2140    0.0800 C   0  0  0  0  0  0  0  0  0  0  0  0
    1.7250    0.6120   -0.0400 C   0  0  0  0  0  0  0  0  0  0  0  0
  1  2  1  0
  2  3  1  0
  3  4  2  0
  3 15  1  0
  4  5  1  0
  5  6  2  0
  6  7  1  0
  6 14  1  0
  7  8  1  0
  8  9  2  0
  8 13  1  0
  9 10  1  0
 10 11  1  0
 11 12  1  0
 12 13  2  0
 14 15  2  0
M  END
