
     RDKit          3D

 15 16  0  0  0  0  0  0  0  0999 V2000
   -3.7960   -1.2180   -0.9240 C   0  0  0  0  0  0  0  0  0  0  0  0
   -3.7800   -0.0210   -0.0560 C   0  0  0  0  0  0  0  0  0  0  0  0
   -2.7450    0.7820   -0.0320 C   0  0  0  0  0  0  0  0  0  0  0  0
   -2.7810    1.9650    0.8530 C   0  0  0  0  0  0  0  0  0  0  0  0
   -1.6180    0.4910   -0.8610 N   0  0  0  0  0  0  0  0  0  0  0  0
   -0.3490    0.2750   -0.2850 C   0  0  0  0  0  0  0  0  0  0  0  0
   -0.1710    0.3400    1.0780 C   0  0  0  0  0  0  0  0  0  0  0  0
    1.0820    0.1240    1.6130 C   0  0  0  0  0  0  0  0  0  0  0  0
    2.1690   -0.1580    0.7910 C   0  0  0  0  0  0  0  0  0  0  0  0
    2.0030   -0.2260   -0.5770 C   0  0  0  0  0  0  0  0  0  0  0  0
    0.7440   -0.0060   -1.0800 C   0  0  0  0  0  0  0  0  0  0  0  0
    3.0970   -0.5100   -1.4090 O   0  0  0  0  0  0  0  0  0  0  0  0
    4.2590   -1.0970   -0.8490 C   0  0  0  0  0  0  0  0  0  0  0  0
    4.5710   -0.4240    0.4730 C   0  0  0  0  0  0  0  0  0  0  0  0
    3.4400   -0.3780    1.3180 O   0  0  0  0  0  0  0  0  0  0  0  0
  1  2  1  0
  2  3  2  3
  3  4  1  0
  3  5  1  0
  5  6  1  0
  6  7  2  0
  6 11  1  0
  7  8  1  0
  8  9  2  0
  9 10  1  0
  9 15  1  0
 10 11  2  0
 10 12  1  0
 12 13  1  0
 13 14  1  0
 14 15  1  0
M  END
