
     RDKit          3D

 35 39  0  0  0  0  0  0  0  0999 V2000
   -6.4570   -4.0750    0.7230 C   0  0  0  0  0  0  0  0  0  0  0  0
   -5.2280   -3.5100    1.3650 C   0  0  0  0  0  0  0  0  0  0  0  0
   -4.5790   -2.5110    0.5170 N   0  0  0  0  0  0  0  0  0  0  0  0
   -3.4000   -1.9060    1.0250 C   0  0  0  0  0  0  0  0  0  0  0  0
   -2.9510   -2.2320    2.1620 O   0  0  0  0  0  0  0  0  0  0  0  0
   -2.7060   -0.8850    0.1960 C   0  0  2  0  0  0  0  0  0  0  0  0
   -1.5660   -0.3740    0.8170 O   0  0  0  0  0  0  0  0  0  0  0  0
   -0.3060   -0.4560    0.2430 C   0  0  0  0  0  0  0  0  0  0  0  0
   -0.2240   -1.0170   -0.8760 O   0  0  0  0  0  0  0  0  0  0  0  0
    0.8600    0.0950    0.9330 C   0  0  0  0  0  0  0  0  0  0  0  0
    0.7200    0.7090    2.1690 C   0  0  0  0  0  0  0  0  0  0  0  0
    1.8030    1.2360    2.8410 C   0  0  0  0  0  0  0  0  0  0  0  0
    3.0490    1.1460    2.2640 C   0  0  0  0  0  0  0  0  0  0  0  0
    4.2700    1.5470    2.6480 N   0  0  0  0  0  0  0  0  0  0  0  0
    5.1920    1.2140    1.7070 C   0  0  0  0  0  0  0  0  0  0  0  0
    6.4280    1.4390    1.7450 O   0  0  0  0  0  0  0  0  0  0  0  0
    4.5620    0.5950    0.7110 N   0  0  0  0  0  0  0  0  0  0  0  0
    5.0580    0.0420   -0.5180 C   0  0  1  0  0  0  0  0  0  0  0  0
    4.9470    1.0440   -1.6490 C   0  0  0  0  0  0  0  0  0  0  0  0
    6.3240    1.6070   -1.9100 C   0  0  0  0  0  0  0  0  0  0  0  0
    7.1020    0.6460   -2.5170 O   0  0  0  0  0  0  0  0  0  0  0  0
    6.9130   -0.6000   -1.9360 C   0  0  0  0  0  0  0  0  0  0  0  0
    6.4690   -0.4490   -0.4720 C   0  0  0  0  0  0  0  0  0  0  0  0
    3.2330    0.5460    1.0430 C   0  0  0  0  0  0  0  0  0  0  0  0
    2.1160    0.0320    0.4060 C   0  0  0  0  0  0  0  0  0  0  0  0
   -3.6320    0.2560   -0.0640 C   0  0  0  0  0  0  0  0  0  0  0  0
   -4.3800    0.7600    0.9790 C   0  0  0  0  0  0  0  0  0  0  0  0
   -5.2290    1.8120    0.7210 C   0  0  0  0  0  0  0  0  0  0  0  0
   -5.9620    2.3000    1.7610 F   0  0  0  0  0  0  0  0  0  0  0  0
   -5.3220    2.3440   -0.5600 C   0  0  0  0  0  0  0  0  0  0  0  0
   -4.5630    1.8230   -1.5930 C   0  0  0  0  0  0  0  0  0  0  0  0
   -3.7090    0.7710   -1.3500 C   0  0  0  0  0  0  0  0  0  0  0  0
   -3.1060    0.4550   -2.4670 N   0  0  0  0  0  0  0  0  0  0  0  0
   -3.5390    1.3030   -3.5340 C   0  0  0  0  0  0  0  0  0  0  0  0
   -4.5140    2.1890   -2.8620 C   0  0  0  0  0  0  0  0  0  0  0  0
  1  2  1  0
  2  3  1  0
  3  4  1  0
  4  5  2  0
  4  6  1  0
  6  7  1  1
  6 26  1  0
  7  8  1  0
  8  9  2  0
  8 10  1  0
 10 11  2  0
 10 25  1  0
 11 12  1  0
 12 13  2  0
 13 14  1  0
 13 24  1  0
 14 15  1  0
 15 16  2  0
 15 17  1  0
 18 17  1  1
 17 24  1  0
 18 19  1  0
 18 23  1  0
 19 20  1  0
 20 21  1  0
 21 22  1  0
 22 23  1  0
 24 25  2  0
 26 27  2  0
 26 32  1  0
 27 28  1  0
 28 29  1  0
 28 30  2  0
 30 31  1  0
 31 32  1  0
 31 35  2  0
 32 33  2  0
 33 34  1  0
 34 35  1  0
M  END
