
     RDKit          3D

 35 39  0  0  0  0  0  0  0  0999 V2000
   -8.2160   -0.5690    1.2550 C   0  0  0  0  0  0  0  0  0  0  0  0
   -8.0200   -0.6350   -0.2000 N   0  0  0  0  0  0  0  0  0  0  0  0
   -7.4270   -1.8620   -0.6090 C   0  0  0  0  0  0  0  0  0  0  0  0
   -6.0900   -1.7390   -1.2940 C   0  0  0  0  0  0  0  0  0  0  0  0
   -5.2880   -0.7490   -0.5450 C   0  0  0  0  0  0  0  0  0  0  0  0
   -3.9680   -0.9710   -0.2170 C   0  0  0  0  0  0  0  0  0  0  0  0
   -3.2690    0.0100    0.4930 C   0  0  0  0  0  0  0  0  0  0  0  0
   -3.8960    1.2000    0.8660 C   0  0  0  0  0  0  0  0  0  0  0  0
   -5.2180    1.3950    0.5250 C   0  0  0  0  0  0  0  0  0  0  0  0
   -5.9140    0.4220   -0.1800 C   0  0  0  0  0  0  0  0  0  0  0  0
   -7.3370    0.5620   -0.5820 C   0  0  0  0  0  0  0  0  0  0  0  0
   -3.1870    2.1850    1.5810 O   0  0  0  0  0  0  0  0  0  0  0  0
   -1.7680    2.2650    1.3570 C   0  0  0  0  0  0  0  0  0  0  0  0
   -1.2720    0.8770    1.5790 C   0  0  0  0  0  0  0  0  0  0  0  0
   -0.3390    0.5820    2.3560 O   0  0  0  0  0  0  0  0  0  0  0  0
   -1.9110   -0.1750    0.8530 N   0  0  0  0  0  0  0  0  0  0  0  0
   -1.2280   -1.3830    0.4750 C   0  0  0  0  0  0  0  0  0  0  0  0
   -0.6250   -1.1820   -0.8970 C   0  0  0  0  0  0  0  0  0  0  0  0
    0.3310   -0.1070   -0.9560 N   0  0  0  0  0  0  0  0  0  0  0  0
    1.5190   -0.1680   -0.1570 C   0  0  0  0  0  0  0  0  0  0  0  0
    1.7400   -1.1520    0.5920 O   0  0  0  0  0  0  0  0  0  0  0  0
    2.4710    0.8850   -0.1970 N   0  0  0  0  0  0  0  0  0  0  0  0
    3.7020    0.9160    0.5630 C   0  0  0  0  0  0  0  0  0  0  0  0
    4.5490   -0.2640    0.1520 C   0  0  1  0  0  0  0  0  0  0  0  0
    4.7740   -0.1760   -1.3270 C   0  0  0  0  0  0  0  0  0  0  0  0
    5.8320   -1.0760   -1.8550 C   0  0  0  0  0  0  0  0  0  0  0  0
    7.1050   -0.4100   -1.8070 O   0  0  0  0  0  0  0  0  0  0  0  0
    7.6000    0.1760   -0.6360 C   0  0  0  0  0  0  0  0  0  0  0  0
    8.8640    0.7050   -0.7640 C   0  0  0  0  0  0  0  0  0  0  0  0
    9.5070    1.3190    0.2840 C   0  0  0  0  0  0  0  0  0  0  0  0
    8.9050    1.4300    1.5160 C   0  0  0  0  0  0  0  0  0  0  0  0
    9.5580    2.0460    2.5590 F   0  0  0  0  0  0  0  0  0  0  0  0
    7.6380    0.9100    1.6790 C   0  0  0  0  0  0  0  0  0  0  0  0
    7.0100    0.2970    0.6170 C   0  0  0  0  0  0  0  0  0  0  0  0
    5.7380   -0.1840    0.9120 O   0  0  0  0  0  0  0  0  0  0  0  0
  1  2  1  0
  2  3  1  0
  2 11  1  0
  3  4  1  0
  4  5  1  0
  5  6  2  0
  5 10  1  0
  6  7  1  0
  7  8  2  0
  7 16  1  0
  8  9  1  0
  8 12  1  0
  9 10  2  0
 10 11  1  0
 12 13  1  0
 13 14  1  0
 14 15  2  0
 14 16  1  0
 16 17  1  0
 17 18  1  0
 18 19  1  0
 19 20  1  0
 20 21  2  0
 20 22  1  0
 22 23  1  0
 24 23  1  1
 24 25  1  0
 24 35  1  0
 25 26  1  0
 26 27  1  0
 27 28  1  0
 28 29  2  0
 28 34  1  0
 29 30  1  0
 30 31  2  0
 31 32  1  0
 31 33  1  0
 33 34  2  0
 34 35  1  0
M  END
