
     RDKit          3D

 35 39  0  0  0  0  0  0  0  0999 V2000
    8.7310   -0.0010   -1.3600 C   0  0  0  0  0  0  0  0  0  0  0  0
    8.7380   -0.5990   -0.0570 N   0  0  0  0  0  0  0  0  0  0  0  0
    8.5860    0.4260    0.9430 C   0  0  0  0  0  0  0  0  0  0  0  0
    7.2370    1.0650    0.7900 C   0  0  0  0  0  0  0  0  0  0  0  0
    6.4280    0.4650   -0.1450 O   0  0  0  0  0  0  0  0  0  0  0  0
    6.3620   -0.9040   -0.0360 C   0  0  2  0  0  0  0  0  0  0  0  0
    5.3740   -1.3530    1.0490 C   0  0  0  0  0  0  0  0  0  0  0  0
    4.0450   -0.8550    0.7130 N   0  0  0  0  0  0  0  0  0  0  0  0
    3.0870   -1.5580   -0.0780 C   0  0  0  0  0  0  0  0  0  0  0  0
    3.3320   -2.5220   -0.8360 O   0  0  0  0  0  0  0  0  0  0  0  0
    1.7980   -0.8860    0.2160 C   0  0  2  0  0  0  0  0  0  0  0  0
    0.8280   -0.9030   -0.8920 C   0  0  0  0  0  0  0  0  0  0  0  0
   -0.3090   -0.0390   -0.5290 N   0  0  0  0  0  0  0  0  0  0  0  0
   -1.5700   -0.5970   -0.6910 C   0  0  0  0  0  0  0  0  0  0  0  0
   -1.5290   -1.8750   -1.0420 O   0  0  0  0  0  0  0  0  0  0  0  0
   -2.9030   -0.0480   -0.5450 C   0  0  0  0  0  0  0  0  0  0  0  0
   -3.9590   -0.9290   -0.2050 C   0  0  0  0  0  0  0  0  0  0  0  0
   -3.5980   -2.2500    0.0390 O   0  0  0  0  0  0  0  0  0  0  0  0
   -5.2510   -0.4890   -0.1260 C   0  0  0  0  0  0  0  0  0  0  0  0
   -5.6180    0.8150   -0.3660 C   0  0  0  0  0  0  0  0  0  0  0  0
   -7.0430    1.2360   -0.2650 C   0  0  1  0  0  0  0  0  0  0  0  0
   -7.8960    0.6670   -1.3460 C   0  0  0  0  0  0  0  0  0  0  0  0
   -8.6360   -0.5800   -1.0110 C   0  0  0  0  0  0  0  0  0  0  0  0
   -9.3210   -0.4110    0.2300 N   0  0  0  0  0  0  0  0  0  0  0  0
   -8.4590   -0.1040    1.3250 C   0  0  0  0  0  0  0  0  0  0  0  0
   -7.5820    1.0720    1.1290 C   0  0  0  0  0  0  0  0  0  0  0  0
   -4.6080    1.6780   -0.6970 C   0  0  0  0  0  0  0  0  0  0  0  0
   -3.2720    1.2380   -0.7830 C   0  0  0  0  0  0  0  0  0  0  0  0
   -2.3770    2.1570   -1.2030 F   0  0  0  0  0  0  0  0  0  0  0  0
   -0.0490    1.2380    0.0230 C   0  0  0  0  0  0  0  0  0  0  0  0
    1.1860    1.3090    0.9500 C   0  0  0  0  0  0  0  0  0  0  0  0
    2.2840    0.5780    0.2970 C   0  0  1  0  0  0  0  0  0  0  0  0
    3.4960    0.3980    1.1160 C   0  0  0  0  0  0  0  0  0  0  0  0
    3.9790    1.1510    1.9860 O   0  0  0  0  0  0  0  0  0  0  0  0
    7.6900   -1.5790    0.1340 C   0  0  0  0  0  0  0  0  0  0  0  0
  1  2  1  0
  2  3  1  0
  2 35  1  0
  3  4  1  0
  4  5  1  0
  5  6  1  0
  6  7  1  1
  6 35  1  0
  7  8  1  0
  8  9  1  0
  8 33  1  0
  9 10  2  0
  9 11  1  0
 11 12  1  6
 11 32  1  0
 12 13  1  0
 13 14  1  0
 13 30  1  0
 14 15  2  0
 14 16  1  0
 16 17  2  0
 16 28  1  0
 17 18  1  0
 17 19  1  0
 19 20  2  0
 21 20  1  1
 20 27  1  0
 21 22  1  0
 21 26  1  0
 22 23  1  0
 23 24  1  0
 24 25  1  0
 25 26  1  0
 27 28  2  0
 28 29  1  0
 30 31  1  0
 32 31  1  1
 32 33  1  0
 33 34  2  0
M  END
