
     RDKit          3D

 34 38  0  0  0  0  0  0  0  0999 V2000
    8.2140   -2.2800   -0.7710 C   0  0  0  0  0  0  0  0  0  0  0  0
    7.9560   -1.0390   -0.1730 O   0  0  0  0  0  0  0  0  0  0  0  0
    6.6490   -0.6270   -0.0110 C   0  0  0  0  0  0  0  0  0  0  0  0
    5.6010   -1.4180   -0.4280 C   0  0  0  0  0  0  0  0  0  0  0  0
    4.2900   -1.0210   -0.2730 C   0  0  0  0  0  0  0  0  0  0  0  0
    3.9890    0.1940    0.3110 C   0  0  0  0  0  0  0  0  0  0  0  0
    2.5990    0.6040    0.4700 C   0  0  0  0  0  0  0  0  0  0  0  0
    1.6090   -0.1140    0.0900 N   0  0  0  0  0  0  0  0  0  0  0  0
    0.3020    0.3260    0.2660 N   0  0  0  0  0  0  0  0  0  0  0  0
   -0.7110   -0.3750    0.8630 C   0  0  0  0  0  0  0  0  0  0  0  0
   -1.8530    0.3710    0.8500 C   0  0  0  0  0  0  0  0  0  0  0  0
   -1.5260    1.5770    0.2310 C   0  0  0  0  0  0  0  0  0  0  0  0
   -2.2000    2.7310   -0.0690 C   0  0  0  0  0  0  0  0  0  0  0  0
   -3.4220    2.8320    0.2350 O   0  0  0  0  0  0  0  0  0  0  0  0
   -1.6260    3.7820   -0.6780 N   0  0  0  0  0  0  0  0  0  0  0  0
   -2.4200    4.9660   -0.9580 C   0  0  0  0  0  0  0  0  0  0  0  0
   -0.3270    3.7010   -1.0110 C   0  0  0  0  0  0  0  0  0  0  0  0
    0.2280    4.6940   -1.5910 O   0  0  0  0  0  0  0  0  0  0  0  0
    0.3510    2.5750   -0.7230 N   0  0  0  0  0  0  0  0  0  0  0  0
   -0.2000    1.5100   -0.1140 C   0  0  0  0  0  0  0  0  0  0  0  0
   -3.1530   -0.0950    1.3490 C   0  0  1  0  0  0  0  0  0  0  0  0
   -3.8320   -1.1500    0.5720 C   0  0  0  0  0  0  0  0  0  0  0  0
   -4.5230   -2.1260    1.3180 C   0  0  0  0  0  0  0  0  0  0  0  0
   -5.2560   -3.1190    0.7140 C   0  0  0  0  0  0  0  0  0  0  0  0
   -5.3310   -3.1770   -0.6440 C   0  0  0  0  0  0  0  0  0  0  0  0
   -4.6630   -2.2300   -1.3700 C   0  0  0  0  0  0  0  0  0  0  0  0
   -3.9070   -1.2070   -0.7830 C   0  0  0  0  0  0  0  0  0  0  0  0
   -3.2160   -0.2240   -1.6300 C   0  0  0  0  0  0  0  0  0  0  0  0
   -2.7400   -0.8040    2.6900 C   0  0  0  0  0  0  0  0  0  0  0  0
   -1.9420   -1.9710    2.2530 C   0  0  0  0  0  0  0  0  0  0  0  0
   -2.2050   -3.1670    2.4010 O   0  0  0  0  0  0  0  0  0  0  0  0
   -0.7090   -1.6120    1.5760 N   0  0  0  0  0  0  0  0  0  0  0  0
    5.0380    0.9830    0.7280 C   0  0  0  0  0  0  0  0  0  0  0  0
    6.3520    0.5930    0.5760 C   0  0  0  0  0  0  0  0  0  0  0  0
  1  2  1  0
  2  3  1  0
  3  4  2  0
  3 34  1  0
  4  5  1  0
  5  6  2  0
  6  7  1  0
  6 33  1  0
  7  8  2  3
  8  9  1  0
  9 10  1  0
  9 20  1  0
 10 11  2  0
 10 32  1  0
 11 12  1  0
 11 21  1  0
 12 13  1  0
 12 20  2  0
 13 14  2  0
 13 15  1  0
 15 16  1  0
 15 17  1  0
 17 18  2  0
 17 19  1  0
 19 20  1  0
 21 22  1  6
 21 29  1  0
 22 23  2  0
 22 27  1  0
 23 24  1  0
 24 25  2  0
 25 26  1  0
 26 27  2  0
 27 28  1  0
 29 30  1  0
 30 31  2  0
 30 32  1  0
 33 34  2  0
M  END
