
     RDKit          3D

 21 21  0  0  0  0  0  0  0  0999 V2000
   -0.5230   -1.9830    3.2340 C   0  0  0  0  0  0  0  0  0  0  0  0
   -1.2770   -1.1690    2.2460 C   0  0  0  0  0  0  0  0  0  0  0  0
   -2.4910   -0.9580    2.4460 O   0  0  0  0  0  0  0  0  0  0  0  0
   -0.6640   -0.6250    1.0880 N   0  0  0  0  0  0  0  0  0  0  0  0
   -1.4310    0.1290    0.1880 C   0  0  0  0  0  0  0  0  0  0  0  0
   -0.8400    0.5900   -0.8440 O   0  0  0  0  0  0  0  0  0  0  0  0
   -2.8580    0.4230    0.3530 C   0  0  0  0  0  0  0  0  0  0  0  0
   -3.3940    1.2870   -0.7740 C   0  0  0  0  0  0  0  0  0  0  0  0
   -4.8650    1.5820   -0.5920 C   0  0  1  0  0  0  0  0  0  0  0  0
   -5.2820    2.4490   -1.7690 C   0  0  0  0  0  0  0  0  0  0  0  0
   -5.6740    0.2960   -0.6960 C   0  0  0  0  0  0  0  0  0  0  0  0
    0.7510   -0.8940    0.8970 C   0  0  1  0  0  0  0  0  0  0  0  0
    1.0130   -1.5830   -0.4230 C   0  0  0  0  0  0  0  0  0  0  0  0
    2.3940   -2.2030   -0.3100 C   0  0  0  0  0  0  0  0  0  0  0  0
    3.2590   -1.3060    0.5610 C   0  0  0  0  0  0  0  0  0  0  0  0
    2.9200    0.0390    0.5950 N   0  0  0  0  0  0  0  0  0  0  0  0
    3.7890    1.0700    0.2980 C   0  0  0  0  0  0  0  0  0  0  0  0
    4.2440    1.2800   -1.1010 C   0  0  0  0  0  0  0  0  0  0  0  0
    5.0010    0.1800   -1.7480 C   0  0  0  0  0  0  0  0  0  0  0  0
    6.1900   -0.1360   -1.0710 O   0  0  0  0  0  0  0  0  0  0  0  0
    1.5680    0.3780    0.9020 C   0  0  0  0  0  0  0  0  0  0  0  0
  1  2  1  0
  2  3  2  0
  2  4  1  0
  4  5  1  0
 12  4  1  6
  5  6  2  0
  5  7  1  0
  7  8  1  0
  8  9  1  0
  9 10  1  6
  9 11  1  0
 12 13  1  0
 12 21  1  0
 13 14  1  0
 14 15  1  0
 15 16  1  0
 16 17  1  0
 16 21  1  0
 17 18  1  0
 18 19  1  0
 19 20  1  0
M  END
