
     RDKit          3D

 22 22  0  0  0  0  0  0  0  0999 V2000
   -6.2190    0.9800    0.1660 C   0  0  0  0  0  0  0  0  0  0  0  0
   -5.2120    0.5550    0.9750 C   0  0  0  0  0  0  0  0  0  0  0  0
   -5.5630    0.4850    2.4540 C   0  0  0  0  0  0  0  0  0  0  0  0
   -4.0460    0.1480    0.5330 N   0  0  0  0  0  0  0  0  0  0  0  0
   -2.8460    0.4470    0.5240 C   0  0  0  0  0  0  0  0  0  0  0  0
   -2.3360    1.6170    1.1800 N   0  0  0  0  0  0  0  0  0  0  0  0
   -1.8130   -0.3850   -0.2170 C   0  0  0  0  0  0  0  0  0  0  0  0
   -2.3500   -1.3710   -0.8650 C   0  0  0  0  0  0  0  0  0  0  0  0
   -1.7710   -2.4050   -1.6940 C   0  0  0  0  0  0  0  0  0  0  0  0
   -0.5680   -2.4910   -1.8880 O   0  0  0  0  0  0  0  0  0  0  0  0
   -0.4160    0.0230   -0.0260 C   0  0  0  0  0  0  0  0  0  0  0  0
    0.4850   -0.7970   -0.6450 O   0  0  0  0  0  0  0  0  0  0  0  0
    1.8510   -0.7040   -0.6500 C   0  0  0  0  0  0  0  0  0  0  0  0
    2.6140   -1.6250   -1.3270 C   0  0  0  0  0  0  0  0  0  0  0  0
    4.0100   -1.5680   -1.3580 C   0  0  0  0  0  0  0  0  0  0  0  0
    4.6930   -0.5580   -0.6950 C   0  0  0  0  0  0  0  0  0  0  0  0
    6.0750   -0.5160   -0.7380 O   0  0  0  0  0  0  0  0  0  0  0  0
    6.8920    0.4320   -0.1230 C   0  0  0  0  0  0  0  0  0  0  0  0
    6.5670    1.7890   -0.6760 C   0  0  0  0  0  0  0  0  0  0  0  0
    6.3250    2.8210   -1.0770 N   0  0  0  0  0  0  0  0  0  0  0  0
    3.9240    0.3590   -0.0220 C   0  0  0  0  0  0  0  0  0  0  0  0
    2.5240    0.2920    0.0040 C   0  0  0  0  0  0  0  0  0  0  0  0
  1  2  2  0
  2  3  1  0
  2  4  1  0
  4  5  2  3
  5  6  1  0
  5  7  1  0
  7  8  2  3
  7 11  1  0
  8  9  1  0
  9 10  2  0
 11 12  1  0
 12 13  1  0
 13 14  2  0
 13 22  1  0
 14 15  1  0
 15 16  2  0
 16 17  1  0
 16 21  1  0
 17 18  1  0
 18 19  1  0
 19 20  3  0
 21 22  2  0
M  END
