
     RDKit          3D

 22 22  0  0  0  0  0  0  0  0999 V2000
    4.7560    4.0000   -4.9840 C   0  0  0  0  0  0  0  0  0  0  0  0
    4.2960    3.6500   -3.5640 C   0  0  0  0  0  0  0  0  0  0  0  0
    3.3740    2.6360   -3.6080 O   0  0  0  0  0  0  0  0  0  0  0  0
    2.9040    2.2040   -2.4090 C   0  0  0  0  0  0  0  0  0  0  0  0
    2.1880    3.2720   -1.6170 C   0  0  1  0  0  0  0  0  0  0  0  0
    1.0280    3.8180   -2.3410 C   0  0  0  0  0  0  0  0  0  0  0  0
    1.9770    2.8090   -0.2270 C   0  0  0  0  0  0  0  0  0  0  0  0
    1.2440    1.6150   -0.0340 N   0  0  0  0  0  0  0  0  0  0  0  0
   -0.1080    1.4320   -0.3410 C   0  0  0  0  0  0  0  0  0  0  0  0
   -0.8100    2.3650   -0.8200 O   0  0  0  0  0  0  0  0  0  0  0  0
   -0.7350    0.1560   -0.1120 N   0  0  0  0  0  0  0  0  0  0  0  0
    0.0410   -0.9060    0.4290 C   0  0  0  0  0  0  0  0  0  0  0  0
   -0.7830   -2.1320    0.7500 C   0  0  0  0  0  0  0  0  0  0  0  0
   -2.1490   -1.8350    1.0640 N   0  0  0  0  0  0  0  0  0  0  0  0
   -2.9260   -2.8370    1.7120 C   0  0  0  0  0  0  0  0  0  0  0  0
   -2.4940   -3.3140    2.8530 C   0  0  0  0  0  0  0  0  0  0  0  0
   -3.2490   -4.3330    3.5490 C   0  0  0  0  0  0  0  0  0  0  0  0
   -2.7950   -4.7980    4.6940 C   0  0  0  0  0  0  0  0  0  0  0  0
   -3.5200   -5.8340    5.4460 C   0  0  0  0  0  0  0  0  0  0  0  0
   -4.6940   -6.2170    4.7840 O   0  0  0  0  0  0  0  0  0  0  0  0
   -2.7980   -0.5860    0.7720 C   0  0  0  0  0  0  0  0  0  0  0  0
   -2.1270    0.0170   -0.4420 C   0  0  0  0  0  0  0  0  0  0  0  0
  1  2  1  0
  2  3  1  0
  3  4  1  0
  4  5  1  0
  5  6  1  6
  5  7  1  0
  7  8  1  0
  8  9  1  0
  9 10  2  0
  9 11  1  0
 11 12  1  0
 11 22  1  0
 12 13  1  0
 13 14  1  0
 14 15  1  0
 14 21  1  0
 15 16  2  3
 16 17  1  0
 17 18  2  3
 18 19  1  0
 19 20  1  0
 21 22  1  0
M  END
