
     RDKit          3D

 22 22  0  0  0  0  0  0  0  0999 V2000
    4.6280   -1.9250   -1.9950 C   0  0  0  0  0  0  0  0  0  0  0  0
    3.6860   -0.9790   -2.6970 C   0  0  0  0  0  0  0  0  0  0  0  0
    2.4720   -0.7980   -2.0240 O   0  0  0  0  0  0  0  0  0  0  0  0
    2.2860   -0.3070   -0.7540 C   0  0  0  0  0  0  0  0  0  0  0  0
    3.2950    0.0240   -0.1040 O   0  0  0  0  0  0  0  0  0  0  0  0
    0.9420   -0.1600   -0.1470 C   0  0  0  0  0  0  0  0  0  0  0  0
    0.9120    0.3730    1.1950 C   0  0  0  0  0  0  0  0  0  0  0  0
    2.0430    0.6980    1.8010 N   0  0  0  0  0  0  0  0  0  0  0  0
    2.0510    1.2220    3.1040 C   0  0  0  0  0  0  0  0  0  0  0  0
    2.5930    2.5970    3.4120 C   0  0  0  0  0  0  0  0  0  0  0  0
    1.5960    0.5370    4.0680 O   0  0  0  0  0  0  0  0  0  0  0  0
   -0.0860   -0.5020   -0.8310 C   0  0  0  0  0  0  0  0  0  0  0  0
    0.2480   -1.0050   -2.1670 N   0  0  0  0  0  0  0  0  0  0  0  0
   -1.4740   -0.5180   -0.5770 N   0  0  0  0  0  0  0  0  0  0  0  0
   -2.1230   -1.8510   -0.6520 C   0  0  1  0  0  0  0  0  0  0  0  0
   -1.5500   -2.7990    0.3490 C   0  0  0  0  0  0  0  0  0  0  0  0
   -3.6170   -1.7830   -0.5600 C   0  0  0  0  0  0  0  0  0  0  0  0
   -2.3460    0.5730   -0.2700 C   0  0  2  0  0  0  0  0  0  0  0  0
   -1.9450    1.8800   -0.9190 C   0  0  0  0  0  0  0  0  0  0  0  0
   -1.5420    2.7580    0.2420 C   0  0  0  0  0  0  0  0  0  0  0  0
   -2.2740    2.2580    1.4420 C   0  0  0  0  0  0  0  0  0  0  0  0
   -2.6700    0.8320    1.1450 C   0  0  0  0  0  0  0  0  0  0  0  0
  1  2  1  0
  2  3  1  0
  3  4  1  0
  4  5  2  0
  4  6  1  0
  6  7  1  0
  6 12  2  3
  7  8  2  3
  8  9  1  0
  9 10  1  0
  9 11  2  0
 12 13  1  0
 12 14  1  0
 14 15  1  0
 18 14  1  1
 15 16  1  1
 15 17  1  0
 18 19  1  0
 18 22  1  0
 19 20  1  0
 20 21  1  0
 21 22  1  0
M  END
