
     RDKit          3D

 22 22  0  0  0  0  0  0  0  0999 V2000
   -6.8020    1.4220    0.6270 C   0  0  0  0  0  0  0  0  0  0  0  0
   -6.3410    0.2920    0.1490 C   0  0  0  0  0  0  0  0  0  0  0  0
   -4.9430   -0.0470    0.2940 C   0  0  0  0  0  0  0  0  0  0  0  0
   -4.5020   -1.1880   -0.1870 C   0  0  0  0  0  0  0  0  0  0  0  0
   -5.4330   -2.1170   -0.8740 C   0  0  0  0  0  0  0  0  0  0  0  0
   -4.1110    0.8670    0.9480 O   0  0  0  0  0  0  0  0  0  0  0  0
   -3.5070    1.9280    0.1850 C   0  0  0  0  0  0  0  0  0  0  0  0
   -2.6380    1.2870   -0.8620 C   0  0  0  0  0  0  0  0  0  0  0  0
   -1.6000    0.5090   -0.2120 N   0  0  0  0  0  0  0  0  0  0  0  0
   -0.8530   -0.2710   -1.1990 C   0  0  0  0  0  0  0  0  0  0  0  0
    0.2000   -1.0610   -0.4250 C   0  0  0  0  0  0  0  0  0  0  0  0
    1.2020   -0.1100    0.0740 N   0  0  0  0  0  0  0  0  0  0  0  0
    2.4780   -0.5900    0.4580 C   0  0  0  0  0  0  0  0  0  0  0  0
    2.7230   -1.8240    0.3780 O   0  0  0  0  0  0  0  0  0  0  0  0
    3.5180    0.2460    0.9340 N   0  0  0  0  0  0  0  0  0  0  0  0
    4.8280   -0.1080    1.3310 C   0  0  0  0  0  0  0  0  0  0  0  0
    5.7700   -0.6800    0.3580 C   0  0  1  0  0  0  0  0  0  0  0  0
    5.4580   -1.9540   -0.3210 C   0  0  0  0  0  0  0  0  0  0  0  0
    6.2030    0.3260   -0.7080 C   0  0  0  0  0  0  0  0  0  0  0  0
    7.0910   -0.2910   -1.5880 O   0  0  0  0  0  0  0  0  0  0  0  0
    0.7530    1.2520    0.1070 C   0  0  0  0  0  0  0  0  0  0  0  0
   -0.6980    1.3530    0.5490 C   0  0  0  0  0  0  0  0  0  0  0  0
  1  2  2  0
  2  3  1  0
  3  4  2  3
  3  6  1  0
  4  5  1  0
  6  7  1  0
  7  8  1  0
  8  9  1  0
  9 10  1  0
  9 22  1  0
 10 11  1  0
 11 12  1  0
 12 13  1  0
 12 21  1  0
 13 14  2  0
 13 15  1  0
 15 16  1  0
 16 17  1  0
 17 18  1  6
 17 19  1  0
 19 20  1  0
 21 22  1  0
M  END
