
     RDKit          3D

 13 14  0  0  0  0  0  0  0  0999 V2000
   -3.0710    1.9170    1.1900 O   0  0  0  0  0  0  0  0  0  0  0  0
   -1.9980    1.8350    0.5630 N   0  0  0  0  0  0  0  0  0  0  0  0
   -1.4000    3.0050    0.1620 O   0  0  0  0  0  0  0  0  0  0  0  0
   -1.3930    0.5760    0.2610 C   0  0  0  0  0  0  0  0  0  0  0  0
   -2.1930   -0.5400    0.1370 C   0  0  0  0  0  0  0  0  0  0  0  0
   -1.5820   -1.7410   -0.1550 C   0  0  0  0  0  0  0  0  0  0  0  0
   -0.2190   -1.8620   -0.3240 C   0  0  0  0  0  0  0  0  0  0  0  0
    0.5830   -0.7490   -0.2000 C   0  0  0  0  0  0  0  0  0  0  0  0
    1.9570   -0.8860   -0.3740 C   0  0  0  0  0  0  0  0  0  0  0  0
    2.7260    0.2510   -0.2420 C   0  0  0  0  0  0  0  0  0  0  0  0
    2.0870    1.4370    0.0500 C   0  0  0  0  0  0  0  0  0  0  0  0
    0.7580    1.5480    0.2130 N   0  0  0  0  0  0  0  0  0  0  0  0
   -0.0190    0.4580    0.0920 C   0  0  0  0  0  0  0  0  0  0  0  0
  1  2  2  0
  2  3  1  0
  2  4  1  0
  4  5  2  0
  4 13  1  0
  5  6  1  0
  6  7  2  0
  7  8  1  0
  8  9  2  0
  8 13  1  0
  9 10  1  0
 10 11  2  0
 11 12  1  0
 12 13  2  0
M  CHG  2   2   1   3  -1
M  END
