
     RDKit          3D

 28 29  0  0  0  0  0  0  0  0999 V2000
   -6.3060   -2.4980   -0.1190 C   0  0  0  0  0  0  0  0  0  0  0  0
   -5.1160   -2.5990    0.5570 O   0  0  0  0  0  0  0  0  0  0  0  0
   -4.0090   -2.6680   -0.2540 C   0  0  0  0  0  0  0  0  0  0  0  0
   -3.7430   -1.4800   -1.1030 C   0  0  0  0  0  0  0  0  0  0  0  0
   -3.4540   -0.2010   -0.3900 C   0  0  2  0  0  0  0  0  0  0  0  0
   -2.2940   -0.3070    0.4410 N   0  0  0  0  0  0  0  0  0  0  0  0
   -1.4870    0.8460    0.5740 C   0  0  1  0  0  0  0  0  0  0  0  0
   -1.8570    1.9850   -0.3400 C   0  0  0  0  0  0  0  0  0  0  0  0
   -1.4010    1.3870    1.9860 C   0  0  0  0  0  0  0  0  0  0  0  0
   -0.0640    0.4630    0.2010 C   0  0  0  0  0  0  0  0  0  0  0  0
    0.1950   -0.6890   -0.1730 O   0  0  0  0  0  0  0  0  0  0  0  0
    0.8890    1.4850    0.3140 N   0  0  0  0  0  0  0  0  0  0  0  0
    2.2950    1.3290   -0.0060 C   0  0  0  0  0  0  0  0  0  0  0  0
    2.4790    1.0330   -1.4510 C   0  0  2  0  0  0  0  0  0  0  0  0
    1.9280   -0.1820   -1.8240 O   0  0  0  0  0  0  0  0  0  0  0  0
    3.8720    1.1480   -1.9570 C   0  0  0  0  0  0  0  0  0  0  0  0
    4.7710    0.2460   -1.5900 O   0  0  0  0  0  0  0  0  0  0  0  0
    5.2360    0.1320   -0.3260 C   0  0  2  0  0  0  0  0  0  0  0  0
    6.7720    0.2940   -0.3870 C   0  0  0  0  0  0  0  0  0  0  0  0
    7.3800   -0.0830    0.9340 C   0  0  0  0  0  0  0  0  0  0  0  0
    7.1390   -1.4370    1.1540 O   0  0  0  0  0  0  0  0  0  0  0  0
    5.7700   -1.5690    1.4300 C   0  0  0  0  0  0  0  0  0  0  0  0
    4.9740   -1.2670    0.2000 C   0  0  0  0  0  0  0  0  0  0  0  0
   -4.6340    0.3120    0.3670 C   0  0  0  0  0  0  0  0  0  0  0  0
   -5.5880    1.1930   -0.0690 C   0  0  0  0  0  0  0  0  0  0  0  0
   -6.4750    1.4000    0.9480 C   0  0  0  0  0  0  0  0  0  0  0  0
   -6.0520    0.6530    1.9710 N   0  0  0  0  0  0  0  0  0  0  0  0
   -4.9550   -0.0000    1.6370 N   0  0  0  0  0  0  0  0  0  0  0  0
  1  2  1  0
  2  3  1  0
  3  4  1  0
  5  4  1  1
  5  6  1  0
  5 24  1  0
  6  7  1  0
  7  8  1  6
  7  9  1  0
  7 10  1  0
 10 11  2  0
 10 12  1  0
 12 13  1  0
 13 14  1  0
 14 15  1  1
 14 16  1  0
 16 17  1  0
 18 17  1  6
 18 19  1  0
 18 23  1  0
 19 20  1  0
 20 21  1  0
 21 22  1  0
 22 23  1  0
 24 25  2  0
 24 28  1  0
 25 26  1  0
 26 27  2  0
 27 28  1  0
M  CHG  1   6   1
M  END
