
     RDKit          3D

 28 28  0  0  0  0  0  0  0  0999 V2000
    4.8620   -0.7290    2.9590 C   0  0  0  0  0  0  0  0  0  0  0  0
    4.4790   -0.9220    1.7470 N   0  0  0  0  0  0  0  0  0  0  0  0
    5.2630   -1.7220    0.8880 C   0  0  0  0  0  0  0  0  0  0  0  0
    6.5730   -1.6570    0.9740 C   0  0  0  0  0  0  0  0  0  0  0  0
    4.6090   -2.5810   -0.0550 N   0  0  0  0  0  0  0  0  0  0  0  0
    3.2090   -2.3950   -0.3380 C   0  0  0  0  0  0  0  0  0  0  0  0
    3.0000   -1.0830   -1.0740 C   0  0  1  0  0  0  0  0  0  0  0  0
    3.7660   -1.0910   -2.3720 C   0  0  0  0  0  0  0  0  0  0  0  0
    1.5920   -0.9010   -1.3430 N   0  0  0  0  0  0  0  0  0  0  0  0
    0.8800    0.1960   -0.7350 C   0  0  0  0  0  0  0  0  0  0  0  0
    1.5370    0.9390    0.0060 O   0  0  0  0  0  0  0  0  0  0  0  0
   -0.5550    0.3080   -1.0640 C   0  0  0  0  0  0  0  0  0  0  0  0
   -1.2240    1.5240   -0.5240 C   0  0  2  0  0  0  0  0  0  0  0  0
   -1.2050    1.7450    0.9440 C   0  0  0  0  0  0  0  0  0  0  0  0
   -1.8470    3.1020    1.1930 C   0  0  0  0  0  0  0  0  0  0  0  0
   -3.1060    3.2810    0.7040 O   0  0  0  0  0  0  0  0  0  0  0  0
   -2.6020    1.4190   -0.9470 O   0  0  0  0  0  0  0  0  0  0  0  0
   -3.3060    0.2530   -0.7100 C   0  0  0  0  0  0  0  0  0  0  0  0
   -3.2560   -0.7450   -1.7180 C   0  0  0  0  0  0  0  0  0  0  0  0
   -3.8850   -1.9470   -1.6530 C   0  0  0  0  0  0  0  0  0  0  0  0
   -4.6310   -2.2340   -0.5350 C   0  0  0  0  0  0  0  0  0  0  0  0
   -4.7090   -1.3000    0.4640 C   0  0  0  0  0  0  0  0  0  0  0  0
   -4.0510   -0.0630    0.3790 C   0  0  0  0  0  0  0  0  0  0  0  0
   -4.2100    0.8100    1.4600 O   0  0  0  0  0  0  0  0  0  0  0  0
   -4.9710    0.5070    2.5790 C   0  0  0  0  0  0  0  0  0  0  0  0
   -0.6380    2.7300   -1.1870 C   0  0  0  0  0  0  0  0  0  0  0  0
   -1.3500    3.5340   -2.0840 N   0  0  0  0  0  0  0  0  0  0  0  0
    0.5380    3.0400   -0.9330 O   0  0  0  0  0  0  0  0  0  0  0  0
  1  2  2  0
  2  3  1  0
  3  4  2  0
  3  5  1  0
  5  6  1  0
  6  7  1  0
  7  8  1  6
  7  9  1  0
  9 10  1  0
 10 11  2  0
 10 12  1  0
 13 12  1  1
 13 14  1  0
 13 17  1  0
 13 26  1  0
 14 15  1  0
 15 16  1  0
 17 18  1  0
 18 19  2  0
 18 23  1  0
 19 20  1  0
 20 21  2  0
 21 22  1  0
 22 23  2  0
 23 24  1  0
 24 25  1  0
 26 27  1  0
 26 28  2  0
M  END
