
     RDKit          3D

 14 14  0  0  0  0  0  0  0  0999 V2000
   -3.8580   -0.3230    0.9100 C   0  0  0  0  0  0  0  0  0  0  0  0
   -2.8630   -0.3100   -0.1940 C   0  0  0  0  0  0  0  0  0  0  0  0
   -3.2600   -0.5330   -1.3880 O   0  0  0  0  0  0  0  0  0  0  0  0
   -1.4910   -0.0540    0.0770 N   0  0  0  0  0  0  0  0  0  0  0  0
   -0.5260   -0.0390   -0.9720 C   0  0  1  0  0  0  0  0  0  0  0  0
    0.0250    1.3620   -1.1180 C   0  0  0  0  0  0  0  0  0  0  0  0
    0.6820    1.8280    0.0720 N   0  0  0  0  0  0  0  0  0  0  0  0
    1.9930    1.1630    0.0840 C   0  0  0  0  0  0  0  0  0  0  0  0
    1.9350   -0.0330    0.9660 C   0  0  2  0  0  0  0  0  0  0  0  0
    3.2640   -0.3590    1.3160 O   0  0  0  0  0  0  0  0  0  0  0  0
    1.2110   -1.2010    0.4560 C   0  0  1  0  0  0  0  0  0  0  0  0
    0.2420   -1.6530    1.3840 O   0  0  0  0  0  0  0  0  0  0  0  0
    0.5370   -1.0820   -0.8610 C   0  0  2  0  0  0  0  0  0  0  0  0
    1.4260   -0.9000   -1.9200 O   0  0  0  0  0  0  0  0  0  0  0  0
  1  2  1  0
  2  3  2  0
  2  4  1  0
  5  4  1  1
  5  6  1  0
  5 13  1  0
  6  7  1  0
  7  8  1  0
  8  9  1  0
  9 10  1  6
  9 11  1  0
 11 12  1  1
 11 13  1  0
 13 14  1  6
M  CHG  1   7   1
M  END
