
     RDKit          3D

 28 28  0  0  0  0  0  0  0  0999 V2000
   -7.5530    2.1240    0.3330 C   0  0  0  0  0  0  0  0  0  0  0  0
   -6.4860    1.5730   -0.5230 C   0  0  0  0  0  0  0  0  0  0  0  0
   -5.2750    1.3740   -0.0140 C   0  0  0  0  0  0  0  0  0  0  0  0
   -5.0270    1.7170    1.4240 C   0  0  0  0  0  0  0  0  0  0  0  0
   -4.6310    0.6460    2.1840 O   0  0  0  0  0  0  0  0  0  0  0  0
   -4.2290    0.8300   -0.8900 C   0  0  0  0  0  0  0  0  0  0  0  0
   -3.6130   -0.3890   -0.4800 N   0  0  0  0  0  0  0  0  0  0  0  0
   -2.4630   -0.3170    0.3450 C   0  0  0  0  0  0  0  0  0  0  0  0
   -1.9820    0.8290    0.6940 O   0  0  0  0  0  0  0  0  0  0  0  0
   -1.7740   -1.4200    0.8380 N   0  0  0  0  0  0  0  0  0  0  0  0
   -0.6250   -1.3130    1.6630 N   0  0  0  0  0  0  0  0  0  0  0  0
    0.5220   -0.5680    1.2770 C   0  0  0  0  0  0  0  0  0  0  0  0
    0.4590   -0.0050    0.1590 O   0  0  0  0  0  0  0  0  0  0  0  0
    1.7230   -0.4340    2.0880 C   0  0  0  0  0  0  0  0  0  0  0  0
    2.8610    0.3160    1.5090 C   0  0  0  0  0  0  0  0  0  0  0  0
    3.3550   -0.3300    0.2730 C   0  0  0  0  0  0  0  0  0  0  0  0
    4.5430    0.4180   -0.3510 C   0  0  1  0  0  0  0  0  0  0  0  0
    5.6640    0.4460    0.6450 C   0  0  0  0  0  0  0  0  0  0  0  0
    6.8820    0.9220   -0.0010 N   0  0  0  0  0  0  0  0  0  0  0  0
    6.6210    2.2680   -0.4380 C   0  0  0  0  0  0  0  0  0  0  0  0
    7.1690    0.0030   -1.0590 C   0  0  1  0  0  0  0  0  0  0  0  0
    7.4580   -1.3530   -0.4760 C   0  0  0  0  0  0  0  0  0  0  0  0
    6.0510   -0.0620   -2.0590 C   0  0  0  0  0  0  0  0  0  0  0  0
    4.8040   -0.1840   -1.5250 O   0  0  0  0  0  0  0  0  0  0  0  0
   -4.1130   -1.6520   -0.9080 C   0  0  2  0  0  0  0  0  0  0  0  0
   -3.9160   -1.6760   -2.4400 C   0  0  0  0  0  0  0  0  0  0  0  0
   -5.5940   -1.8670   -0.6810 C   0  0  0  0  0  0  0  0  0  0  0  0
   -5.9770   -3.1480   -1.1080 O   0  0  0  0  0  0  0  0  0  0  0  0
  1  2  1  0
  2  3  2  3
  3  4  1  0
  3  6  1  0
  4  5  1  0
  6  7  1  0
  7  8  1  0
  7 25  1  0
  8  9  2  0
  8 10  1  0
 10 11  1  0
 11 12  1  0
 12 13  2  0
 12 14  1  0
 14 15  1  0
 15 16  1  0
 17 16  1  1
 17 18  1  0
 17 24  1  0
 18 19  1  0
 19 20  1  0
 19 21  1  0
 21 22  1  1
 21 23  1  0
 23 24  1  0
 25 26  1  6
 25 27  1  0
 27 28  1  0
M  END
