
     RDKit          3D

 28 29  0  0  0  0  0  0  0  0999 V2000
   -2.0360   -4.2290   -2.6410 C   0  0  0  0  0  0  0  0  0  0  0  0
   -2.1570   -3.0580   -1.6980 C   0  0  0  0  0  0  0  0  0  0  0  0
   -1.2610   -2.5910   -0.8800 C   0  0  0  0  0  0  0  0  0  0  0  0
   -1.7660   -1.4520   -0.1420 N   0  0  0  0  0  0  0  0  0  0  0  0
   -0.9820   -0.7310    0.8480 C   0  0  0  0  0  0  0  0  0  0  0  0
    0.1100    0.0620    0.2180 C   0  0  0  0  0  0  0  0  0  0  0  0
    0.0980    0.2460   -1.0250 O   0  0  0  0  0  0  0  0  0  0  0  0
    1.1540    0.6170    0.9370 O   0  0  0  0  0  0  0  0  0  0  0  0
    2.2000    1.3850    0.3690 C   0  0  1  0  0  0  0  0  0  0  0  0
    2.2150    2.6900    1.1220 C   0  0  0  0  0  0  0  0  0  0  0  0
    2.4440    2.3730    2.5850 C   0  0  0  0  0  0  0  0  0  0  0  0
    3.6350    1.7060    2.8140 O   0  0  0  0  0  0  0  0  0  0  0  0
    3.5010    0.6740    0.5570 C   0  0  0  0  0  0  0  0  0  0  0  0
    3.5320   -0.3660    1.1690 O   0  0  0  0  0  0  0  0  0  0  0  0
    4.7110    1.2610   -0.0130 C   0  0  0  0  0  0  0  0  0  0  0  0
    5.8880    0.3960   -0.2370 C   0  0  0  0  0  0  0  0  0  0  0  0
    5.8180   -0.6730   -1.2470 C   0  0  0  0  0  0  0  0  0  0  0  0
    4.8320   -1.6780   -1.0770 N   0  0  0  0  0  0  0  0  0  0  0  0
   -3.0880   -1.2110   -0.5580 C   0  0  0  0  0  0  0  0  0  0  0  0
   -3.9350   -0.2780   -0.2120 C   0  0  0  0  0  0  0  0  0  0  0  0
   -3.7270    0.8320    0.7490 C   0  0  0  0  0  0  0  0  0  0  0  0
   -4.8840    1.7610    0.4590 C   0  0  0  0  0  0  0  0  0  0  0  0
   -4.9620    3.1240    1.0370 C   0  0  0  0  0  0  0  0  0  0  0  0
   -5.7190    1.2330   -0.3090 N   0  0  0  0  0  0  0  0  0  0  0  0
   -5.3360   -0.0940   -0.6900 C   0  0  2  0  0  0  0  0  0  0  0  0
   -6.2660   -1.0040   -0.0880 N   0  0  0  0  0  0  0  0  0  0  0  0
   -3.3600   -2.2540   -1.5740 C   0  0  0  0  0  0  0  0  0  0  0  0
   -4.4510   -2.3650   -2.1780 O   0  0  0  0  0  0  0  0  0  0  0  0
  1  2  1  0
  2  3  2  0
  2 27  1  0
  3  4  1  0
  4  5  1  0
  4 19  1  0
  5  6  1  0
  6  7  2  0
  6  8  1  0
  8  9  1  0
  9 10  1  1
  9 13  1  0
 10 11  1  0
 11 12  1  0
 13 14  2  0
 13 15  1  0
 15 16  1  0
 16 17  1  0
 17 18  1  0
 19 20  2  3
 19 27  1  0
 20 21  1  0
 20 25  1  0
 21 22  1  0
 22 23  1  0
 22 24  2  0
 24 25  1  0
 25 26  1  1
 27 28  2  0
M  CHG  1  18   1
M  END
