
     RDKit          3D

 29 31  0  0  0  0  0  0  0  0999 V2000
   -6.5470   -2.9670   -0.2550 C   0  0  0  0  0  0  0  0  0  0  0  0
   -6.2190   -1.6880    0.4650 C   0  0  0  0  0  0  0  0  0  0  0  0
   -5.4570   -0.7380   -0.4670 C   0  0  0  0  0  0  0  0  0  0  0  0
   -5.1520    0.4850    0.2510 N   0  0  0  0  0  0  0  0  0  0  0  0
   -5.9210    1.5910    0.3270 C   0  0  0  0  0  0  0  0  0  0  0  0
   -5.2510    2.5060    1.1090 C   0  0  0  0  0  0  0  0  0  0  0  0
   -4.0850    1.9490    1.4990 N   0  0  0  0  0  0  0  0  0  0  0  0
   -4.0200    0.7020    0.9720 C   0  0  0  0  0  0  0  0  0  0  0  0
   -2.9260   -0.2890    1.1280 C   0  0  0  0  0  0  0  0  0  0  0  0
   -2.0390   -0.1960    0.0220 N   0  0  0  0  0  0  0  0  0  0  0  0
   -0.9290   -1.0560   -0.0110 C   0  0  0  0  0  0  0  0  0  0  0  0
    0.4140   -0.4610   -0.2760 C   0  0  0  0  0  0  0  0  0  0  0  0
    0.3910    0.9520   -0.5530 N   0  0  0  0  0  0  0  0  0  0  0  0
    1.4380    1.5620   -1.2770 C   0  0  0  0  0  0  0  0  0  0  0  0
    1.3800    2.7960   -1.4970 O   0  0  0  0  0  0  0  0  0  0  0  0
    2.5750    0.7390   -1.7590 C   0  0  1  0  0  0  0  0  0  0  0  0
    3.5190    1.6450   -2.5500 C   0  0  0  0  0  0  0  0  0  0  0  0
    4.7930    1.9370   -1.8080 C   0  0  0  0  0  0  0  0  0  0  0  0
    4.4790    2.4110   -0.3990 C   0  0  0  0  0  0  0  0  0  0  0  0
    3.7060    1.3400    0.3800 C   0  0  1  0  0  0  0  0  0  0  0  0
    4.4720    0.9610    1.5900 C   0  0  0  0  0  0  0  0  0  0  0  0
    2.4780    1.8750    0.8230 O   0  0  0  0  0  0  0  0  0  0  0  0
    3.4000    0.2700   -0.5730 C   0  0  0  0  0  0  0  0  0  0  0  0
    3.7460   -0.9840   -0.5150 C   0  0  0  0  0  0  0  0  0  0  0  0
    4.5080   -1.6170    0.4970 N   0  0  0  0  0  0  0  0  0  0  0  0
    3.9840   -2.7020    1.3090 C   0  0  0  0  0  0  0  0  0  0  0  0
    3.7660   -3.9550    0.5100 C   0  0  0  0  0  0  0  0  0  0  0  0
   -0.7160    1.7710   -0.0900 C   0  0  0  0  0  0  0  0  0  0  0  0
   -1.9550    1.0510   -0.6430 C   0  0  0  0  0  0  0  0  0  0  0  0
  1  2  1  0
  2  3  1  0
  3  4  1  0
  4  5  1  0
  4  8  1  0
  5  6  2  0
  6  7  1  0
  7  8  2  0
  8  9  1  0
  9 10  1  0
 10 11  1  0
 10 29  1  0
 11 12  1  0
 12 13  1  0
 13 14  1  0
 13 28  1  0
 14 15  2  0
 16 14  1  1
 16 17  1  0
 16 23  1  0
 17 18  1  0
 18 19  1  0
 19 20  1  0
 20 21  1  1
 20 22  1  0
 20 23  1  0
 23 24  2  3
 24 25  1  0
 25 26  1  0
 26 27  1  0
 28 29  1  0
M  CHG  1   7   1
M  END
