
     RDKit          3D

 31 33  0  0  0  0  0  0  0  0999 V2000
    8.3080    2.8160   -1.7050 C   0  0  0  0  0  0  0  0  0  0  0  0
    6.9130    2.8780   -1.6260 O   0  0  0  0  0  0  0  0  0  0  0  0
    6.2010    1.8490   -1.0450 C   0  0  0  0  0  0  0  0  0  0  0  0
    6.8940    0.7640   -0.5340 C   0  0  0  0  0  0  0  0  0  0  0  0
    6.1910   -0.2730    0.0460 C   0  0  0  0  0  0  0  0  0  0  0  0
    4.8020   -0.1950    0.0960 C   0  0  0  0  0  0  0  0  0  0  0  0
    4.1320    0.8840   -0.4130 C   0  0  0  0  0  0  0  0  0  0  0  0
    4.8240    1.9190   -0.9880 C   0  0  0  0  0  0  0  0  0  0  0  0
    2.7790    0.6120   -0.2120 C   0  0  0  0  0  0  0  0  0  0  0  0
    2.6540   -0.6130    0.4030 C   0  0  0  0  0  0  0  0  0  0  0  0
    1.4390   -1.3230    0.7160 C   0  0  0  0  0  0  0  0  0  0  0  0
    1.4870   -2.4540    1.3030 O   0  0  0  0  0  0  0  0  0  0  0  0
    0.1390   -0.8720    0.4110 N   0  0  0  0  0  0  0  0  0  0  0  0
   -1.2670   -1.8050    0.7730 S   0  0  2  0  0  0  0  0  0  0  0  0
   -1.1600   -2.1900    2.2290 O   0  0  0  0  0  0  0  0  0  0  0  0
   -1.3190   -3.0600   -0.0290 O   0  0  0  0  0  0  0  0  0  0  0  0
   -2.7550   -0.9450    0.5160 C   0  0  0  0  0  0  0  0  0  0  0  0
   -3.1000   -0.2630   -0.6240 C   0  0  0  0  0  0  0  0  0  0  0  0
   -4.3480    0.3270   -0.7680 C   0  0  0  0  0  0  0  0  0  0  0  0
   -5.3210    0.2600    0.2360 C   0  0  0  0  0  0  0  0  0  0  0  0
   -6.6500    0.9070    0.0370 C   0  0  1  0  0  0  0  0  0  0  0  0
   -7.5240    0.6460    1.2380 C   0  0  0  0  0  0  0  0  0  0  0  0
   -6.5030    2.4140   -0.0990 C   0  0  0  0  0  0  0  0  0  0  0  0
   -7.3610    0.3990   -1.1760 C   0  0  0  0  0  0  0  0  0  0  0  0
   -4.9760   -0.4220    1.3760 C   0  0  0  0  0  0  0  0  0  0  0  0
   -3.7400   -1.0050    1.5200 C   0  0  0  0  0  0  0  0  0  0  0  0
    3.8990   -1.0740    0.5790 N   0  0  0  0  0  0  0  0  0  0  0  0
    4.2530   -2.3160    1.2250 C   0  0  0  0  0  0  0  0  0  0  0  0
    4.2160   -3.3900    0.1960 C   0  0  0  0  0  0  0  0  0  0  0  0
    4.5310   -4.5480    0.5300 O   0  0  0  0  0  0  0  0  0  0  0  0
    3.8410   -3.1320   -1.1120 O   0  0  0  0  0  0  0  0  0  0  0  0
  1  2  1  0
  2  3  1  0
  3  4  2  0
  3  8  1  0
  4  5  1  0
  5  6  2  0
  6  7  1  0
  6 27  1  0
  7  8  2  0
  7  9  1  0
  9 10  2  0
 10 11  1  0
 10 27  1  0
 11 12  2  0
 11 13  1  0
 14 13  1  6
 14 15  2  0
 14 16  2  0
 14 17  1  0
 17 18  2  0
 17 26  1  0
 18 19  1  0
 19 20  2  0
 20 21  1  0
 20 25  1  0
 21 22  1  1
 21 23  1  0
 21 24  1  0
 25 26  2  0
 27 28  1  0
 28 29  1  0
 29 30  2  0
 29 31  1  0
M  END
