
     RDKit          3D

 31 32  0  0  0  0  0  0  0  0999 V2000
   -7.0300    2.6440    0.3880 C   0  0  0  0  0  0  0  0  0  0  0  0
   -5.7640    2.5350   -0.2920 N   0  0  0  0  0  0  0  0  0  0  0  0
   -4.7500    1.8840    0.5330 C   0  0  0  0  0  0  0  0  0  0  0  0
   -3.6650    1.4290   -0.4290 C   0  0  0  0  0  0  0  0  0  0  0  0
   -2.5830    0.7570    0.2500 N   0  0  0  0  0  0  0  0  0  0  0  0
   -1.4690    1.5120    0.7370 C   0  0  0  0  0  0  0  0  0  0  0  0
   -1.7850    2.5820    1.3930 O   0  0  0  0  0  0  0  0  0  0  0  0
   -0.0580    1.1930    0.5650 C   0  0  0  0  0  0  0  0  0  0  0  0
    0.5640    0.7680   -0.5740 C   0  0  0  0  0  0  0  0  0  0  0  0
    1.9030    0.5090   -0.5690 N   0  0  0  0  0  0  0  0  0  0  0  0
    2.6730    0.6500    0.5140 C   0  0  0  0  0  0  0  0  0  0  0  0
    4.1370    0.3460    0.4370 C   0  0  1  0  0  0  0  0  0  0  0  0
    4.9510    1.6090    0.6680 C   0  0  0  0  0  0  0  0  0  0  0  0
    4.7120    2.1680    1.8970 O   0  0  0  0  0  0  0  0  0  0  0  0
    4.4740   -0.7360    1.4250 C   0  0  0  0  0  0  0  0  0  0  0  0
    5.9180   -1.1030    1.4220 C   0  0  0  0  0  0  0  0  0  0  0  0
    6.4280   -1.6430    0.1420 C   0  0  0  0  0  0  0  0  0  0  0  0
    7.8270   -1.8630   -0.0810 N   0  0  0  0  0  0  0  0  0  0  0  0
    5.6370   -1.9070   -0.7380 O   0  0  0  0  0  0  0  0  0  0  0  0
    2.0810    1.0670    1.6400 N   0  0  0  0  0  0  0  0  0  0  0  0
    0.7610    1.3360    1.6920 C   0  0  0  0  0  0  0  0  0  0  0  0
    0.2590    1.7300    2.7870 O   0  0  0  0  0  0  0  0  0  0  0  0
   -0.0660    0.5620   -1.9030 C   0  0  0  0  0  0  0  0  0  0  0  0
    0.4960   -0.6680   -2.5560 C   0  0  0  0  0  0  0  0  0  0  0  0
    0.0000   -1.9630   -2.0140 C   0  0  0  0  0  0  0  0  0  0  0  0
   -1.3150   -2.3960   -2.6680 C   0  0  0  0  0  0  0  0  0  0  0  0
   -2.1580   -3.1950   -1.7570 C   0  0  0  0  0  0  0  0  0  0  0  0
   -3.0660   -2.7360   -0.9170 C   0  0  0  0  0  0  0  0  0  0  0  0
   -3.3500   -1.2650   -0.7960 C   0  0  0  0  0  0  0  0  0  0  0  0
   -2.6940   -0.6840    0.4290 C   0  0  2  0  0  0  0  0  0  0  0  0
   -3.4920   -1.0090    1.6790 C   0  0  0  0  0  0  0  0  0  0  0  0
  1  2  1  0
  2  3  1  0
  3  4  1  0
  4  5  1  0
  5  6  1  0
  5 30  1  0
  6  7  2  0
  6  8  1  0
  8  9  2  0
  8 21  1  0
  9 10  1  0
  9 23  1  0
 10 11  2  0
 11 12  1  0
 11 20  1  0
 12 13  1  1
 12 15  1  0
 13 14  1  0
 15 16  1  0
 16 17  1  0
 17 18  1  0
 17 19  2  0
 20 21  1  0
 21 22  2  0
 23 24  1  0
 24 25  1  0
 25 26  1  0
 26 27  1  0
 27 28  2  0
 28 29  1  0
 29 30  1  0
 30 31  1  1
M  CHG  2   2   1  18   1
M  END
