
     RDKit          3D

  9  8  0  0  0  0  0  0  0  0999 V2000
    2.7130    1.9370    0.2560 O   0  0  0  0  0  0  0  0  0  0  0  0
    1.7380    1.1230   -0.0110 O   0  0  0  0  0  0  0  0  0  0  0  0
    2.0200   -0.2130    0.2230 C   0  0  0  0  0  0  0  0  0  0  0  0
    0.7940   -0.9640   -0.2930 C   0  0  0  0  0  0  0  0  0  0  0  0
   -0.2950   -0.2250    0.1370 O   0  0  0  0  0  0  0  0  0  0  0  0
   -1.1930   -0.9100    0.7770 O   0  0  0  0  0  0  0  0  0  0  0  0
   -2.4210   -0.6740    0.1540 C   0  0  0  0  0  0  0  0  0  0  0  0
   -2.9350    0.5800    0.5210 O   0  0  0  0  0  0  0  0  0  0  0  0
   -2.2630    1.5440   -0.0900 O   0  0  0  0  0  0  0  0  0  0  0  0
  1  2  1  0
  2  3  1  0
  3  4  1  0
  4  5  1  0
  5  6  1  0
  6  7  1  0
  7  8  1  0
  8  9  1  0
M  END
