
     RDKit          3D

 15 14  0  0  0  0  0  0  0  0999 V2000
   -4.2890   -0.3020   -0.3650 C   0  0  0  0  0  0  0  0  0  0  0  0
   -3.5990    0.6020    0.5720 C   0  0  0  0  0  0  0  0  0  0  0  0
   -2.3100    0.6030    0.7750 C   0  0  0  0  0  0  0  0  0  0  0  0
   -1.8860    1.5840    1.7370 O   0  0  0  0  0  0  0  0  0  0  0  0
   -2.2130    2.8660    1.5470 O   0  0  0  0  0  0  0  0  0  0  0  0
   -1.2700   -0.2390    0.1680 C   0  0  2  0  0  0  0  0  0  0  0  0
   -0.5470    0.6300   -0.8500 C   0  0  0  0  0  0  0  0  0  0  0  0
   -1.8740   -1.7950   -0.5150 P   0  0  0  0  0  0  0  0  0  0  0  0
   -0.3700   -0.5420    1.2290 O   0  0  0  0  0  0  0  0  0  0  0  0
    0.6100   -1.2920    0.8170 O   0  0  0  0  0  0  0  0  0  0  0  0
    1.5100   -0.5820    0.2140 O   0  0  0  0  0  0  0  0  0  0  0  0
    2.2730   -1.2850   -0.5920 O   0  0  0  0  0  0  0  0  0  0  0  0
    3.7440   -0.4780   -0.9830 P   0  0  0  0  0  0  0  0  0  0  0  0
    5.1620   -1.4680   -0.3070 C   0  0  0  0  0  0  0  0  0  0  0  0
    3.8150    1.2290   -0.2500 C   0  0  0  0  0  0  0  0  0  0  0  0
  1  2  1  0
  2  3  2  3
  3  4  1  0
  3  6  1  0
  4  5  1  0
  6  7  1  6
  6  8  1  0
  6  9  1  0
  9 10  1  0
 10 11  1  0
 11 12  1  0
 12 13  1  0
 13 14  1  0
 13 15  1  0
M  END
