
     RDKit          3D

 42 46  0  0  0  0  0  0  0  0999 V2000
   -6.6850   -0.2610   -0.0790 C   0  0  0  0  0  0  0  0  0  0  0  0
   -5.6220   -0.0060   -1.0330 N   0  0  0  0  0  0  0  0  0  0  0  0
   -5.1130   -1.2850   -1.4700 C   0  0  2  0  0  0  0  0  0  0  0  0
   -4.5370   -1.9720   -0.2200 C   0  0  0  0  0  0  0  0  0  0  0  0
   -3.2430   -1.5610   -0.1370 O   0  0  0  0  0  0  0  0  0  0  0  0
   -2.7450   -1.3260    1.1420 C   0  0  0  0  0  0  0  0  0  0  0  0
   -1.2740   -1.2430    0.9510 C   0  0  0  0  0  0  0  0  0  0  0  0
   -0.7540   -2.4260    1.1260 O   0  0  0  0  0  0  0  0  0  0  0  0
   -0.4850   -0.1380    0.6350 N   0  0  0  0  0  0  0  0  0  0  0  0
    0.9520   -0.5350    0.6140 C   0  0  0  0  0  0  0  0  0  0  0  0
    1.5680   -0.8090   -0.5790 C   0  0  0  0  0  0  0  0  0  0  0  0
    2.9160   -1.1650   -0.5950 C   0  0  0  0  0  0  0  0  0  0  0  0
    3.5030   -1.4330   -1.8080 O   0  0  0  0  0  0  0  0  0  0  0  0
    4.8210   -1.6540   -2.0480 C   0  0  0  0  0  0  0  0  0  0  0  0
    5.1980   -2.8850   -2.5220 C   0  0  0  0  0  0  0  0  0  0  0  0
    6.4850   -3.1660   -2.7780 N   0  0  0  0  0  0  0  0  0  0  0  0
    7.3820   -2.2010   -2.5510 C   0  0  0  0  0  0  0  0  0  0  0  0
    7.0550   -0.9860   -2.0890 N   0  0  0  0  0  0  0  0  0  0  0  0
    5.7700   -0.6920   -1.8300 C   0  0  0  0  0  0  0  0  0  0  0  0
    5.4460    0.6580   -1.3830 C   0  0  0  0  0  0  0  0  0  0  0  0
    4.3230    1.2610   -1.1620 O   0  0  0  0  0  0  0  0  0  0  0  0
    4.4720    2.4900   -0.7640 C   0  0  0  0  0  0  0  0  0  0  0  0
    5.7890    2.7410   -0.7080 N   0  0  0  0  0  0  0  0  0  0  0  0
    6.4100    1.6160   -1.0890 C   0  0  0  0  0  0  0  0  0  0  0  0
    7.7530    1.4770   -1.1620 F   0  0  0  0  0  0  0  0  0  0  0  0
    3.5940   -1.2310    0.6080 C   0  0  0  0  0  0  0  0  0  0  0  0
    2.9730   -0.9550    1.8050 C   0  0  0  0  0  0  0  0  0  0  0  0
    1.6320   -0.6020    1.8130 C   0  0  0  0  0  0  0  0  0  0  0  0
    0.9550   -0.2990    3.0840 C   0  0  0  0  0  0  0  0  0  0  0  0
    1.9250   -0.4420    4.1720 N   0  0  0  0  0  0  0  0  0  0  0  0
   -0.7040    1.2080    0.3570 C   0  0  0  0  0  0  0  0  0  0  0  0
    0.2950    1.8830   -0.1850 O   0  0  0  0  0  0  0  0  0  0  0  0
   -1.8450    2.1220    0.5350 C   0  0  0  0  0  0  0  0  0  0  0  0
   -1.6200    3.2940    1.3040 C   0  0  0  0  0  0  0  0  0  0  0  0
   -2.5460    4.2440    1.5930 C   0  0  0  0  0  0  0  0  0  0  0  0
   -3.7890    4.0650    1.1110 N   0  0  0  0  0  0  0  0  0  0  0  0
   -4.0520    2.9750    0.3780 C   0  0  0  0  0  0  0  0  0  0  0  0
   -3.1090    1.9840    0.0680 C   0  0  0  0  0  0  0  0  0  0  0  0
   -3.6400    0.9700   -0.7110 O   0  0  0  0  0  0  0  0  0  0  0  0
   -2.9110    0.0410   -1.9600 P   0  0  0  0  0  0  0  0  0  0  0  0
   -2.5290    1.0120   -3.3410 O   0  0  0  0  0  0  0  0  0  0  0  0
   -4.1120   -1.1490   -2.4590 O   0  0  0  0  0  0  0  0  0  0  0  0
  1  2  1  0
  3  2  1  1
  3  4  1  0
  3 42  1  0
  4  5  1  0
  5  6  1  0
  6  7  1  0
  7  8  2  0
  7  9  1  0
  9 10  1  0
  9 31  1  0
 10 11  2  0
 10 28  1  0
 11 12  1  0
 12 13  1  0
 12 26  2  0
 13 14  1  0
 14 15  2  0
 14 19  1  0
 15 16  1  0
 16 17  2  0
 17 18  1  0
 18 19  2  0
 19 20  1  0
 20 21  1  0
 20 24  2  0
 21 22  1  0
 22 23  2  0
 23 24  1  0
 24 25  1  0
 26 27  1  0
 27 28  2  0
 28 29  1  0
 29 30  1  0
 31 32  2  0
 31 33  1  0
 33 34  2  0
 33 38  1  0
 34 35  1  0
 35 36  2  0
 36 37  1  0
 37 38  2  0
 38 39  1  0
 39 40  1  0
 40 41  1  0
 40 42  1  0
M  END
