
     RDKit          3D

 42 45  0  0  0  0  0  0  0  0999 V2000
    5.1750   -1.4620   -0.3270 C   0  0  0  0  0  0  0  0  0  0  0  0
    4.3590   -1.7130    0.8440 N   0  0  0  0  0  0  0  0  0  0  0  0
    4.9930   -2.0260    2.0880 C   0  0  0  0  0  0  0  0  0  0  0  0
    5.3430   -0.5090    3.0670 P   0  0  0  0  0  0  0  0  0  0  0  0
    4.1110   -0.2470    4.2800 O   0  0  0  0  0  0  0  0  0  0  0  0
    6.8920   -0.6160    3.8410 O   0  0  0  0  0  0  0  0  0  0  0  0
    2.9590   -1.6480    0.7480 C   0  0  0  0  0  0  0  0  0  0  0  0
    2.2470   -1.8620    1.7510 O   0  0  0  0  0  0  0  0  0  0  0  0
    2.2660   -1.3240   -0.5400 C   0  0  2  0  0  0  0  0  0  0  0  0
    2.5650    0.0430   -1.0160 C   0  0  0  0  0  0  0  0  0  0  0  0
    1.4070    0.8270   -0.6940 N   0  0  0  0  0  0  0  0  0  0  0  0
    1.1970    2.1640   -1.1320 C   0  0  0  0  0  0  0  0  0  0  0  0
    0.1400    2.7550   -0.7850 O   0  0  0  0  0  0  0  0  0  0  0  0
    2.1530    2.8240   -1.9440 N   0  0  0  0  0  0  0  0  0  0  0  0
    2.2210    4.1640   -2.5390 C   0  0  0  0  0  0  0  0  0  0  0  0
    3.6840    4.0110   -2.7960 C   0  0  2  0  0  0  0  0  0  0  0  0
    4.0490    4.2930   -4.1060 F   0  0  0  0  0  0  0  0  0  0  0  0
    3.4330    2.5400   -2.5450 C   0  0  0  0  0  0  0  0  0  0  0  0
    0.5290    0.0010    0.1370 C   0  0  0  0  0  0  0  0  0  0  0  0
   -0.2760    0.4370    1.1300 C   0  0  0  0  0  0  0  0  0  0  0  0
   -1.1780   -0.2490    2.0070 C   0  0  0  0  0  0  0  0  0  0  0  0
   -2.4400    0.0440    2.4470 C   0  0  0  0  0  0  0  0  0  0  0  0
   -3.0140   -1.0410    3.4050 C   0  0  0  0  0  0  0  0  0  0  0  0
   -4.1410   -1.6390    2.9830 O   0  0  0  0  0  0  0  0  0  0  0  0
   -3.2680    1.2080    2.2720 C   0  0  0  0  0  0  0  0  0  0  0  0
   -4.1910    1.6670    1.4620 C   0  0  0  0  0  0  0  0  0  0  0  0
   -4.6850    3.0370    1.8440 N   0  0  0  0  0  0  0  0  0  0  0  0
   -5.5870    3.1120    2.6810 O   0  0  0  0  0  0  0  0  0  0  0  0
   -4.8810    1.1180    0.3310 C   0  0  0  0  0  0  0  0  0  0  0  0
   -6.1600    0.7950    0.4950 O   0  0  0  0  0  0  0  0  0  0  0  0
   -4.4750    0.8120   -1.0520 C   0  0  0  0  0  0  0  0  0  0  0  0
   -5.6230    0.1740   -1.8540 C   0  0  0  0  0  0  0  0  0  0  0  0
   -5.4740   -1.3570   -1.8280 C   0  0  0  0  0  0  0  0  0  0  0  0
   -4.0270   -1.6900   -1.8420 C   0  0  0  0  0  0  0  0  0  0  0  0
   -3.0890   -1.7590   -2.7900 C   0  0  0  0  0  0  0  0  0  0  0  0
   -1.7230   -2.0160   -2.4890 C   0  0  0  0  0  0  0  0  0  0  0  0
   -1.3660   -2.1960   -1.2130 C   0  0  0  0  0  0  0  0  0  0  0  0
   -2.4080   -2.1080   -0.3160 N   0  0  0  0  0  0  0  0  0  0  0  0
   -3.6310   -1.8830   -0.5350 N   0  0  0  0  0  0  0  0  0  0  0  0
   -0.1120   -2.4190   -0.4890 C   0  0  0  0  0  0  0  0  0  0  0  0
    0.3570   -3.5070    0.0610 O   0  0  0  0  0  0  0  0  0  0  0  0
    0.7930   -1.3300   -0.3140 N   0  0  0  0  0  0  0  0  0  0  0  0
  1  2  1  0
  2  3  1  0
  2  7  1  0
  3  4  1  0
  4  5  1  0
  4  6  1  0
  7  8  2  0
  9  7  1  1
  9 10  1  0
  9 42  1  0
 10 11  1  0
 11 12  1  0
 11 19  1  0
 12 13  2  0
 12 14  1  0
 14 15  1  0
 14 18  1  0
 15 16  1  0
 16 17  1  6
 16 18  1  0
 19 20  2  0
 19 42  1  0
 20 21  1  0
 21 22  2  0
 22 23  1  0
 22 25  1  0
 23 24  1  0
 25 26  2  0
 26 27  1  0
 26 29  1  0
 27 28  2  0
 29 30  2  0
 29 31  1  0
 31 32  1  0
 32 33  1  0
 33 34  1  0
 34 35  2  0
 34 39  1  0
 35 36  1  0
 36 37  2  0
 37 38  1  0
 37 40  1  0
 38 39  2  0
 40 41  2  0
 40 42  1  0
M  END
