
     RDKit          3D

 43 47  0  0  0  0  0  0  0  0999 V2000
    1.5680   -2.8830    3.3590 C   0  0  0  0  0  0  0  0  0  0  0  0
    1.1770   -2.0540    2.2830 O   0  0  0  0  0  0  0  0  0  0  0  0
    2.1350   -1.3330    1.5940 C   0  0  0  0  0  0  0  0  0  0  0  0
    3.4640   -1.4210    1.9560 C   0  0  0  0  0  0  0  0  0  0  0  0
    4.4030   -0.7290    1.3000 N   0  0  0  0  0  0  0  0  0  0  0  0
    4.1140    0.0800    0.2690 C   0  0  0  0  0  0  0  0  0  0  0  0
    5.1660    0.7830   -0.3780 N   0  0  0  0  0  0  0  0  0  0  0  0
    6.5280    0.6820    0.0040 C   0  0  0  0  0  0  0  0  0  0  0  0
    6.8510   -0.0610    0.9610 O   0  0  0  0  0  0  0  0  0  0  0  0
    7.5300    1.3810   -0.6480 O   0  0  0  0  0  0  0  0  0  0  0  0
    9.2260    1.2810   -0.2040 P   0  0  0  0  0  0  0  0  0  0  0  0
    9.8170    2.8480    0.2400 O   0  0  0  0  0  0  0  0  0  0  0  0
   10.1740    0.6060   -1.4940 O   0  0  0  0  0  0  0  0  0  0  0  0
    2.8260    0.2100   -0.1350 C   0  0  0  0  0  0  0  0  0  0  0  0
    1.8350   -0.4970    0.5280 C   0  0  0  0  0  0  0  0  0  0  0  0
    0.4370   -0.3950    0.1220 C   0  0  0  0  0  0  0  0  0  0  0  0
   -0.2250    0.6950    0.2540 N   0  0  0  0  0  0  0  0  0  0  0  0
   -1.5870    0.8420   -0.1250 N   0  0  0  0  0  0  0  0  0  0  0  0
   -2.2240    2.0760    0.1140 C   0  0  0  0  0  0  0  0  0  0  0  0
   -1.9180    3.2710   -0.4830 N   0  0  0  0  0  0  0  0  0  0  0  0
   -2.7460    4.2360    0.0050 C   0  0  0  0  0  0  0  0  0  0  0  0
   -2.8880    5.5860   -0.2290 C   0  0  0  0  0  0  0  0  0  0  0  0
   -3.8410    6.3100    0.4370 C   0  0  0  0  0  0  0  0  0  0  0  0
   -4.6580    5.6710    1.3480 C   0  0  0  0  0  0  0  0  0  0  0  0
   -4.5050    4.3070    1.5760 C   0  0  0  0  0  0  0  0  0  0  0  0
   -3.5530    3.5650    0.9140 C   0  0  0  0  0  0  0  0  0  0  0  0
   -3.1960    2.3090    0.9300 O   0  0  0  0  0  0  0  0  0  0  0  0
   -2.2720   -0.2690   -0.6870 C   0  0  0  0  0  0  0  0  0  0  0  0
   -3.6860   -0.2990   -0.7890 N   0  0  0  0  0  0  0  0  0  0  0  0
   -4.4680   -1.3760   -0.1370 C   0  0  0  0  0  0  0  0  0  0  0  0
   -4.7350   -0.9060    1.3340 C   0  0  0  0  0  0  0  0  0  0  0  0
   -5.4540    0.2750    1.2740 O   0  0  0  0  0  0  0  0  0  0  0  0
   -4.4910    0.7360   -1.3150 C   0  0  0  0  0  0  0  0  0  0  0  0
   -5.7620    0.5790   -1.2810 O   0  0  0  0  0  0  0  0  0  0  0  0
   -4.0680    1.8830   -1.8630 F   0  0  0  0  0  0  0  0  0  0  0  0
   -1.5710   -1.4180   -0.8430 C   0  0  0  0  0  0  0  0  0  0  0  0
   -2.1730   -2.6170   -1.4150 C   0  0  0  0  0  0  0  0  0  0  0  0
   -1.5420   -3.7450   -1.5520 C   0  0  0  0  0  0  0  0  0  0  0  0
   -0.1710   -3.9380   -1.1430 C   0  0  1  0  0  0  0  0  0  0  0  0
    0.6370   -4.7690   -2.1270 C   0  0  0  0  0  0  0  0  0  0  0  0
    0.5030   -2.7130   -0.7530 C   0  0  0  0  0  0  0  0  0  0  0  0
    1.7730   -2.6360   -0.6660 O   0  0  0  0  0  0  0  0  0  0  0  0
   -0.2140   -1.5250   -0.4490 N   0  0  0  0  0  0  0  0  0  0  0  0
  1  2  1  0
  2  3  1  0
  3  4  2  0
  3 15  1  0
  4  5  1  0
  5  6  2  0
  6  7  1  0
  6 14  1  0
  7  8  1  0
  8  9  2  0
  8 10  1  0
 10 11  1  0
 11 12  1  0
 11 13  1  0
 14 15  2  0
 15 16  1  0
 16 17  2  0
 16 43  1  0
 17 18  1  0
 18 19  1  0
 18 28  1  0
 19 20  2  0
 19 27  1  0
 20 21  1  0
 21 22  2  0
 21 26  1  0
 22 23  1  0
 23 24  2  0
 24 25  1  0
 25 26  2  0
 26 27  1  0
 28 29  1  0
 28 36  2  0
 29 30  1  0
 29 33  1  0
 30 31  1  0
 31 32  1  0
 33 34  2  0
 33 35  1  0
 36 37  1  0
 36 43  1  0
 37 38  2  0
 38 39  1  0
 39 40  1  6
 39 41  1  0
 41 42  2  0
 41 43  1  0
M  END
