
     RDKit          3D

 23 24  0  0  0  0  0  0  0  0999 V2000
   -5.4210    2.9320    1.5370 C   0  0  0  0  0  0  0  0  0  0  0  0
   -4.1020    2.5030    1.6600 O   0  0  0  0  0  0  0  0  0  0  0  0
   -3.6000    1.2970    1.2190 C   0  0  0  0  0  0  0  0  0  0  0  0
   -4.3730    0.3450    0.5860 C   0  0  0  0  0  0  0  0  0  0  0  0
   -3.8000   -0.8280    0.1780 C   0  0  0  0  0  0  0  0  0  0  0  0
   -4.5870   -1.7880   -0.4630 O   0  0  0  0  0  0  0  0  0  0  0  0
   -4.0480   -3.0180   -0.9050 C   0  0  0  0  0  0  0  0  0  0  0  0
   -2.4660   -1.1150    0.3710 C   0  0  0  0  0  0  0  0  0  0  0  0
   -1.6930   -0.1560    1.0080 C   0  0  0  0  0  0  0  0  0  0  0  0
    0.0120   -0.4870    1.2780 S   0  0  0  0  0  0  0  0  0  0  0  0
    1.0480    0.0690   -0.0910 C   0  0  0  0  0  0  0  0  0  0  0  0
    2.4250   -0.1280   -0.0160 C   0  0  0  0  0  0  0  0  0  0  0  0
    3.3140    0.2420   -0.9740 C   0  0  0  0  0  0  0  0  0  0  0  0
    4.7140    0.0740   -0.9640 N   0  0  0  0  0  0  0  0  0  0  0  0
    5.4750   -0.5210    0.0550 C   0  0  0  0  0  0  0  0  0  0  0  0
    4.9260   -0.9620    1.0710 O   0  0  0  0  0  0  0  0  0  0  0  0
    6.9140   -0.6420   -0.0410 N   0  0  0  0  0  0  0  0  0  0  0  0
    7.6850   -1.2280    0.9590 N   0  0  0  0  0  0  0  0  0  0  0  0
    2.7570    0.8640   -2.1000 C   0  0  0  0  0  0  0  0  0  0  0  0
    1.4050    1.0830   -2.2240 C   0  0  0  0  0  0  0  0  0  0  0  0
    0.5340    0.6830   -1.2100 C   0  0  0  0  0  0  0  0  0  0  0  0
   -1.1850    0.9420   -1.3280 Cl  0  0  0  0  0  0  0  0  0  0  0  0
   -2.2610    1.0380    1.4260 C   0  0  0  0  0  0  0  0  0  0  0  0
  1  2  1  0
  2  3  1  0
  3  4  2  0
  3 23  1  0
  4  5  1  0
  5  6  1  0
  5  8  2  0
  6  7  1  0
  8  9  1  0
  9 10  1  0
  9 23  2  0
 10 11  1  0
 11 12  2  0
 11 21  1  0
 12 13  1  0
 13 14  1  0
 13 19  2  0
 14 15  1  0
 15 16  2  0
 15 17  1  0
 17 18  1  0
 19 20  1  0
 20 21  2  0
 21 22  1  0
M  END
