
     RDKit          3D

 17 17  0  0  0  0  0  0  0  0999 V2000
    4.1270    1.3260   -1.6520 O   0  0  0  0  0  0  0  0  0  0  0  0
    3.8700    0.1160   -1.4700 C   0  0  0  0  0  0  0  0  0  0  0  0
    4.8960   -0.8030   -1.3700 O   0  0  0  0  0  0  0  0  0  0  0  0
    2.4580   -0.3070   -1.3630 C   0  0  0  0  0  0  0  0  0  0  0  0
    1.5410    0.8890   -1.5090 C   0  0  0  0  0  0  0  0  0  0  0  0
    0.1210    0.5250   -1.4100 C   0  0  0  0  0  0  0  0  0  0  0  0
   -0.4990    0.3130   -2.4990 O   0  0  0  0  0  0  0  0  0  0  0  0
   -0.5930    0.4000   -0.1060 C   0  0  0  0  0  0  0  0  0  0  0  0
    0.1420    0.6400    0.9470 C   0  0  0  0  0  0  0  0  0  0  0  0
   -0.3930    0.5820    2.3040 C   0  0  0  0  0  0  0  0  0  0  0  0
   -1.6700    0.2890    2.4020 C   0  0  0  0  0  0  0  0  0  0  0  0
   -2.6020    0.0270    1.3050 C   0  0  1  0  0  0  0  0  0  0  0  0
   -3.5890    1.0510    1.3030 O   0  0  0  0  0  0  0  0  0  0  0  0
   -1.9570   -0.0540   -0.0180 C   0  0  2  0  0  0  0  0  0  0  0  0
   -2.1560   -1.4270   -0.6130 C   0  0  0  0  0  0  0  0  0  0  0  0
   -2.4890   -2.3770    0.1160 O   0  0  0  0  0  0  0  0  0  0  0  0
   -1.9760   -1.6560   -1.9520 O   0  0  0  0  0  0  0  0  0  0  0  0
  1  2  2  0
  2  3  1  0
  2  4  1  0
  4  5  1  0
  5  6  1  0
  6  7  2  0
  6  8  1  0
  8  9  2  0
  8 14  1  0
  9 10  1  0
 10 11  2  0
 11 12  1  0
 12 13  1  6
 12 14  1  0
 14 15  1  1
 15 16  2  0
 15 17  1  0
M  END
