
     RDKit          3D

 23 24  0  0  0  0  0  0  0  0999 V2000
   -2.7850    1.4260    0.5840 N   0  0  0  0  0  0  0  0  0  0  0  0
   -3.0070    0.0230    0.3290 C   0  0  0  0  0  0  0  0  0  0  0  0
   -4.3980   -0.4120    0.3060 C   0  0  0  0  0  0  0  0  0  0  0  0
   -5.1760    0.3410   -0.7650 C   0  0  0  0  0  0  0  0  0  0  0  0
   -6.5720   -0.1510   -0.7300 C   0  0  0  0  0  0  0  0  0  0  0  0
   -6.9150   -1.0070    0.0590 O   0  0  0  0  0  0  0  0  0  0  0  0
   -1.9660   -0.8070    0.1230 C   0  0  0  0  0  0  0  0  0  0  0  0
   -2.1090   -2.2220   -0.1380 C   0  0  0  0  0  0  0  0  0  0  0  0
   -3.1140   -2.9810   -0.2330 O   0  0  0  0  0  0  0  0  0  0  0  0
   -0.4300   -2.7940   -0.3280 S   0  0  0  0  0  0  0  0  0  0  0  0
    0.3610   -1.1790   -0.0590 C   0  0  0  0  0  0  0  0  0  0  0  0
    1.8210   -1.0820   -0.1110 C   0  0  0  0  0  0  0  0  0  0  0  0
    2.4810   -2.1500   -0.3450 O   0  0  0  0  0  0  0  0  0  0  0  0
    2.5000    0.1170    0.0840 N   0  0  0  0  0  0  0  0  0  0  0  0
    3.9270    0.2980    0.0500 C   0  0  0  0  0  0  0  0  0  0  0  0
    4.8530   -0.6610   -0.1760 C   0  0  0  0  0  0  0  0  0  0  0  0
    6.2300   -0.4060   -0.1940 C   0  0  0  0  0  0  0  0  0  0  0  0
    6.6780    0.8660    0.0260 C   0  0  0  0  0  0  0  0  0  0  0  0
    5.7670    1.8710    0.2600 C   0  0  0  0  0  0  0  0  0  0  0  0
    4.4200    1.5900    0.2710 C   0  0  0  0  0  0  0  0  0  0  0  0
    3.3110    2.9150    0.5760 Cl  0  0  0  0  0  0  0  0  0  0  0  0
   -0.5940   -0.3380    0.1460 C   0  0  0  0  0  0  0  0  0  0  0  0
   -0.2830    1.0620    0.3970 N   0  0  0  0  0  0  0  0  0  0  0  0
  1  2  1  0
  2  3  1  0
  2  7  2  3
  3  4  1  0
  4  5  1  0
  5  6  2  0
  7  8  1  0
  7 22  1  0
  8  9  2  0
  8 10  1  0
 10 11  1  0
 11 12  1  0
 11 22  2  0
 12 13  2  0
 12 14  1  0
 14 15  1  0
 15 16  2  0
 15 20  1  0
 16 17  1  0
 17 18  2  0
 18 19  1  0
 19 20  2  0
 20 21  1  0
 22 23  1  0
M  END
