
     RDKit          3D

 23 24  0  0  0  0  0  0  0  0999 V2000
   -1.7850    0.4010    1.2160 O   0  0  0  0  0  0  0  0  0  0  0  0
   -1.9110   -0.0460    0.0670 C   0  0  0  0  0  0  0  0  0  0  0  0
   -0.6700   -0.3400   -0.7390 C   0  0  0  0  0  0  0  0  0  0  0  0
    0.4700   -0.0160    0.0560 N   0  0  0  0  0  0  0  0  0  0  0  0
    1.8150   -0.1780   -0.4090 C   0  0  0  0  0  0  0  0  0  0  0  0
    2.0030   -0.7520   -1.9020 S   0  0  0  0  0  0  0  0  0  0  0  0
    2.8720    0.1610    0.4280 N   0  0  0  0  0  0  0  0  0  0  0  0
    4.2580    0.1090    0.2430 C   0  0  0  0  0  0  0  0  0  0  0  0
    4.8840   -0.3240   -0.8980 C   0  0  0  0  0  0  0  0  0  0  0  0
    6.2850   -0.3470   -1.0080 C   0  0  0  0  0  0  0  0  0  0  0  0
    6.8200   -0.7960   -2.1870 O   0  0  0  0  0  0  0  0  0  0  0  0
    7.0850    0.0640    0.0230 C   0  0  0  0  0  0  0  0  0  0  0  0
    6.4820    0.5000    1.1720 C   0  0  0  0  0  0  0  0  0  0  0  0
    5.1110    0.5200    1.2720 C   0  0  0  0  0  0  0  0  0  0  0  0
    4.3410    1.0840    2.7570 Cl  0  0  0  0  0  0  0  0  0  0  0  0
   -3.1900   -0.2810   -0.4960 N   0  0  0  0  0  0  0  0  0  0  0  0
   -4.4260   -0.0530    0.1380 C   0  0  0  0  0  0  0  0  0  0  0  0
   -4.5580    0.4370    1.4100 C   0  0  0  0  0  0  0  0  0  0  0  0
   -5.8170    0.6480    2.0000 C   0  0  0  0  0  0  0  0  0  0  0  0
   -6.9680    0.3660    1.3140 C   0  0  0  0  0  0  0  0  0  0  0  0
   -6.8540   -0.1230    0.0450 C   0  0  0  0  0  0  0  0  0  0  0  0
   -5.5910   -0.3340   -0.5440 C   0  0  0  0  0  0  0  0  0  0  0  0
   -5.5430   -0.8280   -1.8240 O   0  0  0  0  0  0  0  0  0  0  0  0
  1  2  2  0
  2  3  1  0
  2 16  1  0
  3  4  1  0
  4  5  1  0
  5  6  2  0
  5  7  1  0
  7  8  1  0
  8  9  2  0
  8 14  1  0
  9 10  1  0
 10 11  1  0
 10 12  2  0
 12 13  1  0
 13 14  2  0
 14 15  1  0
 16 17  1  0
 17 18  2  0
 17 22  1  0
 18 19  1  0
 19 20  2  0
 20 21  1  0
 21 22  2  0
 22 23  1  0
M  END
