
     RDKit          3D

 23 24  0  0  0  0  0  0  0  0999 V2000
   -1.2410    0.0440    0.7640 O   0  0  0  0  0  0  0  0  0  0  0  0
   -0.7490    0.8620   -0.0360 C   0  0  0  0  0  0  0  0  0  0  0  0
   -1.6480    1.9040   -0.6960 C   0  0  0  0  0  0  0  0  0  0  0  0
   -2.9980    1.7400   -0.2430 N   0  0  0  0  0  0  0  0  0  0  0  0
   -3.7040    0.5310   -0.4550 C   0  0  0  0  0  0  0  0  0  0  0  0
   -3.0910   -0.3990   -1.0600 O   0  0  0  0  0  0  0  0  0  0  0  0
   -5.0540    0.3550   -0.0070 N   0  0  0  0  0  0  0  0  0  0  0  0
   -5.7180   -0.9170   -0.2600 C   0  0  0  0  0  0  0  0  0  0  0  0
   -7.1200   -0.8540    0.3040 C   0  0  0  0  0  0  0  0  0  0  0  0
   -7.8710    0.1550   -0.2740 O   0  0  0  0  0  0  0  0  0  0  0  0
    0.6220    0.8240   -0.3240 N   0  0  0  0  0  0  0  0  0  0  0  0
    1.5600   -0.0930    0.2150 C   0  0  0  0  0  0  0  0  0  0  0  0
    1.2470   -1.2230    0.9020 C   0  0  0  0  0  0  0  0  0  0  0  0
    2.2870   -2.0230    1.3920 C   0  0  0  0  0  0  0  0  0  0  0  0
    3.6050   -1.7070    1.2030 C   0  0  0  0  0  0  0  0  0  0  0  0
    3.9370   -0.5590    0.5050 C   0  0  0  0  0  0  0  0  0  0  0  0
    5.3110   -0.2170    0.3020 C   0  0  0  0  0  0  0  0  0  0  0  0
    6.5310   -0.7000    0.6030 C   0  0  0  0  0  0  0  0  0  0  0  0
    7.6470   -0.0900    0.2360 C   0  0  0  0  0  0  0  0  0  0  0  0
    7.5850    1.1030   -0.4920 C   0  0  0  0  0  0  0  0  0  0  0  0
    8.7390    2.1440   -1.1220 Cl  0  0  0  0  0  0  0  0  0  0  0  0
    5.8180    1.3010   -0.6220 S   0  0  0  0  0  0  0  0  0  0  0  0
    2.8970    0.2080    0.0350 C   0  0  0  0  0  0  0  0  0  0  0  0
  1  2  2  0
  2  3  1  0
  2 11  1  0
  3  4  1  0
  4  5  1  0
  5  6  2  0
  5  7  1  0
  7  8  1  0
  8  9  1  0
  9 10  1  0
 11 12  1  0
 12 13  2  0
 12 23  1  0
 13 14  1  0
 14 15  2  0
 15 16  1  0
 16 17  1  0
 16 23  2  0
 17 18  2  0
 17 22  1  0
 18 19  1  0
 19 20  2  0
 20 21  1  0
 20 22  1  0
M  END
