
     RDKit          3D

 22 23  0  0  0  0  0  0  0  0999 V2000
   -3.2460    1.9240   -0.9910 N   0  0  0  0  0  0  0  0  0  0  0  0
   -4.1540    0.9440   -0.4610 C   0  0  0  0  0  0  0  0  0  0  0  0
   -5.4980    1.0650   -0.6960 C   0  0  0  0  0  0  0  0  0  0  0  0
   -6.3330    0.1410   -0.1920 N   0  0  0  0  0  0  0  0  0  0  0  0
   -5.8650   -0.8830    0.5280 C   0  0  0  0  0  0  0  0  0  0  0  0
   -6.6520   -1.7520    1.0020 O   0  0  0  0  0  0  0  0  0  0  0  0
   -4.4800   -1.0250    0.7820 C   0  0  0  0  0  0  0  0  0  0  0  0
   -3.5970   -0.1050    0.2860 C   0  0  0  0  0  0  0  0  0  0  0  0
   -2.1840   -0.1320    0.4620 N   0  0  0  0  0  0  0  0  0  0  0  0
   -1.4250   -1.0660    1.1760 C   0  0  0  0  0  0  0  0  0  0  0  0
   -2.1350   -2.0080    1.7250 O   0  0  0  0  0  0  0  0  0  0  0  0
   -0.0200   -1.1590    1.4000 C   0  0  0  0  0  0  0  0  0  0  0  0
    1.0400   -0.5060    1.1020 C   0  0  0  0  0  0  0  0  0  0  0  0
    1.2130    0.7010    0.3440 C   0  0  0  0  0  0  0  0  0  0  0  0
    2.2130    0.5090   -1.1500 S   0  0  0  0  0  0  0  0  0  0  0  0
    3.9280    0.1870   -0.8340 C   0  0  0  0  0  0  0  0  0  0  0  0
    4.5200    0.1560    0.4030 C   0  0  0  0  0  0  0  0  0  0  0  0
    5.8860   -0.1230    0.5260 C   0  0  0  0  0  0  0  0  0  0  0  0
    6.6780   -0.3740   -0.5710 C   0  0  0  0  0  0  0  0  0  0  0  0
    8.4020   -0.7250   -0.4000 Cl  0  0  0  0  0  0  0  0  0  0  0  0
    6.0760   -0.3400   -1.8110 C   0  0  0  0  0  0  0  0  0  0  0  0
    4.7310   -0.0660   -1.9380 C   0  0  0  0  0  0  0  0  0  0  0  0
  1  2  1  0
  2  3  2  0
  2  8  1  0
  3  4  1  0
  4  5  1  0
  5  6  2  0
  5  7  1  0
  7  8  2  0
  8  9  1  0
  9 10  1  0
 10 11  2  0
 10 12  1  0
 12 13  2  3
 13 14  1  0
 14 15  1  0
 15 16  1  0
 16 17  2  0
 16 22  1  0
 17 18  1  0
 18 19  2  0
 19 20  1  0
 19 21  1  0
 21 22  2  0
M  END
