
     RDKit          3D

 23 24  0  0  0  0  0  0  0  0999 V2000
   -3.9150    2.8320    0.2990 C   0  0  0  0  0  0  0  0  0  0  0  0
   -2.8160    1.9430    0.6360 C   0  0  0  0  0  0  0  0  0  0  0  0
   -2.0470    2.3480    1.5890 O   0  0  0  0  0  0  0  0  0  0  0  0
   -2.5060    0.6820    0.0280 C   0  0  0  0  0  0  0  0  0  0  0  0
   -3.2000    0.1090   -1.0070 C   0  0  0  0  0  0  0  0  0  0  0  0
   -4.3730    0.7530   -1.6350 C   0  0  0  0  0  0  0  0  0  0  0  0
   -2.8120   -1.1000   -1.5060 N   0  0  0  0  0  0  0  0  0  0  0  0
   -1.7620   -1.7950   -1.0430 C   0  0  0  0  0  0  0  0  0  0  0  0
   -1.4740   -2.9010   -1.5620 O   0  0  0  0  0  0  0  0  0  0  0  0
   -1.0680   -1.2250   -0.0110 C   0  0  0  0  0  0  0  0  0  0  0  0
    0.0530   -1.9160    0.5200 N   0  0  0  0  0  0  0  0  0  0  0  0
    1.3690   -1.6810   -0.0410 C   0  0  0  0  0  0  0  0  0  0  0  0
    1.4550   -0.8570   -0.9900 O   0  0  0  0  0  0  0  0  0  0  0  0
    2.4770   -2.4290    0.5570 C   0  0  0  0  0  0  0  0  0  0  0  0
    3.8390   -2.1600    0.0380 C   0  0  0  0  0  0  0  0  0  0  0  0
    4.2120   -0.7430    0.2540 C   0  0  0  0  0  0  0  0  0  0  0  0
    4.1480    0.3530   -0.4900 C   0  0  0  0  0  0  0  0  0  0  0  0
    4.5510    1.5400   -0.0080 C   0  0  0  0  0  0  0  0  0  0  0  0
    4.5080    3.0900   -0.9270 Cl  0  0  0  0  0  0  0  0  0  0  0  0
    5.0350    1.5750    1.2890 C   0  0  0  0  0  0  0  0  0  0  0  0
    4.8790   -0.1700    1.7690 S   0  0  0  0  0  0  0  0  0  0  0  0
   -1.3980   -0.0150    0.5430 C   0  0  0  0  0  0  0  0  0  0  0  0
   -0.6540    0.5500    1.6180 N   0  0  0  0  0  0  0  0  0  0  0  0
  1  2  1  0
  2  3  2  0
  2  4  1  0
  4  5  2  0
  4 22  1  0
  5  6  1  0
  5  7  1  0
  7  8  1  0
  8  9  2  0
  8 10  1  0
 10 11  1  0
 10 22  2  0
 11 12  1  0
 12 13  2  0
 12 14  1  0
 14 15  1  0
 15 16  1  0
 16 17  2  0
 16 21  1  0
 17 18  1  0
 18 19  1  0
 18 20  2  0
 20 21  1  0
 22 23  1  0
M  END
