
     RDKit          3D

 26 28  0  0  0  0  0  0  0  0999 V2000
    4.7720    1.3130    3.5820 C   0  0  0  0  0  0  0  0  0  0  0  0
    4.1290    0.6460    2.4010 C   0  0  0  0  0  0  0  0  0  0  0  0
    3.1530    1.1920    1.8730 O   0  0  0  0  0  0  0  0  0  0  0  0
    4.6390   -0.5820    1.9120 N   0  0  0  0  0  0  0  0  0  0  0  0
    4.1450   -1.3120    0.8360 C   0  0  0  0  0  0  0  0  0  0  0  0
    4.9280   -2.3650    0.3480 C   0  0  0  0  0  0  0  0  0  0  0  0
    4.5290   -3.1500   -0.6950 C   0  0  0  0  0  0  0  0  0  0  0  0
    3.3090   -2.8710   -1.2640 C   0  0  0  0  0  0  0  0  0  0  0  0
    2.4820   -1.8260   -0.8140 C   0  0  0  0  0  0  0  0  0  0  0  0
    1.2770   -1.6760   -1.5200 N   0  0  0  0  0  0  0  0  0  0  0  0
    0.1760   -0.8620   -1.1550 C   0  0  0  0  0  0  0  0  0  0  0  0
    0.2480   -0.2130   -0.1240 O   0  0  0  0  0  0  0  0  0  0  0  0
   -1.0030   -0.7850   -1.9580 N   0  0  0  0  0  0  0  0  0  0  0  0
   -2.1560   -0.0100   -1.6790 C   0  0  0  0  0  0  0  0  0  0  0  0
   -2.3730    0.6170   -0.4760 C   0  0  0  0  0  0  0  0  0  0  0  0
   -3.5230    1.3580   -0.1460 C   0  0  0  0  0  0  0  0  0  0  0  0
   -4.4810    1.4480   -1.1030 C   0  0  0  0  0  0  0  0  0  0  0  0
   -4.3030    0.8320   -2.3310 C   0  0  0  0  0  0  0  0  0  0  0  0
   -3.1540    0.0990   -2.6480 C   0  0  0  0  0  0  0  0  0  0  0  0
   -3.0870   -0.4610   -3.9820 C   0  0  0  0  0  0  0  0  0  0  0  0
   -2.1090   -1.0970   -4.4310 O   0  0  0  0  0  0  0  0  0  0  0  0
   -5.6460    2.1040   -0.9900 C   0  0  0  0  0  0  0  0  0  0  0  0
   -5.9020    2.9130    0.5940 S   0  0  0  0  0  0  0  0  0  0  0  0
   -4.6420    2.6940    1.6190 C   0  0  0  0  0  0  0  0  0  0  0  0
   -3.5610    1.8970    1.0720 C   0  0  0  0  0  0  0  0  0  0  0  0
    2.9320   -1.0640    0.2400 C   0  0  0  0  0  0  0  0  0  0  0  0
  1  2  1  0
  2  3  2  0
  2  4  1  0
  4  5  1  0
  5  6  2  0
  5 26  1  0
  6  7  1  0
  7  8  2  0
  8  9  1  0
  9 10  1  0
  9 26  2  0
 10 11  1  0
 11 12  2  0
 11 13  1  0
 13 14  1  0
 14 15  2  0
 14 19  1  0
 15 16  1  0
 16 17  1  0
 16 25  2  0
 17 18  1  0
 17 22  2  0
 18 19  2  0
 19 20  1  0
 20 21  2  0
 22 23  1  0
 23 24  2  0
 24 25  1  0
M  END
