
     RDKit          3D

 26 28  0  0  0  0  0  0  0  0999 V2000
    5.1900    2.9480   -0.8320 C   0  0  0  0  0  0  0  0  0  0  0  0
    4.8770    1.5730   -0.3340 C   0  0  0  0  0  0  0  0  0  0  0  0
    5.8750    0.8700    0.3100 C   0  0  0  0  0  0  0  0  0  0  0  0
    5.5660   -0.4000    0.7650 C   0  0  0  0  0  0  0  0  0  0  0  0
    4.3510   -0.9750    0.6110 C   0  0  0  0  0  0  0  0  0  0  0  0
    3.3370   -0.2860   -0.0330 C   0  0  0  0  0  0  0  0  0  0  0  0
    3.6240    0.9970   -0.5010 C   0  0  0  0  0  0  0  0  0  0  0  0
    2.0170   -0.8920   -0.2010 C   0  0  0  0  0  0  0  0  0  0  0  0
    1.0060   -0.1390   -0.8890 N   0  0  0  0  0  0  0  0  0  0  0  0
   -0.4050   -0.4920   -0.7490 C   0  0  0  0  0  0  0  0  0  0  0  0
   -0.8850   -0.1960    0.6730 C   0  0  1  0  0  0  0  0  0  0  0  0
   -0.4170    1.1520    1.1240 C   0  0  0  0  0  0  0  0  0  0  0  0
   -2.1940   -0.5210    0.8890 O   0  0  0  0  0  0  0  0  0  0  0  0
   -3.3640   -0.1160    0.2980 C   0  0  0  0  0  0  0  0  0  0  0  0
   -3.5820    1.1450    0.0740 C   0  0  0  0  0  0  0  0  0  0  0  0
   -4.7090    1.8070   -0.5190 C   0  0  0  0  0  0  0  0  0  0  0  0
   -4.6490    3.2530   -0.6340 N   0  0  0  0  0  0  0  0  0  0  0  0
   -5.7540    1.3140   -0.9590 O   0  0  0  0  0  0  0  0  0  0  0  0
   -4.3220   -1.1450   -0.0530 C   0  0  0  0  0  0  0  0  0  0  0  0
   -4.1090   -2.5170    0.1600 C   0  0  0  0  0  0  0  0  0  0  0  0
   -5.2010   -3.2230   -0.2790 C   0  0  0  0  0  0  0  0  0  0  0  0
   -6.0620   -2.2520   -0.7540 C   0  0  0  0  0  0  0  0  0  0  0  0
   -5.5140   -1.0760   -0.6020 O   0  0  0  0  0  0  0  0  0  0  0  0
    1.6710   -2.0380    0.1960 N   0  0  0  0  0  0  0  0  0  0  0  0
    2.3780   -3.0520    0.8850 C   0  0  0  0  0  0  0  0  0  0  0  0
    4.0850   -2.6360    1.2440 S   0  0  0  0  0  0  0  0  0  0  0  0
  1  2  1  0
  2  3  2  0
  2  7  1  0
  3  4  1  0
  4  5  2  0
  5  6  1  0
  5 26  1  0
  6  7  2  0
  6  8  1  0
  8  9  1  0
  8 24  2  0
  9 10  1  0
 10 11  1  0
 11 12  1  6
 11 13  1  0
 13 14  1  0
 14 15  2  3
 14 19  1  0
 15 16  1  0
 16 17  1  0
 16 18  2  0
 19 20  2  0
 19 23  1  0
 20 21  1  0
 21 22  2  0
 22 23  1  0
 24 25  1  0
 25 26  1  0
M  END
