
     RDKit          3D

 24 26  0  0  0  0  0  0  0  0999 V2000
    5.2730    2.8540   -2.3230 C   0  0  0  0  0  0  0  0  0  0  0  0
    3.9920    2.2830   -2.0090 N   0  0  0  0  0  0  0  0  0  0  0  0
    3.8460    1.5240   -0.7930 C   0  0  0  0  0  0  0  0  0  0  0  0
    4.8440    1.4070   -0.0910 O   0  0  0  0  0  0  0  0  0  0  0  0
    2.6050    0.9450   -0.4370 N   0  0  0  0  0  0  0  0  0  0  0  0
    2.3820    0.1880    0.7230 C   0  0  0  0  0  0  0  0  0  0  0  0
    3.3010   -0.1670    1.6620 C   0  0  0  0  0  0  0  0  0  0  0  0
    2.9600   -0.9390    2.7820 C   0  0  0  0  0  0  0  0  0  0  0  0
    1.6950   -1.3620    2.9720 C   0  0  0  0  0  0  0  0  0  0  0  0
    1.2160   -2.3410    4.3720 Cl  0  0  0  0  0  0  0  0  0  0  0  0
    0.7190   -1.0260    2.0410 C   0  0  0  0  0  0  0  0  0  0  0  0
   -0.5590   -1.2860    1.9600 O   0  0  0  0  0  0  0  0  0  0  0  0
   -1.0980   -0.7620    0.8930 C   0  0  0  0  0  0  0  0  0  0  0  0
   -2.4810   -0.8480    0.4830 N   0  0  0  0  0  0  0  0  0  0  0  0
   -3.4820   -1.5680    1.2320 C   0  0  0  0  0  0  0  0  0  0  0  0
   -4.1750   -2.5060    0.2920 C   0  0  0  0  0  0  0  0  0  0  0  0
   -4.5140   -1.9720   -0.9220 O   0  0  0  0  0  0  0  0  0  0  0  0
   -4.3250   -0.6150   -1.0540 C   0  0  0  0  0  0  0  0  0  0  0  0
   -2.9130   -0.1920   -0.7450 C   0  0  1  0  0  0  0  0  0  0  0  0
   -2.8000    1.2890   -0.7090 C   0  0  0  0  0  0  0  0  0  0  0  0
   -2.0540   -0.7790   -1.8540 C   0  0  0  0  0  0  0  0  0  0  0  0
   -1.4370   -1.1810   -2.6520 N   0  0  0  0  0  0  0  0  0  0  0  0
   -0.0870   -0.1090    0.2310 C   0  0  0  0  0  0  0  0  0  0  0  0
    1.0750   -0.2670    0.9470 C   0  0  0  0  0  0  0  0  0  0  0  0
  1  2  1  0
  2  3  1  0
  3  4  2  0
  3  5  1  0
  5  6  1  0
  6  7  2  0
  6 24  1  0
  7  8  1  0
  8  9  2  0
  9 10  1  0
  9 11  1  0
 11 12  1  0
 11 24  2  0
 12 13  1  0
 13 14  1  0
 13 23  2  0
 14 15  1  0
 14 19  1  0
 15 16  1  0
 16 17  1  0
 17 18  1  0
 18 19  1  0
 19 20  1  1
 19 21  1  0
 21 22  3  0
 23 24  1  0
M  END
