
     RDKit          3D

 23 24  0  0  0  0  0  0  0  0999 V2000
   -5.5960    0.1860   -0.0040 C   0  0  0  0  0  0  0  0  0  0  0  0
   -4.5050   -0.1360   -0.7300 C   0  0  0  0  0  0  0  0  0  0  0  0
   -4.5770   -0.7650   -1.9830 N   0  0  0  0  0  0  0  0  0  0  0  0
   -3.2620   -0.9880   -2.4450 C   0  0  0  0  0  0  0  0  0  0  0  0
   -3.0750   -1.5680   -3.5920 O   0  0  0  0  0  0  0  0  0  0  0  0
   -2.2810   -0.4990   -1.4940 C   0  0  0  0  0  0  0  0  0  0  0  0
   -1.0540   -0.3310   -1.4910 N   0  0  0  0  0  0  0  0  0  0  0  0
    0.1920   -0.3110   -1.8940 N   0  0  0  0  0  0  0  0  0  0  0  0
    1.2110   -1.2660   -1.6200 C   0  0  0  0  0  0  0  0  0  0  0  0
    1.7620   -1.9530   -2.5530 O   0  0  0  0  0  0  0  0  0  0  0  0
    1.7080   -1.5340   -0.2580 C   0  0  0  0  0  0  0  0  0  0  0  0
    2.4290   -0.3640    0.3040 N   0  0  0  0  0  0  0  0  0  0  0  0
    3.2890    0.3340   -0.5480 C   0  0  0  0  0  0  0  0  0  0  0  0
    4.0860    1.5390   -0.2300 C   0  0  0  0  0  0  0  0  0  0  0  0
    3.4220   -0.0890   -1.7440 O   0  0  0  0  0  0  0  0  0  0  0  0
    2.2520    0.0180    1.6540 C   0  0  0  0  0  0  0  0  0  0  0  0
    3.5200    0.2460    2.4690 C   0  0  0  0  0  0  0  0  0  0  0  0
    1.0650    0.1990    2.1990 C   0  0  0  0  0  0  0  0  0  0  0  0
   -0.3010    0.1130    1.7350 C   0  0  0  0  0  0  0  0  0  0  0  0
   -1.1330    0.8930    1.0580 C   0  0  0  0  0  0  0  0  0  0  0  0
   -2.5240    0.7110    0.6400 C   0  0  0  0  0  0  0  0  0  0  0  0
   -3.7370    1.8170    1.5130 Cl  0  0  0  0  0  0  0  0  0  0  0  0
   -3.1110    0.0630   -0.3490 C   0  0  0  0  0  0  0  0  0  0  0  0
  1  2  2  0
  2  3  1  0
  2 23  1  0
  3  4  1  0
  4  5  2  0
  4  6  1  0
  6  7  2  0
  6 23  1  0
  7  8  1  0
  8  9  1  0
  9 10  2  0
  9 11  1  0
 11 12  1  0
 12 13  1  0
 12 16  1  0
 13 14  1  0
 13 15  2  0
 16 17  1  0
 16 18  2  0
 18 19  1  0
 19 20  2  0
 20 21  1  0
 21 22  1  0
 21 23  2  0
M  END
