
     RDKit          3D

 24 25  0  0  0  0  0  0  0  0999 V2000
    4.0750   -2.4830    0.5220 C   0  0  0  0  0  0  0  0  0  0  0  0
    2.8000   -1.8490    0.4960 N   0  0  0  0  0  0  0  0  0  0  0  0
    2.7230   -0.5440    0.2710 C   0  0  0  0  0  0  0  0  0  0  0  0
    3.9120    0.1770    0.0640 C   0  0  0  0  0  0  0  0  0  0  0  0
    4.0920    1.4480   -0.1720 C   0  0  0  0  0  0  0  0  0  0  0  0
    2.8570    2.6490   -0.3010 Cl  0  0  0  0  0  0  0  0  0  0  0  0
    1.3450   -0.0910    0.2840 N   0  0  0  0  0  0  0  0  0  0  0  0
    0.8310    0.6640    1.3600 C   0  0  0  0  0  0  0  0  0  0  0  0
    0.0870    1.7390    1.4040 C   0  0  0  0  0  0  0  0  0  0  0  0
   -0.4990    2.5760    0.4670 N   0  0  0  0  0  0  0  0  0  0  0  0
   -1.6720    2.5040   -0.3230 C   0  0  0  0  0  0  0  0  0  0  0  0
   -1.7120    3.2410   -1.4000 O   0  0  0  0  0  0  0  0  0  0  0  0
   -2.8560    1.7510   -0.1420 N   0  0  0  0  0  0  0  0  0  0  0  0
   -3.0840    0.3600   -0.0570 C   0  0  0  0  0  0  0  0  0  0  0  0
   -3.7970   -0.0820    1.0580 C   0  0  0  0  0  0  0  0  0  0  0  0
   -4.1190   -1.4020    1.2540 C   0  0  0  0  0  0  0  0  0  0  0  0
   -3.7390   -2.3380    0.3360 C   0  0  0  0  0  0  0  0  0  0  0  0
   -3.0350   -1.9710   -0.7840 C   0  0  0  0  0  0  0  0  0  0  0  0
   -2.7040   -0.6110   -0.9820 C   0  0  0  0  0  0  0  0  0  0  0  0
   -2.0110   -0.3590   -2.1170 O   0  0  0  0  0  0  0  0  0  0  0  0
   -0.9720    0.3540   -2.5410 C   0  0  0  0  0  0  0  0  0  0  0  0
   -1.0990    1.1380   -3.5230 O   0  0  0  0  0  0  0  0  0  0  0  0
    0.4330    0.3600   -1.9820 C   0  0  0  0  0  0  0  0  0  0  0  0
    0.6080   -0.5780   -0.8680 C   0  0  0  0  0  0  0  0  0  0  0  0
  1  2  1  0
  2  3  2  3
  3  4  1  0
  3  7  1  0
  4  5  2  3
  5  6  1  0
  7  8  1  0
  7 24  1  0
  8  9  2  0
  9 10  1  0
 10 11  1  0
 11 12  2  0
 11 13  1  0
 13 14  1  0
 14 15  2  0
 14 19  1  0
 15 16  1  0
 16 17  2  0
 17 18  1  0
 18 19  2  0
 19 20  1  0
 20 21  1  0
 21 22  2  0
 21 23  1  0
 23 24  1  0
M  END
