
     RDKit          3D

 24 25  0  0  0  0  0  0  0  0999 V2000
    4.1910    3.3890   -0.0220 C   0  0  0  0  0  0  0  0  0  0  0  0
    3.4240    2.2820    0.0020 C   0  0  0  0  0  0  0  0  0  0  0  0
    4.0770    1.0180    0.1360 C   0  0  0  0  0  0  0  0  0  0  0  0
    3.6160   -0.1580    0.1930 C   0  0  0  0  0  0  0  0  0  0  0  0
    2.2920   -0.7590    0.1570 C   0  0  0  0  0  0  0  0  0  0  0  0
    2.1440   -2.1150    0.2190 C   0  0  0  0  0  0  0  0  0  0  0  0
    0.9530   -2.9330    0.2000 C   0  0  0  0  0  0  0  0  0  0  0  0
    0.8970   -3.6650   -0.9150 O   0  0  0  0  0  0  0  0  0  0  0  0
   -0.1540   -3.1930    0.9910 N   0  0  0  0  0  0  0  0  0  0  0  0
   -1.1440   -2.4980    1.7000 C   0  0  0  0  0  0  0  0  0  0  0  0
   -2.1190   -1.6950    1.3630 C   0  0  0  0  0  0  0  0  0  0  0  0
   -2.4670   -1.2630   -0.0470 C   0  0  0  0  0  0  0  0  0  0  0  0
   -3.0660    0.0920   -0.0980 C   0  0  0  0  0  0  0  0  0  0  0  0
   -4.1220    0.2460    0.7860 C   0  0  0  0  0  0  0  0  0  0  0  0
   -4.7980    1.4120    0.8910 N   0  0  0  0  0  0  0  0  0  0  0  0
   -4.4350    2.4000    0.1360 N   0  0  0  0  0  0  0  0  0  0  0  0
   -3.4150    2.2900   -0.7350 C   0  0  0  0  0  0  0  0  0  0  0  0
   -3.1170    3.7820   -1.6620 Cl  0  0  0  0  0  0  0  0  0  0  0  0
   -2.6650    1.1340   -0.9100 C   0  0  0  0  0  0  0  0  0  0  0  0
   -1.6540    1.1890   -1.8600 N   0  0  0  0  0  0  0  0  0  0  0  0
   -0.3430    0.6390   -1.9540 C   0  0  0  0  0  0  0  0  0  0  0  0
   -0.1520    0.0350   -3.0870 O   0  0  0  0  0  0  0  0  0  0  0  0
    0.7120    0.6180   -1.1270 O   0  0  0  0  0  0  0  0  0  0  0  0
    1.0960    0.1160    0.0750 C   0  0  0  0  0  0  0  0  0  0  0  0
  1  2  2  0
  2  3  1  0
  3  4  2  3
  4  5  1  0
  5  6  2  0
  5 24  1  0
  6  7  1  0
  7  8  2  0
  7  9  1  0
  9 10  1  0
 10 11  2  0
 11 12  1  0
 12 13  1  0
 13 14  2  0
 13 19  1  0
 14 15  1  0
 15 16  2  0
 16 17  1  0
 17 18  1  0
 17 19  2  0
 19 20  1  0
 20 21  1  0
 21 22  2  0
 21 23  1  0
 23 24  1  0
M  END
