
     RDKit          3D

 21 21  0  0  0  0  0  0  0  0999 V2000
    2.5650    0.9150    1.2350 O   0  0  0  0  0  0  0  0  0  0  0  0
    3.1100    0.2970    0.4020 C   0  0  0  0  0  0  0  0  0  0  0  0
    4.4830   -0.2040    0.7560 N   0  0  0  0  0  0  0  0  0  0  0  0
    5.0710    0.0800    2.0050 C   0  0  0  0  0  0  0  0  0  0  0  0
    6.4520   -0.5770    1.9870 C   0  0  0  0  0  0  0  0  0  0  0  0
    7.1910   -0.0220    0.9230 O   0  0  0  0  0  0  0  0  0  0  0  0
    2.8310   -0.1330   -0.9160 N   0  0  0  0  0  0  0  0  0  0  0  0
    1.2580    0.5810   -1.0280 C   0  0  0  0  0  0  0  0  0  0  0  0
    0.8870    1.1090   -0.0690 O   0  0  0  0  0  0  0  0  0  0  0  0
    0.5100    0.3820   -2.5850 S   0  0  0  0  0  0  0  0  0  0  0  0
   -1.1940    1.0470   -2.5260 C   0  0  0  0  0  0  0  0  0  0  0  0
   -1.9710    0.1270   -1.6750 C   0  0  0  0  0  0  0  0  0  0  0  0
   -2.8090   -0.6220   -2.2130 O   0  0  0  0  0  0  0  0  0  0  0  0
   -1.7840    0.0820   -0.3030 O   0  0  0  0  0  0  0  0  0  0  0  0
   -2.5660   -0.8270    0.4600 C   0  0  0  0  0  0  0  0  0  0  0  0
   -3.9920   -0.3840    0.3960 C   0  0  0  0  0  0  0  0  0  0  0  0
   -4.4300    0.6690   -0.2360 C   0  0  0  0  0  0  0  0  0  0  0  0
   -5.8820    0.7410   -0.0480 C   0  0  0  0  0  0  0  0  0  0  0  0
   -6.2110   -0.4390    0.7780 C   0  0  0  0  0  0  0  0  0  0  0  0
   -5.1060   -1.0920    1.0360 C   0  0  0  0  0  0  0  0  0  0  0  0
   -4.9650   -2.5920    1.9660 Cl  0  0  0  0  0  0  0  0  0  0  0  0
  1  2  2  0
  2  3  1  0
  2  7  1  0
  3  4  1  0
  4  5  1  0
  5  6  1  0
  7  8  1  0
  8  9  2  0
  8 10  1  0
 10 11  1  0
 11 12  1  0
 12 13  2  0
 12 14  1  0
 14 15  1  0
 15 16  1  0
 16 17  2  0
 16 20  1  0
 17 18  1  0
 18 19  1  0
 19 20  2  0
 20 21  1  0
M  END
