
     RDKit          3D

 20 20  0  0  0  0  0  0  0  0999 V2000
   -1.1400   -1.8940   -0.9670 C   0  0  0  0  0  0  0  0  0  0  0  0
   -2.2710   -1.0090   -0.6090 C   0  0  0  0  0  0  0  0  0  0  0  0
   -2.0930    0.1560   -0.0180 C   0  0  0  0  0  0  0  0  0  0  0  0
   -0.7220    0.6130    0.3080 C   0  0  0  0  0  0  0  0  0  0  0  0
   -0.5820    1.7150    0.8650 O   0  0  0  0  0  0  0  0  0  0  0  0
    0.4060   -0.1300    0.0210 O   0  0  0  0  0  0  0  0  0  0  0  0
    1.6660    0.3640    0.3570 C   0  0  0  0  0  0  0  0  0  0  0  0
    2.7600   -0.5670   -0.0260 C   0  0  0  0  0  0  0  0  0  0  0  0
    2.5010   -1.6650   -0.5890 O   0  0  0  0  0  0  0  0  0  0  0  0
    4.0890   -0.2730    0.2160 O   0  0  0  0  0  0  0  0  0  0  0  0
    5.1490   -1.1480   -0.1420 C   0  0  0  0  0  0  0  0  0  0  0  0
    6.4200   -0.5000    0.2710 C   0  0  0  0  0  0  0  0  0  0  0  0
    6.4900    0.7540    0.8980 N   0  0  0  0  0  0  0  0  0  0  0  0
    7.4890   -1.1360    0.0330 O   0  0  0  0  0  0  0  0  0  0  0  0
   -3.2360    0.9900    0.3130 C   0  0  0  0  0  0  0  0  0  0  0  0
   -3.0340    2.3010    0.9780 C   0  0  0  0  0  0  0  0  0  0  0  0
   -4.4540    0.6030    0.0330 C   0  0  0  0  0  0  0  0  0  0  0  0
   -5.8780    1.6510    0.4500 S   0  0  0  0  0  0  0  0  0  0  0  0
   -4.7640   -0.6700   -0.6210 C   0  0  0  0  0  0  0  0  0  0  0  0
   -3.5990   -1.4360   -0.9170 N   0  0  0  0  0  0  0  0  0  0  0  0
  1  2  1  0
  2  3  2  0
  2 20  1  0
  3  4  1  0
  3 15  1  0
  4  5  2  0
  4  6  1  0
  6  7  1  0
  7  8  1  0
  8  9  2  0
  8 10  1  0
 10 11  1  0
 11 12  1  0
 12 13  1  0
 12 14  2  0
 15 16  1  0
 15 17  2  0
 17 18  1  0
 17 19  1  0
 19 20  1  0
M  END
