
     RDKit          3D

 14 15  0  0  0  0  0  0  0  0999 V2000
    3.8340   -0.0240    0.5940 C   0  0  0  0  0  0  0  0  0  0  0  0
    2.4120   -0.3710    0.3330 C   0  0  0  0  0  0  0  0  0  0  0  0
    2.0690   -1.6450    0.1210 N   0  0  0  0  0  0  0  0  0  0  0  0
    0.8490   -2.0700   -0.1200 C   0  0  0  0  0  0  0  0  0  0  0  0
   -0.2030   -1.1500   -0.1660 C   0  0  0  0  0  0  0  0  0  0  0  0
    0.1460    0.1570    0.0520 C   0  0  0  0  0  0  0  0  0  0  0  0
    1.4310    0.5340    0.2960 N   0  0  0  0  0  0  0  0  0  0  0  0
   -0.8810    1.1720    0.0220 N   0  0  0  0  0  0  0  0  0  0  0  0
   -0.4820    2.5370    0.2540 C   0  0  0  0  0  0  0  0  0  0  0  0
   -2.2170    0.8180   -0.2270 C   0  0  0  0  0  0  0  0  0  0  0  0
   -3.0850    1.7520   -0.2430 O   0  0  0  0  0  0  0  0  0  0  0  0
   -2.5690   -0.5660   -0.4550 C   0  0  0  0  0  0  0  0  0  0  0  0
   -3.8420   -0.8300   -0.6830 N   0  0  0  0  0  0  0  0  0  0  0  0
   -1.5710   -1.6280   -0.4350 C   0  0  0  0  0  0  0  0  0  0  0  0
  1  2  1  0
  2  3  2  0
  2  7  1  0
  3  4  1  0
  4  5  2  0
  5  6  1  0
  5 14  1  0
  6  7  2  0
  6  8  1  0
  8  9  1  0
  8 10  1  0
 10 11  2  0
 10 12  1  0
 12 13  2  0
 12 14  1  0
M  END
