
     RDKit          3D

 20 21  0  0  0  0  0  0  0  0999 V2000
    6.0780   -0.8110    1.1850 C   0  0  0  0  0  0  0  0  0  0  0  0
    4.6490   -0.3890    0.9650 C   0  0  0  0  0  0  0  0  0  0  0  0
    3.8080    0.0660    1.8500 O   0  0  0  0  0  0  0  0  0  0  0  0
    2.6270    0.3400    1.3000 C   0  0  0  0  0  0  0  0  0  0  0  0
    2.6660    0.0550   -0.0350 C   0  0  0  0  0  0  0  0  0  0  0  0
    1.6650    0.1820   -1.0190 N   0  0  0  0  0  0  0  0  0  0  0  0
    0.3530    0.6570   -0.7920 C   0  0  0  0  0  0  0  0  0  0  0  0
    0.0420    0.9960    0.3780 O   0  0  0  0  0  0  0  0  0  0  0  0
   -0.5850    0.7470   -1.8580 N   0  0  0  0  0  0  0  0  0  0  0  0
   -1.9120    1.2310   -1.6050 C   0  0  0  0  0  0  0  0  0  0  0  0
   -2.6110    0.3870   -0.6230 C   0  0  0  0  0  0  0  0  0  0  0  0
   -3.8800    0.4940   -0.1060 C   0  0  0  0  0  0  0  0  0  0  0  0
   -4.3090   -0.3940    0.7810 C   0  0  0  0  0  0  0  0  0  0  0  0
   -5.6720   -0.3640    1.4010 C   0  0  0  0  0  0  0  0  0  0  0  0
   -6.0250   -1.2090    2.2200 O   0  0  0  0  0  0  0  0  0  0  0  0
   -6.5730    0.6300    1.0600 O   0  0  0  0  0  0  0  0  0  0  0  0
   -3.4240   -1.4260    1.1580 C   0  0  0  0  0  0  0  0  0  0  0  0
   -1.9950   -1.0500    0.1940 S   0  0  0  0  0  0  0  0  0  0  0  0
    3.9760   -0.4130   -0.2360 C   0  0  0  0  0  0  0  0  0  0  0  0
    4.4820   -0.8240   -1.4420 O   0  0  0  0  0  0  0  0  0  0  0  0
  1  2  1  0
  2  3  1  0
  2 19  2  0
  3  4  1  0
  4  5  2  0
  5  6  1  0
  5 19  1  0
  6  7  1  0
  7  8  2  0
  7  9  1  0
  9 10  1  0
 10 11  1  0
 11 12  2  0
 11 18  1  0
 12 13  1  0
 13 14  1  0
 13 17  2  0
 14 15  2  0
 14 16  1  0
 17 18  1  0
 19 20  1  0
M  END
