
     RDKit          3D

 21 22  0  0  0  0  0  0  0  0999 V2000
    0.0250    2.2630    0.7010 O   0  0  0  0  0  0  0  0  0  0  0  0
   -0.9620    1.6490    0.1500 C   0  0  0  0  0  0  0  0  0  0  0  0
   -2.1740    2.4480   -0.0980 C   0  0  0  0  0  0  0  0  0  0  0  0
   -3.4620    2.2450    1.1260 S   0  0  0  0  0  0  0  0  0  0  0  0
   -4.2240    0.6460    0.9910 C   0  0  0  0  0  0  0  0  0  0  0  0
   -5.0600    0.4020   -0.0000 C   0  0  0  0  0  0  0  0  0  0  0  0
   -5.3870    1.6840   -1.1640 Cl  0  0  0  0  0  0  0  0  0  0  0  0
   -5.7720   -0.8920   -0.2050 C   0  0  0  0  0  0  0  0  0  0  0  0
   -5.4510   -1.8100    0.7760 O   0  0  0  0  0  0  0  0  0  0  0  0
   -0.8150    0.2810   -0.1720 N   0  0  0  0  0  0  0  0  0  0  0  0
    0.4600   -0.2930    0.1310 N   0  0  0  0  0  0  0  0  0  0  0  0
    1.5940    0.1730   -0.5790 C   0  0  0  0  0  0  0  0  0  0  0  0
    1.3840    1.0820   -1.4490 O   0  0  0  0  0  0  0  0  0  0  0  0
    2.9430   -0.3180   -0.3740 C   0  0  0  0  0  0  0  0  0  0  0  0
    4.0590    0.1380   -1.0930 C   0  0  0  0  0  0  0  0  0  0  0  0
    5.1350   -0.5440   -0.6330 C   0  0  0  0  0  0  0  0  0  0  0  0
    6.4990   -0.7190   -0.7670 C   0  0  0  0  0  0  0  0  0  0  0  0
    6.8660   -1.6170    0.0730 O   0  0  0  0  0  0  0  0  0  0  0  0
    5.8300   -2.0680    0.7740 C   0  0  0  0  0  0  0  0  0  0  0  0
    4.6840   -1.4000    0.3470 C   0  0  0  0  0  0  0  0  0  0  0  0
    3.3810   -1.2190    0.4540 O   0  0  0  0  0  0  0  0  0  0  0  0
  1  2  2  0
  2  3  1  0
  2 10  1  0
  3  4  1  0
  4  5  1  0
  5  6  2  3
  6  7  1  0
  6  8  1  0
  8  9  1  0
 10 11  1  0
 11 12  1  0
 12 13  2  0
 12 14  1  0
 14 15  2  0
 14 21  1  0
 15 16  1  0
 16 17  2  0
 16 20  1  0
 17 18  1  0
 18 19  1  0
 19 20  2  0
 20 21  1  0
M  END
