
     RDKit          3D

 12 13  0  0  0  0  0  0  0  0999 V2000
   -1.1660    0.0940    1.4840 C   0  0  0  0  0  0  0  0  0  0  0  0
   -0.8370   -0.3950    0.0990 C   0  0  2  0  0  0  0  0  0  0  0  0
    0.2670   -1.4310    0.0940 C   0  0  0  0  0  0  0  0  0  0  0  0
    1.3800   -0.9910    0.9780 C   0  0  0  0  0  0  0  0  0  0  0  0
    2.1330    0.2130    0.5800 C   0  0  0  0  0  0  0  0  0  0  0  0
    2.0760    0.6140   -0.8540 C   0  0  0  0  0  0  0  0  0  0  0  0
    0.7060    1.1540   -1.2180 C   0  0  0  0  0  0  0  0  0  0  0  0
   -0.4730    0.7260   -0.8160 C   0  0  0  0  0  0  0  0  0  0  0  0
   -1.7170    1.2730   -1.1950 N   0  0  0  0  0  0  0  0  0  0  0  0
   -2.7430    0.2810   -1.0070 C   0  0  0  0  0  0  0  0  0  0  0  0
   -3.9730    0.4320   -1.2460 O   0  0  0  0  0  0  0  0  0  0  0  0
   -2.0600   -0.8570   -0.5110 N   0  0  0  0  0  0  0  0  0  0  0  0
  2  1  1  1
  2  3  1  0
  2  8  1  0
  2 12  1  0
  3  4  1  0
  4  5  1  0
  5  6  1  0
  6  7  1  0
  7  8  2  0
  8  9  1  0
  9 10  1  0
 10 11  2  0
 10 12  1  0
M  END
