
     RDKit          3D

 12 13  0  0  0  0  0  0  0  0999 V2000
   -3.0130    2.2440   -0.0260 O   0  0  0  0  0  0  0  0  0  0  0  0
   -1.9980    1.4830    0.0720 C   0  0  0  0  0  0  0  0  0  0  0  0
   -0.7740    2.2180   -0.2020 C   0  0  0  0  0  0  0  0  0  0  0  0
    0.4950    1.8160   -0.2940 C   0  0  0  0  0  0  0  0  0  0  0  0
    1.1760    0.5200   -0.1660 C   0  0  0  0  0  0  0  0  0  0  0  0
    2.5320    0.4940    0.0990 C   0  0  0  0  0  0  0  0  0  0  0  0
    2.8750   -0.7900    0.1620 N   0  0  0  0  0  0  0  0  0  0  0  0
    1.8040   -1.5770   -0.0500 C   0  0  0  0  0  0  0  0  0  0  0  0
    0.6810   -0.7710   -0.2660 C   0  0  0  0  0  0  0  0  0  0  0  0
   -0.6220   -1.3930   -0.5230 C   0  0  0  0  0  0  0  0  0  0  0  0
   -1.6430   -1.1210    0.5590 C   0  0  0  0  0  0  0  0  0  0  0  0
   -2.3010    0.1350    0.4160 N   0  0  0  0  0  0  0  0  0  0  0  0
  1  2  2  0
  2  3  1  0
  2 12  1  0
  3  4  2  0
  4  5  1  0
  5  6  2  0
  5  9  1  0
  6  7  1  0
  7  8  1  0
  8  9  2  0
  9 10  1  0
 10 11  1  0
 11 12  1  0
M  END
