
     RDKit          3D

 12 13  0  0  0  0  0  0  0  0999 V2000
    2.7860    0.0370    1.3870 C   0  0  0  0  0  0  0  0  0  0  0  0
    1.3960   -0.0790    0.8400 C   0  0  0  0  0  0  0  0  0  0  0  0
    0.3610   -0.7750    1.3370 N   0  0  0  0  0  0  0  0  0  0  0  0
   -0.7280   -0.6200    0.5430 C   0  0  0  0  0  0  0  0  0  0  0  0
   -0.4200    0.1990   -0.5140 C   0  0  0  0  0  0  0  0  0  0  0  0
    0.9280    0.5290   -0.3060 C   0  0  0  0  0  0  0  0  0  0  0  0
    1.7100    1.3750   -1.1580 C   0  0  0  0  0  0  0  0  0  0  0  0
    2.3310    2.0350   -1.8460 N   0  0  0  0  0  0  0  0  0  0  0  0
   -1.2650    0.5410   -1.4590 C   0  0  0  0  0  0  0  0  0  0  0  0
   -2.6480    0.0470   -1.4430 C   0  0  0  0  0  0  0  0  0  0  0  0
   -2.8790   -0.7710   -0.3470 O   0  0  0  0  0  0  0  0  0  0  0  0
   -1.9550   -1.0910    0.6060 C   0  0  0  0  0  0  0  0  0  0  0  0
  1  2  1  0
  2  3  1  0
  2  6  2  0
  3  4  1  0
  4  5  1  0
  4 12  2  0
  5  6  1  0
  5  9  2  0
  6  7  1  0
  7  8  3  0
  9 10  1  0
 10 11  1  0
 11 12  1  0
M  END
