
     RDKit          3D

 12 12  0  0  0  0  0  0  0  0999 V2000
   -1.8720    1.4970   -2.3990 C   0  0  0  0  0  0  0  0  0  0  0  0
   -0.9790    0.7130   -1.9080 C   0  0  0  0  0  0  0  0  0  0  0  0
   -0.1950   -0.2060   -2.6720 N   0  0  0  0  0  0  0  0  0  0  0  0
    0.2250   -1.5020   -2.2170 C   0  0  0  0  0  0  0  0  0  0  0  0
    0.3610   -1.5830   -0.7160 C   0  0  0  0  0  0  0  0  0  0  0  0
    0.3550   -0.2480   -0.1160 N   0  0  0  0  0  0  0  0  0  0  0  0
    1.4180    0.0970    0.7610 C   0  0  0  0  0  0  0  0  0  0  0  0
    1.4890   -0.6350    2.0570 C   0  0  0  0  0  0  0  0  0  0  0  0
    1.6260   -2.0180    1.8870 O   0  0  0  0  0  0  0  0  0  0  0  0
   -0.6670    0.6870   -0.4530 C   0  0  0  0  0  0  0  0  0  0  0  0
   -1.2590    1.4360    0.4010 C   0  0  0  0  0  0  0  0  0  0  0  0
   -1.1310    1.5820    1.8430 C   0  0  0  0  0  0  0  0  0  0  0  0
  1  2  2  0
  2  3  1  0
  2 10  1  0
  3  4  1  0
  4  5  1  0
  5  6  1  0
  6  7  1  0
  6 10  1  0
  7  8  1  0
  8  9  1  0
 10 11  2  3
 11 12  1  0
M  END
