
     RDKit          3D

 28 28  0  0  0  0  0  0  0  0999 V2000
   -5.1780    0.8100    0.3530 C   0  0  0  0  0  0  0  0  0  0  0  0
   -3.8800    1.0340    0.4660 C   0  0  0  0  0  0  0  0  0  0  0  0
   -3.1780    2.1680   -0.2100 C   0  0  0  0  0  0  0  0  0  0  0  0
   -4.2160    3.1860   -1.2140 S   0  0  0  0  0  0  0  0  0  0  0  0
   -4.3190    4.5920   -0.6780 O   0  0  0  0  0  0  0  0  0  0  0  0
   -3.0120    0.1570    1.3050 C   0  0  0  0  0  0  0  0  0  0  0  0
   -1.9060   -0.4780    0.5340 C   0  0  0  0  0  0  0  0  0  0  0  0
   -0.6350    0.1200    0.5210 C   0  0  0  0  0  0  0  0  0  0  0  0
    0.3980   -0.4360   -0.1870 C   0  0  0  0  0  0  0  0  0  0  0  0
    1.7300    0.1910   -0.2510 C   0  0  0  0  0  0  0  0  0  0  0  0
    1.8270    1.4480   -0.1020 O   0  0  0  0  0  0  0  0  0  0  0  0
    2.9370   -0.5200   -0.4700 N   0  0  0  0  0  0  0  0  0  0  0  0
    4.1750    0.0840   -0.5500 N   0  0  0  0  0  0  0  0  0  0  0  0
    5.1790    0.0820    0.4230 C   0  0  0  0  0  0  0  0  0  0  0  0
    4.9670   -0.5270    1.5070 O   0  0  0  0  0  0  0  0  0  0  0  0
    6.4370    0.7740    0.1680 C   0  0  0  0  0  0  0  0  0  0  0  0
    6.6620    1.3700   -0.9000 O   0  0  0  0  0  0  0  0  0  0  0  0
    7.5100    0.7960    1.1920 C   0  0  1  0  0  0  0  0  0  0  0  0
    7.0190    1.4870    2.2910 F   0  0  0  0  0  0  0  0  0  0  0  0
    7.8450   -0.5150    1.5160 F   0  0  0  0  0  0  0  0  0  0  0  0
    8.6180    1.4970    0.7310 F   0  0  0  0  0  0  0  0  0  0  0  0
    0.1320   -1.6050   -0.8810 C   0  0  0  0  0  0  0  0  0  0  0  0
   -1.0970   -2.2080   -0.8860 C   0  0  0  0  0  0  0  0  0  0  0  0
   -1.3280   -3.3980   -1.6180 N   0  0  0  0  0  0  0  0  0  0  0  0
   -2.1610   -1.6290   -0.1530 C   0  0  0  0  0  0  0  0  0  0  0  0
   -3.4060   -2.3140   -0.1980 N   0  0  0  0  0  0  0  0  0  0  0  0
   -3.5630   -3.3310    0.5140 O   0  0  0  0  0  0  0  0  0  0  0  0
   -4.4540   -1.9350   -0.9830 O   0  0  0  0  0  0  0  0  0  0  0  0
  1  2  2  0
  2  3  1  0
  2  6  1  0
  3  4  1  0
  4  5  2  0
  6  7  1  0
  7  8  2  0
  7 25  1  0
  8  9  1  0
  9 10  1  0
  9 22  2  0
 10 11  2  0
 10 12  1  0
 12 13  1  0
 13 14  1  0
 14 15  2  0
 14 16  1  0
 16 17  2  0
 16 18  1  0
 18 19  1  1
 18 20  1  0
 18 21  1  0
 22 23  1  0
 23 24  1  0
 23 25  2  0
 25 26  1  0
 26 27  2  0
 26 28  1  0
M  CHG  2  26   1  28  -1
M  END
