
     RDKit          3D

 28 28  0  0  0  0  0  0  0  0999 V2000
    7.2860   -1.1180    0.2070 C   0  0  0  0  0  0  0  0  0  0  0  0
    6.2770   -1.0250   -1.3100 S   0  0  0  0  0  0  0  0  0  0  0  0
    4.7990   -0.0950   -0.9550 C   0  0  0  0  0  0  0  0  0  0  0  0
    3.6420   -0.6830   -0.5070 C   0  0  0  0  0  0  0  0  0  0  0  0
    2.4960    0.0730   -0.2360 C   0  0  0  0  0  0  0  0  0  0  0  0
    1.3510   -0.6000    0.2540 N   0  0  0  0  0  0  0  0  0  0  0  0
    0.0760   -0.0590    0.0760 C   0  0  0  0  0  0  0  0  0  0  0  0
   -0.1110    1.0460   -0.5370 O   0  0  0  0  0  0  0  0  0  0  0  0
   -1.1680   -0.6850    0.5640 C   0  0  0  0  0  0  0  0  0  0  0  0
   -2.2540   -0.0040    0.2850 C   0  0  0  0  0  0  0  0  0  0  0  0
   -3.5510   -0.3170    0.5980 N   0  0  0  0  0  0  0  0  0  0  0  0
   -4.6070    0.5860    0.1890 C   0  0  0  0  0  0  0  0  0  0  0  0
   -4.3040    1.6220   -0.4370 O   0  0  0  0  0  0  0  0  0  0  0  0
   -6.0280    0.2920    0.5040 C   0  0  2  0  0  0  0  0  0  0  0  0
   -6.0730   -0.9100    1.1990 O   0  0  0  0  0  0  0  0  0  0  0  0
   -6.7690    0.2180   -0.8200 C   0  0  1  0  0  0  0  0  0  0  0  0
   -8.0930   -0.0520   -0.5800 F   0  0  0  0  0  0  0  0  0  0  0  0
   -6.5960    1.4560   -1.4290 F   0  0  0  0  0  0  0  0  0  0  0  0
   -6.1650   -0.7530   -1.5770 F   0  0  0  0  0  0  0  0  0  0  0  0
   -1.1080   -1.9360    1.2760 C   0  0  0  0  0  0  0  0  0  0  0  0
   -2.2980   -2.5560    1.7550 N   0  0  0  0  0  0  0  0  0  0  0  0
   -0.0220   -2.5640    1.5250 O   0  0  0  0  0  0  0  0  0  0  0  0
    2.5330    1.4150   -0.4200 C   0  0  0  0  0  0  0  0  0  0  0  0
    3.7040    2.0470   -0.8790 C   0  0  0  0  0  0  0  0  0  0  0  0
    3.7380    3.4460   -1.0710 N   0  0  0  0  0  0  0  0  0  0  0  0
    4.7750    3.9760   -1.4730 O   0  0  0  0  0  0  0  0  0  0  0  0
    2.6180    4.1870   -0.8060 O   0  0  0  0  0  0  0  0  0  0  0  0
    4.8130    1.2690   -1.1360 C   0  0  0  0  0  0  0  0  0  0  0  0
  1  2  1  0
  2  3  1  0
  3  4  2  0
  3 28  1  0
  4  5  1  0
  5  6  1  0
  5 23  2  0
  6  7  1  0
  7  8  2  0
  7  9  1  0
  9 10  2  3
  9 20  1  0
 10 11  1  0
 11 12  1  0
 12 13  2  0
 12 14  1  0
 14 15  1  6
 14 16  1  0
 16 17  1  1
 16 18  1  0
 16 19  1  0
 20 21  1  0
 20 22  2  0
 23 24  1  0
 24 25  1  0
 24 28  2  0
 25 26  2  0
 25 27  1  0
M  CHG  2  25   1  27  -1
M  END
