
     RDKit          3D

 27 28  0  0  0  0  0  0  0  0999 V2000
   -5.3920    1.5980    1.7540 N   0  0  0  0  0  0  0  0  0  0  0  0
   -5.5440    1.2890    0.3570 C   0  0  0  0  0  0  0  0  0  0  0  0
   -4.6770    0.1170   -0.0340 C   0  0  0  0  0  0  0  0  0  0  0  0
   -4.8340   -0.1710   -1.3900 O   0  0  0  0  0  0  0  0  0  0  0  0
   -3.8790   -1.4690   -1.8420 S   0  0  2  0  0  0  0  0  0  0  0  0
   -3.6160   -1.4640   -3.3130 O   0  0  0  0  0  0  0  0  0  0  0  0
   -4.6700   -2.7240   -1.5080 O   0  0  0  0  0  0  0  0  0  0  0  0
   -2.4020   -1.4940   -0.9060 C   0  0  0  0  0  0  0  0  0  0  0  0
   -2.3300   -2.1730    0.2840 C   0  0  0  0  0  0  0  0  0  0  0  0
   -1.1450   -2.1660    0.9900 C   0  0  0  0  0  0  0  0  0  0  0  0
   -1.0490   -2.8460    2.1970 O   0  0  0  0  0  0  0  0  0  0  0  0
   -0.0790   -1.4990    0.5100 N   0  0  0  0  0  0  0  0  0  0  0  0
   -0.1010   -0.8220   -0.6450 C   0  0  0  0  0  0  0  0  0  0  0  0
    1.0350   -0.1240   -1.1350 N   0  0  0  0  0  0  0  0  0  0  0  0
    2.2750   -0.1210   -0.3890 C   0  0  0  0  0  0  0  0  0  0  0  0
    2.2960   -0.7430    0.6740 O   0  0  0  0  0  0  0  0  0  0  0  0
    3.4160    0.5510   -0.8310 N   0  0  0  0  0  0  0  0  0  0  0  0
    4.6760    0.6320   -0.2060 C   0  0  0  0  0  0  0  0  0  0  0  0
    5.6900    1.3660   -0.8290 C   0  0  0  0  0  0  0  0  0  0  0  0
    6.9440    1.4890   -0.2780 C   0  0  0  0  0  0  0  0  0  0  0  0
    7.9150    2.2020   -0.8930 F   0  0  0  0  0  0  0  0  0  0  0  0
    7.2480    0.8880    0.9210 C   0  0  0  0  0  0  0  0  0  0  0  0
    8.4910    1.0030    1.4810 F   0  0  0  0  0  0  0  0  0  0  0  0
    6.2820    0.1700    1.5480 C   0  0  0  0  0  0  0  0  0  0  0  0
    6.5200   -0.4480    2.7340 F   0  0  0  0  0  0  0  0  0  0  0  0
    5.0110    0.0510    0.9780 C   0  0  0  0  0  0  0  0  0  0  0  0
   -1.2700   -0.8120   -1.3710 C   0  0  0  0  0  0  0  0  0  0  0  0
  1  2  1  0
  2  3  1  0
  3  4  1  0
  5  4  1  1
  5  6  2  0
  5  7  2  0
  5  8  1  0
  8  9  2  0
  8 27  1  0
  9 10  1  0
 10 11  1  0
 10 12  2  0
 12 13  1  0
 13 14  1  0
 13 27  2  0
 14 15  1  0
 15 16  2  0
 15 17  1  0
 17 18  1  0
 18 19  2  0
 18 26  1  0
 19 20  1  0
 20 21  1  0
 20 22  2  0
 22 23  1  0
 22 24  1  0
 24 25  1  0
 24 26  2  0
M  CHG  2   1   1  11  -1
M  END
