
     RDKit          3D

 18 18  0  0  0  0  0  0  0  0999 V2000
   -4.3850   -1.8330   -1.4980 C   0  0  0  0  0  0  0  0  0  0  0  0
   -4.2060   -2.2440   -0.0570 C   0  0  0  0  0  0  0  0  0  0  0  0
   -2.5180   -1.8810    0.4410 S   0  0  0  0  0  0  0  0  0  0  0  0
   -2.2330   -0.0910    0.4670 C   0  0  0  0  0  0  0  0  0  0  0  0
   -1.0310    0.3830    0.8050 C   0  0  0  0  0  0  0  0  0  0  0  0
    0.0200   -0.6130    1.1460 C   0  0  0  0  0  0  0  0  0  0  0  0
    1.1540   -0.4550    0.1690 C   0  0  0  0  0  0  0  0  0  0  0  0
    2.1850   -1.3850    0.4380 O   0  0  0  0  0  0  0  0  0  0  0  0
    3.4160   -1.1270   -0.7260 P   0  0  0  0  0  0  0  0  0  0  0  0
    5.0420   -1.8390   -0.2880 C   0  0  0  0  0  0  0  0  0  0  0  0
    6.1960   -1.0880   -0.8080 C   0  0  0  0  0  0  0  0  0  0  0  0
    6.7060   -0.1940   -0.1610 O   0  0  0  0  0  0  0  0  0  0  0  0
    3.4600    0.4350   -1.4000 O   0  0  0  0  0  0  0  0  0  0  0  0
    4.0750    1.3940   -0.6350 C   0  0  0  0  0  0  0  0  0  0  0  0
   -0.7150    1.8480    0.8640 C   0  0  0  0  0  0  0  0  0  0  0  0
   -1.7070    2.5780   -0.0070 C   0  0  0  0  0  0  0  0  0  0  0  0
   -3.0930    2.2150    0.5250 C   0  0  0  0  0  0  0  0  0  0  0  0
   -3.3720    0.7850    0.1020 C   0  0  0  0  0  0  0  0  0  0  0  0
  1  2  1  0
  2  3  1  0
  3  4  1  0
  4  5  2  0
  4 18  1  0
  5  6  1  0
  5 15  1  0
  6  7  1  0
  7  8  1  0
  8  9  1  0
  9 10  1  0
  9 13  1  0
 10 11  1  0
 11 12  2  0
 13 14  1  0
 15 16  1  0
 16 17  1  0
 17 18  1  0
M  END
