
     RDKit          3D

 17 17  0  0  0  0  0  0  0  0999 V2000
   -4.5410    2.9770   -0.1260 C   0  0  0  0  0  0  0  0  0  0  0  0
   -3.7540    1.7220    0.1870 C   0  0  0  0  0  0  0  0  0  0  0  0
   -3.2480    1.1200   -0.9650 O   0  0  0  0  0  0  0  0  0  0  0  0
   -2.3730   -0.2950   -0.4780 P   0  0  0  0  0  0  0  0  0  0  0  0
   -0.7670    0.1510    0.3410 C   0  0  0  0  0  0  0  0  0  0  0  0
    0.3150    0.2910   -0.6990 C   0  0  0  0  0  0  0  0  0  0  0  0
    1.6490    0.6530   -0.1130 C   0  0  2  0  0  0  0  0  0  0  0  0
    1.6160    1.9680    0.6340 C   0  0  0  0  0  0  0  0  0  0  0  0
    2.6330    0.7940   -1.2390 C   0  0  0  0  0  0  0  0  0  0  0  0
    3.4670   -0.4140   -1.4820 C   0  0  0  0  0  0  0  0  0  0  0  0
    4.8740   -0.1990   -0.9110 C   0  0  0  0  0  0  0  0  0  0  0  0
    4.9280   -0.8300    0.4630 C   0  0  0  0  0  0  0  0  0  0  0  0
    3.7000   -0.1190    1.5600 S   0  0  0  0  0  0  0  0  0  0  0  0
    2.0350   -0.4100    0.8830 C   0  0  0  0  0  0  0  0  0  0  0  0
   -3.3390   -1.3140    0.5370 O   0  0  0  0  0  0  0  0  0  0  0  0
   -3.2860   -2.6060    0.0070 C   0  0  0  0  0  0  0  0  0  0  0  0
   -4.1080   -3.5700    0.8380 C   0  0  0  0  0  0  0  0  0  0  0  0
  1  2  1  0
  2  3  1  0
  3  4  1  0
  4  5  1  0
  4 15  1  0
  5  6  1  0
  6  7  1  0
  7  8  1  1
  7  9  1  0
  7 14  1  0
  9 10  1  0
 10 11  1  0
 11 12  1  0
 12 13  1  0
 13 14  1  0
 15 16  1  0
 16 17  1  0
M  END
