
     RDKit          3D

 18 18  0  0  0  0  0  0  0  0999 V2000
   -4.1860   -0.1000   -2.4590 C   0  0  0  0  0  0  0  0  0  0  0  0
   -3.9980   -0.0720   -1.1540 C   0  0  0  0  0  0  0  0  0  0  0  0
   -2.6790    0.1430   -0.5940 C   0  0  0  0  0  0  0  0  0  0  0  0
   -2.3700    0.1940    0.6800 C   0  0  0  0  0  0  0  0  0  0  0  0
   -3.1840    0.0580    1.8370 C   0  0  0  0  0  0  0  0  0  0  0  0
   -4.7770   -0.2080    1.8000 S   0  0  0  0  0  0  0  0  0  0  0  0
   -1.5960    0.2700   -1.6540 C   0  0  0  0  0  0  0  0  0  0  0  0
   -0.3160    0.4190   -1.1900 O   0  0  0  0  0  0  0  0  0  0  0  0
    0.4050   -0.5450   -0.5150 C   0  0  0  0  0  0  0  0  0  0  0  0
   -0.1450   -1.6650   -0.3090 O   0  0  0  0  0  0  0  0  0  0  0  0
    1.7710   -0.3140   -0.0350 C   0  0  0  0  0  0  0  0  0  0  0  0
    2.4580   -1.2950    0.6330 C   0  0  0  0  0  0  0  0  0  0  0  0
    3.7390   -1.0970    1.0900 C   0  0  0  0  0  0  0  0  0  0  0  0
    4.3800    0.1220    0.8840 C   0  0  0  0  0  0  0  0  0  0  0  0
    6.0650    0.4440    1.4620 P   0  0  0  0  0  0  0  0  0  0  0  0
    6.9880    1.4380    0.7000 O   0  0  0  0  0  0  0  0  0  0  0  0
    3.6620    1.0880    0.2090 C   0  0  0  0  0  0  0  0  0  0  0  0
    2.3870    0.8920   -0.2470 C   0  0  0  0  0  0  0  0  0  0  0  0
  1  2  2  0
  2  3  1  0
  3  4  2  3
  3  7  1  0
  4  5  1  0
  5  6  2  0
  7  8  1  0
  8  9  1  0
  9 10  2  0
  9 11  1  0
 11 12  2  0
 11 18  1  0
 12 13  1  0
 13 14  2  0
 14 15  1  0
 14 17  1  0
 15 16  2  0
 17 18  2  0
M  END
