
     RDKit          3D

 18 18  0  0  0  0  0  0  0  0999 V2000
   -6.4160    0.1250   -1.4660 C   0  0  0  0  0  0  0  0  0  0  0  0
   -5.2680   -0.8840   -1.5950 C   0  0  0  0  0  0  0  0  0  0  0  0
   -4.0390   -0.1670   -1.8840 C   0  0  0  0  0  0  0  0  0  0  0  0
   -2.9230   -0.1310   -1.1470 C   0  0  0  0  0  0  0  0  0  0  0  0
   -2.8930   -0.8910    0.1090 C   0  0  0  0  0  0  0  0  0  0  0  0
   -1.7880    0.6330   -1.5780 C   0  0  0  0  0  0  0  0  0  0  0  0
   -0.6230    0.8030   -1.0300 C   0  0  0  0  0  0  0  0  0  0  0  0
   -0.0080    0.3130    0.1930 C   0  0  0  0  0  0  0  0  0  0  0  0
    1.2460    0.7870    0.3190 C   0  0  0  0  0  0  0  0  0  0  0  0
    2.1350    0.4860    1.4330 C   0  0  0  0  0  0  0  0  0  0  0  0
    3.3480    0.9900    1.4810 C   0  0  0  0  0  0  0  0  0  0  0  0
    4.2770    0.7050    2.5980 C   0  0  0  0  0  0  0  0  0  0  0  0
    5.7760   -0.1070    1.9120 P   0  0  0  0  0  0  0  0  0  0  0  0
    5.6160   -1.9340    1.7650 C   0  0  0  0  0  0  0  0  0  0  0  0
    7.2190    0.3600    2.7450 O   0  0  0  0  0  0  0  0  0  0  0  0
    1.5260    1.5780   -0.7560 O   0  0  0  0  0  0  0  0  0  0  0  0
    0.4590    1.6490   -1.6250 C   0  0  0  0  0  0  0  0  0  0  0  0
    0.4060    2.2920   -2.6970 O   0  0  0  0  0  0  0  0  0  0  0  0
  1  2  1  0
  2  3  1  0
  3  4  2  3
  4  5  1  0
  4  6  1  0
  6  7  2  3
  7  8  1  0
  7 17  1  0
  8  9  2  0
  9 10  1  0
  9 16  1  0
 10 11  2  3
 11 12  1  0
 12 13  1  0
 13 14  1  0
 13 15  1  0
 16 17  1  0
 17 18  2  0
M  END
