
     RDKit          3D

 18 18  0  0  0  0  0  0  0  0999 V2000
    6.8310    1.1220   -0.0740 C   0  0  0  0  0  0  0  0  0  0  0  0
    5.4980    0.4040   -0.0930 C   0  0  0  0  0  0  0  0  0  0  0  0
    4.6170    1.1540   -0.8500 O   0  0  0  0  0  0  0  0  0  0  0  0
    3.0550    0.4940   -0.9830 P   0  0  0  0  0  0  0  0  0  0  0  0
    3.0120   -1.2260   -0.9630 O   0  0  0  0  0  0  0  0  0  0  0  0
    1.8430    1.2680    0.1500 C   0  0  0  0  0  0  0  0  0  0  0  0
    0.6840    0.3900    0.4580 C   0  0  0  0  0  0  0  0  0  0  0  0
   -0.5380    0.7860    0.1490 C   0  0  0  0  0  0  0  0  0  0  0  0
   -1.7320   -0.0360    0.4280 C   0  0  0  0  0  0  0  0  0  0  0  0
   -2.8100    0.0860   -0.2920 C   0  0  0  0  0  0  0  0  0  0  0  0
   -4.0550   -0.6300   -0.1600 C   0  0  0  0  0  0  0  0  0  0  0  0
   -4.2190   -1.6760    0.9280 C   0  0  0  0  0  0  0  0  0  0  0  0
   -5.1050   -0.4600   -0.9190 C   0  0  0  0  0  0  0  0  0  0  0  0
   -5.1920    0.4850   -2.0290 C   0  0  0  0  0  0  0  0  0  0  0  0
   -6.2440    1.3900   -1.7490 O   0  0  0  0  0  0  0  0  0  0  0  0
   -1.6410   -1.1900    1.7740 S   0  0  0  0  0  0  0  0  0  0  0  0
    0.1030   -1.1170    2.3550 C   0  0  0  0  0  0  0  0  0  0  0  0
    0.9260   -0.9160    1.1030 C   0  0  0  0  0  0  0  0  0  0  0  0
  1  2  1  0
  2  3  1  0
  3  4  1  0
  4  5  1  0
  4  6  1  0
  6  7  1  0
  7  8  2  0
  7 18  1  0
  8  9  1  0
  9 10  2  3
  9 16  1  0
 10 11  1  0
 11 12  1  0
 11 13  2  3
 13 14  1  0
 14 15  1  0
 16 17  1  0
 17 18  1  0
M  END
