
     RDKit          3D

 18 18  0  0  0  0  0  0  0  0999 V2000
    3.0560    3.7210   -1.0450 C   0  0  0  0  0  0  0  0  0  0  0  0
    3.3490    2.2300   -0.1420 S   0  0  0  0  0  0  0  0  0  0  0  0
    1.7560    1.3000    0.1110 C   0  0  0  0  0  0  0  0  0  0  0  0
    0.7180    1.8640   -0.4010 C   0  0  0  0  0  0  0  0  0  0  0  0
   -0.7020    1.5030   -0.4450 C   0  0  0  0  0  0  0  0  0  0  0  0
   -1.3290    0.9160    0.7550 C   0  0  0  0  0  0  0  0  0  0  0  0
   -2.8230    0.7830    0.4930 C   0  0  0  0  0  0  0  0  0  0  0  0
   -3.2820   -0.6330    0.4200 C   0  0  0  0  0  0  0  0  0  0  0  0
   -2.7500   -1.4000   -0.7670 C   0  0  0  0  0  0  0  0  0  0  0  0
   -1.5560   -2.2440   -0.4080 C   0  0  0  0  0  0  0  0  0  0  0  0
   -0.3980   -1.7180   -0.9520 O   0  0  0  0  0  0  0  0  0  0  0  0
    0.9060   -1.7820   -0.5140 C   0  0  0  0  0  0  0  0  0  0  0  0
    1.6900   -2.5070   -1.2700 O   0  0  0  0  0  0  0  0  0  0  0  0
    1.5620   -1.1870    0.6370 C   0  0  0  0  0  0  0  0  0  0  0  0
    1.9930   -2.2580    1.6620 C   0  0  0  0  0  0  0  0  0  0  0  0
    3.0260   -3.4910    0.7420 P   0  0  0  0  0  0  0  0  0  0  0  0
    4.4870   -3.1820    0.3090 O   0  0  0  0  0  0  0  0  0  0  0  0
    1.8860    0.0530    0.8560 C   0  0  0  0  0  0  0  0  0  0  0  0
  1  2  1  0
  2  3  1  0
  3  4  2  0
  3 18  1  0
  4  5  1  0
  5  6  1  0
  6  7  1  0
  7  8  1  0
  8  9  1  0
  9 10  1  0
 10 11  1  0
 11 12  1  0
 12 13  2  0
 12 14  1  0
 14 15  1  0
 14 18  2  0
 15 16  1  0
 16 17  2  0
M  END
