
     RDKit          3D

 23 24  0  0  0  0  0  0  0  0999 V2000
    0.1660   -0.9690    1.2480 C   0  0  0  0  0  0  0  0  0  0  0  0
    0.0950   -0.7520   -0.2300 C   0  0  0  0  0  0  0  0  0  0  0  0
    1.0850   -0.3530   -1.0090 C   0  0  0  0  0  0  0  0  0  0  0  0
    2.4650   -0.0180   -0.7150 C   0  0  0  0  0  0  0  0  0  0  0  0
    3.2290    0.3380   -1.6800 O   0  0  0  0  0  0  0  0  0  0  0  0
    3.0810   -0.0360    0.5400 N   0  0  0  0  0  0  0  0  0  0  0  0
    4.4840    0.3300    0.6860 C   0  0  0  0  0  0  0  0  0  0  0  0
    5.4580   -0.4090    1.1830 C   0  0  0  0  0  0  0  0  0  0  0  0
    6.7270    0.3440    1.1460 C   0  0  0  0  0  0  0  0  0  0  0  0
    6.3510    1.6320    0.5520 C   0  0  0  0  0  0  0  0  0  0  0  0
    5.0490    1.5950    0.2960 C   0  0  0  0  0  0  0  0  0  0  0  0
    4.3500    2.6360   -0.2690 F   0  0  0  0  0  0  0  0  0  0  0  0
    0.5430   -0.2730   -2.3900 C   0  0  0  0  0  0  0  0  0  0  0  0
    1.2040    0.0700   -3.4370 O   0  0  0  0  0  0  0  0  0  0  0  0
   -0.8640   -0.6520   -2.3400 C   0  0  0  0  0  0  0  0  0  0  0  0
   -1.1040   -0.9580   -0.9590 N   0  0  0  0  0  0  0  0  0  0  0  0
   -2.3840   -1.3850   -0.4410 C   0  0  0  0  0  0  0  0  0  0  0  0
   -3.3900   -0.2240   -0.5020 C   0  0  2  0  0  0  0  0  0  0  0  0
   -2.8670    0.9360    0.3180 C   0  0  0  0  0  0  0  0  0  0  0  0
   -4.6970   -0.7410    0.0420 C   0  0  0  0  0  0  0  0  0  0  0  0
   -5.7590    0.2840    0.0320 C   0  0  0  0  0  0  0  0  0  0  0  0
   -5.8730    1.3080    1.0030 N   0  0  0  0  0  0  0  0  0  0  0  0
   -6.6090    0.2470   -0.8900 O   0  0  0  0  0  0  0  0  0  0  0  0
  1  2  1  0
  2  3  2  0
  2 16  1  0
  3  4  1  0
  3 13  1  0
  4  5  2  0
  4  6  1  0
  6  7  1  0
  7  8  2  0
  7 11  1  0
  8  9  1  0
  9 10  1  0
 10 11  2  0
 11 12  1  0
 13 14  2  0
 13 15  1  0
 15 16  1  0
 16 17  1  0
 17 18  1  0
 18 19  1  1
 18 20  1  0
 20 21  1  0
 21 22  1  0
 21 23  2  0
M  END
