
     RDKit          3D

 22 24  0  0  0  0  0  0  0  0999 V2000
   -1.5320   -3.1530    0.0460 C   0  0  0  0  0  0  0  0  0  0  0  0
   -0.4350   -2.0950   -0.5290 C   0  0  0  0  0  0  0  0  0  0  0  0
   -1.3180   -0.9470   -0.7190 C   0  0  0  0  0  0  0  0  0  0  0  0
   -2.4360   -1.1180   -1.5820 C   0  0  0  0  0  0  0  0  0  0  0  0
   -3.4910   -0.2970   -1.5690 N   0  0  0  0  0  0  0  0  0  0  0  0
   -3.5490    0.7310   -0.7380 C   0  0  0  0  0  0  0  0  0  0  0  0
   -4.5580    1.5270   -0.7040 O   0  0  0  0  0  0  0  0  0  0  0  0
   -2.5080    0.9710    0.1210 C   0  0  0  0  0  0  0  0  0  0  0  0
   -2.5760    2.0490    0.9760 C   0  0  0  0  0  0  0  0  0  0  0  0
   -3.6230    2.8080    0.9670 N   0  0  0  0  0  0  0  0  0  0  0  0
   -1.5510    2.2680    1.7830 N   0  0  0  0  0  0  0  0  0  0  0  0
   -0.4640    1.4960    1.7930 C   0  0  0  0  0  0  0  0  0  0  0  0
    0.5220    1.6670    2.5290 O   0  0  0  0  0  0  0  0  0  0  0  0
   -0.3540    0.3960    0.9420 N   0  0  0  0  0  0  0  0  0  0  0  0
    0.9320   -0.1860    0.8600 C   0  0  0  0  0  0  0  0  0  0  0  0
    1.6520    0.9610   -0.0530 C   0  0  0  0  0  0  0  0  0  0  0  0
    3.0820    0.4680   -0.2180 C   0  0  0  0  0  0  0  0  0  0  0  0
    4.0890    1.0400   -0.8890 C   0  0  0  0  0  0  0  0  0  0  0  0
    5.2860    0.4230   -0.8990 C   0  0  0  0  0  0  0  0  0  0  0  0
    5.4270   -0.7330   -0.2440 C   0  0  0  0  0  0  0  0  0  0  0  0
    3.7620   -0.9770    0.4410 S   0  0  0  0  0  0  0  0  0  0  0  0
   -1.3620    0.1170    0.1260 C   0  0  0  0  0  0  0  0  0  0  0  0
  1  2  1  0
  2  3  1  0
  3  4  2  0
  3 22  1  0
  4  5  1  0
  5  6  1  0
  6  7  2  0
  6  8  1  0
  8  9  1  0
  8 22  2  0
  9 10  2  0
  9 11  1  0
 11 12  1  0
 12 13  2  0
 12 14  1  0
 14 15  1  0
 14 22  1  0
 15 16  1  0
 16 17  1  0
 17 18  2  0
 17 21  1  0
 18 19  1  0
 19 20  2  0
 20 21  1  0
M  END
