
     RDKit          3D

 11 11  0  0  0  0  0  0  0  0999 V2000
    0.8140    1.8940    0.2910 N   0  0  0  0  0  0  0  0  0  0  0  0
   -0.0670    0.7870    0.1190 C   0  0  0  0  0  0  0  0  0  0  0  0
   -1.4540    0.9720    0.1740 C   0  0  0  0  0  0  0  0  0  0  0  0
   -2.3300   -0.0680    0.0120 C   0  0  0  0  0  0  0  0  0  0  0  0
   -3.6830    0.1210    0.0670 F   0  0  0  0  0  0  0  0  0  0  0  0
   -1.8320   -1.3250   -0.2100 C   0  0  0  0  0  0  0  0  0  0  0  0
   -0.4470   -1.5090   -0.2650 C   0  0  0  0  0  0  0  0  0  0  0  0
    0.4310   -0.4740   -0.1040 C   0  0  0  0  0  0  0  0  0  0  0  0
    1.8520   -0.7440   -0.1740 C   0  0  0  0  0  0  0  0  0  0  0  0
    2.2990   -1.9010   -0.3780 O   0  0  0  0  0  0  0  0  0  0  0  0
    2.8150    0.2610   -0.0200 O   0  0  0  0  0  0  0  0  0  0  0  0
  1  2  1  0
  2  3  2  0
  2  8  1  0
  3  4  1  0
  4  5  1  0
  4  6  2  0
  6  7  1  0
  7  8  2  0
  8  9  1  0
  9 10  2  0
  9 11  1  0
M  END
