
     RDKit          3D

 23 24  0  0  0  0  0  0  0  0999 V2000
    1.2670    5.7530    0.2660 C   0  0  0  0  0  0  0  0  0  0  0  0
    0.4850    4.6040    0.2290 O   0  0  0  0  0  0  0  0  0  0  0  0
    0.8690    3.3010    0.1380 C   0  0  0  0  0  0  0  0  0  0  0  0
    2.1670    2.8690    0.0570 C   0  0  0  0  0  0  0  0  0  0  0  0
    2.4910    1.5410   -0.0370 C   0  0  0  0  0  0  0  0  0  0  0  0
    1.4750    0.5720   -0.0500 C   0  0  0  0  0  0  0  0  0  0  0  0
    1.6640   -0.7200   -0.1510 O   0  0  0  0  0  0  0  0  0  0  0  0
    2.3070   -1.8100   -0.2870 C   0  0  0  0  0  0  0  0  0  0  0  0
    3.5700   -2.0880   -0.0530 C   0  0  0  0  0  0  0  0  0  0  0  0
    4.1330   -3.4190   -0.2750 C   0  0  0  0  0  0  0  0  0  0  0  0
    5.3980   -3.6290   -0.0180 C   0  0  0  0  0  0  0  0  0  0  0  0
    5.9560   -4.8370   -0.2090 F   0  0  0  0  0  0  0  0  0  0  0  0
    0.1320    1.0330    0.0400 C   0  0  0  0  0  0  0  0  0  0  0  0
   -0.9040   -0.0120    0.1320 C   0  0  2  0  0  0  0  0  0  0  0  0
   -0.4330   -1.1760   -0.4700 O   0  0  0  0  0  0  0  0  0  0  0  0
   -2.1920    0.4670   -0.4440 C   0  0  0  0  0  0  0  0  0  0  0  0
   -3.2270   -0.5590   -0.4080 N   0  0  0  0  0  0  0  0  0  0  0  0
   -4.1940   -0.8600    0.4210 C   0  0  0  0  0  0  0  0  0  0  0  0
   -4.8510   -1.9890   -0.0030 C   0  0  0  0  0  0  0  0  0  0  0  0
   -5.9560   -2.7040    0.5290 N   0  0  0  0  0  0  0  0  0  0  0  0
   -4.1930   -2.3510   -1.1680 C   0  0  0  0  0  0  0  0  0  0  0  0
   -3.2200   -1.4810   -1.3950 N   0  0  0  0  0  0  0  0  0  0  0  0
   -0.1690    2.3490    0.1280 C   0  0  0  0  0  0  0  0  0  0  0  0
  1  2  1  0
  2  3  1  0
  3  4  2  0
  3 23  1  0
  4  5  1  0
  5  6  2  0
  6  7  1  0
  6 13  1  0
  7  8  1  0
  8  9  2  3
  9 10  1  0
 10 11  2  3
 11 12  1  0
 13 14  1  0
 13 23  2  0
 14 15  1  6
 14 16  1  0
 16 17  1  0
 17 18  1  0
 17 22  1  0
 18 19  2  0
 19 20  1  0
 19 21  1  0
 21 22  2  0
M  END
