
     RDKit          3D

 23 24  0  0  0  0  0  0  0  0999 V2000
    2.9230    0.6970   -2.9200 C   0  0  0  0  0  0  0  0  0  0  0  0
    3.3590    0.2020   -1.5460 C   0  0  0  0  0  0  0  0  0  0  0  0
    2.2170   -0.1250   -0.7350 N   0  0  0  0  0  0  0  0  0  0  0  0
    2.3770   -0.6250    0.4280 C   0  0  0  0  0  0  0  0  0  0  0  0
    3.7330   -0.8370    0.8720 N   0  0  0  0  0  0  0  0  0  0  0  0
    1.3030   -0.9680    1.3230 N   0  0  0  0  0  0  0  0  0  0  0  0
    1.3510   -2.2480    1.9730 C   0  0  0  0  0  0  0  0  0  0  0  0
    2.5220   -3.0330    1.5090 C   0  0  0  0  0  0  0  0  0  0  0  0
    0.3040    0.0000    1.4990 C   0  0  0  0  0  0  0  0  0  0  0  0
   -0.8040    0.1620    0.5940 C   0  0  0  0  0  0  0  0  0  0  0  0
   -1.6860    1.2300    0.8540 C   0  0  0  0  0  0  0  0  0  0  0  0
   -1.4100    2.0610    1.9240 O   0  0  0  0  0  0  0  0  0  0  0  0
   -2.2640    3.1400    2.2200 C   0  0  0  0  0  0  0  0  0  0  0  0
   -1.7980    3.8330    3.3250 F   0  0  0  0  0  0  0  0  0  0  0  0
   -2.8020    1.4840    0.1000 C   0  0  0  0  0  0  0  0  0  0  0  0
   -3.0880    0.6700   -0.9620 C   0  0  0  0  0  0  0  0  0  0  0  0
   -4.2100    0.9270   -1.7200 O   0  0  0  0  0  0  0  0  0  0  0  0
   -5.0290    2.0220   -1.3780 C   0  0  0  0  0  0  0  0  0  0  0  0
   -2.2340   -0.3880   -1.2350 C   0  0  0  0  0  0  0  0  0  0  0  0
   -2.2950   -1.2980   -2.1810 O   0  0  0  0  0  0  0  0  0  0  0  0
   -1.2980   -2.1270   -2.0930 C   0  0  0  0  0  0  0  0  0  0  0  0
   -0.4940   -1.7720   -1.0210 C   0  0  0  0  0  0  0  0  0  0  0  0
   -1.0930   -0.6490   -0.4650 C   0  0  0  0  0  0  0  0  0  0  0  0
  1  2  1  0
  2  3  1  0
  3  4  2  3
  4  5  1  0
  4  6  1  0
  6  7  1  0
  6  9  1  0
  7  8  1  0
  9 10  1  0
 10 11  2  0
 10 23  1  0
 11 12  1  0
 11 15  1  0
 12 13  1  0
 13 14  1  0
 15 16  2  0
 16 17  1  0
 16 19  1  0
 17 18  1  0
 19 20  1  0
 19 23  2  0
 20 21  1  0
 21 22  2  0
 22 23  1  0
M  END
