
     RDKit          3D

 23 24  0  0  0  0  0  0  0  0999 V2000
   -4.9900    2.4780    0.4120 C   0  0  0  0  0  0  0  0  0  0  0  0
   -5.0780    1.1980    0.1440 C   0  0  0  0  0  0  0  0  0  0  0  0
   -6.2490    0.5590    0.2710 F   0  0  0  0  0  0  0  0  0  0  0  0
   -3.8500    0.4980   -0.2960 C   0  0  0  0  0  0  0  0  0  0  0  0
   -3.8960   -0.7760   -0.5730 C   0  0  0  0  0  0  0  0  0  0  0  0
   -5.1600   -1.5340   -0.4520 C   0  0  0  0  0  0  0  0  0  0  0  0
   -2.6890   -1.4980   -1.0130 C   0  0  0  0  0  0  0  0  0  0  0  0
   -1.8280   -0.5210   -1.7810 C   0  0  0  0  0  0  0  0  0  0  0  0
   -1.3880    0.5610   -0.8230 C   0  0  2  0  0  0  0  0  0  0  0  0
   -0.7810    0.0280    0.3350 O   0  0  0  0  0  0  0  0  0  0  0  0
    0.5170    0.3470    0.7310 C   0  0  0  0  0  0  0  0  0  0  0  0
    1.1370    1.1450   -0.0010 O   0  0  0  0  0  0  0  0  0  0  0  0
    1.0160   -0.2840    1.9600 C   0  0  0  0  0  0  0  0  0  0  0  0
    2.4390    0.1700    2.2090 C   0  0  0  0  0  0  0  0  0  0  0  0
    3.3120   -0.2390    1.0520 C   0  0  0  0  0  0  0  0  0  0  0  0
    2.7980   -0.8760    0.1100 O   0  0  0  0  0  0  0  0  0  0  0  0
    4.6720    0.0910    1.0390 N   0  0  0  0  0  0  0  0  0  0  0  0
    5.5650   -0.2540   -0.0080 C   0  0  0  0  0  0  0  0  0  0  0  0
    6.9240    0.0540   -0.0610 C   0  0  0  0  0  0  0  0  0  0  0  0
    7.4260   -0.4500   -1.2220 C   0  0  0  0  0  0  0  0  0  0  0  0
    6.4040   -1.0390   -1.8430 N   0  0  0  0  0  0  0  0  0  0  0  0
    5.2870   -0.9240   -1.1190 N   0  0  0  0  0  0  0  0  0  0  0  0
   -2.6110    1.3090   -0.4000 C   0  0  0  0  0  0  0  0  0  0  0  0
  1  2  2  0
  2  3  1  0
  2  4  1  0
  4  5  2  0
  4 23  1  0
  5  6  1  0
  5  7  1  0
  7  8  1  0
  8  9  1  0
  9 10  1  1
  9 23  1  0
 10 11  1  0
 11 12  2  0
 11 13  1  0
 13 14  1  0
 14 15  1  0
 15 16  2  0
 15 17  1  0
 17 18  1  0
 18 19  2  0
 18 22  1  0
 19 20  1  0
 20 21  2  0
 21 22  1  0
M  END
