
     RDKit          3D

 10 10  0  0  0  0  0  0  0  0999 V2000
    2.9050    1.1740   -0.5870 O   0  0  0  0  0  0  0  0  0  0  0  0
    2.9610   -0.1880   -0.4600 C   0  0  0  0  0  0  0  0  0  0  0  0
    1.6760   -0.9170   -0.5520 C   0  0  0  0  0  0  0  0  0  0  0  0
    0.6350   -0.5830    0.4660 C   0  0  2  0  0  0  0  0  0  0  0  0
   -0.5650   -1.4610    0.1500 C   0  0  0  0  0  0  0  0  0  0  0  0
   -1.8640   -0.9440    0.6430 C   0  0  0  0  0  0  0  0  0  0  0  0
   -2.5240   -0.0640   -0.4050 C   0  0  0  0  0  0  0  0  0  0  0  0
   -2.0240    1.3320   -0.2300 C   0  0  0  0  0  0  0  0  0  0  0  0
   -0.5430    1.3750   -0.5620 C   0  0  0  0  0  0  0  0  0  0  0  0
    0.2710    0.8570    0.5780 C   0  0  0  0  0  0  0  0  0  0  0  0
  1  2  1  0
  2  3  1  0
  4  3  1  6
  4  5  1  0
  4 10  1  0
  5  6  1  0
  6  7  1  0
  7  8  1  0
  8  9  1  0
  9 10  1  0
M  END
