
     RDKit          3D

 10 10  0  0  0  0  0  0  0  0999 V2000
    4.0610    0.5310   -1.0190 O   0  0  0  0  0  0  0  0  0  0  0  0
    2.9860    0.1130   -0.2030 C   0  0  0  0  0  0  0  0  0  0  0  0
    1.8110   -0.0900   -1.1100 C   0  0  0  0  0  0  0  0  0  0  0  0
    0.5760   -0.5390   -0.3900 C   0  0  0  0  0  0  0  0  0  0  0  0
    0.1890    0.4810    0.6200 C   0  0  0  0  0  0  0  0  0  0  0  0
   -1.0470    0.1220    1.4020 C   0  0  0  0  0  0  0  0  0  0  0  0
   -2.2190   -0.0450    0.5100 C   0  0  0  0  0  0  0  0  0  0  0  0
   -3.0510   -1.0140    0.2250 C   0  0  0  0  0  0  0  0  0  0  0  0
   -3.7200   -0.1080   -0.6940 C   0  0  0  0  0  0  0  0  0  0  0  0
   -2.8820    0.8720   -0.4090 C   0  0  0  0  0  0  0  0  0  0  0  0
  1  2  1  0
  2  3  1  0
  3  4  1  0
  4  5  1  0
  5  6  1  0
  6  7  1  0
  7  8  2  0
  7 10  1  0
  8  9  1  0
  9 10  2  0
M  END
