
     RDKit          3D

 10 10  0  0  0  0  0  0  0  0999 V2000
   -1.9810    1.6100    0.3840 C   0  0  0  0  0  0  0  0  0  0  0  0
   -2.0470    0.1580    0.0730 C   0  0  0  0  0  0  0  0  0  0  0  0
   -0.7060   -0.5030   -0.0880 C   0  0  2  0  0  0  0  0  0  0  0  0
   -0.9980   -1.9790   -0.4010 C   0  0  0  0  0  0  0  0  0  0  0  0
    0.0960   -0.5140    1.1990 C   0  0  0  0  0  0  0  0  0  0  0  0
    1.5350   -0.8420    0.7820 C   0  0  0  0  0  0  0  0  0  0  0  0
    2.1020    0.4600    0.2390 C   0  0  1  0  0  0  0  0  0  0  0  0
    3.4110    0.2960   -0.1600 O   0  0  0  0  0  0  0  0  0  0  0  0
    1.1910    0.9750   -0.8190 C   0  0  0  0  0  0  0  0  0  0  0  0
    0.1000    0.0320   -1.2180 C   0  0  0  0  0  0  0  0  0  0  0  0
  1  2  1  0
  2  3  1  0
  3  4  1  6
  3  5  1  0
  3 10  1  0
  5  6  1  0
  6  7  1  0
  7  8  1  6
  7  9  1  0
  9 10  1  0
M  END
