
     RDKit          3D

 24 25  0  0  0  0  0  0  0  0999 V2000
   -5.8260   -1.1220   -0.6080 C   0  0  0  0  0  0  0  0  0  0  0  0
   -4.6050   -0.5880   -0.4600 C   0  0  0  0  0  0  0  0  0  0  0  0
   -3.4960   -1.4830   -0.2960 C   0  0  0  0  0  0  0  0  0  0  0  0
   -2.2190   -1.0830   -0.1510 C   0  0  0  0  0  0  0  0  0  0  0  0
   -2.0260    0.2610   -0.1710 O   0  0  0  0  0  0  0  0  0  0  0  0
   -1.2170   -2.1000    0.0170 C   0  0  0  0  0  0  0  0  0  0  0  0
    0.0570   -2.1410    0.1520 C   0  0  0  0  0  0  0  0  0  0  0  0
    0.5360   -3.5410    0.3120 O   0  0  0  0  0  0  0  0  0  0  0  0
    1.1460   -1.2200    0.1690 C   0  0  0  0  0  0  0  0  0  0  0  0
    2.2490   -1.5380    0.9910 C   0  0  0  0  0  0  0  0  0  0  0  0
    3.3430   -0.7180    0.9440 C   0  0  0  0  0  0  0  0  0  0  0  0
    3.4280    0.3970    0.1420 C   0  0  0  0  0  0  0  0  0  0  0  0
    2.3830    0.7140   -0.6510 C   0  0  0  0  0  0  0  0  0  0  0  0
    1.2370   -0.1130   -0.6280 C   0  0  0  0  0  0  0  0  0  0  0  0
    0.2530    0.3070   -1.4910 O   0  0  0  0  0  0  0  0  0  0  0  0
    0.2910    1.4180   -2.3210 C   0  0  0  0  0  0  0  0  0  0  0  0
    4.6980    1.1790    0.2190 C   0  0  0  0  0  0  0  0  0  0  0  0
    5.8580    0.2630    0.3370 C   0  0  1  0  0  0  0  0  0  0  0  0
    7.0040    1.0270    1.0080 C   0  0  0  0  0  0  0  0  0  0  0  0
    5.6610   -0.8970    1.0030 O   0  0  0  0  0  0  0  0  0  0  0  0
    4.5530   -0.9900    1.7870 C   0  0  0  0  0  0  0  0  0  0  0  0
   -4.4350    0.8630   -0.4480 C   0  0  0  0  0  0  0  0  0  0  0  0
   -5.7520    1.6310   -0.5180 C   0  0  0  0  0  0  0  0  0  0  0  0
   -6.6370    1.3900    0.6710 C   0  0  0  0  0  0  0  0  0  0  0  0
  1  2  2  0
  2  3  1  0
  2 22  1  0
  3  4  2  3
  4  5  1  0
  4  6  1  0
  6  7  2  3
  7  8  1  0
  7  9  1  0
  9 10  2  0
  9 14  1  0
 10 11  1  0
 11 12  2  0
 11 21  1  0
 12 13  1  0
 12 17  1  0
 13 14  2  0
 14 15  1  0
 15 16  1  0
 17 18  1  0
 18 19  1  1
 18 20  1  0
 20 21  1  0
 22 23  1  0
 23 24  1  0
M  END
