
     RDKit          3D

 10  9  0  0  0  0  0  0  0  0999 V2000
    3.3110    1.4540    1.0410 C   0  0  0  0  0  0  0  0  0  0  0  0
    2.9620    0.2600    1.8490 C   0  0  0  0  0  0  0  0  0  0  0  0
    1.9000   -0.4640    1.5580 C   0  0  0  0  0  0  0  0  0  0  0  0
    1.0660   -0.0850    0.4350 C   0  0  0  0  0  0  0  0  0  0  0  0
   -0.0140   -0.7530    0.0750 C   0  0  0  0  0  0  0  0  0  0  0  0
   -0.4060   -1.9480    0.8450 C   0  0  0  0  0  0  0  0  0  0  0  0
   -0.8220   -0.3250   -1.0720 C   0  0  0  0  0  0  0  0  0  0  0  0
   -2.2500    0.0020   -0.6960 C   0  0  0  0  0  0  0  0  0  0  0  0
   -2.9700    0.4270   -1.9590 C   0  0  0  0  0  0  0  0  0  0  0  0
   -2.3200    1.5410   -2.4710 O   0  0  0  0  0  0  0  0  0  0  0  0
  1  2  1  0
  2  3  2  3
  3  4  1  0
  4  5  2  3
  5  6  1  0
  5  7  1  0
  7  8  1  0
  8  9  1  0
  9 10  1  0
M  END
