
     RDKit          3D

 10 10  0  0  0  0  0  0  0  0999 V2000
    2.8710    0.9990   -0.3060 C   0  0  0  0  0  0  0  0  0  0  0  0
    1.7320   -0.0560   -0.3130 C   0  0  2  0  0  0  0  0  0  0  0  0
    1.8290   -0.7670    0.9950 C   0  0  0  0  0  0  0  0  0  0  0  0
    1.9870   -0.9610   -1.3470 O   0  0  0  0  0  0  0  0  0  0  0  0
    0.4470    0.6370   -0.5700 C   0  0  0  0  0  0  0  0  0  0  0  0
   -0.7690   -0.2230   -0.6450 C   0  0  1  0  0  0  0  0  0  0  0  0
   -1.1200   -1.0010    0.5690 C   0  0  0  0  0  0  0  0  0  0  0  0
   -2.6530   -0.7850    0.7030 C   0  0  0  0  0  0  0  0  0  0  0  0
   -2.6560    0.7170    0.4200 C   0  0  0  0  0  0  0  0  0  0  0  0
   -1.9430    0.7420   -0.9120 C   0  0  0  0  0  0  0  0  0  0  0  0
  2  1  1  1
  2  3  1  0
  2  4  1  0
  2  5  1  0
  6  5  1  1
  6  7  1  0
  6 10  1  0
  7  8  1  0
  8  9  1  0
  9 10  1  0
M  END
