
     RDKit          3D

 22 22  0  0  0  0  0  0  0  0999 V2000
   -1.3830    3.3520   -0.3630 O   0  0  0  0  0  0  0  0  0  0  0  0
   -0.7920    2.2540   -0.6170 C   0  0  0  0  0  0  0  0  0  0  0  0
    0.5150    2.0600   -0.8600 O   0  0  0  0  0  0  0  0  0  0  0  0
    1.6370    1.7310   -0.1500 C   0  0  0  0  0  0  0  0  0  0  0  0
    2.3140    0.4550   -0.5220 C   0  0  1  0  0  0  0  0  0  0  0  0
    1.7560   -0.0890   -1.6880 O   0  0  0  0  0  0  0  0  0  0  0  0
    3.7550    0.7470   -0.8830 C   0  0  0  0  0  0  0  0  0  0  0  0
    4.4650    1.2990    0.1720 O   0  0  0  0  0  0  0  0  0  0  0  0
    2.3260   -0.5440    0.6070 C   0  0  2  0  0  0  0  0  0  0  0  0
    3.5920   -0.4920    1.2390 O   0  0  0  0  0  0  0  0  0  0  0  0
    1.9880   -1.9410    0.1970 C   0  0  0  0  0  0  0  0  0  0  0  0
    0.7330   -2.3500    0.6940 O   0  0  0  0  0  0  0  0  0  0  0  0
   -0.2780   -1.5450    0.1750 C   0  0  0  0  0  0  0  0  0  0  0  0
   -1.6340   -1.7990    0.7190 C   0  0  2  0  0  0  0  0  0  0  0  0
   -2.4290   -2.4890   -0.2250 O   0  0  0  0  0  0  0  0  0  0  0  0
   -2.3450   -0.5710    1.1520 C   0  0  0  0  0  0  0  0  0  0  0  0
   -3.2530   -0.7680    2.0780 C   0  0  0  0  0  0  0  0  0  0  0  0
   -3.5570   -2.0100    2.6350 O   0  0  0  0  0  0  0  0  0  0  0  0
   -2.0560    0.6160    0.6200 O   0  0  0  0  0  0  0  0  0  0  0  0
   -1.7230    1.0930   -0.6300 C   0  0  1  0  0  0  0  0  0  0  0  0
   -3.0430    1.6380   -1.2160 C   0  0  0  0  0  0  0  0  0  0  0  0
   -3.9940    0.6330   -1.3030 O   0  0  0  0  0  0  0  0  0  0  0  0
  1  2  2  0
  2  3  1  0
  2 20  1  0
  3  4  1  0
  4  5  1  0
  5  6  1  6
  5  7  1  0
  5  9  1  0
  7  8  1  0
  9 10  1  6
  9 11  1  0
 11 12  1  0
 12 13  1  0
 13 14  1  0
 14 15  1  6
 14 16  1  0
 16 17  2  3
 16 19  1  0
 17 18  1  0
 19 20  1  0
 20 21  1  1
 21 22  1  0
M  END
