
     RDKit          3D

 22 22  0  0  0  0  0  0  0  0999 V2000
    0.4840   -0.7170    1.5290 O   0  0  0  0  0  0  0  0  0  0  0  0
    0.0610    0.0040    0.5570 C   0  0  0  0  0  0  0  0  0  0  0  0
    1.0620    0.4030   -0.2860 O   0  0  0  0  0  0  0  0  0  0  0  0
    2.3990    0.0740   -0.1250 C   0  0  2  0  0  0  0  0  0  0  0  0
    2.6950   -1.3950   -0.1400 C   0  0  0  0  0  0  0  0  0  0  0  0
    2.2840   -1.9020   -1.3630 O   0  0  0  0  0  0  0  0  0  0  0  0
    2.8980    0.7490    1.1440 C   0  0  0  0  0  0  0  0  0  0  0  0
    3.5500    1.9950    0.5930 C   0  0  0  0  0  0  0  0  0  0  0  0
    3.2290    2.0680   -0.7520 O   0  0  0  0  0  0  0  0  0  0  0  0
    3.2790    0.7350   -1.1650 C   0  0  1  0  0  0  0  0  0  0  0  0
    4.5700    0.2310   -1.0530 O   0  0  0  0  0  0  0  0  0  0  0  0
   -1.3780    0.3220    0.4410 C   0  0  2  0  0  0  0  0  0  0  0  0
   -2.1460   -0.3530    1.5510 C   0  0  2  0  0  0  0  0  0  0  0  0
   -1.6220    0.1140    2.7750 O   0  0  0  0  0  0  0  0  0  0  0  0
   -2.1240   -1.8360    1.5410 C   0  0  0  0  0  0  0  0  0  0  0  0
   -2.9230   -2.2960    2.6200 O   0  0  0  0  0  0  0  0  0  0  0  0
   -1.9540    0.0930   -0.9250 C   0  0  2  0  0  0  0  0  0  0  0  0
   -1.8640   -1.1880   -1.4000 O   0  0  0  0  0  0  0  0  0  0  0  0
   -1.2680    1.0670   -1.8860 C   0  0  0  0  0  0  0  0  0  0  0  0
   -1.3560    2.3380   -1.3730 O   0  0  0  0  0  0  0  0  0  0  0  0
   -3.4340    0.4930   -0.8980 C   0  0  0  0  0  0  0  0  0  0  0  0
   -3.9970    0.4620   -2.1680 O   0  0  0  0  0  0  0  0  0  0  0  0
  1  2  2  0
  2  3  1  0
 12  2  1  6
  3  4  1  0
  4  5  1  1
  4  7  1  0
  4 10  1  0
  5  6  1  0
  7  8  1  0
  8  9  1  0
  9 10  1  0
 10 11  1  1
 12 13  1  0
 12 17  1  0
 13 14  1  1
 13 15  1  0
 15 16  1  0
 17 18  1  6
 17 19  1  0
 17 21  1  0
 19 20  1  0
 21 22  1  0
M  END
