
     RDKit          3D

 12 13  0  0  0  0  0  0  0  0999 V2000
    3.8880    0.6050   -0.0210 O   0  0  0  0  0  0  0  0  0  0  0  0
    3.0490   -0.2920   -0.0710 N   0  0  0  0  0  0  0  0  0  0  0  0
    3.4640   -1.5950   -0.1710 O   0  0  0  0  0  0  0  0  0  0  0  0
    1.6370   -0.0420   -0.0300 C   0  0  0  0  0  0  0  0  0  0  0  0
    1.1410    1.2410    0.0700 C   0  0  0  0  0  0  0  0  0  0  0  0
   -0.2380    1.4560    0.1080 C   0  0  0  0  0  0  0  0  0  0  0  0
   -1.1360    0.4240    0.0490 C   0  0  0  0  0  0  0  0  0  0  0  0
   -2.4780    0.3790    0.0680 N   0  0  0  0  0  0  0  0  0  0  0  0
   -2.8740   -0.9210   -0.0180 C   0  0  0  0  0  0  0  0  0  0  0  0
   -1.7430   -1.6500   -0.0890 N   0  0  0  0  0  0  0  0  0  0  0  0
   -0.6530   -0.8600   -0.0510 C   0  0  0  0  0  0  0  0  0  0  0  0
    0.7210   -1.0710   -0.0880 C   0  0  0  0  0  0  0  0  0  0  0  0
  1  2  2  0
  2  3  1  0
  2  4  1  0
  4  5  2  0
  4 12  1  0
  5  6  1  0
  6  7  2  0
  7  8  1  0
  7 11  1  0
  8  9  1  0
  9 10  2  0
 10 11  1  0
 11 12  2  0
M  CHG  2   2   1   3  -1
M  END
