
     RDKit          3D

 22 22  0  0  0  0  0  0  0  0999 V2000
   -3.5390    1.2900    2.8190 O   0  0  0  0  0  0  0  0  0  0  0  0
   -4.1110    1.3410    1.7040 C   0  0  0  0  0  0  0  0  0  0  0  0
   -5.4790    1.1780    1.6610 O   0  0  0  0  0  0  0  0  0  0  0  0
   -3.3370    1.5670    0.4870 C   0  0  1  0  0  0  0  0  0  0  0  0
   -1.9770    1.7030    0.7690 O   0  0  0  0  0  0  0  0  0  0  0  0
   -1.3590    2.0310   -0.4510 C   0  0  0  0  0  0  0  0  0  0  0  0
   -1.2960    0.8300   -1.3280 C   0  0  1  0  0  0  0  0  0  0  0  0
   -0.8180   -0.3160   -0.7400 O   0  0  0  0  0  0  0  0  0  0  0  0
    0.1680   -0.9760   -1.3860 C   0  0  2  0  0  0  0  0  0  0  0  0
   -0.1200   -2.2720   -1.7650 O   0  0  0  0  0  0  0  0  0  0  0  0
    1.5120   -1.0160   -0.6170 C   0  0  2  0  0  0  0  0  0  0  0  0
    2.3520   -1.7330   -1.4640 O   0  0  0  0  0  0  0  0  0  0  0  0
    1.3610   -1.7360    0.6640 C   0  0  0  0  0  0  0  0  0  0  0  0
    0.7490   -2.9980    0.5030 O   0  0  0  0  0  0  0  0  0  0  0  0
    2.0450    0.3640   -0.4470 C   0  0  0  0  0  0  0  0  0  0  0  0
    3.1950    0.6400   -0.0070 O   0  0  0  0  0  0  0  0  0  0  0  0
    4.1530    0.7060    0.7950 C   0  0  0  0  0  0  0  0  0  0  0  0
    4.8030   -0.5420    1.4090 C   0  0  0  0  0  0  0  0  0  0  0  0
    5.8590   -0.1610    2.2500 O   0  0  0  0  0  0  0  0  0  0  0  0
   -2.7520    0.5160   -1.7200 C   0  0  0  0  0  0  0  0  0  0  0  0
   -3.6260    0.4680   -0.4940 C   0  0  1  0  0  0  0  0  0  0  0  0
   -3.6280   -0.7710    0.1260 O   0  0  0  0  0  0  0  0  0  0  0  0
  1  2  2  0
  2  3  1  0
  4  2  1  1
  4  5  1  0
  4 21  1  0
  5  6  1  0
  6  7  1  0
  7  8  1  1
  7 20  1  0
  8  9  1  0
  9 10  1  1
  9 11  1  0
 11 12  1  6
 11 13  1  0
 11 15  1  0
 13 14  1  0
 15 16  1  0
 16 17  1  0
 17 18  1  0
 18 19  1  0
 20 21  1  0
 21 22  1  1
M  END
