
     RDKit          3D

 22 23  0  0  0  0  0  0  0  0999 V2000
    2.8990    1.7620    1.2110 O   0  0  0  0  0  0  0  0  0  0  0  0
    2.6600    0.7740    0.4710 C   0  0  0  0  0  0  0  0  0  0  0  0
    1.2950    0.1750    0.5620 C   0  0  0  0  0  0  0  0  0  0  0  0
    0.2920    1.0150   -0.1710 C   0  0  1  0  0  0  0  0  0  0  0  0
    0.2060    2.3050    0.3320 O   0  0  0  0  0  0  0  0  0  0  0  0
    0.7510    1.1420   -1.5000 O   0  0  0  0  0  0  0  0  0  0  0  0
   -1.0620    0.3900   -0.2470 C   0  0  2  0  0  0  0  0  0  0  0  0
   -1.9150    1.1200   -1.0860 O   0  0  0  0  0  0  0  0  0  0  0  0
   -1.6900    0.2100    1.1270 C   0  0  0  0  0  0  0  0  0  0  0  0
   -2.8090   -0.7810    0.7780 C   0  0  1  0  0  0  0  0  0  0  0  0
   -3.0770   -1.5890    1.8980 O   0  0  0  0  0  0  0  0  0  0  0  0
   -4.0220   -0.0260    0.3980 C   0  0  0  0  0  0  0  0  0  0  0  0
   -4.7400   -0.5620   -0.8140 C   0  0  0  0  0  0  0  0  0  0  0  0
   -3.8830   -0.8890   -1.8540 O   0  0  0  0  0  0  0  0  0  0  0  0
   -3.0840   -1.9270   -1.4450 C   0  0  0  0  0  0  0  0  0  0  0  0
   -2.1580   -1.5620   -0.3180 C   0  0  1  0  0  0  0  0  0  0  0  0
   -1.0170   -0.9090   -0.7140 O   0  0  0  0  0  0  0  0  0  0  0  0
    3.6080    0.2600   -0.3880 O   0  0  0  0  0  0  0  0  0  0  0  0
    4.9070    0.7870   -0.5060 C   0  0  0  0  0  0  0  0  0  0  0  0
    5.6430    0.6820    0.8010 C   0  0  1  0  0  0  0  0  0  0  0  0
    5.7030   -0.6700    1.1390 O   0  0  0  0  0  0  0  0  0  0  0  0
    6.9400    1.1750    0.6410 O   0  0  0  0  0  0  0  0  0  0  0  0
  1  2  2  0
  2  3  1  0
  2 18  1  0
  3  4  1  0
  4  5  1  1
  4  6  1  0
  4  7  1  0
  7  8  1  6
  7  9  1  0
  7 17  1  0
  9 10  1  0
 10 11  1  1
 10 12  1  0
 10 16  1  0
 12 13  1  0
 13 14  1  0
 14 15  1  0
 16 15  1  6
 16 17  1  0
 18 19  1  0
 19 20  1  0
 20 21  1  6
 20 22  1  0
M  END
