
     RDKit          3D

 20 21  0  0  0  0  0  0  0  0999 V2000
   -0.1420    0.2640    1.9730 O   0  0  0  0  0  0  0  0  0  0  0  0
    0.1040   -0.4860    1.0020 C   0  0  0  0  0  0  0  0  0  0  0  0
   -0.7910   -1.6260    0.6950 C   0  0  0  0  0  0  0  0  0  0  0  0
   -2.0350   -1.1140    0.1560 N   0  0  0  0  0  0  0  0  0  0  0  0
   -2.3150   -0.8480   -1.1050 N   0  0  0  0  0  0  0  0  0  0  0  0
   -3.5690   -0.3810   -1.1770 C   0  0  0  0  0  0  0  0  0  0  0  0
   -4.0960   -0.3520    0.0810 C   0  0  0  0  0  0  0  0  0  0  0  0
   -5.4290    0.0720    0.4970 C   0  0  0  0  0  0  0  0  0  0  0  0
   -5.7970   -0.0370    1.7100 O   0  0  0  0  0  0  0  0  0  0  0  0
   -6.3180    0.6010   -0.4220 O   0  0  0  0  0  0  0  0  0  0  0  0
   -3.1000   -0.8260    0.9330 C   0  0  0  0  0  0  0  0  0  0  0  0
   -3.2500   -0.9330    2.1720 O   0  0  0  0  0  0  0  0  0  0  0  0
    1.2360   -0.1990    0.2470 O   0  0  0  0  0  0  0  0  0  0  0  0
    2.0520    0.8830    0.5570 C   0  0  0  0  0  0  0  0  0  0  0  0
    1.7490    1.6020    1.5160 O   0  0  0  0  0  0  0  0  0  0  0  0
    3.2500    1.0990   -0.2960 C   0  0  1  0  0  0  0  0  0  0  0  0
    4.5250    0.9480    0.4960 C   0  0  0  0  0  0  0  0  0  0  0  0
    5.4250    0.3900   -0.6180 C   0  0  0  0  0  0  0  0  0  0  0  0
    4.5440   -0.3080   -1.4130 O   0  0  0  0  0  0  0  0  0  0  0  0
    3.3650    0.1470   -1.2670 O   0  0  0  0  0  0  0  0  0  0  0  0
  1  2  2  0
  2  3  1  0
  2 13  1  0
  3  4  1  0
  4  5  1  0
  4 11  1  0
  5  6  1  0
  6  7  2  0
  7  8  1  0
  7 11  1  0
  8  9  2  0
  8 10  1  0
 11 12  2  0
 13 14  1  0
 14 15  2  0
 16 14  1  1
 16 17  1  0
 16 20  1  0
 17 18  1  0
 18 19  1  0
 19 20  1  0
M  END
