
     RDKit          3D

 20 21  0  0  0  0  0  0  0  0999 V2000
   -0.1270   -1.0950    2.2190 O   0  0  0  0  0  0  0  0  0  0  0  0
    0.0640   -0.3600    1.1510 C   0  0  0  0  0  0  0  0  0  0  0  0
    1.3340    0.0870    1.1680 N   0  0  0  0  0  0  0  0  0  0  0  0
    2.5650    0.5510    1.1340 C   0  0  0  0  0  0  0  0  0  0  0  0
    3.1900    0.1000    2.2030 O   0  0  0  0  0  0  0  0  0  0  0  0
    3.2660    1.3540    0.2620 C   0  0  0  0  0  0  0  0  0  0  0  0
    4.6020    1.7570    0.3950 C   0  0  0  0  0  0  0  0  0  0  0  0
    4.8740    2.4980   -0.6210 O   0  0  0  0  0  0  0  0  0  0  0  0
    3.8680    2.6450   -1.4310 C   0  0  0  0  0  0  0  0  0  0  0  0
    2.8260    1.9420   -0.9200 C   0  0  0  0  0  0  0  0  0  0  0  0
    1.5310    1.7720   -1.3970 O   0  0  0  0  0  0  0  0  0  0  0  0
    1.3300    0.7910   -2.3150 O   0  0  0  0  0  0  0  0  0  0  0  0
   -0.9700   -0.1910    0.2830 N   0  0  0  0  0  0  0  0  0  0  0  0
   -2.2380   -0.8170    0.5490 C   0  0  2  0  0  0  0  0  0  0  0  0
   -2.5850   -1.8310   -0.5200 C   0  0  0  0  0  0  0  0  0  0  0  0
   -4.0790   -1.8840   -0.6080 C   0  0  0  0  0  0  0  0  0  0  0  0
   -4.7080   -1.6330    0.6320 O   0  0  0  0  0  0  0  0  0  0  0  0
   -4.5880   -0.2890    0.8150 O   0  0  0  0  0  0  0  0  0  0  0  0
   -3.3110    0.1970    0.5770 C   0  0  0  0  0  0  0  0  0  0  0  0
   -3.0130    1.3970    0.3900 O   0  0  0  0  0  0  0  0  0  0  0  0
  1  2  2  0
  2  3  1  0
  2 13  1  0
  3  4  1  0
  4  5  2  0
  4  6  1  0
  6  7  2  0
  6 10  1  0
  7  8  1  0
  8  9  1  0
  9 10  2  0
 10 11  1  0
 11 12  1  0
 14 13  1  6
 14 15  1  0
 14 19  1  0
 15 16  1  0
 16 17  1  0
 17 18  1  0
 18 19  1  0
 19 20  2  0
M  END
