
     RDKit          3D

 20 22  0  0  0  0  0  0  0  0999 V2000
    4.1810    0.2450   -1.8300 O   0  0  0  0  0  0  0  0  0  0  0  0
    3.7210   -0.8760   -1.6790 C   0  0  0  0  0  0  0  0  0  0  0  0
    4.7330   -1.9580   -2.0350 N   0  0  0  0  0  0  0  0  0  0  0  0
    5.9100   -1.5840   -2.4320 O   0  0  0  0  0  0  0  0  0  0  0  0
    6.1330   -0.3000   -2.2380 O   0  0  0  0  0  0  0  0  0  0  0  0
    2.5730   -1.4590   -1.2790 N   0  0  0  0  0  0  0  0  0  0  0  0
    1.6530   -0.0090   -1.1180 C   0  0  0  0  0  0  0  0  0  0  0  0
    2.2190    0.9500   -1.4090 O   0  0  0  0  0  0  0  0  0  0  0  0
    0.3270   -0.2340   -0.6490 C   0  0  2  0  0  0  0  0  0  0  0  0
   -0.3670    1.0250   -0.6960 O   0  0  0  0  0  0  0  0  0  0  0  0
   -1.4580    0.8560    0.1970 C   0  0  0  0  0  0  0  0  0  0  0  0
   -2.6920    1.4400    0.2200 C   0  0  0  0  0  0  0  0  0  0  0  0
   -3.6090    1.1380    1.1610 C   0  0  0  0  0  0  0  0  0  0  0  0
   -3.2450    0.1810    2.1440 C   0  0  0  0  0  0  0  0  0  0  0  0
   -1.9790   -0.3890    2.0870 C   0  0  0  0  0  0  0  0  0  0  0  0
   -1.0330   -0.0750    1.1040 C   0  0  0  0  0  0  0  0  0  0  0  0
    0.2560   -0.4490    0.7690 O   0  0  0  0  0  0  0  0  0  0  0  0
   -4.3580    0.0820    2.9440 O   0  0  0  0  0  0  0  0  0  0  0  0
   -5.1920    1.1050    2.7550 O   0  0  0  0  0  0  0  0  0  0  0  0
   -5.0040    1.5330    1.4550 C   0  0  0  0  0  0  0  0  0  0  0  0
  1  2  2  0
  2  3  1  0
  2  6  1  0
  3  4  1  0
  4  5  1  0
  6  7  1  0
  7  8  2  0
  9  7  1  1
  9 10  1  0
  9 17  1  0
 10 11  1  0
 11 12  2  0
 11 16  1  0
 12 13  1  0
 13 14  2  0
 13 20  1  0
 14 15  1  0
 14 18  1  0
 15 16  2  0
 16 17  1  0
 18 19  1  0
 19 20  1  0
M  END
