
     RDKit          3D

 25 26  0  0  0  0  0  0  0  0999 V2000
   -2.8350   -0.6980   -2.6730 C   0  0  0  0  0  0  0  0  0  0  0  0
   -2.2980    0.6640   -2.6390 C   0  0  0  0  0  0  0  0  0  0  0  0
   -2.0200    1.4340   -1.6490 C   0  0  0  0  0  0  0  0  0  0  0  0
   -2.1250    1.2270   -0.2360 C   0  0  0  0  0  0  0  0  0  0  0  0
   -1.8970    2.1850    0.7050 C   0  0  0  0  0  0  0  0  0  0  0  0
   -2.0830    1.8420    2.0820 C   0  0  0  0  0  0  0  0  0  0  0  0
   -2.4940    0.6750    2.5390 C   0  0  0  0  0  0  0  0  0  0  0  0
   -2.8350   -0.4400    1.5890 C   0  0  1  0  0  0  0  0  0  0  0  0
   -4.6520   -0.4820    1.2580 P   0  0  0  0  0  0  0  0  0  0  0  0
   -5.1850   -2.0210    0.7190 O   0  0  0  0  0  0  0  0  0  0  0  0
   -5.5750   -0.0520    2.6660 O   0  0  0  0  0  0  0  0  0  0  0  0
   -2.0560   -0.1380    0.3450 C   0  0  0  0  0  0  0  0  0  0  0  0
   -1.1830   -1.0060   -0.1250 C   0  0  0  0  0  0  0  0  0  0  0  0
   -1.1890   -2.3700    0.5130 C   0  0  0  0  0  0  0  0  0  0  0  0
   -0.2660   -0.8140   -1.1140 O   0  0  0  0  0  0  0  0  0  0  0  0
    1.0510   -0.4530   -0.8540 C   0  0  0  0  0  0  0  0  0  0  0  0
    1.4810   -0.2750    0.4440 C   0  0  0  0  0  0  0  0  0  0  0  0
    2.7990    0.0860    0.7110 C   0  0  0  0  0  0  0  0  0  0  0  0
    3.7170    0.2770   -0.2970 C   0  0  0  0  0  0  0  0  0  0  0  0
    5.0130    0.6340    0.0190 O   0  0  0  0  0  0  0  0  0  0  0  0
    5.4860    0.8240    1.3160 C   0  0  0  0  0  0  0  0  0  0  0  0
    6.9360    1.2090    1.3720 C   0  0  0  0  0  0  0  0  0  0  0  0
    3.2860    0.0980   -1.5940 C   0  0  0  0  0  0  0  0  0  0  0  0
    1.9620   -0.2640   -1.8650 C   0  0  0  0  0  0  0  0  0  0  0  0
    1.5860   -0.4300   -3.2010 O   0  0  0  0  0  0  0  0  0  0  0  0
  1  2  1  0
  2  3  2  3
  3  4  1  0
  4  5  2  0
  4 12  1  0
  5  6  1  0
  6  7  2  0
  7  8  1  0
  8  9  1  6
  8 12  1  0
  9 10  1  0
  9 11  1  0
 12 13  2  3
 13 14  1  0
 13 15  1  0
 15 16  1  0
 16 17  2  0
 16 24  1  0
 17 18  1  0
 18 19  2  0
 19 20  1  0
 19 23  1  0
 20 21  1  0
 21 22  1  0
 23 24  2  0
 24 25  1  0
M  END
