
     RDKit          3D

 20 20  0  0  0  0  0  0  0  0999 V2000
    3.8520    2.1600   -0.5160 O   0  0  0  0  0  0  0  0  0  0  0  0
    4.1620    0.9540   -0.3770 C   0  0  0  0  0  0  0  0  0  0  0  0
    3.1760   -0.0690   -0.1540 N   0  0  0  0  0  0  0  0  0  0  0  0
    1.8090    0.2750   -0.0870 C   0  0  0  0  0  0  0  0  0  0  0  0
    1.5120    1.5060   -0.2290 O   0  0  0  0  0  0  0  0  0  0  0  0
    0.7210   -0.6770    0.1340 C   0  0  2  0  0  0  0  0  0  0  0  0
    0.6960   -1.8010   -0.8790 C   0  0  0  0  0  0  0  0  0  0  0  0
    1.8780   -2.4890   -0.9670 O   0  0  0  0  0  0  0  0  0  0  0  0
   -0.5660   -0.0100    0.1580 N   0  0  0  0  0  0  0  0  0  0  0  0
   -1.7820   -0.7320    0.3590 C   0  0  0  0  0  0  0  0  0  0  0  0
   -2.9460   -0.2630   -0.0370 C   0  0  0  0  0  0  0  0  0  0  0  0
   -3.0910    0.9540   -0.6740 O   0  0  0  0  0  0  0  0  0  0  0  0
   -4.2870    1.5720   -0.5050 O   0  0  0  0  0  0  0  0  0  0  0  0
   -4.8280    1.2720    0.7410 C   0  0  0  0  0  0  0  0  0  0  0  0
   -5.1570   -0.1710    0.9230 C   0  0  0  0  0  0  0  0  0  0  0  0
   -4.1660   -1.0630    0.2030 C   0  0  1  0  0  0  0  0  0  0  0  0
   -4.7590   -1.4390   -1.0110 O   0  0  0  0  0  0  0  0  0  0  0  0
    5.4960    0.5880   -0.4390 O   0  0  0  0  0  0  0  0  0  0  0  0
    6.5120    1.5800   -0.6600 C   0  0  0  0  0  0  0  0  0  0  0  0
    6.4210    2.4850    0.3940 O   0  0  0  0  0  0  0  0  0  0  0  0
  1  2  2  0
  2  3  1  0
  2 18  1  0
  3  4  1  0
  4  5  2  0
  4  6  1  0
  6  7  1  6
  6  9  1  0
  7  8  1  0
  9 10  1  0
 10 11  2  3
 11 12  1  0
 11 16  1  0
 12 13  1  0
 13 14  1  0
 14 15  1  0
 15 16  1  0
 16 17  1  6
 18 19  1  0
 19 20  1  0
M  END
