
     RDKit          3D

 35 36  0  0  0  0  0  0  0  0999 V2000
   -7.7880    1.8500   -2.1740 C   0  0  0  0  0  0  0  0  0  0  0  0
   -6.8040    0.7770   -1.6470 C   0  0  2  0  0  0  0  0  0  0  0  0
   -7.6070   -0.4790   -1.5610 C   0  0  0  0  0  0  0  0  0  0  0  0
   -6.2620    1.3220   -0.3850 C   0  0  0  0  0  0  0  0  0  0  0  0
   -5.2610    0.5200    0.3620 C   0  0  1  0  0  0  0  0  0  0  0  0
   -4.8920    1.3670    1.5980 C   0  0  0  0  0  0  0  0  0  0  0  0
   -5.7230   -0.8460    0.8060 C   0  0  0  0  0  0  0  0  0  0  0  0
   -4.6490   -1.4690    1.6710 C   0  0  0  0  0  0  0  0  0  0  0  0
   -3.2620   -1.1030    1.3450 C   0  0  0  0  0  0  0  0  0  0  0  0
   -3.0350   -0.0590    0.3290 C   0  0  1  0  0  0  0  0  0  0  0  0
   -1.9490   -0.5290   -0.6150 C   0  0  0  0  0  0  0  0  0  0  0  0
   -0.8320   -0.9000    0.1440 O   0  0  0  0  0  0  0  0  0  0  0  0
   -0.0900   -0.0850    0.9680 C   0  0  0  0  0  0  0  0  0  0  0  0
   -0.4180    1.1220    1.0710 O   0  0  0  0  0  0  0  0  0  0  0  0
    1.0970   -0.6240    1.7380 C   0  0  1  0  0  0  0  0  0  0  0  0
    0.5410   -1.7120    2.6430 C   0  0  0  0  0  0  0  0  0  0  0  0
    1.5770   -2.2610    3.3900 O   0  0  0  0  0  0  0  0  0  0  0  0
    2.0310   -1.2910    0.7710 C   0  0  0  0  0  0  0  0  0  0  0  0
    2.5580   -0.3630   -0.2980 C   0  0  1  0  0  0  0  0  0  0  0  0
    3.3120    0.7750    0.2070 C   0  0  0  0  0  0  0  0  0  0  0  0
    3.5610    0.9270    1.4470 O   0  0  0  0  0  0  0  0  0  0  0  0
    3.8050    1.7630   -0.6310 O   0  0  0  0  0  0  0  0  0  0  0  0
    4.5410    2.8660   -0.1110 C   0  0  0  0  0  0  0  0  0  0  0  0
    4.9530    3.7780   -1.2420 C   0  0  0  0  0  0  0  0  0  0  0  0
    5.7360    4.9370   -0.6240 C   0  0  0  0  0  0  0  0  0  0  0  0
    4.9210    5.6130    0.2810 O   0  0  0  0  0  0  0  0  0  0  0  0
    3.2010   -1.1930   -1.3490 C   0  0  1  0  0  0  0  0  0  0  0  0
    3.7200   -0.4140   -2.3490 O   0  0  0  0  0  0  0  0  0  0  0  0
    4.1930   -2.2160   -0.8570 C   0  0  2  0  0  0  0  0  0  0  0  0
    5.3070   -1.5450   -0.1440 C   0  0  0  0  0  0  0  0  0  0  0  0
    6.5900   -2.0790   -0.7830 C   0  0  0  0  0  0  0  0  0  0  0  0
    6.1580   -2.3800   -2.2210 C   0  0  0  0  0  0  0  0  0  0  0  0
    4.8100   -2.9730   -2.0000 C   0  0  1  0  0  0  0  0  0  0  0  0
    4.9610   -4.3250   -1.6130 O   0  0  0  0  0  0  0  0  0  0  0  0
   -4.1350    0.2900   -0.4340 O   0  0  0  0  0  0  0  0  0  0  0  0
  2  1  1  1
  2  3  1  0
  2  4  1  0
  4  5  1  0
  5  6  1  1
  5  7  1  0
  5 35  1  0
  7  8  1  0
  8  9  1  0
  9 10  1  0
 10 11  1  6
 10 35  1  0
 11 12  1  0
 12 13  1  0
 13 14  2  0
 13 15  1  0
 15 16  1  1
 15 18  1  0
 16 17  1  0
 19 18  1  1
 19 20  1  0
 19 27  1  0
 20 21  2  0
 20 22  1  0
 22 23  1  0
 23 24  1  0
 24 25  1  0
 25 26  1  0
 27 28  1  6
 27 29  1  0
 29 30  1  6
 29 33  1  0
 30 31  1  0
 31 32  1  0
 32 33  1  0
 33 34  1  1
M  END
