
     RDKit          3D

 34 38  0  0  0  0  0  0  0  0999 V2000
   -4.8390   -3.8020    1.4160 C   0  0  0  0  0  0  0  0  0  0  0  0
   -4.9390   -2.9230    0.3930 C   0  0  0  0  0  0  0  0  0  0  0  0
   -3.7430   -2.2920   -0.0980 C   0  0  0  0  0  0  0  0  0  0  0  0
   -2.8470   -3.1700   -0.7650 C   0  0  0  0  0  0  0  0  0  0  0  0
   -3.2720   -4.5960   -0.8430 C   0  0  0  0  0  0  0  0  0  0  0  0
   -1.6770   -2.7370   -1.3120 C   0  0  0  0  0  0  0  0  0  0  0  0
   -1.3410   -1.4010   -1.2190 C   0  0  0  0  0  0  0  0  0  0  0  0
   -2.1830   -0.5250   -0.5790 C   0  0  0  0  0  0  0  0  0  0  0  0
   -1.8040    0.7750   -0.5400 C   0  0  0  0  0  0  0  0  0  0  0  0
   -0.4800    1.3030   -1.0550 C   0  0  1  0  0  0  0  0  0  0  0  0
   -0.7940    2.7940   -1.2750 C   0  0  0  0  0  0  0  0  0  0  0  0
    0.3060    3.6080   -1.8170 C   0  0  0  0  0  0  0  0  0  0  0  0
    0.5690    4.7830   -0.8770 C   0  0  0  0  0  0  0  0  0  0  0  0
    1.7060    4.5830    0.0520 C   0  0  0  0  0  0  0  0  0  0  0  0
    2.0940    3.1340    0.2590 C   0  0  0  0  0  0  0  0  0  0  0  0
    0.9290    2.3630    0.7660 C   0  0  0  0  0  0  0  0  0  0  0  0
    0.5840    1.1140   -0.0020 C   0  0  2  0  0  0  0  0  0  0  0  0
    1.7490    0.3890   -0.4470 N   0  0  0  0  0  0  0  0  0  0  0  0
    2.8210    0.4320    0.5000 C   0  0  0  0  0  0  0  0  0  0  0  0
    3.3630   -0.9790    0.8350 C   0  0  1  0  0  0  0  0  0  0  0  0
    3.8540   -1.5690   -0.4440 C   0  0  0  0  0  0  0  0  0  0  0  0
    4.9540   -2.4740   -0.3180 N   0  0  0  0  0  0  0  0  0  0  0  0
    5.6260   -2.5390   -1.6100 C   0  0  0  0  0  0  0  0  0  0  0  0
    5.9390   -2.0750    0.6510 C   0  0  0  0  0  0  0  0  0  0  0  0
    5.2280   -1.7970    1.9550 C   0  0  0  0  0  0  0  0  0  0  0  0
    4.3820   -0.7370    1.7530 O   0  0  0  0  0  0  0  0  0  0  0  0
   -2.6300    1.6390    0.0630 N   0  0  0  0  0  0  0  0  0  0  0  0
   -3.7910    1.2530    0.6160 C   0  0  0  0  0  0  0  0  0  0  0  0
   -4.5640    2.2090    1.2350 C   0  0  0  0  0  0  0  0  0  0  0  0
   -5.7470    1.8530    1.8330 C   0  0  0  0  0  0  0  0  0  0  0  0
   -6.1660    0.5480    1.8210 C   0  0  0  0  0  0  0  0  0  0  0  0
   -5.3860   -0.4350    1.1920 C   0  0  0  0  0  0  0  0  0  0  0  0
   -4.2190   -0.0650    0.6020 C   0  0  0  0  0  0  0  0  0  0  0  0
   -3.3850   -0.9890   -0.0210 C   0  0  0  0  0  0  0  0  0  0  0  0
  1  2  2  0
  2  3  1  0
  3  4  2  0
  3 34  1  0
  4  5  1  0
  4  6  1  0
  6  7  2  0
  7  8  1  0
  8  9  2  0
  8 34  1  0
 10  9  1  1
  9 27  1  0
 10 11  1  0
 10 17  1  0
 11 12  1  0
 12 13  1  0
 13 14  1  0
 14 15  1  0
 15 16  1  0
 16 17  1  0
 17 18  1  6
 18 19  1  0
 20 19  1  6
 20 21  1  0
 20 26  1  0
 21 22  1  0
 22 23  1  0
 22 24  1  0
 24 25  1  0
 25 26  1  0
 27 28  2  0
 28 29  1  0
 28 33  1  0
 29 30  2  0
 30 31  1  0
 31 32  2  0
 32 33  1  0
 33 34  2  0
M  CHG  1  18   1
M  END
