
     RDKit          3D

 34 38  0  0  0  0  0  0  0  0999 V2000
    7.2780   -2.4280   -2.0380 C   0  0  0  0  0  0  0  0  0  0  0  0
    8.1430   -1.7380   -0.9930 C   0  0  0  0  0  0  0  0  0  0  0  0
    8.1240   -0.2620   -1.2250 C   0  0  0  0  0  0  0  0  0  0  0  0
    6.7380    0.2810   -1.1370 C   0  0  0  0  0  0  0  0  0  0  0  0
    6.0900    0.0610    0.1870 C   0  0  0  0  0  0  0  0  0  0  0  0
    4.7040    0.6420    0.2020 C   0  0  0  0  0  0  0  0  0  0  0  0
    3.6640   -0.1420    0.4280 C   0  0  0  0  0  0  0  0  0  0  0  0
    2.3030    0.4280    0.4430 C   0  0  0  0  0  0  0  0  0  0  0  0
    1.2440   -0.3230    0.6590 C   0  0  0  0  0  0  0  0  0  0  0  0
   -0.1220    0.2220    0.6840 C   0  0  0  0  0  0  0  0  0  0  0  0
   -1.0580   -0.2110   -0.2330 C   0  0  0  0  0  0  0  0  0  0  0  0
   -2.3490    0.2530   -0.2570 C   0  0  0  0  0  0  0  0  0  0  0  0
   -3.3200   -0.2690   -1.2800 C   0  0  1  0  0  0  0  0  0  0  0  0
   -3.3690   -1.6960   -1.3360 N   0  0  0  0  0  0  0  0  0  0  0  0
   -3.1550   -2.3780   -0.1000 C   0  0  0  0  0  0  0  0  0  0  0  0
   -4.5120   -2.8900    0.3910 C   0  0  0  0  0  0  0  0  0  0  0  0
   -5.0640   -1.7980    1.2930 C   0  0  0  0  0  0  0  0  0  0  0  0
   -5.9280   -0.9390    0.5200 N   0  0  0  0  0  0  0  0  0  0  0  0
   -5.6840   -0.1170   -0.4410 C   0  0  0  0  0  0  0  0  0  0  0  0
   -6.9150    0.5510   -0.9290 C   0  0  0  0  0  0  0  0  0  0  0  0
   -8.0090    0.7570   -0.3150 N   0  0  0  0  0  0  0  0  0  0  0  0
   -6.6280    0.9600   -2.3470 C   0  0  0  0  0  0  0  0  0  0  0  0
   -5.2820    0.3090   -2.6640 C   0  0  0  0  0  0  0  0  0  0  0  0
   -4.6180    0.4350   -1.2750 C   0  0  2  0  0  0  0  0  0  0  0  0
   -2.7250    1.1850    0.6670 C   0  0  0  0  0  0  0  0  0  0  0  0
   -1.8090    1.6310    1.5930 C   0  0  0  0  0  0  0  0  0  0  0  0
   -2.1780    2.5670    2.5560 C   0  0  0  0  0  0  0  0  0  0  0  0
   -1.2950    3.0190    3.5080 C   0  0  0  0  0  0  0  0  0  0  0  0
   -0.0070    2.5380    3.5170 C   0  0  0  0  0  0  0  0  0  0  0  0
    0.3980    1.6170    2.5860 C   0  0  0  0  0  0  0  0  0  0  0  0
   -0.5050    1.1630    1.6190 C   0  0  0  0  0  0  0  0  0  0  0  0
    2.2370    1.7900    0.2090 O   0  0  0  0  0  0  0  0  0  0  0  0
    3.3420    2.5850   -0.0240 C   0  0  0  0  0  0  0  0  0  0  0  0
    4.5540    2.0690   -0.0360 C   0  0  0  0  0  0  0  0  0  0  0  0
  1  2  1  0
  2  3  1  0
  3  4  1  0
  4  5  1  0
  5  6  1  0
  6  7  2  0
  6 34  1  0
  7  8  1  0
  8  9  2  3
  8 32  1  0
  9 10  1  0
 10 11  2  0
 10 31  1  0
 11 12  1  0
 13 12  1  1
 12 25  2  0
 13 14  1  0
 13 24  1  0
 14 15  1  0
 15 16  1  0
 16 17  1  0
 17 18  1  0
 18 19  2  0
 19 20  1  0
 19 24  1  0
 20 21  2  0
 20 22  1  0
 22 23  1  0
 24 23  1  6
 25 26  1  0
 26 27  2  0
 26 31  1  0
 27 28  1  0
 28 29  2  0
 29 30  1  0
 30 31  2  0
 32 33  1  0
 33 34  2  0
M  CHG  1  14   1
M  END
