
     RDKit          3D

 34 38  0  0  0  0  0  0  0  0999 V2000
    1.0850    0.3360   -4.0390 C   0  0  0  0  0  0  0  0  0  0  0  0
    1.5660    0.4740   -2.8230 C   0  0  0  0  0  0  0  0  0  0  0  0
    0.8350    1.2580   -1.8130 C   0  0  0  0  0  0  0  0  0  0  0  0
    0.4800    0.4180   -0.5970 C   0  0  1  0  0  0  0  0  0  0  0  0
   -0.3900   -0.7100   -1.0700 C   0  0  2  0  0  0  0  0  0  0  0  0
   -1.6470   -0.6920   -0.3570 N   0  0  2  0  0  0  0  0  0  0  0  0
   -2.2770   -1.9520   -0.1770 C   0  0  0  0  0  0  0  0  0  0  0  0
   -3.2010   -1.8010    1.0380 C   0  0  0  0  0  0  0  0  0  0  0  0
   -4.2000   -0.7620    0.5880 C   0  0  0  0  0  0  0  0  0  0  0  0
   -5.4360   -0.7330    1.1940 C   0  0  0  0  0  0  0  0  0  0  0  0
   -6.4080    0.1830    0.8190 C   0  0  0  0  0  0  0  0  0  0  0  0
   -7.7220    0.1650    1.5080 C   0  0  0  0  0  0  0  0  0  0  0  0
   -6.1120    1.0820   -0.1920 C   0  0  0  0  0  0  0  0  0  0  0  0
   -7.0610    1.9760   -0.5690 N   0  0  0  0  0  0  0  0  0  0  0  0
   -6.8480    2.8760   -1.5510 C   0  0  0  0  0  0  0  0  0  0  0  0
   -5.6170    2.8620   -2.1690 C   0  0  0  0  0  0  0  0  0  0  0  0
   -4.6170    1.9530   -1.8020 C   0  0  0  0  0  0  0  0  0  0  0  0
   -4.8760    1.0510   -0.7950 C   0  0  0  0  0  0  0  0  0  0  0  0
   -3.8850    0.1260   -0.4200 C   0  0  0  0  0  0  0  0  0  0  0  0
   -2.5710    0.1440   -1.1030 C   0  0  0  0  0  0  0  0  0  0  0  0
    0.3490   -1.9910   -1.0680 C   0  0  0  0  0  0  0  0  0  0  0  0
    1.0400   -2.3520    0.2110 C   0  0  0  0  0  0  0  0  0  0  0  0
    1.5040   -1.1290    0.9300 C   0  0  0  0  0  0  0  0  0  0  0  0
    1.6670   -0.0050    0.0670 N   0  0  0  0  0  0  0  0  0  0  0  0
    2.3780    1.0750    0.6730 C   0  0  0  0  0  0  0  0  0  0  0  0
    3.7650    0.7300    1.0820 C   0  0  0  0  0  0  0  0  0  0  0  0
    4.0140    0.2780    2.3550 C   0  0  0  0  0  0  0  0  0  0  0  0
    5.3130   -0.0280    2.6920 C   0  0  0  0  0  0  0  0  0  0  0  0
    5.6020   -0.5320    4.0660 C   0  0  0  0  0  0  0  0  0  0  0  0
    6.3620    0.1120    1.7790 C   0  0  0  0  0  0  0  0  0  0  0  0
    6.1240    0.5650    0.4980 C   0  0  0  0  0  0  0  0  0  0  0  0
    7.1340    0.7220   -0.4490 O   0  0  0  0  0  0  0  0  0  0  0  0
    8.4670    0.4080   -0.0920 C   0  0  0  0  0  0  0  0  0  0  0  0
    4.8200    0.8690    0.1640 C   0  0  0  0  0  0  0  0  0  0  0  0
  1  2  2  0
  2  3  1  0
  4  3  1  6
  4  5  1  0
  4 24  1  0
  5  6  1  0
  5 21  1  1
  6  7  1  6
  6 20  1  0
  7  8  1  0
  8  9  1  0
  9 10  2  0
  9 19  1  0
 10 11  1  0
 11 12  1  0
 11 13  2  0
 13 14  1  0
 13 18  1  0
 14 15  2  0
 15 16  1  0
 16 17  2  0
 17 18  1  0
 18 19  2  0
 19 20  1  0
 21 22  1  0
 22 23  1  0
 23 24  1  0
 24 25  1  0
 25 26  1  0
 26 27  2  0
 26 34  1  0
 27 28  1  0
 28 29  1  0
 28 30  2  0
 30 31  1  0
 31 32  1  0
 31 34  2  0
 32 33  1  0
M  CHG  1   6   1
M  END
