
     RDKit          3D

 25 27  0  0  0  0  0  0  0  0999 V2000
    6.2740   -0.4460    2.1240 C   0  0  0  0  0  0  0  0  0  0  0  0
    4.8400   -0.7400    1.7760 C   0  0  0  0  0  0  0  0  0  0  0  0
    4.4590   -0.1150    0.5980 O   0  0  0  0  0  0  0  0  0  0  0  0
    3.1660   -0.3480    0.2330 C   0  0  2  0  0  0  0  0  0  0  0  0
    3.0130   -1.0380   -1.0940 C   0  0  0  0  0  0  0  0  0  0  0  0
    1.5850   -0.6930   -1.4650 C   0  0  0  0  0  0  0  0  0  0  0  0
    1.4980    0.7710   -1.1030 C   0  0  1  0  0  0  0  0  0  0  0  0
    2.2140    1.5380   -2.1820 C   0  0  0  0  0  0  0  0  0  0  0  0
    0.0970    1.2400   -0.9880 C   0  0  0  0  0  0  0  0  0  0  0  0
   -0.2690    2.1310   -1.7230 O   0  0  0  0  0  0  0  0  0  0  0  0
   -0.8750    0.6830   -0.0290 C   0  0  0  0  0  0  0  0  0  0  0  0
   -2.1190    0.1040   -0.6080 C   0  0  2  0  0  0  0  0  0  0  0  0
   -1.7590   -0.9310   -1.4650 O   0  0  0  0  0  0  0  0  0  0  0  0
   -2.9670    1.0590   -1.3970 C   0  0  0  0  0  0  0  0  0  0  0  0
   -3.7080    2.0420   -0.5470 C   0  0  0  0  0  0  0  0  0  0  0  0
   -4.3190    1.5010    0.6930 C   0  0  0  0  0  0  0  0  0  0  0  0
   -3.5350    0.4730    1.4230 C   0  0  0  0  0  0  0  0  0  0  0  0
   -2.9970   -0.5490    0.4570 C   0  0  2  0  0  0  0  0  0  0  0  0
   -2.3360   -1.6550    1.1820 C   0  0  0  0  0  0  0  0  0  0  0  0
   -2.9530   -2.9540    0.6660 C   0  0  0  0  0  0  0  0  0  0  0  0
   -3.6550   -2.5220   -0.5030 O   0  0  0  0  0  0  0  0  0  0  0  0
   -4.0870   -1.2310   -0.2780 C   0  0  0  0  0  0  0  0  0  0  0  0
   -5.1900   -0.7820   -0.6470 O   0  0  0  0  0  0  0  0  0  0  0  0
    2.3020    0.8920    0.1530 C   0  0  1  0  0  0  0  0  0  0  0  0
    1.5670    1.1150    1.2970 O   0  0  0  0  0  0  0  0  0  0  0  0
  1  2  1  0
  2  3  1  0
  4  3  1  6
  4  5  1  0
  4 24  1  0
  5  6  1  0
  6  7  1  0
  7  8  1  6
  7  9  1  0
  7 24  1  0
  9 10  2  0
  9 11  1  0
 11 12  1  0
 12 13  1  6
 12 14  1  0
 12 18  1  0
 14 15  1  0
 15 16  1  0
 16 17  1  0
 18 17  1  1
 18 19  1  0
 18 22  1  0
 19 20  1  0
 20 21  1  0
 21 22  1  0
 22 23  2  0
 24 25  1  1
M  END
