
     RDKit          3D

 25 27  0  0  0  0  0  0  0  0999 V2000
   -1.7240    3.2000    2.1080 C   0  0  0  0  0  0  0  0  0  0  0  0
   -1.5250    1.7670    1.6600 C   0  0  1  0  0  0  0  0  0  0  0  0
   -1.5440    1.6510    0.1630 C   0  0  0  0  0  0  0  0  0  0  0  0
   -0.5650    0.5090   -0.1570 C   0  0  2  0  0  0  0  0  0  0  0  0
   -0.1790    0.6580   -1.5640 C   0  0  0  0  0  0  0  0  0  0  0  0
    0.9640    1.5240   -1.9350 C   0  0  0  0  0  0  0  0  0  0  0  0
    1.9610    0.7720   -2.5240 O   0  0  0  0  0  0  0  0  0  0  0  0
    3.3070    0.6560   -2.4220 C   0  0  0  0  0  0  0  0  0  0  0  0
    3.8020    0.5230   -3.6160 O   0  0  0  0  0  0  0  0  0  0  0  0
    3.9860    0.6770   -1.2790 O   0  0  0  0  0  0  0  0  0  0  0  0
    4.4640   -0.1660   -0.3120 C   0  0  0  0  0  0  0  0  0  0  0  0
    3.8800   -1.5490   -0.2790 C   0  0  0  0  0  0  0  0  0  0  0  0
    2.9660   -1.7290    0.9200 C   0  0  0  0  0  0  0  0  0  0  0  0
    1.5060   -1.7620    0.5190 C   0  0  0  0  0  0  0  0  0  0  0  0
    0.6110   -0.9550    1.3620 C   0  0  2  0  0  0  0  0  0  0  0  0
   -0.8230   -1.4470    1.2850 C   0  0  0  0  0  0  0  0  0  0  0  0
   -1.2860   -0.8380    0.0010 C   0  0  1  0  0  0  0  0  0  0  0  0
   -2.6730   -0.7760   -0.2140 N   0  0  0  0  0  0  0  0  0  0  0  0
   -3.3290   -1.4590   -1.2770 C   0  0  0  0  0  0  0  0  0  0  0  0
   -2.5950   -2.1330   -2.0300 O   0  0  0  0  0  0  0  0  0  0  0  0
   -4.7800   -1.3970   -1.5060 C   0  0  0  0  0  0  0  0  0  0  0  0
   -5.1050   -2.1680   -2.6130 O   0  0  0  0  0  0  0  0  0  0  0  0
    0.4170    0.4810    0.9190 C   0  0  1  0  0  0  0  0  0  0  0  0
    1.6340    1.0380    0.7290 O   0  0  0  0  0  0  0  0  0  0  0  0
   -0.2120    1.2000    2.1230 C   0  0  0  0  0  0  0  0  0  0  0  0
  2  1  1  6
  2  3  1  0
  2 25  1  0
  4  3  1  1
  4  5  1  0
  4 17  1  0
  4 23  1  0
  5  6  1  0
  6  7  1  0
  7  8  1  0
  8  9  2  0
  8 10  1  0
 10 11  1  0
 11 12  1  0
 12 13  1  0
 13 14  1  0
 15 14  1  6
 15 16  1  0
 15 23  1  0
 16 17  1  0
 17 18  1  1
 18 19  1  0
 19 20  2  0
 19 21  1  0
 21 22  1  0
 23 24  1  6
 23 25  1  0
M  END
