
     RDKit          3D

 12 13  0  0  0  0  0  0  0  0999 V2000
   -2.5000    0.9770    0.2450 N   0  0  0  0  0  0  0  0  0  0  0  0
   -1.1350    0.8860    0.0570 N   0  0  0  0  0  0  0  0  0  0  0  0
   -0.4280   -0.1860    0.0520 C   0  0  0  0  0  0  0  0  0  0  0  0
   -1.0000   -1.4790    0.2520 N   0  0  0  0  0  0  0  0  0  0  0  0
   -2.3780   -1.6000    1.2990 Cl  0  0  0  0  0  0  0  0  0  0  0  0
    1.0370   -0.0030   -0.1780 C   0  0  2  0  0  0  0  0  0  0  0  0
    1.6210   -0.6610   -1.3400 C   0  0  0  0  0  0  0  0  0  0  0  0
    1.9150   -1.1180    0.0050 N   0  0  0  0  0  0  0  0  0  0  0  0
    3.1100   -0.6060    0.4870 O   0  0  0  0  0  0  0  0  0  0  0  0
    2.8590    0.6800    0.8940 N   0  0  0  0  0  0  0  0  0  0  0  0
    1.6900    1.0850    0.5460 C   0  0  0  0  0  0  0  0  0  0  0  0
    0.9950    2.6760    0.8830 Cl  0  0  0  0  0  0  0  0  0  0  0  0
  1  2  1  0
  2  3  2  3
  3  4  1  0
  6  3  1  6
  4  5  1  0
  6  7  1  0
  6  8  1  0
  6 11  1  0
  7  8  1  0
  8  9  1  0
  9 10  1  0
 10 11  2  0
 11 12  1  0
M  CHG  1   1   1
M  END
