
     RDKit          3D

 22 24  0  0  0  0  0  0  0  0999 V2000
   -3.9130   -1.9320    1.3550 O   0  0  0  0  0  0  0  0  0  0  0  0
   -3.5850   -0.6210    1.0180 C   0  0  0  0  0  0  0  0  0  0  0  0
   -4.5500    0.3420    0.9050 C   0  0  0  0  0  0  0  0  0  0  0  0
   -4.2280    1.6360    0.5720 C   0  0  0  0  0  0  0  0  0  0  0  0
   -5.2080    2.5630    0.4680 F   0  0  0  0  0  0  0  0  0  0  0  0
   -2.8950    1.9080    0.3610 C   0  0  0  0  0  0  0  0  0  0  0  0
   -1.9150    0.9360    0.4750 C   0  0  0  0  0  0  0  0  0  0  0  0
   -2.2290   -0.3630    0.8070 C   0  0  0  0  0  0  0  0  0  0  0  0
   -1.2230   -1.4460    0.9590 C   0  0  0  0  0  0  0  0  0  0  0  0
    0.1330   -0.9840    0.6680 N   0  0  0  0  0  0  0  0  0  0  0  0
    0.4270   -0.6180   -0.6750 C   0  0  0  0  0  0  0  0  0  0  0  0
   -0.5640   -0.7460   -1.6210 N   0  0  0  0  0  0  0  0  0  0  0  0
   -0.3990   -0.4470   -2.9060 C   0  0  0  0  0  0  0  0  0  0  0  0
    0.8400    0.0150   -3.2860 C   0  0  0  0  0  0  0  0  0  0  0  0
    1.8550    0.1570   -2.3750 C   0  0  0  0  0  0  0  0  0  0  0  0
    1.6740   -0.1610   -1.0160 C   0  0  0  0  0  0  0  0  0  0  0  0
    2.7760    0.0070   -0.0870 C   0  0  0  0  0  0  0  0  0  0  0  0
    3.9600    0.4690   -0.5890 N   0  0  0  0  0  0  0  0  0  0  0  0
    5.0490    0.6660    0.1700 C   0  0  0  0  0  0  0  0  0  0  0  0
    5.0180    0.4050    1.5230 C   0  0  0  0  0  0  0  0  0  0  0  0
    3.8120   -0.0650    2.0340 C   0  0  0  0  0  0  0  0  0  0  0  0
    2.7820   -0.2340    1.2170 N   0  0  0  0  0  0  0  0  0  0  0  0
  1  2  1  0
  2  3  2  0
  2  8  1  0
  3  4  1  0
  4  5  1  0
  4  6  2  0
  6  7  1  0
  7  8  2  0
  8  9  1  0
  9 10  1  0
 10 11  1  0
 11 12  2  0
 11 16  1  0
 12 13  1  0
 13 14  2  0
 14 15  1  0
 15 16  2  0
 16 17  1  0
 17 18  2  0
 17 22  1  0
 18 19  1  0
 19 20  2  0
 20 21  1  0
 21 22  2  0
M  END
