
     RDKit          3D

 11 11  0  0  0  0  0  0  0  0999 V2000
   -2.6210    0.7590   -0.2510 C   0  0  0  0  0  0  0  0  0  0  0  0
   -1.6630   -0.1040   -0.9050 N   0  0  0  0  0  0  0  0  0  0  0  0
   -0.6890   -0.4970    0.0040 N   0  0  0  0  0  0  0  0  0  0  0  0
   -0.9390   -1.6560    0.8330 C   0  0  0  0  0  0  0  0  0  0  0  0
    0.4940    0.2020    0.1200 N   0  0  0  0  0  0  0  0  0  0  0  0
    1.0400    0.9750    1.2510 N   0  0  0  0  0  0  0  0  0  0  0  0
    1.7470    0.8440    0.0100 C   0  0  1  0  0  0  0  0  0  0  0  0
    3.0020    0.0610    0.0910 C   0  0  0  0  0  0  0  0  0  0  0  0
    3.4020   -0.8750    1.5110 Cl  0  0  0  0  0  0  0  0  0  0  0  0
    3.8210    0.0540   -0.8820 N   0  0  0  0  0  0  0  0  0  0  0  0
    3.4670    0.9560   -2.2890 Cl  0  0  0  0  0  0  0  0  0  0  0  0
  1  2  1  0
  2  3  1  0
  3  4  1  0
  3  5  1  0
  5  6  2  0
  5  7  1  0
  6  7  1  0
  7  8  1  1
  8  9  1  0
  8 10  2  3
 10 11  1  0
M  CHG  1   5   1
M  END
