
     RDKit          3D

 12 12  0  0  0  0  0  0  0  0999 V2000
    2.7750    0.2330    0.0230 C   0  0  0  0  0  0  0  0  0  0  0  0
    1.3880    0.4280    0.3150 N   0  0  0  0  0  0  0  0  0  0  0  0
    0.3880    0.0970   -0.6500 C   0  0  0  0  0  0  0  0  0  0  0  0
    0.5530    0.0560   -1.9210 N   0  0  0  0  0  0  0  0  0  0  0  0
   -0.6390   -0.3030   -2.5390 N   0  0  0  0  0  0  0  0  0  0  0  0
   -1.5560   -0.4910   -1.7040 N   0  0  0  0  0  0  0  0  0  0  0  0
   -1.0170   -0.2590   -0.3840 C   0  0  1  0  0  0  0  0  0  0  0  0
   -1.1080   -1.4920    0.2860 O   0  0  0  0  0  0  0  0  0  0  0  0
   -1.7480    0.7740    0.3550 C   0  0  0  0  0  0  0  0  0  0  0  0
   -1.9230    2.3570   -0.3790 Cl  0  0  0  0  0  0  0  0  0  0  0  0
   -2.2430    0.5700    1.4810 N   0  0  0  0  0  0  0  0  0  0  0  0
   -2.1030   -0.9500    2.2530 Cl  0  0  0  0  0  0  0  0  0  0  0  0
  1  2  1  0
  2  3  1  0
  3  4  2  0
  3  7  1  0
  4  5  1  0
  5  6  2  0
  6  7  1  0
  7  8  1  1
  7  9  1  0
  9 10  1  0
  9 11  2  3
 11 12  1  0
M  CHG  1  11   1
M  END
