
     RDKit          3D

 20 22  0  0  0  0  0  0  0  0999 V2000
   -2.3470   -0.8020   -1.2510 N   0  0  0  0  0  0  0  0  0  0  0  0
   -2.7330    0.0210   -0.1790 C   0  0  0  0  0  0  0  0  0  0  0  0
   -4.0200    0.3290    0.1650 C   0  0  0  0  0  0  0  0  0  0  0  0
   -5.2420   -0.1220   -0.4920 C   0  0  0  0  0  0  0  0  0  0  0  0
   -6.3690    0.2380   -0.0700 O   0  0  0  0  0  0  0  0  0  0  0  0
   -5.2250   -0.9560   -1.5960 O   0  0  0  0  0  0  0  0  0  0  0  0
   -3.9710    1.1580    1.2650 C   0  0  0  0  0  0  0  0  0  0  0  0
   -2.7280    1.3330    1.5580 O   0  0  0  0  0  0  0  0  0  0  0  0
   -1.9270    0.6750    0.7250 C   0  0  0  0  0  0  0  0  0  0  0  0
   -0.4690    0.6540    0.7690 C   0  0  0  0  0  0  0  0  0  0  0  0
    0.3070    1.3230    1.6930 C   0  0  0  0  0  0  0  0  0  0  0  0
    1.6190    1.0610    1.4100 C   0  0  0  0  0  0  0  0  0  0  0  0
    1.6070    0.2200    0.2970 C   0  0  0  0  0  0  0  0  0  0  0  0
    2.7920   -0.3140   -0.3530 C   0  0  0  0  0  0  0  0  0  0  0  0
    2.7540   -1.1420   -1.4520 C   0  0  0  0  0  0  0  0  0  0  0  0
    4.1020   -1.4050   -1.7330 C   0  0  0  0  0  0  0  0  0  0  0  0
    4.8520   -0.7290   -0.8020 C   0  0  0  0  0  0  0  0  0  0  0  0
    6.2280   -0.6970   -0.6910 O   0  0  0  0  0  0  0  0  0  0  0  0
    4.0330   -0.0930    0.0010 O   0  0  0  0  0  0  0  0  0  0  0  0
    0.3410    0.0260   -0.0230 O   0  0  0  0  0  0  0  0  0  0  0  0
  1  2  1  0
  2  3  1  0
  2  9  2  0
  3  4  1  0
  3  7  2  0
  4  5  2  0
  4  6  1  0
  7  8  1  0
  8  9  1  0
  9 10  1  0
 10 11  2  0
 10 20  1  0
 11 12  1  0
 12 13  2  0
 13 14  1  0
 13 20  1  0
 14 15  2  0
 14 19  1  0
 15 16  1  0
 16 17  2  0
 17 18  1  0
 17 19  1  0
M  CHG  1   6  -1
M  END
