
     RDKit          3D

 20 21  0  0  0  0  0  0  0  0999 V2000
    4.0060   -2.4110   -0.1510 C   0  0  0  0  0  0  0  0  0  0  0  0
    3.5190   -1.0630    0.0810 C   0  0  0  0  0  0  0  0  0  0  0  0
    2.1910   -0.8140    0.1250 C   0  0  0  0  0  0  0  0  0  0  0  0
    1.6910    0.4950    0.3510 C   0  0  0  0  0  0  0  0  0  0  0  0
    2.8620    1.3950    0.5040 O   0  0  0  0  0  0  0  0  0  0  0  0
    0.6070    1.1440    0.4630 C   0  0  0  0  0  0  0  0  0  0  0  0
    0.6220    2.6200    0.7160 C   0  0  0  0  0  0  0  0  0  0  0  0
    1.7620    3.1570    0.8080 O   0  0  0  0  0  0  0  0  0  0  0  0
   -0.5270    3.3650    0.8460 O   0  0  0  0  0  0  0  0  0  0  0  0
   -1.7580    2.8210    0.7530 C   0  0  0  0  0  0  0  0  0  0  0  0
   -2.8360    3.4870    0.8690 O   0  0  0  0  0  0  0  0  0  0  0  0
   -1.8920    1.3930    0.5080 C   0  0  0  0  0  0  0  0  0  0  0  0
   -3.1530    0.8460    0.4150 C   0  0  0  0  0  0  0  0  0  0  0  0
   -3.3110   -0.4950    0.1850 C   0  0  0  0  0  0  0  0  0  0  0  0
   -4.6060   -1.0860    0.0850 N   0  0  0  0  0  0  0  0  0  0  0  0
   -4.7020   -2.2950   -0.1230 O   0  0  0  0  0  0  0  0  0  0  0  0
   -5.7040   -0.2610    0.2280 O   0  0  0  0  0  0  0  0  0  0  0  0
   -2.2110   -1.2810    0.0490 C   0  0  0  0  0  0  0  0  0  0  0  0
   -0.9550   -0.7270    0.1430 C   0  0  0  0  0  0  0  0  0  0  0  0
   -0.7350    0.6000    0.3710 C   0  0  0  0  0  0  0  0  0  0  0  0
  1  2  1  0
  2  3  2  3
  3  4  1  0
  4  5  1  0
  4  6  2  3
  6  7  1  0
  6 20  1  0
  7  8  2  0
  7  9  1  0
  9 10  1  0
 10 11  2  0
 10 12  1  0
 12 13  2  0
 12 20  1  0
 13 14  1  0
 14 15  1  0
 14 18  2  0
 15 16  2  0
 15 17  1  0
 18 19  1  0
 19 20  2  0
M  CHG  2  15   1  17  -1
M  END
