
     RDKit          3D

 20 21  0  0  0  0  0  0  0  0999 V2000
   -2.0790   -3.2810    0.0710 C   0  0  0  0  0  0  0  0  0  0  0  0
   -1.9100   -1.8210    0.2120 C   0  0  0  0  0  0  0  0  0  0  0  0
   -0.7290   -1.3000   -0.2190 C   0  0  0  0  0  0  0  0  0  0  0  0
   -0.4120    0.0710   -0.1370 C   0  0  0  0  0  0  0  0  0  0  0  0
    0.8720    0.5150   -0.5970 C   0  0  0  0  0  0  0  0  0  0  0  0
    1.2930    1.6990   -1.0860 C   0  0  0  0  0  0  0  0  0  0  0  0
    2.6490    1.5760   -1.3980 C   0  0  0  0  0  0  0  0  0  0  0  0
    2.9810    0.2940   -1.0780 C   0  0  0  0  0  0  0  0  0  0  0  0
    4.3250   -0.3220   -1.2320 C   0  0  0  0  0  0  0  0  0  0  0  0
    5.2540    0.3640   -1.7380 O   0  0  0  0  0  0  0  0  0  0  0  0
    4.5450   -1.6220   -0.8200 O   0  0  0  0  0  0  0  0  0  0  0  0
    1.9250   -0.3050   -0.6120 O   0  0  0  0  0  0  0  0  0  0  0  0
   -1.3450    0.8920    0.4080 C   0  0  0  0  0  0  0  0  0  0  0  0
   -1.1570    2.3510    0.5500 C   0  0  0  0  0  0  0  0  0  0  0  0
   -0.0130    2.7650    1.3120 N   0  0  0  0  0  0  0  0  0  0  0  0
    0.5780    3.8320    1.1370 O   0  0  0  0  0  0  0  0  0  0  0  0
    0.4720    1.9690    2.3580 O   0  0  0  0  0  0  0  0  0  0  0  0
   -2.5820    0.3980    0.8660 C   0  0  0  0  0  0  0  0  0  0  0  0
   -2.8550   -0.9750    0.7610 C   0  0  0  0  0  0  0  0  0  0  0  0
   -4.0490   -1.4910    1.1880 O   0  0  0  0  0  0  0  0  0  0  0  0
  1  2  1  0
  2  3  2  0
  2 19  1  0
  3  4  1  0
  4  5  1  0
  4 13  2  0
  5  6  2  0
  5 12  1  0
  6  7  1  0
  7  8  2  0
  8  9  1  0
  8 12  1  0
  9 10  2  0
  9 11  1  0
 13 14  1  0
 13 18  1  0
 14 15  1  0
 15 16  2  0
 15 17  1  0
 18 19  2  0
 19 20  1  0
M  CHG  2  15   1  17  -1
M  END
