
     RDKit          3D

 19 20  0  0  0  0  0  0  0  0999 V2000
   -5.1640   -0.7190    0.5270 C   0  0  0  0  0  0  0  0  0  0  0  0
   -3.7940   -0.4850    0.2310 O   0  0  0  0  0  0  0  0  0  0  0  0
   -3.4430    0.2450   -0.8940 C   0  0  0  0  0  0  0  0  0  0  0  0
   -4.3820    0.6730   -1.6110 O   0  0  0  0  0  0  0  0  0  0  0  0
   -2.0560    0.5330   -1.2740 C   0  0  0  0  0  0  0  0  0  0  0  0
   -1.0510   -0.0540   -0.3030 C   0  0  2  0  0  0  0  0  0  0  0  0
   -1.2780   -1.4510   -0.3210 O   0  0  0  0  0  0  0  0  0  0  0  0
   -1.2640    0.4070    1.0960 C   0  0  0  0  0  0  0  0  0  0  0  0
   -0.2150    1.2750    1.6480 C   0  0  0  0  0  0  0  0  0  0  0  0
   -0.5190    2.2130    2.4110 O   0  0  0  0  0  0  0  0  0  0  0  0
    1.1360    1.0380    1.3080 N   0  0  0  0  0  0  0  0  0  0  0  0
    1.3820    0.3370    0.0970 C   0  0  0  0  0  0  0  0  0  0  0  0
    2.5820   -0.1580   -0.1430 C   0  0  0  0  0  0  0  0  0  0  0  0
    3.0480   -0.9000   -1.3020 C   0  0  0  0  0  0  0  0  0  0  0  0
    4.3330   -1.2190   -1.1510 C   0  0  0  0  0  0  0  0  0  0  0  0
    4.7560   -0.6950    0.1200 C   0  0  0  0  0  0  0  0  0  0  0  0
    6.0340   -0.7920    0.6980 O   0  0  0  0  0  0  0  0  0  0  0  0
    3.7680   -0.0700    0.7380 C   0  0  0  0  0  0  0  0  0  0  0  0
    0.3070    0.1700   -0.8730 C   0  0  0  0  0  0  0  0  0  0  0  0
  1  2  1  0
  2  3  1  0
  3  4  2  0
  3  5  1  0
  5  6  1  0
  6  7  1  1
  6  8  1  0
  6 19  1  0
  8  9  1  0
  9 10  2  0
  9 11  1  0
 11 12  1  0
 12 13  2  3
 12 19  1  0
 13 14  1  0
 13 18  1  0
 14 15  2  0
 15 16  1  0
 16 17  1  0
 16 18  2  0
M  END
