
     RDKit          3D

 32 34  0  0  0  0  0  0  0  0999 V2000
    1.5360    2.8500    0.8720 C   0  0  0  0  0  0  0  0  0  0  0  0
    0.6090    1.7030    0.5410 C   0  0  1  0  0  0  0  0  0  0  0  0
    0.9140    1.0310   -0.5760 O   0  0  0  0  0  0  0  0  0  0  0  0
    2.1010    0.4690   -0.8060 C   0  0  0  0  0  0  0  0  0  0  0  0
    2.6240   -0.5970    0.1050 C   0  0  1  0  0  0  0  0  0  0  0  0
    2.8120   -0.1700    1.4280 O   0  0  0  0  0  0  0  0  0  0  0  0
    1.7070   -1.7910    0.1820 C   0  0  0  0  0  0  0  0  0  0  0  0
    2.0480   -2.8590   -0.6000 O   0  0  0  0  0  0  0  0  0  0  0  0
    3.5230   -3.5260    0.0920 P   0  0  0  0  0  0  0  0  0  0  0  0
    3.3200   -3.8970    1.7650 O   0  0  0  0  0  0  0  0  0  0  0  0
    4.6330   -2.1310    0.0040 O   0  0  0  0  0  0  0  0  0  0  0  0
    4.0070   -0.9510   -0.3670 C   0  0  0  0  0  0  0  0  0  0  0  0
    4.5780   -0.1200   -1.1220 O   0  0  0  0  0  0  0  0  0  0  0  0
    0.4460    0.7790    1.6680 N   0  0  0  0  0  0  0  0  0  0  0  0
   -0.6490    0.1470    1.8500 C   0  0  0  0  0  0  0  0  0  0  0  0
   -1.1110   -0.7580    2.7760 O   0  0  0  0  0  0  0  0  0  0  0  0
   -2.4480   -0.7550    2.8230 O   0  0  0  0  0  0  0  0  0  0  0  0
   -2.9180    0.2580    1.9900 C   0  0  0  0  0  0  0  0  0  0  0  0
   -1.8210    0.3110    0.9250 C   0  0  2  0  0  0  0  0  0  0  0  0
   -1.9750   -0.8990    0.1730 O   0  0  0  0  0  0  0  0  0  0  0  0
   -2.9560   -1.0780   -0.7580 C   0  0  0  0  0  0  0  0  0  0  0  0
   -3.7700   -0.1440   -0.9750 O   0  0  0  0  0  0  0  0  0  0  0  0
   -3.1160   -2.3480   -1.5470 C   0  0  2  0  0  0  0  0  0  0  0  0
   -1.8650   -2.6570   -2.2120 N   0  0  0  0  0  0  0  0  0  0  0  0
   -4.1800   -2.2800   -2.4110 O   0  0  0  0  0  0  0  0  0  0  0  0
   -1.7820    1.4150    0.1700 O   0  0  0  0  0  0  0  0  0  0  0  0
   -0.8060    2.3390    0.4490 C   0  0  2  0  0  0  0  0  0  0  0  0
   -0.8300    3.4730   -0.5030 C   0  0  0  0  0  0  0  0  0  0  0  0
   -0.0560    4.4450   -0.4200 O   0  0  0  0  0  0  0  0  0  0  0  0
   -1.7430    3.5150   -1.5710 O   0  0  0  0  0  0  0  0  0  0  0  0
   -1.7580    4.8670   -2.6930 P   0  0  0  0  0  0  0  0  0  0  0  0
   -1.0090    6.2040   -2.4040 O   0  0  0  0  0  0  0  0  0  0  0  0
  2  1  1  1
  2  3  1  0
  2 14  1  0
  2 27  1  0
  3  4  1  0
  4  5  1  0
  5  6  1  1
  5  7  1  0
  5 12  1  0
  7  8  1  0
  8  9  1  0
  9 10  1  0
  9 11  1  0
 11 12  1  0
 12 13  2  0
 14 15  2  0
 15 16  1  0
 15 19  1  0
 16 17  1  0
 17 18  1  0
 18 19  1  0
 19 20  1  6
 19 26  1  0
 20 21  1  0
 21 22  2  0
 21 23  1  0
 23 24  1  6
 23 25  1  0
 26 27  1  0
 27 28  1  6
 28 29  2  0
 28 30  1  0
 30 31  1  0
 31 32  2  0
M  END
