
     RDKit          3D

 32 32  0  0  0  0  0  0  0  0999 V2000
    7.2470   -1.4940    0.1020 C   0  0  0  0  0  0  0  0  0  0  0  0
    6.7610   -0.6360   -1.2160 P   0  0  0  0  0  0  0  0  0  0  0  0
    5.3980    0.6520   -1.1110 C   0  0  2  0  0  0  0  0  0  0  0  0
    6.0120    1.8390   -0.5450 N   0  0  0  0  0  0  0  0  0  0  0  0
    4.3870    0.1250   -0.2990 O   0  0  0  0  0  0  0  0  0  0  0  0
    3.0730    0.5000   -0.3640 C   0  0  0  0  0  0  0  0  0  0  0  0
    2.0500    0.0520    0.5660 C   0  0  0  0  0  0  0  0  0  0  0  0
    2.3520   -0.7350    1.5130 O   0  0  0  0  0  0  0  0  0  0  0  0
    0.6960    0.5140    0.3950 C   0  0  0  0  0  0  0  0  0  0  0  0
    0.3890    1.2970   -0.5500 O   0  0  0  0  0  0  0  0  0  0  0  0
   -0.3800    0.1400    1.2480 N   0  0  0  0  0  0  0  0  0  0  0  0
   -1.7470    0.6410    1.0270 C   0  0  2  0  0  0  0  0  0  0  0  0
   -1.8690    1.6770    1.9760 O   0  0  0  0  0  0  0  0  0  0  0  0
   -1.8670    2.8520    1.4390 O   0  0  0  0  0  0  0  0  0  0  0  0
   -2.6170   -0.3580    1.2100 O   0  0  0  0  0  0  0  0  0  0  0  0
   -3.4910   -0.7560    0.2810 C   0  0  2  0  0  0  0  0  0  0  0  0
   -4.4050   -1.8960    0.7360 C   0  0  0  0  0  0  0  0  0  0  0  0
   -5.1600   -1.4900    1.8230 O   0  0  0  0  0  0  0  0  0  0  0  0
   -4.8100   -1.1240    3.0740 C   0  0  0  0  0  0  0  0  0  0  0  0
   -3.6000   -1.1350    3.3910 O   0  0  0  0  0  0  0  0  0  0  0  0
   -5.7110   -0.7260    4.0680 O   0  0  0  0  0  0  0  0  0  0  0  0
   -2.7690   -1.2950   -0.8960 C   0  0  0  0  0  0  0  0  0  0  0  0
   -1.5320   -1.3480   -0.8970 O   0  0  0  0  0  0  0  0  0  0  0  0
   -3.4670   -1.7450   -2.0020 O   0  0  0  0  0  0  0  0  0  0  0  0
   -4.3410    0.3530   -0.2770 C   0  0  0  0  0  0  0  0  0  0  0  0
   -4.2820    1.5360    0.0610 O   0  0  0  0  0  0  0  0  0  0  0  0
   -5.2570   -0.0250   -1.2500 O   0  0  0  0  0  0  0  0  0  0  0  0
   -6.0780    0.8320   -1.8400 O   0  0  0  0  0  0  0  0  0  0  0  0
    2.6740    1.5210   -1.5870 P   0  0  0  0  0  0  0  0  0  0  0  0
    4.0280    1.9620   -2.6160 O   0  0  0  0  0  0  0  0  0  0  0  0
    4.9800    0.9450   -2.5150 C   0  0  2  0  0  0  0  0  0  0  0  0
    4.5530   -0.2120   -3.1820 O   0  0  0  0  0  0  0  0  0  0  0  0
  1  2  2  0
  2  3  1  0
  3  4  1  1
  3  5  1  0
  3 31  1  0
  5  6  1  0
  6  7  1  0
  6 29  2  0
  7  8  2  0
  7  9  1  0
  9 10  2  0
  9 11  1  0
 12 11  1  1
 12 13  1  0
 12 15  1  0
 13 14  1  0
 15 16  1  0
 16 17  1  1
 16 22  1  0
 16 25  1  0
 17 18  1  0
 18 19  1  0
 19 20  2  0
 19 21  1  0
 22 23  2  0
 22 24  1  0
 25 26  2  0
 25 27  1  0
 27 28  1  0
 29 30  1  0
 30 31  1  0
 31 32  1  1
M  END
