
     RDKit          3D

 32 34  0  0  0  0  0  0  0  0999 V2000
    7.0020    0.4880   -1.0780 C   0  0  0  0  0  0  0  0  0  0  0  0
    6.3710    0.2560    0.0530 C   0  0  0  0  0  0  0  0  0  0  0  0
    7.0840   -0.3350    1.1640 C   0  0  0  0  0  0  0  0  0  0  0  0
    8.2980   -0.6180    1.0300 O   0  0  0  0  0  0  0  0  0  0  0  0
    6.4770   -0.6050    2.3800 O   0  0  0  0  0  0  0  0  0  0  0  0
    4.9710    0.5980    0.1610 C   0  0  0  0  0  0  0  0  0  0  0  0
    4.3620    0.3830    1.2280 O   0  0  0  0  0  0  0  0  0  0  0  0
    4.2460    1.1660   -0.8770 O   0  0  0  0  0  0  0  0  0  0  0  0
    2.8900    1.4770   -0.7140 C   0  0  0  0  0  0  0  0  0  0  0  0
    2.0580    0.3090   -0.3950 C   0  0  0  0  0  0  0  0  0  0  0  0
    2.5790   -0.8180   -0.2950 O   0  0  0  0  0  0  0  0  0  0  0  0
    0.6310    0.4420   -0.1910 C   0  0  0  0  0  0  0  0  0  0  0  0
    0.1290    1.6020   -0.2990 O   0  0  0  0  0  0  0  0  0  0  0  0
   -0.2100   -0.5890    0.1070 O   0  0  0  0  0  0  0  0  0  0  0  0
   -1.5990   -0.5540    0.3130 C   0  0  1  0  0  0  0  0  0  0  0  0
   -2.0570   -2.3400    0.7320 P   0  0  0  0  0  0  0  0  0  0  0  0
   -2.5670   -3.1900   -0.6690 O   0  0  0  0  0  0  0  0  0  0  0  0
   -0.7120   -3.1270    1.4900 O   0  0  0  0  0  0  0  0  0  0  0  0
   -1.8830    0.2470    1.3920 O   0  0  0  0  0  0  0  0  0  0  0  0
   -3.0970    0.7760    1.4070 C   0  0  2  0  0  0  0  0  0  0  0  0
   -3.2780    1.8920    0.6140 O   0  0  0  0  0  0  0  0  0  0  0  0
   -4.4990    2.3120    0.7140 O   0  0  0  0  0  0  0  0  0  0  0  0
   -3.8670    0.8980    2.6020 N   0  0  0  0  0  0  0  0  0  0  0  0
   -5.2520    0.9220    2.3410 C   0  0  0  0  0  0  0  0  0  0  0  0
   -5.6290    0.1290    1.3680 N   0  0  0  0  0  0  0  0  0  0  0  0
   -4.1900   -0.6630    0.7730 P   0  0  0  0  0  0  0  0  0  0  0  0
   -3.7610   -0.6020   -0.9790 C   0  0  0  0  0  0  0  0  0  0  0  0
   -2.2650   -0.2290   -0.9710 C   0  0  2  0  0  0  0  0  0  0  0  0
   -1.6780   -1.0830   -1.9390 O   0  0  0  0  0  0  0  0  0  0  0  0
   -2.0150   -0.4660   -3.1250 C   0  0  0  0  0  0  0  0  0  0  0  0
   -1.8980    0.8770   -2.8010 O   0  0  0  0  0  0  0  0  0  0  0  0
   -2.0410    0.9930   -1.5160 O   0  0  0  0  0  0  0  0  0  0  0  0
  1  2  2  0
  2  3  1  0
  2  6  1  0
  3  4  2  0
  3  5  1  0
  6  7  2  0
  6  8  1  0
  8  9  1  0
  9 10  1  0
 10 11  2  0
 10 12  1  0
 12 13  2  0
 12 14  1  0
 15 14  1  6
 15 16  1  0
 15 19  1  0
 15 28  1  0
 16 17  1  0
 16 18  1  0
 19 20  1  0
 20 21  1  6
 20 23  1  0
 20 26  1  0
 21 22  1  0
 23 24  1  0
 24 25  2  0
 25 26  1  0
 26 27  1  0
 28 27  1  1
 28 29  1  0
 28 32  1  0
 29 30  1  0
 30 31  1  0
 31 32  1  0
M  END
