
     RDKit          3D

 33 35  0  0  0  0  0  0  0  0999 V2000
    2.9300   -1.3340    2.9780 C   0  0  0  0  0  0  0  0  0  0  0  0
    1.9660   -0.2230    2.5660 C   0  0  0  0  0  0  0  0  0  0  0  0
    0.7930   -0.2660    3.1570 C   0  0  0  0  0  0  0  0  0  0  0  0
   -0.3800    0.6270    3.0180 C   0  0  0  0  0  0  0  0  0  0  0  0
   -1.5640   -0.2850    2.6100 C   0  0  0  0  0  0  0  0  0  0  0  0
   -1.1330   -0.8810    1.3320 C   0  0  0  0  0  0  0  0  0  0  0  0
   -2.0900   -1.1420    0.2300 C   0  0  2  0  0  0  0  0  0  0  0  0
   -3.2380   -1.9140    0.9090 C   0  0  0  0  0  0  0  0  0  0  0  0
   -1.3490   -2.2310   -0.5980 C   0  0  1  0  0  0  0  0  0  0  0  0
   -2.1010   -2.8130   -1.7070 C   0  0  0  0  0  0  0  0  0  0  0  0
    0.0310   -1.7810   -0.8050 C   0  0  0  0  0  0  0  0  0  0  0  0
    0.8560   -2.3930   -1.8820 C   0  0  2  0  0  0  0  0  0  0  0  0
    1.4210   -3.7320   -1.5310 C   0  0  0  0  0  0  0  0  0  0  0  0
    2.0080   -1.4000   -2.1300 C   0  0  0  0  0  0  0  0  0  0  0  0
    2.8010   -1.0470   -0.9270 C   0  0  0  0  0  0  0  0  0  0  0  0
    3.0380    0.4090   -0.6860 C   0  0  2  0  0  0  0  0  0  0  0  0
    4.5010    0.7010   -0.4120 C   0  0  2  0  0  0  0  0  0  0  0  0
    5.3430    0.2790   -1.6050 C   0  0  0  0  0  0  0  0  0  0  0  0
    4.8650   -0.1370    0.6690 O   0  0  0  0  0  0  0  0  0  0  0  0
    2.2300    1.0830    0.3870 C   0  0  2  0  0  0  0  0  0  0  0  0
    2.7230    2.5490    0.3550 C   0  0  0  0  0  0  0  0  0  0  0  0
    1.5560    3.4950    0.5590 C   0  0  0  0  0  0  0  0  0  0  0  0
    0.6490    3.4770   -0.6500 C   0  0  0  0  0  0  0  0  0  0  0  0
   -0.8120    3.2690   -0.3020 C   0  0  0  0  0  0  0  0  0  0  0  0
   -1.4300    2.1570   -1.1090 C   0  0  0  0  0  0  0  0  0  0  0  0
   -2.3830    1.3670   -0.1900 C   0  0  1  0  0  0  0  0  0  0  0  0
   -3.6920    2.1770   -0.2620 C   0  0  0  0  0  0  0  0  0  0  0  0
   -4.6990    1.4440    0.5850 C   0  0  0  0  0  0  0  0  0  0  0  0
   -5.0750    0.2060   -0.2000 C   0  0  0  0  0  0  0  0  0  0  0  0
   -4.0100   -0.2510   -1.1160 C   0  0  0  0  0  0  0  0  0  0  0  0
   -2.5710   -0.0320   -0.6090 C   0  0  2  0  0  0  0  0  0  0  0  0
   -1.8460   -0.1280   -1.8420 O   0  0  0  0  0  0  0  0  0  0  0  0
    2.4570    0.6380    1.6580 O   0  0  0  0  0  0  0  0  0  0  0  0
  1  2  1  0
  2  3  2  0
  2 33  1  0
  3  4  1  0
  4  5  1  0
  5  6  1  0
  6  7  1  0
  7  8  1  1
  7  9  1  0
  7 31  1  0
  9 10  1  6
  9 11  1  0
 11 12  1  0
 12 13  1  1
 12 14  1  0
 14 15  1  0
 16 15  1  1
 16 17  1  0
 16 20  1  0
 17 18  1  6
 17 19  1  0
 20 21  1  1
 20 33  1  0
 21 22  1  0
 22 23  1  0
 23 24  1  0
 24 25  1  0
 26 25  1  6
 26 27  1  0
 26 31  1  0
 27 28  1  0
 28 29  1  0
 29 30  1  0
 30 31  1  0
 31 32  1  6
M  END
