
     RDKit          3D

 33 37  0  0  0  0  0  0  0  0999 V2000
   -1.6730    2.6420    0.8890 C   0  0  0  0  0  0  0  0  0  0  0  0
   -0.3010    2.1630    0.4560 C   0  0  1  0  0  0  0  0  0  0  0  0
   -0.0000    2.7560   -0.8480 C   0  0  0  0  0  0  0  0  0  0  0  0
    0.0020    4.1840   -0.7900 O   0  0  0  0  0  0  0  0  0  0  0  0
    0.6340    2.9590    1.4560 C   0  0  0  0  0  0  0  0  0  0  0  0
    1.9390    2.4350    1.4360 C   0  0  0  0  0  0  0  0  0  0  0  0
    2.9740    2.0260    1.4020 C   0  0  0  0  0  0  0  0  0  0  0  0
    4.2720    1.4910    1.3600 C   0  0  1  0  0  0  0  0  0  0  0  0
    4.8030    1.0800    2.7400 C   0  0  0  0  0  0  0  0  0  0  0  0
    5.8880    0.0470    2.5450 C   0  0  0  0  0  0  0  0  0  0  0  0
    6.6530    0.3800    1.2840 C   0  0  0  0  0  0  0  0  0  0  0  0
    5.7620   -0.0060    0.1040 C   0  0  0  0  0  0  0  0  0  0  0  0
    4.3290    0.1770    0.5410 C   0  0  2  0  0  0  0  0  0  0  0  0
    3.5080    0.2610   -0.5560 O   0  0  0  0  0  0  0  0  0  0  0  0
    3.1260   -0.9950   -1.0040 C   0  0  0  0  0  0  0  0  0  0  0  0
    1.7560   -1.4200   -0.5200 C   0  0  0  0  0  0  0  0  0  0  0  0
    0.6330   -0.6390   -1.1670 C   0  0  1  0  0  0  0  0  0  0  0  0
   -0.0240   -1.4130   -2.2840 C   0  0  0  0  0  0  0  0  0  0  0  0
   -1.4920   -1.2390   -2.1430 C   0  0  0  0  0  0  0  0  0  0  0  0
   -1.7490   -0.3860   -0.8890 C   0  0  1  0  0  0  0  0  0  0  0  0
   -3.0370   -0.6990   -0.2830 C   0  0  0  0  0  0  0  0  0  0  0  0
   -3.4240   -1.0710    0.9020 C   0  0  0  0  0  0  0  0  0  0  0  0
   -2.7460   -1.3520    2.1570 C   0  0  0  0  0  0  0  0  0  0  0  0
   -3.0720   -2.7240    2.4560 O   0  0  0  0  0  0  0  0  0  0  0  0
   -4.9750   -1.1550    0.8750 C   0  0  0  0  0  0  0  0  0  0  0  0
   -5.1480   -1.6430   -0.4960 C   0  0  1  0  0  0  0  0  0  0  0  0
   -4.4380   -3.0050   -0.6930 C   0  0  0  0  0  0  0  0  0  0  0  0
   -6.3590   -1.5770   -1.2410 C   0  0  0  0  0  0  0  0  0  0  0  0
   -6.2290   -0.6650   -2.2110 C   0  0  0  0  0  0  0  0  0  0  0  0
   -4.9040   -0.0510   -2.1470 C   0  0  0  0  0  0  0  0  0  0  0  0
   -4.2670   -0.5780   -1.1580 C   0  0  0  0  0  0  0  0  0  0  0  0
   -0.4860   -0.3650   -0.1430 C   0  0  2  0  0  0  0  0  0  0  0  0
   -0.1700    0.7470    0.7490 C   0  0  0  0  0  0  0  0  0  0  0  0
  2  1  1  1
  2  3  1  0
  2  5  1  0
  2 33  1  0
  3  4  1  0
  5  6  1  0
  6  7  3  0
  8  7  1  1
  8  9  1  0
  8 13  1  0
  9 10  1  0
 10 11  1  0
 11 12  1  0
 13 12  1  6
 13 14  1  0
 14 15  1  0
 15 16  1  0
 17 16  1  1
 17 18  1  0
 17 32  1  0
 18 19  1  0
 19 20  1  0
 20 21  1  1
 20 32  1  0
 21 22  2  0
 21 31  1  0
 22 23  1  0
 22 25  1  0
 23 24  1  0
 25 26  1  0
 26 27  1  1
 26 28  1  0
 26 31  1  0
 28 29  2  0
 29 30  1  0
 30 31  2  0
 32 33  1  6
M  END
