
     RDKit          3D

 33 36  0  0  0  0  0  0  0  0999 V2000
    6.3860   -1.3810    2.2880 C   0  0  0  0  0  0  0  0  0  0  0  0
    5.2610   -0.6440    1.5940 C   0  0  0  0  0  0  0  0  0  0  0  0
    4.9710   -1.2260    0.2290 C   0  0  0  0  0  0  0  0  0  0  0  0
    3.8450   -0.4190   -0.3770 C   0  0  1  0  0  0  0  0  0  0  0  0
    3.4590   -0.9000   -1.7410 C   0  0  0  0  0  0  0  0  0  0  0  0
    2.0660   -1.3740   -1.8850 C   0  0  1  0  0  0  0  0  0  0  0  0
    1.8280   -2.7070   -1.2630 C   0  0  0  0  0  0  0  0  0  0  0  0
    0.4110   -2.7390   -0.7930 C   0  0  0  0  0  0  0  0  0  0  0  0
   -0.2150   -1.3790   -1.1200 C   0  0  1  0  0  0  0  0  0  0  0  0
   -0.7930   -1.5120   -2.5020 C   0  0  0  0  0  0  0  0  0  0  0  0
   -1.1590   -0.9190   -0.0740 C   0  0  0  0  0  0  0  0  0  0  0  0
   -2.6070   -1.0980   -0.2200 C   0  0  2  0  0  0  0  0  0  0  0  0
   -3.3790    0.0760    0.4250 C   0  0  1  0  0  0  0  0  0  0  0  0
   -3.3520    0.0100    1.9300 C   0  0  0  0  0  0  0  0  0  0  0  0
   -4.1140   -1.1880    2.3790 C   0  0  0  0  0  0  0  0  0  0  0  0
   -3.4490   -2.3830    1.7910 C   0  0  0  0  0  0  0  0  0  0  0  0
   -3.2610   -2.3170    0.2890 C   0  0  1  0  0  0  0  0  0  0  0  0
   -4.6870   -2.3290   -0.2950 C   0  0  0  0  0  0  0  0  0  0  0  0
   -2.6730   -3.6360   -0.0890 C   0  0  0  0  0  0  0  0  0  0  0  0
   -2.7350    1.4060    0.0570 C   0  0  0  0  0  0  0  0  0  0  0  0
   -3.6780    2.4510    0.1500 O   0  0  0  0  0  0  0  0  0  0  0  0
   -3.0780    3.5830    0.7550 C   0  0  0  0  0  0  0  0  0  0  0  0
   -1.8220    4.0100    0.0030 C   0  0  1  0  0  0  0  0  0  0  0  0
   -2.1550    5.2920   -0.5140 O   0  0  0  0  0  0  0  0  0  0  0  0
   -0.6310    4.1700    0.8590 C   0  0  0  0  0  0  0  0  0  0  0  0
    0.4620    3.1850    0.7600 C   0  0  0  0  0  0  0  0  0  0  0  0
    0.7870    2.6480   -0.5920 C   0  0  1  0  0  0  0  0  0  0  0  0
    1.2910    3.7530   -1.5300 C   0  0  0  0  0  0  0  0  0  0  0  0
    1.9130    1.6640   -0.4760 C   0  0  0  0  0  0  0  0  0  0  0  0
    1.4550    0.2520   -0.0780 C   0  0  2  0  0  0  0  0  0  0  0  0
    2.7260   -0.3300    0.5840 C   0  0  0  0  0  0  0  0  0  0  0  0
    1.0190   -0.4960   -1.2570 C   0  0  1  0  0  0  0  0  0  0  0  0
    0.6860    0.4450   -2.2640 O   0  0  0  0  0  0  0  0  0  0  0  0
  1  2  1  0
  2  3  1  0
  4  3  1  1
  4  5  1  0
  4 31  1  0
  6  5  1  1
  6  7  1  0
  6 32  1  0
  7  8  1  0
  8  9  1  0
  9 10  1  6
  9 11  1  0
  9 32  1  0
 12 11  1  1
 12 13  1  0
 12 17  1  0
 13 14  1  1
 13 20  1  0
 14 15  1  0
 15 16  1  0
 16 17  1  0
 17 18  1  6
 17 19  1  0
 20 21  1  0
 21 22  1  0
 22 23  1  0
 23 24  1  1
 23 25  1  0
 25 26  1  0
 26 27  1  0
 27 28  1  6
 27 29  1  0
 30 29  1  6
 30 31  1  0
 30 32  1  0
 32 33  1  6
M  END
