
     RDKit          3D

 24 23  0  0  0  0  0  0  0  0999 V2000
   -4.7440   -2.2230    1.4340 C   0  0  0  0  0  0  0  0  0  0  0  0
   -3.9490   -1.0780    0.8490 C   0  0  1  0  0  0  0  0  0  0  0  0
   -4.5800    0.1330    0.9690 O   0  0  0  0  0  0  0  0  0  0  0  0
   -4.9120    0.7320   -0.2150 C   0  0  0  0  0  0  0  0  0  0  0  0
   -5.5820    2.0230    0.0550 C   0  0  0  0  0  0  0  0  0  0  0  0
   -6.0490    2.8840   -0.9740 N   0  0  0  0  0  0  0  0  0  0  0  0
   -5.7510    2.3820    1.2430 O   0  0  0  0  0  0  0  0  0  0  0  0
   -2.5910   -1.0930    1.4360 C   0  0  0  0  0  0  0  0  0  0  0  0
   -2.0540   -0.1010    1.9930 O   0  0  0  0  0  0  0  0  0  0  0  0
   -1.8570   -2.2670    1.3720 O   0  0  0  0  0  0  0  0  0  0  0  0
   -0.5740   -2.4690    1.8590 C   0  0  0  0  0  0  0  0  0  0  0  0
    0.4780   -1.6450    1.2320 C   0  0  0  0  0  0  0  0  0  0  0  0
    1.6460   -1.7590    1.7260 O   0  0  0  0  0  0  0  0  0  0  0  0
    0.3090   -0.7600    0.1520 N   0  0  0  0  0  0  0  0  0  0  0  0
    1.3940    0.0120   -0.4080 C   0  0  0  0  0  0  0  0  0  0  0  0
    2.4310   -0.9040   -0.9470 C   0  0  0  0  0  0  0  0  0  0  0  0
    3.5210   -0.2500   -1.5100 O   0  0  0  0  0  0  0  0  0  0  0  0
    4.2130    0.5620   -0.6650 C   0  0  1  0  0  0  0  0  0  0  0  0
    5.6660    0.1790   -0.5030 C   0  0  0  0  0  0  0  0  0  0  0  0
    6.4120    0.2090   -1.7620 C   0  0  0  0  0  0  0  0  0  0  0  0
    5.8820    0.5170   -2.8110 O   0  0  0  0  0  0  0  0  0  0  0  0
    4.1440    1.9680   -1.1400 C   0  0  0  0  0  0  0  0  0  0  0  0
    4.7580    3.0410   -0.4830 N   0  0  0  0  0  0  0  0  0  0  0  0
    3.4790    2.1800   -2.2130 O   0  0  0  0  0  0  0  0  0  0  0  0
  2  1  1  1
  2  3  1  0
  2  8  1  0
  3  4  1  0
  4  5  1  0
  5  6  1  0
  5  7  2  0
  8  9  2  0
  8 10  1  0
 10 11  1  0
 11 12  1  0
 12 13  2  0
 12 14  1  0
 14 15  1  0
 15 16  1  0
 16 17  1  0
 17 18  1  0
 18 19  1  6
 18 22  1  0
 19 20  1  0
 20 21  2  0
 22 23  1  0
 22 24  2  0
M  END
