
     RDKit          3D

 24 23  0  0  0  0  0  0  0  0999 V2000
    0.6490   -3.2990    2.9930 C   0  0  0  0  0  0  0  0  0  0  0  0
    0.0320   -2.4370    2.0710 O   0  0  0  0  0  0  0  0  0  0  0  0
    0.7610   -1.7720    1.1090 C   0  0  0  0  0  0  0  0  0  0  0  0
    1.9940   -1.9410    1.0580 O   0  0  0  0  0  0  0  0  0  0  0  0
    0.0130   -0.8620    0.1610 C   0  0  1  0  0  0  0  0  0  0  0  0
   -1.0650   -1.6260   -0.5140 C   0  0  0  0  0  0  0  0  0  0  0  0
   -0.7730   -2.7800   -1.3580 C   0  0  0  0  0  0  0  0  0  0  0  0
   -0.1390   -3.9890   -0.7830 C   0  0  0  0  0  0  0  0  0  0  0  0
   -0.9420   -4.5880    0.2190 O   0  0  0  0  0  0  0  0  0  0  0  0
   -0.6840    0.0960    1.1070 C   0  0  0  0  0  0  0  0  0  0  0  0
   -1.4770    1.1410    0.4810 C   0  0  0  0  0  0  0  0  0  0  0  0
   -1.5150    1.2930   -0.7460 O   0  0  0  0  0  0  0  0  0  0  0  0
   -2.2450    2.0380    1.2340 O   0  0  0  0  0  0  0  0  0  0  0  0
   -3.0160    3.0530    0.6330 C   0  0  0  0  0  0  0  0  0  0  0  0
   -4.0340    2.5410   -0.2840 C   0  0  0  0  0  0  0  0  0  0  0  0
   -4.9030    3.4250   -0.9730 N   0  0  0  0  0  0  0  0  0  0  0  0
   -4.1440    1.3050   -0.4670 O   0  0  0  0  0  0  0  0  0  0  0  0
    0.9260   -0.2340   -0.7270 N   0  0  0  0  0  0  0  0  0  0  0  0
    1.9700    0.5870   -0.2420 C   0  0  0  0  0  0  0  0  0  0  0  0
    2.0690    0.7450    0.9780 O   0  0  0  0  0  0  0  0  0  0  0  0
    2.9010    1.2320   -1.1000 N   0  0  0  0  0  0  0  0  0  0  0  0
    3.9710    2.0870   -0.6790 C   0  0  0  0  0  0  0  0  0  0  0  0
    3.5740    3.3310    0.0390 C   0  0  0  0  0  0  0  0  0  0  0  0
    2.8720    3.1430    1.2090 O   0  0  0  0  0  0  0  0  0  0  0  0
  1  2  1  0
  2  3  1  0
  3  4  2  0
  3  5  1  0
  5  6  1  6
  5 10  1  0
  5 18  1  0
  6  7  1  0
  7  8  1  0
  8  9  1  0
 10 11  1  0
 11 12  2  0
 11 13  1  0
 13 14  1  0
 14 15  1  0
 15 16  1  0
 15 17  2  0
 18 19  1  0
 19 20  2  0
 19 21  1  0
 21 22  1  0
 22 23  1  0
 23 24  1  0
M  END
