
     RDKit          3D

 32 35  0  0  0  0  0  0  0  0999 V2000
    5.9190   -1.4610   -2.1970 C   0  0  0  0  0  0  0  0  0  0  0  0
    6.2550   -1.7510   -0.7590 C   0  0  0  0  0  0  0  0  0  0  0  0
    5.1160   -2.3730   -0.0040 C   0  0  2  0  0  0  0  0  0  0  0  0
    4.7990   -3.5720   -0.6430 O   0  0  0  0  0  0  0  0  0  0  0  0
    3.9270   -1.4770    0.1470 C   0  0  0  0  0  0  0  0  0  0  0  0
    4.3130   -0.2340    0.8880 C   0  0  0  0  0  0  0  0  0  0  0  0
    3.2350    0.6850    1.0800 N   0  0  0  0  0  0  0  0  0  0  0  0
    2.0390    0.3820    1.7860 C   0  0  0  0  0  0  0  0  0  0  0  0
    1.9350   -0.7720    2.2680 O   0  0  0  0  0  0  0  0  0  0  0  0
    0.9250    1.3230    1.9880 C   0  0  1  0  0  0  0  0  0  0  0  0
    1.2040    2.5850    1.4120 O   0  0  0  0  0  0  0  0  0  0  0  0
    0.4450    3.5060    2.1310 C   0  0  0  0  0  0  0  0  0  0  0  0
   -1.0040    3.1020    2.2520 C   0  0  0  0  0  0  0  0  0  0  0  0
   -1.3040    2.0390    1.2240 C   0  0  2  0  0  0  0  0  0  0  0  0
   -1.1150    2.4990   -0.1760 C   0  0  0  0  0  0  0  0  0  0  0  0
   -2.0020    3.6660   -0.5130 C   0  0  0  0  0  0  0  0  0  0  0  0
   -1.7730    4.1150   -1.9650 C   0  0  0  0  0  0  0  0  0  0  0  0
   -2.6230    5.1930   -2.2070 O   0  0  0  0  0  0  0  0  0  0  0  0
   -2.7120    1.4970    1.4060 C   0  0  0  0  0  0  0  0  0  0  0  0
   -2.9890    0.3300    0.5170 C   0  0  0  0  0  0  0  0  0  0  0  0
   -1.9300   -0.6720    0.3680 C   0  0  2  0  0  0  0  0  0  0  0  0
   -0.5050   -0.1360    0.4860 C   0  0  0  0  0  0  0  0  0  0  0  0
   -0.4110    0.8650    1.5750 C   0  0  1  0  0  0  0  0  0  0  0  0
   -2.0410   -1.2800   -1.0400 C   0  0  2  0  0  0  0  0  0  0  0  0
   -3.1960   -0.7680   -1.8320 C   0  0  0  0  0  0  0  0  0  0  0  0
   -3.3270   -1.9030   -2.8710 C   0  0  0  0  0  0  0  0  0  0  0  0
   -3.4640   -3.0760   -1.8900 C   0  0  0  0  0  0  0  0  0  0  0  0
   -2.4240   -2.7320   -0.8330 C   0  0  2  0  0  0  0  0  0  0  0  0
   -3.0000   -2.7040    0.4090 O   0  0  0  0  0  0  0  0  0  0  0  0
   -2.1100   -1.9230    1.1860 C   0  0  1  0  0  0  0  0  0  0  0  0
   -0.8780   -2.7460    1.3620 C   0  0  0  0  0  0  0  0  0  0  0  0
   -2.7430   -1.7390    2.5160 C   0  0  0  0  0  0  0  0  0  0  0  0
  1  2  1  0
  2  3  1  0
  3  4  1  6
  3  5  1  0
  5  6  1  0
  6  7  1  0
  7  8  1  0
  8  9  2  0
 10  8  1  6
 10 11  1  0
 10 23  1  0
 11 12  1  0
 12 13  1  0
 13 14  1  0
 14 15  1  6
 14 19  1  0
 14 23  1  0
 15 16  1  0
 16 17  1  0
 17 18  1  0
 19 20  1  0
 21 20  1  1
 21 22  1  0
 21 24  1  0
 21 30  1  0
 23 22  1  6
 24 25  1  6
 24 28  1  0
 25 26  1  0
 26 27  1  0
 28 27  1  6
 28 29  1  0
 29 30  1  0
 30 31  1  1
 30 32  1  0
M  END
