
     RDKit          3D

 32 34  0  0  0  0  0  0  0  0999 V2000
   -1.3910    2.9760    1.2670 C   0  0  0  0  0  0  0  0  0  0  0  0
   -1.8640    1.9540    0.2550 C   0  0  2  0  0  0  0  0  0  0  0  0
   -1.7600    0.6090    0.8880 C   0  0  0  0  0  0  0  0  0  0  0  0
   -2.6010   -0.4030    0.1650 C   0  0  2  0  0  0  0  0  0  0  0  0
   -3.9770    0.0640    0.2230 N   0  0  0  0  0  0  0  0  0  0  0  0
   -2.5440   -1.7680    0.7250 C   0  0  2  0  0  0  0  0  0  0  0  0
   -3.6170   -2.5970    0.0010 C   0  0  0  0  0  0  0  0  0  0  0  0
   -2.9460   -1.8000    2.1980 C   0  0  0  0  0  0  0  0  0  0  0  0
   -4.1170   -1.1680    2.4860 O   0  0  0  0  0  0  0  0  0  0  0  0
   -1.3030   -2.4800    0.5910 N   0  0  0  0  0  0  0  0  0  0  0  0
   -0.0280   -2.0540    0.2790 C   0  0  0  0  0  0  0  0  0  0  0  0
    0.8960   -2.2840    1.1500 O   0  0  0  0  0  0  0  0  0  0  0  0
    0.4630   -1.3510   -0.9450 C   0  0  2  0  0  0  0  0  0  0  0  0
    0.2770   -2.2620   -2.1780 C   0  0  0  0  0  0  0  0  0  0  0  0
    1.6560   -2.2800   -2.8020 C   0  0  0  0  0  0  0  0  0  0  0  0
    2.2600   -1.1220   -2.3150 O   0  0  0  0  0  0  0  0  0  0  0  0
    1.9280   -1.1850   -0.9700 C   0  0  1  0  0  0  0  0  0  0  0  0
    2.5660   -0.1930   -0.1120 C   0  0  0  0  0  0  0  0  0  0  0  0
    3.7980   -0.5990    0.3770 C   0  0  0  0  0  0  0  0  0  0  0  0
    4.5860    0.1290    1.2380 C   0  0  0  0  0  0  0  0  0  0  0  0
    5.8740   -0.3480    1.7180 C   0  0  0  0  0  0  0  0  0  0  0  0
    6.2600   -1.4760    1.3150 O   0  0  0  0  0  0  0  0  0  0  0  0
    6.6770    0.3550    2.5740 O   0  0  0  0  0  0  0  0  0  0  0  0
    4.1380    1.3480    1.6550 C   0  0  0  0  0  0  0  0  0  0  0  0
    2.9210    1.7690    1.1800 C   0  0  0  0  0  0  0  0  0  0  0  0
    2.0870    1.0540    0.2970 C   0  0  0  0  0  0  0  0  0  0  0  0
    0.9070    1.5680   -0.1090 O   0  0  0  0  0  0  0  0  0  0  0  0
    0.2840    2.3690   -1.0140 C   0  0  1  0  0  0  0  0  0  0  0  0
    0.3850    3.7390   -0.5680 O   0  0  0  0  0  0  0  0  0  0  0  0
    0.7660    2.4150   -2.4220 C   0  0  0  0  0  0  0  0  0  0  0  0
    0.7020    1.2640   -3.1460 O   0  0  0  0  0  0  0  0  0  0  0  0
   -1.2250    2.1230   -1.0680 C   0  0  0  0  0  0  0  0  0  0  0  0
  2  1  1  1
  2  3  1  0
  2 32  1  0
  3  4  1  0
  4  5  1  1
  4  6  1  0
  6  7  1  6
  6  8  1  0
  6 10  1  0
  8  9  1  0
 10 11  1  0
 11 12  2  0
 11 13  1  0
 13 14  1  6
 13 17  1  0
 14 15  1  0
 15 16  1  0
 17 16  1  6
 17 18  1  0
 18 19  2  0
 18 26  1  0
 19 20  1  0
 20 21  1  0
 20 24  2  0
 21 22  2  0
 21 23  1  0
 24 25  1  0
 25 26  2  0
 26 27  1  0
 27 28  1  0
 28 29  1  1
 28 30  1  0
 28 32  1  0
 30 31  1  0
M  CHG  1   5   1
M  END
