
     RDKit          3D

 32 35  0  0  0  0  0  0  0  0999 V2000
   -1.2760    3.8430    1.3450 C   0  0  0  0  0  0  0  0  0  0  0  0
   -1.7370    2.4820    0.9410 C   0  0  2  0  0  0  0  0  0  0  0  0
   -3.0840    2.1980    1.5650 C   0  0  0  0  0  0  0  0  0  0  0  0
   -4.0060    1.7010    0.4920 C   0  0  0  0  0  0  0  0  0  0  0  0
   -4.8550    0.6890    0.9070 O   0  0  0  0  0  0  0  0  0  0  0  0
   -4.2160   -0.5430    1.0140 C   0  0  0  0  0  0  0  0  0  0  0  0
   -3.9790   -1.1940   -0.3270 C   0  0  0  0  0  0  0  0  0  0  0  0
   -3.0160   -2.3270   -0.2400 C   0  0  1  0  0  0  0  0  0  0  0  0
   -2.9470   -3.0570   -1.5550 C   0  0  0  0  0  0  0  0  0  0  0  0
   -4.2360   -3.3630   -2.0350 O   0  0  0  0  0  0  0  0  0  0  0  0
   -1.7160   -2.0280    0.2340 N   0  0  0  0  0  0  0  0  0  0  0  0
   -0.9870   -1.0970   -0.6390 C   0  0  0  0  0  0  0  0  0  0  0  0
    0.1860   -0.4600    0.0210 C   0  0  1  0  0  0  0  0  0  0  0  0
    0.2210   -1.0440    1.3110 O   0  0  0  0  0  0  0  0  0  0  0  0
    1.5140   -0.7400   -0.6260 C   0  0  1  0  0  0  0  0  0  0  0  0
    1.8550   -2.2030   -0.6510 C   0  0  0  0  0  0  0  0  0  0  0  0
    0.9840   -3.0110   -1.3200 O   0  0  0  0  0  0  0  0  0  0  0  0
    1.4970   -0.2920   -2.0920 C   0  0  0  0  0  0  0  0  0  0  0  0
    2.7420   -0.6800   -2.8190 C   0  0  0  0  0  0  0  0  0  0  0  0
    3.9140   -0.4960   -2.0520 O   0  0  0  0  0  0  0  0  0  0  0  0
    3.8310    0.0390   -0.7860 C   0  0  0  0  0  0  0  0  0  0  0  0
    2.6550   -0.0520   -0.0240 C   0  0  0  0  0  0  0  0  0  0  0  0
    2.6740    0.5160    1.2320 C   0  0  0  0  0  0  0  0  0  0  0  0
    3.7860    1.1500    1.7410 C   0  0  0  0  0  0  0  0  0  0  0  0
    3.7990    1.7200    3.0040 O   0  0  0  0  0  0  0  0  0  0  0  0
    4.9330    1.2200    0.9560 C   0  0  0  0  0  0  0  0  0  0  0  0
    4.9590    0.6690   -0.3000 C   0  0  0  0  0  0  0  0  0  0  0  0
    6.2290    0.9100   -0.8020 O   0  0  0  0  0  0  0  0  0  0  0  0
    7.0980    1.2410    0.2810 C   0  0  0  0  0  0  0  0  0  0  0  0
    6.1550    1.7840    1.2170 O   0  0  0  0  0  0  0  0  0  0  0  0
   -0.0330    1.0170    0.0970 C   0  0  0  0  0  0  0  0  0  0  0  0
   -0.7540    1.4490    1.2770 N   0  0  0  0  0  0  0  0  0  0  0  0
  2  1  1  1
  2  3  1  0
  2 32  1  0
  3  4  1  0
  4  5  1  0
  5  6  1  0
  6  7  1  0
  7  8  1  0
  8  9  1  6
  8 11  1  0
  9 10  1  0
 11 12  1  0
 12 13  1  0
 13 14  1  1
 13 15  1  0
 13 31  1  0
 15 16  1  6
 15 18  1  0
 15 22  1  0
 16 17  1  0
 18 19  1  0
 19 20  1  0
 20 21  1  0
 21 22  2  0
 21 27  1  0
 22 23  1  0
 23 24  2  0
 24 25  1  0
 24 26  1  0
 26 27  2  0
 26 30  1  0
 27 28  1  0
 28 29  1  0
 29 30  1  0
 31 32  1  0
M  CHG  2  11   1  32   1
M  END
