
     RDKit          3D

 29 31  0  0  0  0  0  0  0  0999 V2000
   -6.7490   -2.7380    0.5740 C   0  0  0  0  0  0  0  0  0  0  0  0
   -5.5260   -2.3190    0.7630 C   0  0  0  0  0  0  0  0  0  0  0  0
   -4.6860   -2.9400    1.8210 C   0  0  0  0  0  0  0  0  0  0  0  0
   -4.9500   -1.2400   -0.0490 C   0  0  0  0  0  0  0  0  0  0  0  0
   -3.7130   -0.8370    0.1630 C   0  0  0  0  0  0  0  0  0  0  0  0
   -3.0880    0.2180   -0.5990 C   0  0  0  0  0  0  0  0  0  0  0  0
   -3.8020    0.8420   -1.5970 C   0  0  0  0  0  0  0  0  0  0  0  0
   -3.1980    1.8550   -2.3260 C   0  0  0  0  0  0  0  0  0  0  0  0
   -1.9130    2.2010   -2.0320 C   0  0  0  0  0  0  0  0  0  0  0  0
   -1.1770    1.5710   -1.0180 C   0  0  0  0  0  0  0  0  0  0  0  0
    0.1670    2.0170   -0.8210 C   0  0  1  0  0  0  0  0  0  0  0  0
    0.2360    3.0940    0.2310 C   0  0  0  0  0  0  0  0  0  0  0  0
   -0.5400    4.3260   -0.0570 C   0  0  0  0  0  0  0  0  0  0  0  0
   -1.8940    4.2080   -0.1770 O   0  0  0  0  0  0  0  0  0  0  0  0
   -2.5460    3.7940    0.9540 C   0  0  0  0  0  0  0  0  0  0  0  0
    1.1970    1.0760   -0.5590 N   0  0  1  0  0  0  0  0  0  0  0  0
    1.5610    0.8800    0.8220 C   0  0  0  0  0  0  0  0  0  0  0  0
    2.3930   -0.4060    0.8670 C   0  0  0  0  0  0  0  0  0  0  0  0
    3.2770   -0.4420   -0.3670 C   0  0  1  0  0  0  0  0  0  0  0  0
    4.2920   -1.4930   -0.2980 C   0  0  0  0  0  0  0  0  0  0  0  0
    5.6250   -1.1440   -0.3520 C   0  0  0  0  0  0  0  0  0  0  0  0
    6.6490   -2.0660   -0.2950 C   0  0  0  0  0  0  0  0  0  0  0  0
    6.3600   -3.4050   -0.1780 C   0  0  0  0  0  0  0  0  0  0  0  0
    7.3390   -4.3870   -0.1150 O   0  0  0  0  0  0  0  0  0  0  0  0
    5.0260   -3.7560   -0.1240 C   0  0  0  0  0  0  0  0  0  0  0  0
    4.0000   -2.8380   -0.1810 C   0  0  0  0  0  0  0  0  0  0  0  0
    2.4440   -0.7160   -1.6280 C   0  0  0  0  0  0  0  0  0  0  0  0
    1.0440   -0.1770   -1.2840 C   0  0  0  0  0  0  0  0  0  0  0  0
   -1.7870    0.5630   -0.2960 C   0  0  0  0  0  0  0  0  0  0  0  0
  1  2  2  0
  2  3  1  0
  2  4  1  0
  4  5  2  3
  5  6  1  0
  6  7  2  0
  6 29  1  0
  7  8  1  0
  8  9  2  0
  9 10  1  0
 10 11  1  0
 10 29  2  0
 11 12  1  1
 11 16  1  0
 12 13  1  0
 13 14  1  0
 14 15  1  0
 16 17  1  1
 16 28  1  0
 17 18  1  0
 18 19  1  0
 19 20  1  1
 19 27  1  0
 20 21  2  0
 20 26  1  0
 21 22  1  0
 22 23  2  0
 23 24  1  0
 23 25  1  0
 25 26  2  0
 27 28  1  0
M  CHG  1  16   1
M  END
