
     RDKit          3D

 29 30  0  0  0  0  0  0  0  0999 V2000
   -8.2700    0.9410   -0.3790 C   0  0  0  0  0  0  0  0  0  0  0  0
   -6.9550    0.3810   -0.7650 N   0  0  0  0  0  0  0  0  0  0  0  0
   -6.6710   -0.6910    0.1140 C   0  0  0  0  0  0  0  0  0  0  0  0
   -5.3150   -0.7880    0.6970 C   0  0  2  0  0  0  0  0  0  0  0  0
   -5.3620   -2.0410    1.6130 C   0  0  0  0  0  0  0  0  0  0  0  0
   -4.9430    0.3530    1.6060 C   0  0  0  0  0  0  0  0  0  0  0  0
   -4.1910   -1.0740   -0.2510 C   0  0  0  0  0  0  0  0  0  0  0  0
   -3.9660   -0.0870   -1.3360 C   0  0  0  0  0  0  0  0  0  0  0  0
   -2.7790   -0.5000   -2.2160 C   0  0  0  0  0  0  0  0  0  0  0  0
   -1.5640   -0.5790   -1.3930 C   0  0  0  0  0  0  0  0  0  0  0  0
   -0.5260    0.1950   -1.6810 C   0  0  0  0  0  0  0  0  0  0  0  0
    0.7160    0.1590   -0.8920 C   0  0  0  0  0  0  0  0  0  0  0  0
    0.8040   -0.7420    0.3130 C   0  0  0  0  0  0  0  0  0  0  0  0
    1.6940    0.9410   -1.2280 C   0  0  0  0  0  0  0  0  0  0  0  0
    2.9680    0.9850   -0.5240 C   0  0  0  0  0  0  0  0  0  0  0  0
    3.2880    2.1940    0.0990 C   0  0  0  0  0  0  0  0  0  0  0  0
    4.4740    2.2870    0.7670 C   0  0  0  0  0  0  0  0  0  0  0  0
    4.9260    3.5100    1.4710 C   0  0  0  0  0  0  0  0  0  0  0  0
    5.3280    1.1740    0.8060 C   0  0  0  0  0  0  0  0  0  0  0  0
    6.5180    1.3380    1.4960 O   0  0  0  0  0  0  0  0  0  0  0  0
    7.5890    1.9000    0.7180 C   0  0  0  0  0  0  0  0  0  0  0  0
    5.0310   -0.0250    0.2010 C   0  0  0  0  0  0  0  0  0  0  0  0
    3.8110   -0.1070   -0.4850 C   0  0  0  0  0  0  0  0  0  0  0  0
    3.4590   -1.1590   -1.1670 C   0  0  0  0  0  0  0  0  0  0  0  0
    4.2930   -2.3370   -1.1660 C   0  0  0  0  0  0  0  0  0  0  0  0
    3.9850   -3.3190   -1.8720 O   0  0  0  0  0  0  0  0  0  0  0  0
    5.4920   -2.4030   -0.3550 C   0  0  0  0  0  0  0  0  0  0  0  0
    5.8200   -1.0790    0.3190 C   0  0  0  0  0  0  0  0  0  0  0  0
    7.0470   -1.0370    1.1560 C   0  0  0  0  0  0  0  0  0  0  0  0
  1  2  1  0
  2  3  1  0
  3  4  1  0
  4  5  1  1
  4  6  1  0
  4  7  1  0
  7  8  1  0
  8  9  1  0
  9 10  1  0
 10 11  2  3
 11 12  1  0
 12 13  1  0
 12 14  2  3
 14 15  1  0
 15 16  2  0
 15 23  1  0
 16 17  1  0
 17 18  1  0
 17 19  2  0
 19 20  1  0
 19 22  1  0
 20 21  1  0
 22 23  1  0
 22 28  2  0
 23 24  2  0
 24 25  1  0
 25 26  2  0
 25 27  1  0
 27 28  1  0
 28 29  1  0
M  CHG  1   2   1
M  END
