
     RDKit          3D

 29 31  0  0  0  0  0  0  0  0999 V2000
   -3.6540    5.0960    1.5420 C   0  0  0  0  0  0  0  0  0  0  0  0
   -2.8760    4.2370    0.6100 C   0  0  0  0  0  0  0  0  0  0  0  0
   -2.8760    4.5390   -0.8450 C   0  0  0  0  0  0  0  0  0  0  0  0
   -2.1950    3.2230    1.0880 C   0  0  0  0  0  0  0  0  0  0  0  0
   -1.4090    2.3540    0.1360 C   0  0  0  0  0  0  0  0  0  0  0  0
   -1.9500    0.9750    0.2850 C   0  0  0  0  0  0  0  0  0  0  0  0
   -1.3060   -0.0670   -0.5930 C   0  0  1  0  0  0  0  0  0  0  0  0
    0.0820   -0.1580   -0.3000 N   0  0  0  0  0  0  0  0  0  0  0  0
    0.8770    0.0020   -1.5100 C   0  0  0  0  0  0  0  0  0  0  0  0
    2.3290    0.0320   -1.2040 C   0  0  0  0  0  0  0  0  0  0  0  0
    3.0420    1.2070   -1.1040 C   0  0  0  0  0  0  0  0  0  0  0  0
    4.4010    1.2280   -0.8110 C   0  0  0  0  0  0  0  0  0  0  0  0
    5.0990    0.0630   -0.6070 C   0  0  0  0  0  0  0  0  0  0  0  0
    6.5450   -0.0120   -0.2700 C   0  0  0  0  0  0  0  0  0  0  0  0
    6.6460   -0.0390    1.2510 C   0  0  0  0  0  0  0  0  0  0  0  0
    6.0760    1.1950    1.8030 C   0  0  0  0  0  0  0  0  0  0  0  0
    6.5090    2.2800    1.4450 O   0  0  0  0  0  0  0  0  0  0  0  0
    4.3840   -1.1260   -0.7070 C   0  0  0  0  0  0  0  0  0  0  0  0
    3.0390   -1.1380   -0.9970 C   0  0  0  0  0  0  0  0  0  0  0  0
   -2.0130   -1.3730   -0.4950 C   0  0  0  0  0  0  0  0  0  0  0  0
   -2.9090   -1.7320   -1.4740 C   0  0  0  0  0  0  0  0  0  0  0  0
   -3.5990   -2.9220   -1.4580 C   0  0  0  0  0  0  0  0  0  0  0  0
   -3.4110   -3.8440   -0.4120 C   0  0  0  0  0  0  0  0  0  0  0  0
   -2.5220   -3.4890    0.5600 C   0  0  0  0  0  0  0  0  0  0  0  0
   -1.8260   -2.2710    0.5290 C   0  0  0  0  0  0  0  0  0  0  0  0
   -2.2690   -4.4080    1.6670 C   0  0  0  0  0  0  0  0  0  0  0  0
   -2.9280   -5.5520    1.6620 C   0  0  0  0  0  0  0  0  0  0  0  0
   -3.8200   -5.8960    0.6710 O   0  0  0  0  0  0  0  0  0  0  0  0
   -4.1780   -5.1200   -0.4150 C   0  0  0  0  0  0  0  0  0  0  0  0
  1  2  1  0
  2  3  1  0
  2  4  2  3
  4  5  1  0
  5  6  1  0
  7  6  1  1
  7  8  1  0
  7 20  1  0
  8  9  1  0
  9 10  1  0
 10 11  2  0
 10 19  1  0
 11 12  1  0
 12 13  2  0
 13 14  1  0
 13 18  1  0
 14 15  1  0
 15 16  1  0
 16 17  2  0
 18 19  2  0
 20 21  2  0
 20 25  1  0
 21 22  1  0
 22 23  2  0
 23 24  1  0
 23 29  1  0
 24 25  2  0
 24 26  1  0
 26 27  2  0
 27 28  1  0
 28 29  1  0
M  CHG  1   8   1
M  END
