
     RDKit          3D

 29 32  0  0  0  0  0  0  0  0999 V2000
   -3.2860    1.3400   -3.6780 N   0  0  0  0  0  0  0  0  0  0  0  0
   -3.6340    0.7630   -2.4380 C   0  0  0  0  0  0  0  0  0  0  0  0
   -2.6550    0.6600   -1.4570 C   0  0  0  0  0  0  0  0  0  0  0  0
   -2.8620    0.1190   -0.2170 C   0  0  0  0  0  0  0  0  0  0  0  0
   -1.8820    0.0100    0.7780 N   0  0  0  0  0  0  0  0  0  0  0  0
   -0.5440    0.4380    0.7240 C   0  0  0  0  0  0  0  0  0  0  0  0
   -0.0970    0.9950   -0.2850 O   0  0  0  0  0  0  0  0  0  0  0  0
    0.4090    0.2350    1.8930 C   0  0  0  0  0  0  0  0  0  0  0  0
    1.5730    0.6460    1.7520 O   0  0  0  0  0  0  0  0  0  0  0  0
    2.7260    1.0530    1.6130 C   0  0  0  0  0  0  0  0  0  0  0  0
    3.1250    1.7320    0.2890 C   0  0  2  0  0  0  0  0  0  0  0  0
    3.1320    0.8000   -0.8680 C   0  0  0  0  0  0  0  0  0  0  0  0
    4.4850    0.1620   -0.7680 C   0  0  0  0  0  0  0  0  0  0  0  0
    4.9940   -1.0080   -1.2810 C   0  0  0  0  0  0  0  0  0  0  0  0
    6.2900   -1.3870   -1.0370 C   0  0  0  0  0  0  0  0  0  0  0  0
    6.8890   -2.8880   -1.7150 Cl  0  0  0  0  0  0  0  0  0  0  0  0
    7.0850   -0.5750   -0.2660 C   0  0  0  0  0  0  0  0  0  0  0  0
    8.4330   -0.9730   -0.0140 N   0  0  0  0  0  0  0  0  0  0  0  0
    6.5560    0.5890    0.2350 C   0  0  0  0  0  0  0  0  0  0  0  0
    5.2470    1.0030    0.0090 C   0  0  0  0  0  0  0  0  0  0  0  0
    4.5030    2.1060    0.3960 O   0  0  0  0  0  0  0  0  0  0  0  0
   -4.1520   -0.3590    0.0680 C   0  0  0  0  0  0  0  0  0  0  0  0
   -5.1230   -0.2560   -0.9050 C   0  0  0  0  0  0  0  0  0  0  0  0
   -4.9000    0.2940   -2.1570 C   0  0  0  0  0  0  0  0  0  0  0  0
   -6.4880   -0.7370   -0.6300 C   0  0  0  0  0  0  0  0  0  0  0  0
   -7.2740   -0.9910   -1.5430 O   0  0  0  0  0  0  0  0  0  0  0  0
   -6.8070   -0.8780    0.8310 C   0  0  0  0  0  0  0  0  0  0  0  0
   -5.6950   -1.6490    1.4780 C   0  0  0  0  0  0  0  0  0  0  0  0
   -4.3740   -0.9470    1.4000 C   0  0  0  0  0  0  0  0  0  0  0  0
  1  2  1  0
  2  3  2  0
  2 24  1  0
  3  4  1  0
  4  5  1  0
  4 22  2  0
  5  6  1  0
  6  7  2  0
  6  8  1  0
  8  9  1  0
  9 10  1  0
 11 10  1  1
 11 12  1  0
 11 21  1  0
 12 13  1  0
 13 14  2  0
 13 20  1  0
 14 15  1  0
 15 16  1  0
 15 17  2  0
 17 18  1  0
 17 19  1  0
 19 20  2  0
 20 21  1  0
 22 23  1  0
 22 29  1  0
 23 24  2  0
 23 25  1  0
 25 26  2  0
 25 27  1  0
 27 28  1  0
 28 29  1  0
M  END
