
     RDKit          3D

 30 33  0  0  0  0  0  0  0  0999 V2000
    9.7750    0.2900    0.9160 C   0  0  0  0  0  0  0  0  0  0  0  0
    8.9000   -0.1800   -0.1630 N   0  0  0  0  0  0  0  0  0  0  0  0
    7.5010   -0.0830   -0.0680 C   0  0  0  0  0  0  0  0  0  0  0  0
    6.9820    0.4210    0.9680 O   0  0  0  0  0  0  0  0  0  0  0  0
    6.6220   -0.5130   -1.0630 O   0  0  0  0  0  0  0  0  0  0  0  0
    5.2500   -0.3940   -0.9210 C   0  0  0  0  0  0  0  0  0  0  0  0
    4.6600    0.7770   -1.3770 C   0  0  0  0  0  0  0  0  0  0  0  0
    3.2900    0.9250   -1.2480 C   0  0  0  0  0  0  0  0  0  0  0  0
    2.5550   -0.0890   -0.6750 C   0  0  0  0  0  0  0  0  0  0  0  0
    1.1610    0.0410   -0.5350 C   0  0  0  0  0  0  0  0  0  0  0  0
    0.3550   -0.9040    0.0170 C   0  0  0  0  0  0  0  0  0  0  0  0
   -1.0530   -0.8220    0.1810 N   0  0  0  0  0  0  0  0  0  0  0  0
   -1.8600    0.2530   -0.1990 C   0  0  0  0  0  0  0  0  0  0  0  0
   -1.3240    1.2930   -0.7550 O   0  0  0  0  0  0  0  0  0  0  0  0
   -3.3020    0.3350   -0.0290 C   0  0  0  0  0  0  0  0  0  0  0  0
   -3.9970    1.4710   -0.4540 C   0  0  0  0  0  0  0  0  0  0  0  0
   -5.3590    1.6160   -0.3250 C   0  0  0  0  0  0  0  0  0  0  0  0
   -6.0960    0.6230    0.2390 C   0  0  0  0  0  0  0  0  0  0  0  0
   -5.4500   -0.4750    0.6530 N   0  0  0  0  0  0  0  0  0  0  0  0
   -4.0920   -0.6310    0.5300 C   0  0  0  0  0  0  0  0  0  0  0  0
   -3.5820   -1.8040    0.9970 O   0  0  0  0  0  0  0  0  0  0  0  0
   -4.2660   -2.8580    1.5820 C   0  0  0  0  0  0  0  0  0  0  0  0
   -7.5480    0.9860    0.2810 C   0  0  0  0  0  0  0  0  0  0  0  0
   -7.5640    2.4600   -0.0540 C   0  0  0  0  0  0  0  0  0  0  0  0
   -6.2540    2.7610   -0.7250 C   0  0  0  0  0  0  0  0  0  0  0  0
    1.0210   -2.0680    0.4580 C   0  0  0  0  0  0  0  0  0  0  0  0
    0.3500   -2.9910    0.9810 O   0  0  0  0  0  0  0  0  0  0  0  0
    2.3430   -2.2150    0.3360 N   0  0  0  0  0  0  0  0  0  0  0  0
    3.1140   -1.2560   -0.2170 C   0  0  0  0  0  0  0  0  0  0  0  0
    4.4950   -1.3980   -0.3500 C   0  0  0  0  0  0  0  0  0  0  0  0
  1  2  1  0
  2  3  1  0
  3  4  2  0
  3  5  1  0
  5  6  1  0
  6  7  2  0
  6 30  1  0
  7  8  1  0
  8  9  2  0
  9 10  1  0
  9 29  1  0
 10 11  2  0
 11 12  1  0
 11 26  1  0
 12 13  1  0
 13 14  2  0
 13 15  1  0
 15 16  2  0
 15 20  1  0
 16 17  1  0
 17 18  2  0
 17 25  1  0
 18 19  1  0
 18 23  1  0
 19 20  2  0
 20 21  1  0
 21 22  1  0
 23 24  1  0
 24 25  1  0
 26 27  2  0
 26 28  1  0
 28 29  1  0
 29 30  2  0
M  END
