
     RDKit          3D

 31 34  0  0  0  0  0  0  0  0999 V2000
   -4.9950    2.7620    0.1220 C   0  0  0  0  0  0  0  0  0  0  0  0
   -3.6840    2.4570    0.3920 O   0  0  0  0  0  0  0  0  0  0  0  0
   -2.7680    3.1190   -0.3590 C   0  0  0  0  0  0  0  0  0  0  0  0
   -1.3580    2.7520   -0.0260 C   0  0  0  0  0  0  0  0  0  0  0  0
   -0.9730    1.4050   -0.1860 N   0  0  0  0  0  0  0  0  0  0  0  0
   -1.4730    0.2790    0.4810 C   0  0  0  0  0  0  0  0  0  0  0  0
   -2.4000    0.5250    1.3440 O   0  0  0  0  0  0  0  0  0  0  0  0
   -1.0570   -1.1080    0.2830 C   0  0  0  0  0  0  0  0  0  0  0  0
    0.1240   -1.6410   -0.1050 C   0  0  0  0  0  0  0  0  0  0  0  0
    1.4110   -1.0000   -0.3390 C   0  0  0  0  0  0  0  0  0  0  0  0
    2.3760   -1.4310   -1.2260 C   0  0  0  0  0  0  0  0  0  0  0  0
    2.2530   -2.5680   -2.2130 C   0  0  0  0  0  0  0  0  0  0  0  0
    3.4170   -0.6710   -1.0580 O   0  0  0  0  0  0  0  0  0  0  0  0
    3.2740    0.2300   -0.1580 N   0  0  0  0  0  0  0  0  0  0  0  0
    4.2000    1.2270    0.2860 C   0  0  0  0  0  0  0  0  0  0  0  0
    4.3020    1.6370    1.5980 C   0  0  0  0  0  0  0  0  0  0  0  0
    5.2080    2.6040    1.9960 C   0  0  0  0  0  0  0  0  0  0  0  0
    6.0520    3.1990    1.0830 C   0  0  0  0  0  0  0  0  0  0  0  0
    6.9260    4.1410    1.5080 F   0  0  0  0  0  0  0  0  0  0  0  0
    5.9560    2.7940   -0.2310 C   0  0  0  0  0  0  0  0  0  0  0  0
    5.0440    1.8220   -0.6260 C   0  0  0  0  0  0  0  0  0  0  0  0
    2.0190    0.0590    0.3250 C   0  0  0  0  0  0  0  0  0  0  0  0
    1.5060    0.7630    1.2410 O   0  0  0  0  0  0  0  0  0  0  0  0
   -0.1140   -2.9860   -0.2810 N   0  0  0  0  0  0  0  0  0  0  0  0
   -1.3740   -3.2940   -0.0150 C   0  0  0  0  0  0  0  0  0  0  0  0
   -2.0250   -2.1420    0.3510 C   0  0  0  0  0  0  0  0  0  0  0  0
   -3.4610   -2.1070    0.7240 C   0  0  0  0  0  0  0  0  0  0  0  0
   -4.1890   -3.2820    0.0830 C   0  0  0  0  0  0  0  0  0  0  0  0
   -3.4860   -4.5190    0.3060 N   0  0  0  0  0  0  0  0  0  0  0  0
   -2.1000   -4.5650   -0.0520 C   0  0  0  0  0  0  0  0  0  0  0  0
   -1.5370   -5.6340   -0.3810 O   0  0  0  0  0  0  0  0  0  0  0  0
  1  2  1  0
  2  3  1  0
  3  4  1  0
  4  5  1  0
  5  6  1  0
  6  7  2  0
  6  8  1  0
  8  9  2  0
  8 26  1  0
  9 10  1  0
  9 24  1  0
 10 11  2  0
 10 22  1  0
 11 12  1  0
 11 13  1  0
 13 14  1  0
 14 15  1  0
 14 22  1  0
 15 16  2  0
 15 21  1  0
 16 17  1  0
 17 18  2  0
 18 19  1  0
 18 20  1  0
 20 21  2  0
 22 23  2  0
 24 25  1  0
 25 26  2  0
 25 30  1  0
 26 27  1  0
 27 28  1  0
 28 29  1  0
 29 30  1  0
 30 31  2  0
M  END
