
     RDKit          3D

 29 32  0  0  0  0  0  0  0  0999 V2000
   -6.1810    0.7650    0.8940 C   0  0  0  0  0  0  0  0  0  0  0  0
   -5.1410    1.6360    0.1990 C   0  0  2  0  0  0  0  0  0  0  0  0
   -5.2880    1.3300   -1.2860 C   0  0  0  0  0  0  0  0  0  0  0  0
   -4.5930    0.0200   -1.3420 C   0  0  0  0  0  0  0  0  0  0  0  0
   -4.8550   -0.9540   -2.0480 O   0  0  0  0  0  0  0  0  0  0  0  0
   -3.5070    0.1100   -0.3700 C   0  0  0  0  0  0  0  0  0  0  0  0
   -2.2870   -0.7190   -0.4260 C   0  0  0  0  0  0  0  0  0  0  0  0
   -1.0150   -0.3640   -0.1720 N   0  0  0  0  0  0  0  0  0  0  0  0
   -0.1980   -1.4070   -0.3230 C   0  0  0  0  0  0  0  0  0  0  0  0
    1.2700   -1.4850   -0.1550 C   0  0  0  0  0  0  0  0  0  0  0  0
    1.8650   -2.5810   -0.2470 O   0  0  0  0  0  0  0  0  0  0  0  0
    2.0220   -0.3160    0.1140 N   0  0  0  0  0  0  0  0  0  0  0  0
    3.3980   -0.1990    0.3200 C   0  0  0  0  0  0  0  0  0  0  0  0
    4.1960   -1.2990    0.5720 C   0  0  0  0  0  0  0  0  0  0  0  0
    5.5600   -1.2210    0.8460 C   0  0  0  0  0  0  0  0  0  0  0  0
    6.5310   -2.6370    1.1620 Cl  0  0  0  0  0  0  0  0  0  0  0  0
    6.1230    0.0270    0.8620 C   0  0  0  0  0  0  0  0  0  0  0  0
    5.3350    1.1480    0.6090 C   0  0  0  0  0  0  0  0  0  0  0  0
    5.9610    2.3840    0.6260 C   0  0  0  0  0  0  0  0  0  0  0  0
    5.2220    3.5220    0.3690 C   0  0  0  0  0  0  0  0  0  0  0  0
    3.8760    3.4220    0.0990 C   0  0  0  0  0  0  0  0  0  0  0  0
    3.2250    2.1860    0.0770 C   0  0  0  0  0  0  0  0  0  0  0  0
    3.9880    1.0650    0.3390 C   0  0  0  0  0  0  0  0  0  0  0  0
   -0.9680   -2.4830   -0.6880 C   0  0  0  0  0  0  0  0  0  0  0  0
   -0.5770   -3.8740   -0.9800 C   0  0  0  0  0  0  0  0  0  0  0  0
   -1.7050   -4.6310   -1.3110 O   0  0  0  0  0  0  0  0  0  0  0  0
   -2.2350   -2.0280   -0.7420 N   0  0  0  0  0  0  0  0  0  0  0  0
   -3.8210    1.0400    0.5180 C   0  0  0  0  0  0  0  0  0  0  0  0
   -2.9750    1.3630    1.5830 O   0  0  0  0  0  0  0  0  0  0  0  0
  2  1  1  1
  2  3  1  0
  2 28  1  0
  3  4  1  0
  4  5  2  0
  4  6  1  0
  6  7  1  0
  6 28  2  0
  7  8  2  0
  7 27  1  0
  8  9  1  0
  9 10  1  0
  9 24  2  0
 10 11  2  0
 10 12  1  0
 12 13  1  0
 13 14  2  0
 13 23  1  0
 14 15  1  0
 15 16  1  0
 15 17  2  0
 17 18  1  0
 18 19  2  0
 18 23  1  0
 19 20  1  0
 20 21  2  0
 21 22  1  0
 22 23  2  0
 24 25  1  0
 24 27  1  0
 25 26  1  0
 28 29  1  0
M  END
