
     RDKit          3D

 29 32  0  0  0  0  0  0  0  0999 V2000
    6.9980    0.8440    1.9050 C   0  0  0  0  0  0  0  0  0  0  0  0
    6.1960    0.0580    0.9260 C   0  0  2  0  0  0  0  0  0  0  0  0
    6.2290    0.6250   -0.4920 C   0  0  0  0  0  0  0  0  0  0  0  0
    5.0420   -0.0810   -1.0450 C   0  0  0  0  0  0  0  0  0  0  0  0
    4.9060   -0.5650   -2.1720 O   0  0  0  0  0  0  0  0  0  0  0  0
    4.0800   -0.0600    0.0610 C   0  0  0  0  0  0  0  0  0  0  0  0
    2.6280   -0.1420   -0.1180 C   0  0  0  0  0  0  0  0  0  0  0  0
    1.6370    0.5050    0.4600 N   0  0  0  0  0  0  0  0  0  0  0  0
    0.4210    0.0670   -0.0050 C   0  0  0  0  0  0  0  0  0  0  0  0
   -0.8330    0.6270    0.4630 C   0  0  0  0  0  0  0  0  0  0  0  0
   -0.7730    1.6210    1.2680 O   0  0  0  0  0  0  0  0  0  0  0  0
   -2.1220    0.1730    0.1100 N   0  0  0  0  0  0  0  0  0  0  0  0
   -3.3580    0.7100    0.5480 C   0  0  0  0  0  0  0  0  0  0  0  0
   -3.5080    1.8550    1.2720 C   0  0  0  0  0  0  0  0  0  0  0  0
   -4.7380    2.3740    1.6710 C   0  0  0  0  0  0  0  0  0  0  0  0
   -4.7970    3.8540    2.6000 Cl  0  0  0  0  0  0  0  0  0  0  0  0
   -5.8760    1.7050    1.3210 C   0  0  0  0  0  0  0  0  0  0  0  0
   -5.7710    0.5470    0.5920 C   0  0  0  0  0  0  0  0  0  0  0  0
   -6.9510   -0.0950    0.2690 C   0  0  0  0  0  0  0  0  0  0  0  0
   -6.9600   -1.2650   -0.4530 C   0  0  0  0  0  0  0  0  0  0  0  0
   -5.7420   -1.7730   -0.8430 C   0  0  0  0  0  0  0  0  0  0  0  0
   -4.5460   -1.1240   -0.5180 C   0  0  0  0  0  0  0  0  0  0  0  0
   -4.5320    0.0340    0.1970 C   0  0  0  0  0  0  0  0  0  0  0  0
    0.6890   -0.9000   -0.9150 C   0  0  0  0  0  0  0  0  0  0  0  0
   -0.2490   -1.7230   -1.7150 C   0  0  0  0  0  0  0  0  0  0  0  0
    0.4870   -2.6080   -2.5550 O   0  0  0  0  0  0  0  0  0  0  0  0
    2.0340   -1.0160   -0.9750 N   0  0  0  0  0  0  0  0  0  0  0  0
    4.7410    0.0250    1.2060 C   0  0  0  0  0  0  0  0  0  0  0  0
    4.1160    0.0730    2.4510 O   0  0  0  0  0  0  0  0  0  0  0  0
  2  1  1  1
  2  3  1  0
  2 28  1  0
  3  4  1  0
  4  5  2  0
  4  6  1  0
  6  7  1  0
  6 28  2  0
  7  8  2  0
  7 27  1  0
  8  9  1  0
  9 10  1  0
  9 24  2  0
 10 11  2  0
 10 12  1  0
 12 13  1  0
 13 14  2  0
 13 23  1  0
 14 15  1  0
 15 16  1  0
 15 17  2  0
 17 18  1  0
 18 19  2  0
 18 23  1  0
 19 20  1  0
 20 21  2  0
 21 22  1  0
 22 23  2  0
 24 25  1  0
 24 27  1  0
 25 26  1  0
 28 29  1  0
M  END
