
     RDKit          3D

 29 32  0  0  0  0  0  0  0  0999 V2000
   -0.2180   -2.3800    0.4420 C   0  0  0  0  0  0  0  0  0  0  0  0
   -0.5610   -0.9380    0.4060 C   0  0  0  0  0  0  0  0  0  0  0  0
   -1.7450   -0.3530    0.7800 C   0  0  0  0  0  0  0  0  0  0  0  0
   -2.9470   -0.9810    1.2910 C   0  0  0  0  0  0  0  0  0  0  0  0
   -2.9710   -2.2570    1.4360 O   0  0  0  0  0  0  0  0  0  0  0  0
   -4.1720   -0.2650    1.6670 C   0  0  0  0  0  0  0  0  0  0  0  0
   -5.0750   -0.0040    0.5380 C   0  0  0  0  0  0  0  0  0  0  0  0
   -4.8530   -0.3570   -0.7140 C   0  0  0  0  0  0  0  0  0  0  0  0
   -5.9990    0.0840   -1.5730 C   0  0  0  0  0  0  0  0  0  0  0  0
   -6.8930    0.7360   -0.6120 C   0  0  0  0  0  0  0  0  0  0  0  0
   -6.3570    0.6810    0.5960 C   0  0  0  0  0  0  0  0  0  0  0  0
   -1.5840    0.9950    0.5710 C   0  0  0  0  0  0  0  0  0  0  0  0
   -2.5180    1.9830    0.8080 O   0  0  0  0  0  0  0  0  0  0  0  0
   -0.2970    1.2120    0.0710 C   0  0  0  0  0  0  0  0  0  0  0  0
    0.3120    0.0240   -0.0230 N   0  0  0  0  0  0  0  0  0  0  0  0
    1.6760   -0.1010   -0.5020 C   0  0  2  0  0  0  0  0  0  0  0  0
    2.6140   -0.0920    0.5900 N   0  0  0  0  0  0  0  0  0  0  0  0
    4.0010   -0.3420    0.4090 C   0  0  0  0  0  0  0  0  0  0  0  0
    4.5490   -0.8520   -0.7500 C   0  0  0  0  0  0  0  0  0  0  0  0
    5.8950   -1.0790   -0.9370 C   0  0  0  0  0  0  0  0  0  0  0  0
    6.4520   -1.5900   -2.0960 O   0  0  0  0  0  0  0  0  0  0  0  0
    6.7490   -0.7750    0.1100 C   0  0  0  0  0  0  0  0  0  0  0  0
    6.2500   -0.2620    1.2910 C   0  0  0  0  0  0  0  0  0  0  0  0
    7.3500    0.1270    2.6250 Cl  0  0  0  0  0  0  0  0  0  0  0  0
    4.9020   -0.0500    1.4370 C   0  0  0  0  0  0  0  0  0  0  0  0
    1.9610    1.0340   -1.4780 C   0  0  0  0  0  0  0  0  0  0  0  0
    1.6860    2.3180   -0.8190 N   0  0  0  0  0  0  0  0  0  0  0  0
    0.3520    2.4640   -0.3240 C   0  0  0  0  0  0  0  0  0  0  0  0
   -0.2020    3.5880   -0.2420 O   0  0  0  0  0  0  0  0  0  0  0  0
  1  2  1  0
  2  3  2  0
  2 15  1  0
  3  4  1  0
  3 12  1  0
  4  5  2  0
  4  6  1  0
  6  7  1  0
  7  8  2  0
  7 11  1  0
  8  9  1  0
  9 10  1  0
 10 11  2  0
 12 13  1  0
 12 14  2  0
 14 15  1  0
 14 28  1  0
 15 16  1  0
 16 17  1  1
 16 26  1  0
 17 18  1  0
 18 19  2  0
 18 25  1  0
 19 20  1  0
 20 21  1  0
 20 22  2  0
 22 23  1  0
 23 24  1  0
 23 25  2  0
 26 27  1  0
 27 28  1  0
 28 29  2  0
M  END
