
     RDKit          3D

 30 33  0  0  0  0  0  0  0  0999 V2000
   -9.7330    1.1610   -0.6340 C   0  0  0  0  0  0  0  0  0  0  0  0
   -8.9160    0.3400    0.2730 N   0  0  0  0  0  0  0  0  0  0  0  0
   -7.5130    0.3490    0.2300 C   0  0  0  0  0  0  0  0  0  0  0  0
   -6.9540    1.1010   -0.6330 O   0  0  0  0  0  0  0  0  0  0  0  0
   -6.6880   -0.3970    1.0520 O   0  0  0  0  0  0  0  0  0  0  0  0
   -5.3100   -0.3220    0.9340 C   0  0  0  0  0  0  0  0  0  0  0  0
   -4.6140    0.6120    1.6710 C   0  0  0  0  0  0  0  0  0  0  0  0
   -3.2220    0.7310    1.5900 C   0  0  0  0  0  0  0  0  0  0  0  0
   -2.5150   -0.1000    0.7560 C   0  0  0  0  0  0  0  0  0  0  0  0
   -1.1290    0.0170    0.6750 C   0  0  0  0  0  0  0  0  0  0  0  0
   -0.4020   -0.7890   -0.1390 C   0  0  0  0  0  0  0  0  0  0  0  0
    1.0060   -0.7730   -0.3130 N   0  0  0  0  0  0  0  0  0  0  0  0
    1.8990    0.0920    0.3360 C   0  0  0  0  0  0  0  0  0  0  0  0
    1.4430    0.9600    1.1680 O   0  0  0  0  0  0  0  0  0  0  0  0
    3.3670    0.1360    0.1780 C   0  0  0  0  0  0  0  0  0  0  0  0
    4.0610    1.0910    0.9340 C   0  0  0  0  0  0  0  0  0  0  0  0
    5.4290    1.1670    0.8170 C   0  0  0  0  0  0  0  0  0  0  0  0
    6.0940    0.3150   -0.0290 C   0  0  0  0  0  0  0  0  0  0  0  0
    5.4160   -0.5920   -0.7440 N   0  0  0  0  0  0  0  0  0  0  0  0
    4.0770   -0.6890   -0.6500 C   0  0  0  0  0  0  0  0  0  0  0  0
    3.4130   -1.6540   -1.4180 O   0  0  0  0  0  0  0  0  0  0  0  0
    4.1060   -2.5250   -2.2840 C   0  0  0  0  0  0  0  0  0  0  0  0
    7.5630    0.6420    0.0570 C   0  0  0  0  0  0  0  0  0  0  0  0
    7.6890    1.2840    1.3970 C   0  0  0  0  0  0  0  0  0  0  0  0
    6.4000    2.0850    1.5110 C   0  0  0  0  0  0  0  0  0  0  0  0
   -1.1430   -1.7320   -0.8760 C   0  0  0  0  0  0  0  0  0  0  0  0
   -0.5330   -2.5230   -1.6610 O   0  0  0  0  0  0  0  0  0  0  0  0
   -2.4770   -1.8280   -0.7830 N   0  0  0  0  0  0  0  0  0  0  0  0
   -3.2030   -1.0340    0.0190 C   0  0  0  0  0  0  0  0  0  0  0  0
   -4.5750   -1.1450    0.1040 C   0  0  0  0  0  0  0  0  0  0  0  0
  1  2  1  0
  2  3  1  0
  3  4  2  0
  3  5  1  0
  5  6  1  0
  6  7  2  0
  6 30  1  0
  7  8  1  0
  8  9  2  0
  9 10  1  0
  9 29  1  0
 10 11  2  0
 11 12  1  0
 11 26  1  0
 12 13  1  0
 13 14  2  0
 13 15  1  0
 15 16  2  0
 15 20  1  0
 16 17  1  0
 17 18  2  0
 17 25  1  0
 18 19  1  0
 18 23  1  0
 19 20  2  0
 20 21  1  0
 21 22  1  0
 23 24  1  0
 24 25  1  0
 26 27  2  0
 26 28  1  0
 28 29  1  0
 29 30  2  0
M  END
