
     RDKit          3D

 29 29  0  0  0  0  0  0  0  0999 V2000
   -5.9120   -1.3970   -2.7650 C   0  0  0  0  0  0  0  0  0  0  0  0
   -5.4980   -1.5070   -1.3330 C   0  0  0  0  0  0  0  0  0  0  0  0
   -4.1100   -0.9450   -1.1070 C   0  0  0  0  0  0  0  0  0  0  0  0
   -3.1820   -1.7340   -0.6390 C   0  0  0  0  0  0  0  0  0  0  0  0
   -1.8010   -1.4500   -0.3400 C   0  0  0  0  0  0  0  0  0  0  0  0
   -1.0150   -2.4210    0.1380 C   0  0  0  0  0  0  0  0  0  0  0  0
    0.3490   -2.2840    0.4730 N   0  0  0  0  0  0  0  0  0  0  0  0
    1.0360   -1.0290    0.3200 C   0  0  0  0  0  0  0  0  0  0  0  0
    2.3080   -0.9430    0.6420 C   0  0  0  0  0  0  0  0  0  0  0  0
    3.1880    0.2210    0.5660 C   0  0  2  0  0  0  0  0  0  0  0  0
    3.8080    0.3930   -0.7280 N   0  0  0  0  0  0  0  0  0  0  0  0
    3.8460    1.6610   -1.3560 C   0  0  0  0  0  0  0  0  0  0  0  0
    3.3370    2.6410   -0.7730 O   0  0  0  0  0  0  0  0  0  0  0  0
    4.4270    1.8710   -2.6020 O   0  0  0  0  0  0  0  0  0  0  0  0
    4.4270    3.1840   -3.1730 C   0  0  0  0  0  0  0  0  0  0  0  0
    4.3250    0.0920    1.5650 C   0  0  0  0  0  0  0  0  0  0  0  0
    5.4870    0.1510    1.1320 O   0  0  0  0  0  0  0  0  0  0  0  0
    4.0800   -0.0850    2.9010 O   0  0  0  0  0  0  0  0  0  0  0  0
    5.0880   -0.2130    3.8780 C   0  0  0  0  0  0  0  0  0  0  0  0
    5.9410   -1.4160    3.5800 C   0  0  0  0  0  0  0  0  0  0  0  0
    6.9350   -1.5320    4.5600 F   0  0  0  0  0  0  0  0  0  0  0  0
    0.2140    0.0410   -0.1950 C   0  0  0  0  0  0  0  0  0  0  0  0
    0.6940    1.1680   -0.3710 O   0  0  0  0  0  0  0  0  0  0  0  0
   -1.1760   -0.1870   -0.5130 N   0  0  0  0  0  0  0  0  0  0  0  0
   -3.8420    0.4020   -1.4000 N   0  0  0  0  0  0  0  0  0  0  0  0
   -4.7660    1.2500   -1.3440 C   0  0  0  0  0  0  0  0  0  0  0  0
   -5.8430    2.5070   -1.2570 P   0  0  0  0  0  0  0  0  0  0  0  0
   -7.0650    2.3750   -0.0130 O   0  0  0  0  0  0  0  0  0  0  0  0
   -6.3640    2.3290    1.2090 C   0  0  0  0  0  0  0  0  0  0  0  0
  1  2  1  0
  2  3  1  0
  3  4  2  3
  3 25  1  0
  4  5  1  0
  5  6  2  0
  5 24  1  0
  6  7  1  0
  7  8  1  0
  8  9  2  3
  8 22  1  0
  9 10  1  0
 10 11  1  6
 10 16  1  0
 11 12  1  0
 12 13  2  0
 12 14  1  0
 14 15  1  0
 16 17  2  0
 16 18  1  0
 18 19  1  0
 19 20  1  0
 20 21  1  0
 22 23  2  0
 22 24  1  0
 25 26  2  0
 26 27  2  0
 27 28  1  0
 28 29  1  0
M  END
