
     RDKit          3D

 29 29  0  0  0  0  0  0  0  0999 V2000
   -3.6730   -2.8800   -0.3870 C   0  0  0  0  0  0  0  0  0  0  0  0
   -3.8750   -1.5470   -0.3120 C   0  0  0  0  0  0  0  0  0  0  0  0
   -2.7270   -0.7280   -0.5260 C   0  0  0  0  0  0  0  0  0  0  0  0
   -2.5610    0.5520   -0.5280 C   0  0  0  0  0  0  0  0  0  0  0  0
   -3.4870    1.6130   -0.3120 C   0  0  0  0  0  0  0  0  0  0  0  0
   -4.6860    1.4520   -0.0710 O   0  0  0  0  0  0  0  0  0  0  0  0
   -3.0570    2.9760   -0.3660 O   0  0  0  0  0  0  0  0  0  0  0  0
   -3.9820    3.9110   -0.1530 O   0  0  0  0  0  0  0  0  0  0  0  0
   -3.3770    5.0000    0.3090 O   0  0  0  0  0  0  0  0  0  0  0  0
   -1.4840   -1.4350   -0.7980 O   0  0  0  0  0  0  0  0  0  0  0  0
   -0.6160   -1.6890    0.2910 C   0  0  1  0  0  0  0  0  0  0  0  0
    0.4800   -2.3670   -0.2420 O   0  0  0  0  0  0  0  0  0  0  0  0
    1.2320   -1.5130   -1.0780 C   0  0  0  0  0  0  0  0  0  0  0  0
    1.8800   -0.5610   -0.1990 N   0  0  0  0  0  0  0  0  0  0  0  0
    3.2750   -0.3790   -0.2850 C   0  0  0  0  0  0  0  0  0  0  0  0
    3.9490   -1.0300   -1.1110 O   0  0  0  0  0  0  0  0  0  0  0  0
    3.9350    0.5430    0.5620 N   0  0  0  0  0  0  0  0  0  0  0  0
    5.3590    0.7370    0.4820 C   0  0  0  0  0  0  0  0  0  0  0  0
    6.0510    0.0910   -0.3420 O   0  0  0  0  0  0  0  0  0  0  0  0
    6.0140    1.6390    1.3090 O   0  0  0  0  0  0  0  0  0  0  0  0
    7.7680    1.8850    1.2190 P   0  0  0  0  0  0  0  0  0  0  0  0
    8.5380    0.3180    1.0680 O   0  0  0  0  0  0  0  0  0  0  0  0
    8.0510    2.7860   -0.2600 O   0  0  0  0  0  0  0  0  0  0  0  0
    1.0540    0.1270    0.6950 N   0  0  0  0  0  0  0  0  0  0  0  0
   -0.2120   -0.4480    0.9900 C   0  0  0  0  0  0  0  0  0  0  0  0
   -0.9630    0.0980    1.8310 O   0  0  0  0  0  0  0  0  0  0  0  0
   -5.5790   -1.0390    0.0480 P   0  0  0  0  0  0  0  0  0  0  0  0
   -6.5760   -1.1750   -1.3900 O   0  0  0  0  0  0  0  0  0  0  0  0
   -6.2280   -1.9850    1.3320 O   0  0  0  0  0  0  0  0  0  0  0  0
  1  2  2  0
  2  3  1  0
  2 27  1  0
  3  4  2  3
  3 10  1  0
  4  5  1  0
  5  6  2  0
  5  7  1  0
  7  8  1  0
  8  9  1  0
 11 10  1  6
 11 12  1  0
 11 25  1  0
 12 13  1  0
 13 14  1  0
 14 15  1  0
 14 24  1  0
 15 16  2  0
 15 17  1  0
 17 18  1  0
 18 19  2  0
 18 20  1  0
 20 21  1  0
 21 22  1  0
 21 23  1  0
 24 25  1  0
 25 26  2  0
 27 28  1  0
 27 29  1  0
M  END
