
     RDKit          3D

 14 14  0  0  0  0  0  0  0  0999 V2000
   -0.0900    1.8790   -1.8210 C   0  0  0  0  0  0  0  0  0  0  0  0
   -0.9710    1.1570   -0.8750 C   0  0  2  0  0  0  0  0  0  0  0  0
   -1.5820    2.0090    0.0330 O   0  0  0  0  0  0  0  0  0  0  0  0
   -2.4740    1.4240    0.8650 C   0  0  0  0  0  0  0  0  0  0  0  0
   -2.1850    0.0750    1.3700 C   0  0  0  0  0  0  0  0  0  0  0  0
   -1.3260   -0.7730    0.4740 C   0  0  2  0  0  0  0  0  0  0  0  0
   -0.8360   -1.9430    1.1240 N   0  0  0  0  0  0  0  0  0  0  0  0
   -0.2160    0.1400   -0.0130 C   0  0  1  0  0  0  0  0  0  0  0  0
    0.7830   -0.5170   -0.7090 O   0  0  0  0  0  0  0  0  0  0  0  0
    2.0910   -0.4650   -0.2300 C   0  0  0  0  0  0  0  0  0  0  0  0
    2.3150    0.1820    0.8240 O   0  0  0  0  0  0  0  0  0  0  0  0
    3.2020   -1.1190   -0.8890 C   0  0  0  0  0  0  0  0  0  0  0  0
    4.5180   -1.0350   -0.3580 N   0  0  0  0  0  0  0  0  0  0  0  0
    3.0760   -1.7890   -1.9480 O   0  0  0  0  0  0  0  0  0  0  0  0
  2  1  1  6
  2  3  1  0
  2  8  1  0
  3  4  1  0
  4  5  1  0
  5  6  1  0
  6  7  1  1
  6  8  1  0
  8  9  1  6
  9 10  1  0
 10 11  2  0
 10 12  1  0
 12 13  1  0
 12 14  2  0
M  CHG  1   7   1
M  END
