
     RDKit          3D

 14 15  0  0  0  0  0  0  0  0999 V2000
   -3.9920    0.4670   -0.9680 N   0  0  0  0  0  0  0  0  0  0  0  0
   -3.0390    0.2530    0.0760 C   0  0  1  0  0  0  0  0  0  0  0  0
   -1.9100   -0.7200   -0.2810 C   0  0  2  0  0  0  0  0  0  0  0  0
   -2.1170   -2.0300    0.2750 N   0  0  0  0  0  0  0  0  0  0  0  0
   -1.0030    0.1850    0.5430 C   0  0  1  0  0  0  0  0  0  0  0  0
    0.2510    0.3920    0.0390 O   0  0  0  0  0  0  0  0  0  0  0  0
    1.2660    0.3010    0.9550 C   0  0  0  0  0  0  0  0  0  0  0  0
    2.5890    0.5530    0.2550 C   0  0  2  0  0  0  0  0  0  0  0  0
    2.8160   -0.3750   -0.7550 O   0  0  0  0  0  0  0  0  0  0  0  0
    4.2160   -0.2640   -0.9200 C   0  0  0  0  0  0  0  0  0  0  0  0
    4.6580   -0.2480    0.5340 C   0  0  0  0  0  0  0  0  0  0  0  0
    3.6580    0.4910    1.1290 O   0  0  0  0  0  0  0  0  0  0  0  0
   -1.9420    1.3230    0.1610 C   0  0  1  0  0  0  0  0  0  0  0  0
   -1.6670    1.7730   -1.1250 O   0  0  0  0  0  0  0  0  0  0  0  0
  2  1  1  6
  2  3  1  0
  2 13  1  0
  3  4  1  1
  3  5  1  0
  5  6  1  6
  5 13  1  0
  6  7  1  0
  8  7  1  1
  8  9  1  0
  8 12  1  0
  9 10  1  0
 10 11  1  0
 11 12  1  0
 13 14  1  6
M  CHG  2   1   1   4   1
M  END
