
     RDKit          3D

 14 14  0  0  0  0  0  0  0  0999 V2000
    3.7780    1.0220    0.2110 C   0  0  0  0  0  0  0  0  0  0  0  0
    2.6150    0.4670    0.7980 O   0  0  0  0  0  0  0  0  0  0  0  0
    1.6450   -0.1450    0.0430 C   0  0  0  0  0  0  0  0  0  0  0  0
    1.8110   -0.2040   -1.2030 O   0  0  0  0  0  0  0  0  0  0  0  0
    0.4040   -0.7460    0.5920 C   0  0  1  0  0  0  0  0  0  0  0  0
    0.4120   -2.2100    0.2160 C   0  0  0  0  0  0  0  0  0  0  0  0
    0.3080   -0.6280    2.0150 N   0  0  0  0  0  0  0  0  0  0  0  0
   -0.7580   -0.0810   -0.1280 C   0  0  2  0  0  0  0  0  0  0  0  0
   -0.7880    1.4030    0.1300 C   0  0  0  0  0  0  0  0  0  0  0  0
   -1.8070    2.0930   -0.5940 N   0  0  0  0  0  0  0  0  0  0  0  0
   -2.0500   -0.7650    0.1140 C   0  0  0  0  0  0  0  0  0  0  0  0
   -2.7030   -0.6860   -1.0950 O   0  0  0  0  0  0  0  0  0  0  0  0
   -1.7530   -0.4700   -2.0690 C   0  0  0  0  0  0  0  0  0  0  0  0
   -0.5320   -0.2740   -1.4850 O   0  0  0  0  0  0  0  0  0  0  0  0
  1  2  1  0
  2  3  1  0
  3  4  2  0
  3  5  1  0
  5  6  1  1
  5  7  1  0
  5  8  1  0
  8  9  1  6
  8 11  1  0
  8 14  1  0
  9 10  1  0
 11 12  1  0
 12 13  1  0
 13 14  1  0
M  CHG  2   7   1  10   1
M  END
