
     RDKit          3D

 14 14  0  0  0  0  0  0  0  0999 V2000
    3.2060    0.8760    0.1800 N   0  0  0  0  0  0  0  0  0  0  0  0
    2.7010   -0.3000   -0.4520 C   0  0  0  0  0  0  0  0  0  0  0  0
    1.4370   -0.8290    0.1470 C   0  0  1  0  0  0  0  0  0  0  0  0
    1.6760   -1.1420    1.4830 O   0  0  0  0  0  0  0  0  0  0  0  0
    0.2740    0.0730    0.0660 C   0  0  1  0  0  0  0  0  0  0  0  0
   -0.0960    0.4860   -1.2510 N   0  0  0  0  0  0  0  0  0  0  0  0
   -1.2070    1.2980   -1.6030 C   0  0  0  0  0  0  0  0  0  0  0  0
   -1.2820    1.6350   -2.8250 O   0  0  0  0  0  0  0  0  0  0  0  0
   -2.2920    1.8000   -0.7190 C   0  0  0  0  0  0  0  0  0  0  0  0
   -2.7800    0.7120   -0.0070 O   0  0  0  0  0  0  0  0  0  0  0  0
   -1.9900    0.4030    1.0850 C   0  0  0  0  0  0  0  0  0  0  0  0
   -0.8990   -0.5720    0.7730 C   0  0  1  0  0  0  0  0  0  0  0  0
   -1.4070   -1.7810    0.0180 C   0  0  0  0  0  0  0  0  0  0  0  0
   -2.4850   -2.2860    0.7660 O   0  0  0  0  0  0  0  0  0  0  0  0
  1  2  1  0
  2  3  1  0
  3  4  1  1
  3  5  1  0
  5  6  1  6
  5 12  1  0
  6  7  1  0
  7  8  2  0
  7  9  1  0
  9 10  1  0
 10 11  1  0
 11 12  1  0
 12 13  1  6
 13 14  1  0
M  CHG  1   1   1
M  END
