
     RDKit          3D

 13 13  0  0  0  0  0  0  0  0999 V2000
    4.4400   -0.3890   -0.2920 C   0  0  0  0  0  0  0  0  0  0  0  0
    3.7050    0.0980   -1.3280 O   0  0  0  0  0  0  0  0  0  0  0  0
    2.6880    0.9510   -1.0560 C   0  0  0  0  0  0  0  0  0  0  0  0
    1.4900    0.3860   -0.3880 C   0  0  0  0  0  0  0  0  0  0  0  0
    1.2840   -0.8510   -0.0400 C   0  0  0  0  0  0  0  0  0  0  0  0
   -0.0740   -0.9120    0.6060 C   0  0  2  0  0  0  0  0  0  0  0  0
   -0.6560   -2.1940    0.3720 N   0  0  0  0  0  0  0  0  0  0  0  0
   -0.7460    0.2410   -0.0400 C   0  0  1  0  0  0  0  0  0  0  0  0
   -1.9100    0.7930    0.7430 C   0  0  1  0  0  0  0  0  0  0  0  0
   -2.3680    2.0630    0.1720 N   0  0  0  0  0  0  0  0  0  0  0  0
   -3.0800   -0.1570    0.5930 C   0  0  0  0  0  0  0  0  0  0  0  0
   -3.3760   -0.2730   -0.7700 O   0  0  0  0  0  0  0  0  0  0  0  0
    0.3530    1.1730   -0.0240 O   0  0  0  0  0  0  0  0  0  0  0  0
  1  2  1  0
  2  3  1  0
  3  4  1  0
  4  5  2  0
  4 13  1  0
  5  6  1  0
  6  7  1  6
  6  8  1  0
  8  9  1  0
  8 13  1  1
  9 10  1  6
  9 11  1  0
 11 12  1  0
M  CHG  2   7   1  10   1
M  END
