
     RDKit          3D

 13 13  0  0  0  0  0  0  0  0999 V2000
   -1.5320   -2.1920    0.3520 C   0  0  0  0  0  0  0  0  0  0  0  0
   -0.8390   -1.0350    0.5830 O   0  0  0  0  0  0  0  0  0  0  0  0
   -1.1360    0.0290   -0.2270 C   0  0  1  0  0  0  0  0  0  0  0  0
   -1.8250    1.0710    0.6870 C   0  0  0  0  0  0  0  0  0  0  0  0
   -2.1850    2.2510   -0.0770 N   0  0  0  0  0  0  0  0  0  0  0  0
    0.1080    0.6800   -0.7140 C   0  0  1  0  0  0  0  0  0  0  0  0
    0.9250    1.1660    0.3340 O   0  0  0  0  0  0  0  0  0  0  0  0
    1.8210    0.1870    0.6830 C   0  0  0  0  0  0  0  0  0  0  0  0
    2.5400    0.1010    2.0120 C   0  0  0  0  0  0  0  0  0  0  0  0
    3.3110    1.2630    2.1990 O   0  0  0  0  0  0  0  0  0  0  0  0
    1.9620   -0.6600   -0.3070 C   0  0  0  0  0  0  0  0  0  0  0  0
    1.0850   -0.2190   -1.4200 C   0  0  1  0  0  0  0  0  0  0  0  0
    0.5260   -1.3080   -2.1350 N   0  0  0  0  0  0  0  0  0  0  0  0
  1  2  1  0
  2  3  1  0
  3  4  1  1
  3  6  1  0
  4  5  1  0
  6  7  1  1
  6 12  1  0
  7  8  1  0
  8  9  1  0
  8 11  2  0
  9 10  1  0
 11 12  1  0
 12 13  1  1
M  CHG  2   5   1  13   1
M  END
