
     RDKit          3D

 23 26  0  0  0  0  0  0  0  0999 V2000
   -5.3770   -0.1110    0.8940 C   0  0  0  0  0  0  0  0  0  0  0  0
   -4.5610   -0.9200   -0.0220 C   0  0  0  0  0  0  0  0  0  0  0  0
   -4.9170   -2.1070   -0.1690 O   0  0  0  0  0  0  0  0  0  0  0  0
   -3.3970   -0.4850   -0.7620 C   0  0  1  0  0  0  0  0  0  0  0  0
   -3.5860    0.6620   -1.7220 C   0  0  0  0  0  0  0  0  0  0  0  0
   -2.2010    1.3160   -1.8730 C   0  0  0  0  0  0  0  0  0  0  0  0
   -1.3380    0.3580   -1.1610 C   0  0  1  0  0  0  0  0  0  0  0  0
    0.0050    0.7950   -0.7300 C   0  0  2  0  0  0  0  0  0  0  0  0
    0.7940    1.3260   -1.8680 C   0  0  0  0  0  0  0  0  0  0  0  0
    2.1950    0.8640   -1.9500 C   0  0  0  0  0  0  0  0  0  0  0  0
    2.8180    0.1190   -1.0460 C   0  0  0  0  0  0  0  0  0  0  0  0
    4.2360   -0.2590   -1.2850 C   0  0  0  0  0  0  0  0  0  0  0  0
    4.9190   -0.9060   -0.1430 C   0  0  1  0  0  0  0  0  0  0  0  0
    5.7890    0.0070    0.4840 O   0  0  0  0  0  0  0  0  0  0  0  0
    4.0530   -1.4860    0.9180 C   0  0  0  0  0  0  0  0  0  0  0  0
    2.6190   -1.7080    0.4900 C   0  0  0  0  0  0  0  0  0  0  0  0
    2.0820   -0.3070    0.1570 C   0  0  1  0  0  0  0  0  0  0  0  0
    2.3620    0.6350    1.2870 C   0  0  0  0  0  0  0  0  0  0  0  0
    0.6160   -0.4620   -0.0880 C   0  0  1  0  0  0  0  0  0  0  0  0
   -0.1400   -0.6780    1.1880 C   0  0  0  0  0  0  0  0  0  0  0  0
   -1.5970   -1.0030    0.9150 C   0  0  0  0  0  0  0  0  0  0  0  0
   -2.2300    0.0240    0.0540 C   0  0  2  0  0  0  0  0  0  0  0  0
   -2.6210    1.2800    0.7750 C   0  0  0  0  0  0  0  0  0  0  0  0
  1  2  1  0
  2  3  2  0
  4  2  1  1
  4  5  1  0
  4 22  1  0
  5  6  1  0
  7  6  1  1
  7  8  1  0
  7 22  1  0
  8  9  1  6
  8 19  1  0
  9 10  1  0
 10 11  2  0
 11 12  1  0
 11 17  1  0
 12 13  1  0
 13 14  1  1
 13 15  1  0
 15 16  1  0
 16 17  1  0
 17 18  1  1
 17 19  1  0
 19 20  1  1
 20 21  1  0
 21 22  1  0
 22 23  1  1
M  END
