
     RDKit          3D

 23 23  0  0  0  0  0  0  0  0999 V2000
   -5.0150    0.0520   -1.2810 C   0  0  0  0  0  0  0  0  0  0  0  0
   -3.6440    0.2520   -1.6400 N   0  0  0  0  0  0  0  0  0  0  0  0
   -2.7220   -0.4950   -0.7880 C   0  0  2  0  0  0  0  0  0  0  0  0
   -3.3510   -1.7710   -0.3290 C   0  0  0  0  0  0  0  0  0  0  0  0
   -2.4220    0.3890    0.3990 C   0  0  2  0  0  0  0  0  0  0  0  0
   -1.8220    1.6240   -0.0350 N   0  0  0  0  0  0  0  0  0  0  0  0
   -1.6880    2.6270    0.9650 C   0  0  0  0  0  0  0  0  0  0  0  0
   -1.5050    3.8380    0.7190 O   0  0  0  0  0  0  0  0  0  0  0  0
   -1.7860    2.0980    2.3580 C   0  0  0  0  0  0  0  0  0  0  0  0
   -1.0990    0.7630    2.4350 C   0  0  0  0  0  0  0  0  0  0  0  0
   -1.5620   -0.2490    1.4250 C   0  0  2  0  0  0  0  0  0  0  0  0
   -0.3580   -0.8450    0.7870 C   0  0  0  0  0  0  0  0  0  0  0  0
   -0.1260   -2.0900    0.8270 O   0  0  0  0  0  0  0  0  0  0  0  0
    0.5860   -0.0370    0.1040 N   0  0  0  0  0  0  0  0  0  0  0  0
    1.7530   -0.6150   -0.5190 C   0  0  0  0  0  0  0  0  0  0  0  0
    1.8860   -1.8590   -0.4230 O   0  0  0  0  0  0  0  0  0  0  0  0
    2.7210    0.2530   -1.2250 C   0  0  0  0  0  0  0  0  0  0  0  0
    3.9020   -0.5340   -1.6970 C   0  0  0  0  0  0  0  0  0  0  0  0
    4.6610   -1.1720   -0.5720 C   0  0  1  0  0  0  0  0  0  0  0  0
    5.7680   -1.9060   -1.1230 O   0  0  0  0  0  0  0  0  0  0  0  0
    5.2210   -0.1670    0.3380 C   0  0  0  0  0  0  0  0  0  0  0  0
    6.6280    0.0040    0.4440 N   0  0  0  0  0  0  0  0  0  0  0  0
    4.4630    0.5490    1.0280 O   0  0  0  0  0  0  0  0  0  0  0  0
  1  2  1  0
  2  3  1  0
  3  4  1  1
  3  5  1  0
  5  6  1  6
  5 11  1  0
  6  7  1  0
  7  8  2  0
  7  9  1  0
  9 10  1  0
 10 11  1  0
 11 12  1  6
 12 13  2  0
 12 14  1  0
 14 15  1  0
 15 16  2  0
 15 17  1  0
 17 18  1  0
 18 19  1  0
 19 20  1  6
 19 21  1  0
 21 22  1  0
 21 23  2  0
M  CHG  1   2   1
M  END
