
     RDKit          3D

 23 23  0  0  0  0  0  0  0  0999 V2000
    2.9790   -2.7470   -0.9670 C   0  0  0  0  0  0  0  0  0  0  0  0
    3.0840   -1.2340   -0.8350 C   0  0  0  0  0  0  0  0  0  0  0  0
    3.0380   -0.8630    0.6190 C   0  0  2  0  0  0  0  0  0  0  0  0
    1.9180   -1.2250    1.3120 O   0  0  0  0  0  0  0  0  0  0  0  0
    3.4470    0.5450    0.7820 C   0  0  0  0  0  0  0  0  0  0  0  0
    4.7820    0.7420    1.0850 O   0  0  0  0  0  0  0  0  0  0  0  0
    2.6060    1.5450    0.6430 C   0  0  0  0  0  0  0  0  0  0  0  0
    1.2120    1.1920    0.3040 C   0  0  0  0  0  0  0  0  0  0  0  0
    0.2710    2.0730    0.1470 C   0  0  0  0  0  0  0  0  0  0  0  0
   -1.0860    1.7480   -0.1800 C   0  0  0  0  0  0  0  0  0  0  0  0
   -1.8680    2.8180   -0.3210 O   0  0  0  0  0  0  0  0  0  0  0  0
   -1.7040    0.5030   -0.3700 N   0  0  0  0  0  0  0  0  0  0  0  0
   -1.1950   -0.7980   -0.2390 C   0  0  0  0  0  0  0  0  0  0  0  0
   -2.4270   -1.7200   -0.3810 C   0  0  2  0  0  0  0  0  0  0  0  0
   -2.4410   -2.3040   -1.7490 C   0  0  0  0  0  0  0  0  0  0  0  0
   -3.5850   -0.7910   -0.0910 C   0  0  2  0  0  0  0  0  0  0  0  0
   -4.8880   -1.3180   -0.6310 C   0  0  0  0  0  0  0  0  0  0  0  0
   -5.9880   -0.4290   -0.3510 N   0  0  0  0  0  0  0  0  0  0  0  0
   -3.0900    0.4370   -0.8060 C   0  0  0  0  0  0  0  0  0  0  0  0
    2.8690    2.9110    0.7770 N   0  0  0  0  0  0  0  0  0  0  0  0
    4.1100    3.4890    1.0940 C   0  0  0  0  0  0  0  0  0  0  0  0
    4.1690    4.9490    1.1860 N   0  0  0  0  0  0  0  0  0  0  0  0
    5.1660    2.9040    1.3060 O   0  0  0  0  0  0  0  0  0  0  0  0
  1  2  1  0
  2  3  1  0
  3  4  1  6
  3  5  1  0
  5  6  1  0
  5  7  2  3
  7  8  1  0
  7 20  1  0
  8  9  2  3
  9 10  1  0
 10 11  2  0
 10 12  1  0
 12 13  1  0
 12 19  1  0
 13 14  1  0
 14 15  1  6
 14 16  1  0
 16 17  1  6
 16 19  1  0
 17 18  1  0
 20 21  1  0
 21 22  1  0
 21 23  2  0
M  CHG  1  18   1
M  END
