
     RDKit          3D

 23 23  0  0  0  0  0  0  0  0999 V2000
    7.0930   -0.5890   -0.0840 C   0  0  0  0  0  0  0  0  0  0  0  0
    6.5540    0.6420   -0.7780 C   0  0  0  0  0  0  0  0  0  0  0  0
    5.7990    1.5450    0.1470 C   0  0  2  0  0  0  0  0  0  0  0  0
    6.6790    1.9420    1.1540 O   0  0  0  0  0  0  0  0  0  0  0  0
    4.5280    0.9330    0.6920 C   0  0  0  0  0  0  0  0  0  0  0  0
    3.7340    0.5820   -0.3660 O   0  0  0  0  0  0  0  0  0  0  0  0
    2.5190    0.0090   -0.0110 C   0  0  2  0  0  0  0  0  0  0  0  0
    2.4900   -1.4380   -0.5000 C   0  0  0  0  0  0  0  0  0  0  0  0
    3.5920   -2.1810    0.1250 N   0  0  0  0  0  0  0  0  0  0  0  0
    1.3400    0.7860   -0.4920 C   0  0  0  0  0  0  0  0  0  0  0  0
    0.1310    0.1140   -0.0590 N   0  0  0  0  0  0  0  0  0  0  0  0
   -1.1680    0.6270   -0.3790 C   0  0  0  0  0  0  0  0  0  0  0  0
   -1.2650    1.6740   -1.0430 O   0  0  0  0  0  0  0  0  0  0  0  0
   -2.3310   -0.0280    0.0430 N   0  0  0  0  0  0  0  0  0  0  0  0
   -3.6590    0.4570   -0.2580 C   0  0  1  0  0  0  0  0  0  0  0  0
   -4.3060   -0.5900   -1.1620 C   0  0  0  0  0  0  0  0  0  0  0  0
   -5.5670   -0.0530   -1.7950 C   0  0  0  0  0  0  0  0  0  0  0  0
   -6.2170    0.8760   -0.8270 C   0  0  0  0  0  0  0  0  0  0  0  0
   -6.0000    0.5040    0.6050 C   0  0  1  0  0  0  0  0  0  0  0  0
   -6.5430   -0.8220    0.9290 C   0  0  0  0  0  0  0  0  0  0  0  0
   -6.4400   -1.3570    2.2300 N   0  0  0  0  0  0  0  0  0  0  0  0
   -7.1120   -1.5040    0.0430 O   0  0  0  0  0  0  0  0  0  0  0  0
   -4.5190    0.6190    0.9630 C   0  0  0  0  0  0  0  0  0  0  0  0
  1  2  1  0
  2  3  1  0
  3  4  1  1
  3  5  1  0
  5  6  1  0
  6  7  1  0
  7  8  1  6
  7 10  1  0
  8  9  1  0
 10 11  1  0
 11 12  1  0
 12 13  2  0
 12 14  1  0
 15 14  1  1
 15 16  1  0
 15 23  1  0
 16 17  1  0
 17 18  1  0
 18 19  1  0
 19 20  1  6
 19 23  1  0
 20 21  1  0
 20 22  2  0
M  CHG  1   9   1
M  END
