
     RDKit          3D

 23 23  0  0  0  0  0  0  0  0999 V2000
   -2.6610   -4.0090    1.5380 C   0  0  0  0  0  0  0  0  0  0  0  0
   -1.7960   -3.0290    0.7180 C   0  0  0  0  0  0  0  0  0  0  0  0
   -2.3100   -1.6560    0.9570 C   0  0  0  0  0  0  0  0  0  0  0  0
   -1.6090   -0.5460    0.2290 C   0  0  2  0  0  0  0  0  0  0  0  0
   -0.1430   -0.5420    0.6770 C   0  0  1  0  0  0  0  0  0  0  0  0
    0.7180    0.1780   -0.3460 C   0  0  0  0  0  0  0  0  0  0  0  0
    2.0790    0.1410    0.1430 N   0  0  0  0  0  0  0  0  0  0  0  0
    3.1620    0.7370   -0.5890 C   0  0  0  0  0  0  0  0  0  0  0  0
    2.8820    1.2950   -1.6760 O   0  0  0  0  0  0  0  0  0  0  0  0
    4.4960    0.6950   -0.0980 N   0  0  0  0  0  0  0  0  0  0  0  0
    4.7430    0.0300    1.1710 C   0  0  0  0  0  0  0  0  0  0  0  0
    5.5420    1.3070   -0.8700 C   0  0  0  0  0  0  0  0  0  0  0  0
    6.1420    0.2940   -1.8460 C   0  0  0  0  0  0  0  0  0  0  0  0
    5.1480   -0.1670   -2.7100 O   0  0  0  0  0  0  0  0  0  0  0  0
   -0.1920    0.2760    1.8550 N   0  0  0  0  0  0  0  0  0  0  0  0
   -1.1200    1.3150    1.5870 C   0  0  0  0  0  0  0  0  0  0  0  0
   -1.0190    2.4800    2.0410 O   0  0  0  0  0  0  0  0  0  0  0  0
   -2.1830    0.7450    0.6970 C   0  0  2  0  0  0  0  0  0  0  0  0
   -3.2750    0.5310    1.5780 O   0  0  0  0  0  0  0  0  0  0  0  0
   -2.6640    1.7130   -0.3140 C   0  0  2  0  0  0  0  0  0  0  0  0
   -3.1570    2.9710    0.4590 C   0  0  0  0  0  0  0  0  0  0  0  0
   -3.8690    1.2960   -1.0960 C   0  0  0  0  0  0  0  0  0  0  0  0
   -3.7970    0.1350   -1.8960 N   0  0  0  0  0  0  0  0  0  0  0  0
  1  2  1  0
  2  3  1  0
  4  3  1  1
  4  5  1  0
  4 18  1  0
  5  6  1  6
  5 15  1  0
  6  7  1  0
  7  8  1  0
  8  9  2  0
  8 10  1  0
 10 11  1  0
 10 12  1  0
 12 13  1  0
 13 14  1  0
 15 16  1  0
 16 17  2  0
 16 18  1  0
 18 19  1  1
 18 20  1  0
 20 21  1  1
 20 22  1  0
 22 23  1  0
M  CHG  1  23   1
M  END
