
     RDKit          3D

 23 23  0  0  0  0  0  0  0  0999 V2000
   -6.7090   -0.4620   -1.2040 C   0  0  0  0  0  0  0  0  0  0  0  0
   -5.7460    0.4810   -1.6860 N   0  0  0  0  0  0  0  0  0  0  0  0
   -4.8040   -0.0560   -2.6080 C   0  0  0  0  0  0  0  0  0  0  0  0
   -3.7660   -0.8780   -1.8940 C   0  0  0  0  0  0  0  0  0  0  0  0
   -3.1320   -0.2020   -0.8810 O   0  0  0  0  0  0  0  0  0  0  0  0
   -3.5950    1.0100   -0.5670 C   0  0  2  0  0  0  0  0  0  0  0  0
   -3.1790    1.4860    0.7950 C   0  0  0  0  0  0  0  0  0  0  0  0
   -1.7730    1.6160    1.0080 N   0  0  0  0  0  0  0  0  0  0  0  0
   -0.9000    0.5230    0.9580 C   0  0  0  0  0  0  0  0  0  0  0  0
   -1.2680   -0.6330    0.7340 O   0  0  0  0  0  0  0  0  0  0  0  0
    0.5520    0.8060    1.1930 C   0  0  0  0  0  0  0  0  0  0  0  0
    1.2940   -0.5160    1.1780 C   0  0  2  0  0  0  0  0  0  0  0  0
    0.8040   -1.3600    2.1810 O   0  0  0  0  0  0  0  0  0  0  0  0
    2.7900   -0.3260    1.3120 C   0  0  2  0  0  0  0  0  0  0  0  0
    3.1420    0.2860    2.5700 N   0  0  0  0  0  0  0  0  0  0  0  0
    3.3030    0.3600    0.0990 C   0  0  0  0  0  0  0  0  0  0  0  0
    4.7890    0.6070    0.1250 C   0  0  0  0  0  0  0  0  0  0  0  0
    5.6210   -0.6190    0.2540 C   0  0  0  0  0  0  0  0  0  0  0  0
    5.4430   -1.6320   -0.8500 C   0  0  1  0  0  0  0  0  0  0  0  0
    5.7680   -1.0860   -2.0900 O   0  0  0  0  0  0  0  0  0  0  0  0
    6.3640   -2.7290   -0.5900 C   0  0  0  0  0  0  0  0  0  0  0  0
    7.1290   -3.6140   -0.3910 N   0  0  0  0  0  0  0  0  0  0  0  0
   -5.0700    1.2300   -0.6910 C   0  0  0  0  0  0  0  0  0  0  0  0
  1  2  1  0
  2  3  1  0
  2 23  1  0
  3  4  1  0
  4  5  1  0
  5  6  1  0
  6  7  1  1
  6 23  1  0
  7  8  1  0
  8  9  1  0
  9 10  2  0
  9 11  1  0
 11 12  1  0
 12 13  1  1
 12 14  1  0
 14 15  1  1
 14 16  1  0
 16 17  1  0
 17 18  1  0
 18 19  1  0
 19 20  1  6
 19 21  1  0
 21 22  3  0
M  CHG  1  15   1
M  END
