
     RDKit          3D

 12 13  0  0  0  0  0  0  0  0999 V2000
   -2.2710   -1.4840   -0.1150 C   0  0  0  0  0  0  0  0  0  0  0  0
   -0.9010   -0.9820   -0.0790 N   0  0  0  0  0  0  0  0  0  0  0  0
    0.2250   -1.6600   -0.1360 N   0  0  0  0  0  0  0  0  0  0  0  0
    1.2950   -0.8470   -0.0760 C   0  0  0  0  0  0  0  0  0  0  0  0
    2.6730   -1.2300   -0.1100 N   0  0  0  0  0  0  0  0  0  0  0  0
    3.4770   -0.4250   -0.6350 O   0  0  0  0  0  0  0  0  0  0  0  0
    3.0610   -2.4320    0.4180 O   0  0  0  0  0  0  0  0  0  0  0  0
    0.8170    0.4460    0.0270 C   0  0  0  0  0  0  0  0  0  0  0  0
    1.1640    1.7400    0.1280 N   0  0  0  0  0  0  0  0  0  0  0  0
    0.0310    2.4590    0.1880 C   0  0  0  0  0  0  0  0  0  0  0  0
   -1.0550    1.6020    0.1240 C   0  0  0  0  0  0  0  0  0  0  0  0
   -0.5620    0.3070    0.0210 C   0  0  0  0  0  0  0  0  0  0  0  0
  1  2  1  0
  2  3  1  0
  2 12  1  0
  3  4  2  0
  4  5  1  0
  4  8  1  0
  5  6  2  0
  5  7  1  0
  8  9  1  0
  8 12  2  0
  9 10  1  0
 10 11  2  0
 11 12  1  0
M  CHG  2   5   1   7  -1
M  END
