
     RDKit          3D

 28 30  0  0  0  0  0  0  0  0999 V2000
   -5.8880    2.7480    0.0150 N   0  0  0  0  0  0  0  0  0  0  0  0
   -5.3430    1.6410   -0.6530 C   0  0  0  0  0  0  0  0  0  0  0  0
   -4.2650    1.0340   -0.1490 N   0  0  0  0  0  0  0  0  0  0  0  0
   -3.7340   -0.0380   -0.7910 C   0  0  0  0  0  0  0  0  0  0  0  0
   -4.3410   -0.4680   -1.9640 C   0  0  0  0  0  0  0  0  0  0  0  0
   -3.6290   -1.5260   -2.3880 N   0  0  0  0  0  0  0  0  0  0  0  0
   -2.6140   -1.7400   -1.5020 C   0  0  0  0  0  0  0  0  0  0  0  0
   -2.6780   -0.8260   -0.5200 N   0  0  0  0  0  0  0  0  0  0  0  0
   -1.7900   -0.6870    0.6310 C   0  0  2  0  0  0  0  0  0  0  0  0
   -0.6610   -0.0250    0.2210 O   0  0  0  0  0  0  0  0  0  0  0  0
    0.4220   -0.5910    0.8750 C   0  0  2  0  0  0  0  0  0  0  0  0
    1.6490   -0.3210    0.0250 C   0  0  0  0  0  0  0  0  0  0  0  0
    2.7590   -0.8520    0.6070 O   0  0  0  0  0  0  0  0  0  0  0  0
    4.1430   -0.5930   -0.2620 P   0  0  0  0  0  0  0  0  0  0  0  0
    4.0250   -0.5200   -1.9270 O   0  0  0  0  0  0  0  0  0  0  0  0
    5.5980   -0.5370    0.4440 O   0  0  0  0  0  0  0  0  0  0  0  0
    3.9040    0.9170   -0.1970 O   0  0  0  0  0  0  0  0  0  0  0  0
    5.0220    1.9640   -0.1760 P   0  0  0  0  0  0  0  0  0  0  0  0
    3.8840    3.0720   -0.8160 O   0  0  0  0  0  0  0  0  0  0  0  0
    5.9240    1.1450   -1.2420 O   0  0  0  0  0  0  0  0  0  0  0  0
    5.1710    1.8890    1.4350 O   0  0  0  0  0  0  0  0  0  0  0  0
    0.0920   -2.0690    0.8240 C   0  0  1  0  0  0  0  0  0  0  0  0
    0.7560   -2.7860    1.8040 O   0  0  0  0  0  0  0  0  0  0  0  0
   -1.3990   -2.0530    1.0880 C   0  0  1  0  0  0  0  0  0  0  0  0
   -1.5820   -2.1770    2.4580 O   0  0  0  0  0  0  0  0  0  0  0  0
   -5.4540    0.1640   -2.4790 C   0  0  0  0  0  0  0  0  0  0  0  0
   -6.0110   -0.2240   -3.5470 O   0  0  0  0  0  0  0  0  0  0  0  0
   -5.9310    1.2220   -1.7910 N   0  0  0  0  0  0  0  0  0  0  0  0
  1  2  1  0
  2  3  1  0
  2 28  2  0
  3  4  1  0
  4  5  2  0
  4  8  1  0
  5  6  1  0
  5 26  1  0
  6  7  2  0
  7  8  1  0
  9  8  1  6
  9 10  1  0
  9 24  1  0
 10 11  1  0
 11 12  1  6
 11 22  1  0
 12 13  1  0
 13 14  1  0
 14 15  1  0
 14 16  1  0
 14 17  1  0
 17 18  1  0
 18 19  1  0
 18 20  1  0
 18 21  1  0
 22 23  1  1
 22 24  1  0
 24 25  1  1
 26 27  2  0
 26 28  1  0
M  CHG  1  28   1
M  END
