
     RDKit          3D

 13 13  0  0  0  0  0  0  0  0999 V2000
   -4.5940    0.9040    1.2480 C   0  0  0  0  0  0  0  0  0  0  0  0
   -3.8380    0.9860    0.2240 N   0  0  0  0  0  0  0  0  0  0  0  0
   -2.4930    0.6510    0.1600 C   0  0  0  0  0  0  0  0  0  0  0  0
   -1.9150    0.1120    1.1340 N   0  0  0  0  0  0  0  0  0  0  0  0
   -0.6460   -0.2770    1.2570 O   0  0  0  0  0  0  0  0  0  0  0  0
    0.3710   -0.1890    0.3490 C   0  0  0  0  0  0  0  0  0  0  0  0
    1.7270   -0.6740    0.6590 C   0  0  0  0  0  0  0  0  0  0  0  0
    1.9440   -1.1970    1.8340 C   0  0  0  0  0  0  0  0  0  0  0  0
    2.7650   -0.5780   -0.2850 N   0  0  0  0  0  0  0  0  0  0  0  0
    2.7910   -1.3250   -1.5280 C   0  0  0  0  0  0  0  0  0  0  0  0
    0.1590    0.3380   -0.8390 C   0  0  0  0  0  0  0  0  0  0  0  0
   -1.4990    0.9780   -1.3370 P   0  0  0  0  0  0  0  0  0  0  0  0
   -1.3260    2.6900   -1.5710 O   0  0  0  0  0  0  0  0  0  0  0  0
  1  2  2  0
  2  3  1  0
  3  4  2  0
  3 12  1  0
  4  5  1  0
  5  6  1  0
  6  7  1  0
  6 11  2  0
  7  8  2  0
  7  9  1  0
  9 10  1  0
 11 12  1  0
 12 13  1  0
M  END
