
     RDKit          3D

 11 10  0  0  0  0  0  0  0  0999 V2000
   -3.1450   -0.8400    0.5190 C   0  0  0  0  0  0  0  0  0  0  0  0
   -1.8730   -0.2920    0.7390 O   0  0  0  0  0  0  0  0  0  0  0  0
   -1.3050   -0.0160   -0.5020 C   0  0  0  0  0  0  0  0  0  0  0  0
    0.0710    0.5770   -0.2350 C   0  0  1  0  0  0  0  0  0  0  0  0
   -0.0600    1.7370    0.5140 O   0  0  0  0  0  0  0  0  0  0  0  0
    0.3970    2.7380   -0.2020 O   0  0  0  0  0  0  0  0  0  0  0  0
    0.7870   -0.3560    0.4840 O   0  0  0  0  0  0  0  0  0  0  0  0
    1.8320   -0.7550   -0.2180 O   0  0  0  0  0  0  0  0  0  0  0  0
    3.1140   -0.8620    0.3040 C   0  0  0  0  0  0  0  0  0  0  0  0
    3.3240   -0.5710    1.5080 O   0  0  0  0  0  0  0  0  0  0  0  0
    4.1960   -1.2860   -0.4620 O   0  0  0  0  0  0  0  0  0  0  0  0
  1  2  1  0
  2  3  1  0
  4  3  1  1
  4  5  1  0
  4  7  1  0
  5  6  1  0
  7  8  1  0
  8  9  1  0
  9 10  2  0
  9 11  1  0
M  END
