
     RDKit          3D

 13 14  0  0  0  0  0  0  0  0999 V2000
    3.9740    0.2960   -0.5780 C   0  0  0  0  0  0  0  0  0  0  0  0
    2.6830   -0.4790   -0.3920 C   0  0  0  0  0  0  0  0  0  0  0  0
    1.7430    0.2570    0.3330 O   0  0  0  0  0  0  0  0  0  0  0  0
    0.6420   -0.5200    0.4400 N   0  0  0  0  0  0  0  0  0  0  0  0
    0.6900   -1.8910    0.7420 N   0  0  0  0  0  0  0  0  0  0  0  0
   -0.2540   -2.1440    1.6700 O   0  0  0  0  0  0  0  0  0  0  0  0
   -1.5600   -2.0640    1.1340 C   0  0  0  0  0  0  0  0  0  0  0  0
   -1.7520   -0.8080    0.4630 N   0  0  0  0  0  0  0  0  0  0  0  0
   -2.9460   -0.1980   -0.0810 C   0  0  0  0  0  0  0  0  0  0  0  0
   -2.5770    1.2620   -0.1520 C   0  0  0  0  0  0  0  0  0  0  0  0
   -1.0950    1.2600   -0.1160 C   0  0  0  0  0  0  0  0  0  0  0  0
   -0.2340    2.4360   -0.4360 C   0  0  0  0  0  0  0  0  0  0  0  0
   -0.6550    0.0760    0.2370 C   0  0  0  0  0  0  0  0  0  0  0  0
  1  2  1  0
  2  3  1  0
  3  4  1  0
  4  5  1  0
  4 13  1  0
  5  6  1  0
  6  7  1  0
  7  8  1  0
  8  9  1  0
  8 13  1  0
  9 10  1  0
 10 11  1  0
 11 12  1  0
 11 13  2  0
M  END
