
     RDKit          3D

 11 11  0  0  0  0  0  0  0  0999 V2000
    4.3710    0.3120    0.1410 O   0  0  0  0  0  0  0  0  0  0  0  0
    3.1000    0.1510    0.4000 O   0  0  0  0  0  0  0  0  0  0  0  0
    2.7160   -1.0910    0.3250 O   0  0  0  0  0  0  0  0  0  0  0  0
    1.4590   -1.2420   -0.0020 O   0  0  0  0  0  0  0  0  0  0  0  0
    0.7170   -0.1180    0.2650 C   0  0  2  0  0  0  0  0  0  0  0  0
   -0.4090   -0.4910    1.2410 C   0  0  0  0  0  0  0  0  0  0  0  0
   -1.3540   -1.1690    0.4920 O   0  0  0  0  0  0  0  0  0  0  0  0
   -2.3490   -0.3940   -0.0220 C   0  0  0  0  0  0  0  0  0  0  0  0
   -2.0200    1.0290   -0.2590 C   0  0  0  0  0  0  0  0  0  0  0  0
   -0.7130    1.3230   -0.4910 O   0  0  0  0  0  0  0  0  0  0  0  0
    0.0350    0.3480   -0.8840 O   0  0  0  0  0  0  0  0  0  0  0  0
  1  2  1  0
  2  3  1  0
  3  4  1  0
  5  4  1  6
  5  6  1  0
  5 11  1  0
  6  7  1  0
  7  8  1  0
  8  9  1  0
  9 10  1  0
 10 11  1  0
M  END
