
     RDKit          3D

 11 11  0  0  0  0  0  0  0  0999 V2000
    3.6800    0.7710   -0.0950 C   0  0  0  0  0  0  0  0  0  0  0  0
    2.6210   -0.0590    0.6290 C   0  0  0  0  0  0  0  0  0  0  0  0
    1.3850    0.2130   -0.0170 O   0  0  0  0  0  0  0  0  0  0  0  0
    0.1870   -0.3520    0.3510 C   0  0  0  0  0  0  0  0  0  0  0  0
    0.1510   -1.1570    1.3100 O   0  0  0  0  0  0  0  0  0  0  0  0
   -1.0600   -0.0430   -0.3420 C   0  0  0  0  0  0  0  0  0  0  0  0
   -2.2760   -0.5210   -0.0830 C   0  0  0  0  0  0  0  0  0  0  0  0
   -2.5720   -1.4820    0.9950 C   0  0  0  0  0  0  0  0  0  0  0  0
   -3.1960    0.0110   -0.9590 O   0  0  0  0  0  0  0  0  0  0  0  0
   -2.6540    1.2420   -1.3360 N   0  0  0  0  0  0  0  0  0  0  0  0
   -1.2610    0.8710   -1.4990 C   0  0  0  0  0  0  0  0  0  0  0  0
  1  2  1  0
  2  3  1  0
  3  4  1  0
  4  5  2  0
  4  6  1  0
  6  7  2  0
  6 11  1  0
  7  8  1  0
  7  9  1  0
  9 10  1  0
 10 11  1  0
M  END
