
     RDKit          3D

 17 19  0  0  0  0  0  0  0  0999 V2000
   -1.7100   -2.1520    0.7390 C   0  0  0  0  0  0  0  0  0  0  0  0
   -0.9970   -1.3140   -0.3110 C   0  0  2  0  0  0  0  0  0  0  0  0
    0.4180   -1.1280    0.0010 C   0  0  0  0  0  0  0  0  0  0  0  0
    0.8890   -1.6690    1.1110 C   0  0  0  0  0  0  0  0  0  0  0  0
    2.2310   -1.6690    1.7020 C   0  0  0  0  0  0  0  0  0  0  0  0
    3.2340   -0.8960    1.3290 C   0  0  0  0  0  0  0  0  0  0  0  0
    3.2630    0.1280    0.2640 C   0  0  0  0  0  0  0  0  0  0  0  0
    4.2960    1.0170    0.1680 C   0  0  0  0  0  0  0  0  0  0  0  0
    3.9990    1.8180   -0.9280 C   0  0  0  0  0  0  0  0  0  0  0  0
    2.8060    1.3630   -1.4280 C   0  0  0  0  0  0  0  0  0  0  0  0
    2.3520    0.3200   -0.6920 N   0  0  0  0  0  0  0  0  0  0  0  0
    1.1590   -0.3680   -0.9430 N   0  0  0  0  0  0  0  0  0  0  0  0
   -1.7050   -0.1080   -0.6180 N   0  0  1  0  0  0  0  0  0  0  0  0
   -3.0940   -0.1350   -0.1320 C   0  0  0  0  0  0  0  0  0  0  0  0
   -3.5300    1.3210   -0.2490 C   0  0  0  0  0  0  0  0  0  0  0  0
   -2.2560    2.0920   -0.4760 C   0  0  0  0  0  0  0  0  0  0  0  0
   -1.2160    1.0710    0.0170 C   0  0  0  0  0  0  0  0  0  0  0  0
  2  1  1  1
  2  3  1  0
  2 13  1  0
  3  4  2  0
  3 12  1  0
  4  5  1  0
  5  6  2  0
  6  7  1  0
  7  8  2  0
  7 11  1  0
  8  9  1  0
  9 10  2  0
 10 11  1  0
 11 12  1  0
 13 14  1  1
 13 17  1  0
 14 15  1  0
 15 16  1  0
 16 17  1  0
M  CHG  1  13   1
M  END
