
     RDKit          3D

 22 24  0  0  0  0  0  0  0  0999 V2000
   -4.9040   -1.2290    0.2700 N   0  0  0  0  0  0  0  0  0  0  0  0
   -4.1910    0.0060    0.6350 C   0  0  2  0  0  0  0  0  0  0  0  0
   -4.6480    1.0530   -0.3400 C   0  0  0  0  0  0  0  0  0  0  0  0
   -3.5690    1.2500   -1.3820 C   0  0  0  0  0  0  0  0  0  0  0  0
   -2.7770    2.4630   -0.9410 C   0  0  0  0  0  0  0  0  0  0  0  0
   -1.7780    2.0540    0.0660 C   0  0  0  0  0  0  0  0  0  0  0  0
   -1.7350    0.6550    0.4370 C   0  0  0  0  0  0  0  0  0  0  0  0
   -0.4230    0.2100    0.5420 C   0  0  0  0  0  0  0  0  0  0  0  0
   -0.1050   -1.1120    0.8910 C   0  0  0  0  0  0  0  0  0  0  0  0
    1.1300   -1.5320    0.9890 O   0  0  0  0  0  0  0  0  0  0  0  0
    2.4370   -1.4610    0.9490 C   0  0  0  0  0  0  0  0  0  0  0  0
    3.1530   -1.1240   -0.3410 C   0  0  1  0  0  0  0  0  0  0  0  0
    2.8880    0.2390   -0.8810 C   0  0  0  0  0  0  0  0  0  0  0  0
    4.2470    0.5460   -1.4090 N   0  0  0  0  0  0  0  0  0  0  0  0
    5.0000    0.0600   -0.2390 C   0  0  2  0  0  0  0  0  0  0  0  0
    6.4830    0.1350   -0.4930 C   0  0  0  0  0  0  0  0  0  0  0  0
    6.8290    1.4560   -0.7420 O   0  0  0  0  0  0  0  0  0  0  0  0
    4.5150   -1.1970   -0.0660 O   0  0  0  0  0  0  0  0  0  0  0  0
   -1.1880   -1.9810    1.1350 C   0  0  0  0  0  0  0  0  0  0  0  0
   -0.8910   -3.2780    1.4790 O   0  0  0  0  0  0  0  0  0  0  0  0
   -2.4620   -1.5140    1.0240 C   0  0  0  0  0  0  0  0  0  0  0  0
   -2.7630   -0.2140    0.6800 C   0  0  0  0  0  0  0  0  0  0  0  0
  2  1  1  6
  2  3  1  0
  2 22  1  0
  3  4  1  0
  4  5  1  0
  5  6  1  0
  6  7  1  0
  7  8  2  0
  7 22  1  0
  8  9  1  0
  9 10  1  0
  9 19  2  0
 10 11  1  0
 12 11  1  1
 12 13  1  0
 12 18  1  0
 13 14  1  0
 14 15  1  0
 15 16  1  6
 15 18  1  0
 16 17  1  0
 19 20  1  0
 19 21  1  0
 21 22  2  0
M  CHG  1   1   1
M  END
