
     RDKit          3D

 23 24  0  0  0  0  0  0  0  0999 V2000
    3.2180   -1.0040   -2.1970 C   0  0  0  0  0  0  0  0  0  0  0  0
    2.8400   -0.5670   -0.7680 C   0  0  2  0  0  0  0  0  0  0  0  0
    1.8770    0.5340   -0.9530 N   0  0  0  0  0  0  0  0  0  0  0  0
    0.5480   -0.0030   -0.7510 C   0  0  0  0  0  0  0  0  0  0  0  0
   -0.5130    1.0440   -1.1000 C   0  0  2  0  0  0  0  0  0  0  0  0
   -0.3760    2.1720   -0.3020 O   0  0  0  0  0  0  0  0  0  0  0  0
   -1.9000    0.4430   -1.0140 C   0  0  2  0  0  0  0  0  0  0  0  0
   -2.8840    1.5240   -1.3670 C   0  0  0  0  0  0  0  0  0  0  0  0
   -4.2730    1.0290   -0.9880 C   0  0  0  0  0  0  0  0  0  0  0  0
   -4.2690    0.9090    0.3910 O   0  0  0  0  0  0  0  0  0  0  0  0
   -3.5410   -0.1680    0.8030 C   0  0  1  0  0  0  0  0  0  0  0  0
   -3.4860   -0.1650    2.3300 C   0  0  0  0  0  0  0  0  0  0  0  0
   -4.8790   -0.6860    2.6230 C   0  0  0  0  0  0  0  0  0  0  0  0
   -4.9830   -1.7420    1.7470 O   0  0  0  0  0  0  0  0  0  0  0  0
   -4.3580   -1.4220    0.5760 C   0  0  0  0  0  0  0  0  0  0  0  0
   -2.1620   -0.2660    0.2470 C   0  0  0  0  0  0  0  0  0  0  0  0
    4.0400   -0.0640   -0.0850 C   0  0  0  0  0  0  0  0  0  0  0  0
    4.5130   -0.6120    0.9870 C   0  0  0  0  0  0  0  0  0  0  0  0
    3.9530   -1.7760    1.6650 C   0  0  0  0  0  0  0  0  0  0  0  0
    3.5850   -1.4540    2.9870 O   0  0  0  0  0  0  0  0  0  0  0  0
    4.7090    1.1110   -0.6820 C   0  0  0  0  0  0  0  0  0  0  0  0
    5.7580    1.6600   -0.2150 N   0  0  0  0  0  0  0  0  0  0  0  0
    4.1500    1.6530   -1.8370 O   0  0  0  0  0  0  0  0  0  0  0  0
  2  1  1  6
  2  3  1  0
  2 17  1  0
  3  4  1  0
  4  5  1  0
  5  6  1  1
  5  7  1  0
  7  8  1  1
  7 16  1  0
  8  9  1  0
  9 10  1  0
 10 11  1  0
 11 12  1  1
 11 15  1  0
 11 16  1  0
 12 13  1  0
 13 14  1  0
 14 15  1  0
 17 18  2  3
 17 21  1  0
 18 19  1  0
 19 20  1  0
 21 22  2  0
 21 23  1  0
M  CHG  1   3   1
M  END
