
     RDKit          3D

 18 20  0  0  0  0  0  0  0  0999 V2000
    3.8290    1.6360   -0.4160 C   0  0  0  0  0  0  0  0  0  0  0  0
    3.8460    0.1900   -0.1500 C   0  0  0  0  0  0  0  0  0  0  0  0
    4.8480   -0.5320    0.3160 N   0  0  0  0  0  0  0  0  0  0  0  0
    4.4040   -1.8050    0.5340 C   0  0  0  0  0  0  0  0  0  0  0  0
    3.1330   -1.8290    0.1700 N   0  0  0  0  0  0  0  0  0  0  0  0
    2.7210   -0.6240   -0.2380 C   0  0  0  0  0  0  0  0  0  0  0  0
    1.4430   -0.2730   -0.8770 C   0  0  0  0  0  0  0  0  0  0  0  0
    0.3420   -0.4560    0.0880 N   0  0  1  0  0  0  0  0  0  0  0  0
    0.1420    0.9300    0.5830 C   0  0  0  0  0  0  0  0  0  0  0  0
   -0.6920    1.7550   -0.3990 C   0  0  0  0  0  0  0  0  0  0  0  0
   -2.0460    1.1040   -0.2520 C   0  0  0  0  0  0  0  0  0  0  0  0
   -3.1360    1.8620   -0.0090 C   0  0  0  0  0  0  0  0  0  0  0  0
   -4.3640    1.2760    0.1910 C   0  0  0  0  0  0  0  0  0  0  0  0
   -4.4290   -0.1030    0.1330 C   0  0  0  0  0  0  0  0  0  0  0  0
   -3.2580   -0.8510   -0.1020 C   0  0  0  0  0  0  0  0  0  0  0  0
   -3.5110   -2.2430   -0.0300 N   0  0  0  0  0  0  0  0  0  0  0  0
   -2.0740   -0.2420   -0.3000 C   0  0  0  0  0  0  0  0  0  0  0  0
   -0.8310   -1.0800   -0.3920 C   0  0  0  0  0  0  0  0  0  0  0  0
  1  2  1  0
  2  3  1  0
  2  6  2  0
  3  4  2  0
  4  5  1  0
  5  6  1  0
  6  7  1  0
  8  7  1  6
  8  9  1  0
  8 18  1  0
  9 10  1  0
 10 11  1  0
 11 12  2  0
 11 17  1  0
 12 13  1  0
 13 14  2  0
 14 15  1  0
 15 16  1  0
 15 17  2  0
 17 18  1  0
M  CHG  1   8   1
M  END
