
     RDKit          3D

 23 25  0  0  0  0  0  0  0  0999 V2000
   -7.2430   -0.1720    1.2290 N   0  0  0  0  0  0  0  0  0  0  0  0
   -5.9400    0.3050    0.8440 C   0  0  1  0  0  0  0  0  0  0  0  0
   -5.4090    1.3560    1.7910 C   0  0  0  0  0  0  0  0  0  0  0  0
   -4.1410    1.7420    1.3480 O   0  0  0  0  0  0  0  0  0  0  0  0
   -3.2090    0.8630    0.7670 C   0  0  0  0  0  0  0  0  0  0  0  0
   -1.9740    1.2240    0.5350 C   0  0  0  0  0  0  0  0  0  0  0  0
   -1.0210    0.2650   -0.0600 C   0  0  0  0  0  0  0  0  0  0  0  0
    0.2320    0.6370   -0.0690 C   0  0  0  0  0  0  0  0  0  0  0  0
    1.3170   -0.1600   -0.6060 C   0  0  0  0  0  0  0  0  0  0  0  0
    1.4640   -0.7850   -1.8040 C   0  0  0  0  0  0  0  0  0  0  0  0
    2.7140   -1.4250   -1.8060 C   0  0  0  0  0  0  0  0  0  0  0  0
    3.2690   -1.1550   -0.6010 C   0  0  0  0  0  0  0  0  0  0  0  0
    4.6150   -1.6040   -0.0820 C   0  0  0  0  0  0  0  0  0  0  0  0
    5.7050   -0.6400   -0.4120 C   0  0  0  0  0  0  0  0  0  0  0  0
    5.4970    0.7000    0.1490 C   0  0  0  0  0  0  0  0  0  0  0  0
    6.4140    1.7610   -0.0750 N   0  0  0  0  0  0  0  0  0  0  0  0
    4.5200    0.9760    0.8420 O   0  0  0  0  0  0  0  0  0  0  0  0
    2.4520   -0.4320    0.0650 O   0  0  0  0  0  0  0  0  0  0  0  0
   -1.4580   -1.0520   -0.5490 C   0  0  2  0  0  0  0  0  0  0  0  0
   -1.6140   -0.8660   -1.9680 O   0  0  0  0  0  0  0  0  0  0  0  0
   -2.8850   -1.3110   -0.1380 C   0  0  0  0  0  0  0  0  0  0  0  0
   -3.6780   -0.4710    0.4400 C   0  0  0  0  0  0  0  0  0  0  0  0
   -5.0090   -0.7590    0.7610 O   0  0  0  0  0  0  0  0  0  0  0  0
  2  1  1  1
  2  3  1  0
  2 23  1  0
  3  4  1  0
  4  5  1  0
  5  6  2  0
  5 22  1  0
  6  7  1  0
  7  8  2  3
  7 19  1  0
  8  9  1  0
  9 10  2  0
  9 18  1  0
 10 11  1  0
 11 12  2  0
 12 13  1  0
 12 18  1  0
 13 14  1  0
 14 15  1  0
 15 16  1  0
 15 17  2  0
 19 20  1  6
 19 21  1  0
 21 22  2  0
 22 23  1  0
M  CHG  1  16   1
M  END
