
     RDKit          3D

  9  8  0  0  0  0  0  0  0  0999 V2000
   -2.9180   -0.9950   -0.0230 N   0  0  0  0  0  0  0  0  0  0  0  0
   -1.7590    0.1690    0.7090 P   0  0  0  0  0  0  0  0  0  0  0  0
   -2.1180    1.8040    0.2140 O   0  0  0  0  0  0  0  0  0  0  0  0
    0.2660   -0.2890   -0.0810 P   0  0  0  0  0  0  0  0  0  0  0  0
    0.3290    0.1260   -1.7710 O   0  0  0  0  0  0  0  0  0  0  0  0
    1.3610    0.8140    0.7310 O   0  0  0  0  0  0  0  0  0  0  0  0
    2.4530    0.9460    0.0030 O   0  0  0  0  0  0  0  0  0  0  0  0
    3.1360   -0.1760    0.1600 O   0  0  0  0  0  0  0  0  0  0  0  0
    4.2240    0.1410    0.8200 O   0  0  0  0  0  0  0  0  0  0  0  0
  1  2  1  0
  2  3  1  0
  2  4  1  0
  4  5  1  0
  4  6  1  0
  6  7  1  0
  7  8  1  0
  8  9  1  0
M  END
