
     RDKit          3D

  9  8  0  0  0  0  0  0  0  0999 V2000
    2.9920    0.0670    1.1290 O   0  0  0  0  0  0  0  0  0  0  0  0
    2.4530    1.1200    0.5340 O   0  0  0  0  0  0  0  0  0  0  0  0
    2.3750    0.9110   -0.7670 O   0  0  0  0  0  0  0  0  0  0  0  0
    0.9680   -0.0100   -1.1940 P   0  0  0  0  0  0  0  0  0  0  0  0
    1.0200   -1.4930   -0.3230 O   0  0  0  0  0  0  0  0  0  0  0  0
   -0.5450    0.8570   -0.8250 N   0  0  0  0  0  0  0  0  0  0  0  0
   -0.8560    0.8400    0.4620 O   0  0  0  0  0  0  0  0  0  0  0  0
   -2.4240    0.3360    0.8530 P   0  0  0  0  0  0  0  0  0  0  0  0
   -3.5560    0.4270   -0.4290 O   0  0  0  0  0  0  0  0  0  0  0  0
  1  2  1  0
  2  3  1  0
  3  4  1  0
  4  5  1  0
  4  6  1  0
  6  7  1  0
  7  8  1  0
  8  9  1  0
M  END
