
     RDKit          3D

  9  8  0  0  0  0  0  0  0  0999 V2000
    3.7890    0.9860   -0.2300 O   0  0  0  0  0  0  0  0  0  0  0  0
    2.4840    1.2000   -0.1230 O   0  0  0  0  0  0  0  0  0  0  0  0
    1.6490   -0.1530   -0.8370 P   0  0  0  0  0  0  0  0  0  0  0  0
    1.6750   -1.5290    0.2050 O   0  0  0  0  0  0  0  0  0  0  0  0
    0.0030    0.3890   -1.1290 O   0  0  0  0  0  0  0  0  0  0  0  0
   -0.7370   -0.1640   -0.1700 N   0  0  0  0  0  0  0  0  0  0  0  0
   -2.2890    0.5540    0.1430 P   0  0  0  0  0  0  0  0  0  0  0  0
   -3.4820   -0.6830    0.3600 O   0  0  0  0  0  0  0  0  0  0  0  0
   -2.7940    1.7620   -0.9460 O   0  0  0  0  0  0  0  0  0  0  0  0
  1  2  1  0
  2  3  1  0
  3  4  1  0
  3  5  1  0
  5  6  1  0
  6  7  1  0
  7  8  1  0
  7  9  1  0
M  END
