
     RDKit          3D

 24 24  0  0  0  0  0  0  0  0999 V2000
    0.4460   -1.7820    1.8700 O   0  0  0  0  0  0  0  0  0  0  0  0
    0.0680   -0.4630    1.6300 C   0  0  1  0  0  0  0  0  0  0  0  0
    1.3350    0.3630    1.5590 C   0  0  1  0  0  0  0  0  0  0  0  0
    2.2860   -0.2540    2.3730 O   0  0  0  0  0  0  0  0  0  0  0  0
    1.8860    0.2870    0.1380 C   0  0  1  0  0  0  0  0  0  0  0  0
    2.1160   -1.0340   -0.1400 O   0  0  0  0  0  0  0  0  0  0  0  0
    3.7330   -1.3390   -0.3220 P   0  0  0  0  0  0  0  0  0  0  0  0
    3.7460   -2.0570    1.0330 O   0  0  0  0  0  0  0  0  0  0  0  0
    4.1980   -2.6760   -1.1360 O   0  0  0  0  0  0  0  0  0  0  0  0
    3.7540   -0.3990   -1.5380 O   0  0  0  0  0  0  0  0  0  0  0  0
    0.9500    0.9400   -0.8690 C   0  0  2  0  0  0  0  0  0  0  0  0
    1.4300    2.2370   -1.0750 O   0  0  0  0  0  0  0  0  0  0  0  0
   -0.4310    0.9990   -0.2510 C   0  0  1  0  0  0  0  0  0  0  0  0
   -1.3910    1.4820   -1.0580 O   0  0  0  0  0  0  0  0  0  0  0  0
   -2.1280    2.8660   -0.7260 P   0  0  0  0  0  0  0  0  0  0  0  0
   -1.3740    4.1060    0.1370 O   0  0  0  0  0  0  0  0  0  0  0  0
   -3.6010    3.2030   -1.4190 O   0  0  0  0  0  0  0  0  0  0  0  0
   -2.7440    2.3560    0.5710 O   0  0  0  0  0  0  0  0  0  0  0  0
   -0.6980   -0.3770    0.3070 C   0  0  2  0  0  0  0  0  0  0  0  0
   -2.0250   -0.5630    0.4850 O   0  0  0  0  0  0  0  0  0  0  0  0
   -2.8360   -1.7560   -0.1820 P   0  0  0  0  0  0  0  0  0  0  0  0
   -4.2180   -1.1050   -0.0590 O   0  0  0  0  0  0  0  0  0  0  0  0
   -3.3810   -3.0470    0.7560 O   0  0  0  0  0  0  0  0  0  0  0  0
   -3.0310   -1.8320   -1.8530 O   0  0  0  0  0  0  0  0  0  0  0  0
  2  1  1  6
  2  3  1  0
  2 19  1  0
  3  4  1  1
  3  5  1  0
  5  6  1  6
  5 11  1  0
  6  7  1  0
  7  8  1  0
  7  9  1  0
  7 10  1  0
 11 12  1  1
 11 13  1  0
 13 14  1  6
 13 19  1  0
 14 15  1  0
 15 16  1  0
 15 17  1  0
 15 18  1  0
 19 20  1  1
 20 21  1  0
 21 22  1  0
 21 23  1  0
 21 24  1  0
M  END
