
     RDKit          3D

  9  8  0  0  0  0  0  0  0  0999 V2000
    3.5720    1.0370   -0.7600 O   0  0  0  0  0  0  0  0  0  0  0  0
    3.0330    0.3000    0.7100 P   0  0  0  0  0  0  0  0  0  0  0  0
    1.2970    0.2300    0.6460 O   0  0  0  0  0  0  0  0  0  0  0  0
    0.8610    0.2510   -0.6130 O   0  0  0  0  0  0  0  0  0  0  0  0
   -0.4410    0.5270   -0.5130 O   0  0  0  0  0  0  0  0  0  0  0  0
   -0.8640   -0.2090    0.5680 N   0  0  0  0  0  0  0  0  0  0  0  0
   -2.6030   -0.5430    0.3680 P   0  0  0  0  0  0  0  0  0  0  0  0
   -3.4080    0.9470   -0.0070 O   0  0  0  0  0  0  0  0  0  0  0  0
   -2.8000   -1.7340   -0.8490 O   0  0  0  0  0  0  0  0  0  0  0  0
  1  2  1  0
  2  3  1  0
  3  4  1  0
  4  5  1  0
  5  6  1  0
  6  7  1  0
  7  8  1  0
  7  9  1  0
M  END
