
     RDKit          3D

 17 19  0  0  0  0  0  0  0  0999 V2000
    3.7270   -0.1380   -0.4460 C   0  0  0  0  0  0  0  0  0  0  0  0
    2.7310    0.7630    0.2400 C   0  0  0  0  0  0  0  0  0  0  0  0
    3.0050    1.7390    1.1690 C   0  0  0  0  0  0  0  0  0  0  0  0
    1.8850    2.3050    1.5330 O   0  0  0  0  0  0  0  0  0  0  0  0
    0.8830    1.7580    0.8950 C   0  0  0  0  0  0  0  0  0  0  0  0
    1.3620    0.7680    0.0560 C   0  0  0  0  0  0  0  0  0  0  0  0
    0.6490   -0.1330   -0.8380 C   0  0  0  0  0  0  0  0  0  0  0  0
    1.3070   -0.7050   -1.9000 N   0  0  0  0  0  0  0  0  0  0  0  0
    0.4510   -1.4180   -2.6160 C   0  0  0  0  0  0  0  0  0  0  0  0
   -0.7570   -1.2840   -1.9810 C   0  0  0  0  0  0  0  0  0  0  0  0
   -0.6220   -0.4770   -0.8610 N   0  0  0  0  0  0  0  0  0  0  0  0
   -1.7040   -0.3420    0.0600 C   0  0  0  0  0  0  0  0  0  0  0  0
   -2.9900   -0.2650   -0.3480 C   0  0  0  0  0  0  0  0  0  0  0  0
   -3.8920   -0.1410    0.7960 C   0  0  0  0  0  0  0  0  0  0  0  0
   -3.0040   -0.2140    1.9620 C   0  0  0  0  0  0  0  0  0  0  0  0
   -1.7570   -0.3230    1.5040 C   0  0  0  0  0  0  0  0  0  0  0  0
   -0.4110   -0.5410    2.6320 Cl  0  0  0  0  0  0  0  0  0  0  0  0
  1  2  1  0
  2  3  2  0
  2  6  1  0
  3  4  1  0
  4  5  1  0
  5  6  2  0
  6  7  1  0
  7  8  2  0
  7 11  1  0
  8  9  1  0
  9 10  2  0
 10 11  1  0
 11 12  1  0
 12 13  2  0
 12 16  1  0
 13 14  1  0
 14 15  1  0
 15 16  2  0
 16 17  1  0
M  END
