
     RDKit          3D

 17 19  0  0  0  0  0  0  0  0999 V2000
    4.4270   -1.4760    0.7160 C   0  0  0  0  0  0  0  0  0  0  0  0
    3.3020   -0.6700    0.1170 C   0  0  0  0  0  0  0  0  0  0  0  0
    3.5900    0.3020   -0.8190 C   0  0  0  0  0  0  0  0  0  0  0  0
    2.6420    1.0660   -1.4030 N   0  0  0  0  0  0  0  0  0  0  0  0
    1.3480    0.8490   -1.0350 C   0  0  0  0  0  0  0  0  0  0  0  0
    0.3700    1.6220   -1.6230 C   0  0  0  0  0  0  0  0  0  0  0  0
   -0.9630    1.4040   -1.2500 C   0  0  0  0  0  0  0  0  0  0  0  0
   -2.2700    2.3440   -1.9500 Cl  0  0  0  0  0  0  0  0  0  0  0  0
   -1.2860    0.4430   -0.3190 C   0  0  0  0  0  0  0  0  0  0  0  0
   -2.6990    0.2360    0.0550 C   0  0  0  0  0  0  0  0  0  0  0  0
   -3.1630   -0.6810    0.9630 C   0  0  0  0  0  0  0  0  0  0  0  0
   -4.5290   -0.5290    0.9980 C   0  0  0  0  0  0  0  0  0  0  0  0
   -4.8600    0.4760    0.1120 C   0  0  0  0  0  0  0  0  0  0  0  0
   -3.7380    0.8800   -0.4070 O   0  0  0  0  0  0  0  0  0  0  0  0
   -0.2780   -0.3030    0.2400 C   0  0  0  0  0  0  0  0  0  0  0  0
    1.0570   -0.1200   -0.1020 C   0  0  0  0  0  0  0  0  0  0  0  0
    2.0260   -0.8840    0.4790 N   0  0  0  0  0  0  0  0  0  0  0  0
  1  2  1  0
  2  3  2  0
  2 17  1  0
  3  4  1  0
  4  5  2  0
  5  6  1  0
  5 16  1  0
  6  7  2  0
  7  8  1  0
  7  9  1  0
  9 10  1  0
  9 15  2  0
 10 11  2  0
 10 14  1  0
 11 12  1  0
 12 13  2  0
 13 14  1  0
 15 16  1  0
 16 17  2  0
M  END
