
     RDKit          3D

 17 19  0  0  0  0  0  0  0  0999 V2000
   -2.7480   -1.6010   -0.2630 C   0  0  0  0  0  0  0  0  0  0  0  0
   -2.1020   -0.2680   -0.2080 C   0  0  0  0  0  0  0  0  0  0  0  0
   -2.9130    0.8440   -0.2700 C   0  0  0  0  0  0  0  0  0  0  0  0
   -2.6490    2.1790   -0.0520 C   0  0  0  0  0  0  0  0  0  0  0  0
   -1.4250    2.7730    0.1700 C   0  0  0  0  0  0  0  0  0  0  0  0
   -0.2130    2.1670    0.1150 N   0  0  0  0  0  0  0  0  0  0  0  0
    0.1220    0.8630    0.0490 C   0  0  0  0  0  0  0  0  0  0  0  0
    1.4100    0.3760    0.1160 C   0  0  0  0  0  0  0  0  0  0  0  0
    2.6440    0.9720    0.2570 C   0  0  0  0  0  0  0  0  0  0  0  0
    3.8270    0.2470    0.2990 C   0  0  0  0  0  0  0  0  0  0  0  0
    3.7720   -1.1290    0.1970 C   0  0  0  0  0  0  0  0  0  0  0  0
    5.2740   -2.0540    0.2500 Cl  0  0  0  0  0  0  0  0  0  0  0  0
    2.5500   -1.7400    0.0560 C   0  0  0  0  0  0  0  0  0  0  0  0
    1.3690   -0.9970    0.0150 C   0  0  0  0  0  0  0  0  0  0  0  0
    0.0380   -1.3350   -0.1140 C   0  0  0  0  0  0  0  0  0  0  0  0
   -0.3620   -2.5030   -0.2290 O   0  0  0  0  0  0  0  0  0  0  0  0
   -0.7530   -0.2590   -0.1010 N   0  0  0  0  0  0  0  0  0  0  0  0
  1  2  1  0
  2  3  2  0
  2 17  1  0
  3  4  1  0
  4  5  2  0
  5  6  1  0
  6  7  2  0
  7  8  1  0
  7 17  1  0
  8  9  2  0
  8 14  1  0
  9 10  1  0
 10 11  2  0
 11 12  1  0
 11 13  1  0
 13 14  2  0
 14 15  1  0
 15 16  2  0
 15 17  1  0
M  END
