
     RDKit          3D

 17 19  0  0  0  0  0  0  0  0999 V2000
   -1.7770   -2.6790    0.4010 Cl  0  0  0  0  0  0  0  0  0  0  0  0
   -2.5860   -1.2050   -0.0180 C   0  0  0  0  0  0  0  0  0  0  0  0
   -3.9440   -1.2770   -0.3550 C   0  0  0  0  0  0  0  0  0  0  0  0
   -4.6110   -0.1110   -0.6810 C   0  0  0  0  0  0  0  0  0  0  0  0
   -3.9660    1.1020   -0.6790 C   0  0  0  0  0  0  0  0  0  0  0  0
   -2.6740    1.1310   -0.3540 N   0  0  0  0  0  0  0  0  0  0  0  0
   -1.9560    0.0040   -0.0200 C   0  0  0  0  0  0  0  0  0  0  0  0
   -0.5880    0.1160    0.2980 N   0  0  0  0  0  0  0  0  0  0  0  0
   -0.0830    1.5000    0.4070 C   0  0  0  0  0  0  0  0  0  0  0  0
    1.0160    1.6060   -0.6700 C   0  0  0  0  0  0  0  0  0  0  0  0
    2.0950    0.7480   -0.1210 C   0  0  0  0  0  0  0  0  0  0  0  0
    3.3600    1.1170   -0.1550 C   0  0  0  0  0  0  0  0  0  0  0  0
    4.3510    0.2940    0.3660 O   0  0  0  0  0  0  0  0  0  0  0  0
    4.0970   -0.9250    0.9760 C   0  0  0  0  0  0  0  0  0  0  0  0
    2.6820   -1.3340    1.0110 C   0  0  0  0  0  0  0  0  0  0  0  0
    1.7710   -0.5230    0.4860 C   0  0  0  0  0  0  0  0  0  0  0  0
    0.3370   -0.9490    0.5090 C   0  0  0  0  0  0  0  0  0  0  0  0
  1  2  1  0
  2  3  2  0
  2  7  1  0
  3  4  1  0
  4  5  2  0
  5  6  1  0
  6  7  2  0
  7  8  1  0
  8  9  1  0
  8 17  1  0
  9 10  1  0
 10 11  1  0
 11 12  2  0
 11 16  1  0
 12 13  1  0
 13 14  1  0
 14 15  1  0
 15 16  2  0
 16 17  1  0
M  END
