
     RDKit          3D

 15 16  0  0  0  0  0  0  0  0999 V2000
    3.8530    1.0860    0.9800 C   0  0  0  0  0  0  0  0  0  0  0  0
    3.5790   -0.0680    0.1100 N   0  0  0  0  0  0  0  0  0  0  0  0
    2.7720    0.3740   -1.0410 C   0  0  0  0  0  0  0  0  0  0  0  0
    1.4190   -0.2570   -0.7900 C   0  0  0  0  0  0  0  0  0  0  0  0
    0.3730    0.6010   -0.6510 N   0  0  0  0  0  0  0  0  0  0  0  0
   -0.8630    0.1620   -0.3050 C   0  0  0  0  0  0  0  0  0  0  0  0
   -1.8950    1.0510   -0.1800 N   0  0  0  0  0  0  0  0  0  0  0  0
   -3.1490    0.6690    0.1520 C   0  0  0  0  0  0  0  0  0  0  0  0
   -4.2790    1.6480    0.2670 C   0  0  0  0  0  0  0  0  0  0  0  0
   -3.3280   -0.6950    0.3780 C   0  0  0  0  0  0  0  0  0  0  0  0
   -2.3040   -1.6200    0.2630 C   0  0  0  0  0  0  0  0  0  0  0  0
   -1.0210   -1.1870   -0.0940 C   0  0  0  0  0  0  0  0  0  0  0  0
    0.0550   -2.0310   -0.2430 C   0  0  0  0  0  0  0  0  0  0  0  0
   -0.0970   -3.2630   -0.0540 O   0  0  0  0  0  0  0  0  0  0  0  0
    1.2870   -1.5500   -0.5980 N   0  0  0  0  0  0  0  0  0  0  0  0
  1  2  1  0
  2  3  1  0
  3  4  1  0
  4  5  2  0
  4 15  1  0
  5  6  1  0
  6  7  2  0
  6 12  1  0
  7  8  1  0
  8  9  1  0
  8 10  2  0
 10 11  1  0
 11 12  2  0
 12 13  1  0
 13 14  2  0
 13 15  1  0
M  END
