
     RDKit          3D

 13 13  0  0  0  0  0  0  0  0999 V2000
    3.4080    0.3000    0.0760 C   0  0  0  0  0  0  0  0  0  0  0  0
    1.9170    0.1930   -0.1110 C   0  0  0  0  0  0  0  0  0  0  0  0
    1.1230   -0.0450    0.9180 C   0  0  0  0  0  0  0  0  0  0  0  0
    1.9100   -0.2470    2.6350 Br  0  0  0  0  0  0  0  0  0  0  0  0
   -0.2950   -0.1470    0.7390 N   0  0  0  0  0  0  0  0  0  0  0  0
   -0.8730    0.0070   -0.5520 C   0  0  0  0  0  0  0  0  0  0  0  0
   -2.1710   -0.0780   -0.7700 C   0  0  0  0  0  0  0  0  0  0  0  0
   -3.1450   -0.3410    0.3110 C   0  0  2  0  0  0  0  0  0  0  0  0
   -3.0850    1.1200    1.5740 Br  0  0  0  0  0  0  0  0  0  0  0  0
   -2.8480   -2.0490    1.1730 Br  0  0  0  0  0  0  0  0  0  0  0  0
   -4.9370   -0.4270   -0.4640 Br  0  0  0  0  0  0  0  0  0  0  0  0
    0.0790    0.2690   -1.6430 C   0  0  0  0  0  0  0  0  0  0  0  0
    1.3370    0.3440   -1.3890 N   0  0  0  0  0  0  0  0  0  0  0  0
  1  2  1  0
  2  3  2  0
  2 13  1  0
  3  4  1  0
  3  5  1  0
  5  6  1  0
  6  7  2  3
  6 12  1  0
  7  8  1  0
  8  9  1  1
  8 10  1  0
  8 11  1  0
 12 13  2  0
M  END
