
     RDKit          3D

 27 29  0  0  0  0  0  0  0  0999 V2000
   -5.9480   -2.8200   -0.4900 C   0  0  0  0  0  0  0  0  0  0  0  0
   -5.2690   -1.5250   -0.3150 C   0  0  0  0  0  0  0  0  0  0  0  0
   -4.0170   -1.4750    0.2640 C   0  0  0  0  0  0  0  0  0  0  0  0
   -3.3630   -0.2730    0.4380 C   0  0  0  0  0  0  0  0  0  0  0  0
   -2.0550   -0.2170    1.0430 N   0  0  0  0  0  0  0  0  0  0  0  0
   -1.1520    0.3630    0.3580 N   0  0  0  0  0  0  0  0  0  0  0  0
    0.1870    0.5070    0.8020 C   0  0  0  0  0  0  0  0  0  0  0  0
    0.9980   -0.5630    1.0860 C   0  0  0  0  0  0  0  0  0  0  0  0
    2.3170   -0.3930    1.5230 C   0  0  0  0  0  0  0  0  0  0  0  0
    2.8470    0.8680    1.6830 C   0  0  0  0  0  0  0  0  0  0  0  0
    4.4880    1.1170    2.2180 S   0  0  1  0  0  0  0  0  0  0  0  0
    4.5360    2.3030    3.1450 O   0  0  0  0  0  0  0  0  0  0  0  0
    4.8630   -0.1240    3.0170 O   0  0  0  0  0  0  0  0  0  0  0  0
    5.5340    1.3240    0.8780 N   0  0  0  0  0  0  0  0  0  0  0  0
    5.6940    0.2980   -0.0680 C   0  0  0  0  0  0  0  0  0  0  0  0
    6.5520    0.4780   -1.1600 C   0  0  0  0  0  0  0  0  0  0  0  0
    6.7420   -0.4910   -2.1100 C   0  0  0  0  0  0  0  0  0  0  0  0
    6.0440   -1.6820   -1.9530 C   0  0  0  0  0  0  0  0  0  0  0  0
    5.1980   -1.8640   -0.8780 C   0  0  0  0  0  0  0  0  0  0  0  0
    5.0570   -0.8660    0.0220 N   0  0  0  0  0  0  0  0  0  0  0  0
    2.0060    1.9390    1.3890 C   0  0  0  0  0  0  0  0  0  0  0  0
    0.7090    1.7710    0.9590 C   0  0  0  0  0  0  0  0  0  0  0  0
   -4.0020    0.8730    0.0130 C   0  0  0  0  0  0  0  0  0  0  0  0
   -5.2580    0.8420   -0.5710 C   0  0  0  0  0  0  0  0  0  0  0  0
   -5.9080    2.1030   -1.0130 C   0  0  0  0  0  0  0  0  0  0  0  0
   -5.8960   -0.3630   -0.7360 C   0  0  0  0  0  0  0  0  0  0  0  0
   -7.1500   -0.4760   -1.3090 O   0  0  0  0  0  0  0  0  0  0  0  0
  1  2  1  0
  2  3  2  0
  2 26  1  0
  3  4  1  0
  4  5  1  0
  4 23  2  0
  5  6  2  3
  6  7  1  0
  7  8  2  0
  7 22  1  0
  8  9  1  0
  9 10  2  0
 10 11  1  0
 10 21  1  0
 11 12  2  0
 11 13  2  0
 11 14  1  6
 14 15  1  0
 15 16  2  0
 15 20  1  0
 16 17  1  0
 17 18  2  0
 18 19  1  0
 19 20  2  0
 21 22  2  0
 23 24  1  0
 24 25  1  0
 24 26  2  0
 26 27  1  0
M  END
