
     RDKit          3D

 15 16  0  0  0  0  0  0  0  0999 V2000
   -1.1880    0.3410   -1.9380 O   0  0  0  0  0  0  0  0  0  0  0  0
   -1.5340   -0.1860   -0.8530 C   0  0  0  0  0  0  0  0  0  0  0  0
   -0.6550   -1.0350   -0.1460 N   0  0  0  0  0  0  0  0  0  0  0  0
    0.6100   -1.2950   -0.6540 N   0  0  0  0  0  0  0  0  0  0  0  0
    1.6570   -0.6420   -0.3140 C   0  0  0  0  0  0  0  0  0  0  0  0
    2.9240   -1.0230   -0.9290 C   0  0  0  0  0  0  0  0  0  0  0  0
    4.0520   -0.4240   -0.6550 C   0  0  0  0  0  0  0  0  0  0  0  0
    4.0820    0.6660    0.2930 C   0  0  0  0  0  0  0  0  0  0  0  0
    2.9650    1.0500    0.8780 C   0  0  0  0  0  0  0  0  0  0  0  0
    1.6330    0.4750    0.6700 C   0  0  0  0  0  0  0  0  0  0  0  0
   -2.8640    0.0890   -0.3210 C   0  0  0  0  0  0  0  0  0  0  0  0
   -3.4100   -0.3980    0.8450 C   0  0  0  0  0  0  0  0  0  0  0  0
   -4.6920    0.1030    0.9840 C   0  0  0  0  0  0  0  0  0  0  0  0
   -4.8910    0.8770   -0.0960 N   0  0  0  0  0  0  0  0  0  0  0  0
   -3.8160    0.8690   -0.8650 N   0  0  0  0  0  0  0  0  0  0  0  0
  1  2  2  0
  2  3  1  0
  2 11  1  0
  3  4  1  0
  4  5  2  3
  5  6  1  0
  5 10  1  0
  6  7  2  0
  7  8  1  0
  8  9  2  0
  9 10  1  0
 11 12  2  0
 11 15  1  0
 12 13  1  0
 13 14  2  0
 14 15  1  0
M  END
