
     RDKit          3D

 13 13  0  0  0  0  0  0  0  0999 V2000
    4.1570    1.8320    0.1500 Br  0  0  0  0  0  0  0  0  0  0  0  0
    3.1530    0.2050    0.5350 C   0  0  0  0  0  0  0  0  0  0  0  0
    1.7530    0.4990    0.8440 C   0  0  0  0  0  0  0  0  0  0  0  0
    0.6930    0.0560    0.1790 C   0  0  0  0  0  0  0  0  0  0  0  0
    0.7730   -0.8090   -0.9850 C   0  0  0  0  0  0  0  0  0  0  0  0
   -0.3780   -1.1850   -1.5630 C   0  0  0  0  0  0  0  0  0  0  0  0
   -1.6280   -0.7450   -1.0460 N   0  0  0  0  0  0  0  0  0  0  0  0
   -1.7060    0.1060    0.1000 C   0  0  0  0  0  0  0  0  0  0  0  0
   -2.9730    0.5910    0.6770 C   0  0  2  0  0  0  0  0  0  0  0  0
   -2.5670    1.7010    2.2020 Br  0  0  0  0  0  0  0  0  0  0  0  0
   -4.0960   -0.8450    1.2700 Br  0  0  0  0  0  0  0  0  0  0  0  0
   -3.8850    1.7240   -0.6180 Br  0  0  0  0  0  0  0  0  0  0  0  0
   -0.5970    0.4490    0.6310 N   0  0  0  0  0  0  0  0  0  0  0  0
  1  2  1  0
  2  3  1  0
  3  4  2  3
  4  5  1  0
  4 13  1  0
  5  6  2  0
  6  7  1  0
  7  8  1  0
  8  9  1  0
  8 13  2  0
  9 10  1  1
  9 11  1  0
  9 12  1  0
M  END
