
     RDKit          3D

 23 24  0  0  0  0  0  0  0  0999 V2000
   -6.0400   -1.1590   -2.0850 C   0  0  0  0  0  0  0  0  0  0  0  0
   -4.9750   -0.6420   -1.4760 C   0  0  0  0  0  0  0  0  0  0  0  0
   -3.5830   -0.6540   -1.9760 C   0  0  0  0  0  0  0  0  0  0  0  0
   -2.7970    0.0410   -0.9350 C   0  0  0  0  0  0  0  0  0  0  0  0
   -1.4220    0.3190   -0.8840 C   0  0  0  0  0  0  0  0  0  0  0  0
   -0.8540    0.9840    0.1740 C   0  0  0  0  0  0  0  0  0  0  0  0
    0.6030    1.2340    0.1470 C   0  0  0  0  0  0  0  0  0  0  0  0
    1.2980    0.8460   -0.8220 O   0  0  0  0  0  0  0  0  0  0  0  0
    1.2230    1.8970    1.1840 O   0  0  0  0  0  0  0  0  0  0  0  0
    2.5800    2.1640    1.2390 C   0  0  0  0  0  0  0  0  0  0  0  0
    3.4680    0.9800    1.3030 C   0  0  0  0  0  0  0  0  0  0  0  0
    4.7330    1.1660    1.2960 O   0  0  0  0  0  0  0  0  0  0  0  0
    2.9600   -0.3450    1.3740 N   0  0  0  0  0  0  0  0  0  0  0  0
    3.8240   -1.4960    1.4290 C   0  0  0  0  0  0  0  0  0  0  0  0
    4.6530   -1.6450    0.2230 C   0  0  0  0  0  0  0  0  0  0  0  0
    5.4730   -2.6250    0.2440 O   0  0  0  0  0  0  0  0  0  0  0  0
    4.5540   -0.7810   -0.8760 N   0  0  0  0  0  0  0  0  0  0  0  0
    5.4410   -1.0260   -2.0270 C   0  0  0  0  0  0  0  0  0  0  0  0
   -1.6360    1.4010    1.2280 C   0  0  0  0  0  0  0  0  0  0  0  0
   -2.9990    1.1280    1.1810 C   0  0  0  0  0  0  0  0  0  0  0  0
   -3.5840    0.4570    0.1170 C   0  0  0  0  0  0  0  0  0  0  0  0
   -4.9470    0.0480   -0.1870 C   0  0  0  0  0  0  0  0  0  0  0  0
   -6.0090    0.2550    0.5670 C   0  0  0  0  0  0  0  0  0  0  0  0
  1  2  2  0
  2  3  1  0
  2 22  1  0
  3  4  1  0
  4  5  2  0
  4 21  1  0
  5  6  1  0
  6  7  1  0
  6 19  2  0
  7  8  2  0
  7  9  1  0
  9 10  1  0
 10 11  1  0
 11 12  2  0
 11 13  1  0
 13 14  1  0
 14 15  1  0
 15 16  2  0
 15 17  1  0
 17 18  1  0
 19 20  1  0
 20 21  2  0
 21 22  1  0
 22 23  2  0
M  END
