
     RDKit          3D

 18 19  0  0  0  0  0  0  0  0999 V2000
   -1.4680   -2.9480   -1.6220 O   0  0  0  0  0  0  0  0  0  0  0  0
   -1.3780   -2.8530   -0.3770 C   0  0  0  0  0  0  0  0  0  0  0  0
   -1.7300   -3.9210    0.4670 O   0  0  0  0  0  0  0  0  0  0  0  0
   -0.9080   -1.6280    0.1680 N   0  0  0  0  0  0  0  0  0  0  0  0
   -0.5290   -0.4880   -0.6450 C   0  0  2  0  0  0  0  0  0  0  0  0
    0.8810   -0.1340   -0.3890 C   0  0  0  0  0  0  0  0  0  0  0  0
    1.7420   -0.1660   -1.3960 C   0  0  0  0  0  0  0  0  0  0  0  0
    3.1760    0.1730   -1.2330 C   0  0  0  0  0  0  0  0  0  0  0  0
    3.5100    0.5310    0.1100 N   0  0  0  0  0  0  0  0  0  0  0  0
    2.5540    0.5510    1.1540 C   0  0  0  0  0  0  0  0  0  0  0  0
    1.2910    0.2380    0.9410 C   0  0  0  0  0  0  0  0  0  0  0  0
   -1.3830    0.6510   -0.3100 N   0  0  0  0  0  0  0  0  0  0  0  0
   -1.1920    1.8850   -0.7140 N   0  0  0  0  0  0  0  0  0  0  0  0
   -2.1540    2.6670   -0.2270 C   0  0  0  0  0  0  0  0  0  0  0  0
   -2.3120    3.9050   -0.3920 O   0  0  0  0  0  0  0  0  0  0  0  0
   -2.9820    1.9040    0.5090 N   0  0  0  0  0  0  0  0  0  0  0  0
   -2.4890    0.6520    0.4480 C   0  0  0  0  0  0  0  0  0  0  0  0
   -3.0150   -0.3570    1.0310 O   0  0  0  0  0  0  0  0  0  0  0  0
  1  2  2  0
  2  3  1  0
  2  4  1  0
  5  4  1  1
  5  6  1  0
  5 12  1  0
  6  7  2  0
  6 11  1  0
  7  8  1  0
  8  9  1  0
  9 10  1  0
 10 11  2  0
 12 13  1  0
 12 17  1  0
 13 14  1  0
 14 15  2  0
 14 16  1  0
 16 17  1  0
 17 18  2  0
M  END
