
     RDKit          3D

 18 19  0  0  0  0  0  0  0  0999 V2000
    3.6840   -1.1490   -0.9660 C   0  0  0  0  0  0  0  0  0  0  0  0
    2.4750   -1.0260   -1.6900 O   0  0  0  0  0  0  0  0  0  0  0  0
    1.7190    0.1210   -1.6940 C   0  0  0  0  0  0  0  0  0  0  0  0
    1.9110    1.1740   -2.4670 C   0  0  0  0  0  0  0  0  0  0  0  0
    0.8810    2.1430   -2.1300 C   0  0  0  0  0  0  0  0  0  0  0  0
    0.1270    1.6490   -1.1900 N   0  0  0  0  0  0  0  0  0  0  0  0
    0.5480    0.3650   -0.8160 C   0  0  0  0  0  0  0  0  0  0  0  0
    0.0790   -0.4510    0.0620 C   0  0  0  0  0  0  0  0  0  0  0  0
    0.7890   -1.7100    0.1710 O   0  0  0  0  0  0  0  0  0  0  0  0
   -1.0310   -0.3400    0.9630 C   0  0  0  0  0  0  0  0  0  0  0  0
   -1.3260   -1.3530    1.8040 C   0  0  0  0  0  0  0  0  0  0  0  0
   -0.5220   -2.5200    1.7760 N   0  0  0  0  0  0  0  0  0  0  0  0
   -2.4010   -1.2390    2.6730 O   0  0  0  0  0  0  0  0  0  0  0  0
   -3.4800   -0.4690    2.3140 N   0  0  0  0  0  0  0  0  0  0  0  0
   -2.9870    0.7990    1.9970 O   0  0  0  0  0  0  0  0  0  0  0  0
   -1.9070    0.7980    1.0640 C   0  0  0  0  0  0  0  0  0  0  0  0
   -1.7330    1.8230    0.3220 N   0  0  0  0  0  0  0  0  0  0  0  0
   -2.5870    2.9180    0.4280 N   0  0  0  0  0  0  0  0  0  0  0  0
  1  2  1  0
  2  3  1  0
  3  4  2  0
  3  7  1  0
  4  5  1  0
  5  6  2  0
  6  7  1  0
  7  8  2  3
  8  9  1  0
  8 10  1  0
 10 11  2  0
 10 16  1  0
 11 12  1  0
 11 13  1  0
 13 14  1  0
 14 15  1  0
 15 16  1  0
 16 17  2  3
 17 18  1  0
M  END
