
     RDKit          3D

 18 19  0  0  0  0  0  0  0  0999 V2000
   -2.9380    1.2880   -0.6350 C   0  0  0  0  0  0  0  0  0  0  0  0
   -2.8570   -0.1610   -0.2360 C   0  0  0  0  0  0  0  0  0  0  0  0
   -3.9290   -0.9500    0.0440 N   0  0  0  0  0  0  0  0  0  0  0  0
   -3.4860   -2.1700    0.3590 N   0  0  0  0  0  0  0  0  0  0  0  0
   -2.1420   -2.1900    0.2890 C   0  0  0  0  0  0  0  0  0  0  0  0
   -1.4240   -3.2180    0.5350 O   0  0  0  0  0  0  0  0  0  0  0  0
   -1.7380   -0.9360   -0.0830 C   0  0  0  0  0  0  0  0  0  0  0  0
   -0.4190   -0.5180   -0.2740 N   0  0  0  0  0  0  0  0  0  0  0  0
    0.4080    0.0360    0.7390 C   0  0  0  0  0  0  0  0  0  0  0  0
   -0.0600    0.1710    1.8970 O   0  0  0  0  0  0  0  0  0  0  0  0
    1.7670    0.4330    0.4140 C   0  0  1  0  0  0  0  0  0  0  0  0
    1.8210    1.4100   -0.7360 C   0  0  0  0  0  0  0  0  0  0  0  0
    2.5170    0.9800    1.5020 N   0  0  0  0  0  0  0  0  0  0  0  0
    3.9000    0.8280    1.1230 C   0  0  0  0  0  0  0  0  0  0  0  0
    4.8880    1.5080    1.5260 O   0  0  0  0  0  0  0  0  0  0  0  0
    3.9680   -0.2490    0.1890 N   0  0  0  0  0  0  0  0  0  0  0  0
    2.6390   -0.7290    0.0180 C   0  0  0  0  0  0  0  0  0  0  0  0
    2.2840   -1.8670   -0.3750 O   0  0  0  0  0  0  0  0  0  0  0  0
  1  2  1  0
  2  3  1  0
  2  7  2  0
  3  4  1  0
  4  5  1  0
  5  6  2  0
  5  7  1  0
  7  8  1  0
  8  9  1  0
  9 10  2  0
  9 11  1  0
 11 12  1  6
 11 13  1  0
 11 17  1  0
 13 14  1  0
 14 15  2  0
 14 16  1  0
 16 17  1  0
 17 18  2  0
M  END
