
     RDKit          3D

 18 18  0  0  0  0  0  0  0  0999 V2000
    4.2770    0.4260    0.8820 N   0  0  0  0  0  0  0  0  0  0  0  0
    3.0790   -0.0940    1.3190 O   0  0  0  0  0  0  0  0  0  0  0  0
    2.0190    0.0170    0.3570 C   0  0  0  0  0  0  0  0  0  0  0  0
    1.3650    1.1590    0.2740 C   0  0  0  0  0  0  0  0  0  0  0  0
    0.2860    1.6390   -0.5220 C   0  0  0  0  0  0  0  0  0  0  0  0
   -1.0250    1.7660   -0.2880 C   0  0  0  0  0  0  0  0  0  0  0  0
   -1.8470    2.3150   -1.3930 C   0  0  0  0  0  0  0  0  0  0  0  0
   -3.0660    2.5140   -1.3630 O   0  0  0  0  0  0  0  0  0  0  0  0
   -1.7410    1.5070    0.9130 N   0  0  0  0  0  0  0  0  0  0  0  0
   -1.9300    0.3090    1.6410 C   0  0  0  0  0  0  0  0  0  0  0  0
   -1.3620    0.2040    2.7870 O   0  0  0  0  0  0  0  0  0  0  0  0
   -2.6970   -0.8460    1.2680 N   0  0  0  0  0  0  0  0  0  0  0  0
   -2.7430   -1.2890   -0.0500 N   0  0  0  0  0  0  0  0  0  0  0  0
   -1.7950   -1.8770   -0.6900 C   0  0  0  0  0  0  0  0  0  0  0  0
   -0.4820   -2.1610   -0.0570 C   0  0  0  0  0  0  0  0  0  0  0  0
    0.6470   -1.7710   -0.8560 N   0  0  0  0  0  0  0  0  0  0  0  0
    1.8620   -1.2160   -0.3890 C   0  0  0  0  0  0  0  0  0  0  0  0
    2.9160   -1.9250   -0.6910 O   0  0  0  0  0  0  0  0  0  0  0  0
  1  2  1  0
  2  3  1  0
  3  4  2  0
  3 17  1  0
  4  5  1  0
  5  6  2  0
  6  7  1  0
  6  9  1  0
  7  8  2  0
  9 10  1  0
 10 11  2  0
 10 12  1  0
 12 13  1  0
 13 14  2  0
 14 15  1  0
 15 16  1  0
 16 17  1  0
 17 18  2  0
M  END
