
     RDKit          3D

 15 15  0  0  0  0  0  0  0  0999 V2000
   -3.8290    1.6200   -0.7680 C   0  0  0  0  0  0  0  0  0  0  0  0
   -3.9830    0.3010   -0.1170 C   0  0  0  0  0  0  0  0  0  0  0  0
   -3.3390   -0.7830   -0.4200 C   0  0  0  0  0  0  0  0  0  0  0  0
   -2.2350   -1.9880   -0.6370 S   0  0  0  0  0  0  0  0  0  0  0  0
   -0.7960   -1.4610    0.0120 C   0  0  0  0  0  0  0  0  0  0  0  0
   -0.5740   -1.7270    1.3020 O   0  0  0  0  0  0  0  0  0  0  0  0
    0.2330   -1.0110    2.1590 N   0  0  0  0  0  0  0  0  0  0  0  0
    1.2010    0.2120    1.2690 P   0  0  0  0  0  0  0  0  0  0  0  0
    1.3130   -0.4260   -0.4940 C   0  0  2  0  0  0  0  0  0  0  0  0
    2.1780   -1.5110   -0.4540 O   0  0  0  0  0  0  0  0  0  0  0  0
    1.7910   -2.5100    0.3350 N   0  0  0  0  0  0  0  0  0  0  0  0
    1.9830    0.8450   -1.6340 P   0  0  0  0  0  0  0  0  0  0  0  0
    3.6890    0.9790   -1.4250 O   0  0  0  0  0  0  0  0  0  0  0  0
    3.9240    1.7190   -0.3230 N   0  0  0  0  0  0  0  0  0  0  0  0
   -0.0020   -0.8090   -0.8390 O   0  0  0  0  0  0  0  0  0  0  0  0
  1  2  1  0
  2  3  2  0
  3  4  2  0
  4  5  2  0
  5  6  1  0
  5 15  1  0
  6  7  1  0
  7  8  1  0
  8  9  1  0
  9 10  1  1
  9 12  1  0
  9 15  1  0
 10 11  1  0
 12 13  1  0
 13 14  1  0
M  END
