
     RDKit          3D

 15 14  0  0  0  0  0  0  0  0999 V2000
   -0.8390    2.0510   -1.7190 C   0  0  0  0  0  0  0  0  0  0  0  0
   -1.9720    1.6890   -1.1320 C   0  0  0  0  0  0  0  0  0  0  0  0
   -3.0150    2.7130   -0.8890 C   0  0  0  0  0  0  0  0  0  0  0  0
   -2.2240    0.3290   -0.7220 C   0  0  0  0  0  0  0  0  0  0  0  0
   -3.3480    0.0020   -0.1470 C   0  0  0  0  0  0  0  0  0  0  0  0
   -1.2500   -0.6240   -0.9490 O   0  0  0  0  0  0  0  0  0  0  0  0
   -0.0490   -0.6070   -0.2900 N   0  0  0  0  0  0  0  0  0  0  0  0
    0.8670   -1.1670   -1.0930 O   0  0  0  0  0  0  0  0  0  0  0  0
    2.0720   -1.2960   -0.5710 N   0  0  0  0  0  0  0  0  0  0  0  0
    2.9920    0.2230   -0.4330 P   0  0  0  0  0  0  0  0  0  0  0  0
    4.5890    0.1730   -0.1890 N   0  0  0  0  0  0  0  0  0  0  0  0
    5.4350   -1.3870   -0.0580 P   0  0  0  0  0  0  0  0  0  0  0  0
   -0.1960   -1.2530    1.3040 P   0  0  0  0  0  0  0  0  0  0  0  0
    0.9200   -0.7610    2.5190 N   0  0  0  0  0  0  0  0  0  0  0  0
   -1.1570   -2.5990    1.5560 O   0  0  0  0  0  0  0  0  0  0  0  0
  1  2  2  0
  2  3  1  0
  2  4  1  0
  4  5  2  0
  4  6  1  0
  6  7  1  0
  7  8  1  0
  7 13  1  0
  8  9  1  0
  9 10  1  0
 10 11  2  3
 11 12  1  0
 13 14  1  0
 13 15  1  0
M  END
