
     RDKit          3D

 11 12  0  0  0  0  0  0  0  0999 V2000
   -0.7400    2.3360    0.0410 N   0  0  0  0  0  0  0  0  0  0  0  0
   -0.8170    0.9050    0.0370 C   0  0  0  0  0  0  0  0  0  0  0  0
   -1.9800    0.2560    0.0850 N   0  0  0  0  0  0  0  0  0  0  0  0
   -1.9990   -1.0710    0.0780 C   0  0  0  0  0  0  0  0  0  0  0  0
   -3.5120   -1.9760    0.1400 Cl  0  0  0  0  0  0  0  0  0  0  0  0
   -0.8320   -1.8090    0.0220 C   0  0  0  0  0  0  0  0  0  0  0  0
    0.3840   -1.1530   -0.0280 C   0  0  0  0  0  0  0  0  0  0  0  0
    1.6200   -1.5740   -0.0850 O   0  0  0  0  0  0  0  0  0  0  0  0
    2.4650   -0.5700   -0.1160 C   0  0  0  0  0  0  0  0  0  0  0  0
    1.7120    0.5890   -0.0770 C   0  0  0  0  0  0  0  0  0  0  0  0
    0.3730    0.2230   -0.0200 C   0  0  0  0  0  0  0  0  0  0  0  0
  1  2  1  0
  2  3  2  0
  2 11  1  0
  3  4  1  0
  4  5  1  0
  4  6  2  0
  6  7  1  0
  7  8  1  0
  7 11  2  0
  8  9  1  0
  9 10  2  0
 10 11  1  0
M  END
