
     RDKit          3D

 11 12  0  0  0  0  0  0  0  0999 V2000
   -0.8930    2.2520   -0.0210 N   0  0  0  0  0  0  0  0  0  0  0  0
   -0.8780    0.8330   -0.0090 C   0  0  0  0  0  0  0  0  0  0  0  0
   -1.9970    0.0890    0.0010 N   0  0  0  0  0  0  0  0  0  0  0  0
   -2.0100   -1.2480    0.0130 C   0  0  0  0  0  0  0  0  0  0  0  0
   -0.8150   -1.9200    0.0150 C   0  0  0  0  0  0  0  0  0  0  0  0
    0.3760   -1.2270    0.0060 C   0  0  0  0  0  0  0  0  0  0  0  0
    1.6380   -1.5480    0.0050 O   0  0  0  0  0  0  0  0  0  0  0  0
    2.4320   -0.5170   -0.0060 C   0  0  0  0  0  0  0  0  0  0  0  0
    1.6320    0.6060   -0.0140 C   0  0  0  0  0  0  0  0  0  0  0  0
    2.1510    2.2770   -0.0300 Cl  0  0  0  0  0  0  0  0  0  0  0  0
    0.3330    0.1720   -0.0060 C   0  0  0  0  0  0  0  0  0  0  0  0
  1  2  1  0
  2  3  2  0
  2 11  1  0
  3  4  1  0
  4  5  2  0
  5  6  1  0
  6  7  1  0
  6 11  2  0
  7  8  1  0
  8  9  2  0
  9 10  1  0
  9 11  1  0
M  END
