
     RDKit          3D

 11 12  0  0  0  0  0  0  0  0999 V2000
   -0.9600    2.6050    0.1030 O   0  0  0  0  0  0  0  0  0  0  0  0
   -0.8480    1.2390    0.0020 C   0  0  0  0  0  0  0  0  0  0  0  0
   -1.9690    0.4750   -0.1980 C   0  0  0  0  0  0  0  0  0  0  0  0
   -1.7910   -0.9070   -0.2920 C   0  0  0  0  0  0  0  0  0  0  0  0
   -3.2330   -1.8820   -0.5480 Cl  0  0  0  0  0  0  0  0  0  0  0  0
   -0.5660   -1.4960   -0.1940 C   0  0  0  0  0  0  0  0  0  0  0  0
    0.5640   -0.7260    0.0070 C   0  0  0  0  0  0  0  0  0  0  0  0
    1.8800   -0.9910    0.1440 N   0  0  0  0  0  0  0  0  0  0  0  0
    2.5440    0.1630    0.3210 C   0  0  0  0  0  0  0  0  0  0  0  0
    1.6270    1.1420    0.2920 N   0  0  0  0  0  0  0  0  0  0  0  0
    0.3850    0.6490    0.1010 C   0  0  0  0  0  0  0  0  0  0  0  0
  1  2  1  0
  2  3  2  0
  2 11  1  0
  3  4  1  0
  4  5  1  0
  4  6  2  0
  6  7  1  0
  7  8  1  0
  7 11  2  0
  8  9  1  0
  9 10  2  0
 10 11  1  0
M  END
