
     RDKit          3D

 11 12  0  0  0  0  0  0  0  0999 V2000
   -2.7250   -0.7500   -0.5010 N   0  0  0  0  0  0  0  0  0  0  0  0
   -1.4160   -0.2770   -0.2190 C   0  0  0  0  0  0  0  0  0  0  0  0
   -1.1960    1.0090    0.2690 C   0  0  0  0  0  0  0  0  0  0  0  0
    0.0740    1.4680    0.5430 C   0  0  0  0  0  0  0  0  0  0  0  0
    0.3240    3.1030    1.1620 Cl  0  0  0  0  0  0  0  0  0  0  0  0
    1.1620    0.6530    0.3350 C   0  0  0  0  0  0  0  0  0  0  0  0
    2.4960    0.7870    0.4940 N   0  0  0  0  0  0  0  0  0  0  0  0
    3.0970   -0.3600    0.1240 C   0  0  0  0  0  0  0  0  0  0  0  0
    2.1760   -1.2210   -0.2670 O   0  0  0  0  0  0  0  0  0  0  0  0
    0.9900   -0.6270   -0.1480 C   0  0  0  0  0  0  0  0  0  0  0  0
   -0.2890   -1.0650   -0.4150 C   0  0  0  0  0  0  0  0  0  0  0  0
  1  2  1  0
  2  3  2  0
  2 11  1  0
  3  4  1  0
  4  5  1  0
  4  6  2  0
  6  7  1  0
  6 10  1  0
  7  8  2  0
  8  9  1  0
  9 10  1  0
 10 11  2  0
M  END
