
     RDKit          3D

 11 12  0  0  0  0  0  0  0  0999 V2000
    2.0580    2.3300    0.1950 O   0  0  0  0  0  0  0  0  0  0  0  0
    1.6470    1.1430    0.1100 C   0  0  0  0  0  0  0  0  0  0  0  0
    2.4420    0.0630    0.0590 N   0  0  0  0  0  0  0  0  0  0  0  0
    1.6750   -1.0090   -0.0260 N   0  0  0  0  0  0  0  0  0  0  0  0
    0.3740   -0.6750   -0.0340 C   0  0  0  0  0  0  0  0  0  0  0  0
   -0.8250   -1.3710   -0.1060 C   0  0  0  0  0  0  0  0  0  0  0  0
   -2.0530   -0.7360   -0.0930 C   0  0  0  0  0  0  0  0  0  0  0  0
   -3.5420   -1.6490   -0.1850 Cl  0  0  0  0  0  0  0  0  0  0  0  0
   -2.0770    0.6400   -0.0060 C   0  0  0  0  0  0  0  0  0  0  0  0
   -0.8780    1.3380    0.0650 C   0  0  0  0  0  0  0  0  0  0  0  0
    0.3410    0.6950    0.0520 C   0  0  0  0  0  0  0  0  0  0  0  0
  1  2  2  0
  2  3  1  0
  2 11  1  0
  3  4  1  0
  4  5  1  0
  5  6  2  0
  5 11  1  0
  6  7  1  0
  7  8  1  0
  7  9  2  0
  9 10  1  0
 10 11  2  0
M  END
