
     RDKit          3D

 30 33  0  0  0  0  0  0  0  0999 V2000
   -2.3440    1.5680    0.5220 O   0  0  0  0  0  0  0  0  0  0  0  0
   -2.8040    0.5220    0.0600 C   0  0  0  0  0  0  0  0  0  0  0  0
   -1.9850   -0.5160   -0.5880 C   0  0  0  0  0  0  0  0  0  0  0  0
   -0.6710   -0.2270   -0.6070 O   0  0  0  0  0  0  0  0  0  0  0  0
   -0.2460    0.9230   -1.2300 C   0  0  1  0  0  0  0  0  0  0  0  0
    0.5960    1.6740   -0.2480 C   0  0  0  0  0  0  0  0  0  0  0  0
    1.9170    1.2440   -0.5010 O   0  0  0  0  0  0  0  0  0  0  0  0
    1.9410    0.3140   -1.5330 C   0  0  0  0  0  0  0  0  0  0  0  0
    2.8290   -0.6450   -1.7290 C   0  0  0  0  0  0  0  0  0  0  0  0
    3.9190   -0.7820   -0.7860 C   0  0  0  0  0  0  0  0  0  0  0  0
    4.3700   -2.0410   -0.3970 C   0  0  0  0  0  0  0  0  0  0  0  0
    5.4080   -2.1850    0.4930 C   0  0  0  0  0  0  0  0  0  0  0  0
    5.8220   -3.4490    0.8510 O   0  0  0  0  0  0  0  0  0  0  0  0
    6.0260   -1.0860    1.0200 C   0  0  0  0  0  0  0  0  0  0  0  0
    5.6030    0.1860    0.6540 C   0  0  0  0  0  0  0  0  0  0  0  0
    4.5440    0.3110   -0.2540 C   0  0  0  0  0  0  0  0  0  0  0  0
    6.3730    1.1370    1.3130 O   0  0  0  0  0  0  0  0  0  0  0  0
    7.4300    0.4380    1.9500 C   0  0  0  0  0  0  0  0  0  0  0  0
    7.0840   -0.9160    1.9280 O   0  0  0  0  0  0  0  0  0  0  0  0
    0.7480    0.6680   -2.3340 C   0  0  2  0  0  0  0  0  0  0  0  0
    0.9930    1.8360   -3.0230 O   0  0  0  0  0  0  0  0  0  0  0  0
   -4.2620    0.2820    0.1530 C   0  0  0  0  0  0  0  0  0  0  0  0
   -5.0710    1.2080    0.7460 C   0  0  0  0  0  0  0  0  0  0  0  0
   -6.4180    0.9930    0.8390 C   0  0  0  0  0  0  0  0  0  0  0  0
   -7.2250    1.9440    1.4450 O   0  0  0  0  0  0  0  0  0  0  0  0
   -6.9890   -0.1790    0.3280 C   0  0  0  0  0  0  0  0  0  0  0  0
   -8.3540   -0.3670    0.4380 O   0  0  0  0  0  0  0  0  0  0  0  0
   -6.1870   -1.1290   -0.2760 C   0  0  0  0  0  0  0  0  0  0  0  0
   -6.7740   -2.2920   -0.7800 O   0  0  0  0  0  0  0  0  0  0  0  0
   -4.8390   -0.8710   -0.3470 C   0  0  0  0  0  0  0  0  0  0  0  0
  1  2  2  0
  2  3  1  0
  2 22  1  0
  3  4  1  0
  5  4  1  1
  5  6  1  0
  5 20  1  0
  6  7  1  0
  7  8  1  0
  8  9  2  3
  8 20  1  0
  9 10  1  0
 10 11  2  0
 10 16  1  0
 11 12  1  0
 12 13  1  0
 12 14  2  0
 14 15  1  0
 14 19  1  0
 15 16  2  0
 15 17  1  0
 17 18  1  0
 18 19  1  0
 20 21  1  1
 22 23  2  0
 22 30  1  0
 23 24  1  0
 24 25  1  0
 24 26  2  0
 26 27  1  0
 26 28  1  0
 28 29  1  0
 28 30  2  0
M  END
