
     RDKit          3D

 30 32  0  0  0  0  0  0  0  0999 V2000
    5.4010    0.4190    0.4830 C   0  0  0  0  0  0  0  0  0  0  0  0
    4.9310    0.6250   -0.7570 O   0  0  0  0  0  0  0  0  0  0  0  0
    3.7090    1.1020   -1.0360 C   0  0  0  0  0  0  0  0  0  0  0  0
    2.6150    0.2830   -0.4680 C   0  0  1  0  0  0  0  0  0  0  0  0
    2.9780   -1.0470   -0.9780 O   0  0  0  0  0  0  0  0  0  0  0  0
    2.4880    0.0900    0.8550 O   0  0  0  0  0  0  0  0  0  0  0  0
    1.2520    0.5280   -1.2050 C   0  0  0  0  0  0  0  0  0  0  0  0
    0.2760   -0.2950   -0.4470 C   0  0  2  0  0  0  0  0  0  0  0  0
    0.1440    0.2460    0.8460 O   0  0  0  0  0  0  0  0  0  0  0  0
   -0.4350    1.5200    0.9950 C   0  0  0  0  0  0  0  0  0  0  0  0
   -1.8390    1.4640    1.1510 C   0  0  0  0  0  0  0  0  0  0  0  0
   -2.5370    2.6370    1.2950 C   0  0  0  0  0  0  0  0  0  0  0  0
   -1.8770    3.8510    1.2930 C   0  0  0  0  0  0  0  0  0  0  0  0
   -0.5210    3.9350    1.1460 C   0  0  0  0  0  0  0  0  0  0  0  0
    0.1160    5.1690    1.1470 O   0  0  0  0  0  0  0  0  0  0  0  0
    0.1890    2.7250    0.9970 C   0  0  0  0  0  0  0  0  0  0  0  0
    1.5420    2.8760    0.8700 O   0  0  0  0  0  0  0  0  0  0  0  0
    0.8960   -1.5740   -0.4330 O   0  0  0  0  0  0  0  0  0  0  0  0
    0.5970   -2.2090   -1.5930 C   0  0  0  0  0  0  0  0  0  0  0  0
   -0.4110   -1.4000   -2.3100 C   0  0  0  0  0  0  0  0  0  0  0  0
   -1.0320   -0.6210   -1.1460 C   0  0  1  0  0  0  0  0  0  0  0  0
   -1.8450   -1.5910   -0.4080 C   0  0  0  0  0  0  0  0  0  0  0  0
   -1.4040   -2.5270    0.4560 C   0  0  0  0  0  0  0  0  0  0  0  0
   -2.3030   -3.3140    1.2070 C   0  0  0  0  0  0  0  0  0  0  0  0
   -1.7570   -4.2530    2.0740 O   0  0  0  0  0  0  0  0  0  0  0  0
   -3.6600   -3.1400    1.0720 C   0  0  0  0  0  0  0  0  0  0  0  0
   -4.1420   -2.1870    0.1940 C   0  0  0  0  0  0  0  0  0  0  0  0
   -5.5320   -2.0000    0.0400 O   0  0  0  0  0  0  0  0  0  0  0  0
   -3.2600   -1.4340   -0.5260 C   0  0  0  0  0  0  0  0  0  0  0  0
   -3.7510   -0.4820   -1.4020 O   0  0  0  0  0  0  0  0  0  0  0  0
  1  2  1  0
  2  3  1  0
  3  4  1  0
  4  5  1  6
  4  6  1  0
  4  7  1  0
  8  7  1  6
  8  9  1  0
  8 18  1  0
  8 21  1  0
  9 10  1  0
 10 11  2  0
 10 16  1  0
 11 12  1  0
 12 13  2  0
 13 14  1  0
 14 15  1  0
 14 16  2  0
 16 17  1  0
 18 19  1  0
 19 20  1  0
 20 21  1  0
 21 22  1  1
 22 23  2  0
 22 29  1  0
 23 24  1  0
 24 25  1  0
 24 26  2  0
 26 27  1  0
 27 28  1  0
 27 29  2  0
 29 30  1  0
M  END
