
     RDKit          3D

 30 32  0  0  0  0  0  0  0  0999 V2000
   -5.8390    3.1650    1.0810 C   0  0  0  0  0  0  0  0  0  0  0  0
   -5.8940    1.8470    0.6270 O   0  0  0  0  0  0  0  0  0  0  0  0
   -4.8290    1.1780    0.0370 C   0  0  0  0  0  0  0  0  0  0  0  0
   -4.3530    0.0290    0.4910 C   0  0  0  0  0  0  0  0  0  0  0  0
   -3.1870   -0.5620   -0.2740 C   0  0  1  0  0  0  0  0  0  0  0  0
   -2.8120   -1.7840    0.2280 O   0  0  0  0  0  0  0  0  0  0  0  0
   -1.5460   -2.1070    0.6220 C   0  0  0  0  0  0  0  0  0  0  0  0
   -0.4450   -1.2780    0.5850 C   0  0  0  0  0  0  0  0  0  0  0  0
    0.8180   -1.7050    1.0140 C   0  0  0  0  0  0  0  0  0  0  0  0
    1.9560   -0.7910    0.9570 C   0  0  0  0  0  0  0  0  0  0  0  0
    2.6650   -0.8540   -0.2740 O   0  0  0  0  0  0  0  0  0  0  0  0
    3.7670    0.0020   -0.3830 C   0  0  0  0  0  0  0  0  0  0  0  0
    3.5750    1.2870   -0.2750 C   0  0  0  0  0  0  0  0  0  0  0  0
    4.6390    2.2810   -0.3690 C   0  0  1  0  0  0  0  0  0  0  0  0
    4.6140    3.1330    0.7790 O   0  0  0  0  0  0  0  0  0  0  0  0
    5.9980    1.7880   -0.5980 C   0  0  1  0  0  0  0  0  0  0  0  0
    6.8400    2.2710    0.4700 O   0  0  0  0  0  0  0  0  0  0  0  0
    6.1470    0.3390   -0.7110 C   0  0  0  0  0  0  0  0  0  0  0  0
    7.4220   -0.2350   -0.9340 O   0  0  0  0  0  0  0  0  0  0  0  0
    5.1180   -0.4710   -0.6110 C   0  0  0  0  0  0  0  0  0  0  0  0
    5.2820   -1.8600   -0.7210 O   0  0  0  0  0  0  0  0  0  0  0  0
    0.9440   -2.9910    1.4820 C   0  0  0  0  0  0  0  0  0  0  0  0
   -0.1530   -3.8570    1.5320 C   0  0  0  0  0  0  0  0  0  0  0  0
    0.0490   -5.1520    2.0200 O   0  0  0  0  0  0  0  0  0  0  0  0
   -1.3780   -3.4130    1.1060 C   0  0  0  0  0  0  0  0  0  0  0  0
   -2.4500   -4.2640    1.1560 O   0  0  0  0  0  0  0  0  0  0  0  0
   -3.7420   -0.6760   -1.7080 C   0  0  0  0  0  0  0  0  0  0  0  0
   -4.0490    0.6890   -2.2290 C   0  0  0  0  0  0  0  0  0  0  0  0
   -4.1600    1.7440   -1.1670 C   0  0  1  0  0  0  0  0  0  0  0  0
   -4.7900    2.8770   -1.6270 O   0  0  0  0  0  0  0  0  0  0  0  0
  1  2  1  0
  2  3  1  0
  3  4  2  0
  3 29  1  0
  4  5  1  0
  5  6  1  1
  5 27  1  0
  6  7  1  0
  7  8  2  0
  7 25  1  0
  8  9  1  0
  9 10  1  0
  9 22  2  0
 10 11  1  0
 11 12  1  0
 12 13  2  0
 12 20  1  0
 13 14  1  0
 14 15  1  1
 14 16  1  0
 16 17  1  1
 16 18  1  0
 18 19  1  0
 18 20  2  0
 20 21  1  0
 22 23  1  0
 23 24  1  0
 23 25  2  0
 25 26  1  0
 27 28  1  0
 28 29  1  0
 29 30  1  6
M  END
