
     RDKit          3D

 15 14  0  0  0  0  0  0  0  0999 V2000
   -2.9470   -2.6300   -0.6660 C   0  0  0  0  0  0  0  0  0  0  0  0
   -1.9070   -1.9050   -0.0520 O   0  0  0  0  0  0  0  0  0  0  0  0
   -2.2350   -0.5720   -0.1230 C   0  0  0  0  0  0  0  0  0  0  0  0
   -1.4700    0.3740    0.3610 O   0  0  0  0  0  0  0  0  0  0  0  0
   -0.2190    0.6980    0.0580 C   0  0  1  0  0  0  0  0  0  0  0  0
   -0.0840    0.8180   -1.4680 C   0  0  0  0  0  0  0  0  0  0  0  0
    1.2270    1.1630   -1.9080 N   0  0  0  0  0  0  0  0  0  0  0  0
   -0.2330    2.2520    0.4130 C   0  0  0  0  0  0  0  0  0  0  0  0
   -0.6180    2.4860    1.8390 C   0  0  0  0  0  0  0  0  0  0  0  0
   -0.6410    3.8660    2.1170 O   0  0  0  0  0  0  0  0  0  0  0  0
    0.8960    0.1610    0.7670 C   0  0  0  0  0  0  0  0  0  0  0  0
    1.2880   -1.2430    0.9190 C   0  0  1  0  0  0  0  0  0  0  0  0
    0.4620   -2.1230    1.5450 O   0  0  0  0  0  0  0  0  0  0  0  0
    1.7820   -1.7680   -0.3060 O   0  0  0  0  0  0  0  0  0  0  0  0
    3.1150   -2.0740   -0.2690 C   0  0  0  0  0  0  0  0  0  0  0  0
  1  2  1  0
  2  3  1  0
  3  4  1  0
  4  5  1  0
  5  6  1  6
  5  8  1  0
  5 11  1  0
  6  7  1  0
  8  9  1  0
  9 10  1  0
 11 12  1  0
 12 13  1  6
 12 14  1  0
 14 15  1  0
M  CHG  1   7   1
M  END
