
     RDKit          3D

 16 15  0  0  0  0  0  0  0  0999 V2000
    5.1320    1.0230   -0.2190 C   0  0  0  0  0  0  0  0  0  0  0  0
    4.9550   -0.3700    0.3230 C   0  0  0  0  0  0  0  0  0  0  0  0
    3.8250   -0.4690    1.1570 O   0  0  0  0  0  0  0  0  0  0  0  0
    2.5500   -0.1930    0.7030 C   0  0  0  0  0  0  0  0  0  0  0  0
    2.3460    0.1610   -0.4890 O   0  0  0  0  0  0  0  0  0  0  0  0
    1.4070   -0.3240    1.6580 C   0  0  0  0  0  0  0  0  0  0  0  0
    0.1800   -0.0060    1.0330 O   0  0  0  0  0  0  0  0  0  0  0  0
   -0.2790   -0.7170   -0.0650 C   0  0  0  0  0  0  0  0  0  0  0  0
    0.4320   -1.6490   -0.4840 O   0  0  0  0  0  0  0  0  0  0  0  0
   -1.5650   -0.4030   -0.7400 C   0  0  2  0  0  0  0  0  0  0  0  0
   -1.4730    1.0250   -1.2340 C   0  0  0  0  0  0  0  0  0  0  0  0
   -2.6340    1.4350   -1.8900 O   0  0  0  0  0  0  0  0  0  0  0  0
   -2.6640   -0.6240    0.2430 C   0  0  1  0  0  0  0  0  0  0  0  0
   -2.5600    0.1920    1.4100 N   0  0  0  0  0  0  0  0  0  0  0  0
   -4.0480   -0.4960   -0.3480 C   0  0  0  0  0  0  0  0  0  0  0  0
   -4.9420   -0.9300    0.6520 O   0  0  0  0  0  0  0  0  0  0  0  0
  1  2  1  0
  2  3  1  0
  3  4  1  0
  4  5  2  0
  4  6  1  0
  6  7  1  0
  7  8  1  0
  8  9  2  0
  8 10  1  0
 10 11  1  1
 10 13  1  0
 11 12  1  0
 13 14  1  1
 13 15  1  0
 15 16  1  0
M  CHG  1  14   1
M  END
