
     RDKit          3D

 16 15  0  0  0  0  0  0  0  0999 V2000
   -4.6390    1.4620    1.9510 C   0  0  0  0  0  0  0  0  0  0  0  0
   -3.5180    0.6040    1.8510 O   0  0  0  0  0  0  0  0  0  0  0  0
   -2.2860    1.0560    1.3600 C   0  0  0  0  0  0  0  0  0  0  0  0
   -2.1830    2.2510    1.0000 O   0  0  0  0  0  0  0  0  0  0  0  0
   -1.1400    0.0870    1.2830 C   0  0  0  0  0  0  0  0  0  0  0  0
   -0.9910   -0.4060   -0.1460 C   0  0  2  0  0  0  0  0  0  0  0  0
   -0.7190    0.7420   -1.0710 C   0  0  0  0  0  0  0  0  0  0  0  0
   -2.2370   -0.9980   -0.4720 O   0  0  0  0  0  0  0  0  0  0  0  0
    0.0240   -1.5020   -0.2830 C   0  0  1  0  0  0  0  0  0  0  0  0
   -0.0450   -1.9550   -1.6710 N   0  0  0  0  0  0  0  0  0  0  0  0
    1.3960   -1.0790    0.0520 C   0  0  0  0  0  0  0  0  0  0  0  0
    1.6540   -0.6720    1.2070 O   0  0  0  0  0  0  0  0  0  0  0  0
    2.4220   -1.1140   -0.8730 O   0  0  0  0  0  0  0  0  0  0  0  0
    3.7510   -0.7180   -0.6050 C   0  0  0  0  0  0  0  0  0  0  0  0
    3.8660    0.7280   -0.1930 C   0  0  0  0  0  0  0  0  0  0  0  0
    5.2210    0.9930    0.0440 O   0  0  0  0  0  0  0  0  0  0  0  0
  1  2  1  0
  2  3  1  0
  3  4  2  0
  3  5  1  0
  5  6  1  0
  6  7  1  6
  6  8  1  0
  6  9  1  0
  9 10  1  6
  9 11  1  0
 11 12  2  0
 11 13  1  0
 13 14  1  0
 14 15  1  0
 15 16  1  0
M  CHG  1  10   1
M  END
