
     RDKit          3D

 16 15  0  0  0  0  0  0  0  0999 V2000
    5.1380    0.5830    0.2820 C   0  0  0  0  0  0  0  0  0  0  0  0
    4.0630   -0.2460    0.6190 O   0  0  0  0  0  0  0  0  0  0  0  0
    2.7240    0.1580    0.5180 C   0  0  0  0  0  0  0  0  0  0  0  0
    2.5390    1.3220    0.1030 O   0  0  0  0  0  0  0  0  0  0  0  0
    1.7200   -0.8210    0.9060 C   0  0  0  0  0  0  0  0  0  0  0  0
    0.2870   -0.3570    0.7780 C   0  0  0  0  0  0  0  0  0  0  0  0
   -0.1130    0.0290   -0.5890 C   0  0  2  0  0  0  0  0  0  0  0  0
   -1.4930    0.5230   -0.7020 C   0  0  0  0  0  0  0  0  0  0  0  0
   -2.6730   -0.2900   -0.3460 C   0  0  2  0  0  0  0  0  0  0  0  0
   -3.8220    0.6570   -0.6920 N   0  0  0  0  0  0  0  0  0  0  0  0
   -2.9370   -0.5220    1.0880 C   0  0  0  0  0  0  0  0  0  0  0  0
   -2.6710   -1.5840    1.6820 O   0  0  0  0  0  0  0  0  0  0  0  0
   -3.5140    0.4820    1.8590 O   0  0  0  0  0  0  0  0  0  0  0  0
    0.0820   -1.0870   -1.5760 C   0  0  0  0  0  0  0  0  0  0  0  0
   -0.9160   -1.5360   -2.1620 O   0  0  0  0  0  0  0  0  0  0  0  0
    1.3310   -1.6050   -1.8290 O   0  0  0  0  0  0  0  0  0  0  0  0
  1  2  1  0
  2  3  1  0
  3  4  2  0
  3  5  1  0
  5  6  1  0
  7  6  1  1
  7  8  1  0
  7 14  1  0
  8  9  1  0
  9 10  1  1
  9 11  1  0
 11 12  2  0
 11 13  1  0
 14 15  2  0
 14 16  1  0
M  CHG  1  10   1
M  END
