
     RDKit          3D

 16 16  0  0  0  0  0  0  0  0999 V2000
   -2.0530    0.9350   -1.1730 N   0  0  0  0  0  0  0  0  0  0  0  0
   -1.9550   -0.4110   -0.6930 C   0  0  0  0  0  0  0  0  0  0  0  0
   -1.7470   -0.5860    0.7600 C   0  0  1  0  0  0  0  0  0  0  0  0
   -0.6770    0.1850    1.4270 C   0  0  0  0  0  0  0  0  0  0  0  0
    0.6130   -0.0790    1.1940 O   0  0  0  0  0  0  0  0  0  0  0  0
    1.2030    0.0650   -0.0040 C   0  0  2  0  0  0  0  0  0  0  0  0
    1.9340   -1.2450   -0.3480 C   0  0  0  0  0  0  0  0  0  0  0  0
    1.0360   -2.2850   -0.3960 O   0  0  0  0  0  0  0  0  0  0  0  0
    2.3870    1.0790    0.0940 C   0  0  0  0  0  0  0  0  0  0  0  0
    2.9230    1.1530   -1.1880 O   0  0  0  0  0  0  0  0  0  0  0  0
    3.9880    2.0140   -1.2770 C   0  0  0  0  0  0  0  0  0  0  0  0
    3.6630    3.3120   -0.9320 O   0  0  0  0  0  0  0  0  0  0  0  0
   -3.0860   -0.3740    1.5290 C   0  0  0  0  0  0  0  0  0  0  0  0
   -3.8290   -1.3880    0.9800 O   0  0  0  0  0  0  0  0  0  0  0  0
   -2.9560   -2.4570    0.7690 C   0  0  0  0  0  0  0  0  0  0  0  0
   -1.6760   -1.9780    1.0190 O   0  0  0  0  0  0  0  0  0  0  0  0
  1  2  1  0
  3  2  1  6
  3  4  1  0
  3 13  1  0
  3 16  1  0
  4  5  1  0
  5  6  1  0
  6  7  1  1
  6  9  1  0
  7  8  1  0
  9 10  1  0
 10 11  1  0
 11 12  1  0
 13 14  1  0
 14 15  1  0
 15 16  1  0
M  CHG  1   1   1
M  END
