
     RDKit          3D

 26 29  0  0  0  0  0  0  0  0999 V2000
   -4.9560   -1.9910    2.0210 C   0  0  0  0  0  0  0  0  0  0  0  0
   -3.6850   -1.4750    1.5160 C   0  0  0  0  0  0  0  0  0  0  0  0
   -3.7070   -0.5510    0.5200 C   0  0  0  0  0  0  0  0  0  0  0  0
   -4.9960   -0.1660    0.0550 C   0  0  0  0  0  0  0  0  0  0  0  0
   -5.3350    0.6170   -0.9240 C   0  0  0  0  0  0  0  0  0  0  0  0
   -6.7080    0.8230   -1.1410 F   0  0  0  0  0  0  0  0  0  0  0  0
   -4.3420    1.3610   -2.1340 Cl  0  0  0  0  0  0  0  0  0  0  0  0
   -2.4210   -0.1490    0.1020 N   0  0  0  0  0  0  0  0  0  0  0  0
   -1.3450   -0.9710    0.0080 N   0  0  0  0  0  0  0  0  0  0  0  0
   -0.2530   -0.2660   -0.2530 C   0  0  0  0  0  0  0  0  0  0  0  0
    1.1060   -0.7670   -0.4310 C   0  0  0  0  0  0  0  0  0  0  0  0
    1.3350   -1.8810   -1.2120 C   0  0  0  0  0  0  0  0  0  0  0  0
    2.6340   -2.3360   -1.3650 C   0  0  0  0  0  0  0  0  0  0  0  0
    3.7000   -1.7020   -0.7550 C   0  0  0  0  0  0  0  0  0  0  0  0
    3.4450   -0.5840    0.0260 C   0  0  0  0  0  0  0  0  0  0  0  0
    2.1520   -0.1110    0.1920 C   0  0  0  0  0  0  0  0  0  0  0  0
    4.5500    0.1500    0.7130 C   0  0  0  0  0  0  0  0  0  0  0  0
    5.6850   -0.7480    0.8430 N   0  0  0  0  0  0  0  0  0  0  0  0
    6.0730   -1.1380   -0.5090 C   0  0  0  0  0  0  0  0  0  0  0  0
    5.0900   -2.2140   -0.9370 C   0  0  0  0  0  0  0  0  0  0  0  0
   -0.6330    1.0570   -0.3290 C   0  0  0  0  0  0  0  0  0  0  0  0
   -1.9940    1.1090   -0.1010 C   0  0  0  0  0  0  0  0  0  0  0  0
   -2.3810    2.5100   -0.0960 N   0  0  0  0  0  0  0  0  0  0  0  0
   -3.4340    3.0980    0.6820 C   0  0  0  0  0  0  0  0  0  0  0  0
   -1.4570    3.1260   -1.0280 C   0  0  0  0  0  0  0  0  0  0  0  0
   -0.1640    2.4510   -0.5600 C   0  0  0  0  0  0  0  0  0  0  0  0
  1  2  1  0
  2  3  2  3
  3  4  1  0
  3  8  1  0
  4  5  2  3
  5  6  1  0
  5  7  1  0
  8  9  1  0
  8 22  1  0
  9 10  2  0
 10 11  1  0
 10 21  1  0
 11 12  2  0
 11 16  1  0
 12 13  1  0
 13 14  2  0
 14 15  1  0
 14 20  1  0
 15 16  2  0
 15 17  1  0
 17 18  1  0
 18 19  1  0
 19 20  1  0
 21 22  2  0
 21 26  1  0
 22 23  1  0
 23 24  1  0
 23 25  1  0
 25 26  1  0
M  CHG  1  18   1
M  END
