
     RDKit          3D

 20 21  0  0  0  0  0  0  0  0999 V2000
   -2.7550    0.6050   -2.8910 N   0  0  0  0  0  0  0  0  0  0  0  0
   -2.4710    0.5790   -1.6390 C   0  0  0  0  0  0  0  0  0  0  0  0
   -1.0940    0.8860   -1.3650 N   0  0  0  0  0  0  0  0  0  0  0  0
   -0.5610    0.9870   -0.1900 C   0  0  0  0  0  0  0  0  0  0  0  0
    0.8650    1.3110   -0.1810 C   0  0  0  0  0  0  0  0  0  0  0  0
    1.6410    1.5050   -1.2350 C   0  0  0  0  0  0  0  0  0  0  0  0
    2.9430    1.7940   -0.8510 O   0  0  0  0  0  0  0  0  0  0  0  0
    3.0300    1.4430    0.5180 C   0  0  2  0  0  0  0  0  0  0  0  0
    3.5300    0.0270    0.5960 C   0  0  0  0  0  0  0  0  0  0  0  0
    4.7890   -0.0560   -0.0090 O   0  0  0  0  0  0  0  0  0  0  0  0
    5.3540   -1.6920    0.0870 P   0  0  0  0  0  0  0  0  0  0  0  0
    4.2040   -2.6690    0.9430 O   0  0  0  0  0  0  0  0  0  0  0  0
    5.6850   -2.2940   -1.4920 O   0  0  0  0  0  0  0  0  0  0  0  0
    1.6770    1.4760    0.9300 O   0  0  0  0  0  0  0  0  0  0  0  0
   -1.1240    0.8370    1.0740 O   0  0  0  0  0  0  0  0  0  0  0  0
   -2.5240    0.9080    1.3480 C   0  0  0  0  0  0  0  0  0  0  0  0
   -3.2710   -0.1720    0.6010 C   0  0  1  0  0  0  0  0  0  0  0  0
   -4.5600   -0.5500    1.2590 C   0  0  0  0  0  0  0  0  0  0  0  0
   -5.1360   -1.5760    0.5140 O   0  0  0  0  0  0  0  0  0  0  0  0
   -3.4610    0.2740   -0.7240 O   0  0  0  0  0  0  0  0  0  0  0  0
  1  2  2  0
  2  3  1  0
  2 20  1  0
  3  4  2  0
  4  5  1  0
  4 15  1  0
  5  6  2  0
  5 14  1  0
  6  7  1  0
  7  8  1  0
  8  9  1  6
  8 14  1  0
  9 10  1  0
 10 11  1  0
 11 12  1  0
 11 13  1  0
 15 16  1  0
 16 17  1  0
 17 18  1  1
 17 20  1  0
 18 19  1  0
M  END
