
     RDKit          3D

 20 20  0  0  0  0  0  0  0  0999 V2000
    5.9450    1.5740   -0.6370 C   0  0  0  0  0  0  0  0  0  0  0  0
    4.5170    1.6240   -0.6710 O   0  0  0  0  0  0  0  0  0  0  0  0
    3.7530    0.6180   -0.0900 C   0  0  0  0  0  0  0  0  0  0  0  0
    4.3410   -0.3520    0.4750 O   0  0  0  0  0  0  0  0  0  0  0  0
    2.3660    0.6750   -0.1280 O   0  0  0  0  0  0  0  0  0  0  0  0
    1.6260   -0.3320    0.4540 C   0  0  0  0  0  0  0  0  0  0  0  0
    2.2520   -1.2770    1.0040 O   0  0  0  0  0  0  0  0  0  0  0  0
    0.2210   -0.3610    0.4660 N   0  0  0  0  0  0  0  0  0  0  0  0
   -0.6860   -1.3430    1.0320 C   0  0  0  0  0  0  0  0  0  0  0  0
   -1.6910   -1.4530   -0.0880 C   0  0  1  0  0  0  0  0  0  0  0  0
   -3.2170   -2.3570    0.3980 P   0  0  0  0  0  0  0  0  0  0  0  0
   -3.4490   -3.7720   -0.5930 O   0  0  0  0  0  0  0  0  0  0  0  0
   -3.1940   -2.8640    2.0510 O   0  0  0  0  0  0  0  0  0  0  0  0
   -1.9370   -0.0170   -0.4420 C   0  0  2  0  0  0  0  0  0  0  0  0
   -2.2900    0.1610   -1.9020 C   0  0  0  0  0  0  0  0  0  0  0  0
   -2.5070    1.5740   -2.1370 N   0  0  0  0  0  0  0  0  0  0  0  0
   -0.6450    0.6600   -0.1290 C   0  0  1  0  0  0  0  0  0  0  0  0
   -0.7620    1.8130    0.7720 C   0  0  0  0  0  0  0  0  0  0  0  0
   -0.1410    1.7760    1.8740 O   0  0  0  0  0  0  0  0  0  0  0  0
   -1.5150    2.9390    0.4820 O   0  0  0  0  0  0  0  0  0  0  0  0
  1  2  1  0
  2  3  1  0
  3  4  2  0
  3  5  1  0
  5  6  1  0
  6  7  2  0
  6  8  1  0
  8  9  1  0
  8 17  1  0
  9 10  1  0
 10 11  1  1
 10 14  1  0
 11 12  1  0
 11 13  1  0
 14 15  1  6
 14 17  1  0
 15 16  1  0
 17 18  1  1
 18 19  2  0
 18 20  1  0
M  END
