
     RDKit          3D

 21 22  0  0  0  0  0  0  0  0999 V2000
    6.2400    2.0490    1.6470 O   0  0  0  0  0  0  0  0  0  0  0  0
    5.1110    0.9980    1.5700 P   0  0  0  0  0  0  0  0  0  0  0  0
    4.3790    0.5190    0.0680 O   0  0  0  0  0  0  0  0  0  0  0  0
    3.0960    0.0110    0.2740 C   0  0  0  0  0  0  0  0  0  0  0  0
    2.5460   -0.3750   -1.0770 C   0  0  0  0  0  0  0  0  0  0  0  0
    1.2230   -0.9160   -1.0140 N   0  0  0  0  0  0  0  0  0  0  0  0
    0.9770   -2.3170   -0.8510 C   0  0  0  0  0  0  0  0  0  0  0  0
    2.0040   -3.0630   -0.7610 O   0  0  0  0  0  0  0  0  0  0  0  0
   -0.3060   -2.8350   -0.7930 O   0  0  0  0  0  0  0  0  0  0  0  0
   -1.3830   -1.9830   -0.8960 C   0  0  0  0  0  0  0  0  0  0  0  0
   -2.4920   -2.4210   -1.2680 O   0  0  0  0  0  0  0  0  0  0  0  0
   -1.1920   -0.5580   -0.5590 C   0  0  2  0  0  0  0  0  0  0  0  0
   -1.2000   -0.4840    0.9740 C   0  0  0  0  0  0  0  0  0  0  0  0
   -2.4910   -0.0180    1.2210 O   0  0  0  0  0  0  0  0  0  0  0  0
   -2.5700    1.0160    0.2590 C   0  0  2  0  0  0  0  0  0  0  0  0
   -3.8790    1.6700    0.2650 C   0  0  0  0  0  0  0  0  0  0  0  0
   -4.6410    1.5430   -0.7070 O   0  0  0  0  0  0  0  0  0  0  0  0
   -4.2860    2.4350    1.3440 O   0  0  0  0  0  0  0  0  0  0  0  0
   -2.3220    0.2600   -0.9550 N   0  0  0  0  0  0  0  0  0  0  0  0
    0.0770   -0.0810   -1.1140 C   0  0  0  0  0  0  0  0  0  0  0  0
    0.1260    1.0440   -1.6600 O   0  0  0  0  0  0  0  0  0  0  0  0
  1  2  2  0
  2  3  1  0
  3  4  1  0
  4  5  1  0
  5  6  1  0
  6  7  1  0
  6 20  1  0
  7  8  2  0
  7  9  1  0
  9 10  1  0
 10 11  2  0
 10 12  1  0
 12 13  1  1
 12 19  1  0
 12 20  1  0
 13 14  1  0
 14 15  1  0
 15 16  1  6
 15 19  1  0
 16 17  2  0
 16 18  1  0
 20 21  2  0
M  END
