
     RDKit          3D

 13 13  0  0  0  0  0  0  0  0999 V2000
    4.8500    0.6110    0.0350 C   0  0  0  0  0  0  0  0  0  0  0  0
    3.8230    1.3880   -0.0710 N   0  0  0  0  0  0  0  0  0  0  0  0
    2.4980    0.9690    0.0150 C   0  0  0  0  0  0  0  0  0  0  0  0
    1.9250    0.6960    1.0990 N   0  0  0  0  0  0  0  0  0  0  0  0
    0.6660    0.2860    1.3060 O   0  0  0  0  0  0  0  0  0  0  0  0
   -0.2900    0.0720    0.3530 C   0  0  0  0  0  0  0  0  0  0  0  0
   -1.6020   -0.3810    0.8730 C   0  0  0  0  0  0  0  0  0  0  0  0
   -1.8360   -0.5640    2.1450 C   0  0  0  0  0  0  0  0  0  0  0  0
   -2.6400   -0.6210   -0.0820 N   0  0  0  0  0  0  0  0  0  0  0  0
   -3.9660   -0.0920    0.1030 C   0  0  0  0  0  0  0  0  0  0  0  0
   -0.1030    0.2430   -0.9370 C   0  0  0  0  0  0  0  0  0  0  0  0
    1.5300    0.8030   -1.5390 P   0  0  0  0  0  0  0  0  0  0  0  0
    2.2340   -0.4870   -2.4840 O   0  0  0  0  0  0  0  0  0  0  0  0
  1  2  2  0
  2  3  1  0
  3  4  2  0
  3 12  1  0
  4  5  1  0
  5  6  1  0
  6  7  1  0
  6 11  2  0
  7  8  2  0
  7  9  1  0
  9 10  1  0
 11 12  1  0
 12 13  1  0
M  END
