
     RDKit          3D

 11 10  0  0  0  0  0  0  0  0999 V2000
    3.1980   -0.9430    0.3730 O   0  0  0  0  0  0  0  0  0  0  0  0
    2.3420    0.0010    0.3020 C   0  0  0  0  0  0  0  0  0  0  0  0
    2.5220    1.4230    0.0210 C   0  0  0  0  0  0  0  0  0  0  0  0
    3.8330    1.7280   -0.0870 O   0  0  0  0  0  0  0  0  0  0  0  0
    1.0750   -0.4970    0.6160 O   0  0  0  0  0  0  0  0  0  0  0  0
    0.2390   -1.1770    0.9140 O   0  0  0  0  0  0  0  0  0  0  0  0
   -0.7570   -1.7740    0.1410 C   0  0  0  0  0  0  0  0  0  0  0  0
   -1.7110   -0.6940   -0.2920 C   0  0  0  0  0  0  0  0  0  0  0  0
   -2.0830    0.0670    0.7880 O   0  0  0  0  0  0  0  0  0  0  0  0
   -2.9110    1.0980    0.2340 O   0  0  0  0  0  0  0  0  0  0  0  0
   -4.0840    0.4100    0.0310 O   0  0  0  0  0  0  0  0  0  0  0  0
  1  2  2  0
  2  3  1  0
  2  5  1  0
  3  4  1  0
  5  6  1  0
  6  7  1  0
  7  8  1  0
  8  9  1  0
  9 10  1  0
 10 11  1  0
M  END
