
     RDKit          3D

 13 14  0  0  0  0  0  0  0  0999 V2000
   -1.9340   -1.6960    0.5820 C   0  0  0  0  0  0  0  0  0  0  0  0
   -1.3050   -0.4820   -0.0150 C   0  0  0  0  0  0  0  0  0  0  0  0
   -2.1040    0.5560   -0.2300 C   0  0  0  0  0  0  0  0  0  0  0  0
   -1.3710    2.0660   -0.9620 P   0  0  0  0  0  0  0  0  0  0  0  0
   -1.8250    3.4140    0.0310 O   0  0  0  0  0  0  0  0  0  0  0  0
    0.3630    1.8220   -0.9170 O   0  0  0  0  0  0  0  0  0  0  0  0
    0.5890    0.5130   -1.3350 C   0  0  1  0  0  0  0  0  0  0  0  0
    2.0060    0.3170   -1.1420 O   0  0  0  0  0  0  0  0  0  0  0  0
    2.1240    0.2790    0.2610 C   0  0  0  0  0  0  0  0  0  0  0  0
    3.2920    0.7170    0.9820 N   0  0  0  0  0  0  0  0  0  0  0  0
    1.0180   -0.2120    0.7910 C   0  0  0  0  0  0  0  0  0  0  0  0
    0.1160   -0.5170   -0.3170 C   0  0  1  0  0  0  0  0  0  0  0  0
    0.5060   -1.8220   -0.8350 N   0  0  0  0  0  0  0  0  0  0  0  0
  1  2  1  0
  2  3  2  0
  2 12  1  0
  3  4  1  0
  4  5  1  0
  4  6  1  0
  7  6  1  1
  7  8  1  0
  7 12  1  0
  8  9  1  0
  9 10  1  0
  9 11  2  0
 11 12  1  0
 12 13  1  6
M  END
