
     RDKit          3D

 11 10  0  0  0  0  0  0  0  0999 V2000
    2.6290   -1.5500   -1.4560 O   0  0  0  0  0  0  0  0  0  0  0  0
    2.5950   -0.3800   -1.0140 C   0  0  0  0  0  0  0  0  0  0  0  0
    3.6470    0.4830   -1.2160 O   0  0  0  0  0  0  0  0  0  0  0  0
    1.4910    0.0430   -0.3210 O   0  0  0  0  0  0  0  0  0  0  0  0
    0.3620   -0.7700   -0.0640 C   0  0  0  0  0  0  0  0  0  0  0  0
   -0.6430    0.0450    0.7240 C   0  0  2  0  0  0  0  0  0  0  0  0
   -1.8360   -0.8500    1.0820 C   0  0  0  0  0  0  0  0  0  0  0  0
   -2.4770   -1.2320   -0.1110 O   0  0  0  0  0  0  0  0  0  0  0  0
   -1.0600    1.1650    0.0520 O   0  0  0  0  0  0  0  0  0  0  0  0
   -0.8470    2.2880    0.6720 O   0  0  0  0  0  0  0  0  0  0  0  0
   -0.9830    3.2570   -0.2150 O   0  0  0  0  0  0  0  0  0  0  0  0
  1  2  2  0
  2  3  1  0
  2  4  1  0
  4  5  1  0
  6  5  1  6
  6  7  1  0
  6  9  1  0
  7  8  1  0
  9 10  1  0
 10 11  1  0
M  END
