
     RDKit          3D

 13 14  0  0  0  0  0  0  0  0999 V2000
   -2.2040   -0.2680    0.9220 C   0  0  0  0  0  0  0  0  0  0  0  0
   -1.0660    0.3210    0.0390 C   0  0  2  0  0  0  0  0  0  0  0  0
   -1.6950    0.3740   -1.3370 C   0  0  0  0  0  0  0  0  0  0  0  0
   -1.9060   -1.1160   -1.5190 C   0  0  0  0  0  0  0  0  0  0  0  0
   -0.9790   -1.7820   -0.8540 C   0  0  0  0  0  0  0  0  0  0  0  0
   -0.0960   -0.7760   -0.1910 C   0  0  0  0  0  0  0  0  0  0  0  0
    1.1390   -0.8040    0.0610 N   0  0  0  0  0  0  0  0  0  0  0  0
    1.9450    0.1690    0.6110 N   0  0  0  0  0  0  0  0  0  0  0  0
    3.3690    0.0110    0.8570 C   0  0  0  0  0  0  0  0  0  0  0  0
    4.0370   -0.2600   -0.4260 N   0  0  0  0  0  0  0  0  0  0  0  0
    1.0520    1.6820    1.0050 P   0  0  0  0  0  0  0  0  0  0  0  0
   -0.5790    1.5430    0.6050 C   0  0  0  0  0  0  0  0  0  0  0  0
   -1.4960    2.5860    0.8060 O   0  0  0  0  0  0  0  0  0  0  0  0
  2  1  1  1
  2  3  1  0
  2  6  1  0
  2 12  1  0
  3  4  1  0
  4  5  2  0
  5  6  1  0
  6  7  2  0
  7  8  1  0
  8  9  1  0
  8 11  1  0
  9 10  1  0
 11 12  2  0
 12 13  1  0
M  END
