
     RDKit          3D

 27 29  0  0  0  0  0  0  0  0999 V2000
   -6.8330    0.5910   -0.7130 C   0  0  0  0  0  0  0  0  0  0  0  0
   -5.5340    0.6160   -0.0350 C   0  0  0  0  0  0  0  0  0  0  0  0
   -4.5800    1.5810   -0.3710 C   0  0  0  0  0  0  0  0  0  0  0  0
   -3.3650    1.5970    0.2790 C   0  0  0  0  0  0  0  0  0  0  0  0
   -3.0920    0.6500    1.2720 C   0  0  0  0  0  0  0  0  0  0  0  0
   -1.7940    0.6820    1.9880 C   0  0  0  0  0  0  0  0  0  0  0  0
   -0.6960    0.3080    1.2250 O   0  0  0  0  0  0  0  0  0  0  0  0
   -0.4850   -0.9110    0.6110 C   0  0  0  0  0  0  0  0  0  0  0  0
   -1.3710   -1.7930    0.7430 O   0  0  0  0  0  0  0  0  0  0  0  0
    0.7350   -1.1810   -0.1760 C   0  0  0  0  0  0  0  0  0  0  0  0
    1.0690   -2.3130   -0.8100 N   0  0  0  0  0  0  0  0  0  0  0  0
    2.2550   -2.1800   -1.4220 C   0  0  0  0  0  0  0  0  0  0  0  0
    2.7360   -0.8860   -1.1820 C   0  0  0  0  0  0  0  0  0  0  0  0
    4.0110   -0.4250   -1.6870 C   0  0  0  0  0  0  0  0  0  0  0  0
    4.1280   -0.3460   -2.9740 O   0  0  0  0  0  0  0  0  0  0  0  0
    5.1630   -0.0480   -0.8910 C   0  0  0  0  0  0  0  0  0  0  0  0
    5.0920    0.1110    0.4660 C   0  0  0  0  0  0  0  0  0  0  0  0
    6.2100    0.4870    1.2240 C   0  0  0  0  0  0  0  0  0  0  0  0
    7.4210    0.7060    0.6030 C   0  0  0  0  0  0  0  0  0  0  0  0
    8.8380    1.1800    1.5170 Cl  0  0  0  0  0  0  0  0  0  0  0  0
    7.5190    0.5520   -0.7690 C   0  0  0  0  0  0  0  0  0  0  0  0
    6.4020    0.1800   -1.5000 C   0  0  0  0  0  0  0  0  0  0  0  0
    1.7750   -0.2920   -0.4100 C   0  0  0  0  0  0  0  0  0  0  0  0
    1.7960    1.0980    0.1150 C   0  0  0  0  0  0  0  0  0  0  0  0
   -4.0410   -0.3090    1.6060 C   0  0  0  0  0  0  0  0  0  0  0  0
   -5.2490   -0.3010    0.9390 C   0  0  0  0  0  0  0  0  0  0  0  0
   -6.2480   -1.3110    1.2970 C   0  0  0  0  0  0  0  0  0  0  0  0
  1  2  1  0
  2  3  2  0
  2 26  1  0
  3  4  1  0
  4  5  2  0
  5  6  1  0
  5 25  1  0
  6  7  1  0
  7  8  1  0
  8  9  2  0
  8 10  1  0
 10 11  1  0
 10 23  2  0
 11 12  1  0
 12 13  2  0
 13 14  1  0
 13 23  1  0
 14 15  2  0
 14 16  1  0
 16 17  2  0
 16 22  1  0
 17 18  1  0
 18 19  2  0
 19 20  1  0
 19 21  1  0
 21 22  2  0
 23 24  1  0
 25 26  2  0
 26 27  1  0
M  END
