
     RDKit          3D

 27 29  0  0  0  0  0  0  0  0999 V2000
   -7.2970   -2.0000    0.0500 C   0  0  0  0  0  0  0  0  0  0  0  0
   -6.4610   -0.7880    0.4720 C   0  0  1  0  0  0  0  0  0  0  0  0
   -5.3290   -1.2650    1.3030 C   0  0  0  0  0  0  0  0  0  0  0  0
   -4.0300   -0.7360    0.8170 C   0  0  0  0  0  0  0  0  0  0  0  0
   -2.9150   -0.6930    1.6240 C   0  0  0  0  0  0  0  0  0  0  0  0
   -1.7150   -0.2010    1.1840 C   0  0  0  0  0  0  0  0  0  0  0  0
   -1.5570    0.2830   -0.1050 C   0  0  0  0  0  0  0  0  0  0  0  0
   -0.4500    0.7690   -0.5940 O   0  0  0  0  0  0  0  0  0  0  0  0
    0.8380    1.0920   -0.4830 C   0  0  0  0  0  0  0  0  0  0  0  0
    1.7180   -0.0670   -0.2150 C   0  0  0  0  0  0  0  0  0  0  0  0
    1.3000   -1.3600   -0.1030 C   0  0  0  0  0  0  0  0  0  0  0  0
    2.1750   -2.4160    0.1490 C   0  0  0  0  0  0  0  0  0  0  0  0
    1.7260   -3.7740    0.2870 C   0  0  0  0  0  0  0  0  0  0  0  0
    1.3450   -4.8840    0.3870 N   0  0  0  0  0  0  0  0  0  0  0  0
    3.5090   -2.0910    0.2830 C   0  0  0  0  0  0  0  0  0  0  0  0
    3.9930   -0.7870    0.1780 C   0  0  0  0  0  0  0  0  0  0  0  0
    3.0900    0.2190   -0.0710 C   0  0  0  0  0  0  0  0  0  0  0  0
    3.4510    1.5290   -0.1900 O   0  0  0  0  0  0  0  0  0  0  0  0
    4.7530    2.0480   -0.1260 C   0  0  1  0  0  0  0  0  0  0  0  0
    5.4750    1.7360    1.1630 C   0  0  0  0  0  0  0  0  0  0  0  0
    5.6370    1.6550   -1.2820 C   0  0  0  0  0  0  0  0  0  0  0  0
    4.7010    3.5890   -0.1740 C   0  0  0  0  0  0  0  0  0  0  0  0
   -2.6980    0.2360   -0.9260 C   0  0  0  0  0  0  0  0  0  0  0  0
   -2.5460    0.8480   -2.5860 Cl  0  0  0  0  0  0  0  0  0  0  0  0
   -3.8860   -0.2540   -0.4840 C   0  0  0  0  0  0  0  0  0  0  0  0
   -5.1110   -0.3080   -1.3660 C   0  0  0  0  0  0  0  0  0  0  0  0
   -6.1800    0.0310   -0.5800 O   0  0  0  0  0  0  0  0  0  0  0  0
  2  1  1  6
  2  3  1  0
  2 27  1  0
  3  4  1  0
  4  5  2  0
  4 25  1  0
  5  6  1  0
  6  7  2  0
  7  8  1  0
  7 23  1  0
  8  9  1  0
  9 10  1  0
 10 11  2  0
 10 17  1  0
 11 12  1  0
 12 13  1  0
 12 15  2  0
 13 14  3  0
 15 16  1  0
 16 17  2  0
 17 18  1  0
 18 19  1  0
 19 20  1  1
 19 21  1  0
 19 22  1  0
 23 24  1  0
 23 25  2  0
 25 26  1  0
 26 27  1  0
M  END
