
     RDKit          3D

 12 13  0  0  0  0  0  0  0  0999 V2000
   -3.0360    1.4090   -0.4640 O   0  0  0  0  0  0  0  0  0  0  0  0
   -2.0010    0.5230   -0.1510 C   0  0  0  0  0  0  0  0  0  0  0  0
   -2.3500   -0.7760    0.2000 C   0  0  0  0  0  0  0  0  0  0  0  0
   -1.3550   -1.6820    0.5160 C   0  0  0  0  0  0  0  0  0  0  0  0
   -0.0600   -1.2680    0.4740 C   0  0  0  0  0  0  0  0  0  0  0  0
    0.3290    0.0250    0.1270 C   0  0  0  0  0  0  0  0  0  0  0  0
    1.7030    0.3960    0.1010 N   0  0  0  0  0  0  0  0  0  0  0  0
    2.6550   -0.1940   -0.6460 C   0  0  0  0  0  0  0  0  0  0  0  0
    3.8490    0.4180   -0.4190 N   0  0  0  0  0  0  0  0  0  0  0  0
    3.6190    1.3730    0.4600 N   0  0  0  0  0  0  0  0  0  0  0  0
    2.3330    1.3520    0.7650 N   0  0  0  0  0  0  0  0  0  0  0  0
   -0.6740    0.9060   -0.1830 C   0  0  0  0  0  0  0  0  0  0  0  0
  1  2  1  0
  2  3  2  0
  2 12  1  0
  3  4  1  0
  4  5  2  0
  5  6  1  0
  6  7  1  0
  6 12  2  0
  7  8  1  0
  7 11  1  0
  8  9  2  0
  9 10  1  0
 10 11  2  0
M  END
