
     RDKit          3D

 12 13  0  0  0  0  0  0  0  0999 V2000
    2.4140   -0.9810   -0.1480 C   0  0  0  0  0  0  0  0  0  0  0  0
    1.3870    0.0330   -0.0150 N   0  0  0  0  0  0  0  0  0  0  0  0
    1.5750    1.3600    0.1420 C   0  0  0  0  0  0  0  0  0  0  0  0
    2.6850    1.9580    0.2010 O   0  0  0  0  0  0  0  0  0  0  0  0
    0.3970    1.9750    0.2280 N   0  0  0  0  0  0  0  0  0  0  0  0
   -0.5920    1.0660    0.1300 C   0  0  0  0  0  0  0  0  0  0  0  0
   -1.9620    1.0810    0.1470 C   0  0  0  0  0  0  0  0  0  0  0  0
   -2.6220   -0.1160    0.0110 C   0  0  0  0  0  0  0  0  0  0  0  0
   -1.9780   -1.2890   -0.1370 N   0  0  0  0  0  0  0  0  0  0  0  0
   -2.7050   -2.4500   -0.2680 O   0  0  0  0  0  0  0  0  0  0  0  0
   -0.6370   -1.3450   -0.1580 C   0  0  0  0  0  0  0  0  0  0  0  0
    0.0580   -0.1550   -0.0230 C   0  0  0  0  0  0  0  0  0  0  0  0
  1  2  1  0
  2  3  1  0
  2 12  1  0
  3  4  2  0
  3  5  1  0
  5  6  1  0
  6  7  2  0
  6 12  1  0
  7  8  1  0
  8  9  2  0
  9 10  1  0
  9 11  1  0
 11 12  2  0
M  CHG  2   9   1  10  -1
M  END
