
     RDKit          3D

 11 12  0  0  0  0  0  0  0  0999 V2000
    3.8620   -0.8070   -0.2390 O   0  0  0  0  0  0  0  0  0  0  0  0
    2.5300   -0.4310   -0.1810 N   0  0  0  0  0  0  0  0  0  0  0  0
    1.5440   -1.3410   -0.0970 C   0  0  0  0  0  0  0  0  0  0  0  0
    0.3700   -0.6180   -0.0600 C   0  0  0  0  0  0  0  0  0  0  0  0
   -0.9380   -1.0380    0.0240 C   0  0  0  0  0  0  0  0  0  0  0  0
   -1.9360   -0.0880    0.0440 C   0  0  0  0  0  0  0  0  0  0  0  0
   -3.2720   -0.5070    0.1290 O   0  0  0  0  0  0  0  0  0  0  0  0
   -1.6180    1.2540   -0.0200 C   0  0  0  0  0  0  0  0  0  0  0  0
   -0.3170    1.6980   -0.1040 C   0  0  0  0  0  0  0  0  0  0  0  0
    0.6820    0.7230   -0.1230 C   0  0  0  0  0  0  0  0  0  0  0  0
    2.0270    0.7930   -0.1970 N   0  0  0  0  0  0  0  0  0  0  0  0
  1  2  1  0
  2  3  2  0
  2 11  1  0
  3  4  1  0
  4  5  2  0
  4 10  1  0
  5  6  1  0
  6  7  1  0
  6  8  2  0
  8  9  1  0
  9 10  2  0
 10 11  1  0
M  CHG  2   1  -1   2   1
M  END
