
     RDKit          3D

 32 33  0  0  0  0  0  0  0  0999 V2000
   -6.7740   -1.1310    1.9580 C   0  0  0  0  0  0  0  0  0  0  0  0
   -6.0860   -0.6480    1.0190 C   0  0  0  0  0  0  0  0  0  0  0  0
   -4.7210   -0.4800    0.5480 C   0  0  0  0  0  0  0  0  0  0  0  0
   -4.6680    0.2710   -0.5900 C   0  0  0  0  0  0  0  0  0  0  0  0
   -5.8230    0.8430   -1.2420 C   0  0  0  0  0  0  0  0  0  0  0  0
   -3.5010   -0.7340    1.2610 C   0  0  0  0  0  0  0  0  0  0  0  0
   -2.2120   -0.1370    1.0680 C   0  0  0  0  0  0  0  0  0  0  0  0
   -1.5090    0.8280    0.6130 C   0  0  0  0  0  0  0  0  0  0  0  0
   -1.9740    2.0330   -0.0320 C   0  0  0  0  0  0  0  0  0  0  0  0
   -3.2950    2.6620    0.3690 C   0  0  0  0  0  0  0  0  0  0  0  0
   -1.1990    2.7970   -0.7660 C   0  0  0  0  0  0  0  0  0  0  0  0
   -1.7760    4.0360   -1.4010 C   0  0  0  0  0  0  0  0  0  0  0  0
    0.1960    2.4470   -0.9430 C   0  0  0  0  0  0  0  0  0  0  0  0
    0.9340    3.1660   -1.6360 O   0  0  0  0  0  0  0  0  0  0  0  0
    0.7910    1.2280   -0.3100 C   0  0  0  0  0  0  0  0  0  0  0  0
    2.1560    0.8860   -0.7360 C   0  0  0  0  0  0  0  0  0  0  0  0
    2.8110    1.8330   -1.3270 O   0  0  0  0  0  0  0  0  0  0  0  0
    2.8370   -0.3120   -0.6040 N   0  0  0  0  0  0  0  0  0  0  0  0
    4.1760   -0.6420   -0.9850 C   0  0  0  0  0  0  0  0  0  0  0  0
    4.6150   -1.9590   -0.9730 C   0  0  0  0  0  0  0  0  0  0  0  0
    5.9080   -2.2360   -1.3250 C   0  0  0  0  0  0  0  0  0  0  0  0
    6.7720   -1.2380   -1.6900 C   0  0  0  0  0  0  0  0  0  0  0  0
    8.1180   -1.5540   -2.0560 N   0  0  0  0  0  0  0  0  0  0  0  0
    8.5810   -2.9230   -2.0140 C   0  0  0  0  0  0  0  0  0  0  0  0
    6.3630    0.0610   -1.7100 C   0  0  0  0  0  0  0  0  0  0  0  0
    7.4710    1.3630   -2.1820 Cl  0  0  0  0  0  0  0  0  0  0  0  0
    5.0420    0.3470   -1.3490 C   0  0  0  0  0  0  0  0  0  0  0  0
   -0.0150    0.5120    0.4010 C   0  0  0  0  0  0  0  0  0  0  0  0
    0.5910   -0.5480    1.2770 C   0  0  0  0  0  0  0  0  0  0  0  0
   -3.5470   -1.7870    2.1440 C   0  0  0  0  0  0  0  0  0  0  0  0
   -2.3160   -2.0770    2.9470 C   0  0  0  0  0  0  0  0  0  0  0  0
   -4.7620   -2.9820    2.1700 Cl  0  0  0  0  0  0  0  0  0  0  0  0
  1  2  2  0
  2  3  1  0
  3  4  2  3
  3  6  1  0
  4  5  1  0
  6  7  1  0
  6 30  2  3
  7  8  2  3
  8  9  1  0
  8 28  1  0
  9 10  1  0
  9 11  2  0
 11 12  1  0
 11 13  1  0
 13 14  2  0
 13 15  1  0
 15 16  1  0
 15 28  2  0
 16 17  2  0
 16 18  1  0
 18 19  1  0
 19 20  2  0
 19 27  1  0
 20 21  1  0
 21 22  2  0
 22 23  1  0
 22 25  1  0
 23 24  1  0
 25 26  1  0
 25 27  2  0
 28 29  1  0
 30 31  1  0
 30 32  1  0
M  END
