
     RDKit          3D

 45 49  0  0  0  0  0  0  0  0999 V2000
   -4.1360    3.8290   -1.3930 C   0  0  0  0  0  0  0  0  0  0  0  0
   -3.6320    4.1340   -0.0650 N   0  0  0  0  0  0  0  0  0  0  0  0
   -4.3780    4.8820    0.7930 C   0  0  0  0  0  0  0  0  0  0  0  0
   -3.6470    4.9910    1.9320 C   0  0  0  0  0  0  0  0  0  0  0  0
   -2.5120    4.3340    1.7600 N   0  0  0  0  0  0  0  0  0  0  0  0
   -2.4720    3.7710    0.4860 C   0  0  0  0  0  0  0  0  0  0  0  0
   -1.4830    3.0960    0.1090 N   0  0  0  0  0  0  0  0  0  0  0  0
   -1.1580    2.3160   -1.3080 S   0  0  2  0  0  0  0  0  0  0  0  0
   -0.8080    3.2290   -2.4670 O   0  0  0  0  0  0  0  0  0  0  0  0
   -2.3000    1.4590   -1.7530 O   0  0  0  0  0  0  0  0  0  0  0  0
    0.3110    1.2440   -1.1600 C   0  0  0  0  0  0  0  0  0  0  0  0
   -0.0410    0.2560   -0.0550 C   0  0  1  0  0  0  0  0  0  0  0  0
   -1.1830   -0.5550   -0.3770 N   0  0  0  0  0  0  0  0  0  0  0  0
   -1.9260   -1.2680    0.5730 C   0  0  0  0  0  0  0  0  0  0  0  0
   -1.7060   -1.0640    1.9230 C   0  0  0  0  0  0  0  0  0  0  0  0
   -2.4720   -1.7320    2.8460 C   0  0  0  0  0  0  0  0  0  0  0  0
   -2.2310   -1.5110    4.1600 F   0  0  0  0  0  0  0  0  0  0  0  0
   -3.4710   -2.6130    2.4820 C   0  0  0  0  0  0  0  0  0  0  0  0
   -4.2280   -3.2710    3.4060 F   0  0  0  0  0  0  0  0  0  0  0  0
   -3.6750   -2.8010    1.1180 C   0  0  0  0  0  0  0  0  0  0  0  0
   -2.9300   -2.1550    0.1630 C   0  0  0  0  0  0  0  0  0  0  0  0
   -2.9850   -2.2440   -1.3290 C   0  0  0  0  0  0  0  0  0  0  0  0
   -3.7970   -3.3950   -1.8200 C   0  0  0  0  0  0  0  0  0  0  0  0
   -5.2790   -3.2830   -1.5640 C   0  0  0  0  0  0  0  0  0  0  0  0
   -5.6000   -3.8040   -0.2440 N   0  0  0  0  0  0  0  0  0  0  0  0
   -4.7730   -3.7430    0.9290 C   0  0  0  0  0  0  0  0  0  0  0  0
   -4.9670   -4.5210    1.8700 O   0  0  0  0  0  0  0  0  0  0  0  0
    1.1740   -0.6000    0.2800 C   0  0  1  0  0  0  0  0  0  0  0  0
    1.5810   -1.4110   -0.7300 O   0  0  0  0  0  0  0  0  0  0  0  0
    2.1620    0.2630    0.9180 C   0  0  0  0  0  0  0  0  0  0  0  0
    1.6860    0.8710    1.9740 O   0  0  0  0  0  0  0  0  0  0  0  0
    3.4780    0.5370    0.6130 N   0  0  0  0  0  0  0  0  0  0  0  0
    4.4400    1.1990    1.5360 C   0  0  0  0  0  0  0  0  0  0  0  0
    5.6220    0.2560    1.3260 C   0  0  1  0  0  0  0  0  0  0  0  0
    5.3830   -0.9920    2.1200 C   0  0  0  0  0  0  0  0  0  0  0  0
    5.2690   -0.6540    3.5540 C   0  0  0  0  0  0  0  0  0  0  0  0
    4.2300   -0.4240    4.1340 O   0  0  0  0  0  0  0  0  0  0  0  0
    5.5470    0.0050   -0.1440 C   0  0  0  0  0  0  0  0  0  0  0  0
    6.4700   -0.3330   -1.1050 C   0  0  0  0  0  0  0  0  0  0  0  0
    6.0570   -0.4490   -2.4370 C   0  0  0  0  0  0  0  0  0  0  0  0
    6.9940   -0.7880   -3.3790 O   0  0  0  0  0  0  0  0  0  0  0  0
    4.7690   -0.2410   -2.8320 C   0  0  0  0  0  0  0  0  0  0  0  0
    4.3940   -0.3650   -4.1590 O   0  0  0  0  0  0  0  0  0  0  0  0
    3.8360    0.0990   -1.8620 C   0  0  0  0  0  0  0  0  0  0  0  0
    4.2230    0.2160   -0.5500 C   0  0  0  0  0  0  0  0  0  0  0  0
  1  2  1  0
  2  3  1  0
  2  6  1  0
  3  4  2  0
  4  5  1  0
  5  6  1  0
  6  7  2  3
  7  8  1  0
  8  9  2  0
  8 10  2  0
  8 11  1  1
 12 11  1  6
 12 13  1  0
 12 28  1  0
 13 14  1  0
 14 15  2  0
 14 21  1  0
 15 16  1  0
 16 17  1  0
 16 18  2  0
 18 19  1  0
 18 20  1  0
 20 21  2  0
 20 26  1  0
 21 22  1  0
 22 23  1  0
 23 24  1  0
 24 25  1  0
 25 26  1  0
 26 27  2  0
 28 29  1  6
 28 30  1  0
 30 31  2  0
 30 32  1  0
 32 33  1  0
 32 45  1  0
 33 34  1  0
 34 35  1  1
 34 38  1  0
 35 36  1  0
 36 37  2  0
 38 39  2  0
 38 45  1  0
 39 40  1  0
 40 41  1  0
 40 42  2  0
 42 43  1  0
 42 44  1  0
 44 45  2  0
M  END
