
     RDKit          3D

 32 34  0  0  0  0  0  0  0  0999 V2000
   -6.7160    1.2890    1.9590 C   0  0  0  0  0  0  0  0  0  0  0  0
   -6.2350    0.1710    1.3340 C   0  0  0  0  0  0  0  0  0  0  0  0
   -6.9510   -1.0990    1.5440 C   0  0  0  0  0  0  0  0  0  0  0  0
   -5.0840    0.3440    0.5320 C   0  0  0  0  0  0  0  0  0  0  0  0
   -4.3830   -0.4880   -0.1810 C   0  0  0  0  0  0  0  0  0  0  0  0
   -4.6260   -1.8850   -0.3340 C   0  0  0  0  0  0  0  0  0  0  0  0
   -3.8440   -2.6190   -1.1250 C   0  0  0  0  0  0  0  0  0  0  0  0
   -2.7520   -2.0050   -1.8210 C   0  0  0  0  0  0  0  0  0  0  0  0
   -2.4580   -0.6950   -1.7220 C   0  0  0  0  0  0  0  0  0  0  0  0
   -1.2740   -0.2190   -2.5270 C   0  0  0  0  0  0  0  0  0  0  0  0
   -0.1950    0.3460   -1.6830 C   0  0  0  0  0  0  0  0  0  0  0  0
    0.8220   -0.4100   -1.2420 N   0  0  0  0  0  0  0  0  0  0  0  0
    1.8270    0.0200   -0.4300 C   0  0  0  0  0  0  0  0  0  0  0  0
    2.8380   -0.9720   -0.0080 C   0  0  0  0  0  0  0  0  0  0  0  0
    2.4530   -2.1670    0.1560 O   0  0  0  0  0  0  0  0  0  0  0  0
    4.1670   -0.6180    0.1970 N   0  0  0  0  0  0  0  0  0  0  0  0
    5.2290   -1.4660    0.6180 C   0  0  0  0  0  0  0  0  0  0  0  0
    5.0710   -2.7970    0.8780 C   0  0  0  0  0  0  0  0  0  0  0  0
    6.1520   -3.5860    1.2910 C   0  0  0  0  0  0  0  0  0  0  0  0
    7.4100   -3.0660    1.4530 C   0  0  0  0  0  0  0  0  0  0  0  0
    7.5430   -1.7250    1.1860 C   0  0  0  0  0  0  0  0  0  0  0  0
    6.5080   -0.9430    0.7840 C   0  0  0  0  0  0  0  0  0  0  0  0
    6.7250    0.7790    0.4520 Cl  0  0  0  0  0  0  0  0  0  0  0  0
    1.8010    1.3130   -0.0300 C   0  0  0  0  0  0  0  0  0  0  0  0
    2.7880    1.8900    0.9160 C   0  0  0  0  0  0  0  0  0  0  0  0
    0.7720    2.1750   -0.4480 C   0  0  0  0  0  0  0  0  0  0  0  0
    0.7810    3.5560   -0.0030 C   0  0  0  0  0  0  0  0  0  0  0  0
    1.4710    4.6290   -0.7820 C   0  0  0  0  0  0  0  0  0  0  0  0
    0.1700    3.8110    1.0860 O   0  0  0  0  0  0  0  0  0  0  0  0
   -0.1970    1.6610   -1.2650 C   0  0  0  0  0  0  0  0  0  0  0  0
   -1.4340    2.8000   -1.8070 Cl  0  0  0  0  0  0  0  0  0  0  0  0
   -3.2160    0.1980   -0.8960 C   0  0  0  0  0  0  0  0  0  0  0  0
  1  2  2  0
  2  3  1  0
  2  4  1  0
  4  5  2  3
  5  6  1  0
  5 32  1  0
  6  7  2  0
  7  8  1  0
  8  9  2  0
  9 10  1  0
  9 32  1  0
 10 11  1  0
 11 12  2  0
 11 30  1  0
 12 13  1  0
 13 14  1  0
 13 24  2  0
 14 15  2  0
 14 16  1  0
 16 17  1  0
 17 18  2  0
 17 22  1  0
 18 19  1  0
 19 20  2  0
 20 21  1  0
 21 22  2  0
 22 23  1  0
 24 25  1  0
 24 26  1  0
 26 27  1  0
 26 30  2  0
 27 28  1  0
 27 29  2  0
 30 31  1  0
M  END
