
     RDKit          3D

 32 34  0  0  0  0  0  0  0  0999 V2000
   -0.7290    2.3930   -2.6820 C   0  0  0  0  0  0  0  0  0  0  0  0
   -0.0390    2.9140   -1.6970 C   0  0  0  0  0  0  0  0  0  0  0  0
   -0.3250    2.6580   -0.3060 C   0  0  0  0  0  0  0  0  0  0  0  0
    0.4280    3.2210    0.6130 C   0  0  0  0  0  0  0  0  0  0  0  0
   -1.4380    1.7880    0.1090 C   0  0  0  0  0  0  0  0  0  0  0  0
   -2.6960    2.2350   -0.3200 C   0  0  0  0  0  0  0  0  0  0  0  0
   -3.8330    1.5490   -0.0160 C   0  0  0  0  0  0  0  0  0  0  0  0
   -3.7140    0.3990    0.7280 C   0  0  0  0  0  0  0  0  0  0  0  0
   -2.4910   -0.0520    1.1550 C   0  0  0  0  0  0  0  0  0  0  0  0
   -1.3100    0.6420    0.8490 C   0  0  0  0  0  0  0  0  0  0  0  0
   -0.0020    0.1450    1.2740 C   0  0  0  0  0  0  0  0  0  0  0  0
    0.7890   -0.5310    0.2710 N   0  0  0  0  0  0  0  0  0  0  0  0
    1.9630    0.2010   -0.1550 C   0  0  0  0  0  0  0  0  0  0  0  0
    2.2550    0.4960   -1.4560 C   0  0  0  0  0  0  0  0  0  0  0  0
    3.3840    1.1940   -1.8240 C   0  0  0  0  0  0  0  0  0  0  0  0
    4.2740    1.6240   -0.8600 C   0  0  0  0  0  0  0  0  0  0  0  0
    5.5040    2.3870   -1.2570 C   0  0  0  0  0  0  0  0  0  0  0  0
    4.0060    1.3420    0.4550 C   0  0  0  0  0  0  0  0  0  0  0  0
    4.9670    1.8010    1.5130 C   0  0  2  0  0  0  0  0  0  0  0  0
    5.6120    0.3780    2.4040 Cl  0  0  0  0  0  0  0  0  0  0  0  0
    4.0930    2.8040    2.6860 Cl  0  0  0  0  0  0  0  0  0  0  0  0
    2.8600    0.6350    0.8080 C   0  0  0  0  0  0  0  0  0  0  0  0
    0.5760   -1.7930   -0.2980 C   0  0  0  0  0  0  0  0  0  0  0  0
    1.5870   -2.5930   -0.3610 O   0  0  0  0  0  0  0  0  0  0  0  0
   -0.6580   -2.3790   -0.8570 C   0  0  0  0  0  0  0  0  0  0  0  0
   -0.9210   -3.7740   -0.2760 C   0  0  0  0  0  0  0  0  0  0  0  0
   -2.3470   -4.0830   -0.4670 C   0  0  0  0  0  0  0  0  0  0  0  0
   -2.7640   -4.1210   -1.6680 O   0  0  0  0  0  0  0  0  0  0  0  0
   -3.2780   -4.3380    0.5550 N   0  0  0  0  0  0  0  0  0  0  0  0
   -3.2990   -3.6190    1.8190 C   0  0  0  0  0  0  0  0  0  0  0  0
   -3.6960   -2.1660    1.6190 C   0  0  0  0  0  0  0  0  0  0  0  0
   -2.4940   -1.2990    1.9460 C   0  0  0  0  0  0  0  0  0  0  0  0
  1  2  2  0
  2  3  1  0
  3  4  2  0
  3  5  1  0
  5  6  2  0
  5 10  1  0
  6  7  1  0
  7  8  2  0
  8  9  1  0
  9 10  2  0
  9 32  1  0
 10 11  1  0
 11 12  1  0
 12 13  1  0
 12 23  1  0
 13 14  2  0
 13 22  1  0
 14 15  1  0
 15 16  2  0
 16 17  1  0
 16 18  1  0
 18 19  1  0
 18 22  2  0
 19 20  1  1
 19 21  1  0
 23 24  2  0
 23 25  1  0
 25 26  1  0
 26 27  1  0
 27 28  2  0
 27 29  1  0
 29 30  1  0
 30 31  1  0
 31 32  1  0
M  END
