
     RDKit          3D

 32 34  0  0  0  0  0  0  0  0999 V2000
    3.9920   -2.8780   -2.4760 C   0  0  0  0  0  0  0  0  0  0  0  0
    3.0610   -1.7890   -2.2350 C   0  0  0  0  0  0  0  0  0  0  0  0
    2.8510   -1.1190   -1.1380 C   0  0  0  0  0  0  0  0  0  0  0  0
    1.8450   -0.0620   -1.1700 N   0  0  0  0  0  0  0  0  0  0  0  0
    1.8870    1.0300   -0.2760 C   0  0  1  0  0  0  0  0  0  0  0  0
    3.1340    1.8530   -0.6420 C   0  0  0  0  0  0  0  0  0  0  0  0
    0.7120    1.8860   -0.4870 C   0  0  0  0  0  0  0  0  0  0  0  0
    0.8780    3.2070   -0.8210 C   0  0  0  0  0  0  0  0  0  0  0  0
   -0.1960    4.0810   -1.0290 C   0  0  0  0  0  0  0  0  0  0  0  0
    0.0600    5.7680   -1.4560 Cl  0  0  0  0  0  0  0  0  0  0  0  0
   -1.4600    3.5560   -0.8810 C   0  0  0  0  0  0  0  0  0  0  0  0
   -1.6160    2.2400   -0.5490 C   0  0  0  0  0  0  0  0  0  0  0  0
   -0.5710    1.3730   -0.3430 C   0  0  0  0  0  0  0  0  0  0  0  0
   -0.7200    0.0510   -0.0130 O   0  0  0  0  0  0  0  0  0  0  0  0
   -1.9630   -0.5490    0.1120 C   0  0  0  0  0  0  0  0  0  0  0  0
   -2.6270   -0.5700    1.3100 C   0  0  0  0  0  0  0  0  0  0  0  0
   -2.0310    0.0490    2.5000 C   0  0  0  0  0  0  0  0  0  0  0  0
   -3.8790   -1.1710    1.4500 C   0  0  0  0  0  0  0  0  0  0  0  0
   -4.5370   -1.1530    2.7820 C   0  0  0  0  0  0  0  0  0  0  0  0
   -4.4430   -1.7540    0.3360 C   0  0  0  0  0  0  0  0  0  0  0  0
   -3.8120   -1.7580   -0.8950 C   0  0  0  0  0  0  0  0  0  0  0  0
   -4.4400   -2.3960   -2.0940 C   0  0  0  0  0  0  0  0  0  0  0  0
   -2.5810   -1.1560   -0.9890 C   0  0  0  0  0  0  0  0  0  0  0  0
   -1.8560   -1.1270   -2.2750 C   0  0  0  0  0  0  0  0  0  0  0  0
    2.0960    0.5920    1.0640 N   0  0  0  0  0  0  0  0  0  0  0  0
    1.4120    1.0790    2.2360 C   0  0  0  0  0  0  0  0  0  0  0  0
    2.1710    2.2740    2.8410 C   0  0  0  0  0  0  0  0  0  0  0  0
    3.0890   -0.4100    1.2370 C   0  0  0  0  0  0  0  0  0  0  0  0
    3.6580   -0.5720    2.3570 O   0  0  0  0  0  0  0  0  0  0  0  0
    3.5140   -1.3160    0.1280 C   0  0  0  0  0  0  0  0  0  0  0  0
    4.4360   -2.2150    0.3560 C   0  0  0  0  0  0  0  0  0  0  0  0
    5.1050   -2.2640    1.9980 Cl  0  0  0  0  0  0  0  0  0  0  0  0
  1  2  1  0
  2  3  2  3
  3  4  1  0
  3 30  1  0
  4  5  1  0
  5  6  1  6
  5  7  1  0
  5 25  1  0
  7  8  2  0
  7 13  1  0
  8  9  1  0
  9 10  1  0
  9 11  2  0
 11 12  1  0
 12 13  2  0
 13 14  1  0
 14 15  1  0
 15 16  2  0
 15 23  1  0
 16 17  1  0
 16 18  1  0
 18 19  1  0
 18 20  2  0
 20 21  1  0
 21 22  1  0
 21 23  2  0
 23 24  1  0
 25 26  1  0
 25 28  1  0
 26 27  1  0
 28 29  2  0
 28 30  1  0
 30 31  2  3
 31 32  1  0
M  END
