
     RDKit          3D

 45 49  0  0  0  0  0  0  0  0999 V2000
   -7.4640    5.2850   -0.8390 N   0  0  0  0  0  0  0  0  0  0  0  0
   -6.4250    4.3730   -0.5530 C   0  0  0  0  0  0  0  0  0  0  0  0
   -5.1280    4.6390   -0.9200 C   0  0  0  0  0  0  0  0  0  0  0  0
   -4.1610    3.7400   -0.6180 C   0  0  0  0  0  0  0  0  0  0  0  0
   -4.3610    2.5320    0.0500 C   0  0  0  0  0  0  0  0  0  0  0  0
   -5.6600    2.2310    0.4280 C   0  0  0  0  0  0  0  0  0  0  0  0
   -6.6190    3.1830    0.1000 C   0  0  0  0  0  0  0  0  0  0  0  0
   -5.9950    1.0550    1.0910 O   0  0  0  0  0  0  0  0  0  0  0  0
   -6.4650   -0.1690    0.9910 C   0  0  0  0  0  0  0  0  0  0  0  0
   -7.3070   -0.6910    1.8930 O   0  0  0  0  0  0  0  0  0  0  0  0
   -6.2310   -1.2000   -0.0090 N   0  0  0  0  0  0  0  0  0  0  0  0
   -4.8710   -1.4760   -0.3160 C   0  0  0  0  0  0  0  0  0  0  0  0
   -4.4620   -2.1510   -1.5270 C   0  0  0  0  0  0  0  0  0  0  0  0
   -5.2360   -2.4480   -2.4470 O   0  0  0  0  0  0  0  0  0  0  0  0
   -3.0480   -2.4600   -1.5830 N   0  0  0  0  0  0  0  0  0  0  0  0
   -2.0910   -2.2600   -0.5300 C   0  0  2  0  0  0  0  0  0  0  0  0
   -2.3690   -3.1370    0.5910 C   0  0  0  0  0  0  0  0  0  0  0  0
   -2.8300   -4.4250    0.4630 C   0  0  0  0  0  0  0  0  0  0  0  0
   -3.0560   -5.1280    1.5620 C   0  0  0  0  0  0  0  0  0  0  0  0
   -2.8370   -4.5990    2.8180 C   0  0  0  0  0  0  0  0  0  0  0  0
   -2.2540   -2.9370    2.3090 S   0  0  0  0  0  0  0  0  0  0  0  0
   -1.7340   -0.8350   -0.1820 C   0  0  2  0  0  0  0  0  0  0  0  0
   -0.2460   -0.7440   -0.2410 N   0  0  0  0  0  0  0  0  0  0  0  0
    0.4440   -0.0090   -1.1570 C   0  0  0  0  0  0  0  0  0  0  0  0
   -0.1970    0.6970   -2.0120 O   0  0  0  0  0  0  0  0  0  0  0  0
    1.9140    0.0260   -1.2660 C   0  0  0  0  0  0  0  0  0  0  0  0
    2.5410    0.2040   -2.4530 N   0  0  0  0  0  0  0  0  0  0  0  0
    3.8350    0.1080   -2.2630 N   0  0  0  0  0  0  0  0  0  0  0  0
    4.1280   -0.1300   -0.9330 C   0  0  0  0  0  0  0  0  0  0  0  0
    5.4720   -0.1540   -0.4380 C   0  0  2  0  0  0  0  0  0  0  0  0
    6.1460   -1.5040   -0.7120 C   0  0  0  0  0  0  0  0  0  0  0  0
    7.4070   -1.5140    0.1110 C   0  0  0  0  0  0  0  0  0  0  0  0
    8.0980   -0.3180   -0.0020 O   0  0  0  0  0  0  0  0  0  0  0  0
    7.4500    0.7470    0.6580 C   0  0  2  0  0  0  0  0  0  0  0  0
    7.6430    1.9560   -0.2140 C   0  0  0  0  0  0  0  0  0  0  0  0
    7.0650    3.1260    0.3180 O   0  0  0  0  0  0  0  0  0  0  0  0
    8.0590    0.9490    2.0310 C   0  0  0  0  0  0  0  0  0  0  0  0
    7.4730    1.9590    2.7330 F   0  0  0  0  0  0  0  0  0  0  0  0
    5.9440    0.4670    0.7950 C   0  0  0  0  0  0  0  0  0  0  0  0
    2.8650   -0.1750   -0.3300 C   0  0  0  0  0  0  0  0  0  0  0  0
    2.7030   -0.3860    0.9700 F   0  0  0  0  0  0  0  0  0  0  0  0
   -2.1440   -0.3250    1.1380 C   0  0  0  0  0  0  0  0  0  0  0  0
   -2.5040    1.1510    1.1950 C   0  0  0  0  0  0  0  0  0  0  0  0
   -1.9190    1.6550    2.2590 O   0  0  0  0  0  0  0  0  0  0  0  0
   -3.2630    1.7070    0.3000 O   0  0  0  0  0  0  0  0  0  0  0  0
  1  2  1  0
  2  3  2  0
  2  7  1  0
  3  4  1  0
  4  5  2  0
  5  6  1  0
  5 45  1  0
  6  7  2  0
  6  8  1  0
  8  9  1  0
  9 10  2  0
  9 11  1  0
 11 12  1  0
 12 13  1  0
 13 14  2  0
 13 15  1  0
 15 16  1  0
 16 17  1  1
 16 22  1  0
 17 18  2  0
 17 21  1  0
 18 19  1  0
 19 20  2  0
 20 21  1  0
 22 23  1  1
 22 42  1  0
 23 24  1  0
 24 25  2  0
 24 26  1  0
 26 27  2  0
 26 40  1  0
 27 28  1  0
 28 29  1  0
 30 29  1  1
 29 40  2  0
 30 31  1  0
 30 39  1  0
 31 32  1  0
 32 33  1  0
 33 34  1  0
 34 35  1  6
 34 37  1  0
 34 39  1  0
 35 36  1  0
 37 38  1  0
 40 41  1  0
 42 43  1  0
 43 44  2  0
 43 45  1  0
M  END
