
     RDKit          3D

 44 48  0  0  0  0  0  0  0  0999 V2000
   -8.9580    0.6940   -1.2140 C   0  0  0  0  0  0  0  0  0  0  0  0
   -8.5940    0.6170    0.1790 N   0  0  0  0  0  0  0  0  0  0  0  0
   -7.7910    1.7720    0.5100 C   0  0  2  0  0  0  0  0  0  0  0  0
   -8.5210    2.9510    0.0950 N   0  0  0  0  0  0  0  0  0  0  0  0
   -7.7330    4.1220   -0.1240 C   0  0  0  0  0  0  0  0  0  0  0  0
   -8.1920    5.1020   -0.7700 O   0  0  0  0  0  0  0  0  0  0  0  0
   -6.3500    4.0990    0.4570 C   0  0  0  0  0  0  0  0  0  0  0  0
   -5.6340    2.9090   -0.0650 C   0  0  1  0  0  0  0  0  0  0  0  0
   -4.6130    2.0820    1.2440 S   0  0  0  0  0  0  0  0  0  0  0  0
   -4.8120    0.4490    0.5410 C   0  0  0  0  0  0  0  0  0  0  0  0
   -3.9460   -0.6820    0.8030 C   0  0  0  0  0  0  0  0  0  0  0  0
   -4.1630   -1.9190    0.2020 C   0  0  0  0  0  0  0  0  0  0  0  0
   -3.3200   -2.9560    0.4840 C   0  0  0  0  0  0  0  0  0  0  0  0
   -2.2310   -2.8170    1.3700 C   0  0  0  0  0  0  0  0  0  0  0  0
   -2.0000   -1.5960    1.9790 C   0  0  0  0  0  0  0  0  0  0  0  0
   -2.8770   -0.5620    1.6680 C   0  0  0  0  0  0  0  0  0  0  0  0
   -0.9830   -1.3180    2.9360 N   0  0  0  0  0  0  0  0  0  0  0  0
    0.3760   -1.7000    2.9120 C   0  0  0  0  0  0  0  0  0  0  0  0
    0.7670   -2.4120    3.9180 O   0  0  0  0  0  0  0  0  0  0  0  0
    1.3530   -1.4130    1.9550 N   0  0  0  0  0  0  0  0  0  0  0  0
    1.1810   -0.7940    0.6740 C   0  0  0  0  0  0  0  0  0  0  0  0
    2.3020   -1.1670   -0.2660 C   0  0  1  0  0  0  0  0  0  0  0  0
    3.5030   -0.2830    0.0550 C   0  0  0  0  0  0  0  0  0  0  0  0
    4.4670   -0.5350   -0.9440 O   0  0  0  0  0  0  0  0  0  0  0  0
    5.6940    0.1250   -0.9140 C   0  0  0  0  0  0  0  0  0  0  0  0
    5.8680    0.9210    0.0300 O   0  0  0  0  0  0  0  0  0  0  0  0
    6.6910   -0.0910   -1.9000 N   0  0  0  0  0  0  0  0  0  0  0  0
    7.9530    0.5360   -1.9400 C   0  0  0  0  0  0  0  0  0  0  0  0
    8.7940    0.1680   -2.9870 C   0  0  0  0  0  0  0  0  0  0  0  0
   10.0490    0.6880   -3.1620 C   0  0  0  0  0  0  0  0  0  0  0  0
   10.4990    1.6180   -2.2620 C   0  0  0  0  0  0  0  0  0  0  0  0
   11.7530    2.1600   -2.4070 F   0  0  0  0  0  0  0  0  0  0  0  0
    9.7170    2.0220   -1.2130 C   0  0  0  0  0  0  0  0  0  0  0  0
   10.2110    3.0300   -0.2480 C   0  0  0  0  0  0  0  0  0  0  0  0
    8.4420    1.4620   -1.0730 C   0  0  0  0  0  0  0  0  0  0  0  0
    2.6350   -2.5180   -0.2610 O   0  0  0  0  0  0  0  0  0  0  0  0
    2.0710   -3.5480    0.4430 C   0  0  0  0  0  0  0  0  0  0  0  0
    2.6850   -4.2220    1.3090 O   0  0  0  0  0  0  0  0  0  0  0  0
    0.6590   -3.9180    0.1950 C   0  0  0  0  0  0  0  0  0  0  0  0
   -0.0590   -4.1630    1.3920 O   0  0  0  0  0  0  0  0  0  0  0  0
   -1.4250   -4.0110    1.5460 C   0  0  0  0  0  0  0  0  0  0  0  0
   -2.0870   -5.0600    1.8910 O   0  0  0  0  0  0  0  0  0  0  0  0
   -5.8170    0.5080   -0.1980 N   0  0  0  0  0  0  0  0  0  0  0  0
   -6.5330    1.7050   -0.3290 C   0  0  1  0  0  0  0  0  0  0  0  0
  1  2  1  0
  3  2  1  6
  3  4  1  0
  3 44  1  0
  4  5  1  0
  5  6  2  0
  5  7  1  0
  8  7  1  1
  8  9  1  0
  8 44  1  0
  9 10  1  0
 10 11  1  0
 10 43  2  0
 11 12  2  0
 11 16  1  0
 12 13  1  0
 13 14  2  0
 14 15  1  0
 14 41  1  0
 15 16  2  0
 15 17  1  0
 17 18  1  0
 18 19  2  0
 18 20  1  0
 20 21  1  0
 21 22  1  0
 22 23  1  1
 22 36  1  0
 23 24  1  0
 24 25  1  0
 25 26  2  0
 25 27  1  0
 27 28  1  0
 28 29  2  0
 28 35  1  0
 29 30  1  0
 30 31  2  0
 31 32  1  0
 31 33  1  0
 33 34  1  0
 33 35  2  0
 36 37  1  0
 37 38  2  0
 37 39  1  0
 39 40  1  0
 40 41  1  0
 41 42  2  0
 44 43  1  1
M  END
