
     RDKit          3D

 33 35  0  0  0  0  0  0  0  0999 V2000
   -5.5240    1.0780   -3.0860 C   0  0  0  0  0  0  0  0  0  0  0  0
   -4.6390    0.3500   -2.1070 C   0  0  0  0  0  0  0  0  0  0  0  0
   -3.8250    1.0430   -1.3610 C   0  0  0  0  0  0  0  0  0  0  0  0
   -3.7660    2.4440   -1.4610 O   0  0  0  0  0  0  0  0  0  0  0  0
   -2.9170    0.4170   -0.3750 C   0  0  2  0  0  0  0  0  0  0  0  0
   -1.6020    0.4200   -0.9650 N   0  0  0  0  0  0  0  0  0  0  0  0
   -0.5180    1.2180   -0.4660 C   0  0  0  0  0  0  0  0  0  0  0  0
   -0.8100    1.9140    0.5260 O   0  0  0  0  0  0  0  0  0  0  0  0
    0.7930    1.2240   -1.0480 C   0  0  0  0  0  0  0  0  0  0  0  0
    1.8970    2.0440   -0.5900 C   0  0  0  0  0  0  0  0  0  0  0  0
    2.3850    1.8690    0.7910 C   0  0  0  0  0  0  0  0  0  0  0  0
    2.0190    2.5040    1.9640 C   0  0  0  0  0  0  0  0  0  0  0  0
    1.0620    3.6650    2.0870 C   0  0  0  0  0  0  0  0  0  0  0  0
    2.7000    1.9600    2.9650 N   0  0  0  0  0  0  0  0  0  0  0  0
    3.4790    1.0160    2.4790 N   0  0  0  0  0  0  0  0  0  0  0  0
    3.3380    0.9070    1.1570 C   0  0  0  0  0  0  0  0  0  0  0  0
    4.0620   -0.0500    0.3110 C   0  0  0  0  0  0  0  0  0  0  0  0
    3.8490   -0.0900   -0.9040 O   0  0  0  0  0  0  0  0  0  0  0  0
    5.0050   -0.9220    0.9000 N   0  0  0  0  0  0  0  0  0  0  0  0
    5.7570   -1.8640    0.2420 N   0  0  0  0  0  0  0  0  0  0  0  0
    5.7820   -2.1850   -1.0360 C   0  0  0  0  0  0  0  0  0  0  0  0
    5.1370   -1.7450   -2.0390 O   0  0  0  0  0  0  0  0  0  0  0  0
    6.6980   -3.1790   -1.2030 N   0  0  0  0  0  0  0  0  0  0  0  0
    7.2180   -3.4530   -0.0420 N   0  0  0  0  0  0  0  0  0  0  0  0
    6.6650   -2.6630    0.8830 C   0  0  0  0  0  0  0  0  0  0  0  0
    6.9470   -2.6700    2.1300 O   0  0  0  0  0  0  0  0  0  0  0  0
   -3.2890   -0.9420    0.0420 C   0  0  0  0  0  0  0  0  0  0  0  0
   -2.3980   -1.9970   -0.0120 C   0  0  0  0  0  0  0  0  0  0  0  0
   -2.7650   -3.2840    0.3490 C   0  0  0  0  0  0  0  0  0  0  0  0
   -4.0190   -3.5270    0.7640 N   0  0  0  0  0  0  0  0  0  0  0  0
   -4.8870   -2.5300    0.8230 C   0  0  0  0  0  0  0  0  0  0  0  0
   -4.5530   -1.2210    0.4680 C   0  0  0  0  0  0  0  0  0  0  0  0
   -5.5840   -0.2030    0.6170 C   0  0  0  0  0  0  0  0  0  0  0  0
  1  2  1  0
  2  3  2  3
  3  4  1  0
  3  5  1  0
  5  6  1  6
  5 27  1  0
  6  7  1  0
  7  8  2  0
  7  9  1  0
  9 10  1  0
 10 11  1  0
 11 12  1  0
 11 16  2  0
 12 13  1  0
 12 14  2  0
 14 15  1  0
 15 16  1  0
 16 17  1  0
 17 18  2  0
 17 19  1  0
 19 20  1  0
 20 21  1  0
 20 25  1  0
 21 22  2  0
 21 23  1  0
 23 24  1  0
 24 25  1  0
 25 26  2  0
 27 28  2  0
 27 32  1  0
 28 29  1  0
 29 30  2  0
 30 31  1  0
 31 32  2  0
 32 33  1  0
M  END
