
     RDKit          3D

 32 36  0  0  0  0  0  0  0  0999 V2000
    4.9700   -4.8720    2.1970 O   0  0  0  0  0  0  0  0  0  0  0  0
    4.6900   -3.8410    1.5640 C   0  0  0  0  0  0  0  0  0  0  0  0
    4.9280   -2.4320    1.9520 C   0  0  0  0  0  0  0  0  0  0  0  0
    3.9450   -1.7500    1.1550 N   0  0  0  0  0  0  0  0  0  0  0  0
    2.9900   -0.7150    1.3570 C   0  0  0  0  0  0  0  0  0  0  0  0
    2.0500   -0.3960    0.4920 C   0  0  0  0  0  0  0  0  0  0  0  0
    1.0700    0.6130    0.6360 N   0  0  0  0  0  0  0  0  0  0  0  0
    0.8870    1.4870    1.7070 C   0  0  0  0  0  0  0  0  0  0  0  0
    1.6430    1.4310    2.6990 O   0  0  0  0  0  0  0  0  0  0  0  0
   -0.1600    2.4840    1.7390 C   0  0  0  0  0  0  0  0  0  0  0  0
   -0.4230    3.3990    2.7660 C   0  0  0  0  0  0  0  0  0  0  0  0
   -1.4590    4.1250    2.3970 N   0  0  0  0  0  0  0  0  0  0  0  0
   -1.9010    3.7520    1.1900 N   0  0  0  0  0  0  0  0  0  0  0  0
   -1.1130    2.7500    0.7810 C   0  0  0  0  0  0  0  0  0  0  0  0
   -1.3430    2.1430   -0.4840 N   0  0  0  0  0  0  0  0  0  0  0  0
   -2.2810    2.5000   -1.2810 C   0  0  0  0  0  0  0  0  0  0  0  0
   -2.4320    1.8320   -2.5250 N   0  0  0  0  0  0  0  0  0  0  0  0
   -1.8140    0.5470   -2.7960 C   0  0  0  0  0  0  0  0  0  0  0  0
   -2.3410   -0.4280   -1.8030 C   0  0  0  0  0  0  0  0  0  0  0  0
   -3.2270   -0.0710   -0.8690 N   0  0  0  0  0  0  0  0  0  0  0  0
   -3.7320   -0.8970    0.0430 C   0  0  0  0  0  0  0  0  0  0  0  0
   -4.5670   -0.4100    0.8670 O   0  0  0  0  0  0  0  0  0  0  0  0
   -3.3550   -2.1840    0.0630 N   0  0  0  0  0  0  0  0  0  0  0  0
   -2.4610   -2.5870   -0.8630 C   0  0  0  0  0  0  0  0  0  0  0  0
   -1.9370   -1.7530   -1.8000 C   0  0  0  0  0  0  0  0  0  0  0  0
   -1.0220   -2.1760   -2.7440 O   0  0  0  0  0  0  0  0  0  0  0  0
   -3.1170    3.5560   -0.8580 N   0  0  0  0  0  0  0  0  0  0  0  0
   -2.9910    4.2500    0.3920 C   0  0  0  0  0  0  0  0  0  0  0  0
    2.0850   -1.1330   -0.7850 C   0  0  0  0  0  0  0  0  0  0  0  0
    2.9890   -2.0180   -1.0230 N   0  0  0  0  0  0  0  0  0  0  0  0
    4.0320   -2.3940   -0.1520 C   0  0  2  0  0  0  0  0  0  0  0  0
    4.0510   -3.7890    0.2690 N   0  0  0  0  0  0  0  0  0  0  0  0
  1  2  2  0
  2  3  1  0
  2 32  1  0
  3  4  1  0
  4  5  1  0
  4 31  1  0
  5  6  2  0
  6  7  1  0
  6 29  1  0
  7  8  1  0
  8  9  2  0
  8 10  1  0
 10 11  1  0
 10 14  2  0
 11 12  2  0
 12 13  1  0
 13 14  1  0
 13 28  1  0
 14 15  1  0
 15 16  2  0
 16 17  1  0
 16 27  1  0
 17 18  1  0
 18 19  1  0
 19 20  2  0
 19 25  1  0
 20 21  1  0
 21 22  2  0
 21 23  1  0
 23 24  1  0
 24 25  2  0
 25 26  1  0
 27 28  1  0
 29 30  2  0
 30 31  1  0
 31 32  1  1
M  END
