
     RDKit          3D

 32 36  0  0  0  0  0  0  0  0999 V2000
    4.6290    1.4540    0.2810 C   0  0  0  0  0  0  0  0  0  0  0  0
    3.9730    1.0570    1.5520 C   0  0  2  0  0  0  0  0  0  0  0  0
    5.0240    1.2780    2.6610 C   0  0  0  0  0  0  0  0  0  0  0  0
    3.5080   -0.3730    1.5680 C   0  0  0  0  0  0  0  0  0  0  0  0
    2.5530   -0.5970    0.4570 C   0  0  0  0  0  0  0  0  0  0  0  0
    1.2210   -0.1840    0.6770 C   0  0  0  0  0  0  0  0  0  0  0  0
    0.3270   -0.2470   -0.3410 C   0  0  0  0  0  0  0  0  0  0  0  0
   -1.0530    0.1720   -0.1330 N   0  0  0  0  0  0  0  0  0  0  0  0
   -1.5600    1.3420   -0.5510 C   0  0  0  0  0  0  0  0  0  0  0  0
   -2.9000    1.4070   -0.1820 C   0  0  0  0  0  0  0  0  0  0  0  0
   -3.1890    0.2350    0.4750 C   0  0  0  0  0  0  0  0  0  0  0  0
   -2.0190   -0.5220    0.4940 C   0  0  0  0  0  0  0  0  0  0  0  0
   -2.0170   -1.8450    1.1380 C   0  0  0  0  0  0  0  0  0  0  0  0
   -3.4020   -2.4490    1.1610 C   0  0  2  0  0  0  0  0  0  0  0  0
   -3.3560   -3.7220    2.0040 C   0  0  0  0  0  0  0  0  0  0  0  0
   -3.8530   -2.7800   -0.2430 C   0  0  0  0  0  0  0  0  0  0  0  0
   -4.3840   -1.5180    1.8350 C   0  0  0  0  0  0  0  0  0  0  0  0
   -4.4150   -0.2550    1.0810 C   0  0  0  0  0  0  0  0  0  0  0  0
   -5.5090    0.3500    0.9910 O   0  0  0  0  0  0  0  0  0  0  0  0
   -3.7670    2.5630   -0.4840 C   0  0  0  0  0  0  0  0  0  0  0  0
   -3.0640    3.5880   -1.3230 C   0  0  0  0  0  0  0  0  0  0  0  0
   -1.6670    3.7080   -0.9060 N   0  0  1  0  0  0  0  0  0  0  0  0
   -1.5670    3.8790    0.5300 C   0  0  0  0  0  0  0  0  0  0  0  0
   -0.9770    2.4990   -1.2870 C   0  0  0  0  0  0  0  0  0  0  0  0
    0.7330   -0.7070   -1.5560 C   0  0  0  0  0  0  0  0  0  0  0  0
    2.0190   -1.1200   -1.8130 C   0  0  0  0  0  0  0  0  0  0  0  0
    2.9610   -1.0660   -0.7690 C   0  0  0  0  0  0  0  0  0  0  0  0
    4.2920   -1.5960   -1.0090 C   0  0  0  0  0  0  0  0  0  0  0  0
    5.1610   -1.5790   -0.1160 O   0  0  0  0  0  0  0  0  0  0  0  0
    4.5780   -2.1430   -2.2950 N   0  0  0  0  0  0  0  0  0  0  0  0
    3.5400   -2.5220   -3.2190 C   0  0  0  0  0  0  0  0  0  0  0  0
    2.3830   -1.5930   -3.1720 C   0  0  0  0  0  0  0  0  0  0  0  0
  2  1  1  6
  2  3  1  0
  2  4  1  0
  4  5  1  0
  5  6  2  0
  5 27  1  0
  6  7  1  0
  7  8  1  0
  7 25  2  0
  8  9  1  0
  8 12  1  0
  9 10  2  0
  9 24  1  0
 10 11  1  0
 10 20  1  0
 11 12  2  0
 11 18  1  0
 12 13  1  0
 13 14  1  0
 14 15  1  1
 14 16  1  0
 14 17  1  0
 17 18  1  0
 18 19  2  0
 20 21  1  0
 21 22  1  0
 22 23  1  1
 22 24  1  0
 25 26  1  0
 26 27  2  0
 26 32  1  0
 27 28  1  0
 28 29  2  0
 28 30  1  0
 30 31  1  0
 31 32  1  0
M  CHG  1  22   1
M  END
