
     RDKit          3D

 28 30  0  0  0  0  0  0  0  0999 V2000
    2.2110   -1.8000    3.9640 C   0  0  0  0  0  0  0  0  0  0  0  0
    2.1390   -0.9920    2.6530 C   0  0  0  0  0  0  0  0  0  0  0  0
    1.1270   -1.5800    1.7250 C   0  0  2  0  0  0  0  0  0  0  0  0
    1.6590   -3.0330    1.5000 C   0  0  0  0  0  0  0  0  0  0  0  0
    2.7870   -2.6720    0.6020 C   0  0  0  0  0  0  0  0  0  0  0  0
    2.4820   -1.5750   -0.1050 C   0  0  0  0  0  0  0  0  0  0  0  0
    1.1130   -1.1870    0.3260 C   0  0  2  0  0  0  0  0  0  0  0  0
    0.6000    0.0540   -0.2370 C   0  0  1  0  0  0  0  0  0  0  0  0
    0.8660   -0.1570   -1.7540 C   0  0  0  0  0  0  0  0  0  0  0  0
   -0.0390   -1.2110   -2.2960 C   0  0  0  0  0  0  0  0  0  0  0  0
   -1.1620   -1.6100   -1.7590 C   0  0  0  0  0  0  0  0  0  0  0  0
   -1.9910   -2.6800   -2.3940 C   0  0  2  0  0  0  0  0  0  0  0  0
   -2.0490   -3.8390   -1.4220 C   0  0  0  0  0  0  0  0  0  0  0  0
   -1.3420   -3.1590   -3.6520 C   0  0  0  0  0  0  0  0  0  0  0  0
   -1.6790   -1.0110   -0.4570 C   0  0  0  0  0  0  0  0  0  0  0  0
   -0.9010    0.2520   -0.2590 C   0  0  1  0  0  0  0  0  0  0  0  0
   -1.4990    1.2870    0.6500 C   0  0  1  0  0  0  0  0  0  0  0  0
   -2.9880    1.1820    0.4250 C   0  0  0  0  0  0  0  0  0  0  0  0
   -1.3060    1.2220    2.1050 C   0  0  0  0  0  0  0  0  0  0  0  0
   -0.9960    2.5940    0.1320 C   0  0  0  0  0  0  0  0  0  0  0  0
   -1.5800    3.7570    0.0750 C   0  0  0  0  0  0  0  0  0  0  0  0
   -0.8010    4.9170   -0.5160 C   0  0  0  0  0  0  0  0  0  0  0  0
   -2.9400    4.1200    0.5380 C   0  0  0  0  0  0  0  0  0  0  0  0
    0.3740    2.4710   -0.3540 C   0  0  0  0  0  0  0  0  0  0  0  0
    0.8570    3.2280   -1.1810 O   0  0  0  0  0  0  0  0  0  0  0  0
    1.1910    1.3440    0.2170 C   0  0  2  0  0  0  0  0  0  0  0  0
    2.6130    1.6410    0.0150 C   0  0  0  0  0  0  0  0  0  0  0  0
    3.1830    1.7150   -1.3480 C   0  0  0  0  0  0  0  0  0  0  0  0
  1  2  1  0
  3  2  1  1
  3  4  1  0
  3  7  1  0
  4  5  1  0
  5  6  2  0
  7  6  1  1
  7  8  1  0
  8  9  1  6
  8 16  1  0
  8 26  1  0
  9 10  1  0
 10 11  2  0
 11 12  1  0
 11 15  1  0
 12 13  1  1
 12 14  1  0
 16 15  1  1
 16 17  1  0
 17 18  1  1
 17 19  1  0
 17 20  1  0
 20 21  2  3
 20 24  1  0
 21 22  1  0
 21 23  1  0
 24 25  2  0
 24 26  1  0
 26 27  1  6
 27 28  1  0
M  END
