
     RDKit          3D

 28 31  0  0  0  0  0  0  0  0999 V2000
    6.9020    0.9840   -0.2340 C   0  0  0  0  0  0  0  0  0  0  0  0
    5.6710    1.4090   -0.0410 C   0  0  0  0  0  0  0  0  0  0  0  0
    4.5640    0.9830   -0.9560 C   0  0  0  0  0  0  0  0  0  0  0  0
    3.5540    0.2530   -0.0340 C   0  0  0  0  0  0  0  0  0  0  0  0
    2.4480   -0.1790   -0.9160 C   0  0  0  0  0  0  0  0  0  0  0  0
    1.2970   -0.9220   -0.3290 C   0  0  2  0  0  0  0  0  0  0  0  0
    1.6860   -2.1740    0.3860 C   0  0  0  0  0  0  0  0  0  0  0  0
    0.7860   -1.6370   -1.6570 C   0  0  0  0  0  0  0  0  0  0  0  0
    0.1440   -0.1270    0.2440 C   0  0  2  0  0  0  0  0  0  0  0  0
    0.6190    0.8380    1.3220 C   0  0  0  0  0  0  0  0  0  0  0  0
    1.1390    0.1940    2.5920 C   0  0  0  0  0  0  0  0  0  0  0  0
    0.1290   -0.7890    3.1440 C   0  0  0  0  0  0  0  0  0  0  0  0
   -1.0010   -0.5020    2.3810 O   0  0  0  0  0  0  0  0  0  0  0  0
   -0.7720   -1.0290    1.0700 C   0  0  1  0  0  0  0  0  0  0  0  0
   -2.1370   -1.3150    0.6290 C   0  0  1  0  0  0  0  0  0  0  0  0
   -2.4490   -2.6880    0.1290 C   0  0  0  0  0  0  0  0  0  0  0  0
   -2.1680   -3.6990    1.1920 C   0  0  0  0  0  0  0  0  0  0  0  0
   -3.2000   -1.1780    1.7630 C   0  0  0  0  0  0  0  0  0  0  0  0
   -4.4820   -1.0600    0.9580 C   0  0  0  0  0  0  0  0  0  0  0  0
   -4.0710   -0.5740   -0.4270 C   0  0  0  0  0  0  0  0  0  0  0  0
   -2.6630   -0.1800   -0.1840 C   0  0  2  0  0  0  0  0  0  0  0  0
   -1.7760    0.0120   -1.3460 C   0  0  1  0  0  0  0  0  0  0  0  0
   -2.4370    0.9790   -2.2560 C   0  0  0  0  0  0  0  0  0  0  0  0
   -1.6720    2.2240   -2.0350 C   0  0  0  0  0  0  0  0  0  0  0  0
   -0.9200    2.0690   -0.6690 C   0  0  2  0  0  0  0  0  0  0  0  0
    0.1320    3.1530   -0.8730 C   0  0  0  0  0  0  0  0  0  0  0  0
   -0.5910    4.5090   -1.1100 C   0  0  0  0  0  0  0  0  0  0  0  0
   -0.4930    0.6680   -0.8170 C   0  0  1  0  0  0  0  0  0  0  0  0
  1  2  2  0
  2  3  1  0
  3  4  1  0
  4  5  1  0
  5  6  1  0
  6  7  1  1
  6  8  1  0
  6  9  1  0
  9 10  1  1
  9 14  1  0
  9 28  1  0
 10 11  1  0
 11 12  1  0
 12 13  1  0
 14 13  1  1
 14 15  1  0
 15 16  1  6
 15 18  1  0
 15 21  1  0
 16 17  1  0
 18 19  1  0
 19 20  1  0
 21 20  1  6
 21 22  1  0
 22 23  1  6
 22 28  1  0
 23 24  1  0
 24 25  1  0
 25 26  1  6
 28 25  1  1
 26 27  1  0
M  END
