
     RDKit          3D

 28 30  0  0  0  0  0  0  0  0999 V2000
    5.2770    1.2030   -1.5070 C   0  0  0  0  0  0  0  0  0  0  0  0
    5.0480   -0.2400   -1.3650 C   0  0  0  0  0  0  0  0  0  0  0  0
    3.8080   -0.7650   -0.8370 C   0  0  0  0  0  0  0  0  0  0  0  0
    2.8360   -0.2830   -0.1430 C   0  0  0  0  0  0  0  0  0  0  0  0
    2.7850    1.1300    0.3460 C   0  0  0  0  0  0  0  0  0  0  0  0
    3.6430    1.9200    0.9410 C   0  0  0  0  0  0  0  0  0  0  0  0
    3.2170    3.2640    1.2850 C   0  0  0  0  0  0  0  0  0  0  0  0
    2.0110    3.6640    1.0280 C   0  0  0  0  0  0  0  0  0  0  0  0
    0.9790    2.8250    0.3950 C   0  0  0  0  0  0  0  0  0  0  0  0
    1.4160    1.5150   -0.1110 C   0  0  2  0  0  0  0  0  0  0  0  0
    0.6500    0.3170    0.4480 C   0  0  1  0  0  0  0  0  0  0  0  0
   -0.7590    0.3740    0.0650 C   0  0  1  0  0  0  0  0  0  0  0  0
   -1.1110    0.2510   -1.3830 C   0  0  0  0  0  0  0  0  0  0  0  0
   -2.4060    0.9670   -1.6980 C   0  0  0  0  0  0  0  0  0  0  0  0
   -3.2800    1.0800   -0.5110 C   0  0  1  0  0  0  0  0  0  0  0  0
   -4.7090    1.4610   -0.8500 C   0  0  0  0  0  0  0  0  0  0  0  0
   -3.2060   -0.0360    0.4970 C   0  0  1  0  0  0  0  0  0  0  0  0
   -3.9250   -1.2700    0.1700 C   0  0  1  0  0  0  0  0  0  0  0  0
   -3.5870   -2.0560   -1.0380 C   0  0  0  0  0  0  0  0  0  0  0  0
   -4.1390   -2.2510    1.2510 C   0  0  0  0  0  0  0  0  0  0  0  0
   -4.6560   -1.9930    2.3260 O   0  0  0  0  0  0  0  0  0  0  0  0
   -1.8080   -0.0820    1.0410 C   0  0  2  0  0  0  0  0  0  0  0  0
   -1.7990    0.9480    2.2160 C   0  0  0  0  0  0  0  0  0  0  0  0
   -1.4990   -1.3470    1.7960 C   0  0  0  0  0  0  0  0  0  0  0  0
    1.5040   -0.8480    0.3330 C   0  0  1  0  0  0  0  0  0  0  0  0
    1.2280   -2.1280   -0.2380 C   0  0  2  0  0  0  0  0  0  0  0  0
    2.2360   -3.1900    0.2210 C   0  0  0  0  0  0  0  0  0  0  0  0
    1.2940   -2.2060   -1.7780 C   0  0  0  0  0  0  0  0  0  0  0  0
  1  2  1  0
  2  3  1  0
  3  4  2  3
  4  5  1  0
 25  4  1  6
  5  6  2  0
  5 10  1  0
  6  7  1  0
  7  8  2  0
  8  9  1  0
 10  9  1  1
 11 10  1  6
 11 12  1  0
 11 25  1  0
 12 13  1  6
 12 22  1  0
 13 14  1  0
 14 15  1  0
 15 16  1  6
 15 17  1  0
 17 18  1  6
 17 22  1  0
 18 19  1  6
 18 20  1  0
 20 21  2  0
 22 23  1  1
 22 24  1  0
 25 26  1  0
 26 27  1  1
 26 28  1  0
M  END
