
     RDKit          3D

 41 44  0  0  0  0  0  0  0  0999 V2000
   -5.1830   -3.8050   -2.7020 C   0  0  0  0  0  0  0  0  0  0  0  0
   -5.9800   -2.5810   -2.3850 C   0  0  0  0  0  0  0  0  0  0  0  0
   -6.1050   -2.2810   -0.9970 N   0  0  0  0  0  0  0  0  0  0  0  0
   -4.9500   -1.9710   -0.1950 C   0  0  0  0  0  0  0  0  0  0  0  0
   -5.0600   -1.7790    1.1670 C   0  0  0  0  0  0  0  0  0  0  0  0
   -3.9320   -1.4790    1.9000 C   0  0  0  0  0  0  0  0  0  0  0  0
   -2.6820   -1.3620    1.3310 C   0  0  0  0  0  0  0  0  0  0  0  0
   -2.5460   -1.5490   -0.0350 C   0  0  0  0  0  0  0  0  0  0  0  0
   -3.6960   -1.8500   -0.7480 C   0  0  0  0  0  0  0  0  0  0  0  0
   -1.2890   -1.4720   -0.7410 C   0  0  0  0  0  0  0  0  0  0  0  0
   -0.3980   -0.5430   -0.8500 C   0  0  0  0  0  0  0  0  0  0  0  0
   -0.2800    0.7990   -0.3310 C   0  0  0  0  0  0  0  0  0  0  0  0
    0.9030    1.1340    0.5220 C   0  0  0  0  0  0  0  0  0  0  0  0
    1.0880    2.3870    1.0440 C   0  0  0  0  0  0  0  0  0  0  0  0
    2.1850    2.6740    1.8080 C   0  0  0  0  0  0  0  0  0  0  0  0
    3.1550    1.7210    2.0910 C   0  0  0  0  0  0  0  0  0  0  0  0
    2.9710    0.4680    1.5690 C   0  0  0  0  0  0  0  0  0  0  0  0
    3.9470   -0.6390    1.8050 C   0  0  0  0  0  0  0  0  0  0  0  0
    4.9740   -0.6590    0.7990 N   0  0  0  0  0  0  0  0  0  0  0  0
    6.1980   -1.1560    1.3680 C   0  0  0  0  0  0  0  0  0  0  0  0
    6.1670   -2.6730    1.4740 C   0  0  2  0  0  0  0  0  0  0  0  0
    7.4740   -3.1670    2.0470 C   0  0  0  0  0  0  0  0  0  0  0  0
    6.0080   -3.2500    0.2300 O   0  0  0  0  0  0  0  0  0  0  0  0
    1.8660    0.1950    0.8040 C   0  0  0  0  0  0  0  0  0  0  0  0
   -1.0830    1.7840   -0.5390 N   0  0  0  0  0  0  0  0  0  0  0  0
   -2.2390    2.0290   -1.2190 C   0  0  0  0  0  0  0  0  0  0  0  0
   -2.3080    2.6610   -2.8950 S   0  0  0  0  0  0  0  0  0  0  0  0
   -0.7480    3.2200   -3.5060 C   0  0  2  0  0  0  0  0  0  0  0  0
    0.2310    2.1290   -3.7470 C   0  0  0  0  0  0  0  0  0  0  0  0
    1.5350    2.7820   -4.1620 C   0  0  0  0  0  0  0  0  0  0  0  0
    1.5870    4.1320   -2.9740 S   0  0  1  0  0  0  0  0  0  0  0  0
    2.4300    3.7480   -1.7890 O   0  0  0  0  0  0  0  0  0  0  0  0
    2.0250    5.4010   -3.6040 O   0  0  0  0  0  0  0  0  0  0  0  0
   -0.1280    4.1630   -2.4850 C   0  0  0  0  0  0  0  0  0  0  0  0
   -3.4530    1.9240   -0.5810 C   0  0  0  0  0  0  0  0  0  0  0  0
   -3.7540    1.6030    0.7220 N   0  0  0  0  0  0  0  0  0  0  0  0
   -3.1420    1.8540    1.9590 C   0  0  0  0  0  0  0  0  0  0  0  0
   -3.7330    2.7880    2.6930 O   0  0  0  0  0  0  0  0  0  0  0  0
   -2.0220    1.3310    2.6130 N   0  0  0  0  0  0  0  0  0  0  0  0
   -1.7300    0.0630    3.1670 C   0  0  0  0  0  0  0  0  0  0  0  0
   -1.5570   -1.0830    2.2320 C   0  0  0  0  0  0  0  0  0  0  0  0
  1  2  1  0
  2  3  1  0
  3  4  1  0
  4  5  2  0
  4  9  1  0
  5  6  1  0
  6  7  2  0
  7  8  1  0
  7 41  1  0
  8  9  2  0
  8 10  1  0
 10 11  2  0
 11 12  1  0
 12 13  1  0
 12 25  2  0
 13 14  2  0
 13 24  1  0
 14 15  1  0
 15 16  2  0
 16 17  1  0
 17 18  1  0
 17 24  2  0
 18 19  1  0
 19 20  1  0
 20 21  1  0
 21 22  1  6
 21 23  1  0
 25 26  1  0
 26 27  1  0
 26 35  2  0
 28 27  1  1
 28 29  1  0
 28 34  1  0
 29 30  1  0
 31 30  1  6
 31 32  2  0
 31 33  2  0
 31 34  1  0
 35 36  1  0
 36 37  1  0
 37 38  2  0
 37 39  1  0
 39 40  1  0
 40 41  1  0
M  CHG  1  19   1
M  END
