
     RDKit          3D

 41 45  0  0  0  0  0  0  0  0999 V2000
    8.5850    1.2970   -1.1360 C   0  0  0  0  0  0  0  0  0  0  0  0
    9.0390    1.1470    0.2920 C   0  0  0  0  0  0  0  0  0  0  0  0
    9.0720   -0.3250    0.6440 C   0  0  1  0  0  0  0  0  0  0  0  0
   10.0740   -1.0050   -0.3080 C   0  0  0  0  0  0  0  0  0  0  0  0
    9.5010   -0.5780    2.0640 C   0  0  0  0  0  0  0  0  0  0  0  0
    7.7230   -0.9430    0.4370 C   0  0  0  0  0  0  0  0  0  0  0  0
    6.6130   -0.2260    0.7300 C   0  0  0  0  0  0  0  0  0  0  0  0
    5.3640   -0.8080    0.5150 C   0  0  0  0  0  0  0  0  0  0  0  0
    4.2430   -0.0840    0.8010 C   0  0  0  0  0  0  0  0  0  0  0  0
    2.9860   -0.6550    0.5800 C   0  0  0  0  0  0  0  0  0  0  0  0
    1.8380    0.1080    0.8940 N   0  0  0  0  0  0  0  0  0  0  0  0
    0.4920   -0.1690    0.4560 C   0  0  2  0  0  0  0  0  0  0  0  0
    0.4580    0.0000   -1.0390 C   0  0  0  0  0  0  0  0  0  0  0  0
   -0.9890   -0.1310   -1.4760 C   0  0  2  0  0  0  0  0  0  0  0  0
   -1.1060   -0.1170   -2.9220 N   0  0  0  0  0  0  0  0  0  0  0  0
   -1.6930    1.0900   -0.8780 C   0  0  0  0  0  0  0  0  0  0  0  0
   -1.6320    1.1180    0.5150 N   0  0  0  0  0  0  0  0  0  0  0  0
   -2.8260    1.2680    1.2640 C   0  0  0  0  0  0  0  0  0  0  0  0
   -3.7590    0.1060    1.2120 C   0  0  0  0  0  0  0  0  0  0  0  0
   -4.9780    0.3110    2.0300 C   0  0  0  0  0  0  0  0  0  0  0  0
   -6.0090    1.6550    1.5890 S   0  0  1  0  0  0  0  0  0  0  0  0
   -7.2180    1.7350    2.5240 O   0  0  0  0  0  0  0  0  0  0  0  0
   -5.2970    2.9600    1.7750 O   0  0  0  0  0  0  0  0  0  0  0  0
   -6.6310    1.5900   -0.0610 C   0  0  1  0  0  0  0  0  0  0  0  0
   -7.5510    0.4690   -0.3270 C   0  0  0  0  0  0  0  0  0  0  0  0
   -7.1950   -0.8870   -0.2880 C   0  0  0  0  0  0  0  0  0  0  0  0
   -8.1110   -1.8980   -0.5390 C   0  0  0  0  0  0  0  0  0  0  0  0
   -7.7420   -3.2740   -0.4870 N   0  0  0  0  0  0  0  0  0  0  0  0
   -9.3980   -1.5790   -0.8350 C   0  0  0  0  0  0  0  0  0  0  0  0
   -9.7490   -0.2580   -0.8750 C   0  0  0  0  0  0  0  0  0  0  0  0
   -8.8150    0.7770   -0.6180 C   0  0  0  0  0  0  0  0  0  0  0  0
   -9.1740    2.2110   -0.6660 C   0  0  0  0  0  0  0  0  0  0  0  0
   -7.6190    3.0090   -0.4410 S   0  0  1  0  0  0  0  0  0  0  0  0
   -7.6800    3.9180    0.7590 O   0  0  0  0  0  0  0  0  0  0  0  0
   -7.1550    3.7410   -1.6650 O   0  0  0  0  0  0  0  0  0  0  0  0
   -0.4750    0.7200    1.1750 C   0  0  0  0  0  0  0  0  0  0  0  0
    2.8840   -1.9280    0.0830 C   0  0  0  0  0  0  0  0  0  0  0  0
    4.0170   -2.6420   -0.1980 C   0  0  0  0  0  0  0  0  0  0  0  0
    5.2680   -2.0890    0.0160 C   0  0  0  0  0  0  0  0  0  0  0  0
    6.4340   -2.7670   -0.2610 C   0  0  0  0  0  0  0  0  0  0  0  0
    7.6220   -2.2030   -0.0540 N   0  0  0  0  0  0  0  0  0  0  0  0
  1  2  1  0
  2  3  1  0
  3  4  1  6
  3  5  1  0
  3  6  1  0
  6  7  2  0
  6 41  1  0
  7  8  1  0
  8  9  2  0
  8 39  1  0
  9 10  1  0
 10 11  1  0
 10 37  2  0
 12 11  1  1
 12 13  1  0
 12 36  1  0
 13 14  1  0
 14 15  1  6
 14 16  1  0
 16 17  1  0
 17 18  1  0
 17 36  1  0
 18 19  1  0
 19 20  1  0
 21 20  1  1
 21 22  2  0
 21 23  2  0
 21 24  1  0
 24 25  1  1
 24 33  1  0
 25 26  2  0
 25 31  1  0
 26 27  1  0
 27 28  1  0
 27 29  2  0
 29 30  1  0
 30 31  2  0
 31 32  1  0
 33 32  1  6
 33 34  2  0
 33 35  2  0
 37 38  1  0
 38 39  2  0
 39 40  1  0
 40 41  2  0
M  CHG  1  15   1
M  END
