
     RDKit          3D

 41 45  0  0  0  0  0  0  0  0999 V2000
   -8.5020   -1.6750    3.2780 O   0  0  0  0  0  0  0  0  0  0  0  0
   -8.6300   -1.0030    2.2360 C   0  0  0  0  0  0  0  0  0  0  0  0
   -9.8620   -0.5310    1.8260 O   0  0  0  0  0  0  0  0  0  0  0  0
   -7.4680   -0.6940    1.4100 C   0  0  0  0  0  0  0  0  0  0  0  0
   -6.1620   -1.0940    1.6810 C   0  0  0  0  0  0  0  0  0  0  0  0
   -5.3030   -0.6300    0.6940 C   0  0  0  0  0  0  0  0  0  0  0  0
   -3.8700   -0.8790    0.6860 C   0  0  0  0  0  0  0  0  0  0  0  0
   -3.0060   -0.4290   -0.2770 C   0  0  0  0  0  0  0  0  0  0  0  0
   -1.6270   -0.7120   -0.2170 C   0  0  0  0  0  0  0  0  0  0  0  0
   -1.0680   -1.4460    0.7950 C   0  0  0  0  0  0  0  0  0  0  0  0
    0.3820   -1.7520    0.8670 C   0  0  0  0  0  0  0  0  0  0  0  0
    1.1440   -1.3170   -0.2590 N   0  0  0  0  0  0  0  0  0  0  0  0
    1.5530    0.0670   -0.1620 C   0  0  1  0  0  0  0  0  0  0  0  0
    0.8300    0.8540    1.3040 S   0  0  0  0  0  0  0  0  0  0  0  0
    3.0200    0.1500   -0.0920 C   0  0  0  0  0  0  0  0  0  0  0  0
    3.7220   -0.6910    0.7250 C   0  0  0  0  0  0  0  0  0  0  0  0
    5.1170   -0.6140    0.7910 C   0  0  0  0  0  0  0  0  0  0  0  0
    5.8010    0.3060    0.0370 C   0  0  0  0  0  0  0  0  0  0  0  0
    7.2700    0.4060    0.0870 C   0  0  0  0  0  0  0  0  0  0  0  0
    8.0310    1.2970   -0.6320 C   0  0  0  0  0  0  0  0  0  0  0  0
    9.3500    1.0690   -0.3050 C   0  0  0  0  0  0  0  0  0  0  0  0
    9.3330    0.0270    0.6180 C   0  0  0  0  0  0  0  0  0  0  0  0
   10.5410   -0.5220    1.2210 C   0  0  0  0  0  0  0  0  0  0  0  0
   10.4180   -1.4630    2.0450 O   0  0  0  0  0  0  0  0  0  0  0  0
   11.8010   -0.0450    0.9160 O   0  0  0  0  0  0  0  0  0  0  0  0
    8.0880   -0.3160    0.8050 O   0  0  0  0  0  0  0  0  0  0  0  0
    5.0810    1.1480   -0.7830 C   0  0  0  0  0  0  0  0  0  0  0  0
    3.6880    1.0730   -0.8510 C   0  0  0  0  0  0  0  0  0  0  0  0
    2.7990    2.1610   -1.9050 Cl  0  0  0  0  0  0  0  0  0  0  0  0
   -1.9410   -1.8970    1.7620 C   0  0  0  0  0  0  0  0  0  0  0  0
   -3.2870   -1.6280    1.7160 C   0  0  0  0  0  0  0  0  0  0  0  0
   -6.1000    0.0330   -0.1420 N   0  0  0  0  0  0  0  0  0  0  0  0
   -5.7600    0.7100   -1.3220 C   0  0  0  0  0  0  0  0  0  0  0  0
   -5.4340    2.0410   -1.2800 C   0  0  0  0  0  0  0  0  0  0  0  0
   -5.1300    2.6960   -2.4550 C   0  0  0  0  0  0  0  0  0  0  0  0
   -5.1490    2.0370   -3.6610 C   0  0  0  0  0  0  0  0  0  0  0  0
   -4.7640    2.8540   -5.1720 Cl  0  0  0  0  0  0  0  0  0  0  0  0
   -5.4760    0.7080   -3.6830 C   0  0  0  0  0  0  0  0  0  0  0  0
   -5.4950   -0.1270   -5.2450 Cl  0  0  0  0  0  0  0  0  0  0  0  0
   -5.7810    0.0420   -2.5230 C   0  0  0  0  0  0  0  0  0  0  0  0
   -7.3790   -0.0060    0.2830 N   0  0  0  0  0  0  0  0  0  0  0  0
  1  2  2  0
  2  3  1  0
  2  4  1  0
  4  5  1  0
  4 41  2  0
  5  6  2  0
  6  7  1  0
  6 32  1  0
  7  8  2  0
  7 31  1  0
  8  9  1  0
  9 10  2  0
 10 11  1  0
 10 30  1  0
 11 12  1  0
 12 13  1  0
 13 14  1  1
 13 15  1  0
 15 16  2  0
 15 28  1  0
 16 17  1  0
 17 18  2  0
 18 19  1  0
 18 27  1  0
 19 20  2  0
 19 26  1  0
 20 21  1  0
 21 22  2  0
 22 23  1  0
 22 26  1  0
 23 24  2  0
 23 25  1  0
 27 28  2  0
 28 29  1  0
 30 31  2  0
 32 33  1  0
 32 41  1  0
 33 34  2  0
 33 40  1  0
 34 35  1  0
 35 36  2  0
 36 37  1  0
 36 38  1  0
 38 39  1  0
 38 40  2  0
M  CHG  1  12   1
M  END
