
     RDKit          3D

 41 45  0  0  0  0  0  0  0  0999 V2000
   -1.4740    1.2910    3.0610 N   0  0  0  0  0  0  0  0  0  0  0  0
   -1.3570    0.4970    1.8490 C   0  0  0  0  0  0  0  0  0  0  0  0
   -1.3300   -0.7360    1.9270 O   0  0  0  0  0  0  0  0  0  0  0  0
   -1.2760    1.2250    0.5950 C   0  0  0  0  0  0  0  0  0  0  0  0
   -1.1540    0.5500   -0.6800 C   0  0  0  0  0  0  0  0  0  0  0  0
   -1.0810   -0.6340   -0.9240 N   0  0  0  0  0  0  0  0  0  0  0  0
   -1.0490   -1.9190   -0.5230 C   0  0  0  0  0  0  0  0  0  0  0  0
    0.0680   -2.5640   -0.2570 C   0  0  0  0  0  0  0  0  0  0  0  0
    1.3350   -1.8470   -0.4080 C   0  0  0  0  0  0  0  0  0  0  0  0
    2.3390   -2.0070    0.5430 C   0  0  0  0  0  0  0  0  0  0  0  0
    3.5190   -1.3410    0.3820 C   0  0  0  0  0  0  0  0  0  0  0  0
    3.8090   -0.5010   -0.6720 C   0  0  0  0  0  0  0  0  0  0  0  0
    5.3240    0.3440   -0.8530 S   0  0  2  0  0  0  0  0  0  0  0  0
    5.7360    0.4400   -2.2940 O   0  0  0  0  0  0  0  0  0  0  0  0
    6.3750   -0.4530   -0.1340 O   0  0  0  0  0  0  0  0  0  0  0  0
    5.1730    1.9550   -0.1160 C   0  0  1  0  0  0  0  0  0  0  0  0
    4.8480    1.7880    1.3330 C   0  0  0  0  0  0  0  0  0  0  0  0
    5.7530    2.6540    2.1860 C   0  0  0  0  0  0  0  0  0  0  0  0
    7.2120    2.3570    1.9160 C   0  0  0  0  0  0  0  0  0  0  0  0
    7.5230    2.3450    0.5170 N   0  0  0  0  0  0  0  0  0  0  0  0
    6.4280    2.7760   -0.3270 C   0  0  0  0  0  0  0  0  0  0  0  0
    2.7840   -0.3610   -1.6100 C   0  0  0  0  0  0  0  0  0  0  0  0
    1.5890   -1.0190   -1.4710 C   0  0  0  0  0  0  0  0  0  0  0  0
   -2.3110   -2.6870   -0.3810 C   0  0  0  0  0  0  0  0  0  0  0  0
   -2.2450   -3.8840   -0.0230 O   0  0  0  0  0  0  0  0  0  0  0  0
   -3.5570   -2.0860   -0.6440 N   0  0  0  0  0  0  0  0  0  0  0  0
   -4.8040   -2.7590   -0.5300 C   0  0  0  0  0  0  0  0  0  0  0  0
   -5.1630   -4.0200   -0.1780 C   0  0  0  0  0  0  0  0  0  0  0  0
   -6.4790   -4.3410   -0.1750 C   0  0  0  0  0  0  0  0  0  0  0  0
   -7.3920   -3.4360   -0.5100 C   0  0  0  0  0  0  0  0  0  0  0  0
   -6.3780   -1.9670   -0.8780 S   0  0  0  0  0  0  0  0  0  0  0  0
   -8.7830   -3.9090   -0.4640 C   0  0  0  0  0  0  0  0  0  0  0  0
   -8.6700   -5.1580    0.3430 C   0  0  0  0  0  0  0  0  0  0  0  0
   -7.2680   -5.6020    0.1420 C   0  0  0  0  0  0  0  0  0  0  0  0
   -1.3470    2.5350    0.6510 C   0  0  0  0  0  0  0  0  0  0  0  0
   -1.2800    3.4250   -0.4740 C   0  0  0  0  0  0  0  0  0  0  0  0
   -0.2820    3.4210   -1.4170 C   0  0  0  0  0  0  0  0  0  0  0  0
   -0.2700    4.2870   -2.5060 C   0  0  0  0  0  0  0  0  0  0  0  0
   -1.3160    5.1730   -2.6100 C   0  0  0  0  0  0  0  0  0  0  0  0
   -2.2830    5.1710   -1.6880 N   0  0  0  0  0  0  0  0  0  0  0  0
   -2.3050    4.3510   -0.6480 C   0  0  0  0  0  0  0  0  0  0  0  0
  1  2  1  0
  2  3  2  0
  2  4  1  0
  4  5  1  0
  4 35  2  3
  5  6  2  3
  6  7  1  0
  7  8  2  3
  7 24  1  0
  8  9  1  0
  9 10  2  0
  9 23  1  0
 10 11  1  0
 11 12  2  0
 13 12  1  6
 12 22  1  0
 13 14  2  0
 13 15  2  0
 13 16  1  0
 16 17  1  1
 16 21  1  0
 17 18  1  0
 18 19  1  0
 19 20  1  0
 20 21  1  0
 22 23  2  0
 24 25  2  0
 24 26  1  0
 26 27  1  0
 27 28  2  0
 27 31  1  0
 28 29  1  0
 29 30  2  0
 29 34  1  0
 30 31  1  0
 30 32  1  0
 32 33  1  0
 33 34  1  0
 35 36  1  0
 36 37  2  0
 36 41  1  0
 37 38  1  0
 38 39  2  0
 39 40  1  0
 40 41  2  0
M  CHG  1  20   1
M  END
