
     RDKit          3D

 31 32  0  0  0  0  0  0  0  0999 V2000
   -2.4930    2.7500    4.5210 C   0  0  0  0  0  0  0  0  0  0  0  0
   -3.4100    1.5690    4.2310 C   0  0  0  0  0  0  0  0  0  0  0  0
   -3.4090    1.2210    2.4720 S   0  0  0  0  0  0  0  0  0  0  0  0
   -4.0060    2.3900    1.7350 O   0  0  0  0  0  0  0  0  0  0  0  0
   -1.8330    0.8230    1.8640 C   0  0  0  0  0  0  0  0  0  0  0  0
   -0.7660    1.7360    2.2160 N   0  0  0  0  0  0  0  0  0  0  0  0
   -1.5110   -0.2080    1.0550 C   0  0  0  0  0  0  0  0  0  0  0  0
   -0.1060   -0.2720    0.7150 C   0  0  0  0  0  0  0  0  0  0  0  0
    0.7000    0.5470    1.3230 O   0  0  0  0  0  0  0  0  0  0  0  0
    0.5810   -1.0650   -0.1840 N   0  0  0  0  0  0  0  0  0  0  0  0
    2.0460   -1.0090   -0.3890 C   0  0  1  0  0  0  0  0  0  0  0  0
    2.5230   -2.3790   -0.6280 C   0  0  0  0  0  0  0  0  0  0  0  0
    1.9540   -3.0490   -1.8240 C   0  0  0  0  0  0  0  0  0  0  0  0
    2.2920   -4.4390   -2.0800 N   0  0  0  0  0  0  0  0  0  0  0  0
    1.1910   -2.5460   -2.6670 O   0  0  0  0  0  0  0  0  0  0  0  0
    2.4690    0.1350   -1.1100 C   0  0  0  0  0  0  0  0  0  0  0  0
    1.6030    1.1080   -1.1910 O   0  0  0  0  0  0  0  0  0  0  0  0
    3.6740    0.3890   -1.7510 N   0  0  0  0  0  0  0  0  0  0  0  0
    4.6930   -0.6490   -1.8650 C   0  0  0  0  0  0  0  0  0  0  0  0
    4.0580    1.6890   -2.2800 C   0  0  1  0  0  0  0  0  0  0  0  0
    3.0590    2.4770   -2.9950 C   0  0  0  0  0  0  0  0  0  0  0  0
    3.8250    3.7660   -3.3900 C   0  0  0  0  0  0  0  0  0  0  0  0
    4.5670    4.1480   -1.7470 S   0  0  0  0  0  0  0  0  0  0  0  0
    4.3100    2.5220   -0.9760 C   0  0  0  0  0  0  0  0  0  0  0  0
   -2.5490   -1.1420    0.7150 C   0  0  0  0  0  0  0  0  0  0  0  0
   -2.4760   -2.1710   -0.0760 N   0  0  0  0  0  0  0  0  0  0  0  0
   -3.5730   -3.0390   -0.3830 C   0  0  0  0  0  0  0  0  0  0  0  0
   -4.7510   -2.8230    0.1110 C   0  0  0  0  0  0  0  0  0  0  0  0
   -4.9960   -1.6570    0.9950 C   0  0  2  0  0  0  0  0  0  0  0  0
   -5.6650   -0.5810    0.1570 C   0  0  0  0  0  0  0  0  0  0  0  0
   -3.7660   -1.1670    1.5210 N   0  0  0  0  0  0  0  0  0  0  0  0
  1  2  1  0
  3  2  1  1
  3  4  2  0
  3  5  1  0
  5  6  1  0
  5  7  2  3
  7  8  1  0
  7 25  1  0
  8  9  2  0
  8 10  1  0
 10 11  1  0
 11 12  1  6
 11 16  1  0
 12 13  1  0
 13 14  1  0
 13 15  2  0
 16 17  2  0
 16 18  1  0
 18 19  1  0
 20 18  1  1
 20 21  1  0
 20 24  1  0
 21 22  1  0
 22 23  1  0
 23 24  1  0
 25 26  2  0
 25 31  1  0
 26 27  1  0
 27 28  2  0
 28 29  1  0
 29 30  1  6
 29 31  1  0
M  CHG  1  26   1
M  END
