
     RDKit          3D

 30 32  0  0  0  0  0  0  0  0999 V2000
    8.7710   -1.5430   -0.1950 C   0  0  0  0  0  0  0  0  0  0  0  0
    7.7180   -1.7630   -0.3800 O   0  0  0  0  0  0  0  0  0  0  0  0
    6.3750   -2.1500   -0.6840 C   0  0  0  0  0  0  0  0  0  0  0  0
    5.5720   -3.0010   -1.2820 C   0  0  0  0  0  0  0  0  0  0  0  0
    4.1590   -3.0150   -1.2710 C   0  0  0  0  0  0  0  0  0  0  0  0
    3.5210   -1.8260   -0.4090 C   0  0  0  0  0  0  0  0  0  0  0  0
    2.1750   -1.6550   -0.3020 N   0  0  0  0  0  0  0  0  0  0  0  0
    0.9470   -2.2080   -0.1130 C   0  0  0  0  0  0  0  0  0  0  0  0
    0.8080   -3.3830    0.1420 O   0  0  0  0  0  0  0  0  0  0  0  0
   -0.2130   -1.2200   -0.2550 N   0  0  0  0  0  0  0  0  0  0  0  0
   -0.0660    0.1680   -0.5520 C   0  0  0  0  0  0  0  0  0  0  0  0
    0.0230    0.6610    0.8990 C   0  0  0  0  0  0  0  0  0  0  0  0
   -1.3070    0.4240    1.5610 C   0  0  0  0  0  0  0  0  0  0  0  0
   -2.1560   -0.7080    1.2290 C   0  0  1  0  0  0  0  0  0  0  0  0
   -2.6880   -1.5610    2.1590 C   0  0  0  0  0  0  0  0  0  0  0  0
   -3.2060   -2.3730    3.0520 N   0  0  0  0  0  0  0  0  0  0  0  0
   -3.3500   -0.1260    0.3240 C   0  0  2  0  0  0  0  0  0  0  0  0
   -2.8850    0.2790   -0.8680 O   0  0  0  0  0  0  0  0  0  0  0  0
   -4.1210    0.8430    1.1760 C   0  0  0  0  0  0  0  0  0  0  0  0
   -4.9740    1.6930    0.3730 C   0  0  0  0  0  0  0  0  0  0  0  0
   -5.1390    1.3860   -0.8950 C   0  0  0  0  0  0  0  0  0  0  0  0
   -5.8570    1.9730   -2.0330 C   0  0  0  0  0  0  0  0  0  0  0  0
   -6.7980    3.1770   -1.5470 C   0  0  0  0  0  0  0  0  0  0  0  0
   -6.4500    3.3470   -0.0940 C   0  0  0  0  0  0  0  0  0  0  0  0
   -5.7630    2.8490    0.7630 C   0  0  0  0  0  0  0  0  0  0  0  0
   -1.4500   -1.6780    0.1900 C   0  0  0  0  0  0  0  0  0  0  0  0
    4.3860   -1.0590    0.1100 C   0  0  0  0  0  0  0  0  0  0  0  0
    5.7040   -1.1130    0.0420 C   0  0  0  0  0  0  0  0  0  0  0  0
    6.5210   -0.0200    0.6740 C   0  0  0  0  0  0  0  0  0  0  0  0
    7.3880   -0.5010    2.1110 Cl  0  0  0  0  0  0  0  0  0  0  0  0
  1  2  1  0
  2  3  1  0
  3  4  2  0
  3 28  1  0
  4  5  1  0
  5  6  2  0
  6  7  1  0
  6 27  1  0
  7  8  1  0
  8  9  2  0
  8 10  1  0
 10 11  1  0
 10 26  1  0
 11 12  1  0
 12 13  1  0
 13 14  1  0
 14 15  1  1
 14 17  1  0
 14 26  1  0
 15 16  3  0
 17 18  1  6
 17 19  1  0
 19 20  1  0
 20 21  2  0
 20 25  1  0
 21 22  1  0
 22 23  1  0
 23 24  1  0
 24 25  2  0
 27 28  2  0
 28 29  1  0
 29 30  1  0
M  END
