
     RDKit          3D

 26 29  0  0  0  0  0  0  0  0999 V2000
    3.7710    2.0700   -1.3680 C   0  0  0  0  0  0  0  0  0  0  0  0
    3.8340    0.6360   -0.9610 C   0  0  2  0  0  0  0  0  0  0  0  0
    2.6670   -0.1240   -1.1790 N   0  0  0  0  0  0  0  0  0  0  0  0
    1.4610    0.0620   -0.8710 C   0  0  0  0  0  0  0  0  0  0  0  0
    0.5870   -0.9060   -1.2520 N   0  0  0  0  0  0  0  0  0  0  0  0
   -0.7220   -0.7930   -0.9660 C   0  0  0  0  0  0  0  0  0  0  0  0
   -1.6530   -1.7440   -1.3290 C   0  0  0  0  0  0  0  0  0  0  0  0
   -2.9340   -1.5570   -1.0070 N   0  0  0  0  0  0  0  0  0  0  0  0
   -3.3820   -0.4980   -0.3500 N   0  0  0  0  0  0  0  0  0  0  0  0
   -4.7730   -0.4220   -0.0710 C   0  0  0  0  0  0  0  0  0  0  0  0
   -5.4190   -1.5020    0.5100 C   0  0  0  0  0  0  0  0  0  0  0  0
   -6.7670   -1.4870    0.8050 C   0  0  0  0  0  0  0  0  0  0  0  0
   -7.5130   -0.3640    0.5180 C   0  0  0  0  0  0  0  0  0  0  0  0
   -8.8970   -0.3520    0.8210 N   0  0  0  0  0  0  0  0  0  0  0  0
   -6.8650    0.7100   -0.0610 C   0  0  0  0  0  0  0  0  0  0  0  0
   -5.5150    0.6880   -0.3540 C   0  0  0  0  0  0  0  0  0  0  0  0
   -2.5590    0.4920    0.0520 C   0  0  0  0  0  0  0  0  0  0  0  0
   -1.2140    0.3750   -0.2430 C   0  0  0  0  0  0  0  0  0  0  0  0
   -0.2840    1.3160    0.1140 C   0  0  0  0  0  0  0  0  0  0  0  0
   -0.6740    2.3290    0.7360 O   0  0  0  0  0  0  0  0  0  0  0  0
    0.9980    1.1140   -0.2150 N   0  0  0  0  0  0  0  0  0  0  0  0
    4.3020    0.4180    0.4520 C   0  0  1  0  0  0  0  0  0  0  0  0
    4.3130   -1.0740    0.7180 C   0  0  0  0  0  0  0  0  0  0  0  0
    5.7340   -1.5300    0.4630 C   0  0  0  0  0  0  0  0  0  0  0  0
    6.5160   -0.2950    0.0650 C   0  0  0  0  0  0  0  0  0  0  0  0
    5.7230    0.7980    0.6930 C   0  0  0  0  0  0  0  0  0  0  0  0
  2  1  1  1
  2  3  1  0
  2 22  1  0
  3  4  2  3
  4  5  1  0
  4 21  1  0
  5  6  2  0
  6  7  1  0
  6 18  1  0
  7  8  2  0
  8  9  1  0
  9 10  1  0
  9 17  1  0
 10 11  2  0
 10 16  1  0
 11 12  1  0
 12 13  2  0
 13 14  1  0
 13 15  1  0
 15 16  2  0
 17 18  2  0
 18 19  1  0
 19 20  2  0
 19 21  1  0
 22 23  1  6
 22 26  1  0
 23 24  1  0
 24 25  1  0
 25 26  1  0
M  END
