
     RDKit          3D

 26 28  0  0  0  0  0  0  0  0999 V2000
    4.8610   -1.8000   -1.3260 C   0  0  0  0  0  0  0  0  0  0  0  0
    3.8070   -0.8270   -0.9660 C   0  0  0  0  0  0  0  0  0  0  0  0
    2.5380   -1.1120   -0.6660 C   0  0  0  0  0  0  0  0  0  0  0  0
    1.8910    0.1570   -0.3840 C   0  0  0  0  0  0  0  0  0  0  0  0
    0.6040    0.4050   -0.0250 C   0  0  0  0  0  0  0  0  0  0  0  0
    0.2390    1.7580    0.1910 N   0  0  0  0  0  0  0  0  0  0  0  0
   -0.9240    2.4710   -0.1500 C   0  0  0  0  0  0  0  0  0  0  0  0
   -0.8520    3.7660   -0.3230 O   0  0  0  0  0  0  0  0  0  0  0  0
   -2.2960    1.9490   -0.3510 C   0  0  0  0  0  0  0  0  0  0  0  0
   -2.4470    0.9000   -1.2680 N   0  0  0  0  0  0  0  0  0  0  0  0
   -3.0690   -0.1670   -1.3710 C   0  0  0  0  0  0  0  0  0  0  0  0
   -2.8730   -0.9880   -2.6480 C   0  0  0  0  0  0  0  0  0  0  0  0
   -3.9610   -0.6910   -0.3590 C   0  0  0  0  0  0  0  0  0  0  0  0
   -3.9270   -0.7640    0.8650 N   0  0  0  0  0  0  0  0  0  0  0  0
   -3.2330   -0.5000    2.0090 C   0  0  0  0  0  0  0  0  0  0  0  0
   -3.9720   -0.1350    3.1430 C   0  0  0  0  0  0  0  0  0  0  0  0
   -3.4090    0.1350    4.3260 N   0  0  0  0  0  0  0  0  0  0  0  0
   -2.0870    0.0630    4.4700 C   0  0  0  0  0  0  0  0  0  0  0  0
   -1.3170   -0.2910    3.3890 C   0  0  0  0  0  0  0  0  0  0  0  0
   -1.8230   -0.5790    2.1490 C   0  0  0  0  0  0  0  0  0  0  0  0
   -1.1600   -0.9390    1.0330 N   0  0  0  0  0  0  0  0  0  0  0  0
   -0.3100   -0.7480    0.1440 C   0  0  0  0  0  0  0  0  0  0  0  0
   -0.2060   -1.7750   -0.8440 N   0  0  0  0  0  0  0  0  0  0  0  0
    2.8890    1.2010   -0.5450 C   0  0  0  0  0  0  0  0  0  0  0  0
    4.0220    0.6220   -0.8900 C   0  0  0  0  0  0  0  0  0  0  0  0
    5.3190    1.3320   -1.1580 C   0  0  0  0  0  0  0  0  0  0  0  0
  1  2  1  0
  2  3  2  0
  2 25  1  0
  3  4  1  0
  4  5  2  3
  4 24  1  0
  5  6  1  0
  5 22  1  0
  6  7  1  0
  7  8  2  0
  7  9  1  0
  9 10  1  0
 10 11  2  0
 11 12  1  0
 11 13  1  0
 13 14  2  0
 14 15  1  0
 15 16  2  0
 15 20  1  0
 16 17  1  0
 17 18  2  0
 18 19  1  0
 19 20  2  0
 20 21  1  0
 21 22  2  0
 22 23  1  0
 24 25  2  0
 25 26  1  0
M  END
