
     RDKit          3D

 26 29  0  0  0  0  0  0  0  0999 V2000
   -5.8710    1.9020    0.4140 C   0  0  0  0  0  0  0  0  0  0  0  0
   -4.6860    1.0250    0.1410 C   0  0  0  0  0  0  0  0  0  0  0  0
   -4.7690   -0.3490    0.2440 C   0  0  0  0  0  0  0  0  0  0  0  0
   -3.6440   -1.1030   -0.0200 C   0  0  0  0  0  0  0  0  0  0  0  0
   -3.6940   -2.5930    0.0810 C   0  0  0  0  0  0  0  0  0  0  0  0
   -2.4320   -0.5050   -0.3870 C   0  0  0  0  0  0  0  0  0  0  0  0
   -1.2300   -1.3340   -0.6700 C   0  0  0  0  0  0  0  0  0  0  0  0
   -2.3470    0.8660   -0.4910 C   0  0  0  0  0  0  0  0  0  0  0  0
   -1.1040    1.5400   -0.8670 C   0  0  1  0  0  0  0  0  0  0  0  0
   -1.2450    3.0310   -1.0030 C   0  0  0  0  0  0  0  0  0  0  0  0
   -0.0260    1.2680    0.0960 N   0  0  0  0  0  0  0  0  0  0  0  0
    1.1640    0.6360   -0.2790 N   0  0  0  0  0  0  0  0  0  0  0  0
    2.1330    0.3830    0.5350 C   0  0  0  0  0  0  0  0  0  0  0  0
    3.3640   -0.2840    0.0900 C   0  0  0  0  0  0  0  0  0  0  0  0
    3.9660   -0.2650   -1.1120 N   0  0  0  0  0  0  0  0  0  0  0  0
    5.0830   -1.0230   -1.0790 C   0  0  0  0  0  0  0  0  0  0  0  0
    5.1830   -1.5310    0.1830 C   0  0  0  0  0  0  0  0  0  0  0  0
    4.1170   -1.0580    0.8640 N   0  0  0  0  0  0  0  0  0  0  0  0
    6.2600   -2.2900    0.2950 C   0  0  0  0  0  0  0  0  0  0  0  0
    6.9570   -2.2960   -1.0150 C   0  0  0  0  0  0  0  0  0  0  0  0
    6.0850   -1.4250   -1.8410 C   0  0  0  0  0  0  0  0  0  0  0  0
    1.9500    0.7820    1.8890 N   0  0  0  0  0  0  0  0  0  0  0  0
    0.8000    1.4190    2.3650 N   0  0  0  0  0  0  0  0  0  0  0  0
   -0.2520    1.6840    1.4390 C   0  0  0  0  0  0  0  0  0  0  0  0
   -1.3050    2.2560    1.8240 O   0  0  0  0  0  0  0  0  0  0  0  0
   -3.4850    1.6030   -0.2220 C   0  0  0  0  0  0  0  0  0  0  0  0
  1  2  1  0
  2  3  2  0
  2 26  1  0
  3  4  1  0
  4  5  1  0
  4  6  2  0
  6  7  1  0
  6  8  1  0
  8  9  1  0
  8 26  2  0
  9 10  1  1
  9 11  1  0
 11 12  1  0
 11 24  1  0
 12 13  2  0
 13 14  1  0
 13 22  1  0
 14 15  2  0
 14 18  1  0
 15 16  1  0
 16 17  1  0
 16 21  2  0
 17 18  1  0
 17 19  2  0
 19 20  1  0
 20 21  1  0
 22 23  1  0
 23 24  1  0
 24 25  2  0
M  END
