
     RDKit          3D

 25 27  0  0  0  0  0  0  0  0999 V2000
   -5.2930   -1.9310    1.9800 C   0  0  0  0  0  0  0  0  0  0  0  0
   -5.1470   -2.2120    0.5210 C   0  0  0  0  0  0  0  0  0  0  0  0
   -4.2270   -1.3390   -0.1480 N   0  0  0  0  0  0  0  0  0  0  0  0
   -2.8550   -1.2520    0.2430 C   0  0  0  0  0  0  0  0  0  0  0  0
   -2.3190   -1.9540    1.2540 N   0  0  0  0  0  0  0  0  0  0  0  0
   -1.0130   -1.6440    1.3600 C   0  0  0  0  0  0  0  0  0  0  0  0
    0.0050   -2.0470    2.1950 C   0  0  0  0  0  0  0  0  0  0  0  0
    1.2430   -1.4890    1.9890 C   0  0  0  0  0  0  0  0  0  0  0  0
    1.5110   -0.5660    1.0080 C   0  0  0  0  0  0  0  0  0  0  0  0
    2.8410   -0.0090    0.8400 C   0  0  0  0  0  0  0  0  0  0  0  0
    3.9510    0.4680    0.6800 C   0  0  0  0  0  0  0  0  0  0  0  0
    5.2930    1.0220    0.4900 C   0  0  1  0  0  0  0  0  0  0  0  0
    6.3770    0.0200    0.8240 C   0  0  0  0  0  0  0  0  0  0  0  0
    5.5110    1.4420   -0.9660 C   0  0  0  0  0  0  0  0  0  0  0  0
    5.3790    2.1660    1.2550 O   0  0  0  0  0  0  0  0  0  0  0  0
    0.4980   -0.1680    0.1790 C   0  0  0  0  0  0  0  0  0  0  0  0
   -0.7560   -0.7040    0.3540 C   0  0  0  0  0  0  0  0  0  0  0  0
   -1.9060   -0.4770   -0.3220 N   0  0  0  0  0  0  0  0  0  0  0  0
   -2.0720    0.4100   -1.4150 C   0  0  0  0  0  0  0  0  0  0  0  0
   -2.3610   -0.0670   -2.6580 N   0  0  0  0  0  0  0  0  0  0  0  0
   -2.5220    0.7400   -3.6990 C   0  0  0  0  0  0  0  0  0  0  0  0
   -2.4110    2.0660   -3.5920 N   0  0  0  0  0  0  0  0  0  0  0  0
   -2.1270    2.5720   -2.3800 C   0  0  0  0  0  0  0  0  0  0  0  0
   -2.0060    3.9760   -2.2480 N   0  0  0  0  0  0  0  0  0  0  0  0
   -1.9640    1.7450   -1.3230 N   0  0  0  0  0  0  0  0  0  0  0  0
  1  2  1  0
  2  3  1  0
  3  4  1  0
  4  5  2  0
  4 18  1  0
  5  6  1  0
  6  7  2  0
  6 17  1  0
  7  8  1  0
  8  9  2  0
  9 10  1  0
  9 16  1  0
 10 11  3  0
 11 12  1  0
 12 13  1  1
 12 14  1  0
 12 15  1  0
 16 17  2  0
 17 18  1  0
 18 19  1  0
 19 20  2  0
 19 25  1  0
 20 21  1  0
 21 22  2  0
 22 23  1  0
 23 24  1  0
 23 25  2  0
M  END
