
     RDKit          3D

 10 10  0  0  0  0  0  0  0  0999 V2000
   -3.0290    0.8200   -0.2380 N   0  0  0  0  0  0  0  0  0  0  0  0
   -2.0070   -0.0720   -0.6490 C   0  0  0  0  0  0  0  0  0  0  0  0
   -2.2680   -0.8780   -1.5740 O   0  0  0  0  0  0  0  0  0  0  0  0
   -0.7170   -0.0060    0.0210 C   0  0  0  0  0  0  0  0  0  0  0  0
   -0.3480    0.8380    1.0340 C   0  0  0  0  0  0  0  0  0  0  0  0
    0.9300    0.5570    1.3520 N   0  0  0  0  0  0  0  0  0  0  0  0
    1.3400   -0.4480    0.5420 C   0  0  0  0  0  0  0  0  0  0  0  0
    2.7130   -1.0580    0.5760 C   0  0  0  0  0  0  0  0  0  0  0  0
    3.7360   -0.1150   -0.5730 S   0  0  0  0  0  0  0  0  0  0  0  0
    0.3480   -0.8100   -0.2830 N   0  0  0  0  0  0  0  0  0  0  0  0
  1  2  1  0
  2  3  2  0
  2  4  1  0
  4  5  2  0
  4 10  1  0
  5  6  1  0
  6  7  2  0
  7  8  1  0
  7 10  1  0
  8  9  1  0
M  CHG  1   1   1
M  END
