
     RDKit          3D

 10 10  0  0  0  0  0  0  0  0999 V2000
    2.8370   -0.1170   -0.5450 N   0  0  0  0  0  0  0  0  0  0  0  0
    1.8620   -0.0610    0.4620 C   0  0  0  0  0  0  0  0  0  0  0  0
    2.2990    0.1920    1.9930 S   0  0  0  0  0  0  0  0  0  0  0  0
    0.4660   -0.2290    0.1440 C   0  0  0  0  0  0  0  0  0  0  0  0
   -0.0050   -1.3640   -0.4180 N   0  0  0  0  0  0  0  0  0  0  0  0
   -1.3030   -1.5400   -0.7220 C   0  0  0  0  0  0  0  0  0  0  0  0
   -2.2350   -0.5550   -0.4710 C   0  0  0  0  0  0  0  0  0  0  0  0
   -1.7870    0.5820    0.0880 N   0  0  0  0  0  0  0  0  0  0  0  0
   -0.4890    0.7550    0.3910 C   0  0  0  0  0  0  0  0  0  0  0  0
   -0.0320    1.9290    0.9670 O   0  0  0  0  0  0  0  0  0  0  0  0
  1  2  1  0
  2  3  2  0
  2  4  1  0
  4  5  2  0
  4  9  1  0
  5  6  1  0
  6  7  2  0
  7  8  1  0
  8  9  2  0
  9 10  1  0
M  CHG  1   8   1
M  END
