
     RDKit          3D

  9  9  0  0  0  0  0  0  0  0999 V2000
   -2.3740   -0.5370    0.2340 C   0  0  0  0  0  0  0  0  0  0  0  0
   -1.0280   -0.0260    0.0990 N   0  0  0  0  0  0  0  0  0  0  0  0
   -0.8510    1.3050    0.0620 C   0  0  0  0  0  0  0  0  0  0  0  0
    0.4230    1.8290   -0.0670 C   0  0  0  0  0  0  0  0  0  0  0  0
    1.4970    0.9960   -0.1560 N   0  0  0  0  0  0  0  0  0  0  0  0
    1.3400   -0.3500   -0.1210 C   0  0  0  0  0  0  0  0  0  0  0  0
    2.4330   -1.2510   -0.2110 N   0  0  0  0  0  0  0  0  0  0  0  0
    0.0560   -0.8400    0.0080 C   0  0  0  0  0  0  0  0  0  0  0  0
   -0.1960   -2.0780    0.0510 O   0  0  0  0  0  0  0  0  0  0  0  0
  1  2  1  0
  2  3  1  0
  2  8  1  0
  3  4  2  0
  4  5  1  0
  5  6  2  0
  6  7  1  0
  6  8  1  0
  8  9  2  0
M  CHG  1   5   1
M  END
