
     RDKit          3D

 10 10  0  0  0  0  0  0  0  0999 V2000
   -3.2960   -0.7500   -0.0960 N   0  0  0  0  0  0  0  0  0  0  0  0
   -2.3670   -0.0110    0.7720 C   0  0  0  0  0  0  0  0  0  0  0  0
   -1.0720    0.1920    0.1030 C   0  0  0  0  0  0  0  0  0  0  0  0
    0.0510   -0.6440    0.1310 C   0  0  0  0  0  0  0  0  0  0  0  0
    1.0450   -0.0830   -0.6260 C   0  0  0  0  0  0  0  0  0  0  0  0
    2.6640   -0.7120   -0.9320 S   0  0  0  0  0  0  0  0  0  0  0  0
    3.8720   -0.1570    0.2870 C   0  0  0  0  0  0  0  0  0  0  0  0
    4.0740    1.2270    0.1980 O   0  0  0  0  0  0  0  0  0  0  0  0
    0.5470    1.0590   -1.1020 N   0  0  0  0  0  0  0  0  0  0  0  0
   -0.7020    1.2300   -0.6770 N   0  0  0  0  0  0  0  0  0  0  0  0
  1  2  1  0
  2  3  1  0
  3  4  2  0
  3 10  1  0
  4  5  1  0
  5  6  1  0
  5  9  2  0
  6  7  1  0
  7  8  1  0
  9 10  1  0
M  CHG  1   1   1
M  END
