
     RDKit          3D

 29 31  0  0  0  0  0  0  0  0999 V2000
   -4.2310   -4.0670    0.1420 C   0  0  0  0  0  0  0  0  0  0  0  0
   -4.1730   -2.7340   -0.3280 O   0  0  0  0  0  0  0  0  0  0  0  0
   -3.0070   -1.9900   -0.2370 C   0  0  0  0  0  0  0  0  0  0  0  0
   -1.8560   -2.5550    0.3280 C   0  0  0  0  0  0  0  0  0  0  0  0
   -0.7340   -1.8230    0.4120 C   0  0  0  0  0  0  0  0  0  0  0  0
   -0.7500   -0.5060   -0.0720 C   0  0  0  0  0  0  0  0  0  0  0  0
   -1.8470    0.0720   -0.6310 C   0  0  0  0  0  0  0  0  0  0  0  0
   -1.8120    1.3550   -1.1120 O   0  0  0  0  0  0  0  0  0  0  0  0
   -1.4980    1.6390   -2.4790 C   0  0  0  0  0  0  0  0  0  0  0  0
   -3.0010   -0.6800   -0.7150 C   0  0  0  0  0  0  0  0  0  0  0  0
   -4.1840   -0.2090   -1.2570 O   0  0  0  0  0  0  0  0  0  0  0  0
   -5.1840    0.4450   -0.5110 C   0  0  0  0  0  0  0  0  0  0  0  0
    0.3440    0.4470    0.0120 C   0  0  0  0  0  0  0  0  0  0  0  0
   -0.3390    1.6150    0.2880 C   0  0  0  0  0  0  0  0  0  0  0  0
    0.1560    2.8750    0.0840 C   0  0  0  0  0  0  0  0  0  0  0  0
    1.4690    3.2620   -0.2490 C   0  0  0  0  0  0  0  0  0  0  0  0
    1.7110    4.5910   -0.5160 O   0  0  0  0  0  0  0  0  0  0  0  0
    0.6610    5.5310   -0.4560 C   0  0  0  0  0  0  0  0  0  0  0  0
    2.5960    2.4650   -0.3480 C   0  0  0  0  0  0  0  0  0  0  0  0
    3.7310    3.0050   -0.3740 O   0  0  0  0  0  0  0  0  0  0  0  0
    2.6720    1.0660   -0.4300 C   0  0  0  0  0  0  0  0  0  0  0  0
    1.6910    0.1550   -0.1260 C   0  0  0  0  0  0  0  0  0  0  0  0
    2.3940   -1.1040    0.0170 C   0  0  1  0  0  0  0  0  0  0  0  0
    3.2000   -1.0870    1.2430 N   0  0  0  0  0  0  0  0  0  0  0  0
    4.6110   -1.2400    1.2100 C   0  0  0  0  0  0  0  0  0  0  0  0
    5.4280   -1.2200    2.4770 C   0  0  0  0  0  0  0  0  0  0  0  0
    5.1680   -1.3930    0.0990 O   0  0  0  0  0  0  0  0  0  0  0  0
    1.5440   -2.3350   -0.0620 C   0  0  0  0  0  0  0  0  0  0  0  0
    0.4780   -2.4860    0.9910 C   0  0  0  0  0  0  0  0  0  0  0  0
  1  2  1  0
  2  3  1  0
  3  4  2  0
  3 10  1  0
  4  5  1  0
  5  6  2  0
  5 29  1  0
  6  7  1  0
  6 13  1  0
  7  8  1  0
  7 10  2  0
  8  9  1  0
 10 11  1  0
 11 12  1  0
 13 14  2  0
 13 22  1  0
 14 15  1  0
 15 16  2  0
 16 17  1  0
 16 19  1  0
 17 18  1  0
 19 20  2  0
 19 21  1  0
 21 22  2  0
 22 23  1  0
 23 24  1  1
 23 28  1  0
 24 25  1  0
 25 26  1  0
 25 27  2  0
 28 29  1  0
M  END
