
     RDKit          3D

 31 33  0  0  0  0  0  0  0  0999 V2000
   -5.1980    2.4350   -2.8760 C   0  0  0  0  0  0  0  0  0  0  0  0
   -6.1590    1.8350   -2.3040 C   0  0  0  0  0  0  0  0  0  0  0  0
   -6.1470    1.0800   -1.0690 C   0  0  0  0  0  0  0  0  0  0  0  0
   -7.3160    0.5750   -0.7130 C   0  0  0  0  0  0  0  0  0  0  0  0
   -7.5600   -0.2190    0.4760 C   0  0  0  0  0  0  0  0  0  0  0  0
   -4.9840    0.9290   -0.2680 C   0  0  0  0  0  0  0  0  0  0  0  0
   -4.6650    0.5210    0.9620 C   0  0  0  0  0  0  0  0  0  0  0  0
   -3.3970    0.4300    1.3820 C   0  0  0  0  0  0  0  0  0  0  0  0
   -2.4050    0.7680    0.5190 C   0  0  0  0  0  0  0  0  0  0  0  0
   -0.9830    0.7940    0.6560 C   0  0  0  0  0  0  0  0  0  0  0  0
   -0.4630    1.9690    0.5250 O   0  0  0  0  0  0  0  0  0  0  0  0
   -0.1250   -0.2650    0.9090 N   0  0  0  0  0  0  0  0  0  0  0  0
   -0.5140   -1.5370    0.9280 C   0  0  0  0  0  0  0  0  0  0  0  0
   -1.8760   -2.0240    0.5400 C   0  0  0  0  0  0  0  0  0  0  0  0
    0.3980   -2.5440    1.2690 C   0  0  0  0  0  0  0  0  0  0  0  0
    1.7020   -2.2210    1.5840 C   0  0  0  0  0  0  0  0  0  0  0  0
    2.6850   -3.2730    1.9490 C   0  0  0  0  0  0  0  0  0  0  0  0
    2.1260   -0.9090    1.5670 C   0  0  0  0  0  0  0  0  0  0  0  0
    3.4310   -0.5970    1.8820 O   0  0  0  0  0  0  0  0  0  0  0  0
    4.4490   -0.5410    0.9410 C   0  0  0  0  0  0  0  0  0  0  0  0
    4.1410   -0.7910   -0.2470 O   0  0  0  0  0  0  0  0  0  0  0  0
    5.7980   -0.2250    1.2310 N   0  0  0  0  0  0  0  0  0  0  0  0
    6.8320   -0.1790    0.2070 C   0  0  0  0  0  0  0  0  0  0  0  0
    6.7840    1.0140   -0.6300 C   0  0  0  0  0  0  0  0  0  0  0  0
    7.3930    2.2310   -0.4240 C   0  0  0  0  0  0  0  0  0  0  0  0
    7.0580    3.0520   -1.4880 C   0  0  0  0  0  0  0  0  0  0  0  0
    6.2870    2.3710   -2.2980 O   0  0  0  0  0  0  0  0  0  0  0  0
    6.1030    1.1500   -1.8160 C   0  0  0  0  0  0  0  0  0  0  0  0
    1.1980    0.0250    1.2310 C   0  0  0  0  0  0  0  0  0  0  0  0
    1.5500    1.2280    1.2060 O   0  0  0  0  0  0  0  0  0  0  0  0
   -3.2710    1.2340   -0.9460 S   0  0  0  0  0  0  0  0  0  0  0  0
  1  2  2  0
  2  3  1  0
  3  4  2  3
  3  6  1  0
  4  5  1  0
  6  7  2  0
  6 31  1  0
  7  8  1  0
  8  9  2  0
  9 10  1  0
  9 31  1  0
 10 11  2  0
 10 12  1  0
 12 13  1  0
 12 29  1  0
 13 14  1  0
 13 15  2  0
 15 16  1  0
 16 17  1  0
 16 18  2  0
 18 19  1  0
 18 29  1  0
 19 20  1  0
 20 21  2  0
 20 22  1  0
 22 23  1  0
 23 24  1  0
 24 25  1  0
 24 28  2  0
 25 26  2  0
 26 27  1  0
 27 28  1  0
 29 30  2  0
M  END
