
     RDKit          3D

 30 32  0  0  0  0  0  0  0  0999 V2000
    7.1520    1.0450   -1.9120 C   0  0  0  0  0  0  0  0  0  0  0  0
    6.3070   -0.2250   -1.9840 C   0  0  0  0  0  0  0  0  0  0  0  0
    5.3040   -0.1690   -0.8640 C   0  0  0  0  0  0  0  0  0  0  0  0
    4.0280   -0.1860   -1.0770 C   0  0  0  0  0  0  0  0  0  0  0  0
    2.9790   -0.1370   -0.0800 C   0  0  0  0  0  0  0  0  0  0  0  0
    1.6300   -0.1730   -0.4800 C   0  0  0  0  0  0  0  0  0  0  0  0
    1.3430   -0.2700   -1.9560 C   0  0  0  0  0  0  0  0  0  0  0  0
    0.6730   -0.1270    0.3640 O   0  0  0  0  0  0  0  0  0  0  0  0
    0.8190   -0.0420    1.7040 C   0  0  0  0  0  0  0  0  0  0  0  0
   -0.2070    0.0030    2.5570 C   0  0  0  0  0  0  0  0  0  0  0  0
   -1.6740   -0.0270    2.3710 C   0  0  0  0  0  0  0  0  0  0  0  0
   -2.4280   -0.0010    3.3770 O   0  0  0  0  0  0  0  0  0  0  0  0
   -2.2640   -0.0850    1.0880 N   0  0  0  0  0  0  0  0  0  0  0  0
   -3.6690   -0.1260    0.9010 C   0  0  0  0  0  0  0  0  0  0  0  0
   -4.3330   -0.1610    2.0180 O   0  0  0  0  0  0  0  0  0  0  0  0
   -4.4250   -0.1390   -0.3040 C   0  0  0  0  0  0  0  0  0  0  0  0
   -4.0450    0.3570   -1.5140 C   0  0  0  0  0  0  0  0  0  0  0  0
   -2.7590    1.1230   -1.6540 C   0  0  0  0  0  0  0  0  0  0  0  0
   -4.8400    0.2350   -2.6630 C   0  0  0  0  0  0  0  0  0  0  0  0
   -6.0390   -0.4030   -2.5630 C   0  0  0  0  0  0  0  0  0  0  0  0
   -6.4200   -0.8920   -1.3750 N   0  0  0  0  0  0  0  0  0  0  0  0
   -5.6730   -0.7840   -0.2700 C   0  0  0  0  0  0  0  0  0  0  0  0
   -6.0790   -1.2930    0.9450 O   0  0  0  0  0  0  0  0  0  0  0  0
   -7.3330   -1.9470    1.0030 C   0  0  0  0  0  0  0  0  0  0  0  0
    0.5700    0.1060    4.1450 S   0  0  0  0  0  0  0  0  0  0  0  0
    2.2320    0.0820    3.5300 C   0  0  0  0  0  0  0  0  0  0  0  0
    3.4690    0.1430    4.3720 C   0  0  0  0  0  0  0  0  0  0  0  0
    2.0790   -0.0040    2.1540 C   0  0  0  0  0  0  0  0  0  0  0  0
    3.1760   -0.0510    1.2640 C   0  0  0  0  0  0  0  0  0  0  0  0
    4.3370   -0.0130    1.7280 O   0  0  0  0  0  0  0  0  0  0  0  0
  1  2  1  0
  2  3  1  0
  3  4  2  3
  4  5  1  0
  5  6  2  0
  5 29  1  0
  6  7  1  0
  6  8  1  0
  8  9  1  0
  9 10  2  0
  9 28  1  0
 10 11  1  0
 10 25  1  0
 11 12  2  0
 11 13  1  0
 13 14  1  0
 14 15  2  0
 14 16  1  0
 16 17  2  0
 16 22  1  0
 17 18  1  0
 17 19  1  0
 19 20  2  0
 20 21  1  0
 21 22  2  0
 22 23  1  0
 23 24  1  0
 25 26  1  0
 26 27  1  0
 26 28  2  0
 28 29  1  0
 29 30  2  0
M  END
