
     RDKit          3D

 31 33  0  0  0  0  0  0  0  0999 V2000
   -0.0600    4.8970    3.3010 C   0  0  0  0  0  0  0  0  0  0  0  0
   -0.8940    4.8220    2.1700 O   0  0  0  0  0  0  0  0  0  0  0  0
   -0.8070    3.8610    1.2050 C   0  0  0  0  0  0  0  0  0  0  0  0
    0.1590    2.8400    1.2740 C   0  0  0  0  0  0  0  0  0  0  0  0
    0.2560    1.8780    0.3210 C   0  0  0  0  0  0  0  0  0  0  0  0
    1.2190    0.8130    0.3380 N   0  0  0  0  0  0  0  0  0  0  0  0
    2.1990    0.5500    1.2750 C   0  0  0  0  0  0  0  0  0  0  0  0
    2.1620    1.4630    2.2550 O   0  0  0  0  0  0  0  0  0  0  0  0
    3.1930   -0.4010    1.4520 C   0  0  0  0  0  0  0  0  0  0  0  0
    3.8170   -1.4570    1.0350 C   0  0  0  0  0  0  0  0  0  0  0  0
    4.9470   -1.9770    1.8870 C   0  0  0  0  0  0  0  0  0  0  0  0
    5.2330   -1.3770    2.9520 O   0  0  0  0  0  0  0  0  0  0  0  0
    5.6320   -3.0840    1.4820 O   0  0  0  0  0  0  0  0  0  0  0  0
    5.3990   -3.8150    0.3380 C   0  0  0  0  0  0  0  0  0  0  0  0
    4.3150   -3.3160   -0.4830 C   0  0  0  0  0  0  0  0  0  0  0  0
    3.5780   -2.2170   -0.1570 C   0  0  0  0  0  0  0  0  0  0  0  0
    2.5110   -1.8240   -1.0990 C   0  0  0  0  0  0  0  0  0  0  0  0
   -0.6320    1.9170   -0.7520 C   0  0  0  0  0  0  0  0  0  0  0  0
   -0.5890    0.6940   -2.0640 S   0  0  0  0  0  0  0  0  0  0  0  0
   -1.6370   -0.6830   -1.6790 C   0  0  0  0  0  0  0  0  0  0  0  0
   -2.3710   -0.7680   -0.5180 C   0  0  0  0  0  0  0  0  0  0  0  0
   -3.1790   -1.8610   -0.2530 C   0  0  0  0  0  0  0  0  0  0  0  0
   -3.9620   -1.9280    1.0100 C   0  0  0  0  0  0  0  0  0  0  0  0
   -3.2190   -2.8640   -1.2010 C   0  0  0  0  0  0  0  0  0  0  0  0
   -2.4760   -2.7720   -2.3720 C   0  0  0  0  0  0  0  0  0  0  0  0
   -2.5230   -3.8580   -3.3910 C   0  0  0  0  0  0  0  0  0  0  0  0
   -1.7120   -1.6860   -2.5680 N   0  0  0  0  0  0  0  0  0  0  0  0
   -1.5790    2.9160   -0.8220 C   0  0  0  0  0  0  0  0  0  0  0  0
   -1.6670    3.8750    0.1400 C   0  0  0  0  0  0  0  0  0  0  0  0
   -2.6420    4.8690    0.0270 O   0  0  0  0  0  0  0  0  0  0  0  0
   -3.5160    4.8680   -1.0710 C   0  0  0  0  0  0  0  0  0  0  0  0
  1  2  1  0
  2  3  1  0
  3  4  2  0
  3 29  1  0
  4  5  1  0
  5  6  1  0
  5 18  2  0
  6  7  1  0
  7  8  2  0
  7  9  1  0
  9 10  2  3
 10 11  1  0
 10 16  1  0
 11 12  2  0
 11 13  1  0
 13 14  1  0
 14 15  1  0
 15 16  2  0
 16 17  1  0
 18 19  1  0
 18 28  1  0
 19 20  1  0
 20 21  2  0
 20 27  1  0
 21 22  1  0
 22 23  1  0
 22 24  2  0
 24 25  1  0
 25 26  1  0
 25 27  2  0
 28 29  2  0
 29 30  1  0
 30 31  1  0
M  END
