
     RDKit          3D

 29 30  0  0  0  0  0  0  0  0999 V2000
   -5.1880    1.3530   -1.3290 C   0  0  0  0  0  0  0  0  0  0  0  0
   -4.6240    1.8620   -0.0200 C   0  0  2  0  0  0  0  0  0  0  0  0
   -5.6140    2.9700    0.4130 C   0  0  0  0  0  0  0  0  0  0  0  0
   -3.2940    2.4780   -0.0600 C   0  0  0  0  0  0  0  0  0  0  0  0
   -2.0790    1.6670    0.0290 C   0  0  0  0  0  0  0  0  0  0  0  0
   -2.1340    0.3440    0.7030 C   0  0  2  0  0  0  0  0  0  0  0  0
   -1.5440    0.3540    1.9380 O   0  0  0  0  0  0  0  0  0  0  0  0
   -1.7580   -0.8010   -0.1490 C   0  0  1  0  0  0  0  0  0  0  0  0
   -2.4020   -0.4080   -1.4170 O   0  0  0  0  0  0  0  0  0  0  0  0
   -0.3130   -1.1190   -0.4820 C   0  0  1  0  0  0  0  0  0  0  0  0
    0.3830    0.0480   -0.7120 N   0  0  0  0  0  0  0  0  0  0  0  0
    1.7260    0.3320   -0.4830 C   0  0  0  0  0  0  0  0  0  0  0  0
    2.7100   -0.2670   -1.4470 C   0  0  0  0  0  0  0  0  0  0  0  0
    4.1240    0.2280   -1.1330 C   0  0  0  0  0  0  0  0  0  0  0  0
    4.4850   -0.1660    0.1290 O   0  0  0  0  0  0  0  0  0  0  0  0
    5.7770    0.1270    0.4870 C   0  0  0  0  0  0  0  0  0  0  0  0
    6.0330    1.6030    0.4980 C   0  0  0  0  0  0  0  0  0  0  0  0
    5.8440    2.2400   -0.7060 O   0  0  0  0  0  0  0  0  0  0  0  0
    0.2060   -2.2240    0.3170 C   0  0  0  0  0  0  0  0  0  0  0  0
    0.3830   -2.2540    1.6540 C   0  0  0  0  0  0  0  0  0  0  0  0
    0.9300   -3.3640    2.2850 C   0  0  0  0  0  0  0  0  0  0  0  0
    1.3290   -4.4870    1.6020 C   0  0  0  0  0  0  0  0  0  0  0  0
    1.9840   -5.9280    2.3940 Cl  0  0  0  0  0  0  0  0  0  0  0  0
    1.1590   -4.4690    0.2270 C   0  0  0  0  0  0  0  0  0  0  0  0
    0.6150   -3.3760   -0.3990 C   0  0  0  0  0  0  0  0  0  0  0  0
    0.4470   -3.4700   -2.1650 Cl  0  0  0  0  0  0  0  0  0  0  0  0
   -3.6000    0.0090    1.0550 C   0  0  0  0  0  0  0  0  0  0  0  0
   -3.7420   -1.1810    1.4940 O   0  0  0  0  0  0  0  0  0  0  0  0
   -4.6510    0.8360    0.9230 O   0  0  0  0  0  0  0  0  0  0  0  0
  2  1  1  6
  2  3  1  0
  2  4  1  0
  2 29  1  0
  4  5  1  0
  5  6  1  0
  6  7  1  1
  6  8  1  0
  6 27  1  0
  8  9  1  6
  8 10  1  0
 10 11  1  1
 10 19  1  0
 11 12  1  0
 12 13  1  0
 13 14  1  0
 14 15  1  0
 15 16  1  0
 16 17  1  0
 17 18  1  0
 19 20  2  0
 19 25  1  0
 20 21  1  0
 21 22  2  0
 22 23  1  0
 22 24  1  0
 24 25  2  0
 25 26  1  0
 27 28  2  0
 27 29  1  0
M  END
