
     RDKit          3D

 34 38  0  0  0  0  0  0  0  0999 V2000
   -5.3460   -1.7460   -0.1140 C   0  0  0  0  0  0  0  0  0  0  0  0
   -3.8950   -1.9440    0.0670 C   0  0  0  0  0  0  0  0  0  0  0  0
   -3.0170   -0.9770   -0.4490 C   0  0  0  0  0  0  0  0  0  0  0  0
   -1.6580   -1.0630   -0.3290 C   0  0  0  0  0  0  0  0  0  0  0  0
   -0.7540   -0.0720   -0.8430 C   0  0  0  0  0  0  0  0  0  0  0  0
    0.4870   -0.1740   -0.7790 N   0  0  0  0  0  0  0  0  0  0  0  0
    1.5090   -0.9230   -0.3750 N   0  0  0  0  0  0  0  0  0  0  0  0
    2.1410   -1.9500   -1.0410 C   0  0  0  0  0  0  0  0  0  0  0  0
    1.7760   -2.3300   -2.1810 O   0  0  0  0  0  0  0  0  0  0  0  0
    3.1340   -2.4100   -0.2770 N   0  0  0  0  0  0  0  0  0  0  0  0
    3.1760   -1.7200    0.8660 C   0  0  0  0  0  0  0  0  0  0  0  0
    3.9710   -1.7600    1.9890 C   0  0  0  0  0  0  0  0  0  0  0  0
    3.7640   -0.8840    3.0520 C   0  0  0  0  0  0  0  0  0  0  0  0
    2.7530    0.0370    2.9830 C   0  0  0  0  0  0  0  0  0  0  0  0
    1.9410    0.0980    1.8670 C   0  0  0  0  0  0  0  0  0  0  0  0
    2.1750   -0.7900    0.8270 C   0  0  0  0  0  0  0  0  0  0  0  0
   -1.2680    1.1630   -1.4810 C   0  0  0  0  0  0  0  0  0  0  0  0
   -2.4530    1.4470   -1.6360 O   0  0  0  0  0  0  0  0  0  0  0  0
   -0.3180    2.1730   -1.9940 C   0  0  0  0  0  0  0  0  0  0  0  0
    0.2190    2.2300   -3.2570 C   0  0  0  0  0  0  0  0  0  0  0  0
   -0.1100    1.0950   -4.5500 Cl  0  0  0  0  0  0  0  0  0  0  0  0
    1.0470    3.3150   -3.3320 N   0  0  0  0  0  0  0  0  0  0  0  0
    1.0590    3.9580   -2.1520 C   0  0  0  0  0  0  0  0  0  0  0  0
    1.6940    5.0800   -1.6640 C   0  0  0  0  0  0  0  0  0  0  0  0
    1.5090    5.5200   -0.3630 C   0  0  0  0  0  0  0  0  0  0  0  0
    2.1610    6.6350    0.0640 F   0  0  0  0  0  0  0  0  0  0  0  0
    0.6780    4.8310    0.4670 C   0  0  0  0  0  0  0  0  0  0  0  0
    0.0350    3.7050   -0.0100 C   0  0  0  0  0  0  0  0  0  0  0  0
    0.2010    3.2430   -1.3040 C   0  0  0  0  0  0  0  0  0  0  0  0
   -1.1770   -2.1720    0.3380 C   0  0  0  0  0  0  0  0  0  0  0  0
   -2.0220   -3.1590    0.8670 C   0  0  0  0  0  0  0  0  0  0  0  0
   -1.4800   -4.3370    1.5790 C   0  0  0  0  0  0  0  0  0  0  0  0
   -3.3830   -3.0190    0.7170 C   0  0  0  0  0  0  0  0  0  0  0  0
   -4.1760   -4.0010    1.2420 F   0  0  0  0  0  0  0  0  0  0  0  0
  1  2  1  0
  2  3  2  0
  2 33  1  0
  3  4  1  0
  4  5  1  0
  4 30  2  0
  5  6  2  3
  5 17  1  0
  6  7  1  0
  7  8  1  0
  7 16  1  0
  8  9  2  0
  8 10  1  0
 10 11  1  0
 11 12  2  0
 11 16  1  0
 12 13  1  0
 13 14  2  0
 14 15  1  0
 15 16  2  0
 17 18  2  0
 17 19  1  0
 19 20  2  0
 19 29  1  0
 20 21  1  0
 20 22  1  0
 22 23  1  0
 23 24  2  0
 23 29  1  0
 24 25  1  0
 25 26  1  0
 25 27  2  0
 27 28  1  0
 28 29  2  0
 30 31  1  0
 31 32  1  0
 31 33  2  0
 33 34  1  0
M  END
