
     RDKit          3D

 34 38  0  0  0  0  0  0  0  0999 V2000
   -4.7750    3.7100   -4.3180 C   0  0  0  0  0  0  0  0  0  0  0  0
   -4.2120    4.2430   -3.4830 C   0  0  0  0  0  0  0  0  0  0  0  0
   -3.5250    5.3940   -3.3920 F   0  0  0  0  0  0  0  0  0  0  0  0
   -3.6870    3.3140   -2.0000 C   0  0  0  0  0  0  0  0  0  0  0  0
   -3.3400    4.2750   -1.6220 C   0  0  0  0  0  0  0  0  0  0  0  0
   -4.2260    2.0420   -2.5870 C   0  0  0  0  0  0  0  0  0  0  0  0
   -3.7090    0.9000   -2.1060 C   0  0  0  0  0  0  0  0  0  0  0  0
   -2.6790    0.7740   -1.1170 C   0  0  0  0  0  0  0  0  0  0  0  0
   -2.4860   -0.5450   -0.9540 C   0  0  0  0  0  0  0  0  0  0  0  0
   -1.6100   -1.1910   -0.1450 C   0  0  0  0  0  0  0  0  0  0  0  0
   -1.5620   -2.5840   -0.1340 C   0  0  0  0  0  0  0  0  0  0  0  0
   -0.5810   -3.2730    0.6900 C   0  0  0  0  0  0  0  0  0  0  0  0
    0.3720   -2.4640    1.1960 N   0  0  0  0  0  0  0  0  0  0  0  0
    1.1130   -2.2130    2.3330 C   0  0  0  0  0  0  0  0  0  0  0  0
    0.8880   -2.9010    3.3490 O   0  0  0  0  0  0  0  0  0  0  0  0
    2.1570   -1.1500    2.3280 C   0  0  0  0  0  0  0  0  0  0  0  0
    2.2960   -0.0260    3.0920 C   0  0  0  0  0  0  0  0  0  0  0  0
    3.4490    0.6030    2.6480 C   0  0  0  0  0  0  0  0  0  0  0  0
    4.1250    1.7470    2.9420 C   0  0  0  0  0  0  0  0  0  0  0  0
    5.2090    2.2790    2.4350 C   0  0  0  0  0  0  0  0  0  0  0  0
    5.8810    3.3720    2.6980 F   0  0  0  0  0  0  0  0  0  0  0  0
    5.8040    1.4410    1.3360 C   0  0  0  0  0  0  0  0  0  0  0  0
    5.1340    0.3340    1.0470 C   0  0  0  0  0  0  0  0  0  0  0  0
    5.6940   -0.5530   -0.0950 C   0  0  0  0  0  0  0  0  0  0  0  0
    3.9710   -0.1630    1.6270 C   0  0  0  0  0  0  0  0  0  0  0  0
    3.1920   -1.1820    1.4730 O   0  0  0  0  0  0  0  0  0  0  0  0
   -0.6220   -4.6400    0.5660 C   0  0  0  0  0  0  0  0  0  0  0  0
   -1.4380   -5.3410   -0.1990 C   0  0  0  0  0  0  0  0  0  0  0  0
   -1.3710   -7.1140   -0.3650 Cl  0  0  0  0  0  0  0  0  0  0  0  0
   -2.2990   -4.6240   -0.9200 N   0  0  0  0  0  0  0  0  0  0  0  0
   -2.4360   -3.2640   -0.9590 C   0  0  0  0  0  0  0  0  0  0  0  0
   -3.3040   -2.6160   -1.7640 N   0  0  0  0  0  0  0  0  0  0  0  0
   -3.3640   -1.2710   -1.8010 C   0  0  0  0  0  0  0  0  0  0  0  0
   -4.0540   -0.4230   -2.4430 N   0  0  0  0  0  0  0  0  0  0  0  0
  1  2  2  0
  2  3  1  0
  2  4  1  0
  4  5  2  0
  4  6  1  0
  6  7  2  3
  7  8  1  0
  7 34  1  0
  8  9  2  0
  9 10  1  0
  9 33  1  0
 10 11  2  0
 11 12  1  0
 11 31  1  0
 12 13  1  0
 12 27  2  0
 13 14  1  0
 14 15  2  0
 14 16  1  0
 16 17  2  0
 16 26  1  0
 17 18  1  0
 18 19  2  0
 18 25  1  0
 19 20  1  0
 20 21  1  0
 20 22  2  0
 22 23  1  0
 23 24  1  0
 23 25  2  0
 25 26  1  0
 27 28  1  0
 28 29  1  0
 28 30  2  0
 30 31  1  0
 31 32  2  0
 32 33  1  0
 33 34  2  0
M  END
