
     RDKit          3D

 35 38  0  0  0  0  0  0  0  0999 V2000
    0.9090   -3.5210    0.4340 C   0  0  0  0  0  0  0  0  0  0  0  0
    1.5040   -2.2480    0.8760 C   0  0  0  0  0  0  0  0  0  0  0  0
    1.4400   -1.8170    2.4350 S   0  0  0  0  0  0  0  0  0  0  0  0
    2.1780   -1.3770   -0.0780 C   0  0  0  0  0  0  0  0  0  0  0  0
    3.2110   -1.9350   -0.8420 C   0  0  0  0  0  0  0  0  0  0  0  0
    3.8990   -1.1680   -1.7400 C   0  0  0  0  0  0  0  0  0  0  0  0
    3.5690    0.1450   -1.8840 C   0  0  0  0  0  0  0  0  0  0  0  0
    2.5300    0.6890   -1.1100 C   0  0  0  0  0  0  0  0  0  0  0  0
    1.8200   -0.0510   -0.2000 C   0  0  0  0  0  0  0  0  0  0  0  0
    0.7350    0.5100    0.5420 N   0  0  0  0  0  0  0  0  0  0  0  0
    0.4260    1.8540    0.7120 C   0  0  0  0  0  0  0  0  0  0  0  0
    1.2170    2.6880    0.1550 O   0  0  0  0  0  0  0  0  0  0  0  0
   -0.7060    2.3620    1.4550 C   0  0  0  0  0  0  0  0  0  0  0  0
   -0.7070    3.7650    1.7450 C   0  0  0  0  0  0  0  0  0  0  0  0
   -1.6380    4.3390    2.5600 C   0  0  0  0  0  0  0  0  0  0  0  0
   -1.5990    5.7680    2.8250 C   0  0  0  0  0  0  0  0  0  0  0  0
   -2.4310    6.3470    3.5680 O   0  0  0  0  0  0  0  0  0  0  0  0
   -2.6220    3.5790    3.1390 C   0  0  0  0  0  0  0  0  0  0  0  0
   -2.6590    2.2310    2.8860 C   0  0  0  0  0  0  0  0  0  0  0  0
   -1.6830    1.6500    2.0310 C   0  0  0  0  0  0  0  0  0  0  0  0
   -1.8230    0.2720    1.8160 O   0  0  0  0  0  0  0  0  0  0  0  0
   -2.7390   -0.1240    0.7920 C   0  0  1  0  0  0  0  0  0  0  0  0
   -4.1310    0.4120    1.1010 C   0  0  0  0  0  0  0  0  0  0  0  0
   -2.3470    0.3640   -0.5650 C   0  0  0  0  0  0  0  0  0  0  0  0
   -3.3540   -0.0320   -1.6330 C   0  0  0  0  0  0  0  0  0  0  0  0
   -3.6500   -1.5110   -1.5620 C   0  0  0  0  0  0  0  0  0  0  0  0
   -2.6430   -2.1620   -0.6350 C   0  0  0  0  0  0  0  0  0  0  0  0
   -2.7660   -1.6380    0.7730 C   0  0  2  0  0  0  0  0  0  0  0  0
   -4.0800   -2.1710    1.3170 C   0  0  0  0  0  0  0  0  0  0  0  0
   -1.7480   -2.1710    1.5400 O   0  0  0  0  0  0  0  0  0  0  0  0
    4.1300    1.1570   -2.7670 C   0  0  0  0  0  0  0  0  0  0  0  0
    5.5600    1.0020   -3.0890 C   0  0  0  0  0  0  0  0  0  0  0  0
    6.3870    0.0020   -2.9200 C   0  0  0  0  0  0  0  0  0  0  0  0
    6.2810   -1.3440   -2.3680 C   0  0  0  0  0  0  0  0  0  0  0  0
    4.9440   -1.9850   -2.4100 C   0  0  0  0  0  0  0  0  0  0  0  0
  1  2  1  0
  2  3  2  0
  2  4  1  0
  4  5  2  0
  4  9  1  0
  5  6  1  0
  6  7  2  0
  6 35  1  0
  7  8  1  0
  7 31  1  0
  8  9  2  0
  9 10  1  0
 10 11  1  0
 11 12  2  0
 11 13  1  0
 13 14  2  0
 13 20  1  0
 14 15  1  0
 15 16  1  0
 15 18  2  0
 16 17  2  0
 18 19  1  0
 19 20  2  0
 20 21  1  0
 21 22  1  0
 22 23  1  1
 22 24  1  0
 22 28  1  0
 24 25  1  0
 25 26  1  0
 26 27  1  0
 27 28  1  0
 28 29  1  1
 28 30  1  0
 31 32  1  0
 32 33  2  0
 33 34  1  0
 34 35  1  0
M  END
