
     RDKit          3D

 34 37  0  0  0  0  0  0  0  0999 V2000
   -3.0330    3.5720    0.5120 C   0  0  0  0  0  0  0  0  0  0  0  0
   -3.1500    2.8370    1.8300 C   0  0  0  0  0  0  0  0  0  0  0  0
   -4.0050    1.6360    1.7020 C   0  0  0  0  0  0  0  0  0  0  0  0
   -5.6390    1.5980    2.5830 S   0  0  0  0  0  0  0  0  0  0  0  0
   -6.0200   -0.0630    1.9940 C   0  0  0  0  0  0  0  0  0  0  0  0
   -4.9600   -0.4300    1.2330 C   0  0  0  0  0  0  0  0  0  0  0  0
   -5.0130   -1.8150    0.5410 C   0  0  1  0  0  0  0  0  0  0  0  0
   -6.0360   -2.6680    1.2120 C   0  0  0  0  0  0  0  0  0  0  0  0
   -7.3180   -2.4710    0.4820 C   0  0  0  0  0  0  0  0  0  0  0  0
   -7.0860   -1.3900   -0.5250 C   0  0  0  0  0  0  0  0  0  0  0  0
   -5.5890   -1.5750   -0.8270 C   0  0  0  0  0  0  0  0  0  0  0  0
   -3.9130    0.4390    1.0760 C   0  0  0  0  0  0  0  0  0  0  0  0
   -2.6920    0.0680    0.2850 C   0  0  0  0  0  0  0  0  0  0  0  0
   -2.7880   -0.8190   -0.5980 O   0  0  0  0  0  0  0  0  0  0  0  0
   -1.4460    0.6530    0.4800 N   0  0  0  0  0  0  0  0  0  0  0  0
   -0.2460    0.3590   -0.2280 C   0  0  0  0  0  0  0  0  0  0  0  0
    0.8310    1.2360   -0.0580 C   0  0  0  0  0  0  0  0  0  0  0  0
    2.0500    1.0470   -0.6840 C   0  0  0  0  0  0  0  0  0  0  0  0
    2.2430   -0.0250   -1.5050 C   0  0  0  0  0  0  0  0  0  0  0  0
    3.5610   -0.2610   -2.1810 C   0  0  1  0  0  0  0  0  0  0  0  0
    3.6660    0.3910   -3.4960 C   0  0  0  0  0  0  0  0  0  0  0  0
    4.5020    1.1750   -3.8700 O   0  0  0  0  0  0  0  0  0  0  0  0
    4.6930    0.1390   -1.3180 C   0  0  0  0  0  0  0  0  0  0  0  0
    5.1400    1.4230   -1.2970 C   0  0  0  0  0  0  0  0  0  0  0  0
    6.1990    1.7700   -0.4900 C   0  0  0  0  0  0  0  0  0  0  0  0
    6.8450    0.8770    0.3140 C   0  0  0  0  0  0  0  0  0  0  0  0
    7.9900    1.3230    1.1670 C   0  0  0  0  0  0  0  0  0  0  0  0
    6.3980   -0.4260    0.3000 C   0  0  0  0  0  0  0  0  0  0  0  0
    7.0700   -1.4310    1.1580 C   0  0  0  0  0  0  0  0  0  0  0  0
    6.5010   -2.6760    1.0230 O   0  0  0  0  0  0  0  0  0  0  0  0
    5.3340   -0.7990   -0.5050 C   0  0  0  0  0  0  0  0  0  0  0  0
    1.2140   -0.8930   -1.6880 C   0  0  0  0  0  0  0  0  0  0  0  0
    1.2960   -2.0000   -2.4910 O   0  0  0  0  0  0  0  0  0  0  0  0
   -0.0250   -0.7010   -1.0520 C   0  0  0  0  0  0  0  0  0  0  0  0
  1  2  1  0
  2  3  1  0
  3  4  1  0
  3 12  2  0
  4  5  1  0
  5  6  2  0
  7  6  1  1
  6 12  1  0
  7  8  1  0
  7 11  1  0
  8  9  1  0
  9 10  1  0
 10 11  1  0
 12 13  1  0
 13 14  2  0
 13 15  1  0
 15 16  1  0
 16 17  2  0
 16 34  1  0
 17 18  1  0
 18 19  2  0
 19 20  1  0
 19 32  1  0
 20 21  1  6
 20 23  1  0
 21 22  2  0
 23 24  2  0
 23 31  1  0
 24 25  1  0
 25 26  2  0
 26 27  1  0
 26 28  1  0
 28 29  1  0
 28 31  2  0
 29 30  1  0
 32 33  1  0
 32 34  2  0
M  END
