
     RDKit          3D

 35 38  0  0  0  0  0  0  0  0999 V2000
   -6.6360    1.6960    0.6180 C   0  0  0  0  0  0  0  0  0  0  0  0
   -6.0490    0.5350    0.6530 C   0  0  0  0  0  0  0  0  0  0  0  0
   -5.9180   -0.2260    1.9570 C   0  0  0  0  0  0  0  0  0  0  0  0
   -4.4390   -0.5370    2.0480 C   0  0  0  0  0  0  0  0  0  0  0  0
   -4.0880   -1.4730    0.9240 C   0  0  0  0  0  0  0  0  0  0  0  0
   -4.1870   -0.8320   -0.4530 C   0  0  1  0  0  0  0  0  0  0  0  0
   -3.0010    0.0540   -0.6490 C   0  0  0  0  0  0  0  0  0  0  0  0
   -1.6930   -0.5980   -0.6040 C   0  0  0  0  0  0  0  0  0  0  0  0
   -1.5630   -1.8260   -0.5550 O   0  0  0  0  0  0  0  0  0  0  0  0
   -0.4360    0.1840   -0.6190 C   0  0  0  0  0  0  0  0  0  0  0  0
   -0.4530    1.5560   -0.5790 C   0  0  0  0  0  0  0  0  0  0  0  0
    0.7450    2.2810   -0.5840 C   0  0  0  0  0  0  0  0  0  0  0  0
    1.9320    1.5870   -0.6280 C   0  0  0  0  0  0  0  0  0  0  0  0
    3.2510    2.3110   -0.6500 C   0  0  0  0  0  0  0  0  0  0  0  0
    1.9970    0.2030   -0.6700 C   0  0  0  0  0  0  0  0  0  0  0  0
    3.2830   -0.4840   -0.6730 C   0  0  0  0  0  0  0  0  0  0  0  0
    3.6530   -1.0410   -1.7640 O   0  0  0  0  0  0  0  0  0  0  0  0
    4.1480   -0.5950    0.4090 N   0  0  0  0  0  0  0  0  0  0  0  0
    5.4340   -1.2610    0.4350 C   0  0  2  0  0  0  0  0  0  0  0  0
    5.2940   -2.6340    1.0630 C   0  0  0  0  0  0  0  0  0  0  0  0
    6.5400   -3.2450    1.0410 O   0  0  0  0  0  0  0  0  0  0  0  0
    6.5080   -0.4450    1.0550 C   0  0  0  0  0  0  0  0  0  0  0  0
    7.4380   -0.7170    1.9690 C   0  0  0  0  0  0  0  0  0  0  0  0
    8.3050    0.2340    2.3640 C   0  0  0  0  0  0  0  0  0  0  0  0
    8.1900    1.4720    1.7940 C   0  0  0  0  0  0  0  0  0  0  0  0
    8.9660    2.7360    2.0010 C   0  0  0  0  0  0  0  0  0  0  0  0
    8.8330    3.5650    0.8790 O   0  0  0  0  0  0  0  0  0  0  0  0
    6.8060    1.2470    0.6710 S   0  0  0  0  0  0  0  0  0  0  0  0
    0.7920   -0.4570   -0.6650 C   0  0  0  0  0  0  0  0  0  0  0  0
   -4.2340   -1.9570   -1.4520 C   0  0  0  0  0  0  0  0  0  0  0  0
   -4.4780   -1.4430   -2.8450 C   0  0  0  0  0  0  0  0  0  0  0  0
   -5.6460   -0.5710   -2.9820 C   0  0  0  0  0  0  0  0  0  0  0  0
   -6.1190   -0.0040   -1.6820 C   0  0  0  0  0  0  0  0  0  0  0  0
   -7.4990    0.6440   -1.6820 C   0  0  0  0  0  0  0  0  0  0  0  0
   -5.4850   -0.0700   -0.5520 C   0  0  0  0  0  0  0  0  0  0  0  0
  1  2  2  0
  2  3  1  0
  2 35  1  0
  3  4  1  0
  4  5  1  0
  5  6  1  0
  6  7  1  6
  6 30  1  0
  6 35  1  0
  7  8  1  0
  8  9  2  0
  8 10  1  0
 10 11  2  0
 10 29  1  0
 11 12  1  0
 12 13  2  0
 13 14  1  0
 13 15  1  0
 15 16  1  0
 15 29  2  0
 16 17  2  0
 16 18  1  0
 18 19  1  0
 19 20  1  1
 19 22  1  0
 20 21  1  0
 22 23  2  0
 22 28  1  0
 23 24  1  0
 24 25  2  0
 25 26  1  0
 25 28  1  0
 26 27  1  0
 30 31  1  0
 31 32  1  0
 32 33  1  0
 33 34  1  0
 33 35  2  0
M  END
