
     RDKit          3D

 34 38  0  0  0  0  0  0  0  0999 V2000
   10.1600   -0.2420   -1.5950 C   0  0  0  0  0  0  0  0  0  0  0  0
    9.5920    0.4860   -0.3970 C   0  0  0  0  0  0  0  0  0  0  0  0
    8.1060    0.5480   -0.4330 C   0  0  0  0  0  0  0  0  0  0  0  0
    7.3220   -0.4290    0.1330 C   0  0  0  0  0  0  0  0  0  0  0  0
    5.9230   -0.3610    0.0930 C   0  0  0  0  0  0  0  0  0  0  0  0
    5.3080    0.6790   -0.5100 C   0  0  0  0  0  0  0  0  0  0  0  0
    3.9170    0.8900   -0.6330 N   0  0  0  0  0  0  0  0  0  0  0  0
    2.8660    0.0720   -0.1620 C   0  0  0  0  0  0  0  0  0  0  0  0
    3.1730   -0.9590    0.4320 O   0  0  0  0  0  0  0  0  0  0  0  0
    1.5100    0.3940   -0.3480 N   0  0  0  0  0  0  0  0  0  0  0  0
    0.4170   -0.3680    0.0850 C   0  0  0  0  0  0  0  0  0  0  0  0
    0.4370   -1.6500    0.5580 C   0  0  0  0  0  0  0  0  0  0  0  0
   -0.6840   -2.3420    0.9860 C   0  0  0  0  0  0  0  0  0  0  0  0
   -0.5640   -3.5960    1.4340 F   0  0  0  0  0  0  0  0  0  0  0  0
   -1.9010   -1.7270    0.9430 C   0  0  0  0  0  0  0  0  0  0  0  0
   -2.0030   -0.4170    0.4720 C   0  0  0  0  0  0  0  0  0  0  0  0
   -3.2990    0.2420    0.4250 C   0  0  0  0  0  0  0  0  0  0  0  0
   -3.3120    1.6140    0.6040 C   0  0  0  0  0  0  0  0  0  0  0  0
   -4.4970    2.3150    0.5730 C   0  0  0  0  0  0  0  0  0  0  0  0
   -5.7080    1.7000    0.3660 C   0  0  0  0  0  0  0  0  0  0  0  0
   -6.9540    2.1160    0.2910 O   0  0  0  0  0  0  0  0  0  0  0  0
   -7.7580    1.1050    0.0740 C   0  0  0  0  0  0  0  0  0  0  0  0
   -9.1230    1.0200   -0.0800 C   0  0  0  0  0  0  0  0  0  0  0  0
   -9.7120   -0.2160   -0.3040 C   0  0  0  0  0  0  0  0  0  0  0  0
  -11.0590   -0.2640   -0.4510 F   0  0  0  0  0  0  0  0  0  0  0  0
   -8.9440   -1.3440   -0.3730 C   0  0  0  0  0  0  0  0  0  0  0  0
   -9.6800   -2.8940   -0.6540 Cl  0  0  0  0  0  0  0  0  0  0  0  0
   -7.5850   -1.2650   -0.2210 C   0  0  0  0  0  0  0  0  0  0  0  0
   -7.0150   -0.0350    0.0010 C   0  0  0  0  0  0  0  0  0  0  0  0
   -5.6840    0.3140    0.1860 C   0  0  0  0  0  0  0  0  0  0  0  0
   -4.4890   -0.3930    0.2170 C   0  0  0  0  0  0  0  0  0  0  0  0
   -0.8640    0.2220    0.0610 C   0  0  0  0  0  0  0  0  0  0  0  0
    6.1380    1.6260   -1.0590 N   0  0  0  0  0  0  0  0  0  0  0  0
    7.4420    1.5600   -1.0200 N   0  0  0  0  0  0  0  0  0  0  0  0
  1  2  1  0
  2  3  1  0
  3  4  2  0
  3 34  1  0
  4  5  1  0
  5  6  2  0
  6  7  1  0
  6 33  1  0
  7  8  1  0
  8  9  2  0
  8 10  1  0
 10 11  1  0
 11 12  2  0
 11 32  1  0
 12 13  1  0
 13 14  1  0
 13 15  2  0
 15 16  1  0
 16 17  1  0
 16 32  2  0
 17 18  2  0
 17 31  1  0
 18 19  1  0
 19 20  2  0
 20 21  1  0
 20 30  1  0
 21 22  1  0
 22 23  2  0
 22 29  1  0
 23 24  1  0
 24 25  1  0
 24 26  2  0
 26 27  1  0
 26 28  1  0
 28 29  2  0
 29 30  1  0
 30 31  2  0
 33 34  2  0
M  END
