
     RDKit          3D

 26 29  0  0  0  0  0  0  0  0999 V2000
   -5.8830   -1.2090   -1.3540 C   0  0  0  0  0  0  0  0  0  0  0  0
   -5.9730    0.0830   -1.1240 C   0  0  0  0  0  0  0  0  0  0  0  0
   -7.1540    0.9000   -1.4680 C   0  0  0  0  0  0  0  0  0  0  0  0
   -6.8830    2.1360   -1.0960 C   0  0  0  0  0  0  0  0  0  0  0  0
   -5.5760    2.1940   -0.5170 C   0  0  0  0  0  0  0  0  0  0  0  0
   -4.9870    0.9780   -0.5120 C   0  0  0  0  0  0  0  0  0  0  0  0
   -3.6600    0.6360   -0.0120 C   0  0  2  0  0  0  0  0  0  0  0  0
   -2.7370    0.1530   -1.0980 C   0  0  0  0  0  0  0  0  0  0  0  0
   -1.6690   -0.7720   -0.5660 C   0  0  0  0  0  0  0  0  0  0  0  0
   -1.2010   -0.3720    0.7430 N   0  0  2  0  0  0  0  0  0  0  0  0
   -0.2280   -1.3520    1.1850 C   0  0  0  0  0  0  0  0  0  0  0  0
    1.1130   -1.1150    0.6550 C   0  0  0  0  0  0  0  0  0  0  0  0
    2.0010   -0.2900    1.3070 C   0  0  0  0  0  0  0  0  0  0  0  0
    3.2730   -0.0570    0.8170 C   0  0  0  0  0  0  0  0  0  0  0  0
    3.6950   -0.6600   -0.3650 C   0  0  0  0  0  0  0  0  0  0  0  0
    5.0480   -0.4270   -0.9090 C   0  0  1  0  0  0  0  0  0  0  0  0
    5.2720    1.0490   -1.2290 C   0  0  0  0  0  0  0  0  0  0  0  0
    6.6940    1.4200   -0.8670 C   0  0  0  0  0  0  0  0  0  0  0  0
    6.7820    1.3100    0.6500 C   0  0  0  0  0  0  0  0  0  0  0  0
    6.6050   -0.0570    0.9710 O   0  0  0  0  0  0  0  0  0  0  0  0
    6.1080   -0.9110    0.0090 C   0  0  0  0  0  0  0  0  0  0  0  0
    6.5600   -2.0990   -0.0820 O   0  0  0  0  0  0  0  0  0  0  0  0
    2.8250   -1.4770   -1.0160 C   0  0  0  0  0  0  0  0  0  0  0  0
    1.5440   -1.7050   -0.5130 C   0  0  0  0  0  0  0  0  0  0  0  0
   -2.2520   -0.3480    1.7390 C   0  0  0  0  0  0  0  0  0  0  0  0
   -3.6290   -0.3600    1.1020 C   0  0  0  0  0  0  0  0  0  0  0  0
  1  2  2  0
  2  3  1  0
  2  6  1  0
  3  4  2  0
  4  5  1  0
  5  6  2  0
  7  6  1  6
  7  8  1  0
  7 26  1  0
  8  9  1  0
  9 10  1  0
 10 11  1  1
 10 25  1  0
 11 12  1  0
 12 13  2  0
 12 24  1  0
 13 14  1  0
 14 15  2  0
 16 15  1  1
 15 23  1  0
 16 17  1  0
 16 21  1  0
 17 18  1  0
 18 19  1  0
 19 20  1  0
 20 21  1  0
 21 22  2  0
 23 24  2  0
 25 26  1  0
M  CHG  1  10   1
M  END
