
     RDKit          3D

 28 31  0  0  0  0  0  0  0  0999 V2000
    5.6140    3.5940    1.0240 C   0  0  0  0  0  0  0  0  0  0  0  0
    6.1090    2.4060    0.4360 O   0  0  0  0  0  0  0  0  0  0  0  0
    5.2100    1.3910    0.1390 C   0  0  0  0  0  0  0  0  0  0  0  0
    3.8490    1.4940    0.3950 C   0  0  0  0  0  0  0  0  0  0  0  0
    2.9810    0.4700    0.0890 C   0  0  0  0  0  0  0  0  0  0  0  0
    1.6640    0.5580    0.3320 N   0  0  0  0  0  0  0  0  0  0  0  0
    0.7810   -0.4320    0.0440 C   0  0  0  0  0  0  0  0  0  0  0  0
   -0.6070   -0.3010    0.3170 N   0  0  0  0  0  0  0  0  0  0  0  0
   -1.4900   -1.3660   -0.0170 C   0  0  0  0  0  0  0  0  0  0  0  0
   -2.9540   -1.0140    0.0950 C   0  0  0  0  0  0  0  0  0  0  0  0
   -3.2400   -0.0900    1.1380 N   0  0  0  0  0  0  0  0  0  0  0  0
   -4.5500    0.3210    1.4260 C   0  0  0  0  0  0  0  0  0  0  0  0
   -4.7420    1.1570    2.3880 O   0  0  0  0  0  0  0  0  0  0  0  0
   -5.7340   -0.1370    0.7040 C   0  0  1  0  0  0  0  0  0  0  0  0
   -6.4300    1.0270    0.0160 C   0  0  0  0  0  0  0  0  0  0  0  0
   -7.4110    0.2440   -0.8670 C   0  0  0  0  0  0  0  0  0  0  0  0
   -6.5610   -0.9620   -1.2010 C   0  0  0  0  0  0  0  0  0  0  0  0
   -5.5130   -1.0100   -0.3190 O   0  0  0  0  0  0  0  0  0  0  0  0
   -2.1510    0.4650    1.9540 C   0  0  0  0  0  0  0  0  0  0  0  0
   -1.0960    0.9140    0.9330 C   0  0  0  0  0  0  0  0  0  0  0  0
    1.2950   -1.5530   -0.5180 N   0  0  0  0  0  0  0  0  0  0  0  0
    2.6010   -1.7020   -0.7850 C   0  0  0  0  0  0  0  0  0  0  0  0
    3.1130   -2.8860   -1.3740 N   0  0  0  0  0  0  0  0  0  0  0  0
    3.4690   -0.6900   -0.4850 C   0  0  0  0  0  0  0  0  0  0  0  0
    4.8160   -0.8260   -0.7520 C   0  0  0  0  0  0  0  0  0  0  0  0
    5.6820    0.2220   -0.4360 C   0  0  0  0  0  0  0  0  0  0  0  0
    7.0340    0.1250   -0.6880 O   0  0  0  0  0  0  0  0  0  0  0  0
    7.5380   -1.0590   -1.2740 C   0  0  0  0  0  0  0  0  0  0  0  0
  1  2  1  0
  2  3  1  0
  3  4  2  0
  3 26  1  0
  4  5  1  0
  5  6  2  0
  5 24  1  0
  6  7  1  0
  7  8  1  0
  7 21  2  0
  8  9  1  0
  8 20  1  0
  9 10  1  0
 10 11  1  0
 11 12  1  0
 11 19  1  0
 12 13  2  0
 14 12  1  6
 14 15  1  0
 14 18  1  0
 15 16  1  0
 16 17  1  0
 17 18  1  0
 19 20  1  0
 21 22  1  0
 22 23  1  0
 22 24  2  0
 24 25  1  0
 25 26  2  0
 26 27  1  0
 27 28  1  0
M  END
