
     RDKit          3D

 25 28  0  0  0  0  0  0  0  0999 V2000
   -0.6870    2.3030    3.9610 C   0  0  0  0  0  0  0  0  0  0  0  0
   -0.7160    2.5380    2.4520 C   0  0  0  0  0  0  0  0  0  0  0  0
   -0.3290    1.3560    1.6740 C   0  0  0  0  0  0  0  0  0  0  0  0
    0.9390    1.2440    1.2600 O   0  0  0  0  0  0  0  0  0  0  0  0
    1.1250    0.1450    0.5940 C   0  0  0  0  0  0  0  0  0  0  0  0
    2.4070   -0.3030   -0.0090 C   0  0  0  0  0  0  0  0  0  0  0  0
    2.5050   -1.4960   -0.6880 C   0  0  0  0  0  0  0  0  0  0  0  0
    3.7320   -1.8800   -1.2320 C   0  0  0  0  0  0  0  0  0  0  0  0
    4.8570   -1.1000   -1.1120 C   0  0  0  0  0  0  0  0  0  0  0  0
    6.1690   -1.1830   -1.5130 C   0  0  0  0  0  0  0  0  0  0  0  0
    6.8230   -0.0460   -1.0700 C   0  0  0  0  0  0  0  0  0  0  0  0
    8.2670    0.1910   -1.3320 C   0  0  0  0  0  0  0  0  0  0  0  0
    5.9480    0.6630   -0.4460 O   0  0  0  0  0  0  0  0  0  0  0  0
    4.7530    0.1140   -0.4200 C   0  0  0  0  0  0  0  0  0  0  0  0
    3.5330    0.4690    0.1050 C   0  0  0  0  0  0  0  0  0  0  0  0
   -0.0700   -0.5050    0.5600 C   0  0  0  0  0  0  0  0  0  0  0  0
   -1.0330    0.2580    1.2530 C   0  0  0  0  0  0  0  0  0  0  0  0
   -2.3700   -0.1160    1.3860 N   0  0  1  0  0  0  0  0  0  0  0  0
   -3.2390    0.7520    2.0960 C   0  0  0  0  0  0  0  0  0  0  0  0
   -2.9450   -0.5710    0.1160 C   0  0  2  0  0  0  0  0  0  0  0  0
   -2.8570    0.4490   -0.9590 C   0  0  0  0  0  0  0  0  0  0  0  0
   -3.7400    0.0850   -2.1030 C   0  0  0  0  0  0  0  0  0  0  0  0
   -4.2080   -1.3420   -2.1000 C   0  0  0  0  0  0  0  0  0  0  0  0
   -4.9380   -1.7180   -0.8470 C   0  0  0  0  0  0  0  0  0  0  0  0
   -4.3970   -0.9340    0.3330 C   0  0  0  0  0  0  0  0  0  0  0  0
  1  2  1  0
  2  3  1  0
  3  4  1  0
  3 17  2  0
  4  5  1  0
  5  6  1  0
  5 16  2  0
  6  7  2  0
  6 15  1  0
  7  8  1  0
  8  9  2  0
  9 10  1  0
  9 14  1  0
 10 11  2  0
 11 12  1  0
 11 13  1  0
 13 14  1  0
 14 15  2  0
 16 17  1  0
 17 18  1  0
 18 19  1  6
 18 20  1  0
 20 21  1  6
 20 25  1  0
 21 22  1  0
 22 23  1  0
 23 24  1  0
 24 25  1  0
M  CHG  1  18   1
M  END
