
     RDKit          3D

 26 29  0  0  0  0  0  0  0  0999 V2000
   -2.2770    4.6720    0.3310 C   0  0  0  0  0  0  0  0  0  0  0  0
   -2.4030    3.4100   -0.4390 C   0  0  0  0  0  0  0  0  0  0  0  0
   -3.1340    3.3470   -1.6200 C   0  0  0  0  0  0  0  0  0  0  0  0
   -3.2550    2.1910   -2.3400 C   0  0  0  0  0  0  0  0  0  0  0  0
   -2.6360    1.0010   -1.9100 C   0  0  0  0  0  0  0  0  0  0  0  0
   -1.9220    1.0520   -0.7620 C   0  0  0  0  0  0  0  0  0  0  0  0
   -1.2310   -0.1550   -0.1550 C   0  0  1  0  0  0  0  0  0  0  0  0
    0.1420    0.1060   -0.2640 O   0  0  0  0  0  0  0  0  0  0  0  0
    1.0950   -0.7470    0.1800 C   0  0  0  0  0  0  0  0  0  0  0  0
    0.5360   -1.8000    0.7200 O   0  0  0  0  0  0  0  0  0  0  0  0
    2.5470   -0.7000    0.1760 C   0  0  0  0  0  0  0  0  0  0  0  0
    3.2250   -1.7200    0.8690 C   0  0  0  0  0  0  0  0  0  0  0  0
    4.5900   -1.7750    0.8950 C   0  0  0  0  0  0  0  0  0  0  0  0
    5.3740   -0.8440    0.2500 C   0  0  0  0  0  0  0  0  0  0  0  0
    4.7260    0.1620   -0.4330 C   0  0  0  0  0  0  0  0  0  0  0  0
    3.3250    0.2240   -0.4620 C   0  0  0  0  0  0  0  0  0  0  0  0
    5.7680    0.9890   -1.0210 C   0  0  0  0  0  0  0  0  0  0  0  0
    6.9790    0.5420   -0.7370 C   0  0  0  0  0  0  0  0  0  0  0  0
    6.8290   -0.6700    0.1040 C   0  0  0  0  0  0  0  0  0  0  0  0
   -1.7070   -0.1520    1.2850 C   0  0  0  0  0  0  0  0  0  0  0  0
   -2.2300   -1.4480    1.7680 C   0  0  0  0  0  0  0  0  0  0  0  0
   -3.2280   -1.9930    0.9160 N   0  0  2  0  0  0  0  0  0  0  0  0
   -3.1940   -3.4440    0.9250 C   0  0  0  0  0  0  0  0  0  0  0  0
   -3.2230   -1.4650   -0.4440 C   0  0  0  0  0  0  0  0  0  0  0  0
   -1.7510   -1.3590   -0.8140 C   0  0  0  0  0  0  0  0  0  0  0  0
   -1.7970    2.2400   -0.0190 C   0  0  0  0  0  0  0  0  0  0  0  0
  1  2  1  0
  2  3  2  0
  2 26  1  0
  3  4  1  0
  4  5  2  0
  5  6  1  0
  6  7  1  0
  6 26  2  0
  7  8  1  1
  7 20  1  0
  7 25  1  0
  8  9  1  0
  9 10  2  0
  9 11  1  0
 11 12  2  0
 11 16  1  0
 12 13  1  0
 13 14  2  0
 14 15  1  0
 14 19  1  0
 15 16  2  0
 15 17  1  0
 17 18  2  0
 18 19  1  0
 20 21  1  0
 21 22  1  0
 22 23  1  6
 22 24  1  0
 24 25  1  0
M  CHG  1  22   1
M  END
