
     RDKit          3D

 26 29  0  0  0  0  0  0  0  0999 V2000
    3.8220    1.2210   -1.8080 O   0  0  0  0  0  0  0  0  0  0  0  0
    3.1940    1.6950   -0.8600 C   0  0  0  0  0  0  0  0  0  0  0  0
    2.9290    1.0750    0.3760 C   0  0  0  0  0  0  0  0  0  0  0  0
    3.2210   -0.0690    0.8920 C   0  0  0  0  0  0  0  0  0  0  0  0
    2.7780   -0.3790    2.2140 O   0  0  0  0  0  0  0  0  0  0  0  0
    3.1670   -1.6470    2.6130 C   0  0  0  0  0  0  0  0  0  0  0  0
    3.9300   -2.2230    1.5010 C   0  0  0  0  0  0  0  0  0  0  0  0
    4.5470   -3.4250    1.3550 C   0  0  0  0  0  0  0  0  0  0  0  0
    5.2070   -3.7380    0.1980 C   0  0  0  0  0  0  0  0  0  0  0  0
    5.2300   -2.8050   -0.8130 C   0  0  0  0  0  0  0  0  0  0  0  0
    4.5960   -1.5670   -0.6630 C   0  0  0  0  0  0  0  0  0  0  0  0
    3.9390   -1.2560    0.4880 C   0  0  0  0  0  0  0  0  0  0  0  0
    2.6510    3.1330   -1.0900 C   0  0  0  0  0  0  0  0  0  0  0  0
    1.4320    3.0030   -1.9400 C   0  0  0  0  0  0  0  0  0  0  0  0
    0.3560    2.1930   -1.3130 C   0  0  0  0  0  0  0  0  0  0  0  0
   -0.5890    2.8310   -0.5240 C   0  0  0  0  0  0  0  0  0  0  0  0
   -1.6240    2.1730    0.0970 C   0  0  0  0  0  0  0  0  0  0  0  0
   -1.7610    0.8090   -0.0490 C   0  0  0  0  0  0  0  0  0  0  0  0
   -2.8130    0.0080    0.5550 C   0  0  0  0  0  0  0  0  0  0  0  0
   -4.0090   -0.1400   -0.2210 N   0  0  1  0  0  0  0  0  0  0  0  0
   -4.5490   -1.4580   -0.1120 C   0  0  0  0  0  0  0  0  0  0  0  0
   -5.9500   -1.3340    0.4330 C   0  0  0  0  0  0  0  0  0  0  0  0
   -5.8380   -0.0390    1.2380 C   0  0  0  0  0  0  0  0  0  0  0  0
   -4.9870    0.7960    0.3070 C   0  0  0  0  0  0  0  0  0  0  0  0
   -0.8240    0.1660   -0.8330 C   0  0  0  0  0  0  0  0  0  0  0  0
    0.2130    0.8350   -1.4540 C   0  0  0  0  0  0  0  0  0  0  0  0
  1  2  2  0
  2  3  1  0
  2 13  1  0
  3  4  2  3
  4  5  1  0
  4 12  1  0
  5  6  1  0
  6  7  1  0
  7  8  2  0
  7 12  1  0
  8  9  1  0
  9 10  2  0
 10 11  1  0
 11 12  2  0
 13 14  1  0
 14 15  1  0
 15 16  2  0
 15 26  1  0
 16 17  1  0
 17 18  2  0
 18 19  1  0
 18 25  1  0
 20 19  1  1
 20 21  1  0
 20 24  1  0
 21 22  1  0
 22 23  1  0
 23 24  1  0
 25 26  2  0
M  CHG  1  20   1
M  END
