
     RDKit          3D

 26 28  0  0  0  0  0  0  0  0999 V2000
    6.7400    0.3000    2.8680 C   0  0  0  0  0  0  0  0  0  0  0  0
    5.4030    0.5250    2.2570 C   0  0  0  0  0  0  0  0  0  0  0  0
    5.0270    1.8110    1.8690 C   0  0  0  0  0  0  0  0  0  0  0  0
    3.7800    1.9880    1.3050 C   0  0  0  0  0  0  0  0  0  0  0  0
    2.8930    0.9560    1.1090 C   0  0  0  0  0  0  0  0  0  0  0  0
    1.5770    1.2360    0.5010 C   0  0  0  0  0  0  0  0  0  0  0  0
    0.8470    0.1060    0.1380 O   0  0  0  0  0  0  0  0  0  0  0  0
    1.2430   -0.8470   -0.7670 C   0  0  0  0  0  0  0  0  0  0  0  0
    2.3410   -0.7310   -1.3360 O   0  0  0  0  0  0  0  0  0  0  0  0
    0.4130   -2.0330   -1.1090 C   0  0  0  0  0  0  0  0  0  0  0  0
    0.8910   -2.8690   -1.9810 C   0  0  0  0  0  0  0  0  0  0  0  0
    0.1920   -4.0740   -2.4140 C   0  0  0  0  0  0  0  0  0  0  0  0
   -0.9840   -4.2810   -1.8630 C   0  0  0  0  0  0  0  0  0  0  0  0
   -1.6220   -3.4170   -0.8770 C   0  0  0  0  0  0  0  0  0  0  0  0
   -0.8860   -2.2330   -0.4800 C   0  0  2  0  0  0  0  0  0  0  0  0
   -1.7100   -0.9810   -0.5120 C   0  0  0  0  0  0  0  0  0  0  0  0
   -2.1680   -0.5410   -1.7150 C   0  0  0  0  0  0  0  0  0  0  0  0
   -2.9450    0.6240   -1.8260 C   0  0  0  0  0  0  0  0  0  0  0  0
   -3.2570    1.3440   -0.6920 C   0  0  0  0  0  0  0  0  0  0  0  0
   -4.0560    2.5420   -0.8000 N   0  0  2  0  0  0  0  0  0  0  0  0
   -4.2670    3.1420    0.4900 C   0  0  0  0  0  0  0  0  0  0  0  0
   -5.3400    2.1700   -1.3470 C   0  0  0  0  0  0  0  0  0  0  0  0
   -2.7880    0.8890    0.5270 C   0  0  0  0  0  0  0  0  0  0  0  0
   -2.0170   -0.2710    0.6150 C   0  0  0  0  0  0  0  0  0  0  0  0
    3.2680   -0.3100    1.4930 C   0  0  0  0  0  0  0  0  0  0  0  0
    4.5100   -0.4980    2.0570 C   0  0  0  0  0  0  0  0  0  0  0  0
  1  2  1  0
  2  3  2  0
  2 26  1  0
  3  4  1  0
  4  5  2  0
  5  6  1  0
  5 25  1  0
  6  7  1  0
  7  8  1  0
  8  9  2  0
  8 10  1  0
 10 11  2  0
 10 15  1  0
 11 12  1  0
 12 13  2  0
 13 14  1  0
 14 15  1  0
 15 16  1  6
 16 17  2  0
 16 24  1  0
 17 18  1  0
 18 19  2  0
 19 20  1  0
 19 23  1  0
 20 21  1  1
 20 22  1  0
 23 24  2  0
 25 26  2  0
M  CHG  1  20   1
M  END
