
     RDKit          3D

 26 29  0  0  0  0  0  0  0  0999 V2000
    8.0060   -0.3540   -1.6230 C   0  0  0  0  0  0  0  0  0  0  0  0
    6.6330   -0.2420   -1.0740 C   0  0  0  0  0  0  0  0  0  0  0  0
    5.5830   -0.0870   -1.9260 C   0  0  0  0  0  0  0  0  0  0  0  0
    4.2890    0.0200   -1.4220 C   0  0  0  0  0  0  0  0  0  0  0  0
    3.9750   -0.0180   -0.0820 C   0  0  0  0  0  0  0  0  0  0  0  0
    2.6270   -0.0570    0.3730 C   0  0  1  0  0  0  0  0  0  0  0  0
    1.8920    1.0880    0.9590 C   0  0  0  0  0  0  0  0  0  0  0  0
    0.6420    0.3890    1.5830 C   0  0  0  0  0  0  0  0  0  0  0  0
   -0.1400   -0.3010    0.5810 N   0  0  1  0  0  0  0  0  0  0  0  0
   -1.5600    0.1100    0.7320 C   0  0  0  0  0  0  0  0  0  0  0  0
   -2.4680   -1.0200    0.4240 C   0  0  0  0  0  0  0  0  0  0  0  0
   -3.8280   -0.8200    0.5070 O   0  0  0  0  0  0  0  0  0  0  0  0
   -4.7010   -0.0320   -0.1580 C   0  0  0  0  0  0  0  0  0  0  0  0
   -4.3660    0.8220   -1.1730 C   0  0  0  0  0  0  0  0  0  0  0  0
   -5.3080    1.5970   -1.8150 C   0  0  0  0  0  0  0  0  0  0  0  0
   -6.6240    1.5140   -1.4300 C   0  0  0  0  0  0  0  0  0  0  0  0
   -7.0050    0.6420   -0.3900 C   0  0  0  0  0  0  0  0  0  0  0  0
   -6.0540   -0.1140    0.2270 C   0  0  0  0  0  0  0  0  0  0  0  0
   -6.7090   -0.9460    1.2690 C   0  0  0  0  0  0  0  0  0  0  0  0
   -8.1690   -0.5900    1.1720 C   0  0  0  0  0  0  0  0  0  0  0  0
   -8.2460    0.3790    0.1630 O   0  0  0  0  0  0  0  0  0  0  0  0
    0.3160   -0.0050   -0.7350 C   0  0  0  0  0  0  0  0  0  0  0  0
    1.7610   -0.2510   -0.9360 C   0  0  0  0  0  0  0  0  0  0  0  0
    5.0830   -0.1760    0.7730 C   0  0  0  0  0  0  0  0  0  0  0  0
    4.7760   -0.1440    2.2150 C   0  0  0  0  0  0  0  0  0  0  0  0
    6.3570   -0.2830    0.2720 C   0  0  0  0  0  0  0  0  0  0  0  0
  1  2  1  0
  2  3  2  0
  2 26  1  0
  3  4  1  0
  4  5  2  0
  6  5  1  6
  5 24  1  0
  6  7  1  0
  6 23  1  0
  7  8  1  0
  8  9  1  0
  9 10  1  6
  9 22  1  0
 10 11  1  0
 11 12  1  0
 12 13  1  0
 13 14  2  0
 13 18  1  0
 14 15  1  0
 15 16  2  0
 16 17  1  0
 17 18  2  0
 17 21  1  0
 18 19  1  0
 19 20  1  0
 20 21  1  0
 22 23  1  0
 24 25  1  0
 24 26  2  0
M  CHG  1   9   1
M  END
