
     RDKit          3D

 12 11  0  0  0  0  0  0  0  0999 V2000
    3.7450   -0.2190    1.3580 O   0  0  0  0  0  0  0  0  0  0  0  0
    3.9050   -0.8850    0.3240 C   0  0  0  0  0  0  0  0  0  0  0  0
    5.2210   -1.2070   -0.0110 O   0  0  0  0  0  0  0  0  0  0  0  0
    2.8230   -1.2650   -0.4200 O   0  0  0  0  0  0  0  0  0  0  0  0
    1.4990   -0.9640   -0.1180 C   0  0  0  0  0  0  0  0  0  0  0  0
    1.2010    0.4940   -0.0660 C   0  0  0  0  0  0  0  0  0  0  0  0
   -0.0950    0.8070    0.2290 O   0  0  0  0  0  0  0  0  0  0  0  0
   -1.0460    0.3380   -0.6360 C   0  0  0  0  0  0  0  0  0  0  0  0
   -2.4250    0.7670   -0.1800 C   0  0  1  0  0  0  0  0  0  0  0  0
   -3.4080    0.3100   -1.0330 O   0  0  0  0  0  0  0  0  0  0  0  0
   -2.7030    0.2320    1.2220 C   0  0  0  0  0  0  0  0  0  0  0  0
   -3.9450    0.6770    1.6630 O   0  0  0  0  0  0  0  0  0  0  0  0
  1  2  2  0
  2  3  1  0
  2  4  1  0
  4  5  1  0
  5  6  1  0
  6  7  1  0
  7  8  1  0
  8  9  1  0
  9 10  1  6
  9 11  1  0
 11 12  1  0
M  END
