
     RDKit          3D

 12 11  0  0  0  0  0  0  0  0999 V2000
    3.9000   -0.3070   -1.2180 O   0  0  0  0  0  0  0  0  0  0  0  0
    3.7600   -1.1370   -0.1070 C   0  0  0  0  0  0  0  0  0  0  0  0
    3.3840   -0.4690    1.0350 O   0  0  0  0  0  0  0  0  0  0  0  0
    2.1590    0.1980    0.9290 C   0  0  0  0  0  0  0  0  0  0  0  0
    1.0460   -0.7650    0.6210 C   0  0  0  0  0  0  0  0  0  0  0  0
   -0.2030   -0.1930    0.5050 O   0  0  0  0  0  0  0  0  0  0  0  0
   -0.2610    0.7400   -0.5070 C   0  0  0  0  0  0  0  0  0  0  0  0
   -1.5690    1.2480   -0.5400 O   0  0  0  0  0  0  0  0  0  0  0  0
   -2.5000    0.2500   -0.7810 C   0  0  2  0  0  0  0  0  0  0  0  0
   -3.1970    0.4890   -1.9850 O   0  0  0  0  0  0  0  0  0  0  0  0
   -3.5120    0.2170    0.3490 C   0  0  0  0  0  0  0  0  0  0  0  0
   -4.1490    1.4760    0.3990 O   0  0  0  0  0  0  0  0  0  0  0  0
  1  2  1  0
  2  3  1  0
  3  4  1  0
  4  5  1  0
  5  6  1  0
  6  7  1  0
  7  8  1  0
  8  9  1  0
  9 10  1  6
  9 11  1  0
 11 12  1  0
M  END
