
     RDKit          3D

 13 12  0  0  0  0  0  0  0  0999 V2000
   -2.6960    0.6830   -0.3570 O   0  0  0  0  0  0  0  0  0  0  0  0
   -1.8860    1.0700    0.5260 C   0  0  0  0  0  0  0  0  0  0  0  0
   -2.4080    1.5550    1.7070 O   0  0  0  0  0  0  0  0  0  0  0  0
   -0.4120    1.0400    0.3840 C   0  0  0  0  0  0  0  0  0  0  0  0
    0.1070   -0.3590    0.5050 C   0  0  2  0  0  0  0  0  0  0  0  0
   -0.2750   -0.8150    1.7930 O   0  0  0  0  0  0  0  0  0  0  0  0
    1.5830   -0.4860    0.4300 C   0  0  0  0  0  0  0  0  0  0  0  0
    2.2520   -0.0230   -0.7730 C   0  0  0  0  0  0  0  0  0  0  0  0
    3.4950   -0.1740   -0.8680 O   0  0  0  0  0  0  0  0  0  0  0  0
    1.6290    0.5820   -1.8440 O   0  0  0  0  0  0  0  0  0  0  0  0
   -0.5490   -1.2360   -0.4760 C   0  0  0  0  0  0  0  0  0  0  0  0
   -1.2660   -2.1750   -0.0740 O   0  0  0  0  0  0  0  0  0  0  0  0
   -0.4000   -1.0580   -1.8250 O   0  0  0  0  0  0  0  0  0  0  0  0
  1  2  2  0
  2  3  1  0
  2  4  1  0
  4  5  1  0
  5  6  1  1
  5  7  1  0
  5 11  1  0
  7  8  1  0
  8  9  2  0
  8 10  1  0
 11 12  2  0
 11 13  1  0
M  END
