
     RDKit          3D

 12 11  0  0  0  0  0  0  0  0999 V2000
    2.9200    0.7650   -1.3710 O   0  0  0  0  0  0  0  0  0  0  0  0
    3.7040    0.7260   -0.2440 C   0  0  0  0  0  0  0  0  0  0  0  0
    3.4570   -0.4290    0.4680 O   0  0  0  0  0  0  0  0  0  0  0  0
    2.1440   -0.5260    0.8690 C   0  0  0  0  0  0  0  0  0  0  0  0
    1.3140   -0.5240   -0.2380 O   0  0  0  0  0  0  0  0  0  0  0  0
   -0.0280   -0.6220    0.1510 C   0  0  0  0  0  0  0  0  0  0  0  0
   -0.8760   -0.6150   -1.0860 C   0  0  2  0  0  0  0  0  0  0  0  0
   -0.6490    0.5830   -1.7630 O   0  0  0  0  0  0  0  0  0  0  0  0
   -2.3450   -0.7210   -0.8020 C   0  0  1  0  0  0  0  0  0  0  0  0
   -2.6750   -1.8910   -0.1170 O   0  0  0  0  0  0  0  0  0  0  0  0
   -2.9200    0.5070   -0.1520 C   0  0  0  0  0  0  0  0  0  0  0  0
   -2.5010    0.7090    1.1480 O   0  0  0  0  0  0  0  0  0  0  0  0
  1  2  1  0
  2  3  1  0
  3  4  1  0
  4  5  1  0
  5  6  1  0
  6  7  1  0
  7  8  1  1
  7  9  1  0
  9 10  1  1
  9 11  1  0
 11 12  1  0
M  END
