
     RDKit          3D

 12 11  0  0  0  0  0  0  0  0999 V2000
    4.2860    0.0220    1.4730 O   0  0  0  0  0  0  0  0  0  0  0  0
    3.0550   -0.2750    0.8890 C   0  0  0  0  0  0  0  0  0  0  0  0
    2.8280    0.6840   -0.2780 C   0  0  2  0  0  0  0  0  0  0  0  0
    2.8260    1.9830    0.1810 O   0  0  0  0  0  0  0  0  0  0  0  0
    1.4980    0.3730   -0.8950 C   0  0  0  0  0  0  0  0  0  0  0  0
    0.5260    0.5460    0.1080 O   0  0  0  0  0  0  0  0  0  0  0  0
   -0.6950    0.2560   -0.4750 C   0  0  0  0  0  0  0  0  0  0  0  0
   -1.7110    0.4050    0.4600 O   0  0  0  0  0  0  0  0  0  0  0  0
   -2.9210    0.1030   -0.1730 C   0  0  2  0  0  0  0  0  0  0  0  0
   -3.8050    1.1850   -0.1130 O   0  0  0  0  0  0  0  0  0  0  0  0
   -3.5120   -1.0880    0.5430 C   0  0  0  0  0  0  0  0  0  0  0  0
   -2.6230   -2.1520    0.4500 O   0  0  0  0  0  0  0  0  0  0  0  0
  1  2  1  0
  2  3  1  0
  3  4  1  1
  3  5  1  0
  5  6  1  0
  6  7  1  0
  7  8  1  0
  8  9  1  0
  9 10  1  1
  9 11  1  0
 11 12  1  0
M  END
