
     RDKit          3D

 38 41  0  0  0  0  0  0  0  0999 V2000
    7.7640   -1.1280   -3.0680 C   0  0  0  0  0  0  0  0  0  0  0  0
    7.0390   -2.0120   -2.2350 O   0  0  0  0  0  0  0  0  0  0  0  0
    6.0040   -1.4960   -1.4690 C   0  0  0  0  0  0  0  0  0  0  0  0
    5.6750   -0.1570   -1.5070 C   0  0  0  0  0  0  0  0  0  0  0  0
    4.6550    0.3670   -0.7570 C   0  0  0  0  0  0  0  0  0  0  0  0
    3.9260   -0.4560    0.0650 C   0  0  0  0  0  0  0  0  0  0  0  0
    2.8080    0.1200    0.8760 C   0  0  0  0  0  0  0  0  0  0  0  0
    1.5150   -0.2800    0.1470 C   0  0  0  0  0  0  0  0  0  0  0  0
    0.3760    0.2360    0.8790 N   0  0  0  0  0  0  0  0  0  0  0  0
    0.1430   -0.3910    2.1900 C   0  0  0  0  0  0  0  0  0  0  0  0
   -0.4790    1.2680    0.4120 C   0  0  0  0  0  0  0  0  0  0  0  0
   -0.0360    2.6660    0.7170 C   0  0  0  0  0  0  0  0  0  0  0  0
   -0.9830    3.6610    0.2780 N   0  0  0  0  0  0  0  0  0  0  0  0
   -1.9440    4.0620    1.1050 C   0  0  0  0  0  0  0  0  0  0  0  0
   -2.8990    5.0150    0.7750 C   0  0  0  0  0  0  0  0  0  0  0  0
   -2.8030    5.5320   -0.4660 N   0  0  0  0  0  0  0  0  0  0  0  0
   -1.8460    5.1510   -1.3270 C   0  0  0  0  0  0  0  0  0  0  0  0
   -1.8220    5.7470   -2.6080 N   0  0  0  0  0  0  0  0  0  0  0  0
   -0.9000    4.1860   -0.9570 C   0  0  0  0  0  0  0  0  0  0  0  0
   -0.0150    3.8470   -1.7820 O   0  0  0  0  0  0  0  0  0  0  0  0
   -1.5580    1.1120   -0.2270 N   0  0  0  0  0  0  0  0  0  0  0  0
   -2.1800   -0.0730   -0.6320 C   0  0  0  0  0  0  0  0  0  0  0  0
   -1.8550   -0.8900   -1.6810 C   0  0  0  0  0  0  0  0  0  0  0  0
   -0.5460   -0.6680   -2.8390 Cl  0  0  0  0  0  0  0  0  0  0  0  0
   -2.7260   -1.9470   -1.7150 C   0  0  0  0  0  0  0  0  0  0  0  0
   -3.6140   -1.7680   -0.6490 C   0  0  0  0  0  0  0  0  0  0  0  0
   -3.2640   -0.6430   -0.0220 N   0  0  0  0  0  0  0  0  0  0  0  0
   -3.9160   -0.0610    1.1440 C   0  0  1  0  0  0  0  0  0  0  0  0
   -4.7700    1.1290    0.7580 C   0  0  0  0  0  0  0  0  0  0  0  0
   -4.8280   -1.0720    1.7920 C   0  0  0  0  0  0  0  0  0  0  0  0
   -4.2050   -2.4170    1.9540 C   0  0  0  0  0  0  0  0  0  0  0  0
   -4.5710   -3.3500    0.9180 N   0  0  0  0  0  0  0  0  0  0  0  0
   -4.7080   -2.7360   -0.3690 C   0  0  0  0  0  0  0  0  0  0  0  0
    4.2110   -1.7930    0.1400 C   0  0  0  0  0  0  0  0  0  0  0  0
    3.4840   -2.6220    0.9620 F   0  0  0  0  0  0  0  0  0  0  0  0
    5.2540   -2.2960   -0.6340 C   0  0  0  0  0  0  0  0  0  0  0  0
    5.5990   -3.7520   -0.5810 C   0  0  0  0  0  0  0  0  0  0  0  0
    4.4910   -4.6020    0.5780 S   0  0  0  0  0  0  0  0  0  0  0  0
  1  2  1  0
  2  3  1  0
  3  4  2  0
  3 36  1  0
  4  5  1  0
  5  6  2  0
  6  7  1  0
  6 34  1  0
  7  8  1  0
  8  9  1  0
  9 10  1  0
  9 11  1  0
 11 12  1  0
 11 21  2  3
 12 13  1  0
 13 14  1  0
 13 19  1  0
 14 15  2  0
 15 16  1  0
 16 17  2  0
 17 18  1  0
 17 19  1  0
 19 20  2  0
 21 22  1  0
 22 23  2  0
 22 27  1  0
 23 24  1  0
 23 25  1  0
 25 26  2  0
 26 27  1  0
 26 33  1  0
 27 28  1  0
 28 29  1  6
 28 30  1  0
 30 31  1  0
 31 32  1  0
 32 33  1  0
 34 35  1  0
 34 36  2  0
 36 37  1  0
 37 38  1  0
M  CHG  1  32   1
M  END
