
     RDKit          3D

 37 40  0  0  0  0  0  0  0  0999 V2000
   -4.2240   -4.7030    1.1760 C   0  0  0  0  0  0  0  0  0  0  0  0
   -4.1400   -3.3910    0.5970 N   0  0  0  0  0  0  0  0  0  0  0  0
   -3.5250   -2.3310    1.3850 C   0  0  0  0  0  0  0  0  0  0  0  0
   -3.1330   -2.6850    2.4930 O   0  0  0  0  0  0  0  0  0  0  0  0
   -3.4750   -1.0450    0.7370 C   0  0  0  0  0  0  0  0  0  0  0  0
   -4.5510   -0.5760   -0.0110 N   0  0  0  0  0  0  0  0  0  0  0  0
   -4.3060    0.6010   -0.4920 N   0  0  0  0  0  0  0  0  0  0  0  0
   -5.2490    1.3490   -1.3150 C   0  0  1  0  0  0  0  0  0  0  0  0
   -6.3320    0.4170   -1.8370 C   0  0  0  0  0  0  0  0  0  0  0  0
   -5.9320    2.3510   -0.4150 C   0  0  0  0  0  0  0  0  0  0  0  0
   -4.5960    1.9830   -2.5150 C   0  0  0  0  0  0  0  0  0  0  0  0
   -3.0680    0.9910   -0.1050 C   0  0  0  0  0  0  0  0  0  0  0  0
   -2.5580   -0.0350    0.6530 C   0  0  0  0  0  0  0  0  0  0  0  0
   -1.2310    0.1450    1.2080 C   0  0  0  0  0  0  0  0  0  0  0  0
   -0.5960   -0.8960    1.8870 C   0  0  0  0  0  0  0  0  0  0  0  0
    0.6970   -0.7790    2.3390 C   0  0  0  0  0  0  0  0  0  0  0  0
    1.3840   -1.7910    3.0050 N   0  0  0  0  0  0  0  0  0  0  0  0
    0.8870   -3.0640    3.2750 C   0  0  0  0  0  0  0  0  0  0  0  0
   -0.2470   -3.4520    2.9330 O   0  0  0  0  0  0  0  0  0  0  0  0
    1.9710   -4.1670    4.1610 Cl  0  0  0  0  0  0  0  0  0  0  0  0
    1.3140    0.4100    2.0830 N   0  0  0  0  0  0  0  0  0  0  0  0
    0.7720    1.4330    1.4460 C   0  0  0  0  0  0  0  0  0  0  0  0
    1.6500    2.9640    1.1510 S   0  0  0  0  0  0  0  0  0  0  0  0
    2.5490    2.8850   -0.4080 C   0  0  0  0  0  0  0  0  0  0  0  0
    3.6570    1.8720   -0.3490 C   0  0  0  0  0  0  0  0  0  0  0  0
    4.9030    2.2650    0.0690 C   0  0  0  0  0  0  0  0  0  0  0  0
    5.9100    1.3500    0.1230 C   0  0  0  0  0  0  0  0  0  0  0  0
    5.7430   -0.0020   -0.2320 C   0  0  0  0  0  0  0  0  0  0  0  0
    6.8610   -0.8590   -0.1360 N   0  0  1  0  0  0  0  0  0  0  0  0
    6.5430   -2.2000   -0.5240 C   0  0  0  0  0  0  0  0  0  0  0  0
    7.9160   -0.3770   -1.0150 C   0  0  0  0  0  0  0  0  0  0  0  0
    4.4940   -0.3450   -0.6390 C   0  0  0  0  0  0  0  0  0  0  0  0
    4.1980   -1.6200   -1.0090 F   0  0  0  0  0  0  0  0  0  0  0  0
    3.4420    0.5770   -0.7030 C   0  0  0  0  0  0  0  0  0  0  0  0
   -0.5170    1.3140    0.9970 C   0  0  0  0  0  0  0  0  0  0  0  0
   -1.1090    2.4870    0.3200 C   0  0  0  0  0  0  0  0  0  0  0  0
   -2.3530    2.2380   -0.4250 C   0  0  0  0  0  0  0  0  0  0  0  0
  1  2  1  0
  2  3  1  0
  3  4  2  0
  3  5  1  0
  5  6  2  0
  5 13  1  0
  6  7  1  0
  7  8  1  0
  7 12  1  0
  8  9  1  6
  8 10  1  0
  8 11  1  0
 12 13  2  0
 12 37  1  0
 13 14  1  0
 14 15  2  0
 14 35  1  0
 15 16  1  0
 16 17  1  0
 16 21  2  0
 17 18  1  0
 18 19  2  0
 18 20  1  0
 21 22  1  0
 22 23  1  0
 22 35  2  0
 23 24  1  0
 24 25  1  0
 25 26  2  0
 25 34  1  0
 26 27  1  0
 27 28  2  0
 28 29  1  0
 28 32  1  0
 29 30  1  6
 29 31  1  0
 32 33  1  0
 32 34  2  0
 35 36  1  0
 36 37  1  0
M  CHG  1  29   1
M  END
