
     RDKit          3D

 38 41  0  0  0  0  0  0  0  0999 V2000
   -2.7920    2.3480   -0.5740 C   0  0  0  0  0  0  0  0  0  0  0  0
   -2.8200    1.2110    0.4460 C   0  0  0  0  0  0  0  0  0  0  0  0
   -2.9110   -0.1180   -0.2450 C   0  0  0  0  0  0  0  0  0  0  0  0
   -3.8430   -1.0340   -0.1650 C   0  0  0  0  0  0  0  0  0  0  0  0
   -5.0640   -0.9610    0.6560 C   0  0  0  0  0  0  0  0  0  0  0  0
   -5.3390    0.0020    1.3710 O   0  0  0  0  0  0  0  0  0  0  0  0
   -5.9890   -2.0480    0.6390 N   0  0  0  0  0  0  0  0  0  0  0  0
   -7.2050   -1.9890    1.4490 C   0  0  0  0  0  0  0  0  0  0  0  0
   -8.0370   -0.8250    1.0480 C   0  0  0  0  0  0  0  0  0  0  0  0
   -8.3950    0.1800    1.8300 C   0  0  0  0  0  0  0  0  0  0  0  0
   -9.2240    1.1490    1.0680 C   0  0  0  0  0  0  0  0  0  0  0  0
   -9.2870    0.5450   -0.2790 C   0  0  0  0  0  0  0  0  0  0  0  0
   -8.6000   -0.5830   -0.2630 C   0  0  0  0  0  0  0  0  0  0  0  0
   -3.4570   -2.1490   -1.0390 C   0  0  1  0  0  0  0  0  0  0  0  0
   -4.5320   -2.4780   -2.0590 C   0  0  0  0  0  0  0  0  0  0  0  0
   -2.2250   -1.7990   -1.6250 N   0  0  0  0  0  0  0  0  0  0  0  0
   -1.8670   -0.6110   -1.1860 C   0  0  0  0  0  0  0  0  0  0  0  0
   -0.7640    0.1200   -1.5080 N   0  0  0  0  0  0  0  0  0  0  0  0
    0.3620    0.4400   -1.3420 C   0  0  0  0  0  0  0  0  0  0  0  0
    1.3910    0.0110   -0.3510 C   0  0  0  0  0  0  0  0  0  0  0  0
    2.6410    0.5060   -0.3290 N   0  0  0  0  0  0  0  0  0  0  0  0
    3.5140    0.2900    0.3400 C   0  0  0  0  0  0  0  0  0  0  0  0
    4.9380    0.6190    0.6380 N   0  0  0  0  0  0  0  0  0  0  0  0
    5.5930    1.5710   -0.1520 C   0  0  0  0  0  0  0  0  0  0  0  0
    4.8920    2.0910   -1.0870 O   0  0  0  0  0  0  0  0  0  0  0  0
    6.9380    1.9770    0.0210 N   0  0  0  0  0  0  0  0  0  0  0  0
    7.4860    2.9920   -0.8640 C   0  0  0  0  0  0  0  0  0  0  0  0
    7.8130    1.4430    1.0150 C   0  0  0  0  0  0  0  0  0  0  0  0
    8.6300    0.2950    0.5780 C   0  0  0  0  0  0  0  0  0  0  0  0
    8.2530   -1.0250    0.6540 C   0  0  0  0  0  0  0  0  0  0  0  0
    9.0790   -2.0140    0.2240 N   0  0  0  0  0  0  0  0  0  0  0  0
   10.2840   -1.7850   -0.2890 C   0  0  0  0  0  0  0  0  0  0  0  0
   10.6940   -0.4740   -0.3800 C   0  0  0  0  0  0  0  0  0  0  0  0
   11.9210   -0.1420   -0.8960 F   0  0  0  0  0  0  0  0  0  0  0  0
    9.8930    0.5640    0.0420 C   0  0  0  0  0  0  0  0  0  0  0  0
    2.7530   -1.0150    1.4900 S   0  0  0  0  0  0  0  0  0  0  0  0
    1.1800   -0.8950    0.5990 C   0  0  0  0  0  0  0  0  0  0  0  0
   -0.2860   -1.8840    1.0460 Cl  0  0  0  0  0  0  0  0  0  0  0  0
  1  2  1  0
  2  3  1  0
  3  4  2  0
  3 17  1  0
  4  5  1  0
  4 14  1  0
  5  6  2  0
  5  7  1  0
  7  8  1  0
  8  9  1  0
  9 10  2  0
  9 13  1  0
 10 11  1  0
 11 12  1  0
 12 13  2  0
 14 15  1  6
 14 16  1  0
 16 17  2  0
 17 18  1  0
 18 19  2  3
 19 20  1  0
 20 21  1  0
 20 37  2  0
 21 22  2  0
 22 23  1  0
 22 36  1  0
 23 24  1  0
 24 25  2  0
 24 26  1  0
 26 27  1  0
 26 28  1  0
 28 29  1  0
 29 30  2  0
 29 35  1  0
 30 31  1  0
 31 32  2  0
 32 33  1  0
 33 34  1  0
 33 35  2  0
 36 37  1  0
 37 38  1  0
M  CHG  1  16   1
M  END
