
     RDKit          3D

 38 41  0  0  0  0  0  0  0  0999 V2000
   -2.3820    5.9630    2.7350 N   0  0  0  0  0  0  0  0  0  0  0  0
   -2.0950    5.9430    1.3270 C   0  0  0  0  0  0  0  0  0  0  0  0
   -1.7320    7.0210    0.7550 N   0  0  0  0  0  0  0  0  0  0  0  0
   -2.2220    4.7120    0.5760 C   0  0  0  0  0  0  0  0  0  0  0  0
   -1.9750    4.6120   -0.7620 C   0  0  0  0  0  0  0  0  0  0  0  0
   -2.1280    3.3710   -1.3850 C   0  0  0  0  0  0  0  0  0  0  0  0
   -2.5200    2.2530   -0.6860 C   0  0  0  0  0  0  0  0  0  0  0  0
   -2.7750    2.3450    0.6830 C   0  0  0  0  0  0  0  0  0  0  0  0
   -3.1950    1.1380    1.4580 C   0  0  0  0  0  0  0  0  0  0  0  0
   -2.9280   -0.0430    0.7240 O   0  0  0  0  0  0  0  0  0  0  0  0
   -1.6720   -0.4230    0.3270 C   0  0  0  0  0  0  0  0  0  0  0  0
   -1.5460   -1.6060   -0.4050 C   0  0  0  0  0  0  0  0  0  0  0  0
   -0.3380   -2.0880   -0.8590 C   0  0  0  0  0  0  0  0  0  0  0  0
   -0.1780   -3.2370   -1.5740 O   0  0  0  0  0  0  0  0  0  0  0  0
   -1.1530   -4.1310   -1.9770 C   0  0  0  0  0  0  0  0  0  0  0  0
   -1.9140   -4.7650   -0.8750 C   0  0  0  0  0  0  0  0  0  0  0  0
   -1.5420   -4.6880    0.4500 C   0  0  0  0  0  0  0  0  0  0  0  0
   -2.3320   -5.3120    1.3650 C   0  0  0  0  0  0  0  0  0  0  0  0
   -3.4840   -6.0140    1.0130 C   0  0  0  0  0  0  0  0  0  0  0  0
   -3.8660   -6.0980   -0.3060 C   0  0  0  0  0  0  0  0  0  0  0  0
   -5.0500   -6.8060   -0.7740 C   0  0  0  0  0  0  0  0  0  0  0  0
   -5.3590   -6.8270   -2.1600 N   0  0  0  0  0  0  0  0  0  0  0  0
   -5.8250   -7.4150    0.0370 N   0  0  0  0  0  0  0  0  0  0  0  0
   -3.0520   -5.4570   -1.2260 C   0  0  0  0  0  0  0  0  0  0  0  0
    0.8020   -1.3320   -0.5540 C   0  0  0  0  0  0  0  0  0  0  0  0
    0.7100   -0.1640    0.1650 C   0  0  0  0  0  0  0  0  0  0  0  0
    1.9000    0.5950    0.4610 C   0  0  0  0  0  0  0  0  0  0  0  0
    1.8740    1.3240    1.4970 O   0  0  0  0  0  0  0  0  0  0  0  0
    3.0540    0.5350   -0.3700 N   0  0  0  0  0  0  0  0  0  0  0  0
    4.2270    1.3160   -0.0230 C   0  0  1  0  0  0  0  0  0  0  0  0
    5.4050    0.3970    0.0430 C   0  0  0  0  0  0  0  0  0  0  0  0
    6.6940    1.0950   -0.3440 C   0  0  0  0  0  0  0  0  0  0  0  0
    6.6190    2.5790   -0.0560 C   0  0  2  0  0  0  0  0  0  0  0  0
    6.4140    2.8750    1.3320 N   0  0  0  0  0  0  0  0  0  0  0  0
    5.6310    3.2010   -0.9800 C   0  0  0  0  0  0  0  0  0  0  0  0
    4.3800    2.4200   -1.0340 C   0  0  0  0  0  0  0  0  0  0  0  0
   -0.5100    0.2900    0.6030 C   0  0  0  0  0  0  0  0  0  0  0  0
   -2.6180    3.5700    1.2680 C   0  0  0  0  0  0  0  0  0  0  0  0
  1  2  1  0
  2  3  2  0
  2  4  1  0
  4  5  2  0
  4 38  1  0
  5  6  1  0
  6  7  2  0
  7  8  1  0
  8  9  1  0
  8 38  2  0
  9 10  1  0
 10 11  1  0
 11 12  2  0
 11 37  1  0
 12 13  1  0
 13 14  1  0
 13 25  2  0
 14 15  1  0
 15 16  1  0
 16 17  2  0
 16 24  1  0
 17 18  1  0
 18 19  2  0
 19 20  1  0
 20 21  1  0
 20 24  2  0
 21 22  1  0
 21 23  2  0
 25 26  1  0
 26 27  1  0
 26 37  2  0
 27 28  2  0
 27 29  1  0
 30 29  1  6
 30 31  1  0
 30 36  1  0
 31 32  1  0
 32 33  1  0
 33 34  1  1
 33 35  1  0
 35 36  1  0
M  CHG  3   3   1  23   1  34   1
M  END
