
     RDKit          3D

 38 41  0  0  0  0  0  0  0  0999 V2000
    9.8680   -0.6120    1.7160 C   0  0  0  0  0  0  0  0  0  0  0  0
   10.1610    0.3020    0.5480 C   0  0  0  0  0  0  0  0  0  0  0  0
    8.9430    0.6150   -0.1870 N   0  0  0  0  0  0  0  0  0  0  0  0
    8.1540   -0.3900   -0.7940 C   0  0  0  0  0  0  0  0  0  0  0  0
    8.5810   -1.5870   -0.6550 O   0  0  0  0  0  0  0  0  0  0  0  0
    6.9610   -0.1420   -1.5200 N   0  0  0  0  0  0  0  0  0  0  0  0
    6.4090    1.1780   -1.7260 C   0  0  0  0  0  0  0  0  0  0  0  0
    4.9750    1.1740   -1.2180 C   0  0  0  0  0  0  0  0  0  0  0  0
    4.3060   -0.0000   -1.7430 N   0  0  0  0  0  0  0  0  0  0  0  0
    3.0110   -0.3570   -1.2810 C   0  0  0  0  0  0  0  0  0  0  0  0
    2.3530    0.3200   -0.2950 C   0  0  0  0  0  0  0  0  0  0  0  0
    1.0910   -0.0330    0.1470 C   0  0  0  0  0  0  0  0  0  0  0  0
    0.4070    0.7240    1.2270 C   0  0  0  0  0  0  0  0  0  0  0  0
   -0.9310    0.1930    1.3720 N   0  0  0  0  0  0  0  0  0  0  0  0
   -1.9940    0.4910    0.4580 C   0  0  0  0  0  0  0  0  0  0  0  0
   -1.7200    1.2330   -0.4790 O   0  0  0  0  0  0  0  0  0  0  0  0
   -3.2910   -0.0360    0.6200 N   0  0  0  0  0  0  0  0  0  0  0  0
   -4.3920    0.2030   -0.2220 C   0  0  0  0  0  0  0  0  0  0  0  0
   -4.3640    0.9880   -1.3480 C   0  0  0  0  0  0  0  0  0  0  0  0
   -5.4870    1.1970   -2.1570 C   0  0  0  0  0  0  0  0  0  0  0  0
   -5.4250    1.9780   -3.2610 F   0  0  0  0  0  0  0  0  0  0  0  0
   -6.6790    0.6150   -1.8480 C   0  0  0  0  0  0  0  0  0  0  0  0
   -6.7190   -0.1740   -0.7220 C   0  0  0  0  0  0  0  0  0  0  0  0
   -5.6240   -0.3900    0.0840 C   0  0  0  0  0  0  0  0  0  0  0  0
   -5.7000   -1.2540    1.2990 C   0  0  0  0  0  0  0  0  0  0  0  0
   -7.3410   -1.9230    1.5490 S   0  0  0  0  0  0  0  0  0  0  0  0
   -8.5270   -0.6710    1.9470 C   0  0  0  0  0  0  0  0  0  0  0  0
   -9.8380   -1.0290    2.1600 C   0  0  0  0  0  0  0  0  0  0  0  0
  -10.7940   -0.0960    2.4720 C   0  0  0  0  0  0  0  0  0  0  0  0
  -10.4540    1.1900    2.5730 N   0  0  0  0  0  0  0  0  0  0  0  0
   -9.1780    1.5600    2.3690 C   0  0  0  0  0  0  0  0  0  0  0  0
   -8.8120    3.2730    2.5190 Cl  0  0  0  0  0  0  0  0  0  0  0  0
   -8.1880    0.6570    2.0530 C   0  0  0  0  0  0  0  0  0  0  0  0
    0.5100   -1.1410   -0.4780 C   0  0  0  0  0  0  0  0  0  0  0  0
    1.1660   -1.8270   -1.4700 C   0  0  0  0  0  0  0  0  0  0  0  0
    2.3900   -1.4230   -1.8450 N   0  0  0  0  0  0  0  0  0  0  0  0
    4.9720   -0.8150   -2.7440 C   0  0  0  0  0  0  0  0  0  0  0  0
    6.2630   -1.2870   -2.0830 C   0  0  0  0  0  0  0  0  0  0  0  0
  1  2  1  0
  2  3  1  0
  3  4  1  0
  4  5  2  0
  4  6  1  0
  6  7  1  0
  6 38  1  0
  7  8  1  0
  8  9  1  0
  9 10  1  0
  9 37  1  0
 10 11  2  0
 10 36  1  0
 11 12  1  0
 12 13  1  0
 12 34  2  0
 13 14  1  0
 14 15  1  0
 15 16  2  0
 15 17  1  0
 17 18  1  0
 18 19  2  0
 18 24  1  0
 19 20  1  0
 20 21  1  0
 20 22  2  0
 22 23  1  0
 23 24  2  0
 24 25  1  0
 25 26  1  0
 26 27  1  0
 27 28  2  0
 27 33  1  0
 28 29  1  0
 29 30  2  0
 30 31  1  0
 31 32  1  0
 31 33  2  0
 34 35  1  0
 35 36  2  0
 37 38  1  0
M  CHG  1  30   1
M  END
