
     RDKit          3D

 37 40  0  0  0  0  0  0  0  0999 V2000
    7.9100   -0.6600   -0.3370 C   0  0  0  0  0  0  0  0  0  0  0  0
    7.1130    0.4540   -0.9300 C   0  0  0  0  0  0  0  0  0  0  0  0
    6.1130    0.9820    0.0480 C   0  0  0  0  0  0  0  0  0  0  0  0
    6.1720    2.1040    0.7730 N   0  0  0  0  0  0  0  0  0  0  0  0
    5.0780    2.2270    1.5420 N   0  0  0  0  0  0  0  0  0  0  0  0
    4.8200    3.3040    2.4360 C   0  0  0  0  0  0  0  0  0  0  0  0
    4.2660    1.1760    1.3370 C   0  0  0  0  0  0  0  0  0  0  0  0
    2.9820    0.8030    1.8910 C   0  0  1  0  0  0  0  0  0  0  0  0
    2.4210    1.6890    2.9480 C   0  0  0  0  0  0  0  0  0  0  0  0
    1.9190    0.6610    0.8820 N   0  0  0  0  0  0  0  0  0  0  0  0
    1.1630   -0.5220    0.7210 C   0  0  0  0  0  0  0  0  0  0  0  0
    1.4310   -1.4800    1.4890 O   0  0  0  0  0  0  0  0  0  0  0  0
    0.1320   -0.6720   -0.2540 N   0  0  0  0  0  0  0  0  0  0  0  0
   -0.1130    0.4670   -1.1020 C   0  0  0  0  0  0  0  0  0  0  0  0
   -0.9370    0.1350   -2.3300 C   0  0  0  0  0  0  0  0  0  0  0  0
   -2.0330   -0.8490   -2.0010 C   0  0  1  0  0  0  0  0  0  0  0  0
   -2.8150   -0.3560   -0.8620 C   0  0  0  0  0  0  0  0  0  0  0  0
   -2.7770    0.9050   -0.6050 O   0  0  0  0  0  0  0  0  0  0  0  0
   -3.6170   -1.1120    0.0070 N   0  0  0  0  0  0  0  0  0  0  0  0
   -4.3610   -0.5380    1.1200 C   0  0  0  0  0  0  0  0  0  0  0  0
   -5.1060   -0.9000    1.9860 N   0  0  0  0  0  0  0  0  0  0  0  0
   -5.6620   -0.1670    2.9100 C   0  0  0  0  0  0  0  0  0  0  0  0
   -6.5990   -0.7010    3.9680 C   0  0  0  0  0  0  0  0  0  0  0  0
   -8.2620   -0.2340    3.5010 Cl  0  0  0  0  0  0  0  0  0  0  0  0
   -5.3490    1.1720    2.8720 C   0  0  0  0  0  0  0  0  0  0  0  0
   -5.7740    2.3100    3.7420 C   0  0  0  0  0  0  0  0  0  0  0  0
   -4.2420    1.2620    1.4610 S   0  0  0  0  0  0  0  0  0  0  0  0
   -2.8140   -1.1710   -3.1970 C   0  0  0  0  0  0  0  0  0  0  0  0
   -3.9510   -1.9370   -3.1840 C   0  0  0  0  0  0  0  0  0  0  0  0
   -4.6270   -2.1760   -4.3830 C   0  0  0  0  0  0  0  0  0  0  0  0
   -4.1610   -1.6570   -5.5310 N   0  0  0  0  0  0  0  0  0  0  0  0
   -3.0510   -0.9030   -5.5750 C   0  0  0  0  0  0  0  0  0  0  0  0
   -2.3620   -0.6480   -4.4140 C   0  0  0  0  0  0  0  0  0  0  0  0
   -1.2930   -2.1430   -1.6280 C   0  0  0  0  0  0  0  0  0  0  0  0
   -0.5880   -1.9190   -0.3370 C   0  0  0  0  0  0  0  0  0  0  0  0
    4.9180    0.3900    0.3940 C   0  0  0  0  0  0  0  0  0  0  0  0
    4.4510   -0.8950   -0.1910 C   0  0  0  0  0  0  0  0  0  0  0  0
  1  2  1  0
  2  3  1  0
  3  4  2  0
  3 36  1  0
  4  5  1  0
  5  6  1  0
  5  7  1  0
  7  8  1  0
  7 36  2  0
  8  9  1  1
  8 10  1  0
 10 11  1  0
 11 12  2  0
 11 13  1  0
 13 14  1  0
 13 35  1  0
 14 15  1  0
 15 16  1  0
 16 17  1  1
 16 28  1  0
 16 34  1  0
 17 18  2  0
 17 19  1  0
 19 20  1  0
 20 21  2  0
 20 27  1  0
 21 22  1  0
 22 23  1  0
 22 25  2  0
 23 24  1  0
 25 26  1  0
 25 27  1  0
 28 29  2  0
 28 33  1  0
 29 30  1  0
 30 31  2  0
 31 32  1  0
 32 33  2  0
 34 35  1  0
 36 37  1  0
M  CHG  1  31   1
M  END
