
     RDKit          3D

 38 41  0  0  0  0  0  0  0  0999 V2000
   -8.6990    4.7720    2.0450 C   0  0  0  0  0  0  0  0  0  0  0  0
   -7.7810    3.9900    1.4080 C   0  0  0  0  0  0  0  0  0  0  0  0
   -6.8560    4.6340    0.6800 F   0  0  0  0  0  0  0  0  0  0  0  0
   -7.8020    2.5630    1.6140 C   0  0  0  0  0  0  0  0  0  0  0  0
   -7.1840    1.5370    1.2180 C   0  0  0  0  0  0  0  0  0  0  0  0
   -6.1170    1.2360    0.3210 C   0  0  0  0  0  0  0  0  0  0  0  0
   -5.3260    0.0880    0.5890 C   0  0  0  0  0  0  0  0  0  0  0  0
   -4.3560   -0.3200   -0.2700 C   0  0  0  0  0  0  0  0  0  0  0  0
   -3.5350   -1.5160    0.0130 C   0  0  0  0  0  0  0  0  0  0  0  0
   -3.6840   -2.2110    1.0450 O   0  0  0  0  0  0  0  0  0  0  0  0
   -2.5470   -1.8840   -0.9190 N   0  0  0  0  0  0  0  0  0  0  0  0
   -1.6870   -3.0410   -0.7360 C   0  0  1  0  0  0  0  0  0  0  0  0
   -1.7760   -4.0160   -1.8490 C   0  0  0  0  0  0  0  0  0  0  0  0
   -0.7100   -5.0670   -1.6300 C   0  0  0  0  0  0  0  0  0  0  0  0
    0.0080   -4.8930   -0.3380 C   0  0  0  0  0  0  0  0  0  0  0  0
    0.6420   -3.5430   -0.3620 N   0  0  0  0  0  0  0  0  0  0  0  0
    2.0310   -3.4480   -0.1620 C   0  0  0  0  0  0  0  0  0  0  0  0
    2.8710   -4.8780    0.0890 S   0  0  0  0  0  0  0  0  0  0  0  0
    2.7620   -2.2720   -0.1540 N   0  0  0  0  0  0  0  0  0  0  0  0
    2.3090   -0.9300   -0.3420 C   0  0  0  0  0  0  0  0  0  0  0  0
    3.4910   -0.0140   -0.1450 C   0  0  0  0  0  0  0  0  0  0  0  0
    4.2580    0.3900   -1.2040 C   0  0  0  0  0  0  0  0  0  0  0  0
    5.3480    1.2330   -1.0410 C   0  0  0  0  0  0  0  0  0  0  0  0
    5.6580    1.6740    0.2490 C   0  0  0  0  0  0  0  0  0  0  0  0
    6.7830    2.5710    0.4490 C   0  0  0  0  0  0  0  0  0  0  0  0
    8.0050    2.2770   -0.1060 C   0  0  0  0  0  0  0  0  0  0  0  0
    9.0420    3.1870    0.1190 C   0  0  0  0  0  0  0  0  0  0  0  0
    8.8420    4.2950    0.8440 N   0  0  0  0  0  0  0  0  0  0  0  0
    7.6490    4.5340    1.3560 N   0  0  0  0  0  0  0  0  0  0  0  0
    6.5920    3.7120    1.1910 C   0  0  0  0  0  0  0  0  0  0  0  0
    4.8950    1.2770    1.3330 C   0  0  0  0  0  0  0  0  0  0  0  0
    5.3030    1.8280    2.9390 Cl  0  0  0  0  0  0  0  0  0  0  0  0
    3.8100    0.4260    1.1010 C   0  0  0  0  0  0  0  0  0  0  0  0
   -0.2790   -2.4690   -0.5920 C   0  0  0  0  0  0  0  0  0  0  0  0
   -4.1540    0.3870   -1.3900 N   0  0  0  0  0  0  0  0  0  0  0  0
   -4.8680    1.4460   -1.6620 N   0  0  0  0  0  0  0  0  0  0  0  0
   -5.8590    1.9080   -0.8430 C   0  0  0  0  0  0  0  0  0  0  0  0
   -6.4930    2.9410   -1.2230 O   0  0  0  0  0  0  0  0  0  0  0  0
  1  2  2  0
  2  3  1  0
  2  4  1  0
  4  5  2  3
  5  6  1  0
  6  7  2  0
  6 37  1  0
  7  8  1  0
  8  9  1  0
  8 35  2  0
  9 10  2  0
  9 11  1  0
 12 11  1  6
 12 13  1  0
 12 34  1  0
 13 14  1  0
 14 15  1  0
 15 16  1  0
 16 17  1  0
 16 34  1  0
 17 18  2  0
 17 19  1  0
 19 20  1  0
 20 21  1  0
 21 22  2  0
 21 33  1  0
 22 23  1  0
 23 24  2  0
 24 25  1  0
 24 31  1  0
 25 26  2  0
 25 30  1  0
 26 27  1  0
 27 28  2  0
 28 29  1  0
 29 30  2  0
 31 32  1  0
 31 33  2  0
 35 36  1  0
 36 37  1  0
 37 38  2  0
M  CHG  1  28   1
M  END
