
     RDKit          3D

 31 34  0  0  0  0  0  0  0  0999 V2000
    9.2670    0.0990   -1.0860 C   0  0  0  0  0  0  0  0  0  0  0  0
    8.1910   -0.9440   -0.9810 C   0  0  0  0  0  0  0  0  0  0  0  0
    6.9480   -0.8180   -1.4430 C   0  0  0  0  0  0  0  0  0  0  0  0
    6.4860    0.4080   -2.1300 C   0  0  0  0  0  0  0  0  0  0  0  0
    5.3830    0.9890   -1.3980 N   0  0  0  0  0  0  0  0  0  0  0  0
    4.1490    0.3500   -1.1580 C   0  0  0  0  0  0  0  0  0  0  0  0
    3.9290   -0.7960   -1.5890 O   0  0  0  0  0  0  0  0  0  0  0  0
    3.0920    0.9680   -0.4190 N   0  0  0  0  0  0  0  0  0  0  0  0
    1.8290    0.3360   -0.1640 C   0  0  1  0  0  0  0  0  0  0  0  0
    1.5570    0.1020    1.2880 C   0  0  0  0  0  0  0  0  0  0  0  0
    0.0440   -0.0750    1.4600 C   0  0  0  0  0  0  0  0  0  0  0  0
   -0.5550    1.2960    1.2960 C   0  0  2  0  0  0  0  0  0  0  0  0
   -1.9740    1.3110    1.2080 N   0  0  2  0  0  0  0  0  0  0  0  0
   -2.5760    0.6620    2.3790 C   0  0  0  0  0  0  0  0  0  0  0  0
   -4.0320    1.0720    2.3220 C   0  0  0  0  0  0  0  0  0  0  0  0
   -4.6500    0.5240    1.1880 N   0  0  0  0  0  0  0  0  0  0  0  0
   -5.2520   -0.7790    1.4010 C   0  0  1  0  0  0  0  0  0  0  0  0
   -6.3510   -0.6450    2.4280 C   0  0  0  0  0  0  0  0  0  0  0  0
   -5.8940   -1.2300    0.1190 C   0  0  0  0  0  0  0  0  0  0  0  0
   -6.6680   -0.5010   -0.7080 N   0  0  0  0  0  0  0  0  0  0  0  0
   -7.0680   -1.2350   -1.7620 C   0  0  0  0  0  0  0  0  0  0  0  0
   -7.9320   -0.8010   -2.9010 C   0  0  0  0  0  0  0  0  0  0  0  0
   -6.5280   -2.4560   -1.5870 N   0  0  0  0  0  0  0  0  0  0  0  0
   -5.8220   -2.4530   -0.4550 N   0  0  0  0  0  0  0  0  0  0  0  0
   -3.9710    0.6360   -0.0560 C   0  0  0  0  0  0  0  0  0  0  0  0
   -2.4990    0.7640   -0.0160 C   0  0  0  0  0  0  0  0  0  0  0  0
    0.0770    2.0680    0.1820 C   0  0  0  0  0  0  0  0  0  0  0  0
    0.7520    1.1780   -0.8390 C   0  0  0  0  0  0  0  0  0  0  0  0
    6.2260   -2.0030   -1.1620 N   0  0  0  0  0  0  0  0  0  0  0  0
    6.9530   -2.8650   -0.5490 C   0  0  0  0  0  0  0  0  0  0  0  0
    8.2900   -2.2820   -0.3650 C   0  0  0  0  0  0  0  0  0  0  0  0
  1  2  1  0
  2  3  2  0
  2 31  1  0
  3  4  1  0
  3 29  1  0
  4  5  1  0
  5  6  1  0
  6  7  2  0
  6  8  1  0
  9  8  1  1
  9 10  1  0
  9 28  1  0
 10 11  1  0
 12 11  1  6
 12 13  1  0
 12 27  1  0
 13 14  1  1
 13 26  1  0
 14 15  1  0
 15 16  1  0
 16 17  1  0
 16 25  1  0
 17 18  1  1
 17 19  1  0
 19 20  2  0
 19 24  1  0
 20 21  1  0
 21 22  1  0
 21 23  2  0
 23 24  1  0
 25 26  1  0
 27 28  1  0
 29 30  2  0
 30 31  1  0
M  CHG  1  13   1
M  END
