
     RDKit          3D

 31 34  0  0  0  0  0  0  0  0999 V2000
    5.2960   -2.7810   -2.7850 C   0  0  0  0  0  0  0  0  0  0  0  0
    4.2970   -3.1440   -1.7070 C   0  0  0  0  0  0  0  0  0  0  0  0
    3.5320   -2.0040   -1.2580 N   0  0  0  0  0  0  0  0  0  0  0  0
    4.1170   -0.8580   -0.6770 C   0  0  0  0  0  0  0  0  0  0  0  0
    5.3670   -0.8490   -0.5570 O   0  0  0  0  0  0  0  0  0  0  0  0
    3.3560    0.2580   -0.2340 N   0  0  0  0  0  0  0  0  0  0  0  0
    4.0030    1.3740    0.3430 C   0  0  0  0  0  0  0  0  0  0  0  0
    3.1280    2.5060    0.7950 C   0  0  0  0  0  0  0  0  0  0  0  0
    2.1760    2.1520    1.7950 N   0  0  0  0  0  0  0  0  0  0  0  0
    2.4970    2.1930    3.1290 C   0  0  0  0  0  0  0  0  0  0  0  0
    3.7690    2.5990    3.7710 C   0  0  0  0  0  0  0  0  0  0  0  0
    1.3960    1.7790    3.7600 N   0  0  0  0  0  0  0  0  0  0  0  0
    0.4470    1.4970    2.9080 N   0  0  0  0  0  0  0  0  0  0  0  0
    0.9200    1.7280    1.6290 C   0  0  0  0  0  0  0  0  0  0  0  0
    0.1000    1.5590    0.4800 N   0  0  0  0  0  0  0  0  0  0  0  0
    0.1350    2.4260   -0.6410 C   0  0  0  0  0  0  0  0  0  0  0  0
   -1.1440    2.6210   -1.4000 C   0  0  0  0  0  0  0  0  0  0  0  0
   -2.2760    1.9380   -0.8200 C   0  0  0  0  0  0  0  0  0  0  0  0
   -3.6390    2.1420   -0.9930 C   0  0  0  0  0  0  0  0  0  0  0  0
   -4.2850    1.2000   -0.2200 C   0  0  0  0  0  0  0  0  0  0  0  0
   -5.7760    1.0750   -0.1190 C   0  0  0  0  0  0  0  0  0  0  0  0
   -3.3640    0.4480    0.4030 N   0  0  0  0  0  0  0  0  0  0  0  0
   -3.6950   -0.6580    1.3070 C   0  0  0  0  0  0  0  0  0  0  0  0
   -3.8150   -1.9360    0.5660 C   0  0  0  0  0  0  0  0  0  0  0  0
   -2.7040   -2.7220    0.3600 C   0  0  0  0  0  0  0  0  0  0  0  0
   -2.7990   -3.9290   -0.3370 C   0  0  0  0  0  0  0  0  0  0  0  0
   -4.0060   -4.3450   -0.8260 C   0  0  0  0  0  0  0  0  0  0  0  0
   -5.1130   -3.5400   -0.6100 C   0  0  0  0  0  0  0  0  0  0  0  0
   -4.9930   -2.3750    0.0690 N   0  0  0  0  0  0  0  0  0  0  0  0
   -2.1600    0.8870    0.0460 C   0  0  0  0  0  0  0  0  0  0  0  0
   -0.8080    0.4000    0.4750 C   0  0  0  0  0  0  0  0  0  0  0  0
  1  2  1  0
  2  3  1  0
  3  4  1  0
  4  5  2  0
  4  6  1  0
  6  7  1  0
  7  8  1  0
  8  9  1  0
  9 10  1  0
  9 14  1  0
 10 11  1  0
 10 12  2  0
 12 13  1  0
 13 14  2  0
 14 15  1  0
 15 16  1  0
 15 31  1  0
 16 17  1  0
 17 18  1  0
 18 19  1  0
 18 30  2  0
 19 20  2  0
 20 21  1  0
 20 22  1  0
 22 23  1  0
 22 30  1  0
 23 24  1  0
 24 25  2  0
 24 29  1  0
 25 26  1  0
 26 27  2  0
 27 28  1  0
 28 29  2  0
 30 31  1  0
M  CHG  1  29   1
M  END
