
     RDKit          3D

 35 37  0  0  0  0  0  0  0  0999 V2000
    2.2490   -5.5310    0.8940 C   0  0  0  0  0  0  0  0  0  0  0  0
    0.9260   -4.9100    0.5320 C   0  0  0  0  0  0  0  0  0  0  0  0
    1.2210   -3.5930   -0.1800 C   0  0  2  0  0  0  0  0  0  0  0  0
    1.9910   -2.7220    0.7820 C   0  0  0  0  0  0  0  0  0  0  0  0
    3.3610   -2.3320    0.2300 C   0  0  0  0  0  0  0  0  0  0  0  0
    3.8200   -1.2640    1.0000 O   0  0  0  0  0  0  0  0  0  0  0  0
    4.6090   -0.3730    0.2900 C   0  0  0  0  0  0  0  0  0  0  0  0
    3.7610    0.7950   -0.1210 C   0  0  2  0  0  0  0  0  0  0  0  0
    4.1560    1.2430   -1.5260 C   0  0  0  0  0  0  0  0  0  0  0  0
    5.6070    1.6620   -1.6020 C   0  0  0  0  0  0  0  0  0  0  0  0
    5.8840    2.7250   -0.7450 O   0  0  0  0  0  0  0  0  0  0  0  0
    3.8620    1.9200    0.7850 N   0  0  0  0  0  0  0  0  0  0  0  0
    2.7920    2.7790    1.1150 C   0  0  0  0  0  0  0  0  0  0  0  0
    2.9640    4.0120    1.2930 O   0  0  0  0  0  0  0  0  0  0  0  0
    1.3770    2.2860    1.2780 C   0  0  0  0  0  0  0  0  0  0  0  0
    0.6700    2.1570   -0.0530 C   0  0  0  0  0  0  0  0  0  0  0  0
   -0.4750    3.1340   -0.1730 C   0  0  0  0  0  0  0  0  0  0  0  0
   -0.2070    4.2160   -0.7530 O   0  0  0  0  0  0  0  0  0  0  0  0
   -1.8060    2.8520    0.3460 C   0  0  0  0  0  0  0  0  0  0  0  0
   -2.7310    4.0630    0.2560 C   0  0  0  0  0  0  0  0  0  0  0  0
   -2.2920    1.7410    0.8630 C   0  0  0  0  0  0  0  0  0  0  0  0
   -3.7570    1.8280    1.2990 C   0  0  0  0  0  0  0  0  0  0  0  0
   -4.5390    0.8520    0.4320 C   0  0  1  0  0  0  0  0  0  0  0  0
   -5.1470   -0.1460    1.4680 C   0  0  0  0  0  0  0  0  0  0  0  0
   -5.6060    1.4710   -0.3330 C   0  0  0  0  0  0  0  0  0  0  0  0
   -5.7700    1.1500   -1.7430 C   0  0  0  0  0  0  0  0  0  0  0  0
   -4.9370    0.3800   -2.3870 C   0  0  0  0  0  0  0  0  0  0  0  0
   -3.8220   -0.1710   -1.6430 C   0  0  0  0  0  0  0  0  0  0  0  0
   -3.5760    0.0110   -0.3750 C   0  0  0  0  0  0  0  0  0  0  0  0
   -2.3400   -0.5450    0.3030 C   0  0  0  0  0  0  0  0  0  0  0  0
   -2.1450   -1.8000    0.0090 C   0  0  0  0  0  0  0  0  0  0  0  0
   -1.0890   -2.7630    0.4240 C   0  0  0  0  0  0  0  0  0  0  0  0
   -0.0460   -2.9460   -0.6170 C   0  0  0  0  0  0  0  0  0  0  0  0
   -0.1550   -2.6120   -1.7700 O   0  0  0  0  0  0  0  0  0  0  0  0
   -1.6280    0.4560    1.0190 N   0  0  0  0  0  0  0  0  0  0  0  0
  1  2  1  0
  3  2  1  1
  3  4  1  0
  3 33  1  0
  4  5  1  0
  5  6  1  0
  6  7  1  0
  7  8  1  0
  8  9  1  6
  8 12  1  0
  9 10  1  0
 10 11  1  0
 12 13  1  0
 13 14  2  0
 13 15  1  0
 15 16  1  0
 16 17  1  0
 17 18  2  0
 17 19  1  0
 19 20  1  0
 19 21  2  0
 21 22  1  0
 21 35  1  0
 22 23  1  0
 23 24  1  1
 23 25  1  0
 23 29  1  0
 25 26  1  0
 26 27  2  0
 27 28  1  0
 28 29  2  0
 29 30  1  0
 30 31  2  0
 30 35  1  0
 31 32  1  0
 32 33  1  0
 33 34  2  0
M  END
