
     RDKit          3D

 36 39  0  0  0  0  0  0  0  0999 V2000
   -0.4000    8.7670   -0.2340 N   0  0  0  0  0  0  0  0  0  0  0  0
   -1.5090    8.0380    0.2760 C   0  0  0  0  0  0  0  0  0  0  0  0
   -2.3070    8.6170    1.0910 N   0  0  0  0  0  0  0  0  0  0  0  0
   -1.6950    6.6600   -0.1490 C   0  0  0  0  0  0  0  0  0  0  0  0
   -2.7350    5.8830    0.2930 C   0  0  0  0  0  0  0  0  0  0  0  0
   -2.8860    4.5620   -0.1350 C   0  0  0  0  0  0  0  0  0  0  0  0
   -1.9930    4.0190   -1.0090 C   0  0  0  0  0  0  0  0  0  0  0  0
   -2.0910    2.6960   -1.4760 O   0  0  0  0  0  0  0  0  0  0  0  0
   -1.4960    1.6350   -0.8260 C   0  0  0  0  0  0  0  0  0  0  0  0
   -2.1980    0.9490    0.1470 C   0  0  0  0  0  0  0  0  0  0  0  0
   -1.6290   -0.1140    0.8120 C   0  0  0  0  0  0  0  0  0  0  0  0
   -2.3800   -0.7800    1.7890 O   0  0  0  0  0  0  0  0  0  0  0  0
   -3.1580   -1.8800    1.4380 C   0  0  0  0  0  0  0  0  0  0  0  0
   -4.4510   -1.6820    1.0450 C   0  0  0  0  0  0  0  0  0  0  0  0
   -5.2510   -2.7710    0.6870 C   0  0  0  0  0  0  0  0  0  0  0  0
   -4.7090   -4.0200    0.7400 C   0  0  0  0  0  0  0  0  0  0  0  0
   -5.4470   -5.2130    0.3860 C   0  0  0  0  0  0  0  0  0  0  0  0
   -4.8340   -6.4910    0.4670 N   0  0  0  0  0  0  0  0  0  0  0  0
   -6.6550   -5.1400   -0.0040 N   0  0  0  0  0  0  0  0  0  0  0  0
   -3.3840   -4.2020    1.1450 C   0  0  0  0  0  0  0  0  0  0  0  0
   -2.6180   -3.1340    1.4910 C   0  0  0  0  0  0  0  0  0  0  0  0
   -0.3380   -0.5190    0.5200 C   0  0  0  0  0  0  0  0  0  0  0  0
    0.3830    0.1440   -0.4410 C   0  0  0  0  0  0  0  0  0  0  0  0
    1.7230   -0.2750   -0.7500 C   0  0  0  0  0  0  0  0  0  0  0  0
    2.2720    0.1920   -1.7890 O   0  0  0  0  0  0  0  0  0  0  0  0
    2.4590   -1.1720    0.0330 N   0  0  0  0  0  0  0  0  0  0  0  0
    3.7980   -1.5420   -0.3550 C   0  0  1  0  0  0  0  0  0  0  0  0
    4.7410   -1.0830    0.7370 C   0  0  0  0  0  0  0  0  0  0  0  0
    6.1650   -1.4550    0.4700 C   0  0  0  0  0  0  0  0  0  0  0  0
    6.3520   -2.8860    0.0560 C   0  0  2  0  0  0  0  0  0  0  0  0
    7.6160   -2.9740   -0.6540 N   0  0  0  0  0  0  0  0  0  0  0  0
    5.2810   -3.4230   -0.8160 C   0  0  0  0  0  0  0  0  0  0  0  0
    3.8910   -3.0280   -0.4620 C   0  0  0  0  0  0  0  0  0  0  0  0
   -0.2180    1.2240   -1.1060 C   0  0  0  0  0  0  0  0  0  0  0  0
   -0.9500    4.8020   -1.4510 C   0  0  0  0  0  0  0  0  0  0  0  0
   -0.7970    6.0930   -1.0370 C   0  0  0  0  0  0  0  0  0  0  0  0
  1  2  1  0
  2  3  2  0
  2  4  1  0
  4  5  2  0
  4 36  1  0
  5  6  1  0
  6  7  2  0
  7  8  1  0
  7 35  1  0
  8  9  1  0
  9 10  2  0
  9 34  1  0
 10 11  1  0
 11 12  1  0
 11 22  2  0
 12 13  1  0
 13 14  2  0
 13 21  1  0
 14 15  1  0
 15 16  2  0
 16 17  1  0
 16 20  1  0
 17 18  1  0
 17 19  2  0
 20 21  2  0
 22 23  1  0
 23 24  1  0
 23 34  2  0
 24 25  2  0
 24 26  1  0
 27 26  1  1
 27 28  1  0
 27 33  1  0
 28 29  1  0
 29 30  1  0
 30 31  1  6
 30 32  1  0
 32 33  1  0
 35 36  2  0
M  CHG  3   3   1  19   1  31   1
M  END
