
     RDKit          3D

 35 38  0  0  0  0  0  0  0  0999 V2000
    9.5190   -1.6940    0.1370 C   0  0  0  0  0  0  0  0  0  0  0  0
    8.0920   -2.1800    0.2550 C   0  0  0  0  0  0  0  0  0  0  0  0
    7.2410   -1.0140    0.4770 N   0  0  0  0  0  0  0  0  0  0  0  0
    7.2090   -0.2770   -0.7630 C   0  0  0  0  0  0  0  0  0  0  0  0
    6.7450    1.1610   -0.5150 C   0  0  0  0  0  0  0  0  0  0  0  0
    7.7070    2.0870   -0.1850 C   0  0  0  0  0  0  0  0  0  0  0  0
    6.6930    3.5960    0.0030 S   0  0  0  0  0  0  0  0  0  0  0  0
    5.1380    2.8340   -0.3710 C   0  0  0  0  0  0  0  0  0  0  0  0
    3.8200    3.5170   -0.4050 C   0  0  0  0  0  0  0  0  0  0  0  0
    2.8200    2.5200   -0.4830 O   0  0  0  0  0  0  0  0  0  0  0  0
    2.6880    1.5620    0.5240 C   0  0  0  0  0  0  0  0  0  0  0  0
    3.5200    1.6660    1.4890 O   0  0  0  0  0  0  0  0  0  0  0  0
    1.7090    0.5480    0.4910 N   0  0  0  0  0  0  0  0  0  0  0  0
    1.6340   -0.4030    1.5650 C   0  0  0  0  0  0  0  0  0  0  0  0
    0.3170   -0.1240    2.3010 C   0  0  0  0  0  0  0  0  0  0  0  0
   -0.7670   -0.2520    1.2570 C   0  0  0  0  0  0  0  0  0  0  0  0
   -2.0040   -0.6360    1.6180 N   0  0  0  0  0  0  0  0  0  0  0  0
   -2.9870   -0.7590    0.7130 C   0  0  0  0  0  0  0  0  0  0  0  0
   -4.1600   -1.1310    1.1070 N   0  0  0  0  0  0  0  0  0  0  0  0
   -5.2380   -1.2680    0.1270 C   0  0  0  0  0  0  0  0  0  0  0  0
   -5.0750   -2.2830   -0.6180 O   0  0  0  0  0  0  0  0  0  0  0  0
   -6.2750   -0.3580    0.0840 N   0  0  0  0  0  0  0  0  0  0  0  0
   -6.3690    0.8400    0.9560 C   0  0  0  0  0  0  0  0  0  0  0  0
   -6.7190    1.9150   -0.0940 C   0  0  0  0  0  0  0  0  0  0  0  0
   -7.1160    1.1380   -1.3680 C   0  0  0  0  0  0  0  0  0  0  0  0
   -7.4380   -0.2140   -0.7130 C   0  0  1  0  0  0  0  0  0  0  0  0
   -7.8890   -1.2770   -1.6040 C   0  0  0  0  0  0  0  0  0  0  0  0
   -8.2770   -2.5190   -0.8730 C   0  0  0  0  0  0  0  0  0  0  0  0
   -9.3500   -2.1670   -0.0070 O   0  0  0  0  0  0  0  0  0  0  0  0
   -2.7860   -0.5050   -0.5860 N   0  0  0  0  0  0  0  0  0  0  0  0
   -1.5610   -0.1190   -0.9800 C   0  0  0  0  0  0  0  0  0  0  0  0
   -1.3770    0.1180   -2.1990 O   0  0  0  0  0  0  0  0  0  0  0  0
   -0.5270    0.0150   -0.0600 C   0  0  0  0  0  0  0  0  0  0  0  0
    0.7830    0.4460   -0.6000 C   0  0  0  0  0  0  0  0  0  0  0  0
    5.4660    1.5430   -0.6050 C   0  0  0  0  0  0  0  0  0  0  0  0
  1  2  1  0
  2  3  1  0
  3  4  1  0
  4  5  1  0
  5  6  2  0
  5 35  1  0
  6  7  1  0
  7  8  1  0
  8  9  1  0
  8 35  2  0
  9 10  1  0
 10 11  1  0
 11 12  2  0
 11 13  1  0
 13 14  1  0
 13 34  1  0
 14 15  1  0
 15 16  1  0
 16 17  1  0
 16 33  2  0
 17 18  1  0
 18 19  2  3
 18 30  1  0
 19 20  1  0
 20 21  2  0
 20 22  1  0
 22 23  1  0
 22 26  1  0
 23 24  1  0
 24 25  1  0
 25 26  1  0
 26 27  1  6
 27 28  1  0
 28 29  1  0
 30 31  1  0
 31 32  2  0
 31 33  1  0
 33 34  1  0
M  CHG  1   3   1
M  END
