
     RDKit          3D

 20 21  0  0  0  0  0  0  0  0999 V2000
   -3.3630    3.1970   -0.6200 N   0  0  0  0  0  0  0  0  0  0  0  0
   -2.9340    1.9980   -0.4860 C   0  0  0  0  0  0  0  0  0  0  0  0
   -1.5490    1.7810   -0.2510 N   0  0  0  0  0  0  0  0  0  0  0  0
   -0.8960    0.7020    0.0180 C   0  0  0  0  0  0  0  0  0  0  0  0
    0.5340    0.7700    0.2140 C   0  0  0  0  0  0  0  0  0  0  0  0
    1.2760    1.8790    0.1430 C   0  0  0  0  0  0  0  0  0  0  0  0
    2.5980    1.5470    0.3880 O   0  0  0  0  0  0  0  0  0  0  0  0
    2.6090    0.1980    0.8130 C   0  0  2  0  0  0  0  0  0  0  0  0
    3.6360   -0.6010    0.0000 C   0  0  0  0  0  0  0  0  0  0  0  0
    4.8670    0.0140    0.2430 O   0  0  0  0  0  0  0  0  0  0  0  0
    6.1280   -0.7770   -0.6080 P   0  0  0  0  0  0  0  0  0  0  0  0
    5.4780   -1.8360   -1.8170 O   0  0  0  0  0  0  0  0  0  0  0  0
    7.2570    0.3300   -1.3080 O   0  0  0  0  0  0  0  0  0  0  0  0
    1.3460   -0.3090    0.5060 O   0  0  0  0  0  0  0  0  0  0  0  0
   -1.4650   -0.5450    0.1370 O   0  0  0  0  0  0  0  0  0  0  0  0
   -2.7790   -1.0230    0.1970 C   0  0  0  0  0  0  0  0  0  0  0  0
   -3.7050   -0.3970   -0.8050 C   0  0  1  0  0  0  0  0  0  0  0  0
   -5.0800   -1.0300   -0.5930 C   0  0  0  0  0  0  0  0  0  0  0  0
   -4.9870   -2.3960   -0.7900 O   0  0  0  0  0  0  0  0  0  0  0  0
   -3.8880    0.9870   -0.5870 O   0  0  0  0  0  0  0  0  0  0  0  0
  1  2  2  0
  2  3  1  0
  2 20  1  0
  3  4  2  0
  4  5  1  0
  4 15  1  0
  5  6  2  0
  5 14  1  0
  6  7  1  0
  7  8  1  0
  8  9  1  6
  8 14  1  0
  9 10  1  0
 10 11  1  0
 11 12  1  0
 11 13  1  0
 15 16  1  0
 16 17  1  0
 17 18  1  1
 17 20  1  0
 18 19  1  0
M  END
