
     RDKit          3D

 20 20  0  0  0  0  0  0  0  0999 V2000
    6.2530    0.8050    0.3930 C   0  0  0  0  0  0  0  0  0  0  0  0
    4.8650    0.7920    0.6230 O   0  0  0  0  0  0  0  0  0  0  0  0
    3.9290    0.2820   -0.2520 C   0  0  0  0  0  0  0  0  0  0  0  0
    4.3490   -0.2070   -1.3340 O   0  0  0  0  0  0  0  0  0  0  0  0
    2.5530    0.2920    0.0240 O   0  0  0  0  0  0  0  0  0  0  0  0
    1.6170   -0.2230   -0.8620 C   0  0  0  0  0  0  0  0  0  0  0  0
    2.0840   -0.7000   -1.9270 O   0  0  0  0  0  0  0  0  0  0  0  0
    0.2140   -0.2130   -0.5840 N   0  0  0  0  0  0  0  0  0  0  0  0
   -0.7670   -0.7470   -1.5210 C   0  0  0  0  0  0  0  0  0  0  0  0
   -2.0720   -0.0880   -1.0830 C   0  0  1  0  0  0  0  0  0  0  0  0
   -3.5550   -0.9910   -1.6590 P   0  0  0  0  0  0  0  0  0  0  0  0
   -4.9300    0.0820   -1.5520 O   0  0  0  0  0  0  0  0  0  0  0  0
   -3.3420   -1.3480   -3.3620 O   0  0  0  0  0  0  0  0  0  0  0  0
   -1.8750   -0.1950    0.4370 C   0  0  2  0  0  0  0  0  0  0  0  0
   -2.9030    0.6780    1.1230 C   0  0  0  0  0  0  0  0  0  0  0  0
   -2.7830    0.6210    2.5430 N   0  0  0  0  0  0  0  0  0  0  0  0
   -0.4630    0.2940    0.5860 C   0  0  1  0  0  0  0  0  0  0  0  0
    0.1720   -0.1990    1.8360 C   0  0  0  0  0  0  0  0  0  0  0  0
   -0.2170    0.2260    2.9460 O   0  0  0  0  0  0  0  0  0  0  0  0
    1.1870   -1.1250    1.7340 O   0  0  0  0  0  0  0  0  0  0  0  0
  1  2  1  0
  2  3  1  0
  3  4  2  0
  3  5  1  0
  5  6  1  0
  6  7  2  0
  6  8  1  0
  8  9  1  0
  8 17  1  0
  9 10  1  0
 10 11  1  6
 10 14  1  0
 11 12  1  0
 11 13  1  0
 14 15  1  1
 14 17  1  0
 15 16  1  0
 17 18  1  1
 18 19  2  0
 18 20  1  0
M  END
