
     RDKit          3D

 20 21  0  0  0  0  0  0  0  0999 V2000
   -5.9220   -0.1970    1.8430 O   0  0  0  0  0  0  0  0  0  0  0  0
   -4.9520   -0.5100    1.0890 C   0  0  0  0  0  0  0  0  0  0  0  0
   -3.4810   -0.2710    1.3570 C   0  0  0  0  0  0  0  0  0  0  0  0
   -2.9790   -0.1700   -0.0690 C   0  0  2  0  0  0  0  0  0  0  0  0
   -3.8420   -1.0320   -0.9010 C   0  0  0  0  0  0  0  0  0  0  0  0
   -5.0720   -1.1330   -0.1540 O   0  0  0  0  0  0  0  0  0  0  0  0
   -1.5880   -0.4070   -0.2150 O   0  0  0  0  0  0  0  0  0  0  0  0
   -1.0640    0.6570    0.4510 C   0  0  1  0  0  0  0  0  0  0  0  0
    0.3650    0.8540    0.5280 C   0  0  0  0  0  0  0  0  0  0  0  0
    0.9590    0.8430    1.6700 O   0  0  0  0  0  0  0  0  0  0  0  0
    1.2350    1.0900   -0.5610 N   0  0  0  0  0  0  0  0  0  0  0  0
    2.6400    1.2610   -0.5380 C   0  0  0  0  0  0  0  0  0  0  0  0
    3.4700    0.0340   -0.2580 C   0  0  0  0  0  0  0  0  0  0  0  0
    4.7980    0.5080   -0.2850 O   0  0  0  0  0  0  0  0  0  0  0  0
    5.9210   -0.7510   -0.1730 P   0  0  0  0  0  0  0  0  0  0  0  0
    6.3010   -1.3120   -1.7960 O   0  0  0  0  0  0  0  0  0  0  0  0
    5.4280   -2.0140    0.8370 O   0  0  0  0  0  0  0  0  0  0  0  0
   -1.8530    1.8270    0.1190 N   0  0  0  0  0  0  0  0  0  0  0  0
   -3.0460    1.2540   -0.5290 C   0  0  0  0  0  0  0  0  0  0  0  0
   -3.8640    1.8350   -1.2600 O   0  0  0  0  0  0  0  0  0  0  0  0
  1  2  2  0
  2  3  1  0
  2  6  1  0
  4  3  1  1
  4  5  1  0
  4  7  1  0
  4 19  1  0
  5  6  1  0
  7  8  1  0
  8  9  1  6
  8 18  1  0
  9 10  2  0
  9 11  1  0
 11 12  1  0
 12 13  1  0
 13 14  1  0
 14 15  1  0
 15 16  1  0
 15 17  1  0
 18 19  1  0
 19 20  2  0
M  END
