
     RDKit          3D

 21 22  0  0  0  0  0  0  0  0999 V2000
    1.1930    0.5550    1.7230 O   0  0  0  0  0  0  0  0  0  0  0  0
    0.5830   -0.0180    0.7890 C   0  0  0  0  0  0  0  0  0  0  0  0
    1.1300   -1.1810    0.2940 O   0  0  0  0  0  0  0  0  0  0  0  0
    2.3040   -1.7800    0.7370 C   0  0  0  0  0  0  0  0  0  0  0  0
    3.5280   -0.9070    0.6000 C   0  0  0  0  0  0  0  0  0  0  0  0
    4.6130   -1.6680    1.0930 O   0  0  0  0  0  0  0  0  0  0  0  0
    6.0790   -0.7200    0.9670 P   0  0  0  0  0  0  0  0  0  0  0  0
    7.3870   -1.6470    0.3480 O   0  0  0  0  0  0  0  0  0  0  0  0
    5.7960    0.7160    0.0340 O   0  0  0  0  0  0  0  0  0  0  0  0
   -0.6160    0.5680    0.3160 N   0  0  0  0  0  0  0  0  0  0  0  0
   -1.1000    1.7810    0.9020 C   0  0  0  0  0  0  0  0  0  0  0  0
   -2.4870    1.6630    1.4670 C   0  0  0  0  0  0  0  0  0  0  0  0
   -3.2020    0.4880    0.8380 C   0  0  1  0  0  0  0  0  0  0  0  0
   -4.5370    0.4580    1.0960 O   0  0  0  0  0  0  0  0  0  0  0  0
   -5.3340    0.6420    0.1030 O   0  0  0  0  0  0  0  0  0  0  0  0
   -5.1460   -0.2810   -0.8970 N   0  0  0  0  0  0  0  0  0  0  0  0
   -3.7890   -0.4490   -1.3010 C   0  0  0  0  0  0  0  0  0  0  0  0
   -3.4940   -1.2840   -2.1680 O   0  0  0  0  0  0  0  0  0  0  0  0
   -2.8160    0.4420   -0.6050 C   0  0  1  0  0  0  0  0  0  0  0  0
   -2.9520    1.7520   -1.1190 O   0  0  0  0  0  0  0  0  0  0  0  0
   -1.4030   -0.0120   -0.7610 C   0  0  0  0  0  0  0  0  0  0  0  0
  1  2  2  0
  2  3  1  0
  2 10  1  0
  3  4  1  0
  4  5  1  0
  5  6  1  0
  6  7  1  0
  7  8  1  0
  7  9  1  0
 10 11  1  0
 10 21  1  0
 11 12  1  0
 13 12  1  6
 13 14  1  0
 13 19  1  0
 14 15  1  0
 15 16  1  0
 16 17  1  0
 17 18  2  0
 17 19  1  0
 19 20  1  6
 19 21  1  0
M  END
