
     RDKit          3D

 20 21  0  0  0  0  0  0  0  0999 V2000
   -2.3320   -2.3580    0.5210 N   0  0  0  0  0  0  0  0  0  0  0  0
   -2.2670   -0.9250    0.2430 C   0  0  2  0  0  0  0  0  0  0  0  0
   -1.1920   -0.2720    0.9930 C   0  0  0  0  0  0  0  0  0  0  0  0
   -0.0440    0.1790    0.5740 C   0  0  0  0  0  0  0  0  0  0  0  0
    0.5370    0.1770   -0.7520 C   0  0  0  0  0  0  0  0  0  0  0  0
    0.0210   -0.2950   -1.7920 O   0  0  0  0  0  0  0  0  0  0  0  0
    1.8440    0.7690   -0.9440 N   0  0  0  0  0  0  0  0  0  0  0  0
    2.4780    0.8000   -2.2330 C   0  0  0  0  0  0  0  0  0  0  0  0
    3.7130    1.4250   -2.1110 O   0  0  0  0  0  0  0  0  0  0  0  0
    4.7690    0.6290   -1.0260 P   0  0  0  0  0  0  0  0  0  0  0  0
    4.6500   -1.0950   -1.0920 O   0  0  0  0  0  0  0  0  0  0  0  0
    4.6590    1.2310    0.5960 O   0  0  0  0  0  0  0  0  0  0  0  0
    0.6650    0.7690    1.7780 C   0  0  0  0  0  0  0  0  0  0  0  0
   -0.1240    0.4650    2.8700 O   0  0  0  0  0  0  0  0  0  0  0  0
   -1.3000   -0.1140    2.4630 C   0  0  0  0  0  0  0  0  0  0  0  0
   -2.2570   -0.4340    3.2110 O   0  0  0  0  0  0  0  0  0  0  0  0
   -3.6310   -0.3030    0.6040 C   0  0  0  0  0  0  0  0  0  0  0  0
   -4.2010    0.0450   -0.6200 O   0  0  0  0  0  0  0  0  0  0  0  0
   -3.0560    0.3470   -1.3440 C   0  0  0  0  0  0  0  0  0  0  0  0
   -2.2770   -0.7790   -1.1130 O   0  0  0  0  0  0  0  0  0  0  0  0
  2  1  1  6
  2  3  1  0
  2 17  1  0
  2 20  1  0
  3  4  2  0
  3 15  1  0
  4  5  1  0
  4 13  1  0
  5  6  2  0
  5  7  1  0
  7  8  1  0
  8  9  1  0
  9 10  1  0
 10 11  1  0
 10 12  1  0
 13 14  1  0
 14 15  1  0
 15 16  2  0
 17 18  1  0
 18 19  1  0
 19 20  1  0
M  END
