
     RDKit          3D

 17 18  0  0  0  0  0  0  0  0999 V2000
    5.3800    0.1710   -0.1530 C   0  0  0  0  0  0  0  0  0  0  0  0
    3.9720   -0.3010   -0.1280 C   0  0  0  0  0  0  0  0  0  0  0  0
    3.7280   -1.6410   -0.2360 C   0  0  0  0  0  0  0  0  0  0  0  0
    2.4120   -2.0690   -0.2120 C   0  0  0  0  0  0  0  0  0  0  0  0
    1.9910   -3.7570   -0.3420 Cl  0  0  0  0  0  0  0  0  0  0  0  0
    1.4070   -1.1340   -0.0820 C   0  0  0  0  0  0  0  0  0  0  0  0
    1.6740    0.2190    0.0260 C   0  0  0  0  0  0  0  0  0  0  0  0
    0.5700    1.2040    0.1660 C   0  0  0  0  0  0  0  0  0  0  0  0
   -0.6760    0.5090    0.1620 N   0  0  0  0  0  0  0  0  0  0  0  0
   -1.8220    1.3940    0.2900 C   0  0  0  0  0  0  0  0  0  0  0  0
   -3.0280    0.6370   -0.1250 C   0  0  0  0  0  0  0  0  0  0  0  0
   -3.8510    0.9350   -1.1100 C   0  0  0  0  0  0  0  0  0  0  0  0
   -4.9380   -0.0600   -1.2130 C   0  0  0  0  0  0  0  0  0  0  0  0
   -4.6350   -1.0100   -0.1240 C   0  0  0  0  0  0  0  0  0  0  0  0
   -5.3640   -2.1120    0.1820 F   0  0  0  0  0  0  0  0  0  0  0  0
   -3.5440   -0.5820    0.4710 C   0  0  0  0  0  0  0  0  0  0  0  0
    2.9880    0.6420    0.0020 C   0  0  0  0  0  0  0  0  0  0  0  0
  1  2  1  0
  2  3  2  0
  2 17  1  0
  3  4  1  0
  4  5  1  0
  4  6  2  0
  6  7  1  0
  7  8  1  0
  7 17  2  0
  8  9  1  0
  9 10  1  0
 10 11  1  0
 11 12  2  0
 11 16  1  0
 12 13  1  0
 13 14  1  0
 14 15  1  0
 14 16  2  0
M  CHG  1   9   1
M  END
