
     RDKit          3D

 17 18  0  0  0  0  0  0  0  0999 V2000
    3.8240   -0.9310    0.9150 C   0  0  0  0  0  0  0  0  0  0  0  0
    3.3770   -0.3220   -0.3380 N   0  0  0  0  0  0  0  0  0  0  0  0
    2.4500    0.7300   -0.1410 C   0  0  0  0  0  0  0  0  0  0  0  0
    1.0370    0.3440   -0.1570 C   0  0  0  0  0  0  0  0  0  0  0  0
    0.1080    1.3760    0.0390 C   0  0  0  0  0  0  0  0  0  0  0  0
   -1.2510    1.1870    0.0530 C   0  0  0  0  0  0  0  0  0  0  0  0
   -2.1760    2.2720    0.2570 C   0  0  0  0  0  0  0  0  0  0  0  0
   -1.9830    3.5390    0.4530 C   0  0  0  0  0  0  0  0  0  0  0  0
   -0.4750    4.3520    0.5330 Cl  0  0  0  0  0  0  0  0  0  0  0  0
   -1.7360   -0.1030   -0.1370 C   0  0  0  0  0  0  0  0  0  0  0  0
   -3.0820   -0.3940   -0.1390 C   0  0  0  0  0  0  0  0  0  0  0  0
   -3.5680   -1.6980   -0.3320 C   0  0  0  0  0  0  0  0  0  0  0  0
   -4.8960   -1.9430   -0.3270 F   0  0  0  0  0  0  0  0  0  0  0  0
   -2.6530   -2.6960   -0.5210 C   0  0  0  0  0  0  0  0  0  0  0  0
   -1.3200   -2.4010   -0.5180 C   0  0  0  0  0  0  0  0  0  0  0  0
   -0.8170   -1.1200   -0.3300 C   0  0  0  0  0  0  0  0  0  0  0  0
    0.5460   -0.9010   -0.3390 C   0  0  0  0  0  0  0  0  0  0  0  0
  1  2  1  0
  2  3  1  0
  3  4  1  0
  4  5  2  0
  4 17  1  0
  5  6  1  0
  6  7  1  0
  6 10  2  0
  7  8  2  3
  8  9  1  0
 10 11  1  0
 10 16  1  0
 11 12  2  0
 12 13  1  0
 12 14  1  0
 14 15  2  0
 15 16  1  0
 16 17  2  0
M  CHG  1   2   1
M  END
