
     RDKit          3D

 11 10  0  0  0  0  0  0  0  0999 V2000
   -2.4000    0.8010   -1.9570 C   0  0  0  0  0  0  0  0  0  0  0  0
   -1.9140    0.9000   -0.5310 C   0  0  1  0  0  0  0  0  0  0  0  0
   -2.4730   -0.2130    0.2020 N   0  0  0  0  0  0  0  0  0  0  0  0
   -0.4180    0.8810   -0.4720 C   0  0  0  0  0  0  0  0  0  0  0  0
    0.2160    1.7840   -1.0600 O   0  0  0  0  0  0  0  0  0  0  0  0
    0.2890   -0.1350    0.2340 N   0  0  0  0  0  0  0  0  0  0  0  0
    1.7170   -0.1970    0.3190 C   0  0  2  0  0  0  0  0  0  0  0  0
    2.2860   -1.4260   -0.3710 C   0  0  0  0  0  0  0  0  0  0  0  0
    2.2410   -0.0720    1.6840 C   0  0  0  0  0  0  0  0  0  0  0  0
    1.5330    0.0780    2.7110 O   0  0  0  0  0  0  0  0  0  0  0  0
    3.6140   -0.1190    1.8740 O   0  0  0  0  0  0  0  0  0  0  0  0
  2  1  1  6
  2  3  1  0
  2  4  1  0
  4  5  2  0
  4  6  1  0
  6  7  1  0
  7  8  1  1
  7  9  1  0
  9 10  2  0
  9 11  1  0
M  CHG  1   3   1
M  END
