
     RDKit          3D

 17 18  0  0  0  0  0  0  0  0999 V2000
    3.6960   -1.1770    1.2190 N   0  0  0  0  0  0  0  0  0  0  0  0
    2.8370   -1.4460    0.0760 C   0  0  0  0  0  0  0  0  0  0  0  0
    1.6190   -0.5830    0.1180 C   0  0  0  0  0  0  0  0  0  0  0  0
    1.3160    0.2630   -0.8210 C   0  0  0  0  0  0  0  0  0  0  0  0
    0.1890    1.1590   -0.9430 C   0  0  0  0  0  0  0  0  0  0  0  0
    0.4220    2.3380   -1.6960 C   0  0  0  0  0  0  0  0  0  0  0  0
   -0.5110    3.3170   -1.8510 C   0  0  0  0  0  0  0  0  0  0  0  0
   -0.1310    4.7460   -2.8060 Cl  0  0  0  0  0  0  0  0  0  0  0  0
   -1.7250    3.1440   -1.2470 C   0  0  0  0  0  0  0  0  0  0  0  0
   -1.9650    2.0140   -0.5240 C   0  0  0  0  0  0  0  0  0  0  0  0
   -1.0130    0.9790   -0.3520 C   0  0  0  0  0  0  0  0  0  0  0  0
   -1.4910   -0.2800    0.2000 C   0  0  0  0  0  0  0  0  0  0  0  0
   -1.2030   -1.5380   -0.0160 C   0  0  0  0  0  0  0  0  0  0  0  0
   -2.0110   -2.4540    0.8600 C   0  0  0  0  0  0  0  0  0  0  0  0
   -2.8260   -1.4950    1.6360 C   0  0  0  0  0  0  0  0  0  0  0  0
   -3.7530   -1.8190    2.6020 F   0  0  0  0  0  0  0  0  0  0  0  0
   -2.5330   -0.2700    1.2630 C   0  0  0  0  0  0  0  0  0  0  0  0
  1  2  1  0
  2  3  1  0
  3  4  2  3
  4  5  1  0
  5  6  2  0
  5 11  1  0
  6  7  1  0
  7  8  1  0
  7  9  2  0
  9 10  1  0
 10 11  2  0
 11 12  1  0
 12 13  2  0
 12 17  1  0
 13 14  1  0
 14 15  1  0
 15 16  1  0
 15 17  2  0
M  CHG  1   1   1
M  END
