
     RDKit          3D

 17 18  0  0  0  0  0  0  0  0999 V2000
   -3.1980    3.5450   -0.1330 C   0  0  0  0  0  0  0  0  0  0  0  0
   -1.8150    3.1430   -0.4280 C   0  0  0  0  0  0  0  0  0  0  0  0
   -1.4190    1.9060   -0.2290 C   0  0  0  0  0  0  0  0  0  0  0  0
   -0.0080    1.5700   -0.5480 C   0  0  0  0  0  0  0  0  0  0  0  0
    0.3370    0.1530   -0.2900 C   0  0  0  0  0  0  0  0  0  0  0  0
   -0.5570   -0.7690    0.2010 C   0  0  0  0  0  0  0  0  0  0  0  0
   -0.1410   -2.0720    0.4100 C   0  0  0  0  0  0  0  0  0  0  0  0
    1.1720   -2.4700    0.1310 C   0  0  0  0  0  0  0  0  0  0  0  0
    2.0700   -1.5470   -0.3610 C   0  0  0  0  0  0  0  0  0  0  0  0
    3.4190   -1.9680   -0.6450 C   0  0  0  0  0  0  0  0  0  0  0  0
    4.4880   -1.6020    0.2860 C   0  0  0  0  0  0  0  0  0  0  0  0
    1.6480   -0.2540   -0.5650 C   0  0  0  0  0  0  0  0  0  0  0  0
    2.8070    0.8690   -1.1820 Cl  0  0  0  0  0  0  0  0  0  0  0  0
   -1.9100   -0.3300    0.4790 C   0  0  0  0  0  0  0  0  0  0  0  0
   -2.8430   -1.2900    0.9910 N   0  0  0  0  0  0  0  0  0  0  0  0
   -2.3330    0.9230    0.2830 C   0  0  0  0  0  0  0  0  0  0  0  0
   -3.6330    1.2440    0.5760 F   0  0  0  0  0  0  0  0  0  0  0  0
  1  2  1  0
  2  3  2  3
  3  4  1  0
  3 16  1  0
  4  5  1  0
  5  6  2  0
  5 12  1  0
  6  7  1  0
  6 14  1  0
  7  8  2  0
  8  9  1  0
  9 10  1  0
  9 12  2  0
 10 11  1  0
 12 13  1  0
 14 15  1  0
 14 16  2  0
 16 17  1  0
M  CHG  1  15   1
M  END
