
     RDKit          3D

 34 38  0  0  0  0  0  0  0  0999 V2000
    8.0230   -2.2060    1.6200 C   0  0  0  0  0  0  0  0  0  0  0  0
    6.7760   -1.8510    0.9020 C   0  0  0  0  0  0  0  0  0  0  0  0
    5.8950   -0.9400    1.4400 C   0  0  0  0  0  0  0  0  0  0  0  0
    4.7430   -0.6330    0.7430 C   0  0  0  0  0  0  0  0  0  0  0  0
    3.8230    0.2730    1.2280 C   0  0  0  0  0  0  0  0  0  0  0  0
    2.6510    0.6060    0.5440 C   0  0  0  0  0  0  0  0  0  0  0  0
    2.4250   -0.0040   -0.6590 C   0  0  0  0  0  0  0  0  0  0  0  0
    3.3170   -0.9110   -1.1730 C   0  0  0  0  0  0  0  0  0  0  0  0
    4.4760   -1.2300   -0.4800 C   0  0  0  0  0  0  0  0  0  0  0  0
    5.3720   -2.1330   -0.9900 C   0  0  0  0  0  0  0  0  0  0  0  0
    6.5170   -2.4430   -0.3050 C   0  0  0  0  0  0  0  0  0  0  0  0
    7.6580   -3.6110   -0.9860 Cl  0  0  0  0  0  0  0  0  0  0  0  0
    1.1500    0.5270   -1.2380 C   0  0  0  0  0  0  0  0  0  0  0  0
    0.6610    1.4370   -0.1770 C   0  0  0  0  0  0  0  0  0  0  0  0
   -0.4690    2.1230   -0.1480 C   0  0  0  0  0  0  0  0  0  0  0  0
   -1.4080    2.0480   -1.2350 C   0  0  0  0  0  0  0  0  0  0  0  0
   -2.6560    1.4690   -1.1850 C   0  0  0  0  0  0  0  0  0  0  0  0
   -3.3530    0.7770   -0.0970 C   0  0  0  0  0  0  0  0  0  0  0  0
   -3.4240    1.0390    1.0840 N   0  0  0  0  0  0  0  0  0  0  0  0
   -3.0270    2.0150    2.3320 S   0  0  2  0  0  0  0  0  0  0  0  0
   -2.9460    3.7600    1.9640 C   0  0  0  0  0  0  0  0  0  0  0  0
   -1.6790    1.6320    2.9230 O   0  0  0  0  0  0  0  0  0  0  0  0
   -4.0160    1.7940    3.4790 O   0  0  0  0  0  0  0  0  0  0  0  0
   -4.0910   -0.4150   -0.5180 N   0  0  0  0  0  0  0  0  0  0  0  0
   -5.3600   -0.3050   -1.1630 C   0  0  0  0  0  0  0  0  0  0  0  0
   -3.5060   -1.6880   -0.2460 C   0  0  0  0  0  0  0  0  0  0  0  0
   -4.2920   -2.4500    0.8100 C   0  0  1  0  0  0  0  0  0  0  0  0
   -3.7690   -3.8440    1.1980 C   0  0  0  0  0  0  0  0  0  0  0  0
   -3.6070   -2.6990    2.1180 C   0  0  0  0  0  0  0  0  0  0  0  0
   -3.2000    1.6860   -2.4650 C   0  0  0  0  0  0  0  0  0  0  0  0
   -2.2920    2.3470   -3.1610 N   0  0  0  0  0  0  0  0  0  0  0  0
   -1.2080    2.5890   -2.4770 N   0  0  0  0  0  0  0  0  0  0  0  0
   -0.0260    3.3300   -2.9230 C   0  0  0  0  0  0  0  0  0  0  0  0
    1.6250    1.4700    0.8620 O   0  0  0  0  0  0  0  0  0  0  0  0
  1  2  1  0
  2  3  2  0
  2 11  1  0
  3  4  1  0
  4  5  2  0
  4  9  1  0
  5  6  1  0
  6  7  2  0
  6 34  1  0
  7  8  1  0
  7 13  1  0
  8  9  2  0
  9 10  1  0
 10 11  2  0
 11 12  1  0
 13 14  1  0
 14 15  2  3
 14 34  1  0
 15 16  1  0
 16 17  2  0
 16 32  1  0
 17 18  1  0
 17 30  1  0
 18 19  2  3
 18 24  1  0
 19 20  1  0
 20 21  1  6
 20 22  2  0
 20 23  2  0
 24 25  1  0
 24 26  1  0
 27 26  1  6
 27 28  1  0
 27 29  1  0
 28 29  1  0
 30 31  2  0
 31 32  1  0
 32 33  1  0
M  END
