
     RDKit          3D

 34 38  0  0  0  0  0  0  0  0999 V2000
   -4.4390   -2.3630   -0.6580 C   0  0  0  0  0  0  0  0  0  0  0  0
   -4.1140   -0.8820   -0.8660 C   0  0  1  0  0  0  0  0  0  0  0  0
   -5.3430   -0.0820   -1.0080 C   0  0  0  0  0  0  0  0  0  0  0  0
   -5.7490    0.3130   -2.2910 C   0  0  0  0  0  0  0  0  0  0  0  0
   -6.8850    1.0480   -2.5260 C   0  0  0  0  0  0  0  0  0  0  0  0
   -7.6780    1.4250   -1.4620 C   0  0  0  0  0  0  0  0  0  0  0  0
   -7.3070    1.0530   -0.1980 C   0  0  0  0  0  0  0  0  0  0  0  0
   -8.3130    1.5310    1.1710 Cl  0  0  0  0  0  0  0  0  0  0  0  0
   -6.1570    0.3100    0.0310 C   0  0  0  0  0  0  0  0  0  0  0  0
   -3.1410   -0.4500    0.0350 N   0  0  0  0  0  0  0  0  0  0  0  0
   -3.3810   -0.4880    1.4150 C   0  0  0  0  0  0  0  0  0  0  0  0
   -2.0760   -0.8090    2.1490 C   0  0  0  0  0  0  0  0  0  0  0  0
   -0.9740   -0.0780    1.5390 N   0  0  0  0  0  0  0  0  0  0  0  0
   -1.0340    0.5760    0.3830 C   0  0  0  0  0  0  0  0  0  0  0  0
    0.0810    1.2500   -0.1070 C   0  0  0  0  0  0  0  0  0  0  0  0
    0.0460    1.9840   -1.3650 C   0  0  0  0  0  0  0  0  0  0  0  0
    1.0760    2.5660   -1.7950 O   0  0  0  0  0  0  0  0  0  0  0  0
    1.2650    1.2510    0.5930 C   0  0  0  0  0  0  0  0  0  0  0  0
    1.3110    0.5690    1.7880 C   0  0  0  0  0  0  0  0  0  0  0  0
    2.5650    0.5400    2.5780 C   0  0  0  0  0  0  0  0  0  0  0  0
    2.5460   -0.1060    3.6540 O   0  0  0  0  0  0  0  0  0  0  0  0
    3.6800    1.1970    2.1320 N   0  0  0  0  0  0  0  0  0  0  0  0
    4.6730    0.9120    1.4390 C   0  0  0  0  0  0  0  0  0  0  0  0
    6.0040    2.0560    1.0290 S   0  0  0  0  0  0  0  0  0  0  0  0
    6.9650    0.8660    0.0460 C   0  0  0  0  0  0  0  0  0  0  0  0
    6.1890   -0.2320    0.1390 C   0  0  0  0  0  0  0  0  0  0  0  0
    5.0730   -0.2330    0.8090 N   0  0  0  0  0  0  0  0  0  0  0  0
    4.1520   -1.4060    0.9670 C   0  0  0  0  0  0  0  0  0  0  0  0
    6.9690   -1.2800   -0.6740 C   0  0  0  0  0  0  0  0  0  0  0  0
    7.7890   -0.4840   -1.6250 C   0  0  0  0  0  0  0  0  0  0  0  0
    8.1840    0.6940   -0.7520 C   0  0  0  0  0  0  0  0  0  0  0  0
    0.1770   -0.0810    2.2280 C   0  0  0  0  0  0  0  0  0  0  0  0
    0.2620   -0.7020    3.3390 O   0  0  0  0  0  0  0  0  0  0  0  0
   -2.2740    0.6000   -0.4100 C   0  0  0  0  0  0  0  0  0  0  0  0
  2  1  1  1
  2  3  1  0
  2 10  1  0
  3  4  2  0
  3  9  1  0
  4  5  1  0
  5  6  2  0
  6  7  1  0
  7  8  1  0
  7  9  2  0
 10 11  1  0
 10 34  1  0
 11 12  1  0
 12 13  1  0
 13 14  1  0
 13 32  1  0
 14 15  2  0
 14 34  1  0
 15 16  1  0
 15 18  1  0
 16 17  2  0
 18 19  2  0
 19 20  1  0
 19 32  1  0
 20 21  2  0
 20 22  1  0
 22 23  2  3
 23 24  1  0
 23 27  1  0
 24 25  1  0
 25 26  2  0
 25 31  1  0
 26 27  1  0
 26 29  1  0
 27 28  1  0
 29 30  1  0
 30 31  1  0
 32 33  2  0
M  END
