
     RDKit          3D

 35 39  0  0  0  0  0  0  0  0999 V2000
   -1.7770   -4.6650    1.1450 C   0  0  0  0  0  0  0  0  0  0  0  0
   -2.3750   -3.3140    0.8620 C   0  0  0  0  0  0  0  0  0  0  0  0
   -2.7280   -2.6750    1.8850 O   0  0  0  0  0  0  0  0  0  0  0  0
   -2.5170   -2.8330   -0.4190 O   0  0  0  0  0  0  0  0  0  0  0  0
   -3.0860   -1.5570   -0.6730 C   0  0  2  0  0  0  0  0  0  0  0  0
   -4.4620   -1.5490   -0.1580 C   0  0  0  0  0  0  0  0  0  0  0  0
   -5.0980   -2.7500    0.4030 C   0  0  0  0  0  0  0  0  0  0  0  0
   -5.1300   -0.5490   -0.1800 O   0  0  0  0  0  0  0  0  0  0  0  0
   -3.3120   -1.4250   -2.2100 C   0  0  0  0  0  0  0  0  0  0  0  0
   -3.2350    0.1090   -2.3200 C   0  0  0  0  0  0  0  0  0  0  0  0
   -1.8510    0.2330   -1.6600 C   0  0  1  0  0  0  0  0  0  0  0  0
   -1.4290    1.5820   -1.3840 C   0  0  2  0  0  0  0  0  0  0  0  0
   -1.0680    2.5690   -2.3970 C   0  0  0  0  0  0  0  0  0  0  0  0
   -1.1820    3.9210   -1.6330 C   0  0  0  0  0  0  0  0  0  0  0  0
   -0.1690    3.8790   -0.5250 C   0  0  0  0  0  0  0  0  0  0  0  0
    0.2880    5.0310   -0.0710 C   0  0  0  0  0  0  0  0  0  0  0  0
    1.2970    4.9840    1.0140 C   0  0  0  0  0  0  0  0  0  0  0  0
    1.3040    5.8430    1.8760 O   0  0  0  0  0  0  0  0  0  0  0  0
    2.2580    3.8410    0.9510 C   0  0  0  0  0  0  0  0  0  0  0  0
    1.3830    2.5720    0.9800 C   0  0  0  0  0  0  0  0  0  0  0  0
    0.3070    2.6120    0.0470 C   0  0  0  0  0  0  0  0  0  0  0  0
   -0.2400    1.5130   -0.3990 C   0  0  0  0  0  0  0  0  0  0  0  0
    0.2060    0.1770   -0.1490 C   0  0  1  0  0  0  0  0  0  0  0  0
    1.5300   -0.2500    0.1850 C   0  0  0  0  0  0  0  0  0  0  0  0
    2.6070   -0.0030   -0.6780 C   0  0  0  0  0  0  0  0  0  0  0  0
    3.8890   -0.4190   -0.4280 C   0  0  0  0  0  0  0  0  0  0  0  0
    4.1620   -1.1200    0.7270 C   0  0  0  0  0  0  0  0  0  0  0  0
    5.5130   -1.5500    1.0160 N   0  0  0  0  0  0  0  0  0  0  0  0
    6.3860   -0.8700    1.9200 C   0  0  0  0  0  0  0  0  0  0  0  0
    5.9290   -2.7530    0.2750 C   0  0  0  0  0  0  0  0  0  0  0  0
    3.1260   -1.3810    1.5960 C   0  0  0  0  0  0  0  0  0  0  0  0
    1.8250   -0.9520    1.3310 C   0  0  0  0  0  0  0  0  0  0  0  0
   -0.9140   -0.7440    0.3860 C   0  0  0  0  0  0  0  0  0  0  0  0
   -2.2130   -0.4180   -0.3050 C   0  0  2  0  0  0  0  0  0  0  0  0
   -2.9490    0.5400    0.5930 C   0  0  0  0  0  0  0  0  0  0  0  0
  1  2  1  0
  2  3  2  0
  2  4  1  0
  5  4  1  6
  5  6  1  0
  5  9  1  0
  5 34  1  0
  6  7  1  0
  6  8  2  0
  9 10  1  0
 11 10  1  6
 11 12  1  0
 11 34  1  0
 12 13  1  6
 12 22  1  0
 13 14  1  0
 14 15  1  0
 15 16  2  0
 15 21  1  0
 16 17  1  0
 17 18  2  0
 17 19  1  0
 19 20  1  0
 20 21  1  0
 21 22  2  0
 22 23  1  0
 23 24  1  1
 23 33  1  0
 24 25  2  0
 24 32  1  0
 25 26  1  0
 26 27  2  0
 27 28  1  0
 27 31  1  0
 28 29  1  0
 28 30  1  0
 31 32  2  0
 33 34  1  0
 34 35  1  1
M  END
