
     RDKit          3D

 34 38  0  0  0  0  0  0  0  0999 V2000
   -5.7490   -2.1970   -1.4130 C   0  0  0  0  0  0  0  0  0  0  0  0
   -5.7950   -0.8030   -0.8680 C   0  0  0  0  0  0  0  0  0  0  0  0
   -6.7390    0.1270   -1.2410 C   0  0  0  0  0  0  0  0  0  0  0  0
   -6.4510    1.2640   -0.5330 C   0  0  0  0  0  0  0  0  0  0  0  0
   -7.0350    2.5330   -0.4740 C   0  0  0  0  0  0  0  0  0  0  0  0
   -6.5230    3.4930    0.3410 C   0  0  0  0  0  0  0  0  0  0  0  0
   -5.4100    3.1850    1.1110 C   0  0  0  0  0  0  0  0  0  0  0  0
   -4.8220    1.9410    1.0660 C   0  0  0  0  0  0  0  0  0  0  0  0
   -5.3470    0.9810    0.2410 C   0  0  0  0  0  0  0  0  0  0  0  0
   -4.9370   -0.3010    0.0350 N   0  0  0  0  0  0  0  0  0  0  0  0
   -3.8310   -0.9530    0.6560 C   0  0  0  0  0  0  0  0  0  0  0  0
   -3.9100   -1.8020    1.7380 C   0  0  0  0  0  0  0  0  0  0  0  0
   -2.6600   -2.2490    2.0780 C   0  0  0  0  0  0  0  0  0  0  0  0
   -2.1530   -3.3320    3.3490 Cl  0  0  0  0  0  0  0  0  0  0  0  0
   -1.8020   -1.6370    1.1560 C   0  0  0  0  0  0  0  0  0  0  0  0
   -2.5180   -0.8680    0.3160 N   0  0  0  0  0  0  0  0  0  0  0  0
   -1.9610   -0.0910   -0.7640 C   0  0  0  0  0  0  0  0  0  0  0  0
   -0.4910    0.1040   -0.6900 C   0  0  0  0  0  0  0  0  0  0  0  0
    0.2280   -0.9570   -0.0500 N   0  0  0  0  0  0  0  0  0  0  0  0
    1.5770   -1.2930   -0.4630 C   0  0  0  0  0  0  0  0  0  0  0  0
    2.5070   -0.4550    0.3720 C   0  0  0  0  0  0  0  0  0  0  0  0
    2.0890    0.3460    1.2280 O   0  0  0  0  0  0  0  0  0  0  0  0
    3.9050   -0.5880    0.1720 N   0  0  0  0  0  0  0  0  0  0  0  0
    4.4270   -1.5300   -0.8320 C   0  0  0  0  0  0  0  0  0  0  0  0
    5.5350   -0.8270   -1.5320 C   0  0  0  0  0  0  0  0  0  0  0  0
    6.4340   -0.1810   -0.7630 C   0  0  0  0  0  0  0  0  0  0  0  0
    7.7810    0.6770   -1.5590 S   0  0  0  0  0  0  0  0  0  0  0  0
    8.8030    1.4910   -0.3110 C   0  0  0  0  0  0  0  0  0  0  0  0
    8.0690    2.5900    0.3580 C   0  0  0  0  0  0  0  0  0  0  0  0
    6.9160    2.9070    0.0800 O   0  0  0  0  0  0  0  0  0  0  0  0
    6.2290   -0.2340    0.6990 C   0  0  0  0  0  0  0  0  0  0  0  0
    4.8080    0.2160    0.9710 C   0  0  0  0  0  0  0  0  0  0  0  0
   -0.3420   -1.7310    1.0190 C   0  0  0  0  0  0  0  0  0  0  0  0
    0.3370   -2.4340    1.7830 O   0  0  0  0  0  0  0  0  0  0  0  0
  1  2  1  0
  2  3  2  0
  2 10  1  0
  3  4  1  0
  4  5  2  0
  4  9  1  0
  5  6  1  0
  6  7  2  0
  7  8  1  0
  8  9  2  0
  9 10  1  0
 10 11  1  0
 11 12  2  0
 11 16  1  0
 12 13  1  0
 13 14  1  0
 13 15  2  0
 15 16  1  0
 15 33  1  0
 16 17  1  0
 17 18  1  0
 18 19  1  0
 19 20  1  0
 19 33  1  0
 20 21  1  0
 21 22  2  0
 21 23  1  0
 23 24  1  0
 23 32  1  0
 24 25  1  0
 25 26  2  0
 26 27  1  0
 26 31  1  0
 27 28  1  0
 28 29  1  0
 29 30  2  0
 31 32  1  0
 33 34  2  0
M  END
