
     RDKit          3D

 33 37  0  0  0  0  0  0  0  0999 V2000
   -6.8360    3.8830   -0.7200 C   0  0  0  0  0  0  0  0  0  0  0  0
   -5.8080    2.7780   -0.6230 C   0  0  0  0  0  0  0  0  0  0  0  0
   -6.4320    1.5040   -0.5360 O   0  0  0  0  0  0  0  0  0  0  0  0
   -5.6610    0.3460   -0.4430 C   0  0  0  0  0  0  0  0  0  0  0  0
   -4.2790    0.3700   -0.4290 C   0  0  0  0  0  0  0  0  0  0  0  0
   -3.5850   -0.8220   -0.3350 C   0  0  0  0  0  0  0  0  0  0  0  0
   -4.2250   -2.0380   -0.2520 C   0  0  0  0  0  0  0  0  0  0  0  0
   -5.5610   -2.0540   -0.2660 N   0  0  0  0  0  0  0  0  0  0  0  0
   -6.2670   -0.8920   -0.3590 C   0  0  0  0  0  0  0  0  0  0  0  0
   -7.7630   -0.9240   -0.3730 C   0  0  0  0  0  0  0  0  0  0  0  0
   -3.4040   -3.3040   -0.1380 C   0  0  0  0  0  0  0  0  0  0  0  0
   -2.3130   -2.9100    0.8680 C   0  0  0  0  0  0  0  0  0  0  0  0
   -1.4730   -1.9120    0.1830 N   0  0  0  0  0  0  0  0  0  0  0  0
   -0.1130   -2.1800    0.0720 C   0  0  0  0  0  0  0  0  0  0  0  0
    0.3460   -3.2750    0.5210 O   0  0  0  0  0  0  0  0  0  0  0  0
    0.8520   -1.2600   -0.5450 C   0  0  2  0  0  0  0  0  0  0  0  0
    2.0620   -1.0270    0.3540 C   0  0  0  0  0  0  0  0  0  0  0  0
    2.9460   -0.1160   -0.3370 N   0  0  0  0  0  0  0  0  0  0  0  0
    4.1840    0.2450    0.2310 C   0  0  0  0  0  0  0  0  0  0  0  0
    5.4120   -0.0760    0.1960 N   0  0  0  0  0  0  0  0  0  0  0  0
    6.3770    0.4310    0.8460 C   0  0  0  0  0  0  0  0  0  0  0  0
    7.7470    0.0770    0.8080 C   0  0  0  0  0  0  0  0  0  0  0  0
    8.2380   -1.0020   -0.0630 C   0  0  0  0  0  0  0  0  0  0  0  0
    8.6380    0.7500    1.5880 C   0  0  0  0  0  0  0  0  0  0  0  0
   10.3530    0.2920    1.5250 Cl  0  0  0  0  0  0  0  0  0  0  0  0
    8.3150    1.7720    2.4340 C   0  0  0  0  0  0  0  0  0  0  0  0
    6.9710    2.1370    2.4880 C   0  0  0  0  0  0  0  0  0  0  0  0
    6.0880    1.4990    1.7400 C   0  0  0  0  0  0  0  0  0  0  0  0
    4.3150    1.6310    1.4950 S   0  0  0  0  0  0  0  0  0  0  0  0
    2.5120    0.3960   -1.6240 C   0  0  0  0  0  0  0  0  0  0  0  0
    1.0870    0.8740   -1.4480 C   0  0  0  0  0  0  0  0  0  0  0  0
    0.2650   -0.0790   -0.8850 O   0  0  0  0  0  0  0  0  0  0  0  0
   -2.0810   -0.7310   -0.3450 C   0  0  0  0  0  0  0  0  0  0  0  0
  1  2  1  0
  2  3  1  0
  3  4  1  0
  4  5  2  0
  4  9  1  0
  5  6  1  0
  6  7  2  0
  6 33  1  0
  7  8  1  0
  7 11  1  0
  8  9  2  0
  9 10  1  0
 11 12  1  0
 12 13  1  0
 13 14  1  0
 13 33  1  0
 14 15  2  0
 16 14  1  1
 16 17  1  0
 16 32  1  0
 17 18  1  0
 18 19  1  0
 18 30  1  0
 19 20  2  0
 19 29  1  0
 20 21  1  0
 21 22  2  0
 21 28  1  0
 22 23  1  0
 22 24  1  0
 24 25  1  0
 24 26  2  0
 26 27  1  0
 27 28  2  0
 28 29  1  0
 30 31  1  0
 31 32  1  0
M  END
