
     RDKit          3D

 36 37  0  0  0  0  0  0  0  0999 V2000
   -0.8020    3.4350   -3.6540 C   0  0  0  0  0  0  0  0  0  0  0  0
    0.1400    2.8310   -2.8300 O   0  0  0  0  0  0  0  0  0  0  0  0
    0.9080    1.9120   -3.5690 C   0  0  0  0  0  0  0  0  0  0  0  0
    1.3940    0.8050   -2.6020 C   0  0  2  0  0  0  0  0  0  0  0  0
    0.0160    0.2660   -2.0990 C   0  0  0  0  0  0  0  0  0  0  0  0
   -0.0500    0.8180   -0.6400 C   0  0  0  0  0  0  0  0  0  0  0  0
    1.0540    0.0550    0.1160 C   0  0  1  0  0  0  0  0  0  0  0  0
    0.7860   -0.3130    1.5590 C   0  0  0  0  0  0  0  0  0  0  0  0
    1.8220   -1.0610    2.3330 C   0  0  2  0  0  0  0  0  0  0  0  0
    3.1160   -0.4490    2.7040 C   0  0  0  0  0  0  0  0  0  0  0  0
    2.2120   -2.3720    1.6250 C   0  0  0  0  0  0  0  0  0  0  0  0
    3.2860   -3.0260    2.5360 C   0  0  0  0  0  0  0  0  0  0  0  0
    3.6400   -4.2170    1.8130 O   0  0  0  0  0  0  0  0  0  0  0  0
    0.6920   -1.3040   -0.4530 C   0  0  0  0  0  0  0  0  0  0  0  0
    0.4030   -2.3700   -0.8920 C   0  0  0  0  0  0  0  0  0  0  0  0
    0.0680   -3.5180   -1.3630 C   0  0  1  0  0  0  0  0  0  0  0  0
   -0.6690   -3.4210   -2.7220 C   0  0  0  0  0  0  0  0  0  0  0  0
    0.9520   -4.6760   -1.4560 C   0  0  0  0  0  0  0  0  0  0  0  0
   -1.2040   -4.0190   -0.4910 C   0  0  0  0  0  0  0  0  0  0  0  0
   -2.2950   -3.0070   -0.3430 C   0  0  1  0  0  0  0  0  0  0  0  0
   -3.3440   -3.7800    0.5410 C   0  0  0  0  0  0  0  0  0  0  0  0
   -2.1170   -1.8200    0.2900 O   0  0  0  0  0  0  0  0  0  0  0  0
   -2.5340   -0.8330    1.0610 C   0  0  0  0  0  0  0  0  0  0  0  0
   -2.4070   -0.8900    2.3760 O   0  0  0  0  0  0  0  0  0  0  0  0
   -3.1830    0.4750    0.6810 C   0  0  0  0  0  0  0  0  0  0  0  0
   -2.7570    1.5820    1.5800 C   0  0  0  0  0  0  0  0  0  0  0  0
   -1.9610    2.7530    1.1340 C   0  0  1  0  0  0  0  0  0  0  0  0
   -2.1600    3.2200   -0.2750 C   0  0  0  0  0  0  0  0  0  0  0  0
   -2.5470    3.9640    1.9550 C   0  0  0  0  0  0  0  0  0  0  0  0
   -0.6470    2.7000    1.5640 O   0  0  0  0  0  0  0  0  0  0  0  0
    0.2580    3.6430    1.3310 C   0  0  0  0  0  0  0  0  0  0  0  0
    1.5320    3.2820    0.5250 C   0  0  1  0  0  0  0  0  0  0  0  0
    2.4660    4.2850    1.0410 O   0  0  0  0  0  0  0  0  0  0  0  0
    2.1070    1.9680    0.7630 C   0  0  0  0  0  0  0  0  0  0  0  0
    2.1220    0.8410   -0.1700 N   0  0  0  0  0  0  0  0  0  0  0  0
    2.2140    1.3430   -1.5300 C   0  0  0  0  0  0  0  0  0  0  0  0
  1  2  1  0
  2  3  1  0
  4  3  1  6
  4  5  1  0
  4 36  1  0
  5  6  1  0
  6  7  1  0
  7  8  1  1
  7 14  1  0
  7 35  1  0
  8  9  1  0
  9 10  1  6
  9 11  1  0
 11 12  1  0
 12 13  1  0
 14 15  3  0
 15 16  1  0
 16 17  1  6
 16 18  1  0
 16 19  1  0
 19 20  1  0
 20 21  1  1
 20 22  1  0
 22 23  1  0
 23 24  2  0
 23 25  1  0
 25 26  1  0
 26 27  1  0
 27 28  1  6
 27 29  1  0
 27 30  1  0
 30 31  1  0
 31 32  1  0
 32 33  1  1
 32 34  1  0
 34 35  1  0
 35 36  1  0
M  END
