
     RDKit          3D

 35 38  0  0  0  0  0  0  0  0999 V2000
    4.8400   -2.4670    1.1370 C   0  0  0  0  0  0  0  0  0  0  0  0
    4.5280   -2.4130   -0.3170 C   0  0  0  0  0  0  0  0  0  0  0  0
    3.5270   -1.4200   -0.7540 C   0  0  0  0  0  0  0  0  0  0  0  0
    3.8420    0.0310   -0.5070 C   0  0  1  0  0  0  0  0  0  0  0  0
    4.0200    0.3720    0.9060 C   0  0  0  0  0  0  0  0  0  0  0  0
    2.9660    0.5090    1.6010 O   0  0  0  0  0  0  0  0  0  0  0  0
    5.2940    0.5260    1.4070 O   0  0  0  0  0  0  0  0  0  0  0  0
    6.2620    1.2000    0.6800 C   0  0  1  0  0  0  0  0  0  0  0  0
    7.5840    0.4490    0.8920 C   0  0  0  0  0  0  0  0  0  0  0  0
    7.9030    0.4390    2.2290 O   0  0  0  0  0  0  0  0  0  0  0  0
    5.9590    1.3940   -0.7600 C   0  0  2  0  0  0  0  0  0  0  0  0
    5.5650    2.8040   -1.0020 C   0  0  0  0  0  0  0  0  0  0  0  0
    5.2650    3.9030   -1.2070 N   0  0  0  0  0  0  0  0  0  0  0  0
    5.0240    0.4150   -1.3580 C   0  0  2  0  0  0  0  0  0  0  0  0
    4.4440    1.0200   -2.6140 C   0  0  0  0  0  0  0  0  0  0  0  0
    2.9650    0.8660   -2.5360 C   0  0  0  0  0  0  0  0  0  0  0  0
    2.6310    0.7940   -1.0770 C   0  0  1  0  0  0  0  0  0  0  0  0
    1.4700    0.0150   -0.8390 O   0  0  0  0  0  0  0  0  0  0  0  0
    0.3720    0.4330   -0.1320 C   0  0  0  0  0  0  0  0  0  0  0  0
    0.3540    1.5810    0.3560 O   0  0  0  0  0  0  0  0  0  0  0  0
   -0.7610   -0.4710    0.0380 C   0  0  0  0  0  0  0  0  0  0  0  0
   -1.9420    0.1000    0.7750 C   0  0  1  0  0  0  0  0  0  0  0  0
   -2.5420    1.2930    0.1130 C   0  0  0  0  0  0  0  0  0  0  0  0
   -3.6510    1.8320    0.9870 C   0  0  2  0  0  0  0  0  0  0  0  0
   -3.0790    2.9100    1.9010 C   0  0  0  0  0  0  0  0  0  0  0  0
   -4.3630    0.7740    1.7690 C   0  0  0  0  0  0  0  0  0  0  0  0
   -4.3920   -0.5270    0.9460 C   0  0  1  0  0  0  0  0  0  0  0  0
   -5.1560   -1.5830    1.6670 C   0  0  0  0  0  0  0  0  0  0  0  0
   -6.4850   -1.9430    1.1100 C   0  0  0  0  0  0  0  0  0  0  0  0
   -6.3150   -2.0900   -0.3860 C   0  0  0  0  0  0  0  0  0  0  0  0
   -5.8350   -0.7600   -0.8980 C   0  0  1  0  0  0  0  0  0  0  0  0
   -5.5070   -0.9960   -2.3860 C   0  0  0  0  0  0  0  0  0  0  0  0
   -7.0060    0.2000   -0.9090 C   0  0  0  0  0  0  0  0  0  0  0  0
   -4.7150   -0.2650   -0.3360 O   0  0  0  0  0  0  0  0  0  0  0  0
   -2.9400   -0.9910    0.9440 C   0  0  0  0  0  0  0  0  0  0  0  0
  1  2  1  0
  2  3  1  0
  4  3  1  1
  4  5  1  0
  4 14  1  0
  4 17  1  0
  5  6  2  0
  5  7  1  0
  7  8  1  0
  8  9  1  6
  8 11  1  0
  9 10  1  0
 11 12  1  1
 11 14  1  0
 12 13  3  0
 14 15  1  6
 15 16  1  0
 16 17  1  0
 17 18  1  6
 18 19  1  0
 19 20  2  0
 19 21  1  0
 22 21  1  6
 22 23  1  0
 22 35  1  0
 23 24  1  0
 24 25  1  1
 24 26  1  0
 27 26  1  1
 27 28  1  0
 27 34  1  0
 27 35  1  0
 28 29  1  0
 29 30  1  0
 30 31  1  0
 31 32  1  6
 31 33  1  0
 31 34  1  0
M  END
