
     RDKit          3D

 35 37  0  0  0  0  0  0  0  0999 V2000
   -4.0970    3.3810    1.3450 C   0  0  0  0  0  0  0  0  0  0  0  0
   -4.7280    2.3660    2.2610 C   0  0  0  0  0  0  0  0  0  0  0  0
   -5.2080    1.1420    1.5490 C   0  0  1  0  0  0  0  0  0  0  0  0
   -6.2450    1.4150    0.5000 C   0  0  0  0  0  0  0  0  0  0  0  0
   -6.6570    0.1480   -0.1690 C   0  0  0  0  0  0  0  0  0  0  0  0
   -5.4860   -0.6290   -0.7610 C   0  0  0  0  0  0  0  0  0  0  0  0
   -4.5280   -0.8960    0.4170 C   0  0  1  0  0  0  0  0  0  0  0  0
   -3.6300   -2.0220    0.2020 C   0  0  1  0  0  0  0  0  0  0  0  0
   -2.7410   -2.1910    1.4580 C   0  0  0  0  0  0  0  0  0  0  0  0
   -4.4100   -3.1780    0.1890 O   0  0  0  0  0  0  0  0  0  0  0  0
   -2.6540   -2.0470   -0.9320 C   0  0  2  0  0  0  0  0  0  0  0  0
   -3.2120   -1.9440   -2.3070 C   0  0  0  0  0  0  0  0  0  0  0  0
   -2.0350   -3.4600   -0.8520 C   0  0  0  0  0  0  0  0  0  0  0  0
   -1.5330   -1.0840   -0.6870 C   0  0  0  0  0  0  0  0  0  0  0  0
   -0.4780   -0.9420   -1.6970 C   0  0  2  0  0  0  0  0  0  0  0  0
    0.3510   -2.1360   -2.0400 C   0  0  0  0  0  0  0  0  0  0  0  0
    0.4550    0.0810   -1.2460 N   0  0  0  0  0  0  0  0  0  0  0  0
    1.1910   -0.0200   -0.0080 C   0  0  0  0  0  0  0  0  0  0  0  0
    1.7600    1.3510    0.2850 C   0  0  1  0  0  0  0  0  0  0  0  0
    3.0740    1.1520    0.9360 C   0  0  0  0  0  0  0  0  0  0  0  0
    3.2070    1.6140    2.1090 O   0  0  0  0  0  0  0  0  0  0  0  0
    4.1360    0.5140    0.3640 O   0  0  0  0  0  0  0  0  0  0  0  0
    5.3570    0.3700    1.0660 C   0  0  1  0  0  0  0  0  0  0  0  0
    5.7470   -1.0720    1.1500 C   0  0  0  0  0  0  0  0  0  0  0  0
    7.2520   -1.2450    1.0610 C   0  0  0  0  0  0  0  0  0  0  0  0
    7.8760    0.0050    1.6260 C   0  0  0  0  0  0  0  0  0  0  0  0
    7.6430    1.1270    0.8730 O   0  0  0  0  0  0  0  0  0  0  0  0
    6.3790    1.2230    0.3440 C   0  0  1  0  0  0  0  0  0  0  0  0
    6.3380    0.9220   -1.1240 C   0  0  0  0  0  0  0  0  0  0  0  0
    5.9270    2.6760    0.5450 C   0  0  0  0  0  0  0  0  0  0  0  0
    6.8010    3.5230   -0.1100 O   0  0  0  0  0  0  0  0  0  0  0  0
    1.8680    1.9920   -1.0700 C   0  0  0  0  0  0  0  0  0  0  0  0
    0.8260    1.3020   -1.8730 C   0  0  0  0  0  0  0  0  0  0  0  0
    0.3600    1.7580   -2.9460 O   0  0  0  0  0  0  0  0  0  0  0  0
   -4.0440    0.4330    0.8200 C   0  0  0  0  0  0  0  0  0  0  0  0
  1  2  1  0
  3  2  1  6
  3  4  1  0
  3 35  1  0
  4  5  1  0
  5  6  1  0
  7  6  1  6
  7  8  1  0
  7 35  1  0
  8  9  1  1
  8 10  1  0
  8 11  1  0
 11 12  1  6
 11 13  1  0
 11 14  1  0
 14 15  1  0
 15 16  1  1
 15 17  1  0
 17 18  1  0
 17 33  1  0
 18 19  1  0
 19 20  1  6
 19 32  1  0
 20 21  2  0
 20 22  1  0
 23 22  1  6
 23 24  1  0
 23 28  1  0
 24 25  1  0
 25 26  1  0
 26 27  1  0
 27 28  1  0
 28 29  1  6
 28 30  1  0
 30 31  1  0
 32 33  1  0
 33 34  2  0
M  END
