
     RDKit          3D

 35 38  0  0  0  0  0  0  0  0999 V2000
    2.4380   -3.8970   -0.1240 C   0  0  0  0  0  0  0  0  0  0  0  0
    2.4380   -3.1430    1.1760 C   0  0  2  0  0  0  0  0  0  0  0  0
    0.9870   -2.7490    1.4800 C   0  0  0  0  0  0  0  0  0  0  0  0
    0.3180   -2.1250    0.2860 C   0  0  0  0  0  0  0  0  0  0  0  0
   -0.2200   -0.7800    0.6590 C   0  0  0  0  0  0  0  0  0  0  0  0
   -0.3710    0.1440   -0.5580 C   0  0  1  0  0  0  0  0  0  0  0  0
   -1.4470   -0.3320   -1.4550 C   0  0  0  0  0  0  0  0  0  0  0  0
   -1.1720   -1.0760   -2.4060 O   0  0  0  0  0  0  0  0  0  0  0  0
   -2.8810    0.0230   -1.3000 C   0  0  1  0  0  0  0  0  0  0  0  0
   -3.5900   -1.1910   -0.7830 C   0  0  0  0  0  0  0  0  0  0  0  0
   -4.8840   -0.9210   -0.1010 C   0  0  2  0  0  0  0  0  0  0  0  0
   -5.4110   -2.1630    0.5300 C   0  0  0  0  0  0  0  0  0  0  0  0
   -5.8740   -0.2200   -0.9830 C   0  0  0  0  0  0  0  0  0  0  0  0
   -5.4930    1.2280   -0.9060 C   0  0  0  0  0  0  0  0  0  0  0  0
   -4.4290    1.3470    0.1780 C   0  0  1  0  0  0  0  0  0  0  0  0
   -4.6810    0.1240    1.0050 C   0  0  0  0  0  0  0  0  0  0  0  0
   -3.0840    1.2670   -0.5190 C   0  0  1  0  0  0  0  0  0  0  0  0
   -2.0320    1.5700    0.4980 C   0  0  0  0  0  0  0  0  0  0  0  0
   -0.6300    1.5180   -0.0160 C   0  0  2  0  0  0  0  0  0  0  0  0
   -0.3060    2.6260   -0.9770 C   0  0  1  0  0  0  0  0  0  0  0  0
   -0.1380    3.9030   -0.1610 C   0  0  0  0  0  0  0  0  0  0  0  0
    0.8980    2.3630   -1.7700 C   0  0  0  0  0  0  0  0  0  0  0  0
    0.7570    2.3420   -3.0440 O   0  0  0  0  0  0  0  0  0  0  0  0
    2.1340    2.1430   -1.2630 O   0  0  0  0  0  0  0  0  0  0  0  0
    2.8640    2.8430   -0.3110 C   0  0  0  0  0  0  0  0  0  0  0  0
    3.0160    2.0040    0.9390 C   0  0  0  0  0  0  0  0  0  0  0  0
    4.3310    1.7600    1.3000 O   0  0  0  0  0  0  0  0  0  0  0  0
    5.1000    0.6430    1.0390 C   0  0  0  0  0  0  0  0  0  0  0  0
    5.6960   -0.0300    1.9180 O   0  0  0  0  0  0  0  0  0  0  0  0
    5.2360    0.2020   -0.3640 C   0  0  1  0  0  0  0  0  0  0  0  0
    6.5660    0.6530   -0.9690 C   0  0  0  0  0  0  0  0  0  0  0  0
    5.1690   -1.2280   -0.5180 N   0  0  0  0  0  0  0  0  0  0  0  0
    4.5220   -2.1180    0.3790 C   0  0  0  0  0  0  0  0  0  0  0  0
    5.0740   -3.2030    0.6990 O   0  0  0  0  0  0  0  0  0  0  0  0
    3.1920   -1.8470    0.9860 C   0  0  0  0  0  0  0  0  0  0  0  0
  2  1  1  6
  2  3  1  0
  2 35  1  0
  3  4  1  0
  4  5  1  0
  6  5  1  1
  6  7  1  0
  6 19  1  0
  7  8  2  0
  7  9  1  0
  9 10  1  1
  9 17  1  0
 10 11  1  0
 11 12  1  1
 11 13  1  0
 11 16  1  0
 13 14  1  0
 15 14  1  6
 15 16  1  0
 15 17  1  0
 17 18  1  1
 19 18  1  6
 19 20  1  0
 20 21  1  1
 20 22  1  0
 22 23  2  0
 22 24  1  0
 24 25  1  0
 25 26  1  0
 26 27  1  0
 27 28  1  0
 28 29  2  0
 28 30  1  0
 30 31  1  1
 30 32  1  0
 32 33  1  0
 33 34  2  0
 33 35  1  0
M  END
