
     RDKit          3D

 36 38  0  0  0  0  0  0  0  0999 V2000
   -5.2730    3.5990    1.7540 C   0  0  0  0  0  0  0  0  0  0  0  0
   -4.4720    2.8940    0.6480 C   0  0  0  0  0  0  0  0  0  0  0  0
   -3.3210    2.2060    1.3520 C   0  0  0  0  0  0  0  0  0  0  0  0
   -2.4180    1.4590    0.4390 C   0  0  2  0  0  0  0  0  0  0  0  0
   -1.7410    2.2410   -0.6160 C   0  0  0  0  0  0  0  0  0  0  0  0
   -0.7080    3.2150   -0.2290 C   0  0  1  0  0  0  0  0  0  0  0  0
   -1.2230    4.6500   -0.1650 C   0  0  0  0  0  0  0  0  0  0  0  0
   -1.7170    5.0630   -1.4030 O   0  0  0  0  0  0  0  0  0  0  0  0
    0.0610    2.8610    0.9870 C   0  0  0  0  0  0  0  0  0  0  0  0
    1.3110    2.3980    0.9830 C   0  0  0  0  0  0  0  0  0  0  0  0
    2.0820    2.1830   -0.2710 C   0  0  0  0  0  0  0  0  0  0  0  0
    3.0440    1.2090   -0.0090 O   0  0  0  0  0  0  0  0  0  0  0  0
    3.9550    1.1700   -1.0390 C   0  0  0  0  0  0  0  0  0  0  0  0
    5.3360    0.8220   -0.5050 C   0  0  1  0  0  0  0  0  0  0  0  0
    5.7760    1.8650    0.4930 C   0  0  0  0  0  0  0  0  0  0  0  0
    5.2250   -0.5050    0.2460 C   0  0  0  0  0  0  0  0  0  0  0  0
    5.4590   -1.6320   -0.6580 C   0  0  0  0  0  0  0  0  0  0  0  0
    6.1670   -1.3870   -1.6920 O   0  0  0  0  0  0  0  0  0  0  0  0
    4.9800   -2.9570   -0.4940 N   0  0  0  0  0  0  0  0  0  0  0  0
    3.6430   -3.2290   -0.0930 C   0  0  0  0  0  0  0  0  0  0  0  0
    3.4650   -4.1400    0.7850 O   0  0  0  0  0  0  0  0  0  0  0  0
    2.4460   -2.5390   -0.6170 C   0  0  0  0  0  0  0  0  0  0  0  0
    1.2930   -2.7440    0.3460 C   0  0  1  0  0  0  0  0  0  0  0  0
    1.7980   -2.5140    1.7390 C   0  0  0  0  0  0  0  0  0  0  0  0
    0.2080   -1.7080   -0.0150 C   0  0  0  0  0  0  0  0  0  0  0  0
   -0.9550   -2.3880    0.6600 C   0  0  1  0  0  0  0  0  0  0  0  0
   -2.2810   -1.8600    0.3900 C   0  0  0  0  0  0  0  0  0  0  0  0
   -2.4020   -0.8090   -0.6680 C   0  0  1  0  0  0  0  0  0  0  0  0
   -3.2570   -1.3510   -1.8250 C   0  0  0  0  0  0  0  0  0  0  0  0
   -3.9020   -0.1030   -2.3260 C   0  0  0  0  0  0  0  0  0  0  0  0
   -3.6950    0.9080   -1.4330 O   0  0  0  0  0  0  0  0  0  0  0  0
   -3.2280    0.3720   -0.2470 C   0  0  2  0  0  0  0  0  0  0  0  0
   -0.6880   -3.8220    0.2390 C   0  0  1  0  0  0  0  0  0  0  0  0
   -1.3700   -4.7650    1.1770 C   0  0  0  0  0  0  0  0  0  0  0  0
   -1.2370   -4.0830   -1.1620 C   0  0  0  0  0  0  0  0  0  0  0  0
    0.6820   -3.9660    0.1790 O   0  0  0  0  0  0  0  0  0  0  0  0
  1  2  1  0
  2  3  1  0
  4  3  1  6
  4  5  1  0
  4 32  1  0
  5  6  1  0
  6  7  1  1
  6  9  1  0
  7  8  1  0
  9 10  2  0
 10 11  1  0
 11 12  1  0
 12 13  1  0
 13 14  1  0
 14 15  1  1
 14 16  1  0
 16 17  1  0
 17 18  2  0
 17 19  1  0
 19 20  1  0
 20 21  2  0
 20 22  1  0
 22 23  1  0
 23 24  1  1
 23 25  1  0
 23 36  1  0
 25 26  1  0
 26 27  1  6
 26 33  1  0
 28 27  1  1
 28 29  1  0
 28 32  1  0
 29 30  1  0
 30 31  1  0
 32 31  1  6
 33 34  1  1
 33 35  1  0
 33 36  1  0
M  END
