
     RDKit          3D

 20 22  0  0  0  0  0  0  0  0999 V2000
   -0.4670   -1.6810   -2.1110 O   0  0  0  0  0  0  0  0  0  0  0  0
    0.2940   -1.0740   -1.3070 C   0  0  0  0  0  0  0  0  0  0  0  0
    1.6020   -1.1420   -1.3640 O   0  0  0  0  0  0  0  0  0  0  0  0
    2.3940   -0.5060   -0.5230 C   0  0  0  0  0  0  0  0  0  0  0  0
    3.7760   -0.6090   -0.6240 C   0  0  0  0  0  0  0  0  0  0  0  0
    4.5710    0.0700    0.2730 C   0  0  0  0  0  0  0  0  0  0  0  0
    5.9380   -0.0620    0.1350 O   0  0  0  0  0  0  0  0  0  0  0  0
    3.9980    0.8440    1.2610 C   0  0  0  0  0  0  0  0  0  0  0  0
    2.6080    0.9300    1.3400 C   0  0  0  0  0  0  0  0  0  0  0  0
    1.7990    0.2570    0.4510 C   0  0  0  0  0  0  0  0  0  0  0  0
    0.4260    0.3740    0.5690 C   0  0  0  0  0  0  0  0  0  0  0  0
   -0.3450   -0.3160   -0.3420 C   0  0  0  0  0  0  0  0  0  0  0  0
   -1.7910   -0.2140   -0.2490 C   0  0  0  0  0  0  0  0  0  0  0  0
   -2.4940   -0.8750    0.7310 C   0  0  0  0  0  0  0  0  0  0  0  0
   -3.8830   -0.7870    0.8260 C   0  0  0  0  0  0  0  0  0  0  0  0
   -4.5930   -1.4610    1.8230 O   0  0  0  0  0  0  0  0  0  0  0  0
   -4.5150   -0.0020   -0.1130 C   0  0  0  0  0  0  0  0  0  0  0  0
   -3.8230    0.6660   -1.1000 C   0  0  0  0  0  0  0  0  0  0  0  0
   -2.4500    0.5640   -1.1750 C   0  0  0  0  0  0  0  0  0  0  0  0
   -1.7360    1.2440   -2.1820 O   0  0  0  0  0  0  0  0  0  0  0  0
  1  2  2  0
  2  3  1  0
  2 12  1  0
  3  4  1  0
  4  5  2  0
  4 10  1  0
  5  6  1  0
  6  7  1  0
  6  8  2  0
  8  9  1  0
  9 10  2  0
 10 11  1  0
 11 12  2  0
 12 13  1  0
 13 14  2  0
 13 19  1  0
 14 15  1  0
 15 16  1  0
 15 17  2  0
 17 18  1  0
 18 19  2  0
 19 20  1  0
M  END
