
     RDKit          3D

 28 29  0  0  0  0  0  0  0  0999 V2000
   -4.3300   -0.1130    1.2920 O   0  0  0  0  0  0  0  0  0  0  0  0
   -3.8480    0.3050    0.2030 C   0  0  0  0  0  0  0  0  0  0  0  0
   -2.6590    1.0710    0.2410 N   0  0  0  0  0  0  0  0  0  0  0  0
   -1.9880    1.3850    1.4750 C   0  0  1  0  0  0  0  0  0  0  0  0
   -0.5810    0.8360    1.5210 C   0  0  0  0  0  0  0  0  0  0  0  0
    0.2810    1.3790    0.4210 C   0  0  0  0  0  0  0  0  0  0  0  0
    1.6650    0.7370    0.5960 C   0  0  0  0  0  0  0  0  0  0  0  0
    2.5550    1.2640   -0.4970 C   0  0  0  0  0  0  0  0  0  0  0  0
    3.8980    0.7440   -0.4540 N   0  0  0  0  0  0  0  0  0  0  0  0
    4.1270   -0.6460   -0.5790 C   0  0  0  0  0  0  0  0  0  0  0  0
    3.1360   -1.4200   -0.7290 O   0  0  0  0  0  0  0  0  0  0  0  0
    5.4720   -1.1730   -0.5350 C   0  0  0  0  0  0  0  0  0  0  0  0
    5.6360   -2.5390   -0.6620 C   0  0  0  0  0  0  0  0  0  0  0  0
    6.8640   -3.1240   -0.6320 C   0  0  0  0  0  0  0  0  0  0  0  0
    7.9810   -2.3500   -0.4730 C   0  0  0  0  0  0  0  0  0  0  0  0
    9.9060   -3.2020   -0.4200 I   0  0  0  0  0  0  0  0  0  0  0  0
    7.8520   -0.9880   -0.3440 C   0  0  0  0  0  0  0  0  0  0  0  0
    6.5890   -0.4090   -0.3760 C   0  0  0  0  0  0  0  0  0  0  0  0
   -2.0310    2.8410    1.6820 C   0  0  0  0  0  0  0  0  0  0  0  0
   -2.5880    3.5980    0.8560 O   0  0  0  0  0  0  0  0  0  0  0  0
   -1.4520    3.3930    2.8020 O   0  0  0  0  0  0  0  0  0  0  0  0
   -4.5390   -0.0260   -0.9800 N   0  0  0  0  0  0  0  0  0  0  0  0
   -5.7490   -0.8030   -1.0330 C   0  0  2  0  0  0  0  0  0  0  0  0
   -6.8830   -0.2050   -0.2830 C   0  0  0  0  0  0  0  0  0  0  0  0
   -7.9690   -0.8400   -0.2930 O   0  0  0  0  0  0  0  0  0  0  0  0
   -6.7910    0.9920    0.4070 O   0  0  0  0  0  0  0  0  0  0  0  0
   -5.7360   -2.2710   -1.1660 C   0  0  0  0  0  0  0  0  0  0  0  0
   -6.1310   -1.4110   -2.3540 C   0  0  0  0  0  0  0  0  0  0  0  0
  1  2  2  0
  2  3  1  0
  2 22  1  0
  3  4  1  0
  4  5  1  6
  4 19  1  0
  5  6  1  0
  6  7  1  0
  7  8  1  0
  8  9  1  0
  9 10  1  0
 10 11  2  0
 10 12  1  0
 12 13  2  0
 12 18  1  0
 13 14  1  0
 14 15  2  0
 15 16  1  0
 15 17  1  0
 17 18  2  0
 19 20  2  0
 19 21  1  0
 23 22  1  6
 23 24  1  0
 23 27  1  0
 23 28  1  0
 24 25  2  0
 24 26  1  0
 27 28  1  0
M  END
