
     RDKit          3D

 19 19  0  0  0  0  0  0  0  0999 V2000
    5.2490    1.5330   -1.2060 C   0  0  0  0  0  0  0  0  0  0  0  0
    4.6400    0.4880   -0.6770 C   0  0  0  0  0  0  0  0  0  0  0  0
    3.5740    0.6590    0.3090 C   0  0  0  0  0  0  0  0  0  0  0  0
    2.2480    0.0580   -0.1560 C   0  0  0  0  0  0  0  0  0  0  0  0
    1.2210    0.2850    0.9230 C   0  0  0  0  0  0  0  0  0  0  0  0
   -0.1070   -0.2730    0.5550 C   0  0  0  0  0  0  0  0  0  0  0  0
   -0.4040   -1.6130    0.5990 C   0  0  0  0  0  0  0  0  0  0  0  0
    0.6290   -2.5620    1.0290 C   0  0  0  0  0  0  0  0  0  0  0  0
   -1.6350   -2.1290    0.2570 C   0  0  0  0  0  0  0  0  0  0  0  0
   -1.8830   -3.5900    0.3290 C   0  0  0  0  0  0  0  0  0  0  0  0
   -2.6270   -1.2730   -0.1510 C   0  0  0  0  0  0  0  0  0  0  0  0
   -3.9440   -1.8240   -0.5160 C   0  0  0  0  0  0  0  0  0  0  0  0
   -2.3540    0.0960   -0.2050 C   0  0  0  0  0  0  0  0  0  0  0  0
   -3.4300    1.0090   -0.6460 C   0  0  0  0  0  0  0  0  0  0  0  0
   -1.1070    0.5860    0.1440 C   0  0  0  0  0  0  0  0  0  0  0  0
   -0.9000    2.0360    0.0610 C   0  0  0  0  0  0  0  0  0  0  0  0
   -1.1330    2.8010    1.0400 O   0  0  0  0  0  0  0  0  0  0  0  0
   -0.4380    2.6460   -1.0950 O   0  0  0  0  0  0  0  0  0  0  0  0
   -0.2400    4.0420   -1.1680 C   0  0  0  0  0  0  0  0  0  0  0  0
  1  2  2  0
  2  3  1  0
  3  4  1  0
  4  5  1  0
  5  6  1  0
  6  7  2  0
  6 15  1  0
  7  8  1  0
  7  9  1  0
  9 10  1  0
  9 11  2  0
 11 12  1  0
 11 13  1  0
 13 14  1  0
 13 15  2  0
 15 16  1  0
 16 17  2  0
 16 18  1  0
 18 19  1  0
M  END
