
     RDKit          3D

 19 19  0  0  0  0  0  0  0  0999 V2000
   -4.2610   -1.7830   -0.9020 C   0  0  0  0  0  0  0  0  0  0  0  0
   -4.6010   -0.3080   -0.7890 C   0  0  0  0  0  0  0  0  0  0  0  0
   -4.0230    0.3130    0.4550 C   0  0  1  0  0  0  0  0  0  0  0  0
   -4.4240    1.7750    0.4540 C   0  0  0  0  0  0  0  0  0  0  0  0
   -4.6910   -0.2820    1.7030 C   0  0  0  0  0  0  0  0  0  0  0  0
   -2.5570    0.1100    0.5890 C   0  0  0  0  0  0  0  0  0  0  0  0
   -1.7170    0.6540   -0.4640 C   0  0  0  0  0  0  0  0  0  0  0  0
   -2.1930    1.2900   -1.4250 O   0  0  0  0  0  0  0  0  0  0  0  0
   -0.2640    0.4640   -0.4180 C   0  0  0  0  0  0  0  0  0  0  0  0
    0.3310   -0.2290    0.6150 C   0  0  0  0  0  0  0  0  0  0  0  0
    1.6930   -0.4030    0.6500 C   0  0  0  0  0  0  0  0  0  0  0  0
    2.5440    0.1000   -0.3370 C   0  0  0  0  0  0  0  0  0  0  0  0
    3.9810   -0.0990   -0.2740 C   0  0  0  0  0  0  0  0  0  0  0  0
    4.8390    0.3370   -1.1530 C   0  0  0  0  0  0  0  0  0  0  0  0
    6.2910    0.0900   -1.0130 C   0  0  0  0  0  0  0  0  0  0  0  0
    6.5340   -0.7150    0.2360 C   0  0  0  0  0  0  0  0  0  0  0  0
    7.9200   -0.9300    0.3480 O   0  0  0  0  0  0  0  0  0  0  0  0
    1.9260    0.7830   -1.3500 C   0  0  0  0  0  0  0  0  0  0  0  0
    0.5540    0.9690   -1.4030 C   0  0  0  0  0  0  0  0  0  0  0  0
  1  2  1  0
  2  3  1  0
  3  4  1  6
  3  5  1  0
  3  6  1  0
  6  7  1  0
  7  8  2  0
  7  9  1  0
  9 10  2  0
  9 19  1  0
 10 11  1  0
 11 12  2  0
 12 13  1  0
 12 18  1  0
 13 14  2  3
 14 15  1  0
 15 16  1  0
 16 17  1  0
 18 19  2  0
M  END
