
     RDKit          3D

 29 31  0  0  0  0  0  0  0  0999 V2000
    7.0480    0.9680   -0.8590 C   0  0  0  0  0  0  0  0  0  0  0  0
    6.5920   -0.3840   -1.3730 C   0  0  0  0  0  0  0  0  0  0  0  0
    6.4250   -1.3760   -0.2530 C   0  0  0  0  0  0  0  0  0  0  0  0
    5.4050   -0.9400    0.7730 C   0  0  0  0  0  0  0  0  0  0  0  0
    4.1560   -0.8050    0.1130 O   0  0  0  0  0  0  0  0  0  0  0  0
    3.0100   -0.4060    0.8050 C   0  0  0  0  0  0  0  0  0  0  0  0
    3.1550   -0.1710    2.0250 O   0  0  0  0  0  0  0  0  0  0  0  0
    1.7440   -0.2860    0.1190 C   0  0  0  0  0  0  0  0  0  0  0  0
    0.5790    0.0910    0.7770 C   0  0  0  0  0  0  0  0  0  0  0  0
   -0.6450    0.1970    0.1550 C   0  0  0  0  0  0  0  0  0  0  0  0
   -1.8640    0.6060    0.8170 C   0  0  0  0  0  0  0  0  0  0  0  0
   -1.7760    1.7700    1.6060 O   0  0  0  0  0  0  0  0  0  0  0  0
   -1.7740    3.0130    0.9140 C   0  0  0  0  0  0  0  0  0  0  0  0
   -1.6800    4.0930    1.9650 C   0  0  0  0  0  0  0  0  0  0  0  0
   -1.6690    5.4360    1.3120 C   0  0  0  0  0  0  0  0  0  0  0  0
   -3.0280    0.0230    0.7680 C   0  0  0  0  0  0  0  0  0  0  0  0
   -4.3010    0.4540    1.4570 C   0  0  0  0  0  0  0  0  0  0  0  0
   -5.2760    0.1520    0.3030 C   0  0  0  0  0  0  0  0  0  0  0  0
   -4.7730   -1.1380   -0.2250 C   0  0  0  0  0  0  0  0  0  0  0  0
   -5.4080   -2.1630   -0.8850 C   0  0  0  0  0  0  0  0  0  0  0  0
   -4.6300   -3.2690   -1.2470 C   0  0  0  0  0  0  0  0  0  0  0  0
   -3.3020   -3.3500   -0.9690 C   0  0  0  0  0  0  0  0  0  0  0  0
   -2.4380   -4.5160   -1.3520 C   0  0  0  0  0  0  0  0  0  0  0  0
   -2.6810   -2.3100   -0.3050 C   0  0  0  0  0  0  0  0  0  0  0  0
   -3.4110   -1.1940    0.0730 C   0  0  0  0  0  0  0  0  0  0  0  0
   -0.6740   -0.0890   -1.1820 N   0  0  0  0  0  0  0  0  0  0  0  0
    0.4340   -0.4540   -1.8450 C   0  0  0  0  0  0  0  0  0  0  0  0
    0.3900   -0.7130   -3.0740 O   0  0  0  0  0  0  0  0  0  0  0  0
    1.6620   -0.5630   -1.2260 C   0  0  0  0  0  0  0  0  0  0  0  0
  1  2  1  0
  2  3  1  0
  3  4  1  0
  4  5  1  0
  5  6  1  0
  6  7  2  0
  6  8  1  0
  8  9  1  0
  8 29  2  0
  9 10  2  0
 10 11  1  0
 10 26  1  0
 11 12  1  0
 11 16  2  3
 12 13  1  0
 13 14  1  0
 14 15  1  0
 16 17  1  0
 16 25  1  0
 17 18  1  0
 18 19  1  0
 19 20  2  0
 19 25  1  0
 20 21  1  0
 21 22  2  0
 22 23  1  0
 22 24  1  0
 24 25  2  0
 26 27  1  0
 27 28  2  0
 27 29  1  0
M  END
