
     RDKit          3D

 29 29  0  0  0  0  0  0  0  0999 V2000
    8.3570   -0.4250   -0.8120 C   0  0  0  0  0  0  0  0  0  0  0  0
    7.5450   -1.0040    0.0750 C   0  0  0  0  0  0  0  0  0  0  0  0
    6.6360   -1.6200    1.0480 C   0  0  0  0  0  0  0  0  0  0  0  0
    5.3130   -1.1880    0.2110 C   0  0  2  0  0  0  0  0  0  0  0  0
    4.0820   -1.2520    0.8990 N   0  0  0  0  0  0  0  0  0  0  0  0
    3.2870   -0.0560    0.6700 C   0  0  0  0  0  0  0  0  0  0  0  0
    3.8970    0.8650    0.0310 O   0  0  0  0  0  0  0  0  0  0  0  0
    1.9930    0.2540    1.0180 N   0  0  0  0  0  0  0  0  0  0  0  0
    1.3430    1.5080    0.4350 C   0  0  1  0  0  0  0  0  0  0  0  0
   -0.0540    1.4520    0.9430 C   0  0  0  0  0  0  0  0  0  0  0  0
   -0.7750    0.2380    0.4060 C   0  0  0  0  0  0  0  0  0  0  0  0
   -1.2330    0.4530   -1.0090 C   0  0  0  0  0  0  0  0  0  0  0  0
   -2.2620    1.5230   -1.0770 C   0  0  0  0  0  0  0  0  0  0  0  0
   -3.4720    1.2960   -0.2850 N   0  0  0  0  0  0  0  0  0  0  0  0
   -4.2220    0.1150   -0.4200 C   0  0  0  0  0  0  0  0  0  0  0  0
   -3.6710   -0.7780   -1.1910 O   0  0  0  0  0  0  0  0  0  0  0  0
   -5.4700   -0.2660    0.1160 C   0  0  0  0  0  0  0  0  0  0  0  0
   -5.9850   -0.2460    1.3630 C   0  0  0  0  0  0  0  0  0  0  0  0
   -7.2680   -0.6820    1.5990 C   0  0  0  0  0  0  0  0  0  0  0  0
   -8.0920   -1.1500    0.6140 C   0  0  0  0  0  0  0  0  0  0  0  0
   -9.9570   -1.9710    1.0300 I   0  0  0  0  0  0  0  0  0  0  0  0
   -7.6250   -1.1830   -0.6680 C   0  0  0  0  0  0  0  0  0  0  0  0
   -6.3440   -0.7480   -0.9070 C   0  0  0  0  0  0  0  0  0  0  0  0
    2.0880    2.6600    0.8290 C   0  0  0  0  0  0  0  0  0  0  0  0
    2.5470    3.1840    1.7470 O   0  0  0  0  0  0  0  0  0  0  0  0
    2.2940    3.5530   -0.5080 O   0  0  0  0  0  0  0  0  0  0  0  0
    5.2270   -2.2730   -0.8690 C   0  0  0  0  0  0  0  0  0  0  0  0
    5.9880   -3.1870   -0.9720 O   0  0  0  0  0  0  0  0  0  0  0  0
    4.1380   -2.1300   -1.7750 O   0  0  0  0  0  0  0  0  0  0  0  0
  1  2  3  0
  2  3  1  0
  4  3  1  1
  4  5  1  0
  4 27  1  0
  5  6  1  0
  6  7  2  0
  6  8  1  0
  8  9  1  0
  9 10  1  1
  9 24  1  0
 10 11  1  0
 11 12  1  0
 12 13  1  0
 13 14  1  0
 14 15  1  0
 15 16  2  0
 15 17  1  0
 17 18  2  0
 17 23  1  0
 18 19  1  0
 19 20  2  0
 20 21  1  0
 20 22  1  0
 22 23  2  0
 24 25  2  0
 24 26  1  0
 27 28  2  0
 27 29  1  0
M  END
