
     RDKit          3D

 29 31  0  0  0  0  0  0  0  0999 V2000
   -5.9740   -2.9280    1.0980 C   0  0  0  0  0  0  0  0  0  0  0  0
   -5.5390   -1.7110    0.2830 C   0  0  0  0  0  0  0  0  0  0  0  0
   -6.4800   -1.0140   -0.0490 O   0  0  0  0  0  0  0  0  0  0  0  0
   -4.1280   -1.5240    0.0060 C   0  0  0  0  0  0  0  0  0  0  0  0
   -3.6150   -0.3160   -0.6400 C   0  0  1  0  0  0  0  0  0  0  0  0
   -4.2310   -0.3330   -1.9640 O   0  0  0  0  0  0  0  0  0  0  0  0
   -4.1350    0.9510   -0.0770 C   0  0  0  0  0  0  0  0  0  0  0  0
   -5.2710    1.5200   -0.6480 C   0  0  0  0  0  0  0  0  0  0  0  0
   -5.7160    2.7810   -0.2380 C   0  0  0  0  0  0  0  0  0  0  0  0
   -5.0430    3.4740    0.7330 C   0  0  0  0  0  0  0  0  0  0  0  0
   -3.9200    2.9120    1.3020 C   0  0  0  0  0  0  0  0  0  0  0  0
   -3.4720    1.6520    0.8940 C   0  0  0  0  0  0  0  0  0  0  0  0
   -2.3090    1.1620    1.5440 O   0  0  0  0  0  0  0  0  0  0  0  0
   -1.1200    0.9420    0.8230 C   0  0  0  0  0  0  0  0  0  0  0  0
   -0.4730   -0.2560    0.7190 C   0  0  0  0  0  0  0  0  0  0  0  0
    0.7040   -0.3970   -0.0190 C   0  0  0  0  0  0  0  0  0  0  0  0
    1.2410    0.6970   -0.6680 C   0  0  0  0  0  0  0  0  0  0  0  0
    2.5040    0.6510   -1.4610 C   0  0  0  0  0  0  0  0  0  0  0  0
    3.4870   -0.0620   -0.5510 C   0  0  0  0  0  0  0  0  0  0  0  0
    3.4950   -1.3400   -0.5220 O   0  0  0  0  0  0  0  0  0  0  0  0
    4.3830    0.6500    0.2690 N   0  0  0  0  0  0  0  0  0  0  0  0
    5.3230    0.0070    1.1200 C   0  0  0  0  0  0  0  0  0  0  0  0
    6.3390   -0.7570    0.3470 C   0  0  0  0  0  0  0  0  0  0  0  0
    6.4300   -0.8680   -0.9560 C   0  0  0  0  0  0  0  0  0  0  0  0
    7.5950   -1.7210   -1.2950 C   0  0  0  0  0  0  0  0  0  0  0  0
    8.1440   -2.0870    0.0260 C   0  0  0  0  0  0  0  0  0  0  0  0
    7.4050   -1.5180    0.9660 C   0  0  0  0  0  0  0  0  0  0  0  0
    0.5710    1.9120   -0.5570 C   0  0  0  0  0  0  0  0  0  0  0  0
   -0.5770    2.0440    0.1630 C   0  0  0  0  0  0  0  0  0  0  0  0
  1  2  1  0
  2  3  2  0
  2  4  1  0
  4  5  1  0
  5  6  1  6
  5  7  1  0
  7  8  2  0
  7 12  1  0
  8  9  1  0
  9 10  2  0
 10 11  1  0
 11 12  2  0
 12 13  1  0
 13 14  1  0
 14 15  2  0
 14 29  1  0
 15 16  1  0
 16 17  2  0
 17 18  1  0
 17 28  1  0
 18 19  1  0
 19 20  2  0
 19 21  1  0
 21 22  1  0
 22 23  1  0
 23 24  2  0
 23 27  1  0
 24 25  1  0
 25 26  1  0
 26 27  2  0
 28 29  2  0
M  END
