
     RDKit          3D

 28 31  0  0  0  0  0  0  0  0999 V2000
    5.6090    1.7480   -1.4050 C   0  0  0  0  0  0  0  0  0  0  0  0
    4.8010    0.6790   -0.7260 C   0  0  0  0  0  0  0  0  0  0  0  0
    3.4110    0.7660   -0.9370 C   0  0  0  0  0  0  0  0  0  0  0  0
    2.6250   -0.1860   -0.3170 C   0  0  0  0  0  0  0  0  0  0  0  0
    1.2080   -0.3390   -0.2910 C   0  0  0  0  0  0  0  0  0  0  0  0
    0.2640    0.4500   -1.0770 C   0  0  2  0  0  0  0  0  0  0  0  0
    0.8770    1.4890   -1.8280 O   0  0  0  0  0  0  0  0  0  0  0  0
   -1.0420    0.8550   -0.5690 C   0  0  1  0  0  0  0  0  0  0  0  0
   -0.6870    2.1370    0.3850 C   0  0  0  0  0  0  0  0  0  0  0  0
   -1.7330    1.6400   -1.7240 C   0  0  0  0  0  0  0  0  0  0  0  0
   -2.0010    0.2300    0.1660 N   0  0  0  0  0  0  0  0  0  0  0  0
   -1.9130   -0.1490    1.4990 C   0  0  0  0  0  0  0  0  0  0  0  0
   -2.7100   -1.4030    1.7920 C   0  0  0  0  0  0  0  0  0  0  0  0
   -3.7510   -1.5470    0.8590 O   0  0  0  0  0  0  0  0  0  0  0  0
   -4.3280   -0.3260    0.5500 C   0  0  2  0  0  0  0  0  0  0  0  0
   -5.5830   -0.5480   -0.2560 C   0  0  0  0  0  0  0  0  0  0  0  0
   -6.7710    0.0460   -0.0890 N   0  0  0  0  0  0  0  0  0  0  0  0
   -7.5880   -0.3990   -1.0080 N   0  0  0  0  0  0  0  0  0  0  0  0
   -6.9610   -1.2810   -1.7790 N   0  0  0  0  0  0  0  0  0  0  0  0
   -5.7310   -1.3640   -1.3070 N   0  0  0  0  0  0  0  0  0  0  0  0
   -3.3590    0.4580   -0.3000 C   0  0  0  0  0  0  0  0  0  0  0  0
    1.0300   -1.4210    0.5210 C   0  0  0  0  0  0  0  0  0  0  0  0
    2.2160   -1.9110    0.9690 N   0  0  0  0  0  0  0  0  0  0  0  0
    3.1840   -1.1630    0.4630 C   0  0  0  0  0  0  0  0  0  0  0  0
    4.5660   -1.2610    0.6810 C   0  0  0  0  0  0  0  0  0  0  0  0
    5.1360   -2.3300    1.5380 C   0  0  0  0  0  0  0  0  0  0  0  0
    5.3510   -0.2970    0.0500 C   0  0  0  0  0  0  0  0  0  0  0  0
    6.7020   -0.3260    0.2280 F   0  0  0  0  0  0  0  0  0  0  0  0
  1  2  1  0
  2  3  2  0
  2 27  1  0
  3  4  1  0
  4  5  1  0
  4 24  2  0
  5  6  1  0
  5 22  2  0
  6  7  1  1
  6  8  1  0
  8  9  1  1
  8 10  1  0
  8 11  1  0
 11 12  1  0
 11 21  1  0
 12 13  1  0
 13 14  1  0
 14 15  1  0
 15 16  1  6
 15 21  1  0
 16 17  2  0
 16 20  1  0
 17 18  1  0
 18 19  2  0
 19 20  1  0
 22 23  1  0
 23 24  1  0
 24 25  1  0
 25 26  1  0
 25 27  2  0
 27 28  1  0
M  END
