
     RDKit          3D

 29 33  0  0  0  0  0  0  0  0999 V2000
    5.2580   -1.4340   -1.7000 C   0  0  0  0  0  0  0  0  0  0  0  0
    4.2590   -1.3730   -0.9230 N   0  0  0  0  0  0  0  0  0  0  0  0
    3.7530   -0.3370   -0.2270 C   0  0  0  0  0  0  0  0  0  0  0  0
    2.5100    0.2270   -0.3950 C   0  0  0  0  0  0  0  0  0  0  0  0
    1.8240    0.4200   -1.6270 C   0  0  0  0  0  0  0  0  0  0  0  0
    0.4670    0.0990   -1.8720 C   0  0  0  0  0  0  0  0  0  0  0  0
   -0.3830   -0.4140   -0.8770 N   0  0  0  0  0  0  0  0  0  0  0  0
   -1.6340   -0.9690   -1.1650 C   0  0  0  0  0  0  0  0  0  0  0  0
   -2.0760   -1.0400   -2.3810 O   0  0  0  0  0  0  0  0  0  0  0  0
   -2.5460   -1.5100   -0.1790 C   0  0  0  0  0  0  0  0  0  0  0  0
   -2.6580   -2.8650   -0.0430 C   0  0  0  0  0  0  0  0  0  0  0  0
   -3.4570   -3.4570    0.9390 C   0  0  0  0  0  0  0  0  0  0  0  0
   -4.1470   -2.6660    1.7890 C   0  0  0  0  0  0  0  0  0  0  0  0
   -4.9280   -3.2480    2.7550 F   0  0  0  0  0  0  0  0  0  0  0  0
   -4.0460   -1.2710    1.6660 C   0  0  0  0  0  0  0  0  0  0  0  0
   -3.2500   -0.6820    0.6880 C   0  0  0  0  0  0  0  0  0  0  0  0
   -3.1970    0.7780    0.5890 C   0  0  1  0  0  0  0  0  0  0  0  0
   -4.1990    1.5810    1.4140 C   0  0  0  0  0  0  0  0  0  0  0  0
   -2.7390    1.6650    1.6820 C   0  0  0  0  0  0  0  0  0  0  0  0
    0.2460    0.4240   -3.1730 C   0  0  0  0  0  0  0  0  0  0  0  0
    1.3690    0.9110   -3.7100 N   0  0  0  0  0  0  0  0  0  0  0  0
    2.3500    0.9220   -2.7950 C   0  0  0  0  0  0  0  0  0  0  0  0
    3.6380    1.3700   -3.0160 F   0  0  0  0  0  0  0  0  0  0  0  0
    2.0110    0.4610    0.9280 C   0  0  0  0  0  0  0  0  0  0  0  0
    1.4070    1.5990    1.4130 N   0  0  0  0  0  0  0  0  0  0  0  0
    2.7550    2.2240    1.8120 O   0  0  0  0  0  0  0  0  0  0  0  0
    3.6690    1.1610    1.9020 C   0  0  1  0  0  0  0  0  0  0  0  0
    2.6090    0.1130    2.1520 N   0  0  0  0  0  0  0  0  0  0  0  0
    4.3730    0.5110    0.8380 N   0  0  0  0  0  0  0  0  0  0  0  0
  1  2  2  0
  2  3  1  0
  3  4  2  0
  3 29  1  0
  4  5  1  0
  4 24  1  0
  5  6  1  0
  5 22  2  0
  6  7  1  0
  6 20  2  0
  7  8  1  0
  8  9  2  0
  8 10  1  0
 10 11  2  0
 10 16  1  0
 11 12  1  0
 12 13  2  0
 13 14  1  0
 13 15  1  0
 15 16  2  0
 17 16  1  1
 17 18  1  0
 17 19  1  0
 18 19  1  0
 20 21  1  0
 21 22  1  0
 22 23  1  0
 24 25  2  0
 24 28  1  0
 25 26  1  0
 26 27  1  0
 27 28  1  0
 27 29  1  6
M  END
