
     RDKit          3D

 32 35  0  0  0  0  0  0  0  0999 V2000
   -5.7250   -1.0870   -4.4320 C   0  0  0  0  0  0  0  0  0  0  0  0
   -5.2670    0.2770   -3.9630 C   0  0  0  0  0  0  0  0  0  0  0  0
   -4.8840    0.2060   -2.5520 C   0  0  0  0  0  0  0  0  0  0  0  0
   -3.5100    0.1940   -2.2460 C   0  0  0  0  0  0  0  0  0  0  0  0
   -3.0850    0.1280   -0.9540 C   0  0  0  0  0  0  0  0  0  0  0  0
   -1.7340    0.1300   -0.5640 N   0  0  0  0  0  0  0  0  0  0  0  0
   -0.5920    0.1270   -1.3720 C   0  0  0  0  0  0  0  0  0  0  0  0
   -0.7150    0.1130   -2.6120 O   0  0  0  0  0  0  0  0  0  0  0  0
    0.7780    0.1390   -0.8650 C   0  0  0  0  0  0  0  0  0  0  0  0
    1.0230    0.6110    0.4020 C   0  0  0  0  0  0  0  0  0  0  0  0
    2.3030    0.6410    0.9310 C   0  0  0  0  0  0  0  0  0  0  0  0
    3.3540    0.1970    0.1910 C   0  0  0  0  0  0  0  0  0  0  0  0
    4.6950    0.1110    0.4500 N   0  0  0  0  0  0  0  0  0  0  0  0
    5.3010   -0.3960   -0.6070 C   0  0  0  0  0  0  0  0  0  0  0  0
    6.7640   -0.6720   -0.7690 C   0  0  2  0  0  0  0  0  0  0  0  0
    7.1320   -1.8600    0.0470 C   0  0  0  0  0  0  0  0  0  0  0  0
    7.7070   -1.4620    1.3690 C   0  0  0  0  0  0  0  0  0  0  0  0
    8.9170   -0.6880    1.0910 N   0  0  0  0  0  0  0  0  0  0  0  0
    8.4800    0.6070    0.6050 C   0  0  0  0  0  0  0  0  0  0  0  0
    7.5920    0.5320   -0.5780 C   0  0  0  0  0  0  0  0  0  0  0  0
    4.3530   -0.6320   -1.5320 N   0  0  0  0  0  0  0  0  0  0  0  0
    3.1440   -0.2820   -1.0840 C   0  0  0  0  0  0  0  0  0  0  0  0
    1.8480   -0.3080   -1.6080 C   0  0  0  0  0  0  0  0  0  0  0  0
   -4.0590    0.0740    0.0680 C   0  0  0  0  0  0  0  0  0  0  0  0
   -3.5980    0.0070    1.3570 O   0  0  0  0  0  0  0  0  0  0  0  0
   -4.3870   -0.0520    2.4980 C   0  0  1  0  0  0  0  0  0  0  0  0
   -4.1520   -1.3380    3.2860 C   0  0  0  0  0  0  0  0  0  0  0  0
   -4.0300    1.1550    3.3540 C   0  0  0  0  0  0  0  0  0  0  0  0
   -4.7980    1.1940    4.5700 N   0  0  0  0  0  0  0  0  0  0  0  0
   -5.4050    0.0860   -0.2290 C   0  0  0  0  0  0  0  0  0  0  0  0
   -5.8250    0.1540   -1.5600 C   0  0  0  0  0  0  0  0  0  0  0  0
   -7.2780    0.1670   -1.8560 C   0  0  0  0  0  0  0  0  0  0  0  0
  1  2  1  0
  2  3  1  0
  3  4  2  0
  3 31  1  0
  4  5  1  0
  5  6  1  0
  5 24  2  0
  6  7  1  0
  7  8  2  0
  7  9  1  0
  9 10  2  0
  9 23  1  0
 10 11  1  0
 11 12  2  0
 12 13  1  0
 12 22  1  0
 13 14  1  0
 15 14  1  1
 14 21  2  0
 15 16  1  0
 15 20  1  0
 16 17  1  0
 17 18  1  0
 18 19  1  0
 19 20  1  0
 21 22  1  0
 22 23  2  0
 24 25  1  0
 24 30  1  0
 25 26  1  0
 26 27  1  1
 26 28  1  0
 28 29  1  0
 30 31  2  0
 31 32  1  0
M  CHG  2  18   1  29   1
M  END
