
     RDKit          3D

 32 34  0  0  0  0  0  0  0  0999 V2000
   -3.5150    1.6380    2.5270 C   0  0  0  0  0  0  0  0  0  0  0  0
   -4.2390    0.5410    1.8730 C   0  0  0  0  0  0  0  0  0  0  0  0
   -4.3350    0.5080    0.5420 C   0  0  0  0  0  0  0  0  0  0  0  0
   -3.6940    1.6010   -0.2140 C   0  0  0  0  0  0  0  0  0  0  0  0
   -5.0960   -0.5590   -0.0610 C   0  0  0  0  0  0  0  0  0  0  0  0
   -5.2200   -0.7800   -1.5000 C   0  0  0  0  0  0  0  0  0  0  0  0
   -4.0670   -1.3810   -2.2080 C   0  0  1  0  0  0  0  0  0  0  0  0
   -4.3810   -1.5200   -3.6350 N   0  0  0  0  0  0  0  0  0  0  0  0
   -2.7920   -0.6590   -2.0200 C   0  0  0  0  0  0  0  0  0  0  0  0
   -1.9010   -1.1480   -1.2020 C   0  0  0  0  0  0  0  0  0  0  0  0
   -2.1490   -2.3490   -0.5010 O   0  0  0  0  0  0  0  0  0  0  0  0
   -1.5270   -2.4340    0.7860 C   0  0  0  0  0  0  0  0  0  0  0  0
   -0.0520   -2.3310    0.5390 C   0  0  0  0  0  0  0  0  0  0  0  0
    0.2760   -1.0510   -0.1140 C   0  0  0  0  0  0  0  0  0  0  0  0
    1.4960   -0.4250    0.1190 C   0  0  0  0  0  0  0  0  0  0  0  0
    1.8560    0.7490   -0.4830 C   0  0  0  0  0  0  0  0  0  0  0  0
    3.0840    1.4060   -0.2910 N   0  0  0  0  0  0  0  0  0  0  0  0
    4.2190    0.8500    0.3200 C   0  0  0  0  0  0  0  0  0  0  0  0
    4.2240   -0.3450    0.7610 O   0  0  0  0  0  0  0  0  0  0  0  0
    5.4250    1.6810    0.4460 C   0  0  0  0  0  0  0  0  0  0  0  0
    5.4090    2.9370   -0.0120 N   0  0  0  0  0  0  0  0  0  0  0  0
    6.4740    3.7630    0.0640 C   0  0  0  0  0  0  0  0  0  0  0  0
    7.6050    3.2590    0.6410 C   0  0  0  0  0  0  0  0  0  0  0  0
    7.6510    1.9610    1.1240 C   0  0  0  0  0  0  0  0  0  0  0  0
    6.5350    1.1250    1.0350 C   0  0  0  0  0  0  0  0  0  0  0  0
    6.5980   -0.2580    1.5570 C   0  0  0  0  0  0  0  0  0  0  0  0
    7.9210   -0.5250    2.1120 N   0  0  0  0  0  0  0  0  0  0  0  0
    0.9280    1.3180   -1.3690 C   0  0  0  0  0  0  0  0  0  0  0  0
   -0.2780    0.7160   -1.6110 C   0  0  0  0  0  0  0  0  0  0  0  0
   -0.6280   -0.4790   -0.9890 C   0  0  0  0  0  0  0  0  0  0  0  0
   -5.6840   -1.4230    0.7310 N   0  0  0  0  0  0  0  0  0  0  0  0
   -6.4690   -2.5270    0.2110 C   0  0  0  0  0  0  0  0  0  0  0  0
  1  2  1  0
  2  3  2  3
  3  4  1  0
  3  5  1  0
  5  6  1  0
  5 31  2  3
  6  7  1  0
  7  8  1  6
  7  9  1  0
  9 10  2  3
 10 11  1  0
 10 30  1  0
 11 12  1  0
 12 13  1  0
 13 14  1  0
 14 15  2  0
 14 30  1  0
 15 16  1  0
 16 17  1  0
 16 28  2  0
 17 18  1  0
 18 19  2  0
 18 20  1  0
 20 21  2  0
 20 25  1  0
 21 22  1  0
 22 23  2  0
 23 24  1  0
 24 25  2  0
 25 26  1  0
 26 27  1  0
 28 29  1  0
 29 30  2  0
 31 32  1  0
M  CHG  2   8   1  27   1
M  END
