
     RDKit          3D

 33 35  0  0  0  0  0  0  0  0999 V2000
    8.6260   -3.4950   -0.2580 C   0  0  0  0  0  0  0  0  0  0  0  0
    7.3200   -2.9920   -0.1420 O   0  0  0  0  0  0  0  0  0  0  0  0
    7.0920   -1.6350   -0.2830 C   0  0  0  0  0  0  0  0  0  0  0  0
    8.0650   -0.9090   -0.5090 O   0  0  0  0  0  0  0  0  0  0  0  0
    5.7300   -1.1280   -0.1600 C   0  0  0  0  0  0  0  0  0  0  0  0
    4.6290   -1.8970    0.0880 N   0  0  0  0  0  0  0  0  0  0  0  0
    3.5140   -1.1780    0.1530 C   0  0  0  0  0  0  0  0  0  0  0  0
    2.2000   -1.5010    0.3790 N   0  0  0  0  0  0  0  0  0  0  0  0
    1.2490   -0.5720    0.4000 C   0  0  0  0  0  0  0  0  0  0  0  0
   -0.1570   -0.9450    0.6780 C   0  0  0  0  0  0  0  0  0  0  0  0
   -0.4370   -2.1380    0.9820 O   0  0  0  0  0  0  0  0  0  0  0  0
   -1.2020   -0.0110    0.6170 N   0  0  0  0  0  0  0  0  0  0  0  0
   -2.5370   -0.3930    0.9040 N   0  0  0  0  0  0  0  0  0  0  0  0
   -3.6180    0.4550    0.6250 C   0  0  0  0  0  0  0  0  0  0  0  0
   -3.3720    1.5730    0.0780 O   0  0  0  0  0  0  0  0  0  0  0  0
   -4.9730    0.1740    0.9050 N   0  0  0  0  0  0  0  0  0  0  0  0
   -6.0360    1.1220    0.5820 C   0  0  2  0  0  0  0  0  0  0  0  0
   -6.4180    1.8140    1.9190 C   0  0  0  0  0  0  0  0  0  0  0  0
   -7.2670    0.4680    0.0920 C   0  0  0  0  0  0  0  0  0  0  0  0
   -8.5040    0.3790    0.7420 C   0  0  0  0  0  0  0  0  0  0  0  0
   -9.3570   -0.3190   -0.0820 C   0  0  0  0  0  0  0  0  0  0  0  0
  -10.7040   -0.6070    0.2420 O   0  0  0  0  0  0  0  0  0  0  0  0
   -8.7000   -0.6340   -1.1510 O   0  0  0  0  0  0  0  0  0  0  0  0
   -7.4590   -0.1920   -1.0960 C   0  0  0  0  0  0  0  0  0  0  0  0
   -6.4740   -0.4170   -2.2050 C   0  0  0  0  0  0  0  0  0  0  0  0
    1.5990    0.7350    0.1880 C   0  0  0  0  0  0  0  0  0  0  0  0
    2.9050    1.0580   -0.0380 N   0  0  0  0  0  0  0  0  0  0  0  0
    3.8700    0.1270   -0.0590 C   0  0  0  0  0  0  0  0  0  0  0  0
    5.2640    0.1610   -0.2550 C   0  0  0  0  0  0  0  0  0  0  0  0
    6.0090    1.3800   -0.4990 C   0  0  0  0  0  0  0  0  0  0  0  0
    5.3730    2.4890   -0.5520 O   0  0  0  0  0  0  0  0  0  0  0  0
    7.3520    1.4660   -0.6810 O   0  0  0  0  0  0  0  0  0  0  0  0
    7.9820    2.7360   -0.9140 C   0  0  0  0  0  0  0  0  0  0  0  0
  1  2  1  0
  2  3  1  0
  3  4  2  0
  3  5  1  0
  5  6  1  0
  5 29  2  0
  6  7  1  0
  7  8  2  0
  7 28  1  0
  8  9  1  0
  9 10  1  0
  9 26  2  0
 10 11  2  0
 10 12  1  0
 12 13  1  0
 13 14  1  0
 14 15  2  0
 14 16  1  0
 16 17  1  0
 17 18  1  1
 17 19  1  0
 19 20  1  0
 19 24  2  0
 20 21  2  0
 21 22  1  0
 21 23  1  0
 23 24  1  0
 24 25  1  0
 26 27  1  0
 27 28  2  0
 28 29  1  0
 29 30  1  0
 30 31  2  0
 30 32  1  0
 32 33  1  0
M  CHG  2  22  -1  27   1
M  END
