
     RDKit          3D

 32 35  0  0  0  0  0  0  0  0999 V2000
    0.6920    1.3440   -2.5450 N   0  0  0  0  0  0  0  0  0  0  0  0
    0.4590    1.5490   -1.1470 C   0  0  0  0  0  0  0  0  0  0  0  0
   -0.0570    2.5950   -0.6960 O   0  0  0  0  0  0  0  0  0  0  0  0
    0.8670    0.4360   -0.2360 C   0  0  2  0  0  0  0  0  0  0  0  0
    2.3260    0.1990   -0.3200 C   0  0  0  0  0  0  0  0  0  0  0  0
    2.9000   -0.1630   -1.3860 O   0  0  0  0  0  0  0  0  0  0  0  0
    3.1130    0.3870    0.8430 N   0  0  0  0  0  0  0  0  0  0  0  0
    4.5230    0.1810    0.8480 C   0  0  0  0  0  0  0  0  0  0  0  0
    5.1370   -0.2110   -0.3070 N   0  0  0  0  0  0  0  0  0  0  0  0
    6.4640   -0.4120   -0.3290 C   0  0  0  0  0  0  0  0  0  0  0  0
    7.2490   -0.2350    0.7920 C   0  0  0  0  0  0  0  0  0  0  0  0
    8.7310   -0.4570    0.7750 C   0  0  0  0  0  0  0  0  0  0  0  0
    9.1200   -0.8430   -0.4860 O   0  0  0  0  0  0  0  0  0  0  0  0
    6.6140    0.1510    1.9140 N   0  0  0  0  0  0  0  0  0  0  0  0
    5.2850    0.3580    1.9590 C   0  0  0  0  0  0  0  0  0  0  0  0
    4.6980    0.7210    3.0180 O   0  0  0  0  0  0  0  0  0  0  0  0
    0.0660   -0.7740   -0.6030 C   0  0  0  0  0  0  0  0  0  0  0  0
   -1.3710   -0.4960   -0.3650 C   0  0  0  0  0  0  0  0  0  0  0  0
   -2.5190   -0.9670   -0.9070 N   0  0  0  0  0  0  0  0  0  0  0  0
   -3.5880   -0.3950   -0.3270 C   0  0  0  0  0  0  0  0  0  0  0  0
   -5.0400   -0.6210   -0.6170 C   0  0  1  0  0  0  0  0  0  0  0  0
   -5.7910   -1.0520    0.6220 C   0  0  0  0  0  0  0  0  0  0  0  0
   -6.9510   -0.1310    0.9300 C   0  0  0  0  0  0  0  0  0  0  0  0
   -7.7900    0.0660   -0.1430 O   0  0  0  0  0  0  0  0  0  0  0  0
   -7.1270    0.4250   -1.3000 C   0  0  0  0  0  0  0  0  0  0  0  0
   -5.6580    0.7120   -1.0510 C   0  0  0  0  0  0  0  0  0  0  0  0
   -3.1020    0.4520    0.5980 N   0  0  0  0  0  0  0  0  0  0  0  0
   -3.8380    1.2530    1.4340 O   0  0  0  0  0  0  0  0  0  0  0  0
   -1.7610    0.4180    0.6040 C   0  0  0  0  0  0  0  0  0  0  0  0
   -0.7550    1.1260    1.3810 C   0  0  0  0  0  0  0  0  0  0  0  0
   -1.0090    1.9640    2.2740 O   0  0  0  0  0  0  0  0  0  0  0  0
    0.5580    0.8260    1.0850 O   0  0  0  0  0  0  0  0  0  0  0  0
  1  2  1  0
  2  3  2  0
  4  2  1  6
  4  5  1  0
  4 17  1  0
  4 32  1  0
  5  6  2  0
  5  7  1  0
  7  8  1  0
  8  9  2  0
  8 15  1  0
  9 10  1  0
 10 11  2  0
 11 12  1  0
 11 14  1  0
 12 13  1  0
 14 15  1  0
 15 16  2  0
 17 18  1  0
 18 19  1  0
 18 29  2  0
 19 20  1  0
 21 20  1  1
 20 27  2  0
 21 22  1  0
 21 26  1  0
 22 23  1  0
 23 24  1  0
 24 25  1  0
 25 26  1  0
 27 28  1  0
 27 29  1  0
 29 30  1  0
 30 31  2  0
 30 32  1  0
M  CHG  2  27   1  28  -1
M  END
