
     RDKit          3D

 32 35  0  0  0  0  0  0  0  0999 V2000
    6.2680   -4.1610    2.3290 C   0  0  0  0  0  0  0  0  0  0  0  0
    5.7640   -4.0090    0.8730 C   0  0  0  0  0  0  0  0  0  0  0  0
    4.9070   -3.0490    0.7150 O   0  0  0  0  0  0  0  0  0  0  0  0
    4.0440   -2.1150    0.5770 C   0  0  0  0  0  0  0  0  0  0  0  0
    2.8230   -2.1180    1.2700 C   0  0  0  0  0  0  0  0  0  0  0  0
    1.9090   -1.1100    1.1110 C   0  0  0  0  0  0  0  0  0  0  0  0
    2.1860   -0.0660    0.2530 C   0  0  0  0  0  0  0  0  0  0  0  0
    1.2440    0.9320    0.1140 C   0  0  0  0  0  0  0  0  0  0  0  0
    0.0220    0.8530    0.8270 N   0  0  0  0  0  0  0  0  0  0  0  0
   -1.0010   -0.1330    0.4880 C   0  0  0  0  0  0  0  0  0  0  0  0
   -2.2400    0.4640   -0.0960 C   0  0  0  0  0  0  0  0  0  0  0  0
   -3.2410   -0.5940   -0.4090 C   0  0  1  0  0  0  0  0  0  0  0  0
   -4.5120   -0.0120   -1.0020 C   0  0  0  0  0  0  0  0  0  0  0  0
   -5.5380   -1.0950   -1.0280 C   0  0  0  0  0  0  0  0  0  0  0  0
   -5.0590   -2.4380   -1.4600 C   0  0  2  0  0  0  0  0  0  0  0  0
   -5.9420   -3.4530   -0.8650 N   0  0  0  0  0  0  0  0  0  0  0  0
   -3.6730   -2.7860   -1.0180 C   0  0  0  0  0  0  0  0  0  0  0  0
   -2.8120   -1.6290   -1.2930 N   0  0  0  0  0  0  0  0  0  0  0  0
   -0.1940    1.7660    1.9240 C   0  0  0  0  0  0  0  0  0  0  0  0
   -0.0790    3.1930    1.5750 C   0  0  0  0  0  0  0  0  0  0  0  0
    1.1200    3.8960    1.7350 C   0  0  0  0  0  0  0  0  0  0  0  0
    1.1900    5.2310    1.4080 C   0  0  0  0  0  0  0  0  0  0  0  0
    0.0990    5.9010    0.9220 C   0  0  0  0  0  0  0  0  0  0  0  0
    0.1470    7.2820    0.5760 N   0  0  0  0  0  0  0  0  0  0  0  0
   -1.0480    5.2090    0.7750 N   0  0  0  0  0  0  0  0  0  0  0  0
   -1.1390    3.9100    1.0870 C   0  0  0  0  0  0  0  0  0  0  0  0
    1.5240    1.9870   -0.7540 C   0  0  0  0  0  0  0  0  0  0  0  0
    2.7070    2.0300   -1.4500 C   0  0  0  0  0  0  0  0  0  0  0  0
    3.6460    1.0310   -1.3100 C   0  0  0  0  0  0  0  0  0  0  0  0
    3.3940   -0.0120   -0.4670 C   0  0  0  0  0  0  0  0  0  0  0  0
    4.2930   -1.0330   -0.2900 C   0  0  0  0  0  0  0  0  0  0  0  0
    5.4980   -1.0780   -0.9400 O   0  0  0  0  0  0  0  0  0  0  0  0
  1  2  1  0
  2  3  1  0
  3  4  1  0
  4  5  2  0
  4 31  1  0
  5  6  1  0
  6  7  2  0
  7  8  1  0
  7 30  1  0
  8  9  1  0
  8 27  2  0
  9 10  1  0
  9 19  1  0
 10 11  1  0
 12 11  1  6
 12 13  1  0
 12 18  1  0
 13 14  1  0
 14 15  1  0
 15 16  1  1
 15 17  1  0
 17 18  1  0
 19 20  1  0
 20 21  2  0
 20 26  1  0
 21 22  1  0
 22 23  2  0
 23 24  1  0
 23 25  1  0
 25 26  2  0
 27 28  1  0
 28 29  2  0
 29 30  1  0
 30 31  2  0
 31 32  1  0
M  CHG  2  16   1  18   1
M  END
