
     RDKit          3D

 32 34  0  0  0  0  0  0  0  0999 V2000
    8.8490   -2.1610   -1.3150 C   0  0  0  0  0  0  0  0  0  0  0  0
    9.3640   -1.0730   -0.8140 C   0  0  0  0  0  0  0  0  0  0  0  0
    8.7230   -0.1320    0.0760 C   0  0  0  0  0  0  0  0  0  0  0  0
    9.4270    0.9280    0.5110 C   0  0  0  0  0  0  0  0  0  0  0  0
    8.7930    1.9200    1.4320 C   0  0  0  0  0  0  0  0  0  0  0  0
    7.3450   -0.2910    0.5380 C   0  0  0  0  0  0  0  0  0  0  0  0
    6.3190   -0.2160   -0.5370 C   0  0  0  0  0  0  0  0  0  0  0  0
    4.9690   -0.4190    0.1190 C   0  0  0  0  0  0  0  0  0  0  0  0
    4.8830   -0.6060    1.3390 O   0  0  0  0  0  0  0  0  0  0  0  0
    3.8290   -0.3890   -0.6870 N   0  0  0  0  0  0  0  0  0  0  0  0
    2.4740   -0.5610   -0.2690 C   0  0  0  0  0  0  0  0  0  0  0  0
    2.0750   -0.9410    0.9820 C   0  0  0  0  0  0  0  0  0  0  0  0
    0.7360   -1.0850    1.3640 C   0  0  0  0  0  0  0  0  0  0  0  0
   -0.2580   -0.8350    0.4470 C   0  0  0  0  0  0  0  0  0  0  0  0
   -1.5970   -0.8860    0.5300 N   0  0  0  0  0  0  0  0  0  0  0  0
   -2.0680   -0.5380   -0.6720 C   0  0  0  0  0  0  0  0  0  0  0  0
   -3.5490   -0.4710   -0.9380 C   0  0  0  0  0  0  0  0  0  0  0  0
   -4.2730   -0.1960    0.2680 N   0  0  0  0  0  0  0  0  0  0  0  0
   -3.8950    1.0810    0.8580 C   0  0  0  0  0  0  0  0  0  0  0  0
   -4.0470    2.1900   -0.1470 C   0  0  0  0  0  0  0  0  0  0  0  0
   -5.3250    2.1700   -0.9000 C   0  0  2  0  0  0  0  0  0  0  0  0
   -6.3370    3.1390   -0.2730 C   0  0  0  0  0  0  0  0  0  0  0  0
   -6.5900    2.7810    1.0340 O   0  0  0  0  0  0  0  0  0  0  0  0
   -5.9310    0.8320   -1.1120 C   0  0  0  0  0  0  0  0  0  0  0  0
   -5.6770   -0.1210    0.0110 C   0  0  1  0  0  0  0  0  0  0  0  0
   -6.3480   -1.4460   -0.2380 C   0  0  0  0  0  0  0  0  0  0  0  0
   -6.1370   -2.2750    0.9840 C   0  0  0  0  0  0  0  0  0  0  0  0
   -7.2670   -2.8840    1.7570 C   0  0  0  0  0  0  0  0  0  0  0  0
   -5.0040   -2.4910    1.4100 O   0  0  0  0  0  0  0  0  0  0  0  0
   -1.0480   -0.2740   -1.4930 N   0  0  0  0  0  0  0  0  0  0  0  0
    0.1270   -0.4510   -0.8150 C   0  0  0  0  0  0  0  0  0  0  0  0
    1.4460   -0.3120   -1.1870 C   0  0  0  0  0  0  0  0  0  0  0  0
  1  2  2  0
  2  3  1  0
  3  4  2  3
  3  6  1  0
  4  5  1  0
  6  7  1  0
  7  8  1  0
  8  9  2  0
  8 10  1  0
 10 11  1  0
 11 12  2  0
 11 32  1  0
 12 13  1  0
 13 14  2  0
 14 15  1  0
 14 31  1  0
 15 16  1  0
 16 17  1  0
 16 30  2  0
 17 18  1  0
 18 19  1  0
 18 25  1  0
 19 20  1  0
 20 21  1  0
 21 22  1  1
 21 24  1  0
 22 23  1  0
 24 25  1  0
 25 26  1  6
 26 27  1  0
 27 28  1  0
 27 29  2  0
 30 31  1  0
 31 32  2  0
M  END
