
     RDKit          3D

 32 35  0  0  0  0  0  0  0  0999 V2000
   -6.0880    3.0240   -0.0840 C   0  0  0  0  0  0  0  0  0  0  0  0
   -4.6160    2.9230    0.2660 C   0  0  2  0  0  0  0  0  0  0  0  0
   -3.8900    3.9530   -0.5530 C   0  0  0  0  0  0  0  0  0  0  0  0
   -4.1410    1.5510   -0.1940 C   0  0  1  0  0  0  0  0  0  0  0  0
   -2.7120    1.3160    0.0890 C   0  0  0  0  0  0  0  0  0  0  0  0
   -2.4090    0.0400    0.6400 N   0  0  0  0  0  0  0  0  0  0  0  0
   -1.3050   -0.1860    1.5350 C   0  0  0  0  0  0  0  0  0  0  0  0
   -1.0670   -1.2790    2.0740 O   0  0  0  0  0  0  0  0  0  0  0  0
   -0.4240    0.9610    1.8170 C   0  0  0  0  0  0  0  0  0  0  0  0
    0.9850    0.6520    2.1270 C   0  0  0  0  0  0  0  0  0  0  0  0
    1.8400    0.0650    1.0570 C   0  0  0  0  0  0  0  0  0  0  0  0
    1.4410   -1.2150    0.4540 C   0  0  0  0  0  0  0  0  0  0  0  0
    2.3410   -1.7190   -0.6020 C   0  0  0  0  0  0  0  0  0  0  0  0
    3.7140   -2.1360   -0.3950 C   0  0  0  0  0  0  0  0  0  0  0  0
    4.7310   -1.2660    0.1020 N   0  0  0  0  0  0  0  0  0  0  0  0
    5.2040   -1.1190    1.3520 C   0  0  0  0  0  0  0  0  0  0  0  0
    4.8200   -1.7530    2.3690 O   0  0  0  0  0  0  0  0  0  0  0  0
    6.1650   -0.1900    1.4080 N   0  0  0  0  0  0  0  0  0  0  0  0
    6.3170    0.2730    0.1660 C   0  0  0  0  0  0  0  0  0  0  0  0
    7.1880    1.2510   -0.3210 C   0  0  0  0  0  0  0  0  0  0  0  0
    7.1380    1.5440   -1.6730 C   0  0  0  0  0  0  0  0  0  0  0  0
    6.2590    0.8910   -2.5030 C   0  0  0  0  0  0  0  0  0  0  0  0
    5.4040   -0.0750   -1.9970 C   0  0  0  0  0  0  0  0  0  0  0  0
    5.4480   -0.3720   -0.6520 C   0  0  0  0  0  0  0  0  0  0  0  0
   -3.2240   -1.0870    0.3180 C   0  0  0  0  0  0  0  0  0  0  0  0
   -2.7300   -2.3570    0.1880 C   0  0  0  0  0  0  0  0  0  0  0  0
   -3.5680   -3.4200   -0.1270 C   0  0  0  0  0  0  0  0  0  0  0  0
   -3.0500   -4.7390   -0.2620 N   0  0  0  0  0  0  0  0  0  0  0  0
   -4.9050   -3.1380   -0.3010 C   0  0  0  0  0  0  0  0  0  0  0  0
   -5.3980   -1.8480   -0.1670 C   0  0  0  0  0  0  0  0  0  0  0  0
   -4.5890   -0.7860    0.1430 C   0  0  0  0  0  0  0  0  0  0  0  0
   -4.9780    0.5330    0.2980 O   0  0  0  0  0  0  0  0  0  0  0  0
  2  1  1  6
  2  3  1  0
  2  4  1  0
  4  5  1  1
  4 32  1  0
  5  6  1  0
  6  7  1  0
  6 25  1  0
  7  8  2  0
  7  9  1  0
  9 10  1  0
 10 11  1  0
 11 12  1  0
 12 13  1  0
 13 14  1  0
 14 15  1  0
 15 16  1  0
 15 24  1  0
 16 17  2  0
 16 18  1  0
 18 19  1  0
 19 20  2  0
 19 24  1  0
 20 21  1  0
 21 22  2  0
 22 23  1  0
 23 24  2  0
 25 26  2  0
 25 31  1  0
 26 27  1  0
 27 28  1  0
 27 29  2  0
 29 30  1  0
 30 31  2  0
 31 32  1  0
M  END
