
     RDKit          3D

 33 34  0  0  0  0  0  0  0  0999 V2000
   -1.7180    0.1230    0.5610 O   0  0  0  0  0  0  0  0  0  0  0  0
   -2.2210    1.2630    0.5920 C   0  0  0  0  0  0  0  0  0  0  0  0
   -1.4640    2.3300    0.0510 N   0  0  0  0  0  0  0  0  0  0  0  0
   -0.1130    2.0690   -0.5150 C   0  0  1  0  0  0  0  0  0  0  0  0
   -0.1640    2.0830   -1.9870 C   0  0  0  0  0  0  0  0  0  0  0  0
    1.0630    1.8690   -2.7590 C   0  0  0  0  0  0  0  0  0  0  0  0
    1.8670    0.6500   -2.7280 C   0  0  0  0  0  0  0  0  0  0  0  0
    2.5680    0.2000   -1.5070 C   0  0  0  0  0  0  0  0  0  0  0  0
    3.3370   -1.0400   -1.7440 N   0  0  0  0  0  0  0  0  0  0  0  0
    4.3830   -1.1330   -2.6890 C   0  0  0  0  0  0  0  0  0  0  0  0
    4.7260   -0.1640   -3.3950 O   0  0  0  0  0  0  0  0  0  0  0  0
    5.0930   -2.3920   -2.8580 C   0  0  0  0  0  0  0  0  0  0  0  0
    5.1940   -3.3280   -1.8530 C   0  0  0  0  0  0  0  0  0  0  0  0
    5.8880   -4.5140   -2.0650 C   0  0  0  0  0  0  0  0  0  0  0  0
    6.4810   -4.7570   -3.2860 C   0  0  0  0  0  0  0  0  0  0  0  0
    7.5430   -6.5430   -3.6230 I   0  0  0  0  0  0  0  0  0  0  0  0
    6.3950   -3.8230   -4.3250 C   0  0  0  0  0  0  0  0  0  0  0  0
    5.7000   -2.6620   -4.0820 C   0  0  0  0  0  0  0  0  0  0  0  0
    0.7470    3.1200    0.0150 C   0  0  0  0  0  0  0  0  0  0  0  0
    0.2990    3.9990    0.7770 O   0  0  0  0  0  0  0  0  0  0  0  0
    2.0850    3.1710   -0.3100 O   0  0  0  0  0  0  0  0  0  0  0  0
   -3.5270    1.5180    1.1530 N   0  0  0  0  0  0  0  0  0  0  0  0
   -4.3050    0.4330    1.6750 C   0  0  2  0  0  0  0  0  0  0  0  0
   -5.6310    0.3240    1.0110 C   0  0  0  0  0  0  0  0  0  0  0  0
   -5.8900    1.1820    0.1130 O   0  0  0  0  0  0  0  0  0  0  0  0
   -6.5590   -0.6280    1.3080 O   0  0  0  0  0  0  0  0  0  0  0  0
   -4.3680    0.3500    3.1430 C   0  0  0  0  0  0  0  0  0  0  0  0
   -4.4950    1.4760    3.9050 C   0  0  0  0  0  0  0  0  0  0  0  0
   -4.5680    1.4140    5.3040 C   0  0  0  0  0  0  0  0  0  0  0  0
   -4.5060    0.1750    5.8800 C   0  0  0  0  0  0  0  0  0  0  0  0
   -4.5760    0.0740    7.2700 O   0  0  0  0  0  0  0  0  0  0  0  0
   -4.3780   -0.9640    5.1310 C   0  0  0  0  0  0  0  0  0  0  0  0
   -4.3090   -0.8740    3.7580 C   0  0  0  0  0  0  0  0  0  0  0  0
  1  2  2  0
  2  3  1  0
  2 22  1  0
  3  4  1  0
  4  5  1  6
  4 19  1  0
  5  6  1  0
  6  7  1  0
  7  8  1  0
  8  9  1  0
  9 10  1  0
 10 11  2  0
 10 12  1  0
 12 13  2  0
 12 18  1  0
 13 14  1  0
 14 15  2  0
 15 16  1  0
 15 17  1  0
 17 18  2  0
 19 20  2  0
 19 21  1  0
 23 22  1  1
 23 24  1  0
 23 27  1  0
 24 25  2  0
 24 26  1  0
 27 28  2  0
 27 33  1  0
 28 29  1  0
 29 30  2  0
 30 31  1  0
 30 32  1  0
 32 33  2  0
M  END
