
     RDKit          3D

 32 35  0  0  0  0  0  0  0  0999 V2000
   -0.1440   -0.2790   -3.0890 C   0  0  0  0  0  0  0  0  0  0  0  0
   -1.3020   -0.2020   -2.1180 C   0  0  0  0  0  0  0  0  0  0  0  0
   -1.0980   -0.8790   -0.8210 C   0  0  1  0  0  0  0  0  0  0  0  0
   -0.0080   -0.4580    0.0670 C   0  0  0  0  0  0  0  0  0  0  0  0
   -0.2920   -0.1580    1.3000 O   0  0  0  0  0  0  0  0  0  0  0  0
    1.3490   -0.3350   -0.2480 N   0  0  0  0  0  0  0  0  0  0  0  0
    2.3850    0.0760    0.6290 C   0  0  0  0  0  0  0  0  0  0  0  0
    3.7270    0.1910    0.2940 C   0  0  0  0  0  0  0  0  0  0  0  0
    4.4310    0.6120    1.3880 C   0  0  0  0  0  0  0  0  0  0  0  0
    5.8790    0.8870    1.5530 C   0  0  2  0  0  0  0  0  0  0  0  0
    6.4440    1.7480    0.4540 C   0  0  0  0  0  0  0  0  0  0  0  0
    7.0890    0.5220   -0.1420 C   0  0  0  0  0  0  0  0  0  0  0  0
    6.7920   -0.2260    1.1360 C   0  0  0  0  0  0  0  0  0  0  0  0
    3.5250    0.7490    2.3690 N   0  0  0  0  0  0  0  0  0  0  0  0
    2.3200    0.4290    1.9080 N   0  0  0  0  0  0  0  0  0  0  0  0
   -2.3360   -1.0420   -0.0960 N   0  0  0  0  0  0  0  0  0  0  0  0
   -3.0680   -0.0270    0.4830 C   0  0  0  0  0  0  0  0  0  0  0  0
   -4.1910   -0.5010    1.0500 O   0  0  0  0  0  0  0  0  0  0  0  0
   -2.9810    1.3800    0.6560 C   0  0  0  0  0  0  0  0  0  0  0  0
   -2.0930    2.2710    0.3030 C   0  0  0  0  0  0  0  0  0  0  0  0
   -2.1720    3.7050    0.5720 C   0  0  0  0  0  0  0  0  0  0  0  0
   -1.1860    4.5010    0.1500 C   0  0  0  0  0  0  0  0  0  0  0  0
   -1.1590    5.9660    0.3640 C   0  0  0  0  0  0  0  0  0  0  0  0
   -2.2700    6.4430    1.0560 O   0  0  0  0  0  0  0  0  0  0  0  0
   -3.2890    5.6400    1.4940 C   0  0  0  0  0  0  0  0  0  0  0  0
   -3.2620    4.3160    1.2720 C   0  0  0  0  0  0  0  0  0  0  0  0
   -2.8780   -2.4250    0.0410 C   0  0  1  0  0  0  0  0  0  0  0  0
   -3.1630   -3.0570   -1.2760 C   0  0  0  0  0  0  0  0  0  0  0  0
   -3.7220   -4.4400   -1.0070 C   0  0  0  0  0  0  0  0  0  0  0  0
   -2.8470   -5.2870   -0.1450 C   0  0  0  0  0  0  0  0  0  0  0  0
   -2.4620   -4.5950    1.1480 C   0  0  0  0  0  0  0  0  0  0  0  0
   -1.8790   -3.2320    0.8060 C   0  0  0  0  0  0  0  0  0  0  0  0
  1  2  1  0
  3  2  1  6
  3  4  1  0
  3 16  1  0
  4  5  2  0
  4  6  1  0
  6  7  1  0
  7  8  2  0
  7 15  1  0
  8  9  1  0
 10  9  1  6
  9 14  2  0
 10 11  1  0
 10 13  1  0
 11 12  1  0
 12 13  1  0
 14 15  1  0
 16 17  1  0
 27 16  1  6
 17 18  2  0
 17 19  1  0
 19 20  2  3
 20 21  1  0
 21 22  2  0
 21 26  1  0
 22 23  1  0
 23 24  1  0
 24 25  1  0
 25 26  2  0
 27 28  1  0
 27 32  1  0
 28 29  1  0
 29 30  1  0
 30 31  1  0
 31 32  1  0
M  END
