
     RDKit          3D

 33 34  0  0  0  0  0  0  0  0999 V2000
   -5.7360    1.2240   -2.1310 C   0  0  0  0  0  0  0  0  0  0  0  0
   -5.2770    2.4490   -1.4050 C   0  0  0  0  0  0  0  0  0  0  0  0
   -3.9930    2.1580   -0.6780 C   0  0  0  0  0  0  0  0  0  0  0  0
   -4.2360    1.1160    0.2470 O   0  0  0  0  0  0  0  0  0  0  0  0
   -3.2890    0.5970    1.0830 C   0  0  0  0  0  0  0  0  0  0  0  0
   -2.0000    1.1410    1.0090 C   0  0  0  0  0  0  0  0  0  0  0  0
   -0.9990    0.6850    1.8020 C   0  0  0  0  0  0  0  0  0  0  0  0
    0.2740    1.1670    1.7750 O   0  0  0  0  0  0  0  0  0  0  0  0
    0.8330    2.1290    0.9770 C   0  0  0  0  0  0  0  0  0  0  0  0
    0.9240    1.7960   -0.4690 C   0  0  0  0  0  0  0  0  0  0  0  0
    1.7270    0.5980   -0.7170 N   0  0  0  0  0  0  0  0  0  0  0  0
    3.1020    0.5350   -0.3310 C   0  0  0  0  0  0  0  0  0  0  0  0
    3.5520    1.5600    0.2200 O   0  0  0  0  0  0  0  0  0  0  0  0
    3.9050   -0.5940   -0.5480 N   0  0  0  0  0  0  0  0  0  0  0  0
    5.2920   -0.7750   -0.2600 C   0  0  0  0  0  0  0  0  0  0  0  0
    6.2670   -0.0140   -1.0230 C   0  0  2  0  0  0  0  0  0  0  0  0
    6.0890    1.4440   -1.1300 C   0  0  0  0  0  0  0  0  0  0  0  0
    6.2190   -0.5400   -2.4920 C   0  0  0  0  0  0  0  0  0  0  0  0
    6.4400   -1.9710   -2.4110 N   0  0  0  0  0  0  0  0  0  0  0  0
    7.5570   -0.3700   -0.6130 O   0  0  0  0  0  0  0  0  0  0  0  0
    7.8710   -0.1590    0.6850 C   0  0  0  0  0  0  0  0  0  0  0  0
    9.3420   -0.6010    0.8470 C   0  0  0  0  0  0  0  0  0  0  0  0
   -1.3180   -0.3460    2.6910 C   0  0  0  0  0  0  0  0  0  0  0  0
   -2.5670   -0.8580    2.7480 C   0  0  0  0  0  0  0  0  0  0  0  0
   -3.6170   -0.4120    1.9460 C   0  0  0  0  0  0  0  0  0  0  0  0
   -4.9890   -0.9910    2.0260 C   0  0  1  0  0  0  0  0  0  0  0  0
   -5.9510   -0.0420    2.4720 N   0  0  0  0  0  0  0  0  0  0  0  0
   -5.3480   -1.7930    0.8670 C   0  0  0  0  0  0  0  0  0  0  0  0
   -4.5460   -2.8200    0.4370 N   0  0  0  0  0  0  0  0  0  0  0  0
   -5.0980   -3.3980   -0.6420 C   0  0  0  0  0  0  0  0  0  0  0  0
   -6.2720   -2.7210   -0.8970 C   0  0  0  0  0  0  0  0  0  0  0  0
   -6.4210   -1.7080    0.0630 C   0  0  0  0  0  0  0  0  0  0  0  0
   -7.5450   -0.8110    0.0840 C   0  0  0  0  0  0  0  0  0  0  0  0
  1  2  1  0
  2  3  1  0
  3  4  1  0
  4  5  1  0
  5  6  2  0
  5 25  1  0
  6  7  1  0
  7  8  1  0
  7 23  2  0
  8  9  1  0
  9 10  1  0
 10 11  1  0
 11 12  1  0
 12 13  2  0
 12 14  1  0
 14 15  1  0
 15 16  1  0
 16 17  1  6
 16 18  1  0
 16 20  1  0
 18 19  1  0
 20 21  1  0
 21 22  1  0
 23 24  1  0
 24 25  2  0
 25 26  1  0
 26 27  1  6
 26 28  1  0
 28 29  1  0
 28 32  2  0
 29 30  1  0
 30 31  2  0
 31 32  1  0
 32 33  1  0
M  CHG  2  19   1  27   1
M  END
