
     RDKit          3D

 14 14  0  0  0  0  0  0  0  0999 V2000
    3.8430    0.6350    0.8930 C   0  0  0  0  0  0  0  0  0  0  0  0
    2.7420    0.1670    0.0990 O   0  0  0  0  0  0  0  0  0  0  0  0
    1.5440   -0.2210    0.6750 C   0  0  0  0  0  0  0  0  0  0  0  0
    1.4370   -0.1540    1.9160 O   0  0  0  0  0  0  0  0  0  0  0  0
    0.4130   -0.7060   -0.1980 C   0  0  1  0  0  0  0  0  0  0  0  0
    0.8590   -1.8620   -1.0240 C   0  0  0  0  0  0  0  0  0  0  0  0
   -0.6860   -1.0430    0.5460 O   0  0  0  0  0  0  0  0  0  0  0  0
   -1.4640    0.0630    0.7460 C   0  0  2  0  0  0  0  0  0  0  0  0
   -1.5520    0.3050    2.1100 O   0  0  0  0  0  0  0  0  0  0  0  0
   -2.8790   -0.1110    0.2160 C   0  0  0  0  0  0  0  0  0  0  0  0
   -3.6450    1.0140    0.4280 O   0  0  0  0  0  0  0  0  0  0  0  0
   -0.8480    1.2200    0.0000 C   0  0  0  0  0  0  0  0  0  0  0  0
   -0.0110    0.4850   -1.0200 C   0  0  2  0  0  0  0  0  0  0  0  0
   -0.6850    0.1680   -2.2180 N   0  0  0  0  0  0  0  0  0  0  0  0
  1  2  1  0
  2  3  1  0
  3  4  2  0
  3  5  1  0
  5  6  1  6
  5  7  1  0
  5 13  1  0
  7  8  1  0
  8  9  1  1
  8 10  1  0
  8 12  1  0
 10 11  1  0
 12 13  1  0
 13 14  1  6
M  END
