
     RDKit          3D

 15 15  0  0  0  0  0  0  0  0999 V2000
    4.2910    1.0850   -0.2100 N   0  0  0  0  0  0  0  0  0  0  0  0
    3.1430    0.5300    0.2320 O   0  0  0  0  0  0  0  0  0  0  0  0
    2.9310   -0.7120   -0.3880 C   0  0  0  0  0  0  0  0  0  0  0  0
    1.6340   -1.2960    0.1390 C   0  0  1  0  0  0  0  0  0  0  0  0
    1.7780   -1.4430    1.5280 O   0  0  0  0  0  0  0  0  0  0  0  0
    0.5640   -0.2470   -0.0760 C   0  0  0  0  0  0  0  0  0  0  0  0
   -0.7920   -0.7400    0.4250 C   0  0  1  0  0  0  0  0  0  0  0  0
   -0.7280   -1.0270    1.7870 O   0  0  0  0  0  0  0  0  0  0  0  0
   -1.7520    0.4000    0.2110 C   0  0  1  0  0  0  0  0  0  0  0  0
   -1.3580    1.5330    0.8780 O   0  0  0  0  0  0  0  0  0  0  0  0
   -1.9790    0.7030   -1.2440 C   0  0  0  0  0  0  0  0  0  0  0  0
   -3.2070    1.4470   -1.1970 O   0  0  0  0  0  0  0  0  0  0  0  0
   -3.9340    1.0640   -0.0850 C   0  0  0  0  0  0  0  0  0  0  0  0
   -5.0540    1.5110    0.2260 O   0  0  0  0  0  0  0  0  0  0  0  0
   -3.1640    0.0460    0.6610 C   0  0  0  0  0  0  0  0  0  0  0  0
  1  2  1  0
  2  3  1  0
  3  4  1  0
  4  5  1  1
  4  6  1  0
  6  7  1  0
  7  8  1  1
  7  9  1  0
  9 10  1  1
  9 11  1  0
  9 15  1  0
 11 12  1  0
 12 13  1  0
 13 14  2  0
 13 15  1  0
M  END
