
     RDKit          3D

 15 15  0  0  0  0  0  0  0  0999 V2000
   -1.0140    2.2110   -0.6170 N   0  0  0  0  0  0  0  0  0  0  0  0
   -1.2400    0.8450   -1.0470 C   0  0  0  0  0  0  0  0  0  0  0  0
   -0.6950   -0.1860   -0.0810 C   0  0  2  0  0  0  0  0  0  0  0  0
   -1.0370   -1.4320   -0.6670 O   0  0  0  0  0  0  0  0  0  0  0  0
   -1.3010   -0.1290    1.2650 C   0  0  0  0  0  0  0  0  0  0  0  0
   -2.7640   -0.3590    1.1650 C   0  0  0  0  0  0  0  0  0  0  0  0
   -3.5670    0.3260    1.8810 O   0  0  0  0  0  0  0  0  0  0  0  0
   -3.2730   -1.3140    0.2990 O   0  0  0  0  0  0  0  0  0  0  0  0
    0.8040   -0.1370   -0.1360 C   0  0  1  0  0  0  0  0  0  0  0  0
    1.1560   -0.1810   -1.4970 O   0  0  0  0  0  0  0  0  0  0  0  0
    1.4580    0.9770    0.5910 C   0  0  0  0  0  0  0  0  0  0  0  0
    2.7870    1.0360    0.0980 O   0  0  0  0  0  0  0  0  0  0  0  0
    3.3250   -0.2070   -0.1220 C   0  0  0  0  0  0  0  0  0  0  0  0
    2.7800   -1.2400    0.5840 O   0  0  0  0  0  0  0  0  0  0  0  0
    1.4180   -1.4160    0.4700 C   0  0  0  0  0  0  0  0  0  0  0  0
  1  2  1  0
  2  3  1  0
  3  4  1  6
  3  5  1  0
  3  9  1  0
  5  6  1  0
  6  7  2  0
  6  8  1  0
  9 10  1  6
  9 11  1  0
  9 15  1  0
 11 12  1  0
 12 13  1  0
 13 14  1  0
 14 15  1  0
M  END
