
     RDKit          3D

 22 24  0  0  0  0  0  0  0  0999 V2000
    4.4740   -1.8190   -0.6940 C   0  0  0  0  0  0  0  0  0  0  0  0
    4.6130   -0.5620   -0.2560 C   0  0  0  0  0  0  0  0  0  0  0  0
    5.8920    0.1380   -0.5150 C   0  0  0  0  0  0  0  0  0  0  0  0
    5.9130    1.4840    0.0380 C   0  0  0  0  0  0  0  0  0  0  0  0
    4.8820    1.9880    0.6810 C   0  0  0  0  0  0  0  0  0  0  0  0
    3.6440    1.2480    0.8950 C   0  0  0  0  0  0  0  0  0  0  0  0
    3.4850    0.0120    0.4510 C   0  0  0  0  0  0  0  0  0  0  0  0
    2.2490   -0.7190    0.6670 C   0  0  0  0  0  0  0  0  0  0  0  0
    1.5180   -1.1520   -0.4570 N   0  0  0  0  0  0  0  0  0  0  0  0
    0.9230   -0.1590   -1.2680 C   0  0  0  0  0  0  0  0  0  0  0  0
   -0.3600    0.3060   -0.5600 C   0  0  0  0  0  0  0  0  0  0  0  0
   -1.1700   -0.8080   -0.2690 N   0  0  0  0  0  0  0  0  0  0  0  0
   -2.5670   -0.7240   -0.4290 C   0  0  0  0  0  0  0  0  0  0  0  0
   -3.3220    0.1490    0.5150 C   0  0  2  0  0  0  0  0  0  0  0  0
   -3.1540   -0.2420    1.8470 O   0  0  0  0  0  0  0  0  0  0  0  0
   -4.8300   -0.0400    0.2480 C   0  0  0  0  0  0  0  0  0  0  0  0
   -5.2910    0.9420   -0.8060 C   0  0  0  0  0  0  0  0  0  0  0  0
   -5.0890    2.3650   -0.3910 C   0  0  0  0  0  0  0  0  0  0  0  0
   -4.1990    2.3770    0.6940 O   0  0  0  0  0  0  0  0  0  0  0  0
   -3.0590    1.6210    0.3050 C   0  0  0  0  0  0  0  0  0  0  0  0
   -0.6760   -2.0830   -0.6650 C   0  0  0  0  0  0  0  0  0  0  0  0
    0.7480   -2.3380   -0.2990 C   0  0  0  0  0  0  0  0  0  0  0  0
  1  2  2  0
  2  3  1  0
  2  7  1  0
  3  4  1  0
  4  5  2  0
  5  6  1  0
  6  7  2  0
  7  8  1  0
  8  9  1  0
  9 10  1  0
  9 22  1  0
 10 11  1  0
 11 12  1  0
 12 13  1  0
 12 21  1  0
 13 14  1  0
 14 15  1  1
 14 16  1  0
 14 20  1  0
 16 17  1  0
 17 18  1  0
 18 19  1  0
 19 20  1  0
 21 22  1  0
M  END
