
     RDKit          3D

 15 15  0  0  0  0  0  0  0  0999 V2000
    4.1090   -0.4640    1.5090 C   0  0  0  0  0  0  0  0  0  0  0  0
    2.8410   -0.9540    1.1090 O   0  0  0  0  0  0  0  0  0  0  0  0
    1.8420   -0.1290    0.6130 C   0  0  0  0  0  0  0  0  0  0  0  0
    2.1180    1.0950    0.5340 O   0  0  0  0  0  0  0  0  0  0  0  0
    0.5090   -0.6310    0.1910 C   0  0  1  0  0  0  0  0  0  0  0  0
    0.5280   -2.0290    0.4050 O   0  0  0  0  0  0  0  0  0  0  0  0
   -0.6150   -0.0820    0.9930 C   0  0  0  0  0  0  0  0  0  0  0  0
   -1.6810    0.5350    0.1520 C   0  0  2  0  0  0  0  0  0  0  0  0
   -1.2010    1.8520   -0.3890 C   0  0  0  0  0  0  0  0  0  0  0  0
   -2.8550    0.7790    0.8610 O   0  0  0  0  0  0  0  0  0  0  0  0
   -2.0670   -0.4360   -0.9670 C   0  0  1  0  0  0  0  0  0  0  0  0
   -3.2490   -0.0430   -1.5570 O   0  0  0  0  0  0  0  0  0  0  0  0
   -0.9400   -0.4130   -1.8960 N   0  0  0  0  0  0  0  0  0  0  0  0
    0.3490   -0.4520   -1.2740 C   0  0  0  0  0  0  0  0  0  0  0  0
    1.3870   -0.3330   -1.9720 O   0  0  0  0  0  0  0  0  0  0  0  0
  1  2  1  0
  2  3  1  0
  3  4  2  0
  3  5  1  0
  5  6  1  6
  5  7  1  0
  5 14  1  0
  7  8  1  0
  8  9  1  6
  8 10  1  0
  8 11  1  0
 11 12  1  6
 11 13  1  0
 13 14  1  0
 14 15  2  0
M  END
