
     RDKit          3D

 21 23  0  0  0  0  0  0  0  0999 V2000
    6.4200    0.4560    0.7950 C   0  0  0  0  0  0  0  0  0  0  0  0
    5.0000    0.8550    0.7500 C   0  0  0  0  0  0  0  0  0  0  0  0
    4.0530    0.1430    0.1910 C   0  0  0  0  0  0  0  0  0  0  0  0
    2.6640    0.5230    0.1420 C   0  0  0  0  0  0  0  0  0  0  0  0
    1.6800   -0.1550   -0.4120 C   0  0  0  0  0  0  0  0  0  0  0  0
    0.3750    0.4140   -0.3440 N   0  0  0  0  0  0  0  0  0  0  0  0
    0.2350    1.8390   -0.5690 C   0  0  0  0  0  0  0  0  0  0  0  0
   -1.2400    2.1520   -0.6500 C   0  0  0  0  0  0  0  0  0  0  0  0
   -1.8400    1.1670   -1.6180 C   0  0  0  0  0  0  0  0  0  0  0  0
   -1.9040   -0.2070   -0.9840 C   0  0  2  0  0  0  0  0  0  0  0  0
   -3.2170   -0.3300   -0.3060 C   0  0  0  0  0  0  0  0  0  0  0  0
   -4.0710    0.6990   -0.1780 N   0  0  0  0  0  0  0  0  0  0  0  0
   -5.2590    0.5950    0.4430 C   0  0  0  0  0  0  0  0  0  0  0  0
   -5.6540   -0.6090    0.9880 C   0  0  0  0  0  0  0  0  0  0  0  0
   -4.8210   -1.6520    0.8750 N   0  0  0  0  0  0  0  0  0  0  0  0
   -3.6360   -1.5430    0.2540 C   0  0  0  0  0  0  0  0  0  0  0  0
   -2.7360   -2.6330    0.1160 N   0  0  0  0  0  0  0  0  0  0  0  0
   -0.7410   -0.4500   -0.0600 C   0  0  0  0  0  0  0  0  0  0  0  0
    1.8910   -1.4280   -1.0680 C   0  0  0  0  0  0  0  0  0  0  0  0
    3.0090   -2.0740   -1.2100 C   0  0  0  0  0  0  0  0  0  0  0  0
    4.5430   -1.4030   -0.5560 S   0  0  0  0  0  0  0  0  0  0  0  0
  1  2  1  0
  2  3  2  3
  3  4  1  0
  3 21  1  0
  4  5  2  0
  5  6  1  0
  5 19  1  0
  6  7  1  0
  6 18  1  0
  7  8  1  0
  8  9  1  0
  9 10  1  0
 10 11  1  1
 10 18  1  0
 11 12  2  0
 11 16  1  0
 12 13  1  0
 13 14  2  0
 14 15  1  0
 15 16  2  0
 16 17  1  0
 19 20  2  0
 20 21  1  0
M  END
