
     RDKit          3D

 21 23  0  0  0  0  0  0  0  0999 V2000
   -5.3640   -1.1750    0.9590 C   0  0  0  0  0  0  0  0  0  0  0  0
   -4.0780   -1.1440    0.7350 C   0  0  0  0  0  0  0  0  0  0  0  0
   -3.4060   -2.3870    0.6260 C   0  0  0  0  0  0  0  0  0  0  0  0
   -2.0590   -2.4610    0.3780 C   0  0  0  0  0  0  0  0  0  0  0  0
   -1.3530   -1.2950    0.2330 C   0  0  0  0  0  0  0  0  0  0  0  0
   -0.0440   -1.0900   -0.0090 N   0  0  0  0  0  0  0  0  0  0  0  0
    0.2050    0.2240   -0.0690 C   0  0  0  0  0  0  0  0  0  0  0  0
    1.5170    0.8670   -0.2950 C   0  0  2  0  0  0  0  0  0  0  0  0
    2.3180    0.1790   -1.3670 C   0  0  0  0  0  0  0  0  0  0  0  0
    2.5130    0.8630    1.2350 S   0  0  0  0  0  0  0  0  0  0  0  0
    4.1980    0.5310    0.7910 C   0  0  0  0  0  0  0  0  0  0  0  0
    4.6590   -0.7240    0.7340 N   0  0  0  0  0  0  0  0  0  0  0  0
    5.9510   -0.9960    0.4040 C   0  0  0  0  0  0  0  0  0  0  0  0
    6.8150    0.0330    0.1190 C   0  0  0  0  0  0  0  0  0  0  0  0
    6.3360    1.3210    0.1780 C   0  0  0  0  0  0  0  0  0  0  0  0
    5.0530    1.5320    0.5090 N   0  0  0  0  0  0  0  0  0  0  0  0
   -0.9880    0.8330    0.1410 N   0  0  0  0  0  0  0  0  0  0  0  0
   -1.9510   -0.0800    0.3280 C   0  0  0  0  0  0  0  0  0  0  0  0
   -3.3530   -0.0090    0.5870 C   0  0  0  0  0  0  0  0  0  0  0  0
   -3.7980    1.1950    0.6890 C   0  0  0  0  0  0  0  0  0  0  0  0
   -5.1400    1.6890    0.9830 C   0  0  0  0  0  0  0  0  0  0  0  0
  1  2  2  0
  2  3  1  0
  2 19  1  0
  3  4  2  0
  4  5  1  0
  5  6  1  0
  5 18  2  0
  6  7  2  0
  7  8  1  0
  7 17  1  0
  8  9  1  6
  8 10  1  0
 10 11  1  0
 11 12  2  0
 11 16  1  0
 12 13  1  0
 13 14  2  0
 14 15  1  0
 15 16  2  0
 17 18  1  0
 18 19  1  0
 19 20  2  3
 20 21  1  0
M  END
