
     RDKit          3D

 21 23  0  0  0  0  0  0  0  0999 V2000
    3.8690    1.4760    1.7230 C   0  0  0  0  0  0  0  0  0  0  0  0
    3.5700    1.3510    0.4620 C   0  0  0  0  0  0  0  0  0  0  0  0
    4.6710    1.7920   -0.9400 S   0  0  0  0  0  0  0  0  0  0  0  0
    3.2030    2.5380   -1.8340 C   0  0  0  0  0  0  0  0  0  0  0  0
    2.2030    1.5390   -1.4100 C   0  0  0  0  0  0  0  0  0  0  0  0
    2.3830    0.9380   -0.2620 C   0  0  0  0  0  0  0  0  0  0  0  0
    1.3920   -0.0440    0.2600 C   0  0  0  0  0  0  0  0  0  0  0  0
    0.0930   -0.1270   -0.1850 N   0  0  0  0  0  0  0  0  0  0  0  0
   -0.5820   -1.1080    0.3510 C   0  0  0  0  0  0  0  0  0  0  0  0
   -1.9580   -1.5810    0.2530 C   0  0  0  0  0  0  0  0  0  0  0  0
   -2.3110   -2.8340    0.7900 C   0  0  0  0  0  0  0  0  0  0  0  0
   -3.5680   -3.2570    0.6970 N   0  0  0  0  0  0  0  0  0  0  0  0
   -4.5220   -2.5310    0.1070 C   0  0  0  0  0  0  0  0  0  0  0  0
   -4.1880   -1.3470   -0.3990 N   0  0  0  0  0  0  0  0  0  0  0  0
   -2.9190   -0.8170   -0.3550 C   0  0  0  0  0  0  0  0  0  0  0  0
   -2.7370    0.4870   -0.8760 N   0  0  0  0  0  0  0  0  0  0  0  0
   -2.5830    1.5900    0.0400 C   0  0  0  0  0  0  0  0  0  0  0  0
   -2.7230    0.7320   -2.2900 C   0  0  0  0  0  0  0  0  0  0  0  0
    0.3260   -1.7260    1.2110 C   0  0  0  0  0  0  0  0  0  0  0  0
    1.5600   -1.0540    1.1460 C   0  0  0  0  0  0  0  0  0  0  0  0
    2.7840   -1.4750    1.8810 C   0  0  0  0  0  0  0  0  0  0  0  0
  1  2  2  0
  2  3  1  0
  2  6  1  0
  3  4  1  0
  4  5  1  0
  5  6  2  0
  6  7  1  0
  7  8  1  0
  7 20  2  0
  8  9  1  0
  9 10  1  0
  9 19  2  0
 10 11  2  0
 10 15  1  0
 11 12  1  0
 12 13  2  0
 13 14  1  0
 14 15  2  0
 15 16  1  0
 16 17  1  0
 16 18  1  0
 19 20  1  0
 20 21  1  0
M  END
