
     RDKit          3D

 21 23  0  0  0  0  0  0  0  0999 V2000
   -5.6090   -1.8000    0.0000 C   0  0  0  0  0  0  0  0  0  0  0  0
   -5.2520   -0.5300   -0.1200 C   0  0  0  0  0  0  0  0  0  0  0  0
   -6.0690    0.5240   -0.7230 C   0  0  0  0  0  0  0  0  0  0  0  0
   -5.3480    1.6210   -0.6410 C   0  0  0  0  0  0  0  0  0  0  0  0
   -4.0730    1.3730   -0.0100 C   0  0  0  0  0  0  0  0  0  0  0  0
   -4.0120    0.1020    0.2990 C   0  0  0  0  0  0  0  0  0  0  0  0
   -2.9390   -0.5480    0.9280 N   0  0  0  0  0  0  0  0  0  0  0  0
   -1.6510   -0.6010    0.2530 C   0  0  0  0  0  0  0  0  0  0  0  0
   -0.6350   -1.3460    1.1010 C   0  0  0  0  0  0  0  0  0  0  0  0
    0.6080   -1.3480    0.3530 N   0  0  0  0  0  0  0  0  0  0  0  0
    1.5540   -0.3840    0.4550 C   0  0  0  0  0  0  0  0  0  0  0  0
    2.5740   -0.7300   -0.3980 C   0  0  0  0  0  0  0  0  0  0  0  0
    3.8210    0.0270   -0.6210 C   0  0  0  0  0  0  0  0  0  0  0  0
    3.9760    1.1370    0.0570 C   0  0  0  0  0  0  0  0  0  0  0  0
    5.0540    2.1000    0.0790 C   0  0  0  0  0  0  0  0  0  0  0  0
    5.9810    2.3630   -0.8110 C   0  0  0  0  0  0  0  0  0  0  0  0
    6.2300    1.5870   -2.4110 S   0  0  0  0  0  0  0  0  0  0  0  0
    5.6870   -0.1110   -2.3410 C   0  0  0  0  0  0  0  0  0  0  0  0
    4.7300   -0.5860   -1.5940 C   0  0  0  0  0  0  0  0  0  0  0  0
    2.2220   -1.8900   -0.9920 N   0  0  0  0  0  0  0  0  0  0  0  0
    1.0400   -2.2250   -0.5150 N   0  0  0  0  0  0  0  0  0  0  0  0
  1  2  2  0
  2  3  1  0
  2  6  1  0
  3  4  2  0
  4  5  1  0
  5  6  2  0
  6  7  1  0
  7  8  1  0
  8  9  1  0
  9 10  1  0
 10 11  1  0
 10 21  1  0
 11 12  2  0
 12 13  1  0
 12 20  1  0
 13 14  2  0
 13 19  1  0
 14 15  1  0
 15 16  2  0
 16 17  1  0
 17 18  1  0
 18 19  2  0
 20 21  2  0
M  END
