
     RDKit          3D

 21 23  0  0  0  0  0  0  0  0999 V2000
   -4.2460    2.2400    0.3740 C   0  0  0  0  0  0  0  0  0  0  0  0
   -4.4750    0.7750    0.1080 C   0  0  0  0  0  0  0  0  0  0  0  0
   -3.5400   -0.0730    0.4860 C   0  0  0  0  0  0  0  0  0  0  0  0
   -2.3630    0.3420    1.1170 N   0  0  0  0  0  0  0  0  0  0  0  0
   -1.0840    0.3600    0.4760 C   0  0  0  0  0  0  0  0  0  0  0  0
    0.0760    0.6400    0.7030 N   0  0  0  0  0  0  0  0  0  0  0  0
    1.0890    0.5550   -0.1040 C   0  0  0  0  0  0  0  0  0  0  0  0
    2.4830    0.9310    0.2780 C   0  0  0  0  0  0  0  0  0  0  0  0
    3.4090    0.5200   -0.7300 N   0  0  0  0  0  0  0  0  0  0  0  0
    3.4290   -0.9010   -0.9590 C   0  0  0  0  0  0  0  0  0  0  0  0
    4.7080   -1.4010   -0.2690 C   0  0  0  0  0  0  0  0  0  0  0  0
    5.6490   -0.2550   -0.5470 C   0  0  0  0  0  0  0  0  0  0  0  0
    4.7500    0.9440   -0.4920 C   0  0  2  0  0  0  0  0  0  0  0  0
    4.9420    1.6640    0.8200 C   0  0  0  0  0  0  0  0  0  0  0  0
    0.7910    0.0820   -1.3890 C   0  0  0  0  0  0  0  0  0  0  0  0
   -0.9750   -0.1910   -1.2670 S   0  0  0  0  0  0  0  0  0  0  0  0
   -3.7500   -1.4620    0.2380 N   0  0  0  0  0  0  0  0  0  0  0  0
   -2.7150   -2.3830    0.6590 C   0  0  0  0  0  0  0  0  0  0  0  0
   -4.9330   -1.9190   -0.4000 C   0  0  0  0  0  0  0  0  0  0  0  0
   -5.8440   -1.0680   -0.7660 C   0  0  0  0  0  0  0  0  0  0  0  0
   -5.7300    0.3750   -0.5600 C   0  0  0  0  0  0  0  0  0  0  0  0
  1  2  1  0
  2  3  2  0
  2 21  1  0
  3  4  1  0
  3 17  1  0
  4  5  1  0
  5  6  2  0
  5 16  1  0
  6  7  1  0
  7  8  1  0
  7 15  2  0
  8  9  1  0
  9 10  1  0
  9 13  1  0
 10 11  1  0
 11 12  1  0
 12 13  1  0
 13 14  1  1
 15 16  1  0
 17 18  1  0
 17 19  1  0
 19 20  2  0
 20 21  1  0
M  END
