
     RDKit          3D

 21 23  0  0  0  0  0  0  0  0999 V2000
   -3.1270    2.3860   -1.5670 C   0  0  0  0  0  0  0  0  0  0  0  0
   -3.6590    1.2640   -0.8590 N   0  0  0  0  0  0  0  0  0  0  0  0
   -2.8600    0.2860   -0.2100 C   0  0  0  0  0  0  0  0  0  0  0  0
   -1.5120    0.4270   -0.2680 N   0  0  0  0  0  0  0  0  0  0  0  0
   -0.6860   -0.4490    0.3150 C   0  0  0  0  0  0  0  0  0  0  0  0
    0.7690   -0.3070    0.2600 C   0  0  0  0  0  0  0  0  0  0  0  0
    1.9570   -1.4220    1.0110 S   0  0  0  0  0  0  0  0  0  0  0  0
    3.3930   -0.5690    0.4970 C   0  0  0  0  0  0  0  0  0  0  0  0
    4.7210   -0.8280    0.6990 N   0  0  0  0  0  0  0  0  0  0  0  0
    5.6510   -0.0070    0.1940 C   0  0  0  0  0  0  0  0  0  0  0  0
    7.1140   -0.2550    0.3920 C   0  0  0  0  0  0  0  0  0  0  0  0
    5.2070    1.0460   -0.4980 N   0  0  0  0  0  0  0  0  0  0  0  0
    3.9240    1.3390   -0.7200 C   0  0  0  0  0  0  0  0  0  0  0  0
    2.9130    0.4900   -0.1990 C   0  0  0  0  0  0  0  0  0  0  0  0
    1.5810    0.6350   -0.3270 C   0  0  0  0  0  0  0  0  0  0  0  0
    0.9020    1.7820   -1.0870 C   0  0  0  0  0  0  0  0  0  0  0  0
   -1.1930   -1.5340    1.0010 C   0  0  0  0  0  0  0  0  0  0  0  0
   -2.5590   -1.7290    1.0930 C   0  0  0  0  0  0  0  0  0  0  0  0
   -3.1140   -2.8940    1.8290 C   0  0  0  0  0  0  0  0  0  0  0  0
   -3.3670   -0.7910    0.4700 C   0  0  0  0  0  0  0  0  0  0  0  0
   -4.8350   -0.9560    0.5410 C   0  0  0  0  0  0  0  0  0  0  0  0
  1  2  1  0
  2  3  1  0
  3  4  2  0
  3 20  1  0
  4  5  1  0
  5  6  1  0
  5 17  2  0
  6  7  1  0
  6 15  2  0
  7  8  1  0
  8  9  2  0
  8 14  1  0
  9 10  1  0
 10 11  1  0
 10 12  2  0
 12 13  1  0
 13 14  2  0
 14 15  1  0
 15 16  1  0
 17 18  1  0
 18 19  1  0
 18 20  2  0
 20 21  1  0
M  END
