
     RDKit          3D

 21 23  0  0  0  0  0  0  0  0999 V2000
   -6.7810    1.2550    0.3910 C   0  0  0  0  0  0  0  0  0  0  0  0
   -5.6730    0.6040    0.1380 C   0  0  0  0  0  0  0  0  0  0  0  0
   -4.3030    1.1070    0.3720 C   0  0  0  0  0  0  0  0  0  0  0  0
   -3.4710    0.1550   -0.0110 C   0  0  0  0  0  0  0  0  0  0  0  0
   -2.0090    0.2690    0.0610 C   0  0  0  0  0  0  0  0  0  0  0  0
   -1.4380    1.4150    0.5500 C   0  0  0  0  0  0  0  0  0  0  0  0
   -0.0600    1.4820    0.6010 C   0  0  0  0  0  0  0  0  0  0  0  0
    0.7340    0.4400    0.1800 C   0  0  0  0  0  0  0  0  0  0  0  0
    2.1500    0.5070    0.2320 N   0  0  0  0  0  0  0  0  0  0  0  0
    2.9390   -0.6010   -0.2170 C   0  0  0  0  0  0  0  0  0  0  0  0
    4.4220   -0.3430   -0.0830 C   0  0  1  0  0  0  0  0  0  0  0  0
    4.8210    0.8610   -0.9010 C   0  0  0  0  0  0  0  0  0  0  0  0
    4.6930   -0.0900    1.4050 C   0  0  0  0  0  0  0  0  0  0  0  0
    5.1840   -1.5680   -0.5170 C   0  0  0  0  0  0  0  0  0  0  0  0
    0.1010   -0.6580   -0.2900 N   0  0  0  0  0  0  0  0  0  0  0  0
   -1.2010   -0.7490   -0.3500 N   0  0  0  0  0  0  0  0  0  0  0  0
   -4.2550   -0.9810   -0.4990 C   0  0  0  0  0  0  0  0  0  0  0  0
   -3.8820   -2.2700   -1.0310 N   0  0  0  0  0  0  0  0  0  0  0  0
   -5.3280   -3.0690   -1.3890 S   0  0  0  0  0  0  0  0  0  0  0  0
   -6.4390   -1.7400   -0.8530 C   0  0  0  0  0  0  0  0  0  0  0  0
   -5.5370   -0.7750   -0.4350 C   0  0  0  0  0  0  0  0  0  0  0  0
  1  2  2  0
  2  3  1  0
  2 21  1  0
  3  4  2  0
  4  5  1  0
  4 17  1  0
  5  6  2  0
  5 16  1  0
  6  7  1  0
  7  8  2  0
  8  9  1  0
  8 15  1  0
  9 10  1  0
 10 11  1  0
 11 12  1  6
 11 13  1  0
 11 14  1  0
 15 16  2  0
 17 18  2  0
 17 21  1  0
 18 19  1  0
 19 20  1  0
 20 21  2  0
M  END
