
     RDKit          3D

 15 14  0  0  0  0  0  0  0  0999 V2000
   -4.7940    0.3100   -0.6210 N   0  0  0  0  0  0  0  0  0  0  0  0
   -3.9440    1.1270    0.2280 C   0  0  0  0  0  0  0  0  0  0  0  0
   -2.6010    0.3910    0.3430 C   0  0  0  0  0  0  0  0  0  0  0  0
   -1.9420    0.2370   -1.3160 S   0  0  0  0  0  0  0  0  0  0  0  0
   -0.3670   -0.6030   -1.3850 C   0  0  0  0  0  0  0  0  0  0  0  0
    0.7490    0.1560   -0.7210 C   0  0  0  0  0  0  0  0  0  0  0  0
    2.0040   -0.6630   -0.8540 C   0  0  0  0  0  0  0  0  0  0  0  0
    1.9840   -1.7550   -1.4340 O   0  0  0  0  0  0  0  0  0  0  0  0
    3.2330   -0.1600   -0.2970 C   0  0  0  0  0  0  0  0  0  0  0  0
    4.5900   -1.0500   -0.4440 S   0  0  0  0  0  0  0  0  0  0  0  0
    3.3320    1.4200    0.5590 S   0  0  0  0  0  0  0  0  0  0  0  0
    5.3240    1.7710    1.2180 S   0  0  0  0  0  0  0  0  0  0  0  0
    5.6250    0.9850    3.1830 S   0  0  0  0  0  0  0  0  0  0  0  0
    6.1690   -0.6540    3.0960 O   0  0  0  0  0  0  0  0  0  0  0  0
    7.4390   -0.6770    2.6890 O   0  0  0  0  0  0  0  0  0  0  0  0
  1  2  1  0
  2  3  1  0
  3  4  1  0
  4  5  1  0
  5  6  1  0
  6  7  1  0
  7  8  2  0
  7  9  1  0
  9 10  2  0
  9 11  1  0
 11 12  1  0
 12 13  1  0
 13 14  1  0
 14 15  1  0
M  CHG  2   1   1  15  -1
M  END
