
     RDKit          3D

 33 35  0  0  0  0  0  0  0  0999 V2000
   -2.0930   -2.0630    1.9830 C   0  0  0  0  0  0  0  0  0  0  0  0
   -1.6440   -0.6700    1.8560 N   0  0  0  0  0  0  0  0  0  0  0  0
   -2.5160    0.3340    2.3610 C   0  0  0  0  0  0  0  0  0  0  0  0
   -3.7950    0.2930    1.6190 C   0  0  0  0  0  0  0  0  0  0  0  0
   -4.9010   -0.3080    2.1610 C   0  0  0  0  0  0  0  0  0  0  0  0
   -6.0730   -0.3480    1.4820 N   0  0  0  0  0  0  0  0  0  0  0  0
   -6.1680    0.2010    0.2660 C   0  0  0  0  0  0  0  0  0  0  0  0
   -7.3300    0.1680   -0.4210 N   0  0  0  0  0  0  0  0  0  0  0  0
   -7.4560    0.7200   -1.6630 C   0  0  0  0  0  0  0  0  0  0  0  0
   -8.7000    0.6600   -2.3440 N   0  0  0  0  0  0  0  0  0  0  0  0
   -6.3660    1.3040   -2.1800 N   0  0  0  0  0  0  0  0  0  0  0  0
   -5.1920    1.3560   -1.5260 C   0  0  0  0  0  0  0  0  0  0  0  0
   -4.0350    1.9810   -2.0860 N   0  0  0  0  0  0  0  0  0  0  0  0
   -5.0590    0.7980   -0.2670 C   0  0  0  0  0  0  0  0  0  0  0  0
   -3.9030    0.8410    0.3970 N   0  0  0  0  0  0  0  0  0  0  0  0
   -0.3950   -0.4610    1.2480 C   0  0  0  0  0  0  0  0  0  0  0  0
    0.3920   -1.5170    0.8180 C   0  0  0  0  0  0  0  0  0  0  0  0
    1.6150   -1.3260    0.2130 C   0  0  0  0  0  0  0  0  0  0  0  0
    2.0790   -0.0350    0.0260 C   0  0  0  0  0  0  0  0  0  0  0  0
    3.3470    0.2000   -0.5940 C   0  0  0  0  0  0  0  0  0  0  0  0
    3.6170    1.3640   -1.0230 O   0  0  0  0  0  0  0  0  0  0  0  0
    4.3000   -0.8170   -0.7410 N   0  0  0  0  0  0  0  0  0  0  0  0
    5.5670   -0.5200   -1.3800 C   0  0  1  0  0  0  0  0  0  0  0  0
    6.6400   -0.7370   -0.3480 C   0  0  0  0  0  0  0  0  0  0  0  0
    6.4210    0.1680    0.8230 C   0  0  0  0  0  0  0  0  0  0  0  0
    6.4880    1.5920    0.5370 C   0  0  0  0  0  0  0  0  0  0  0  0
    6.7880    2.0290   -0.5860 O   0  0  0  0  0  0  0  0  0  0  0  0
    6.2120    2.5130    1.5370 O   0  0  0  0  0  0  0  0  0  0  0  0
    5.7160   -1.4470   -2.5300 C   0  0  0  0  0  0  0  0  0  0  0  0
    4.8330   -2.2770   -2.7820 O   0  0  0  0  0  0  0  0  0  0  0  0
    6.8470   -1.3710   -3.3110 O   0  0  0  0  0  0  0  0  0  0  0  0
    1.3260    1.0540    0.4400 C   0  0  0  0  0  0  0  0  0  0  0  0
    0.0910    0.8060    1.0490 C   0  0  0  0  0  0  0  0  0  0  0  0
  1  2  1  0
  2  3  1  0
  2 16  1  0
  3  4  1  0
  4  5  2  0
  4 15  1  0
  5  6  1  0
  6  7  2  0
  7  8  1  0
  7 14  1  0
  8  9  2  0
  9 10  1  0
  9 11  1  0
 11 12  2  0
 12 13  1  0
 12 14  1  0
 14 15  2  0
 16 17  2  0
 16 33  1  0
 17 18  1  0
 18 19  2  0
 19 20  1  0
 19 32  1  0
 20 21  2  0
 20 22  1  0
 22 23  1  0
 23 24  1  1
 23 29  1  0
 24 25  1  0
 25 26  1  0
 26 27  2  0
 26 28  1  0
 29 30  2  0
 29 31  1  0
 32 33  2  0
M  CHG  1   8   1
M  END
