
     RDKit          3D

 31 34  0  0  0  0  0  0  0  0999 V2000
    7.7260   -1.0390   -1.1140 C   0  0  0  0  0  0  0  0  0  0  0  0
    6.3010   -0.9990   -0.7670 C   0  0  0  0  0  0  0  0  0  0  0  0
    5.4850   -2.0880   -0.9620 C   0  0  0  0  0  0  0  0  0  0  0  0
    4.1390   -2.0700   -0.6410 C   0  0  0  0  0  0  0  0  0  0  0  0
    3.2770   -3.2750   -0.8620 C   0  0  0  0  0  0  0  0  0  0  0  0
    4.0960   -4.2790   -1.4090 O   0  0  0  0  0  0  0  0  0  0  0  0
    3.6030   -0.9180   -0.1070 C   0  0  0  0  0  0  0  0  0  0  0  0
    2.2360   -0.7930    0.2500 N   0  0  0  0  0  0  0  0  0  0  0  0
    1.2270   -0.9070   -0.7520 C   0  0  0  0  0  0  0  0  0  0  0  0
    0.3370    0.3500   -0.7260 C   0  0  0  0  0  0  0  0  0  0  0  0
   -0.2270    0.4500    0.5970 N   0  0  0  0  0  0  0  0  0  0  0  0
   -1.5960    0.5690    0.8910 C   0  0  0  0  0  0  0  0  0  0  0  0
   -1.9140    0.5750    2.1250 O   0  0  0  0  0  0  0  0  0  0  0  0
   -2.7180    0.6870   -0.0470 C   0  0  2  0  0  0  0  0  0  0  0  0
   -2.6720    1.8360   -0.9920 C   0  0  0  0  0  0  0  0  0  0  0  0
   -2.9100    3.1850   -0.2950 C   0  0  0  0  0  0  0  0  0  0  0  0
   -4.2770    3.0550    0.3610 C   0  0  0  0  0  0  0  0  0  0  0  0
   -4.2600    1.8560    1.3250 C   0  0  0  0  0  0  0  0  0  0  0  0
   -4.0210    0.6840    0.5760 N   0  0  2  0  0  0  0  0  0  0  0  0
   -4.2910   -0.5430    1.2870 C   0  0  0  0  0  0  0  0  0  0  0  0
   -5.2550   -1.4490    0.5070 C   0  0  1  0  0  0  0  0  0  0  0  0
   -6.5640   -0.8010    0.2480 C   0  0  0  0  0  0  0  0  0  0  0  0
   -6.6910   -0.7900   -1.2500 C   0  0  0  0  0  0  0  0  0  0  0  0
   -5.6010   -1.7210   -1.6800 C   0  0  0  0  0  0  0  0  0  0  0  0
   -4.6420   -1.7270   -0.7020 O   0  0  0  0  0  0  0  0  0  0  0  0
    0.7100    0.4580    1.7010 C   0  0  0  0  0  0  0  0  0  0  0  0
    1.8020   -0.5550    1.6150 C   0  0  0  0  0  0  0  0  0  0  0  0
    4.4320    0.1660    0.0830 C   0  0  0  0  0  0  0  0  0  0  0  0
    5.7670    0.1570   -0.2320 C   0  0  0  0  0  0  0  0  0  0  0  0
    6.6030    1.3410   -0.0090 C   0  0  0  0  0  0  0  0  0  0  0  0
    5.8450    2.4390    0.5570 N   0  0  0  0  0  0  0  0  0  0  0  0
  1  2  1  0
  2  3  2  0
  2 29  1  0
  3  4  1  0
  4  5  1  0
  4  7  2  0
  5  6  1  0
  7  8  1  0
  7 28  1  0
  8  9  1  0
  8 27  1  0
  9 10  1  0
 10 11  1  0
 11 12  1  0
 11 26  1  0
 12 13  2  0
 14 12  1  1
 14 15  1  0
 14 19  1  0
 15 16  1  0
 16 17  1  0
 17 18  1  0
 18 19  1  0
 19 20  1  1
 21 20  1  1
 21 22  1  0
 21 25  1  0
 22 23  1  0
 23 24  1  0
 24 25  1  0
 26 27  1  0
 28 29  2  0
 29 30  1  0
 30 31  1  0
M  CHG  2  19   1  31   1
M  END
