
     RDKit          3D

 31 34  0  0  0  0  0  0  0  0999 V2000
    4.8680    0.5470   -1.3590 C   0  0  0  0  0  0  0  0  0  0  0  0
    3.8660    1.3920   -0.8110 N   0  0  1  0  0  0  0  0  0  0  0  0
    3.8470    2.6370   -1.5080 C   0  0  0  0  0  0  0  0  0  0  0  0
    2.5540    0.7180   -1.0490 C   0  0  1  0  0  0  0  0  0  0  0  0
    2.5020   -0.6080   -0.3590 C   0  0  0  0  0  0  0  0  0  0  0  0
    1.9870   -1.7570   -0.6810 C   0  0  0  0  0  0  0  0  0  0  0  0
    2.2120   -2.8120    0.3860 C   0  0  0  0  0  0  0  0  0  0  0  0
    1.8520   -4.1190    0.3810 C   0  0  0  0  0  0  0  0  0  0  0  0
    2.2750   -4.6670    1.5720 C   0  0  0  0  0  0  0  0  0  0  0  0
    2.8900   -3.6570    2.2780 C   0  0  0  0  0  0  0  0  0  0  0  0
    2.8170   -2.5950    1.5210 O   0  0  0  0  0  0  0  0  0  0  0  0
    1.2880   -2.1990   -1.8240 N   0  0  0  0  0  0  0  0  0  0  0  0
    0.0800   -1.7850   -2.4420 C   0  0  0  0  0  0  0  0  0  0  0  0
   -0.2870   -2.3640   -3.5660 O   0  0  0  0  0  0  0  0  0  0  0  0
   -0.8920   -0.7750   -2.0390 C   0  0  0  0  0  0  0  0  0  0  0  0
   -1.1420    0.0400   -3.0630 O   0  0  0  0  0  0  0  0  0  0  0  0
   -1.5470   -0.5630   -0.8150 N   0  0  0  0  0  0  0  0  0  0  0  0
   -2.7740   -1.0040   -0.2640 C   0  0  1  0  0  0  0  0  0  0  0  0
   -2.6920   -2.1570    0.7170 C   0  0  0  0  0  0  0  0  0  0  0  0
   -4.0520   -2.1270    1.2800 N   0  0  0  0  0  0  0  0  0  0  0  0
   -4.5170   -0.7390    1.1910 C   0  0  0  0  0  0  0  0  0  0  0  0
   -3.3120    0.0240    0.7830 C   0  0  2  0  0  0  0  0  0  0  0  0
   -3.4570    1.3730    0.2460 C   0  0  0  0  0  0  0  0  0  0  0  0
   -3.3590    2.5410    1.1260 C   0  0  0  0  0  0  0  0  0  0  0  0
   -2.2550    3.5350    0.9080 C   0  0  0  0  0  0  0  0  0  0  0  0
   -0.9830    2.9380    0.4010 C   0  0  0  0  0  0  0  0  0  0  0  0
   -0.0700    2.3820    1.2600 C   0  0  0  0  0  0  0  0  0  0  0  0
    1.1080    1.6970    0.8220 C   0  0  0  0  0  0  0  0  0  0  0  0
    1.4000    1.5500   -0.5180 C   0  0  0  0  0  0  0  0  0  0  0  0
    0.4990    2.1110   -1.3870 C   0  0  0  0  0  0  0  0  0  0  0  0
   -0.6710    2.7910   -0.9290 C   0  0  0  0  0  0  0  0  0  0  0  0
  2  1  1  6
  2  3  1  0
  2  4  1  0
  4  5  1  1
  4 29  1  0
  5  6  2  0
  6  7  1  0
  6 12  1  0
  7  8  2  0
  7 11  1  0
  8  9  1  0
  9 10  2  0
 10 11  1  0
 12 13  1  0
 13 14  2  0
 13 15  1  0
 15 16  2  0
 15 17  1  0
 17 18  1  0
 18 19  1  1
 18 22  1  0
 19 20  1  0
 20 21  1  0
 22 21  1  6
 22 23  1  0
 23 24  1  0
 24 25  1  0
 25 26  1  0
 26 27  2  0
 26 31  1  0
 27 28  1  0
 28 29  2  0
 29 30  1  0
 30 31  2  0
M  CHG  2   2   1  20   1
M  END
