
     RDKit          3D

 30 32  0  0  0  0  0  0  0  0999 V2000
    3.1090    6.6900   -1.5820 C   0  0  0  0  0  0  0  0  0  0  0  0
    2.4540    5.3690   -1.7120 C   0  0  0  0  0  0  0  0  0  0  0  0
    1.4940    5.2370   -2.4900 O   0  0  0  0  0  0  0  0  0  0  0  0
    2.9350    4.2520   -0.9380 C   0  0  0  0  0  0  0  0  0  0  0  0
    2.3450    3.0610   -1.0520 C   0  0  0  0  0  0  0  0  0  0  0  0
    2.8230    1.9400   -0.2800 C   0  0  0  0  0  0  0  0  0  0  0  0
    2.3320    0.7130   -0.2940 C   0  0  0  0  0  0  0  0  0  0  0  0
    2.9860   -0.2390    0.5710 C   0  0  0  0  0  0  0  0  0  0  0  0
    2.6070   -1.4860    0.6430 C   0  0  0  0  0  0  0  0  0  0  0  0
    3.2720   -2.4560    1.5250 C   0  0  0  0  0  0  0  0  0  0  0  0
    4.3270   -2.1360    2.3490 C   0  0  0  0  0  0  0  0  0  0  0  0
    4.7000   -3.2810    3.0290 C   0  0  0  0  0  0  0  0  0  0  0  0
    3.8220   -4.2630    2.5650 C   0  0  0  0  0  0  0  0  0  0  0  0
    3.0270   -3.7200    1.7010 O   0  0  0  0  0  0  0  0  0  0  0  0
    1.1600    0.3260   -1.1140 C   0  0  1  0  0  0  0  0  0  0  0  0
    1.5800   -0.7440   -1.9820 N   0  0  0  0  0  0  0  0  0  0  0  0
    0.5650   -1.3070   -2.7970 C   0  0  0  0  0  0  0  0  0  0  0  0
   -0.8360   -1.1720   -2.3310 C   0  0  0  0  0  0  0  0  0  0  0  0
   -0.8670   -1.1580   -0.8210 C   0  0  2  0  0  0  0  0  0  0  0  0
   -2.2740   -0.9050   -0.4170 N   0  0  0  0  0  0  0  0  0  0  0  0
   -2.9400   -1.8440    0.3950 C   0  0  0  0  0  0  0  0  0  0  0  0
   -2.2910   -2.8990    0.7570 O   0  0  0  0  0  0  0  0  0  0  0  0
   -4.3140   -1.7200    0.8650 C   0  0  0  0  0  0  0  0  0  0  0  0
   -4.9260   -2.6390    1.6460 C   0  0  0  0  0  0  0  0  0  0  0  0
   -6.3000   -2.2450    1.9580 C   0  0  0  0  0  0  0  0  0  0  0  0
   -6.4410   -0.9520    1.2560 C   0  0  0  0  0  0  0  0  0  0  0  0
   -5.3010   -0.6890    0.6510 C   0  0  0  0  0  0  0  0  0  0  0  0
   -5.1130    0.5750   -0.1620 C   0  0  0  0  0  0  0  0  0  0  0  0
   -0.0970    0.0660   -0.3810 C   0  0  1  0  0  0  0  0  0  0  0  0
    0.0300    0.1850    1.1070 C   0  0  0  0  0  0  0  0  0  0  0  0
  1  2  1  0
  2  3  2  0
  2  4  1  0
  4  5  2  3
  5  6  1  0
  6  7  2  3
  7  8  1  0
 15  7  1  1
  8  9  2  3
  9 10  1  0
 10 11  2  0
 10 14  1  0
 11 12  1  0
 12 13  2  0
 13 14  1  0
 15 16  1  0
 15 29  1  0
 16 17  1  0
 17 18  1  0
 18 19  1  0
 19 20  1  6
 19 29  1  0
 20 21  1  0
 21 22  2  0
 21 23  1  0
 23 24  2  0
 23 27  1  0
 24 25  1  0
 25 26  1  0
 26 27  2  0
 27 28  1  0
 29 30  1  1
M  END
