
     RDKit          3D

 31 34  0  0  0  0  0  0  0  0999 V2000
   -5.8890   -4.0010   -0.1230 C   0  0  0  0  0  0  0  0  0  0  0  0
   -5.8550   -2.7890    0.6370 N   0  0  0  0  0  0  0  0  0  0  0  0
   -4.6370   -2.0720    0.5050 C   0  0  0  0  0  0  0  0  0  0  0  0
   -3.9420   -1.6710    1.6210 C   0  0  0  0  0  0  0  0  0  0  0  0
   -2.7660   -0.9780    1.5200 C   0  0  0  0  0  0  0  0  0  0  0  0
   -2.2120   -0.6450    0.2780 C   0  0  0  0  0  0  0  0  0  0  0  0
   -1.0160    0.0410    0.2010 N   0  0  0  0  0  0  0  0  0  0  0  0
   -0.6100    1.2120    0.1510 C   0  0  0  0  0  0  0  0  0  0  0  0
    0.8000    1.3770    0.0770 O   0  0  0  0  0  0  0  0  0  0  0  0
    1.6410    0.2800    0.0640 C   0  0  0  0  0  0  0  0  0  0  0  0
    1.1200   -0.8620    0.1190 O   0  0  0  0  0  0  0  0  0  0  0  0
    3.1220    0.4610   -0.0140 C   0  0  2  0  0  0  0  0  0  0  0  0
    3.4290    1.1870   -1.2860 C   0  0  0  0  0  0  0  0  0  0  0  0
    4.3480    0.3820   -2.1780 C   0  0  0  0  0  0  0  0  0  0  0  0
    5.5580    0.0130   -1.3700 C   0  0  0  0  0  0  0  0  0  0  0  0
    5.1680   -0.8540   -0.3040 N   0  0  0  0  0  0  0  0  0  0  0  0
    5.9930   -0.6990    0.8800 C   0  0  0  0  0  0  0  0  0  0  0  0
    6.0450   -2.0700    1.5470 C   0  0  0  0  0  0  0  0  0  0  0  0
    4.6600   -2.6300    1.5220 C   0  0  0  0  0  0  0  0  0  0  0  0
    3.5910   -1.5730    1.3320 C   0  0  0  0  0  0  0  0  0  0  0  0
    3.7730   -0.8960   -0.0110 C   0  0  1  0  0  0  0  0  0  0  0  0
   -1.4450    2.3800    0.1630 C   0  0  0  0  0  0  0  0  0  0  0  0
   -2.7460    2.4160    0.2260 C   0  0  0  0  0  0  0  0  0  0  0  0
   -3.5300    3.6930    0.2320 C   0  0  0  0  0  0  0  0  0  0  0  0
   -2.7500    4.8670    0.7210 C   0  0  0  0  0  0  0  0  0  0  0  0
   -1.3950    4.5610    1.0940 N   0  0  0  0  0  0  0  0  0  0  0  0
   -0.7670    3.7300    0.0930 C   0  0  0  0  0  0  0  0  0  0  0  0
   -2.9270   -1.0580   -0.8590 C   0  0  0  0  0  0  0  0  0  0  0  0
   -2.3910   -0.7340   -2.0880 O   0  0  0  0  0  0  0  0  0  0  0  0
   -3.0970   -1.1420   -3.2440 C   0  0  0  0  0  0  0  0  0  0  0  0
   -4.1020   -1.7500   -0.7110 C   0  0  0  0  0  0  0  0  0  0  0  0
  1  2  1  0
  2  3  1  0
  3  4  2  0
  3 31  1  0
  4  5  1  0
  5  6  2  0
  6  7  1  0
  6 28  1  0
  7  8  2  3
  8  9  1  0
  8 22  1  0
  9 10  1  0
 10 11  2  0
 12 10  1  6
 12 13  1  0
 12 21  1  0
 13 14  1  0
 14 15  1  0
 15 16  1  0
 16 17  1  0
 16 21  1  0
 17 18  1  0
 18 19  1  0
 19 20  1  0
 21 20  1  1
 22 23  2  0
 22 27  1  0
 23 24  1  0
 24 25  1  0
 25 26  1  0
 26 27  1  0
 28 29  1  0
 28 31  2  0
 29 30  1  0
M  CHG  2   2   1  26   1
M  END
