
     RDKit          3D

 31 34  0  0  0  0  0  0  0  0999 V2000
    5.5120   -2.9450    0.4630 C   0  0  0  0  0  0  0  0  0  0  0  0
    6.6260   -1.9750    0.6290 C   0  0  0  0  0  0  0  0  0  0  0  0
    6.4540   -0.6480   -0.0060 C   0  0  0  0  0  0  0  0  0  0  0  0
    5.3400    0.2130    0.4500 C   0  0  2  0  0  0  0  0  0  0  0  0
    3.9820   -0.3370    0.2680 C   0  0  0  0  0  0  0  0  0  0  0  0
    3.0150    0.6860   -0.1530 N   0  0  2  0  0  0  0  0  0  0  0  0
    1.7100    0.0670   -0.1230 C   0  0  0  0  0  0  0  0  0  0  0  0
    0.7890    0.9080    0.7270 C   0  0  1  0  0  0  0  0  0  0  0  0
    0.6370    2.3070    0.1890 C   0  0  0  0  0  0  0  0  0  0  0  0
   -0.7000    2.6600    0.7190 C   0  0  0  0  0  0  0  0  0  0  0  0
   -1.1260    3.7760    1.0400 O   0  0  0  0  0  0  0  0  0  0  0  0
   -1.4240    1.4410    0.7920 N   0  0  0  0  0  0  0  0  0  0  0  0
   -0.5840    0.3950    0.7860 C   0  0  0  0  0  0  0  0  0  0  0  0
   -1.1400   -0.8380    0.8410 N   0  0  0  0  0  0  0  0  0  0  0  0
   -2.4590   -1.0570    0.9000 C   0  0  0  0  0  0  0  0  0  0  0  0
   -2.9210   -2.4740    0.9560 C   0  0  0  0  0  0  0  0  0  0  0  0
   -3.3320    0.0070    0.9070 C   0  0  0  0  0  0  0  0  0  0  0  0
   -4.7630   -0.2190    0.9710 C   0  0  0  0  0  0  0  0  0  0  0  0
   -5.2930   -0.2800    2.0990 O   0  0  0  0  0  0  0  0  0  0  0  0
   -5.5220   -0.3650   -0.2580 C   0  0  0  0  0  0  0  0  0  0  0  0
   -6.9900   -0.5990   -0.0730 C   0  0  2  0  0  0  0  0  0  0  0  0
   -7.3050   -1.8540    0.7130 C   0  0  0  0  0  0  0  0  0  0  0  0
   -7.6770   -0.6460   -1.4400 C   0  0  0  0  0  0  0  0  0  0  0  0
   -8.0170    0.8180   -1.2420 C   0  0  0  0  0  0  0  0  0  0  0  0
   -7.8370    0.5750    0.2600 C   0  0  0  0  0  0  0  0  0  0  0  0
   -2.7790    1.2660    0.8510 C   0  0  0  0  0  0  0  0  0  0  0  0
   -3.5680    2.2440    0.8570 O   0  0  0  0  0  0  0  0  0  0  0  0
    3.3320    1.1260   -1.4970 C   0  0  0  0  0  0  0  0  0  0  0  0
    4.8260    1.3010   -1.6740 C   0  0  0  0  0  0  0  0  0  0  0  0
    5.4220    1.5370   -0.3210 C   0  0  2  0  0  0  0  0  0  0  0  0
    6.7890    2.0110   -0.3920 N   0  0  0  0  0  0  0  0  0  0  0  0
  1  2  1  0
  2  3  1  0
  4  3  1  6
  4  5  1  0
  4 30  1  0
  5  6  1  0
  6  7  1  6
  6 28  1  0
  8  7  1  6
  8  9  1  0
  8 13  1  0
  9 10  1  0
 10 11  2  0
 10 12  1  0
 12 13  1  0
 12 26  1  0
 13 14  2  0
 14 15  1  0
 15 16  1  0
 15 17  2  0
 17 18  1  0
 17 26  1  0
 18 19  2  0
 18 20  1  0
 20 21  1  0
 21 22  1  1
 21 23  1  0
 21 25  1  0
 23 24  1  0
 24 25  1  0
 26 27  2  0
 28 29  1  0
 29 30  1  0
 30 31  1  6
M  CHG  2   6   1  31   1
M  END
