
     RDKit          3D

 31 35  0  0  0  0  0  0  0  0999 V2000
   -8.3820    2.7710    0.3610 C   0  0  0  0  0  0  0  0  0  0  0  0
   -7.3710    1.6850    0.5280 C   0  0  0  0  0  0  0  0  0  0  0  0
   -6.0380    1.9170    0.2660 C   0  0  0  0  0  0  0  0  0  0  0  0
   -5.0690    0.9500    0.4050 C   0  0  0  0  0  0  0  0  0  0  0  0
   -5.4170   -0.3210    0.8230 C   0  0  0  0  0  0  0  0  0  0  0  0
   -4.5080   -1.3350    0.9890 C   0  0  0  0  0  0  0  0  0  0  0  0
   -3.0910   -1.1190    0.6940 C   0  0  0  0  0  0  0  0  0  0  0  0
   -2.7570   -1.1600   -0.7810 C   0  0  0  0  0  0  0  0  0  0  0  0
   -1.3100   -0.9190   -0.8900 N   0  0  0  0  0  0  0  0  0  0  0  0
   -0.9260   -0.9390   -2.2890 C   0  0  0  0  0  0  0  0  0  0  0  0
    0.5390   -0.6820   -2.3670 C   0  0  0  0  0  0  0  0  0  0  0  0
    1.2580   -0.4880   -1.2910 C   0  0  0  0  0  0  0  0  0  0  0  0
    2.7060   -0.2300   -1.3220 C   0  0  0  0  0  0  0  0  0  0  0  0
    3.4310   -0.1660   -2.4900 C   0  0  0  0  0  0  0  0  0  0  0  0
    4.7950    0.0830   -2.4500 C   0  0  0  0  0  0  0  0  0  0  0  0
    5.4860    0.2760   -1.2590 C   0  0  0  0  0  0  0  0  0  0  0  0
    4.7640    0.2120   -0.0960 C   0  0  0  0  0  0  0  0  0  0  0  0
    3.3840   -0.0400   -0.1440 C   0  0  0  0  0  0  0  0  0  0  0  0
    5.4310    0.4050    1.1990 C   0  0  0  0  0  0  0  0  0  0  0  0
    6.8840    0.6720    1.1150 C   0  0  0  0  0  0  0  0  0  0  0  0
    7.6020    0.8770    2.3030 C   0  0  0  0  0  0  0  0  0  0  0  0
    8.9420    1.1260    2.2980 C   0  0  0  0  0  0  0  0  0  0  0  0
    9.6750    1.1920    1.1330 C   0  0  0  0  0  0  0  0  0  0  0  0
    8.9710    0.9910   -0.0360 C   0  0  0  0  0  0  0  0  0  0  0  0
    7.6130    0.7380   -0.0490 C   0  0  0  0  0  0  0  0  0  0  0  0
    6.8900    0.5340   -1.2560 N   0  0  0  0  0  0  0  0  0  0  0  0
   -4.9270   -2.5410    1.4050 N   0  0  0  0  0  0  0  0  0  0  0  0
   -6.2340   -2.7770    1.6650 C   0  0  0  0  0  0  0  0  0  0  0  0
   -7.1240   -1.7880    1.5030 N   0  0  0  0  0  0  0  0  0  0  0  0
   -6.7720   -0.5560    1.0880 C   0  0  0  0  0  0  0  0  0  0  0  0
   -7.7160    0.4120    0.9460 C   0  0  0  0  0  0  0  0  0  0  0  0
  1  2  1  0
  2  3  2  0
  2 31  1  0
  3  4  1  0
  4  5  2  0
  5  6  1  0
  5 30  1  0
  6  7  1  0
  6 27  2  0
  7  8  1  0
  8  9  1  0
  9 10  1  0
 10 11  1  0
 11 12  2  3
 12 13  1  0
 13 14  2  0
 13 18  1  0
 14 15  1  0
 15 16  2  0
 16 17  1  0
 16 26  1  0
 17 18  2  0
 17 19  1  0
 19 20  1  0
 20 21  2  0
 20 25  1  0
 21 22  1  0
 22 23  2  0
 23 24  1  0
 24 25  2  0
 25 26  1  0
 27 28  1  0
 28 29  2  0
 29 30  1  0
 30 31  2  0
M  CHG  2  27   1  29   1
M  END
