
     RDKit          3D

 31 34  0  0  0  0  0  0  0  0999 V2000
   -7.3220    0.7740   -2.6690 C   0  0  0  0  0  0  0  0  0  0  0  0
   -6.1190    0.9810   -1.7940 C   0  0  0  0  0  0  0  0  0  0  0  0
   -5.2880    2.0680   -1.9510 C   0  0  0  0  0  0  0  0  0  0  0  0
   -4.1990    2.2010   -1.1170 C   0  0  0  0  0  0  0  0  0  0  0  0
   -3.9060    1.2630   -0.1080 C   0  0  0  0  0  0  0  0  0  0  0  0
   -2.7520    1.4570    0.7340 C   0  0  0  0  0  0  0  0  0  0  0  0
   -2.8850    2.4370    1.7290 C   0  0  0  0  0  0  0  0  0  0  0  0
   -1.8770    2.7710    2.5950 C   0  0  0  0  0  0  0  0  0  0  0  0
   -0.6900    2.0880    2.4490 C   0  0  0  0  0  0  0  0  0  0  0  0
   -0.5070    1.1210    1.4920 C   0  0  0  0  0  0  0  0  0  0  0  0
    0.8260    0.3840    1.3580 C   0  0  0  0  0  0  0  0  0  0  0  0
    1.6440    0.9790    0.4090 N   0  0  0  0  0  0  0  0  0  0  0  0
    2.9300    0.5470    0.1460 C   0  0  0  0  0  0  0  0  0  0  0  0
    3.0710   -0.7610   -0.5290 C   0  0  2  0  0  0  0  0  0  0  0  0
    2.2990   -0.6630   -1.8530 C   0  0  0  0  0  0  0  0  0  0  0  0
    2.6480   -1.8780    0.2500 N   0  0  0  0  0  0  0  0  0  0  0  0
    4.5310   -1.0000   -0.8810 C   0  0  0  0  0  0  0  0  0  0  0  0
    5.6070   -0.1990   -0.7030 C   0  0  0  0  0  0  0  0  0  0  0  0
    6.6860   -0.8400   -1.1710 N   0  0  0  0  0  0  0  0  0  0  0  0
    8.0750   -0.4200   -1.2150 C   0  0  1  0  0  0  0  0  0  0  0  0
    8.4690    0.8710   -0.6300 C   0  0  0  0  0  0  0  0  0  0  0  0
    8.8090   -0.4500    0.1020 C   0  0  0  0  0  0  0  0  0  0  0  0
    6.2730   -2.0510   -1.6440 C   0  0  0  0  0  0  0  0  0  0  0  0
    4.9410   -2.1330   -1.4570 N   0  0  0  0  0  0  0  0  0  0  0  0
   -1.5470    0.8220    0.6480 C   0  0  0  0  0  0  0  0  0  0  0  0
   -4.7360    0.1910    0.0400 C   0  0  0  0  0  0  0  0  0  0  0  0
   -4.4770   -0.8270    1.0710 C   0  0  2  0  0  0  0  0  0  0  0  0
   -4.4330   -0.2640    2.4800 C   0  0  0  0  0  0  0  0  0  0  0  0
   -3.3530   -1.7700    0.7570 C   0  0  0  0  0  0  0  0  0  0  0  0
   -5.7400   -1.7430    1.1060 C   0  0  0  0  0  0  0  0  0  0  0  0
   -5.8540    0.0500   -0.8130 C   0  0  0  0  0  0  0  0  0  0  0  0
  1  2  1  0
  2  3  2  0
  2 31  1  0
  3  4  1  0
  4  5  2  0
  5  6  1  0
  5 26  1  0
  6  7  2  0
  6 25  1  0
  7  8  1  0
  8  9  2  0
  9 10  1  0
 10 11  1  0
 10 25  2  0
 11 12  1  0
 12 13  1  0
 13 14  1  0
 14 15  1  6
 14 16  1  0
 14 17  1  0
 17 18  2  0
 17 24  1  0
 18 19  1  0
 20 19  1  1
 19 23  1  0
 20 21  1  0
 20 22  1  0
 21 22  1  0
 23 24  2  0
 26 27  1  0
 26 31  2  0
 27 28  1  1
 27 29  1  0
 27 30  1  0
M  CHG  2  16   1  24   1
M  END
