
     RDKit          3D

 31 34  0  0  0  0  0  0  0  0999 V2000
    9.7420    3.2750    1.9160 N   0  0  0  0  0  0  0  0  0  0  0  0
    8.9060    2.4760    1.7330 C   0  0  0  0  0  0  0  0  0  0  0  0
    7.8650    1.4980    1.5280 C   0  0  0  0  0  0  0  0  0  0  0  0
    6.6120    1.8230    1.0740 C   0  0  0  0  0  0  0  0  0  0  0  0
    5.6090    0.8840    0.8390 C   0  0  0  0  0  0  0  0  0  0  0  0
    5.9090   -0.4320    1.0800 C   0  0  0  0  0  0  0  0  0  0  0  0
    5.0550   -1.4730    0.8940 O   0  0  0  0  0  0  0  0  0  0  0  0
    3.7700   -1.5980    0.4520 C   0  0  0  0  0  0  0  0  0  0  0  0
    3.5340   -1.1450   -0.9630 C   0  0  0  0  0  0  0  0  0  0  0  0
    2.1290   -1.3970   -1.3630 C   0  0  0  0  0  0  0  0  0  0  0  0
    1.0510   -0.8150   -0.6900 N   0  0  2  0  0  0  0  0  0  0  0  0
    1.0570    0.5640   -0.3370 C   0  0  0  0  0  0  0  0  0  0  0  0
   -0.4080    1.0100   -0.4170 C   0  0  0  0  0  0  0  0  0  0  0  0
   -1.4020    0.0110    0.0430 C   0  0  1  0  0  0  0  0  0  0  0  0
   -2.7230    0.1880   -0.6450 C   0  0  2  0  0  0  0  0  0  0  0  0
   -2.4230    0.1610   -2.0480 O   0  0  0  0  0  0  0  0  0  0  0  0
   -3.3960    1.4300   -0.3860 C   0  0  0  0  0  0  0  0  0  0  0  0
   -4.5420    1.5780    0.3840 C   0  0  0  0  0  0  0  0  0  0  0  0
   -5.2000    2.7450    0.6570 C   0  0  0  0  0  0  0  0  0  0  0  0
   -4.6960    3.9110    0.1250 C   0  0  0  0  0  0  0  0  0  0  0  0
   -3.5640    3.8460   -0.6510 C   0  0  0  0  0  0  0  0  0  0  0  0
   -2.9310    2.6310   -0.9000 C   0  0  0  0  0  0  0  0  0  0  0  0
   -3.5650   -1.0720   -0.5780 C   0  0  1  0  0  0  0  0  0  0  0  0
   -3.9190   -1.6390    0.7040 C   0  0  0  0  0  0  0  0  0  0  0  0
   -5.3290   -2.1520    0.5210 C   0  0  0  0  0  0  0  0  0  0  0  0
   -5.8020   -1.7870   -0.8480 C   0  0  0  0  0  0  0  0  0  0  0  0
   -4.7870   -0.8730   -1.4180 C   0  0  0  0  0  0  0  0  0  0  0  0
   -0.9780   -1.3620    0.3650 C   0  0  0  0  0  0  0  0  0  0  0  0
    0.5680   -1.4700    0.4960 C   0  0  0  0  0  0  0  0  0  0  0  0
    7.1870   -0.7750    1.5470 C   0  0  0  0  0  0  0  0  0  0  0  0
    8.1510    0.1640    1.7690 C   0  0  0  0  0  0  0  0  0  0  0  0
  1  2  3  0
  2  3  1  0
  3  4  2  0
  3 31  1  0
  4  5  1  0
  5  6  2  0
  6  7  1  0
  6 30  1  0
  7  8  1  0
  8  9  1  0
  9 10  1  0
 11 10  1  1
 11 12  1  0
 11 29  1  0
 12 13  1  0
 14 13  1  6
 14 15  1  0
 14 28  1  0
 15 16  1  6
 15 17  1  0
 15 23  1  0
 17 18  2  0
 17 22  1  0
 18 19  1  0
 19 20  2  0
 20 21  1  0
 21 22  2  0
 23 24  1  1
 23 27  1  0
 24 25  1  0
 25 26  1  0
 26 27  1  0
 28 29  1  0
 30 31  2  0
M  CHG  1  11   1
M  END
