
     RDKit          3D

 36 39  0  0  0  0  0  0  0  0999 V2000
   -2.0710    0.7980   -2.6390 C   0  0  0  0  0  0  0  0  0  0  0  0
   -3.0130    0.4210   -1.5510 C   0  0  1  0  0  0  0  0  0  0  0  0
   -4.1590    1.4600   -1.7010 C   0  0  0  0  0  0  0  0  0  0  0  0
   -3.6940   -0.7800   -1.8400 O   0  0  0  0  0  0  0  0  0  0  0  0
   -2.5920    0.5250   -0.1520 C   0  0  0  0  0  0  0  0  0  0  0  0
   -1.4350   -0.2570    0.3640 C   0  0  1  0  0  0  0  0  0  0  0  0
   -1.5580   -1.7420    0.2030 C   0  0  0  0  0  0  0  0  0  0  0  0
   -2.6760   -2.3850    0.8980 C   0  0  0  0  0  0  0  0  0  0  0  0
   -3.5580   -1.9250    1.8080 C   0  0  0  0  0  0  0  0  0  0  0  0
   -4.4050   -2.9930    2.1120 C   0  0  0  0  0  0  0  0  0  0  0  0
   -5.4610   -2.9410    3.0120 O   0  0  0  0  0  0  0  0  0  0  0  0
   -3.9760   -4.0610    1.3540 C   0  0  0  0  0  0  0  0  0  0  0  0
   -2.9700   -3.6710    0.6610 O   0  0  0  0  0  0  0  0  0  0  0  0
   -0.1640    0.1840   -0.2340 C   0  0  0  0  0  0  0  0  0  0  0  0
    0.9940    0.5260    0.6100 C   0  0  1  0  0  0  0  0  0  0  0  0
    2.2180   -0.2100    0.1760 C   0  0  0  0  0  0  0  0  0  0  0  0
    1.9340   -1.5910    0.1260 O   0  0  0  0  0  0  0  0  0  0  0  0
    2.8610   -2.5560   -0.2430 C   0  0  0  0  0  0  0  0  0  0  0  0
    3.9040   -2.7650    0.5250 C   0  0  0  0  0  0  0  0  0  0  0  0
    4.1000   -2.0350    1.7090 O   0  0  0  0  0  0  0  0  0  0  0  0
    4.9150   -3.7650    0.1930 C   0  0  1  0  0  0  0  0  0  0  0  0
    5.0730   -4.7060    1.2270 O   0  0  0  0  0  0  0  0  0  0  0  0
    4.6370   -4.4300   -0.9850 O   0  0  0  0  0  0  0  0  0  0  0  0
    3.5740   -4.2480   -1.8100 C   0  0  0  0  0  0  0  0  0  0  0  0
    2.6750   -3.3240   -1.4660 C   0  0  0  0  0  0  0  0  0  0  0  0
    1.2320    1.9380    0.6850 O   0  0  0  0  0  0  0  0  0  0  0  0
    1.5100    2.6470   -0.4540 C   0  0  0  0  0  0  0  0  0  0  0  0
    1.5550    2.0500   -1.5510 O   0  0  0  0  0  0  0  0  0  0  0  0
    1.7560    4.1050   -0.4110 C   0  0  0  0  0  0  0  0  0  0  0  0
    2.0280    4.8560   -1.4490 C   0  0  0  0  0  0  0  0  0  0  0  0
    2.2170    6.2700   -1.0380 C   0  0  0  0  0  0  0  0  0  0  0  0
    1.5170    6.2680    0.3270 C   0  0  0  0  0  0  0  0  0  0  0  0
    1.7420    4.9020    0.7090 O   0  0  0  0  0  0  0  0  0  0  0  0
    0.7490    0.1320    2.0690 C   0  0  0  0  0  0  0  0  0  0  0  0
   -0.6380    0.7440    2.3330 C   0  0  0  0  0  0  0  0  0  0  0  0
   -1.5170   -0.1210    1.7760 O   0  0  0  0  0  0  0  0  0  0  0  0
  2  1  1  6
  2  3  1  0
  2  4  1  0
  2  5  1  0
  6  5  1  6
  6  7  1  0
  6 14  1  0
  6 36  1  0
  7  8  1  0
  8  9  2  0
  8 13  1  0
  9 10  1  0
 10 11  1  0
 10 12  2  0
 12 13  1  0
 14 15  1  0
 15 16  1  6
 15 26  1  0
 15 34  1  0
 16 17  1  0
 17 18  1  0
 18 19  2  0
 18 25  1  0
 19 20  1  0
 19 21  1  0
 21 22  1  1
 21 23  1  0
 23 24  1  0
 24 25  2  0
 26 27  1  0
 27 28  2  0
 27 29  1  0
 29 30  2  0
 29 33  1  0
 30 31  1  0
 31 32  1  0
 32 33  1  0
 34 35  1  0
 35 36  1  0
M  END
