
     RDKit          3D

 37 39  0  0  0  0  0  0  0  0999 V2000
    7.0420   -2.6120    4.0240 C   0  0  0  0  0  0  0  0  0  0  0  0
    6.5850   -1.8800    2.9270 O   0  0  0  0  0  0  0  0  0  0  0  0
    5.2140   -1.9290    2.6190 C   0  0  0  0  0  0  0  0  0  0  0  0
    4.4610   -2.6270    3.3440 O   0  0  0  0  0  0  0  0  0  0  0  0
    4.7090   -1.1740    1.4800 C   0  0  0  0  0  0  0  0  0  0  0  0
    3.4650   -1.1460    1.1020 O   0  0  0  0  0  0  0  0  0  0  0  0
    3.2990   -0.3750    0.0330 C   0  0  0  0  0  0  0  0  0  0  0  0
    1.9700   -0.1690   -0.6050 C   0  0  0  0  0  0  0  0  0  0  0  0
    0.8980   -0.7770   -0.1180 C   0  0  0  0  0  0  0  0  0  0  0  0
   -0.4790   -0.7240   -0.5710 C   0  0  0  0  0  0  0  0  0  0  0  0
   -1.3740    0.2250   -0.4340 C   0  0  0  0  0  0  0  0  0  0  0  0
   -2.7480    0.0570   -0.9950 C   0  0  1  0  0  0  0  0  0  0  0  0
   -2.8360    0.7540   -2.2180 O   0  0  0  0  0  0  0  0  0  0  0  0
   -3.2640   -1.2940   -1.0700 C   0  0  0  0  0  0  0  0  0  0  0  0
   -4.4960   -1.5690   -1.4530 C   0  0  0  0  0  0  0  0  0  0  0  0
   -5.4050   -0.4860   -1.8220 C   0  0  0  0  0  0  0  0  0  0  0  0
   -6.7060   -0.6430   -1.5320 C   0  0  0  0  0  0  0  0  0  0  0  0
   -7.1110   -1.8920   -0.8680 C   0  0  0  0  0  0  0  0  0  0  0  0
   -6.4320   -3.1180   -1.3840 C   0  0  1  0  0  0  0  0  0  0  0  0
   -7.0310   -3.5230   -2.5750 O   0  0  0  0  0  0  0  0  0  0  0  0
   -4.9340   -2.9920   -1.5010 C   0  0  0  0  0  0  0  0  0  0  0  0
   -1.1700    1.4360    0.2080 O   0  0  0  0  0  0  0  0  0  0  0  0
   -0.3520    1.6700    1.3060 C   0  0  0  0  0  0  0  0  0  0  0  0
   -0.6650    2.9620    2.0310 C   0  0  2  0  0  0  0  0  0  0  0  0
   -2.0060    3.0290    2.3230 O   0  0  0  0  0  0  0  0  0  0  0  0
   -0.2920    4.0410    0.9920 C   0  0  0  0  0  0  0  0  0  0  0  0
   -0.8950    3.6650   -0.2170 O   0  0  0  0  0  0  0  0  0  0  0  0
   -0.3490    3.4250   -1.4310 C   0  0  0  0  0  0  0  0  0  0  0  0
   -1.0270    3.4860   -2.4910 O   0  0  0  0  0  0  0  0  0  0  0  0
    1.0830    3.0720   -1.6150 C   0  0  0  0  0  0  0  0  0  0  0  0
    1.1550    1.7560   -2.0830 O   0  0  0  0  0  0  0  0  0  0  0  0
    1.9650    0.7200   -1.7760 C   0  0  0  0  0  0  0  0  0  0  0  0
    2.8990    0.4330   -2.6300 O   0  0  0  0  0  0  0  0  0  0  0  0
    4.5220    0.1080   -0.2760 C   0  0  0  0  0  0  0  0  0  0  0  0
    5.4480   -0.3740    0.6170 C   0  0  0  0  0  0  0  0  0  0  0  0
    6.7970   -0.1730    0.7200 O   0  0  0  0  0  0  0  0  0  0  0  0
    7.5780    0.6170   -0.1170 C   0  0  0  0  0  0  0  0  0  0  0  0
  1  2  1  0
  2  3  1  0
  3  4  2  0
  3  5  1  0
  5  6  1  0
  5 35  2  0
  6  7  1  0
  7  8  1  0
  7 34  2  0
  8  9  2  0
  8 32  1  0
  9 10  1  0
 10 11  2  0
 11 12  1  0
 11 22  1  0
 12 13  1  6
 12 14  1  0
 14 15  2  3
 15 16  1  0
 15 21  1  0
 16 17  2  0
 17 18  1  0
 18 19  1  0
 19 20  1  6
 19 21  1  0
 22 23  1  0
 23 24  1  0
 24 25  1  6
 24 26  1  0
 26 27  1  0
 27 28  1  0
 28 29  2  0
 28 30  1  0
 30 31  1  0
 31 32  1  0
 32 33  2  0
 34 35  1  0
 35 36  1  0
 36 37  1  0
M  END
