
     RDKit          3D

 36 39  0  0  0  0  0  0  0  0999 V2000
    8.6910    0.4710    1.0260 C   0  0  0  0  0  0  0  0  0  0  0  0
    7.4220   -0.1620    1.1190 O   0  0  0  0  0  0  0  0  0  0  0  0
    6.6030   -0.3240    0.0300 C   0  0  0  0  0  0  0  0  0  0  0  0
    7.0070    0.1090   -1.0780 O   0  0  0  0  0  0  0  0  0  0  0  0
    5.2670   -0.9800    0.0700 C   0  0  0  0  0  0  0  0  0  0  0  0
    4.2300    0.0770   -0.0800 C   0  0  1  0  0  0  0  0  0  0  0  0
    4.4430    0.7720   -1.3990 C   0  0  0  0  0  0  0  0  0  0  0  0
    3.0740    1.3930   -1.5560 C   0  0  0  0  0  0  0  0  0  0  0  0
    2.7830    2.5190   -2.0060 O   0  0  0  0  0  0  0  0  0  0  0  0
    2.1970    0.3280   -1.0420 C   0  0  0  0  0  0  0  0  0  0  0  0
    2.8390   -0.4360   -0.1990 C   0  0  0  0  0  0  0  0  0  0  0  0
    2.1450   -1.5700    0.4340 C   0  0  2  0  0  0  0  0  0  0  0  0
    2.8260   -2.8910    0.1140 C   0  0  0  0  0  0  0  0  0  0  0  0
    0.7300   -1.7360    0.0640 C   0  0  0  0  0  0  0  0  0  0  0  0
   -0.0010   -2.8130    0.6690 O   0  0  0  0  0  0  0  0  0  0  0  0
    0.0810   -0.9760   -0.7760 C   0  0  0  0  0  0  0  0  0  0  0  0
   -1.3700   -1.2710   -1.0570 C   0  0  2  0  0  0  0  0  0  0  0  0
   -1.4300   -1.5290   -2.4540 O   0  0  0  0  0  0  0  0  0  0  0  0
   -2.1610   -0.1640   -0.8240 O   0  0  0  0  0  0  0  0  0  0  0  0
   -3.2220   -0.0650    0.0290 C   0  0  0  0  0  0  0  0  0  0  0  0
   -3.6200   -1.1240    0.7970 C   0  0  0  0  0  0  0  0  0  0  0  0
   -4.6980   -1.0320    1.6680 C   0  0  0  0  0  0  0  0  0  0  0  0
   -5.0880   -2.1170    2.4390 O   0  0  0  0  0  0  0  0  0  0  0  0
   -4.3880   -3.3610    2.3550 C   0  0  0  0  0  0  0  0  0  0  0  0
   -5.4210    0.1370    1.8010 C   0  0  0  0  0  0  0  0  0  0  0  0
   -6.5000    0.1830    2.6920 O   0  0  0  0  0  0  0  0  0  0  0  0
   -5.0330    1.2150    1.0340 C   0  0  0  0  0  0  0  0  0  0  0  0
   -5.7420    2.4180    1.1410 O   0  0  0  0  0  0  0  0  0  0  0  0
   -3.9590    1.1050    0.1730 C   0  0  0  0  0  0  0  0  0  0  0  0
   -3.5860    2.2830   -0.6250 C   0  0  2  0  0  0  0  0  0  0  0  0
   -3.5690    3.4570    0.1300 O   0  0  0  0  0  0  0  0  0  0  0  0
   -3.9190    4.4960   -0.7230 C   0  0  0  0  0  0  0  0  0  0  0  0
   -4.1480    3.8070   -2.0490 C   0  0  0  0  0  0  0  0  0  0  0  0
   -4.5350    2.5270   -1.6410 O   0  0  0  0  0  0  0  0  0  0  0  0
    0.7810    0.1290   -1.4000 C   0  0  0  0  0  0  0  0  0  0  0  0
    0.1510    0.8420   -2.1980 O   0  0  0  0  0  0  0  0  0  0  0  0
  1  2  1  0
  2  3  1  0
  3  4  2  0
  3  5  1  0
  6  5  1  6
  6  7  1  0
  6 11  1  0
  7  8  1  0
  8  9  2  0
  8 10  1  0
 10 11  2  0
 10 35  1  0
 11 12  1  0
 12 13  1  6
 12 14  1  0
 14 15  1  0
 14 16  2  0
 16 17  1  0
 16 35  1  0
 17 18  1  6
 17 19  1  0
 19 20  1  0
 20 21  2  0
 20 29  1  0
 21 22  1  0
 22 23  1  0
 22 25  2  0
 23 24  1  0
 25 26  1  0
 25 27  1  0
 27 28  1  0
 27 29  2  0
 30 29  1  1
 30 31  1  0
 30 34  1  0
 31 32  1  0
 32 33  1  0
 33 34  1  0
 35 36  2  0
M  END
