
     RDKit          3D

 45 48  0  0  0  0  0  0  0  0999 V2000
    7.1350    2.7700   -2.6760 C   0  0  0  0  0  0  0  0  0  0  0  0
    5.7320    3.0360   -2.3490 N   0  0  0  0  0  0  0  0  0  0  0  0
    5.6100    3.5000   -0.9680 C   0  0  0  0  0  0  0  0  0  0  0  0
    4.1390    3.7490   -0.7320 C   0  0  1  0  0  0  0  0  0  0  0  0
    3.3010    2.5170   -0.9940 C   0  0  0  0  0  0  0  0  0  0  0  0
    3.5690    1.5360   -0.0340 N   0  0  0  0  0  0  0  0  0  0  0  0
    2.6990    0.3930    0.0210 C   0  0  2  0  0  0  0  0  0  0  0  0
    1.3090    0.7770    0.3150 C   0  0  0  0  0  0  0  0  0  0  0  0
    0.3280   -0.2300    0.4680 N   0  0  0  0  0  0  0  0  0  0  0  0
    0.0550   -1.2750   -0.4320 C   0  0  0  0  0  0  0  0  0  0  0  0
    0.6820   -1.4370   -1.4560 O   0  0  0  0  0  0  0  0  0  0  0  0
   -1.0720   -2.2430   -0.0960 C   0  0  2  0  0  0  0  0  0  0  0  0
   -1.5320   -2.9870   -1.3240 C   0  0  0  0  0  0  0  0  0  0  0  0
   -2.6440   -3.9190   -0.8860 C   0  0  0  0  0  0  0  0  0  0  0  0
   -3.1800   -4.7160   -1.9970 C   0  0  0  0  0  0  0  0  0  0  0  0
   -2.7500   -4.5730   -3.1600 O   0  0  0  0  0  0  0  0  0  0  0  0
   -4.1740   -5.6360   -1.7500 O   0  0  0  0  0  0  0  0  0  0  0  0
   -4.7630   -6.4630   -2.7340 C   0  0  0  0  0  0  0  0  0  0  0  0
   -2.0130   -1.7310    0.6190 O   0  0  0  0  0  0  0  0  0  0  0  0
   -2.8650   -1.3580    1.5230 C   0  0  0  0  0  0  0  0  0  0  0  0
   -2.6340   -1.9190    2.6700 O   0  0  0  0  0  0  0  0  0  0  0  0
   -3.9830   -0.4300    1.3780 C   0  0  0  0  0  0  0  0  0  0  0  0
   -4.8430   -0.0530    2.3630 C   0  0  0  0  0  0  0  0  0  0  0  0
   -5.8880    0.8070    2.1970 C   0  0  0  0  0  0  0  0  0  0  0  0
   -6.1080    1.3530    0.9270 C   0  0  0  0  0  0  0  0  0  0  0  0
   -5.2500    0.9890   -0.0990 C   0  0  0  0  0  0  0  0  0  0  0  0
   -4.2050    0.1220    0.0960 C   0  0  0  0  0  0  0  0  0  0  0  0
   -3.3310   -0.2640   -0.8730 O   0  0  0  0  0  0  0  0  0  0  0  0
   -3.3840    0.1630   -2.2020 C   0  0  0  0  0  0  0  0  0  0  0  0
   -7.2350    2.3080    0.7090 C   0  0  0  0  0  0  0  0  0  0  0  0
   -7.4530    3.2140    1.8730 C   0  0  0  0  0  0  0  0  0  0  0  0
   -6.9600    2.7290    3.1910 C   0  0  0  0  0  0  0  0  0  0  0  0
   -6.8260    1.2220    3.3000 C   0  0  0  0  0  0  0  0  0  0  0  0
    3.2810   -0.6290    0.8910 C   0  0  0  0  0  0  0  0  0  0  0  0
    2.6180   -1.3450    2.3280 S   0  0  0  0  0  0  0  0  0  0  0  0
    3.9700   -2.4440    2.6860 C   0  0  0  0  0  0  0  0  0  0  0  0
    4.8590   -2.1680    1.6370 C   0  0  0  0  0  0  0  0  0  0  0  0
    4.5430   -1.2670    0.7270 C   0  0  0  0  0  0  0  0  0  0  0  0
    5.3490   -0.8850   -0.4240 C   0  0  0  0  0  0  0  0  0  0  0  0
    6.4930   -1.2280   -0.8640 C   0  0  0  0  0  0  0  0  0  0  0  0
    7.5870   -2.0790   -0.5830 C   0  0  0  0  0  0  0  0  0  0  0  0
    7.7620   -2.8580    0.3320 O   0  0  0  0  0  0  0  0  0  0  0  0
    4.0220    1.9010    1.2500 C   0  0  0  0  0  0  0  0  0  0  0  0
    4.4220    3.3140    1.4550 C   0  0  0  0  0  0  0  0  0  0  0  0
    3.8530    4.2020    0.5450 O   0  0  0  0  0  0  0  0  0  0  0  0
  1  2  1  0
  2  3  1  0
  4  3  1  1
  4  5  1  0
  4 45  1  0
  5  6  1  0
  6  7  1  0
  6 43  1  0
  7  8  1  1
  7 34  1  0
  8  9  1  0
  9 10  1  0
 10 11  2  0
 10 12  1  0
 12 13  1  6
 12 19  1  0
 13 14  1  0
 14 15  1  0
 15 16  2  0
 15 17  1  0
 17 18  1  0
 19 20  1  0
 20 21  2  0
 20 22  1  0
 22 23  2  0
 22 27  1  0
 23 24  1  0
 24 25  2  0
 24 33  1  0
 25 26  1  0
 25 30  1  0
 26 27  2  0
 27 28  1  0
 28 29  1  0
 30 31  1  0
 31 32  1  0
 32 33  1  0
 34 35  1  0
 34 38  2  0
 35 36  1  0
 36 37  2  0
 37 38  1  0
 38 39  1  0
 39 40  2  3
 40 41  1  0
 41 42  2  0
 43 44  1  0
 44 45  1  0
M  END
