
     RDKit          3D

 45 49  0  0  0  0  0  0  0  0999 V2000
    1.4080   -1.8780   -3.8230 C   0  0  0  0  0  0  0  0  0  0  0  0
    0.9600   -1.9950   -2.4120 C   0  0  0  0  0  0  0  0  0  0  0  0
    0.7050   -0.6820   -1.7150 C   0  0  0  0  0  0  0  0  0  0  0  0
   -0.5280   -0.2720   -1.4480 C   0  0  0  0  0  0  0  0  0  0  0  0
   -1.6480   -1.1310   -1.8600 C   0  0  0  0  0  0  0  0  0  0  0  0
   -1.4840   -1.7060   -2.9990 O   0  0  0  0  0  0  0  0  0  0  0  0
   -2.7920   -1.3680   -1.1880 O   0  0  0  0  0  0  0  0  0  0  0  0
   -3.9790   -0.6870   -1.0160 C   0  0  1  0  0  0  0  0  0  0  0  0
   -5.0560   -1.3750   -1.8280 C   0  0  0  0  0  0  0  0  0  0  0  0
   -5.9950   -0.7890   -2.6390 C   0  0  0  0  0  0  0  0  0  0  0  0
   -6.7470   -1.8250   -3.1580 C   0  0  0  0  0  0  0  0  0  0  0  0
   -6.2280   -2.9990   -2.6370 C   0  0  0  0  0  0  0  0  0  0  0  0
   -5.2100   -2.7050   -1.8390 N   0  0  0  0  0  0  0  0  0  0  0  0
   -4.4420   -0.8940    0.4090 C   0  0  0  0  0  0  0  0  0  0  0  0
   -3.8080   -1.8000    1.0540 O   0  0  0  0  0  0  0  0  0  0  0  0
   -5.4250   -0.1610    0.8640 O   0  0  0  0  0  0  0  0  0  0  0  0
   -5.7830    0.7870    1.7360 C   0  0  0  0  0  0  0  0  0  0  0  0
   -5.0270    1.6300    2.4410 C   0  0  0  0  0  0  0  0  0  0  0  0
   -3.5820    1.7060    2.4070 C   0  0  0  0  0  0  0  0  0  0  0  0
   -2.9020    1.6470    3.5250 C   0  0  0  0  0  0  0  0  0  0  0  0
   -3.5620    1.5040    4.8420 C   0  0  2  0  0  0  0  0  0  0  0  0
   -3.9130    2.7210    5.3860 F   0  0  0  0  0  0  0  0  0  0  0  0
   -2.7160    0.8900    5.7690 F   0  0  0  0  0  0  0  0  0  0  0  0
   -2.6490    1.9240    0.9010 S   0  0  0  0  0  0  0  0  0  0  0  0
   -1.3070    0.7430    0.6870 C   0  0  0  0  0  0  0  0  0  0  0  0
   -0.7440    0.9680   -0.7090 C   0  0  1  0  0  0  0  0  0  0  0  0
    0.4530    1.8120   -0.5040 C   0  0  0  0  0  0  0  0  0  0  0  0
    0.2650    3.0740   -0.0060 N   0  0  0  0  0  0  0  0  0  0  0  0
    1.2720    3.9180    0.2180 C   0  0  0  0  0  0  0  0  0  0  0  0
    1.0840    5.0690    0.6760 O   0  0  0  0  0  0  0  0  0  0  0  0
    2.5110    3.5200   -0.0550 N   0  0  0  0  0  0  0  0  0  0  0  0
    2.7420    2.2720   -0.5540 C   0  0  0  0  0  0  0  0  0  0  0  0
    3.9230    1.9530   -0.8050 O   0  0  0  0  0  0  0  0  0  0  0  0
    1.7200    1.3970   -0.7840 C   0  0  0  0  0  0  0  0  0  0  0  0
    1.8670    0.1390   -1.3850 N   0  0  0  0  0  0  0  0  0  0  0  0
    3.1530   -0.4620   -1.4480 C   0  0  0  0  0  0  0  0  0  0  0  0
    3.6710   -1.0130   -2.4310 O   0  0  0  0  0  0  0  0  0  0  0  0
    3.9310   -0.4410   -0.2200 N   0  0  0  0  0  0  0  0  0  0  0  0
    5.2590   -1.0270   -0.1680 C   0  0  2  0  0  0  0  0  0  0  0  0
    5.2880   -2.0330    0.9550 C   0  0  0  0  0  0  0  0  0  0  0  0
    6.1200   -1.4170    2.0610 C   0  0  0  0  0  0  0  0  0  0  0  0
    6.6020   -0.1440    1.5320 N   0  0  0  0  0  0  0  0  0  0  0  0
    7.3010    0.8260    2.3340 C   0  0  0  0  0  0  0  0  0  0  0  0
    6.2860   -0.0240    0.1720 C   0  0  0  0  0  0  0  0  0  0  0  0
    6.7860    0.7930   -0.6320 O   0  0  0  0  0  0  0  0  0  0  0  0
  1  2  1  0
  2  3  1  0
  3  4  2  0
  3 35  1  0
  4  5  1  0
  4 26  1  0
  5  6  2  0
  5  7  1  0
  7  8  1  0
  8  9  1  6
  8 14  1  0
  9 10  2  0
  9 13  1  0
 10 11  1  0
 11 12  2  0
 12 13  1  0
 14 15  2  0
 14 16  1  0
 16 17  1  0
 17 18  2  0
 18 19  1  0
 19 20  2  3
 19 24  1  0
 20 21  1  0
 21 22  1  1
 21 23  1  0
 24 25  1  0
 26 25  1  1
 26 27  1  0
 27 28  1  0
 27 34  2  0
 28 29  1  0
 29 30  2  0
 29 31  1  0
 31 32  1  0
 32 33  2  0
 32 34  1  0
 34 35  1  0
 35 36  1  0
 36 37  2  0
 36 38  1  0
 39 38  1  1
 39 40  1  0
 39 44  1  0
 40 41  1  0
 41 42  1  0
 42 43  1  0
 42 44  1  0
 44 45  2  0
M  END
