
     RDKit          3D

 44 48  0  0  0  0  0  0  0  0999 V2000
   -8.5840   -1.9020    0.6860 C   0  0  0  0  0  0  0  0  0  0  0  0
   -7.2640   -1.4980    0.7790 O   0  0  0  0  0  0  0  0  0  0  0  0
   -6.4670   -1.3830    1.8920 C   0  0  0  0  0  0  0  0  0  0  0  0
   -7.0010   -1.7100    3.1180 C   0  0  0  0  0  0  0  0  0  0  0  0
   -6.2540   -1.6220    4.2880 C   0  0  0  0  0  0  0  0  0  0  0  0
   -6.8390   -1.9660    5.5280 N   0  0  0  0  0  0  0  0  0  0  0  0
   -4.9490   -1.1900    4.1740 C   0  0  0  0  0  0  0  0  0  0  0  0
   -4.4030   -0.8550    2.9260 C   0  0  0  0  0  0  0  0  0  0  0  0
   -5.1400   -0.9420    1.7710 C   0  0  0  0  0  0  0  0  0  0  0  0
   -4.6900   -0.6190    0.4730 N   0  0  0  0  0  0  0  0  0  0  0  0
   -3.4240   -0.1600    0.0960 C   0  0  0  0  0  0  0  0  0  0  0  0
   -2.5320    0.0050    0.9410 O   0  0  0  0  0  0  0  0  0  0  0  0
   -3.1310    0.1380   -1.3290 C   0  0  2  0  0  0  0  0  0  0  0  0
   -1.8270    0.5980   -1.5600 O   0  0  0  0  0  0  0  0  0  0  0  0
   -0.9140    0.0030   -2.4020 C   0  0  0  0  0  0  0  0  0  0  0  0
   -1.2750   -1.0380   -3.0100 O   0  0  0  0  0  0  0  0  0  0  0  0
    0.4140    0.5300   -2.6040 N   0  0  0  0  0  0  0  0  0  0  0  0
    1.3300   -0.0840   -3.4860 C   0  0  0  0  0  0  0  0  0  0  0  0
    0.8920   -1.1190   -4.1000 O   0  0  0  0  0  0  0  0  0  0  0  0
    2.6840    0.3300   -3.7770 C   0  0  0  0  0  0  0  0  0  0  0  0
    3.0430    0.6390   -5.1050 C   0  0  0  0  0  0  0  0  0  0  0  0
    4.2500    1.1290   -5.4090 N   0  0  0  0  0  0  0  0  0  0  0  0
    5.1440    1.3380   -4.4610 N   0  0  0  0  0  0  0  0  0  0  0  0
    4.8890    1.0690   -3.1670 C   0  0  0  0  0  0  0  0  0  0  0  0
    3.6400    0.5550   -2.8220 C   0  0  0  0  0  0  0  0  0  0  0  0
    3.4190    0.2040   -1.4390 C   0  0  0  0  0  0  0  0  0  0  0  0
    2.3340   -0.2680   -1.0650 O   0  0  0  0  0  0  0  0  0  0  0  0
    4.4870    0.4060   -0.4870 N   0  0  0  0  0  0  0  0  0  0  0  0
    5.8250    0.4730   -1.0180 C   0  0  2  0  0  0  0  0  0  0  0  0
    7.0220    1.0920    0.1760 S   0  0  0  0  0  0  0  0  0  0  0  0
    7.1850   -0.0910    1.5150 C   0  0  1  0  0  0  0  0  0  0  0  0
    7.7960   -1.4030    1.0780 C   0  0  0  0  0  0  0  0  0  0  0  0
    9.2750   -1.1610    1.0750 C   0  0  0  0  0  0  0  0  0  0  0  0
    9.5150   -0.0670    2.1080 C   0  0  0  0  0  0  0  0  0  0  0  0
    8.1550    0.3810    2.5820 C   0  0  1  0  0  0  0  0  0  0  0  0
    8.0700    1.7710    2.6240 O   0  0  0  0  0  0  0  0  0  0  0  0
    5.8320    1.2900   -2.1790 O   0  0  0  0  0  0  0  0  0  0  0  0
   -4.0420    1.2050   -1.8460 C   0  0  0  0  0  0  0  0  0  0  0  0
   -4.3060    2.3510   -1.1300 C   0  0  0  0  0  0  0  0  0  0  0  0
   -5.1530    3.3060   -1.6550 C   0  0  0  0  0  0  0  0  0  0  0  0
   -5.7400    3.1280   -2.8900 C   0  0  0  0  0  0  0  0  0  0  0  0
   -5.4910    1.9870   -3.6260 C   0  0  0  0  0  0  0  0  0  0  0  0
   -4.6370    1.0510   -3.0710 C   0  0  0  0  0  0  0  0  0  0  0  0
   -4.4190   -0.0680   -3.8410 F   0  0  0  0  0  0  0  0  0  0  0  0
  1  2  1  0
  2  3  1  0
  3  4  2  0
  3  9  1  0
  4  5  1  0
  5  6  1  0
  5  7  2  0
  7  8  1  0
  8  9  2  0
  9 10  1  0
 10 11  1  0
 11 12  2  0
 11 13  1  0
 13 14  1  1
 13 38  1  0
 14 15  1  0
 15 16  2  0
 15 17  1  0
 17 18  1  0
 18 19  2  0
 18 20  1  0
 20 21  2  0
 20 25  1  0
 21 22  1  0
 22 23  2  0
 23 24  1  0
 24 25  2  0
 24 37  1  0
 25 26  1  0
 26 27  2  0
 26 28  1  0
 28 29  1  0
 29 30  1  1
 29 37  1  0
 31 30  1  6
 31 32  1  0
 31 35  1  0
 32 33  1  0
 33 34  1  0
 34 35  1  0
 35 36  1  6
 38 39  2  0
 38 43  1  0
 39 40  1  0
 40 41  2  0
 41 42  1  0
 42 43  2  0
 43 44  1  0
M  END
