
     RDKit          3D

 37 42  0  0  0  0  0  0  0  0999 V2000
  -11.1300    1.2450    1.1420 C   0  0  0  0  0  0  0  0  0  0  0  0
   -9.7390    0.9150    0.7690 C   0  0  0  0  0  0  0  0  0  0  0  0
   -8.7110    1.8310    0.8070 C   0  0  0  0  0  0  0  0  0  0  0  0
   -7.4130    1.4530    0.4410 C   0  0  0  0  0  0  0  0  0  0  0  0
   -7.1150    0.1670    0.0320 C   0  0  0  0  0  0  0  0  0  0  0  0
   -5.7830   -0.2600   -0.3540 C   0  0  0  0  0  0  0  0  0  0  0  0
   -4.7140    0.5040   -0.3650 C   0  0  0  0  0  0  0  0  0  0  0  0
   -3.3980    0.0190   -0.7640 C   0  0  0  0  0  0  0  0  0  0  0  0
   -2.4030    0.8260   -0.7480 O   0  0  0  0  0  0  0  0  0  0  0  0
   -3.0970   -1.2950   -1.1810 N   0  0  0  0  0  0  0  0  0  0  0  0
   -1.7870   -1.7430   -1.5520 C   0  0  0  0  0  0  0  0  0  0  0  0
   -1.6900   -3.0410   -1.9430 N   0  0  0  0  0  0  0  0  0  0  0  0
   -0.4980   -3.5180   -2.3040 C   0  0  0  0  0  0  0  0  0  0  0  0
    0.5820   -2.7230   -2.2780 N   0  0  0  0  0  0  0  0  0  0  0  0
    0.5300   -1.4110   -1.8910 C   0  0  0  0  0  0  0  0  0  0  0  0
    1.7030   -0.6370   -1.9220 N   0  0  0  0  0  0  0  0  0  0  0  0
    1.8590    0.7090   -1.5370 C   0  0  0  0  0  0  0  0  0  0  0  0
    2.0610    1.0150   -0.0910 C   0  0  1  0  0  0  0  0  0  0  0  0
    1.0010    0.6120    0.8540 C   0  0  0  0  0  0  0  0  0  0  0  0
    1.1710   -0.7240    1.5220 C   0  0  0  0  0  0  0  0  0  0  0  0
    2.4580   -0.6850    2.3160 C   0  0  0  0  0  0  0  0  0  0  0  0
    3.5850   -0.1630    1.4900 C   0  0  0  0  0  0  0  0  0  0  0  0
    4.8300   -0.5240    1.9200 N   0  0  0  0  0  0  0  0  0  0  0  0
    5.9490   -0.1480    1.3010 C   0  0  0  0  0  0  0  0  0  0  0  0
    7.1860   -0.5200    1.7480 N   0  0  0  0  0  0  0  0  0  0  0  0
    8.3140   -0.1460    1.1310 C   0  0  0  0  0  0  0  0  0  0  0  0
    8.2330    0.6390    0.0100 C   0  0  0  0  0  0  0  0  0  0  0  0
    6.9740    1.0320   -0.4650 C   0  0  0  0  0  0  0  0  0  0  0  0
    5.8250    0.6410    0.1780 C   0  0  0  0  0  0  0  0  0  0  0  0
    4.5760    1.0170   -0.2730 C   0  0  0  0  0  0  0  0  0  0  0  0
    3.4210    0.6180    0.3800 C   0  0  0  0  0  0  0  0  0  0  0  0
    9.4540    0.8880   -0.4340 C   0  0  0  0  0  0  0  0  0  0  0  0
   10.4400    0.2300    0.4410 C   0  0  0  0  0  0  0  0  0  0  0  0
    9.5690   -0.4260    1.4450 C   0  0  0  0  0  0  0  0  0  0  0  0
   -0.6940   -0.9920   -1.5400 N   0  0  0  0  0  0  0  0  0  0  0  0
   -8.1720   -0.7400    0.0020 C   0  0  0  0  0  0  0  0  0  0  0  0
   -9.4610   -0.3710    0.3650 C   0  0  0  0  0  0  0  0  0  0  0  0
  1  2  1  0
  2  3  2  0
  2 37  1  0
  3  4  1  0
  4  5  2  0
  5  6  1  0
  5 36  1  0
  6  7  2  3
  7  8  1  0
  8  9  2  0
  8 10  1  0
 10 11  1  0
 11 12  2  0
 11 35  1  0
 12 13  1  0
 13 14  2  0
 14 15  1  0
 15 16  1  0
 15 35  2  0
 16 17  1  0
 18 17  1  6
 18 19  1  0
 18 31  1  0
 19 20  1  0
 20 21  1  0
 21 22  1  0
 22 23  2  0
 22 31  1  0
 23 24  1  0
 24 25  2  0
 24 29  1  0
 25 26  1  0
 26 27  1  0
 26 34  2  0
 27 28  1  0
 27 32  2  0
 28 29  2  0
 29 30  1  0
 30 31  2  0
 32 33  1  0
 33 34  1  0
 36 37  2  0
M  END
