
     RDKit          3D

 37 42  0  0  0  0  0  0  0  0999 V2000
    2.5660   -1.4050   -1.4010 C   0  0  0  0  0  0  0  0  0  0  0  0
    3.5040   -0.9420   -0.3470 C   0  0  0  0  0  0  0  0  0  0  0  0
    4.7900   -1.3290   -0.4450 C   0  0  0  0  0  0  0  0  0  0  0  0
    5.7380   -0.9130    0.5410 N   0  0  0  0  0  0  0  0  0  0  0  0
    7.1070   -1.3420    0.4070 C   0  0  0  0  0  0  0  0  0  0  0  0
    7.8660   -1.0100    1.6540 C   0  0  0  0  0  0  0  0  0  0  0  0
    7.5820    0.3390    2.1250 N   0  0  0  0  0  0  0  0  0  0  0  0
    6.2380    0.3620    2.6490 C   0  0  0  0  0  0  0  0  0  0  0  0
    5.3260   -0.1130    1.5940 N   0  0  0  0  0  0  0  0  0  0  0  0
    4.0000    0.2590    1.6540 N   0  0  0  0  0  0  0  0  0  0  0  0
    3.1010   -0.1150    0.7500 C   0  0  0  0  0  0  0  0  0  0  0  0
    1.7790    0.3790    0.9950 C   0  0  0  0  0  0  0  0  0  0  0  0
    1.5700    1.1250    2.0480 O   0  0  0  0  0  0  0  0  0  0  0  0
    0.6140    0.1870    0.2610 N   0  0  0  0  0  0  0  0  0  0  0  0
   -0.6820    0.7570    0.6300 C   0  0  2  0  0  0  0  0  0  0  0  0
   -1.7120   -0.2730    0.8520 C   0  0  0  0  0  0  0  0  0  0  0  0
   -1.4530   -1.4120    1.5920 C   0  0  0  0  0  0  0  0  0  0  0  0
   -2.4320   -2.3690    1.7920 C   0  0  0  0  0  0  0  0  0  0  0  0
   -3.7000   -2.2380    1.2680 C   0  0  0  0  0  0  0  0  0  0  0  0
   -4.7390   -3.2490    1.4790 C   0  0  0  0  0  0  0  0  0  0  0  0
   -4.6340   -4.3760    2.1630 C   0  0  0  0  0  0  0  0  0  0  0  0
   -5.8990   -5.1120    2.1350 C   0  0  0  0  0  0  0  0  0  0  0  0
   -6.7790   -4.2440    1.3230 C   0  0  0  0  0  0  0  0  0  0  0  0
   -6.0880   -3.1890    0.9640 C   0  0  0  0  0  0  0  0  0  0  0  0
   -3.9590   -1.1030    0.5300 C   0  0  0  0  0  0  0  0  0  0  0  0
   -2.9830   -0.1450    0.3290 C   0  0  0  0  0  0  0  0  0  0  0  0
   -1.1500    1.7320   -0.3760 C   0  0  0  0  0  0  0  0  0  0  0  0
   -1.0630    1.4350   -1.7190 C   0  0  0  0  0  0  0  0  0  0  0  0
   -1.4870    2.3180   -2.6980 C   0  0  0  0  0  0  0  0  0  0  0  0
   -2.0210    3.5450   -2.3630 C   0  0  0  0  0  0  0  0  0  0  0  0
   -2.4610    4.4620   -3.3770 N   0  0  0  0  0  0  0  0  0  0  0  0
   -3.0580    5.6470   -3.1640 C   0  0  0  0  0  0  0  0  0  0  0  0
   -3.3260    6.2280   -4.3750 C   0  0  0  0  0  0  0  0  0  0  0  0
   -2.8900    5.3910   -5.3350 N   0  0  0  0  0  0  0  0  0  0  0  0
   -2.3610    4.3110   -4.7060 C   0  0  0  0  0  0  0  0  0  0  0  0
   -2.1120    3.8520   -1.0280 C   0  0  0  0  0  0  0  0  0  0  0  0
   -1.6870    2.9660   -0.0670 C   0  0  0  0  0  0  0  0  0  0  0  0
  1  2  1  0
  2  3  2  0
  2 11  1  0
  3  4  1  0
  4  5  1  0
  4  9  1  0
  5  6  1  0
  6  7  1  0
  7  8  1  0
  8  9  1  0
  9 10  1  0
 10 11  2  0
 11 12  1  0
 12 13  2  0
 12 14  1  0
 15 14  1  6
 15 16  1  0
 15 27  1  0
 16 17  2  0
 16 26  1  0
 17 18  1  0
 18 19  2  0
 19 20  1  0
 19 25  1  0
 20 21  2  0
 20 24  1  0
 21 22  1  0
 22 23  1  0
 23 24  2  0
 25 26  2  0
 27 28  2  0
 27 37  1  0
 28 29  1  0
 29 30  2  0
 30 31  1  0
 30 36  1  0
 31 32  1  0
 31 35  1  0
 32 33  2  0
 33 34  1  0
 34 35  2  0
 36 37  2  0
M  END
