
     RDKit          3D

 37 42  0  0  0  0  0  0  0  0999 V2000
   -8.2640    2.9030    0.7050 C   0  0  0  0  0  0  0  0  0  0  0  0
   -6.8500    2.9480    1.1450 C   0  0  0  0  0  0  0  0  0  0  0  0
   -5.9080    1.9890    0.5650 C   0  0  0  0  0  0  0  0  0  0  0  0
   -6.0190    0.5320    0.7760 C   0  0  1  0  0  0  0  0  0  0  0  0
   -7.2630   -0.0890    0.2690 C   0  0  0  0  0  0  0  0  0  0  0  0
   -7.6590   -1.3190    1.1020 C   0  0  0  0  0  0  0  0  0  0  0  0
   -6.4910   -2.2270    1.3380 C   0  0  0  0  0  0  0  0  0  0  0  0
   -5.7930   -2.5680    0.0360 C   0  0  0  0  0  0  0  0  0  0  0  0
   -4.8180   -1.4700   -0.2660 C   0  0  0  0  0  0  0  0  0  0  0  0
   -3.6460   -1.6760   -0.9390 N   0  0  0  0  0  0  0  0  0  0  0  0
   -3.0270   -0.4890   -1.0260 C   0  0  0  0  0  0  0  0  0  0  0  0
   -1.8930   -0.1940   -1.5910 N   0  0  0  0  0  0  0  0  0  0  0  0
   -1.0900   -1.1480   -2.2440 C   0  0  0  0  0  0  0  0  0  0  0  0
   -1.5970   -1.8750   -3.1350 O   0  0  0  0  0  0  0  0  0  0  0  0
    0.2970   -1.2960   -1.9010 C   0  0  0  0  0  0  0  0  0  0  0  0
    1.0450   -2.2470   -2.6060 C   0  0  0  0  0  0  0  0  0  0  0  0
    2.3790   -2.4450   -2.3440 C   0  0  0  0  0  0  0  0  0  0  0  0
    2.9940   -1.6740   -1.3480 C   0  0  0  0  0  0  0  0  0  0  0  0
    2.3050   -0.7370   -0.6380 C   0  0  0  0  0  0  0  0  0  0  0  0
    2.9410    0.0520    0.3480 N   0  0  0  0  0  0  0  0  0  0  0  0
    4.3010    0.2930    0.5190 C   0  0  0  0  0  0  0  0  0  0  0  0
    5.2260   -0.1890   -0.3160 N   0  0  0  0  0  0  0  0  0  0  0  0
    6.5510    0.0350   -0.2130 C   0  0  0  0  0  0  0  0  0  0  0  0
    7.4690   -0.4710   -1.0930 C   0  0  0  0  0  0  0  0  0  0  0  0
    8.8200   -0.2080   -0.9490 C   0  0  0  0  0  0  0  0  0  0  0  0
    9.2290    0.5720    0.0940 C   0  0  0  0  0  0  0  0  0  0  0  0
    8.3110    1.0620    0.9510 N   0  0  0  0  0  0  0  0  0  0  0  0
    6.9840    0.8250    0.8400 C   0  0  0  0  0  0  0  0  0  0  0  0
    6.0890    1.3550    1.7400 C   0  0  0  0  0  0  0  0  0  0  0  0
    4.7460    1.0760    1.5600 C   0  0  0  0  0  0  0  0  0  0  0  0
    3.7640    1.6570    2.5480 C   0  0  0  0  0  0  0  0  0  0  0  0
   10.5430    0.7440    0.1130 C   0  0  0  0  0  0  0  0  0  0  0  0
   11.0830    0.0030   -1.0380 C   0  0  0  0  0  0  0  0  0  0  0  0
    9.8880   -0.5850   -1.6700 C   0  0  0  0  0  0  0  0  0  0  0  0
    0.9460   -0.5630   -0.9320 C   0  0  0  0  0  0  0  0  0  0  0  0
   -3.8270    0.4100   -0.4100 N   0  0  0  0  0  0  0  0  0  0  0  0
   -4.9120   -0.1700    0.0530 N   0  0  0  0  0  0  0  0  0  0  0  0
  1  2  1  0
  2  3  1  0
  4  3  1  6
  4  5  1  0
  4 37  1  0
  5  6  1  0
  6  7  1  0
  7  8  1  0
  8  9  1  0
  9 10  2  0
  9 37  1  0
 10 11  1  0
 11 12  2  3
 11 36  1  0
 12 13  1  0
 13 14  2  0
 13 15  1  0
 15 16  2  0
 15 35  1  0
 16 17  1  0
 17 18  2  0
 18 19  1  0
 19 20  1  0
 19 35  2  0
 20 21  1  0
 21 22  2  0
 21 30  1  0
 22 23  1  0
 23 24  2  0
 23 28  1  0
 24 25  1  0
 25 26  1  0
 25 34  2  0
 26 27  1  0
 26 32  2  0
 27 28  2  0
 28 29  1  0
 29 30  2  0
 30 31  1  0
 32 33  1  0
 33 34  1  0
 36 37  1  0
M  END
