
     RDKit          3D

 33 36  0  0  0  0  0  0  0  0999 V2000
   -5.6560    0.7210    1.2230 C   0  0  0  0  0  0  0  0  0  0  0  0
   -4.3550    0.2730    1.4180 O   0  0  0  0  0  0  0  0  0  0  0  0
   -3.7030   -0.7260    0.7170 C   0  0  0  0  0  0  0  0  0  0  0  0
   -4.4550   -1.3370   -0.2940 C   0  0  0  0  0  0  0  0  0  0  0  0
   -3.8480   -2.3450   -1.0250 C   0  0  0  0  0  0  0  0  0  0  0  0
   -2.5630   -2.7190   -0.7580 C   0  0  0  0  0  0  0  0  0  0  0  0
   -1.9990   -3.7480   -1.5680 N   0  0  0  0  0  0  0  0  0  0  0  0
   -0.8040   -4.1190   -1.3930 O   0  0  0  0  0  0  0  0  0  0  0  0
   -2.7240   -4.3740   -2.5650 O   0  0  0  0  0  0  0  0  0  0  0  0
   -1.8400   -2.1040    0.2420 C   0  0  0  0  0  0  0  0  0  0  0  0
   -2.4170   -1.0980    0.9850 C   0  0  0  0  0  0  0  0  0  0  0  0
   -1.6140   -0.4200    2.0390 C   0  0  0  0  0  0  0  0  0  0  0  0
   -1.1000    0.8480    1.5580 N   0  0  0  0  0  0  0  0  0  0  0  0
   -1.7110    2.0370    1.6190 C   0  0  0  0  0  0  0  0  0  0  0  0
   -0.8750    2.9800    1.0100 C   0  0  0  0  0  0  0  0  0  0  0  0
   -1.1530    4.4090    0.8480 C   0  0  0  0  0  0  0  0  0  0  0  0
   -1.6080    4.7660   -0.5260 C   0  0  0  0  0  0  0  0  0  0  0  0
   -2.2740    5.7990   -0.6920 O   0  0  0  0  0  0  0  0  0  0  0  0
   -1.2730    3.9240   -1.5850 O   0  0  0  0  0  0  0  0  0  0  0  0
    0.2500    2.3020    0.5870 C   0  0  0  0  0  0  0  0  0  0  0  0
    1.3790    2.7440   -0.0650 C   0  0  0  0  0  0  0  0  0  0  0  0
    2.3540    1.8260   -0.3600 C   0  0  0  0  0  0  0  0  0  0  0  0
    2.2450    0.4910   -0.0300 C   0  0  0  0  0  0  0  0  0  0  0  0
    3.2710   -0.4730   -0.3540 C   0  0  0  0  0  0  0  0  0  0  0  0
    4.0440   -0.3850   -1.4870 C   0  0  0  0  0  0  0  0  0  0  0  0
    5.0520   -1.2560   -1.8240 C   0  0  0  0  0  0  0  0  0  0  0  0
    5.8010   -1.0860   -3.0340 N   0  0  0  0  0  0  0  0  0  0  0  0
    5.3100   -2.3010   -0.9610 C   0  0  0  0  0  0  0  0  0  0  0  0
    4.5740   -2.4520    0.1920 C   0  0  0  0  0  0  0  0  0  0  0  0
    4.8670   -3.5200    1.0690 N   0  0  0  0  0  0  0  0  0  0  0  0
    3.5550   -1.5430    0.5010 C   0  0  0  0  0  0  0  0  0  0  0  0
    1.1060    0.0740    0.6210 C   0  0  0  0  0  0  0  0  0  0  0  0
    0.0870    0.9620    0.9430 C   0  0  0  0  0  0  0  0  0  0  0  0
  1  2  1  0
  2  3  1  0
  3  4  2  0
  3 11  1  0
  4  5  1  0
  5  6  2  0
  6  7  1  0
  6 10  1  0
  7  8  2  0
  7  9  1  0
 10 11  2  0
 11 12  1  0
 12 13  1  0
 13 14  1  0
 13 33  1  0
 14 15  2  0
 15 16  1  0
 15 20  1  0
 16 17  1  0
 17 18  2  0
 17 19  1  0
 20 21  2  0
 20 33  1  0
 21 22  1  0
 22 23  2  0
 23 24  1  0
 23 32  1  0
 24 25  2  0
 24 31  1  0
 25 26  1  0
 26 27  1  0
 26 28  2  0
 28 29  1  0
 29 30  1  0
 29 31  2  0
 32 33  2  0
M  CHG  2   7   1   9  -1
M  END
