
     RDKit          3D

 32 36  0  0  0  0  0  0  0  0999 V2000
   -5.7980    1.5740   -2.6820 C   0  0  0  0  0  0  0  0  0  0  0  0
   -4.5300    1.4840   -1.8920 C   0  0  0  0  0  0  0  0  0  0  0  0
   -4.3540    0.8180   -0.8050 C   0  0  0  0  0  0  0  0  0  0  0  0
   -5.4170    0.0360   -0.1830 C   0  0  0  0  0  0  0  0  0  0  0  0
   -6.6100    0.2770    0.3090 C   0  0  0  0  0  0  0  0  0  0  0  0
   -6.4750    0.0900    1.8360 C   0  0  0  0  0  0  0  0  0  0  0  0
   -4.9780    0.2460    2.0950 C   0  0  0  0  0  0  0  0  0  0  0  0
   -3.9370   -0.3790    1.2220 C   0  0  2  0  0  0  0  0  0  0  0  0
   -3.2580    0.6330    0.2370 C   0  0  1  0  0  0  0  0  0  0  0  0
   -1.9920    0.3410   -0.1960 N   0  0  0  0  0  0  0  0  0  0  0  0
   -0.9020    1.2280    0.1210 C   0  0  0  0  0  0  0  0  0  0  0  0
   -1.2040    2.2470    0.8000 O   0  0  0  0  0  0  0  0  0  0  0  0
    0.4720    0.9840   -0.3050 C   0  0  0  0  0  0  0  0  0  0  0  0
    1.4340    1.8960    0.1080 C   0  0  0  0  0  0  0  0  0  0  0  0
    2.7610    1.7770   -0.2270 C   0  0  0  0  0  0  0  0  0  0  0  0
    3.1840    0.7310   -0.9980 C   0  0  0  0  0  0  0  0  0  0  0  0
    4.5730    0.5620   -1.3740 C   0  0  1  0  0  0  0  0  0  0  0  0
    5.3250    1.8080   -1.5600 C   0  0  0  0  0  0  0  0  0  0  0  0
    4.9490    2.8160   -2.1830 O   0  0  0  0  0  0  0  0  0  0  0  0
    6.5960    1.6530   -0.8820 C   0  0  0  0  0  0  0  0  0  0  0  0
    6.6950    0.4660   -0.3400 C   0  0  0  0  0  0  0  0  0  0  0  0
    7.5230   -0.4580    0.4450 C   0  0  0  0  0  0  0  0  0  0  0  0
    6.5170   -1.2010    1.2930 C   0  0  0  0  0  0  0  0  0  0  0  0
    5.1190   -0.8080    0.7370 C   0  0  1  0  0  0  0  0  0  0  0  0
    4.3450   -2.1020    0.6380 C   0  0  0  0  0  0  0  0  0  0  0  0
    4.5580    0.1460    1.7170 C   0  0  0  0  0  0  0  0  0  0  0  0
    5.4360   -0.3340   -0.6190 C   0  0  1  0  0  0  0  0  0  0  0  0
    2.2420   -0.1810   -1.4150 C   0  0  0  0  0  0  0  0  0  0  0  0
    0.8920   -0.0550   -1.0710 C   0  0  0  0  0  0  0  0  0  0  0  0
   -4.7260   -1.2270    0.1650 C   0  0  2  0  0  0  0  0  0  0  0  0
   -3.8920   -1.7700   -0.9160 C   0  0  0  0  0  0  0  0  0  0  0  0
   -5.5310   -2.2850    0.8230 C   0  0  0  0  0  0  0  0  0  0  0  0
  1  2  1  0
  2  3  2  3
  3  4  1  0
  3  9  1  0
  4  5  2  0
  4 30  1  0
  5  6  1  0
  6  7  1  0
  8  7  1  1
  8  9  1  0
  8 30  1  0
  9 10  1  6
 10 11  1  0
 11 12  2  0
 11 13  1  0
 13 14  2  0
 13 29  1  0
 14 15  1  0
 15 16  2  0
 17 16  1  1
 16 28  1  0
 17 18  1  0
 17 27  1  0
 18 19  2  0
 18 20  1  0
 20 21  2  0
 21 22  1  0
 27 21  1  1
 22 23  1  0
 23 24  1  0
 24 25  1  6
 24 26  1  0
 24 27  1  0
 28 29  2  0
 30 31  1  6
 30 32  1  0
M  END
