
     RDKit          3D

 32 33  0  0  0  0  0  0  0  0999 V2000
    6.5130   -2.3960   -3.9040 C   0  0  0  0  0  0  0  0  0  0  0  0
    5.7070   -1.7200   -3.0280 C   0  0  0  0  0  0  0  0  0  0  0  0
    5.5010   -0.3310   -3.3490 C   0  0  0  0  0  0  0  0  0  0  0  0
    6.0150    0.2710   -4.3690 N   0  0  0  0  0  0  0  0  0  0  0  0
    5.1980   -2.4870   -1.9410 C   0  0  0  0  0  0  0  0  0  0  0  0
    4.4470   -2.3330   -0.9110 C   0  0  0  0  0  0  0  0  0  0  0  0
    3.7660   -1.1100   -0.4590 C   0  0  0  0  0  0  0  0  0  0  0  0
    2.3770   -1.3850   -0.4460 O   0  0  0  0  0  0  0  0  0  0  0  0
    1.4570   -0.3930   -0.1020 C   0  0  0  0  0  0  0  0  0  0  0  0
    1.8190    0.7360    0.1900 O   0  0  0  0  0  0  0  0  0  0  0  0
    0.1190   -0.6650   -0.0840 N   0  0  0  0  0  0  0  0  0  0  0  0
   -1.1340   -0.0930    0.1170 C   0  0  0  0  0  0  0  0  0  0  0  0
   -1.9270   -1.0770   -0.1090 O   0  0  0  0  0  0  0  0  0  0  0  0
   -1.6570    1.0950    0.4490 N   0  0  0  0  0  0  0  0  0  0  0  0
   -2.8570    1.7280    0.5250 C   0  0  0  0  0  0  0  0  0  0  0  0
   -4.0860    1.5050    0.2470 C   0  0  0  0  0  0  0  0  0  0  0  0
   -4.3900    0.1870   -0.4000 C   0  0  0  0  0  0  0  0  0  0  0  0
   -3.5190   -0.2560   -1.1820 O   0  0  0  0  0  0  0  0  0  0  0  0
   -5.5780   -0.5180   -0.1810 N   0  0  0  0  0  0  0  0  0  0  0  0
   -6.5600    0.0780    0.6970 C   0  0  0  0  0  0  0  0  0  0  0  0
   -7.6340   -0.4940    0.9490 O   0  0  0  0  0  0  0  0  0  0  0  0
   -6.2340    1.3290    1.2460 N   0  0  0  0  0  0  0  0  0  0  0  0
   -5.2640    2.2680    0.6280 C   0  0  1  0  0  0  0  0  0  0  0  0
   -5.1800    3.3500    1.5080 N   0  0  0  0  0  0  0  0  0  0  0  0
   -4.0300    3.6030    2.2680 C   0  0  1  0  0  0  0  0  0  0  0  0
   -3.7860    2.5920    3.3010 C   0  0  0  0  0  0  0  0  0  0  0  0
   -2.6320    2.7320    4.1800 N   0  0  0  0  0  0  0  0  0  0  0  0
   -4.4560    1.6120    3.5230 O   0  0  0  0  0  0  0  0  0  0  0  0
   -2.6390    3.4940    1.0910 S   0  0  0  0  0  0  0  0  0  0  0  0
    4.1910   -3.5080   -0.0130 C   0  0  0  0  0  0  0  0  0  0  0  0
    4.7960   -4.7270   -0.3530 N   0  0  0  0  0  0  0  0  0  0  0  0
    3.4710   -3.3620    0.9720 O   0  0  0  0  0  0  0  0  0  0  0  0
  1  2  2  0
  2  3  1  0
  2  5  1  0
  3  4  2  0
  5  6  2  3
  6  7  1  0
  6 30  1  0
  7  8  1  0
  8  9  1  0
  9 10  2  0
  9 11  1  0
 11 12  1  0
 12 13  2  0
 12 14  1  0
 14 15  1  0
 15 16  2  0
 15 29  1  0
 16 17  1  0
 16 23  1  0
 17 18  2  0
 17 19  1  0
 19 20  1  0
 20 21  2  0
 20 22  1  0
 23 22  1  1
 23 24  1  0
 24 25  1  0
 25 26  1  1
 25 29  1  0
 26 27  1  0
 26 28  2  0
 30 31  1  0
 30 32  2  0
M  CHG  2   4   1  27   1
M  END
