
     RDKit          3D

 32 36  0  0  0  0  0  0  0  0999 V2000
   -0.7680    4.0710   -3.0710 C   0  0  0  0  0  0  0  0  0  0  0  0
    0.2420    3.7170   -2.0640 C   0  0  0  0  0  0  0  0  0  0  0  0
    1.2650    4.6510   -1.8500 C   0  0  0  0  0  0  0  0  0  0  0  0
    2.1470    4.3630   -0.8220 C   0  0  0  0  0  0  0  0  0  0  0  0
    2.0050    3.1770   -0.0380 C   0  0  0  0  0  0  0  0  0  0  0  0
    0.9990    2.3090   -0.3020 C   0  0  0  0  0  0  0  0  0  0  0  0
    0.1040    2.5960   -1.3470 C   0  0  0  0  0  0  0  0  0  0  0  0
   -0.8010    1.4520   -1.5860 C   0  0  0  0  0  0  0  0  0  0  0  0
   -0.6650    0.5770   -0.2820 C   0  0  2  0  0  0  0  0  0  0  0  0
   -1.9650    0.9530    0.4560 C   0  0  0  0  0  0  0  0  0  0  0  0
   -2.0240    2.0160    1.0730 O   0  0  0  0  0  0  0  0  0  0  0  0
   -3.0470    0.0670    0.3890 N   0  0  0  0  0  0  0  0  0  0  0  0
   -4.3660    0.4630    0.8530 C   0  0  0  0  0  0  0  0  0  0  0  0
   -4.9700   -0.8450    1.2610 C   0  0  1  0  0  0  0  0  0  0  0  0
   -6.4410   -0.7780    1.5180 C   0  0  0  0  0  0  0  0  0  0  0  0
   -4.5300   -1.7430    0.1400 C   0  0  2  0  0  0  0  0  0  0  0  0
   -5.2050   -1.5030   -1.1750 C   0  0  0  0  0  0  0  0  0  0  0  0
   -4.6410   -3.2060    0.5410 C   0  0  0  0  0  0  0  0  0  0  0  0
   -3.0800   -1.2980   -0.0190 C   0  0  0  0  0  0  0  0  0  0  0  0
    0.5290    1.0370    0.3760 C   0  0  1  0  0  0  0  0  0  0  0  0
    1.6170    0.0320    0.4950 C   0  0  1  0  0  0  0  0  0  0  0  0
    2.2970   -0.3710   -0.7750 C   0  0  0  0  0  0  0  0  0  0  0  0
    3.0850   -1.6570   -0.4720 C   0  0  0  0  0  0  0  0  0  0  0  0
    4.1360   -1.3430    0.5100 C   0  0  0  0  0  0  0  0  0  0  0  0
    5.3670   -2.0020    0.5810 C   0  0  0  0  0  0  0  0  0  0  0  0
    5.5920   -3.0920   -0.4010 C   0  0  0  0  0  0  0  0  0  0  0  0
    5.8380   -4.2720    0.3750 O   0  0  0  0  0  0  0  0  0  0  0  0
    6.3160   -1.6190    1.4570 C   0  0  0  0  0  0  0  0  0  0  0  0
    6.0940   -0.5860    2.2970 C   0  0  0  0  0  0  0  0  0  0  0  0
    4.9120    0.0830    2.2700 C   0  0  0  0  0  0  0  0  0  0  0  0
    3.9440   -0.3110    1.3750 C   0  0  0  0  0  0  0  0  0  0  0  0
    2.5760    0.2710    1.6040 C   0  0  0  0  0  0  0  0  0  0  0  0
  1  2  1  0
  2  3  2  0
  2  7  1  0
  3  4  1  0
  4  5  2  0
  5  6  1  0
  6  7  2  0
 20  6  1  6
  7  8  1  0
  8  9  1  0
  9 10  1  1
  9 20  1  0
 10 11  2  0
 10 12  1  0
 12 13  1  0
 12 19  1  0
 13 14  1  0
 14 15  1  6
 14 16  1  0
 16 17  1  6
 16 18  1  0
 16 19  1  0
 20 21  1  0
 21 22  1  6
 21 32  1  0
 22 23  1  0
 23 24  1  0
 24 25  2  0
 24 31  1  0
 25 26  1  0
 25 28  1  0
 26 27  1  0
 28 29  2  0
 29 30  1  0
 30 31  2  0
 31 32  1  0
M  END
