
     RDKit          3D

 32 35  0  0  0  0  0  0  0  0999 V2000
   -2.4530    3.5990   -1.2530 C   0  0  0  0  0  0  0  0  0  0  0  0
   -2.0510    2.1450   -0.8910 C   0  0  2  0  0  0  0  0  0  0  0  0
   -2.6990    1.9650    0.4870 C   0  0  0  0  0  0  0  0  0  0  0  0
   -4.1650    1.9000    0.4170 C   0  0  0  0  0  0  0  0  0  0  0  0
   -4.9750    0.9330    0.7020 C   0  0  0  0  0  0  0  0  0  0  0  0
   -4.6500   -0.4380    1.1960 C   0  0  1  0  0  0  0  0  0  0  0  0
   -5.8210   -1.3790    1.0820 C   0  0  0  0  0  0  0  0  0  0  0  0
   -3.4540   -1.1230    0.5660 C   0  0  0  0  0  0  0  0  0  0  0  0
   -3.2120   -1.0340   -0.7830 C   0  0  0  0  0  0  0  0  0  0  0  0
   -2.0580   -1.5970   -1.3690 C   0  0  0  0  0  0  0  0  0  0  0  0
   -1.0880   -2.2780   -0.6540 C   0  0  0  0  0  0  0  0  0  0  0  0
   -1.3570   -2.3610    0.6940 C   0  0  0  0  0  0  0  0  0  0  0  0
   -2.5110   -1.8000    1.3010 C   0  0  0  0  0  0  0  0  0  0  0  0
    0.1730   -2.7980   -1.3110 C   0  0  0  0  0  0  0  0  0  0  0  0
    1.2920   -2.0440   -1.3090 C   0  0  0  0  0  0  0  0  0  0  0  0
    2.6040   -2.4250   -1.9280 C   0  0  0  0  0  0  0  0  0  0  0  0
    3.1120   -3.5440   -2.0790 O   0  0  0  0  0  0  0  0  0  0  0  0
    3.2600   -1.1530   -2.3690 C   0  0  0  0  0  0  0  0  0  0  0  0
    2.7850   -0.2120   -1.3250 C   0  0  2  0  0  0  0  0  0  0  0  0
    3.8610    0.1500   -0.3630 C   0  0  0  0  0  0  0  0  0  0  0  0
    4.0760    1.4530    0.0640 C   0  0  0  0  0  0  0  0  0  0  0  0
    5.0660    1.8150    0.9330 C   0  0  0  0  0  0  0  0  0  0  0  0
    5.9110    0.8550    1.4270 C   0  0  0  0  0  0  0  0  0  0  0  0
    6.9670    1.2100    2.3470 C   0  0  0  0  0  0  0  0  0  0  0  0
    7.8250    1.4940    3.0830 N   0  0  0  0  0  0  0  0  0  0  0  0
    5.7460   -0.4610    1.0370 C   0  0  0  0  0  0  0  0  0  0  0  0
    4.7330   -0.8000    0.1540 C   0  0  0  0  0  0  0  0  0  0  0  0
    1.5410   -0.7750   -0.6670 C   0  0  2  0  0  0  0  0  0  0  0  0
    2.0470   -1.0570    0.8080 C   0  0  0  0  0  0  0  0  0  0  0  0
    0.5900    0.2910   -0.4750 C   0  0  0  0  0  0  0  0  0  0  0  0
   -0.0350    1.0930   -1.5370 C   0  0  0  0  0  0  0  0  0  0  0  0
   -0.6940    2.1460   -0.8700 O   0  0  0  0  0  0  0  0  0  0  0  0
  2  1  1  1
  2  3  1  0
  2 32  1  0
  3  4  1  0
  4  5  2  0
  5  6  1  0
  6  7  1  6
  6  8  1  0
  8  9  2  0
  8 13  1  0
  9 10  1  0
 10 11  2  0
 11 12  1  0
 11 14  1  0
 12 13  2  0
 14 15  2  0
 15 16  1  0
 15 28  1  0
 16 17  2  0
 16 18  1  0
 18 19  1  0
 19 20  1  1
 19 28  1  0
 20 21  2  0
 20 27  1  0
 21 22  1  0
 22 23  2  0
 23 24  1  0
 23 26  1  0
 24 25  3  0
 26 27  2  0
 28 29  1  1
 28 30  1  0
 30 31  1  0
 31 32  1  0
M  END
