
     RDKit          3D

 22 22  0  0  0  0  0  0  0  0999 V2000
   -4.1620   -4.1350    1.5690 O   0  0  0  0  0  0  0  0  0  0  0  0
   -2.9450   -4.4200    1.5110 C   0  0  0  0  0  0  0  0  0  0  0  0
   -2.0250   -3.3460    1.1830 N   0  0  0  0  0  0  0  0  0  0  0  0
   -2.4920   -2.0470    0.9420 C   0  0  0  0  0  0  0  0  0  0  0  0
   -3.7550   -1.8660    1.0280 O   0  0  0  0  0  0  0  0  0  0  0  0
   -1.6310   -0.9790    0.6200 N   0  0  0  0  0  0  0  0  0  0  0  0
   -0.2360   -1.0490    0.4630 C   0  0  0  0  0  0  0  0  0  0  0  0
    0.3850   -2.1110    0.6460 O   0  0  0  0  0  0  0  0  0  0  0  0
    0.5810    0.1420    0.0690 C   0  0  0  0  0  0  0  0  0  0  0  0
    2.0210   -0.2650   -0.1810 C   0  0  0  0  0  0  0  0  0  0  0  0
    2.8660    0.9050   -0.5780 C   0  0  0  0  0  0  0  0  0  0  0  0
    4.1720    0.4730   -0.7930 O   0  0  0  0  0  0  0  0  0  0  0  0
    4.9560    1.5100   -1.1530 O   0  0  0  0  0  0  0  0  0  0  0  0
    6.3170    1.4040   -1.2170 C   0  0  0  0  0  0  0  0  0  0  0  0
    6.8230    0.2710   -0.9200 O   0  0  0  0  0  0  0  0  0  0  0  0
    7.1840    2.4190   -1.5760 O   0  0  0  0  0  0  0  0  0  0  0  0
   -2.2860    0.3130    0.4010 C   0  0  0  0  0  0  0  0  0  0  0  0
   -3.1420    0.4500   -0.5940 C   0  0  0  0  0  0  0  0  0  0  0  0
   -3.8720    1.6940   -0.9270 C   0  0  0  0  0  0  0  0  0  0  0  0
   -3.5740    2.7260   -0.0250 O   0  0  0  0  0  0  0  0  0  0  0  0
   -2.6830    2.5720    1.0080 C   0  0  0  0  0  0  0  0  0  0  0  0
   -2.0380    1.4500    1.2650 C   0  0  0  0  0  0  0  0  0  0  0  0
  1  2  2  0
  2  3  1  0
  3  4  1  0
  4  5  2  0
  4  6  1  0
  6  7  1  0
  6 17  1  0
  7  8  2  0
  7  9  1  0
  9 10  1  0
 10 11  1  0
 11 12  1  0
 12 13  1  0
 13 14  1  0
 14 15  2  0
 14 16  1  0
 17 18  2  0
 17 22  1  0
 18 19  1  0
 19 20  1  0
 20 21  1  0
 21 22  2  0
M  END
