
     RDKit          3D

 22 22  0  0  0  0  0  0  0  0999 V2000
   -3.8890   -1.9400   -0.4610 C   0  0  0  0  0  0  0  0  0  0  0  0
   -3.1630   -0.6020   -0.5180 C   0  0  1  0  0  0  0  0  0  0  0  0
   -3.8760    0.3290    0.4160 C   0  0  0  0  0  0  0  0  0  0  0  0
   -3.9660    1.7420   -0.1030 C   0  0  0  0  0  0  0  0  0  0  0  0
   -2.7750    2.4150    0.1660 O   0  0  0  0  0  0  0  0  0  0  0  0
   -1.8850    1.9830   -0.7650 O   0  0  0  0  0  0  0  0  0  0  0  0
   -0.5540    2.3720   -0.7230 C   0  0  0  0  0  0  0  0  0  0  0  0
    0.0310    2.5450   -1.8230 O   0  0  0  0  0  0  0  0  0  0  0  0
    0.1700    2.5830    0.4820 N   0  0  0  0  0  0  0  0  0  0  0  0
    0.0340    1.8040    1.6220 N   0  0  0  0  0  0  0  0  0  0  0  0
   -0.0780    0.4080    1.6550 C   0  0  0  0  0  0  0  0  0  0  0  0
   -0.8390   -0.0900    2.5460 O   0  0  0  0  0  0  0  0  0  0  0  0
    0.6170   -0.5220    0.7380 C   0  0  1  0  0  0  0  0  0  0  0  0
    1.9500   -0.6530    0.9730 O   0  0  0  0  0  0  0  0  0  0  0  0
    2.7770   -0.2830   -0.0610 C   0  0  0  0  0  0  0  0  0  0  0  0
    4.2360   -0.4470    0.2500 C   0  0  0  0  0  0  0  0  0  0  0  0
    5.1080   -0.0290   -0.9140 C   0  0  0  0  0  0  0  0  0  0  0  0
    6.4610   -0.1830   -0.6190 O   0  0  0  0  0  0  0  0  0  0  0  0
    7.2280    0.1700   -1.6040 O   0  0  0  0  0  0  0  0  0  0  0  0
   -0.0310   -1.8750    0.7730 C   0  0  0  0  0  0  0  0  0  0  0  0
   -1.5340   -1.8100    0.5780 C   0  0  0  0  0  0  0  0  0  0  0  0
   -1.8230   -0.7300   -0.2180 O   0  0  0  0  0  0  0  0  0  0  0  0
  2  1  1  1
  2  3  1  0
  2 22  1  0
  3  4  1  0
  4  5  1  0
  5  6  1  0
  6  7  1  0
  7  8  2  0
  7  9  1  0
  9 10  1  0
 10 11  1  0
 11 12  2  0
 11 13  1  0
 13 14  1  1
 13 20  1  0
 14 15  1  0
 15 16  1  0
 16 17  1  0
 17 18  1  0
 18 19  1  0
 20 21  1  0
 21 22  1  0
M  END
