
     RDKit          3D

 21 20  0  0  0  0  0  0  0  0999 V2000
   -4.6560    0.2230   -1.7740 C   0  0  0  0  0  0  0  0  0  0  0  0
   -4.7450    0.1060   -0.2670 C   0  0  2  0  0  0  0  0  0  0  0  0
   -5.9820   -0.6330    0.1280 C   0  0  0  0  0  0  0  0  0  0  0  0
   -4.7720    1.5010    0.3040 C   0  0  0  0  0  0  0  0  0  0  0  0
   -3.6170   -0.5590    0.2710 O   0  0  0  0  0  0  0  0  0  0  0  0
   -2.3220   -0.0700    0.1070 C   0  0  0  0  0  0  0  0  0  0  0  0
   -2.2170    1.0060   -0.5540 O   0  0  0  0  0  0  0  0  0  0  0  0
   -1.1920   -0.7240    0.6380 N   0  0  0  0  0  0  0  0  0  0  0  0
    0.1360   -0.0970    0.3910 C   0  0  1  0  0  0  0  0  0  0  0  0
    0.6250    0.3350    1.7270 C   0  0  0  0  0  0  0  0  0  0  0  0
    0.7640   -0.7200    2.6340 O   0  0  0  0  0  0  0  0  0  0  0  0
    0.9700   -0.9940   -0.4270 C   0  0  0  0  0  0  0  0  0  0  0  0
    2.2570   -0.5080   -0.7650 N   0  0  0  0  0  0  0  0  0  0  0  0
    3.3640   -0.2890    0.0600 C   0  0  0  0  0  0  0  0  0  0  0  0
    3.3570   -0.5330    1.2610 O   0  0  0  0  0  0  0  0  0  0  0  0
    4.6130    0.2750   -0.5900 C   0  0  0  0  0  0  0  0  0  0  0  0
    5.5600    0.4070    0.3910 O   0  0  0  0  0  0  0  0  0  0  0  0
    6.7160    0.8940   -0.0340 O   0  0  0  0  0  0  0  0  0  0  0  0
    7.8600    0.1430   -0.1130 C   0  0  0  0  0  0  0  0  0  0  0  0
    7.7980   -1.0630    0.2380 O   0  0  0  0  0  0  0  0  0  0  0  0
    9.0880    0.6070   -0.5500 O   0  0  0  0  0  0  0  0  0  0  0  0
  2  1  1  6
  2  3  1  0
  2  4  1  0
  2  5  1  0
  5  6  1  0
  6  7  2  0
  6  8  1  0
  8  9  1  0
  9 10  1  1
  9 12  1  0
 10 11  1  0
 12 13  1  0
 13 14  1  0
 14 15  2  0
 14 16  1  0
 16 17  1  0
 17 18  1  0
 18 19  1  0
 19 20  2  0
 19 21  1  0
M  END
