
     RDKit          3D

 31 31  0  0  0  0  0  0  0  0999 V2000
   10.8550    1.2710    0.6750 C   0  0  0  0  0  0  0  0  0  0  0  0
   10.3260   -0.0430    1.1960 C   0  0  1  0  0  0  0  0  0  0  0  0
   10.4110   -0.1030    2.7160 C   0  0  0  0  0  0  0  0  0  0  0  0
    8.9420   -0.3390    0.7150 C   0  0  0  0  0  0  0  0  0  0  0  0
    7.9700    0.7260    1.1530 C   0  0  0  0  0  0  0  0  0  0  0  0
    6.5770    0.3170    0.6020 C   0  0  0  0  0  0  0  0  0  0  0  0
    5.5660    1.3140    0.9910 C   0  0  1  0  0  0  0  0  0  0  0  0
    5.8980    2.6970    0.4030 C   0  0  0  0  0  0  0  0  0  0  0  0
    4.1440    1.0200    0.9890 C   0  0  0  0  0  0  0  0  0  0  0  0
    3.4080    0.6100   -0.2130 C   0  0  0  0  0  0  0  0  0  0  0  0
    3.8240   -0.6840   -0.8410 C   0  0  0  0  0  0  0  0  0  0  0  0
    2.9720   -0.9510   -2.0670 C   0  0  1  0  0  0  0  0  0  0  0  0
    3.4090   -2.2650   -2.7140 C   0  0  0  0  0  0  0  0  0  0  0  0
    1.5060   -0.9560   -1.7750 C   0  0  0  0  0  0  0  0  0  0  0  0
    1.0890   -1.9860   -0.7850 C   0  0  0  0  0  0  0  0  0  0  0  0
   -0.4000   -1.9820   -0.5150 C   0  0  0  0  0  0  0  0  0  0  0  0
   -0.8310   -0.6740    0.0320 C   0  0  0  0  0  0  0  0  0  0  0  0
   -2.3250   -0.5990    0.3760 C   0  0  1  0  0  0  0  0  0  0  0  0
   -2.4930    0.8280    0.9160 C   0  0  0  0  0  0  0  0  0  0  0  0
   -3.1130   -0.8650   -0.8510 C   0  0  0  0  0  0  0  0  0  0  0  0
   -4.5910   -0.8860   -0.7370 C   0  0  0  0  0  0  0  0  0  0  0  0
   -5.2790    0.3390   -0.2700 C   0  0  0  0  0  0  0  0  0  0  0  0
   -6.8220    0.2010   -0.2810 C   0  0  1  0  0  0  0  0  0  0  0  0
   -7.1870   -0.0630   -1.7170 C   0  0  0  0  0  0  0  0  0  0  0  0
   -7.2210   -0.8780    0.6540 C   0  0  0  0  0  0  0  0  0  0  0  0
   -8.6780   -1.1340    0.7950 C   0  0  0  0  0  0  0  0  0  0  0  0
   -9.4530    0.0400    1.2790 C   0  0  2  0  0  0  0  0  0  0  0  0
  -10.8610   -0.0830    1.5050 O   0  0  0  0  0  0  0  0  0  0  0  0
  -10.4950    0.5740    0.3280 C   0  0  1  0  0  0  0  0  0  0  0  0
  -10.6290    2.0680    0.2630 C   0  0  0  0  0  0  0  0  0  0  0  0
  -10.8350   -0.2020   -0.9030 C   0  0  0  0  0  0  0  0  0  0  0  0
  2  1  1  1
  2  3  1  0
  2  4  1  0
  4  5  1  0
  5  6  1  0
  6  7  1  0
  7  8  1  6
  7  9  1  0
  9 10  1  0
 10 11  1  0
 11 12  1  0
 12 13  1  1
 12 14  1  0
 14 15  1  0
 15 16  1  0
 16 17  1  0
 17 18  1  0
 18 19  1  6
 18 20  1  0
 20 21  1  0
 21 22  1  0
 22 23  1  0
 23 24  1  6
 23 25  1  0
 25 26  1  0
 27 26  1  6
 27 28  1  0
 27 29  1  0
 28 29  1  0
 29 30  1  6
 29 31  1  0
M  END
