
     RDKit          3D

 31 35  0  0  0  0  0  0  0  0999 V2000
    6.2830    3.0380   -0.8110 C   0  0  0  0  0  0  0  0  0  0  0  0
    5.5390    1.7810   -0.5480 C   0  0  0  0  0  0  0  0  0  0  0  0
    6.1440    0.6030   -0.4980 C   0  0  0  0  0  0  0  0  0  0  0  0
    7.5000    0.4460   -0.6830 O   0  0  0  0  0  0  0  0  0  0  0  0
    8.1010   -0.8200   -0.6210 C   0  0  0  0  0  0  0  0  0  0  0  0
    7.4040   -1.9190   -0.3840 C   0  0  0  0  0  0  0  0  0  0  0  0
    5.9610   -1.8350   -0.1770 C   0  0  0  0  0  0  0  0  0  0  0  0
    5.1710   -2.9350    0.0740 C   0  0  0  0  0  0  0  0  0  0  0  0
    3.8010   -2.7660    0.2600 C   0  0  0  0  0  0  0  0  0  0  0  0
    3.2200   -1.5250    0.1980 C   0  0  0  0  0  0  0  0  0  0  0  0
    1.7740   -1.2960    0.3880 C   0  0  0  0  0  0  0  0  0  0  0  0
    0.8860   -2.3110    0.6440 C   0  0  0  0  0  0  0  0  0  0  0  0
   -0.4730   -2.0500    0.8170 C   0  0  0  0  0  0  0  0  0  0  0  0
   -0.9840   -0.7640    0.7390 C   0  0  0  0  0  0  0  0  0  0  0  0
   -2.4210   -0.6080    0.9350 C   0  0  0  0  0  0  0  0  0  0  0  0
   -2.9400    0.7130    0.9570 N   0  0  0  0  0  0  0  0  0  0  0  0
   -3.5800    1.0320   -0.3170 C   0  0  2  0  0  0  0  0  0  0  0  0
   -3.4340    2.4670   -0.6180 C   0  0  0  0  0  0  0  0  0  0  0  0
   -2.1510    3.0680   -0.8770 N   0  0  0  0  0  0  0  0  0  0  0  0
   -4.5750    3.0080   -0.6030 N   0  0  0  0  0  0  0  0  0  0  0  0
   -5.6080    2.0850   -0.3080 C   0  0  0  0  0  0  0  0  0  0  0  0
   -6.9610    2.2410   -0.1940 N   0  0  0  0  0  0  0  0  0  0  0  0
   -7.6890    1.1720    0.0970 C   0  0  0  0  0  0  0  0  0  0  0  0
   -7.1670   -0.0890    0.2920 C   0  0  0  0  0  0  0  0  0  0  0  0
   -8.0540   -1.2510    0.6190 C   0  0  0  0  0  0  0  0  0  0  0  0
   -5.8160   -0.2490    0.1780 C   0  0  0  0  0  0  0  0  0  0  0  0
   -5.0300    0.8600   -0.1270 C   0  0  0  0  0  0  0  0  0  0  0  0
   -0.0910    0.2410    0.4840 C   0  0  0  0  0  0  0  0  0  0  0  0
    1.2710   -0.0040    0.3090 C   0  0  0  0  0  0  0  0  0  0  0  0
    4.0390   -0.4860   -0.0500 N   0  0  0  0  0  0  0  0  0  0  0  0
    5.3560   -0.5940   -0.2350 C   0  0  0  0  0  0  0  0  0  0  0  0
  1  2  1  0
  2  3  2  3
  3  4  1  0
  3 31  1  0
  4  5  1  0
  5  6  2  0
  6  7  1  0
  7  8  2  0
  7 31  1  0
  8  9  1  0
  9 10  2  0
 10 11  1  0
 10 30  1  0
 11 12  2  0
 11 29  1  0
 12 13  1  0
 13 14  2  0
 14 15  1  0
 14 28  1  0
 15 16  1  0
 17 16  1  1
 17 18  1  0
 17 27  1  0
 18 19  1  0
 18 20  2  0
 20 21  1  0
 21 22  2  0
 21 27  1  0
 22 23  1  0
 23 24  2  0
 24 25  1  0
 24 26  1  0
 26 27  2  0
 28 29  2  0
 30 31  2  0
M  CHG  1  16   1
M  END
