
     RDKit          3D

 31 35  0  0  0  0  0  0  0  0999 V2000
   -7.1650    2.0480    0.7890 N   0  0  0  0  0  0  0  0  0  0  0  0
   -6.2980    1.1860    1.5560 C   0  0  0  0  0  0  0  0  0  0  0  0
   -4.9910    0.9380    0.9450 C   0  0  0  0  0  0  0  0  0  0  0  0
   -4.1320    0.1090    1.6360 C   0  0  0  0  0  0  0  0  0  0  0  0
   -2.8930   -0.2060    1.1650 C   0  0  0  0  0  0  0  0  0  0  0  0
   -2.4530    0.3050   -0.0370 C   0  0  0  0  0  0  0  0  0  0  0  0
   -1.1520    0.0390   -0.5980 C   0  0  0  0  0  0  0  0  0  0  0  0
   -0.7730   -0.8930   -1.4200 C   0  0  0  0  0  0  0  0  0  0  0  0
    0.5440   -0.9680   -1.8430 C   0  0  0  0  0  0  0  0  0  0  0  0
    1.5210    0.0180   -1.3700 C   0  0  0  0  0  0  0  0  0  0  0  0
    1.3820    1.1970   -1.7360 O   0  0  0  0  0  0  0  0  0  0  0  0
    2.5960   -0.3780   -0.5240 N   0  0  0  0  0  0  0  0  0  0  0  0
    3.6070    0.4620   -0.0090 C   0  0  0  0  0  0  0  0  0  0  0  0
    3.5800    1.8330   -0.0920 C   0  0  0  0  0  0  0  0  0  0  0  0
    4.5950    2.6480    0.4220 C   0  0  0  0  0  0  0  0  0  0  0  0
    5.6650    2.0860    1.0360 C   0  0  0  0  0  0  0  0  0  0  0  0
    5.7130    0.7110    1.1330 C   0  0  0  0  0  0  0  0  0  0  0  0
    6.8230    0.1770    1.7580 C   0  0  0  0  0  0  0  0  0  0  0  0
    6.9140   -1.1790    1.8680 C   0  0  0  0  0  0  0  0  0  0  0  0
    5.9380   -2.0030    1.3760 C   0  0  0  0  0  0  0  0  0  0  0  0
    4.8070   -1.4840    0.7410 C   0  0  0  0  0  0  0  0  0  0  0  0
    4.7080   -0.1170    0.6250 C   0  0  0  0  0  0  0  0  0  0  0  0
    0.9800   -1.9460   -2.7090 C   0  0  0  0  0  0  0  0  0  0  0  0
    0.1230   -2.8560   -3.1630 N   0  0  0  0  0  0  0  0  0  0  0  0
   -1.1770   -2.8320   -2.7830 C   0  0  0  0  0  0  0  0  0  0  0  0
   -1.6650   -1.8600   -1.9060 C   0  0  0  0  0  0  0  0  0  0  0  0
   -2.9360   -2.1010   -1.7370 C   0  0  0  0  0  0  0  0  0  0  0  0
   -3.3040   -3.2590   -2.5170 N   0  0  0  0  0  0  0  0  0  0  0  0
   -2.2660   -3.6750   -3.1230 N   0  0  0  0  0  0  0  0  0  0  0  0
   -3.3340    1.1500   -0.7350 C   0  0  0  0  0  0  0  0  0  0  0  0
   -4.5600    1.4560   -0.2630 C   0  0  0  0  0  0  0  0  0  0  0  0
  1  2  1  0
  2  3  1  0
  3  4  2  0
  3 31  1  0
  4  5  1  0
  5  6  2  0
  6  7  1  0
  6 30  1  0
  7  8  2  3
  8  9  1  0
  8 26  1  0
  9 10  1  0
  9 23  2  0
 10 11  2  0
 10 12  1  0
 12 13  1  0
 13 14  2  0
 13 22  1  0
 14 15  1  0
 15 16  2  0
 16 17  1  0
 17 18  2  0
 17 22  1  0
 18 19  1  0
 19 20  2  0
 20 21  1  0
 21 22  2  0
 23 24  1  0
 24 25  2  0
 25 26  1  0
 25 29  1  0
 26 27  2  0
 27 28  1  0
 28 29  2  0
 30 31  2  0
M  CHG  1   1   1
M  END
