
     RDKit          3D

 31 34  0  0  0  0  0  0  0  0999 V2000
   -3.8340   -3.6770    0.2820 C   0  0  0  0  0  0  0  0  0  0  0  0
   -3.0280   -2.7550    1.1860 C   0  0  0  0  0  0  0  0  0  0  0  0
   -2.7400   -1.4890    0.3650 C   0  0  2  0  0  0  0  0  0  0  0  0
   -1.9400   -2.0600   -0.8400 C   0  0  0  0  0  0  0  0  0  0  0  0
   -1.8720   -0.5510    1.1410 C   0  0  0  0  0  0  0  0  0  0  0  0
   -1.5460    0.6810    0.4800 N   0  0  0  0  0  0  0  0  0  0  0  0
   -0.2990    0.7800    0.0130 C   0  0  0  0  0  0  0  0  0  0  0  0
    0.8720   -0.5010    0.2030 S   0  0  0  0  0  0  0  0  0  0  0  0
    2.2050    0.2650   -0.6340 C   0  0  0  0  0  0  0  0  0  0  0  0
    3.5480   -0.2630   -0.8610 C   0  0  0  0  0  0  0  0  0  0  0  0
    4.3760    0.4350   -1.4860 O   0  0  0  0  0  0  0  0  0  0  0  0
    3.9420   -1.5400   -0.3960 N   0  0  0  0  0  0  0  0  0  0  0  0
    5.2330   -2.1170   -0.5800 C   0  0  0  0  0  0  0  0  0  0  0  0
    6.3440   -1.2960    0.0360 C   0  0  0  0  0  0  0  0  0  0  0  0
    6.1570   -1.1350    1.5300 C   0  0  2  0  0  0  0  0  0  0  0  0
    7.2020   -0.3790    2.0240 F   0  0  0  0  0  0  0  0  0  0  0  0
    6.1680   -2.3350    2.1900 F   0  0  0  0  0  0  0  0  0  0  0  0
    4.9980   -0.4360    1.7990 F   0  0  0  0  0  0  0  0  0  0  0  0
    1.6460    1.4760   -1.0100 C   0  0  0  0  0  0  0  0  0  0  0  0
    2.1280    2.6320   -1.7350 N   0  0  0  0  0  0  0  0  0  0  0  0
    1.0470    3.5530   -1.7970 C   0  0  0  0  0  0  0  0  0  0  0  0
    0.9990    4.6930   -2.3280 O   0  0  0  0  0  0  0  0  0  0  0  0
   -0.0530    2.8890   -1.0930 C   0  0  0  0  0  0  0  0  0  0  0  0
   -1.3430    3.4760   -0.9600 N   0  0  0  0  0  0  0  0  0  0  0  0
   -2.4730    2.9560   -0.2710 C   0  0  0  0  0  0  0  0  0  0  0  0
   -3.5510    3.8190   -0.2520 C   0  0  0  0  0  0  0  0  0  0  0  0
   -4.7030    3.4550    0.4080 C   0  0  0  0  0  0  0  0  0  0  0  0
   -4.7680    2.2360    1.0420 C   0  0  0  0  0  0  0  0  0  0  0  0
   -3.6700    1.3670    1.0190 C   0  0  0  0  0  0  0  0  0  0  0  0
   -2.5230    1.7140    0.3670 C   0  0  0  0  0  0  0  0  0  0  0  0
    0.3910    1.7010   -0.6710 C   0  0  0  0  0  0  0  0  0  0  0  0
  1  2  1  0
  2  3  1  0
  3  4  1  6
  3  5  1  0
  5  6  1  0
  6  7  2  0
  6 30  1  0
  7  8  1  0
  7 31  1  0
  8  9  1  0
  9 10  1  0
  9 19  2  0
 10 11  2  0
 10 12  1  0
 12 13  1  0
 13 14  1  0
 14 15  1  0
 15 16  1  1
 15 17  1  0
 15 18  1  0
 19 20  1  0
 19 31  1  0
 20 21  1  0
 21 22  2  0
 21 23  1  0
 23 24  1  0
 23 31  2  0
 24 25  1  0
 25 26  2  0
 25 30  1  0
 26 27  1  0
 27 28  2  0
 28 29  1  0
 29 30  2  0
M  CHG  1   6   1
M  END
