
     RDKit          3D

 22 23  0  0  0  0  0  0  0  0999 V2000
   -2.9720   -1.0970   -3.5840 N   0  0  0  0  0  0  0  0  0  0  0  0
   -3.0210   -0.4420   -2.3080 C   0  0  0  0  0  0  0  0  0  0  0  0
   -4.1550   -0.0060   -1.9880 O   0  0  0  0  0  0  0  0  0  0  0  0
   -1.8200   -0.3170   -1.4850 C   0  0  0  0  0  0  0  0  0  0  0  0
   -1.7380    0.2530   -0.3140 C   0  0  0  0  0  0  0  0  0  0  0  0
   -2.8190    0.9000    0.4530 C   0  0  0  0  0  0  0  0  0  0  0  0
   -2.7000    0.4070    1.8600 C   0  0  0  0  0  0  0  0  0  0  0  0
   -3.7500   -0.0340    2.5280 C   0  0  0  0  0  0  0  0  0  0  0  0
   -3.6350   -0.4780    3.7990 F   0  0  0  0  0  0  0  0  0  0  0  0
   -5.0090   -0.0630    1.9590 O   0  0  0  0  0  0  0  0  0  0  0  0
   -5.6370    0.9970    1.4720 F   0  0  0  0  0  0  0  0  0  0  0  0
   -1.4120    0.4340    2.4460 N   0  0  0  0  0  0  0  0  0  0  0  0
   -0.3230    0.3740    1.7590 C   0  0  0  0  0  0  0  0  0  0  0  0
    1.0610    0.3800    2.0650 N   0  0  0  0  0  0  0  0  0  0  0  0
    1.8090    0.2930    0.8850 C   0  0  0  0  0  0  0  0  0  0  0  0
    3.1050    0.2800    0.8280 N   0  0  0  0  0  0  0  0  0  0  0  0
    3.8370    0.1890   -0.4190 C   0  0  0  0  0  0  0  0  0  0  0  0
    5.4460   -0.6500   -0.0640 P   0  0  0  0  0  0  0  0  0  0  0  0
    6.7570    0.4720   -0.1490 O   0  0  0  0  0  0  0  0  0  0  0  0
    5.6690   -1.9620   -1.1540 O   0  0  0  0  0  0  0  0  0  0  0  0
    0.8830    0.2190   -0.2730 C   0  0  0  0  0  0  0  0  0  0  0  0
   -0.4500    0.2800    0.3430 N   0  0  0  0  0  0  0  0  0  0  0  0
  1  2  1  0
  2  3  2  0
  2  4  1  0
  4  5  2  3
  5  6  1  0
  5 22  1  0
  6  7  1  0
  7  8  2  3
  7 12  1  0
  8  9  1  0
  8 10  1  0
 10 11  1  0
 12 13  2  0
 13 14  1  0
 13 22  1  0
 14 15  1  0
 15 16  2  3
 15 21  1  0
 16 17  1  0
 17 18  1  0
 18 19  1  0
 18 20  1  0
 21 22  1  0
M  END
