
     RDKit          3D

 21 22  0  0  0  0  0  0  0  0999 V2000
   -3.5170   -4.3360   -0.6440 N   0  0  0  0  0  0  0  0  0  0  0  0
   -2.5360   -3.2880   -0.4910 C   0  0  0  0  0  0  0  0  0  0  0  0
   -1.2300   -3.4440   -0.6050 N   0  0  0  0  0  0  0  0  0  0  0  0
   -0.6190   -2.2620   -0.4020 C   0  0  0  0  0  0  0  0  0  0  0  0
    0.8200   -2.0680   -0.4520 C   0  0  0  0  0  0  0  0  0  0  0  0
    1.5580   -3.0520   -0.7000 O   0  0  0  0  0  0  0  0  0  0  0  0
    1.4560   -0.8540   -0.2450 O   0  0  0  0  0  0  0  0  0  0  0  0
    2.8880   -0.7780   -0.3190 C   0  0  0  0  0  0  0  0  0  0  0  0
    3.3150    0.6260   -0.0590 C   0  0  0  0  0  0  0  0  0  0  0  0
    4.6270    1.0890   -0.0480 C   0  0  0  0  0  0  0  0  0  0  0  0
    4.6660    2.4310    0.2240 C   0  0  0  0  0  0  0  0  0  0  0  0
    5.7610    3.2310    0.3180 F   0  0  0  0  0  0  0  0  0  0  0  0
    3.3490    2.8070    0.3840 C   0  0  0  0  0  0  0  0  0  0  0  0
    2.5640    1.7040    0.2090 N   0  0  0  0  0  0  0  0  0  0  0  0
   -1.6180   -1.3560   -0.1540 C   0  0  0  0  0  0  0  0  0  0  0  0
   -1.4280    0.0170    0.1140 N   0  0  0  0  0  0  0  0  0  0  0  0
   -2.5680    0.8710    0.3600 C   0  0  0  0  0  0  0  0  0  0  0  0
   -1.9720    2.5790    0.6710 P   0  0  0  0  0  0  0  0  0  0  0  0
   -1.5890    3.4410   -0.7550 O   0  0  0  0  0  0  0  0  0  0  0  0
   -3.0140    3.4620    1.7350 O   0  0  0  0  0  0  0  0  0  0  0  0
   -2.7940   -2.0130   -0.2150 N   0  0  0  0  0  0  0  0  0  0  0  0
  1  2  1  0
  2  3  2  0
  2 21  1  0
  3  4  1  0
  4  5  1  0
  4 15  2  0
  5  6  2  0
  5  7  1  0
  7  8  1  0
  8  9  1  0
  9 10  2  0
  9 14  1  0
 10 11  1  0
 11 12  1  0
 11 13  2  0
 13 14  1  0
 15 16  1  0
 15 21  1  0
 16 17  1  0
 17 18  1  0
 18 19  1  0
 18 20  1  0
M  END
