
     RDKit          3D

 22 23  0  0  0  0  0  0  0  0999 V2000
    6.7670    2.1130   -0.7050 O   0  0  0  0  0  0  0  0  0  0  0  0
    6.3570    0.4450   -0.2330 P   0  0  0  0  0  0  0  0  0  0  0  0
    7.6300   -0.6060   -0.1450 O   0  0  0  0  0  0  0  0  0  0  0  0
    5.0400    0.4680    0.7760 O   0  0  0  0  0  0  0  0  0  0  0  0
    4.0240   -0.4080    0.4760 C   0  0  0  0  0  0  0  0  0  0  0  0
    2.9420    0.6270    0.0070 C   0  0  0  0  0  0  0  0  0  0  0  0
    1.6790    0.0960   -0.3360 N   0  0  0  0  0  0  0  0  0  0  0  0
    0.9380   -0.0700    0.9210 C   0  0  1  0  0  0  0  0  0  0  0  0
    0.7790   -1.3750    1.2380 F   0  0  0  0  0  0  0  0  0  0  0  0
    1.5200    0.6470    1.9140 F   0  0  0  0  0  0  0  0  0  0  0  0
   -0.4710    0.4860    0.5950 C   0  0  0  0  0  0  0  0  0  0  0  0
   -0.9920   -0.4280   -0.4470 C   0  0  0  0  0  0  0  0  0  0  0  0
   -0.2980   -1.5340   -0.9050 N   0  0  0  0  0  0  0  0  0  0  0  0
   -0.9570   -2.2360   -1.7590 N   0  0  0  0  0  0  0  0  0  0  0  0
   -2.1480   -1.6060   -1.9080 C   0  0  0  0  0  0  0  0  0  0  0  0
   -2.1580   -0.4640   -1.0880 C   0  0  0  0  0  0  0  0  0  0  0  0
   -3.2890    0.3820   -1.1180 N   0  0  0  0  0  0  0  0  0  0  0  0
   -4.1080    0.4960   -0.1330 C   0  0  0  0  0  0  0  0  0  0  0  0
   -4.1790   -0.0950    1.1740 C   0  0  0  0  0  0  0  0  0  0  0  0
   -5.2610    0.4660    1.8090 O   0  0  0  0  0  0  0  0  0  0  0  0
   -6.1500    0.8910    0.8340 C   0  0  0  0  0  0  0  0  0  0  0  0
   -5.3290    1.2910   -0.3000 N   0  0  0  0  0  0  0  0  0  0  0  0
  1  2  1  0
  2  3  1  0
  2  4  1  0
  4  5  1  0
  5  6  1  0
  6  7  1  0
  7  8  1  0
  8  9  1  1
  8 10  1  0
  8 11  1  0
 11 12  1  0
 12 13  2  0
 12 16  1  0
 13 14  1  0
 14 15  1  0
 15 16  2  0
 16 17  1  0
 17 18  2  3
 18 19  1  0
 18 22  1  0
 19 20  1  0
 20 21  1  0
 21 22  1  0
M  END
