
     RDKit          3D

 21 21  0  0  0  0  0  0  0  0999 V2000
   -2.0160    2.6500    0.0210 C   0  0  0  0  0  0  0  0  0  0  0  0
   -2.0560    1.2200    0.2280 N   0  0  0  0  0  0  0  0  0  0  0  0
   -1.1520    0.7220    1.2170 C   0  0  0  0  0  0  0  0  0  0  0  0
   -0.8080   -0.7000    1.0410 C   0  0  0  0  0  0  0  0  0  0  0  0
   -0.6630   -1.4120    2.0980 O   0  0  0  0  0  0  0  0  0  0  0  0
   -0.6050   -1.4240   -0.1380 N   0  0  0  0  0  0  0  0  0  0  0  0
    0.4670   -2.3940   -0.2140 C   0  0  0  0  0  0  0  0  0  0  0  0
    1.7460   -1.9480   -0.7730 C   0  0  0  0  0  0  0  0  0  0  0  0
    2.5490   -0.9260   -0.1350 C   0  0  0  0  0  0  0  0  0  0  0  0
    2.4840   -0.4190    1.0000 N   0  0  0  0  0  0  0  0  0  0  0  0
    3.7330   -0.4280   -0.9900 C   0  0  0  0  0  0  0  0  0  0  0  0
    4.6550    0.8820   -0.0740 P   0  0  0  0  0  0  0  0  0  0  0  0
    5.7230    0.1020    1.0500 O   0  0  0  0  0  0  0  0  0  0  0  0
    3.5760    1.8930    0.8130 O   0  0  0  0  0  0  0  0  0  0  0  0
   -1.3830   -1.2930   -1.3650 C   0  0  2  0  0  0  0  0  0  0  0  0
   -1.4200   -2.5550   -1.9300 F   0  0  0  0  0  0  0  0  0  0  0  0
   -0.6990   -0.4910   -2.2820 F   0  0  0  0  0  0  0  0  0  0  0  0
   -2.7630   -0.8190   -1.2090 C   0  0  0  0  0  0  0  0  0  0  0  0
   -2.9670    0.4920   -0.5610 C   0  0  0  0  0  0  0  0  0  0  0  0
   -4.1350    0.9570   -0.7740 N   0  0  0  0  0  0  0  0  0  0  0  0
   -4.5610    2.1600   -0.2580 N   0  0  0  0  0  0  0  0  0  0  0  0
  1  2  1  0
  2  3  1  0
  2 19  1  0
  3  4  1  0
  4  5  2  0
  4  6  1  0
  6  7  1  0
  6 15  1  0
  7  8  1  0
  8  9  1  0
  9 10  2  0
  9 11  1  0
 11 12  1  0
 12 13  1  0
 12 14  1  0
 15 16  1  6
 15 17  1  0
 15 18  1  0
 18 19  1  0
 19 20  2  3
 20 21  1  0
M  END
