
     RDKit          3D

 13 13  0  0  0  0  0  0  0  0999 V2000
    4.6170    0.4750    1.2960 C   0  0  0  0  0  0  0  0  0  0  0  0
    3.9120   -0.4390    0.7750 N   0  0  0  0  0  0  0  0  0  0  0  0
    2.5230   -0.4030    0.5730 C   0  0  0  0  0  0  0  0  0  0  0  0
    1.6480   -0.7900    1.3900 N   0  0  0  0  0  0  0  0  0  0  0  0
    0.3250   -0.7930    1.2810 O   0  0  0  0  0  0  0  0  0  0  0  0
   -0.4230   -0.3530    0.2010 C   0  0  0  0  0  0  0  0  0  0  0  0
   -1.8750   -0.4140    0.2180 C   0  0  0  0  0  0  0  0  0  0  0  0
   -2.4790   -0.8940    1.2730 C   0  0  0  0  0  0  0  0  0  0  0  0
   -2.6270    0.0330   -0.8790 N   0  0  0  0  0  0  0  0  0  0  0  0
   -3.3320    1.2900   -0.7750 C   0  0  0  0  0  0  0  0  0  0  0  0
    0.1160    0.1420   -0.8930 C   0  0  0  0  0  0  0  0  0  0  0  0
    1.9320    0.2670   -1.0260 P   0  0  0  0  0  0  0  0  0  0  0  0
    2.5330   -0.8050   -2.2780 O   0  0  0  0  0  0  0  0  0  0  0  0
  1  2  2  0
  2  3  1  0
  3  4  2  0
  3 12  1  0
  4  5  1  0
  5  6  1  0
  6  7  1  0
  6 11  2  0
  7  8  2  0
  7  9  1  0
  9 10  1  0
 11 12  1  0
 12 13  1  0
M  END
