
     RDKit          3D

 13 14  0  0  0  0  0  0  0  0999 V2000
   -2.0990   -1.3840    0.5360 C   0  0  0  0  0  0  0  0  0  0  0  0
   -1.3170   -0.2210   -0.0300 C   0  0  0  0  0  0  0  0  0  0  0  0
   -1.9860    0.9180   -0.1450 C   0  0  0  0  0  0  0  0  0  0  0  0
   -1.0340    2.3450   -0.8380 P   0  0  0  0  0  0  0  0  0  0  0  0
   -0.8280    3.5450    0.4300 O   0  0  0  0  0  0  0  0  0  0  0  0
    0.5270    1.7740   -1.2310 O   0  0  0  0  0  0  0  0  0  0  0  0
    0.6670    0.4450   -1.4030 C   0  0  1  0  0  0  0  0  0  0  0  0
    2.0650    0.1600   -1.1860 O   0  0  0  0  0  0  0  0  0  0  0  0
    2.1840   -0.0180    0.2060 C   0  0  0  0  0  0  0  0  0  0  0  0
    3.4050    0.1800    0.9250 N   0  0  0  0  0  0  0  0  0  0  0  0
    1.0320   -0.3810    0.7180 C   0  0  0  0  0  0  0  0  0  0  0  0
    0.0690   -0.4560   -0.3890 C   0  0  1  0  0  0  0  0  0  0  0  0
    0.1600   -1.8250   -0.9240 N   0  0  0  0  0  0  0  0  0  0  0  0
  1  2  1  0
  2  3  2  0
  2 12  1  0
  3  4  1  0
  4  5  1  0
  4  6  1  0
  7  6  1  1
  7  8  1  0
  7 12  1  0
  8  9  1  0
  9 10  1  0
  9 11  2  0
 11 12  1  0
 12 13  1  6
M  END
