
     RDKit          3D

 11 10  0  0  0  0  0  0  0  0999 V2000
   -2.5610   -0.8950    0.5770 C   0  0  0  0  0  0  0  0  0  0  0  0
   -1.2640   -0.5680    0.2030 O   0  0  0  0  0  0  0  0  0  0  0  0
   -1.1910    0.6700   -0.4210 C   0  0  0  0  0  0  0  0  0  0  0  0
    0.2640    0.9240   -0.7840 C   0  0  1  0  0  0  0  0  0  0  0  0
    0.3400    2.1620   -1.4090 O   0  0  0  0  0  0  0  0  0  0  0  0
    0.7850    1.9840   -2.6300 O   0  0  0  0  0  0  0  0  0  0  0  0
    1.0930    0.8400    0.3240 O   0  0  0  0  0  0  0  0  0  0  0  0
    2.0120   -0.1020    0.2390 O   0  0  0  0  0  0  0  0  0  0  0  0
    2.3860   -0.7530    1.4060 C   0  0  0  0  0  0  0  0  0  0  0  0
    1.8420   -0.4270    2.4920 O   0  0  0  0  0  0  0  0  0  0  0  0
    3.3530   -1.7660    1.4180 O   0  0  0  0  0  0  0  0  0  0  0  0
  1  2  1  0
  2  3  1  0
  4  3  1  1
  4  5  1  0
  4  7  1  0
  5  6  1  0
  7  8  1  0
  8  9  1  0
  9 10  2  0
  9 11  1  0
M  END
