
     RDKit          3D

 11 10  0  0  0  0  0  0  0  0999 V2000
    1.9750   -1.4910    1.6850 O   0  0  0  0  0  0  0  0  0  0  0  0
    2.1830   -0.4000    1.0960 C   0  0  0  0  0  0  0  0  0  0  0  0
    3.2000    0.4060    1.5550 O   0  0  0  0  0  0  0  0  0  0  0  0
    1.3360   -0.0230   -0.0560 C   0  0  2  0  0  0  0  0  0  0  0  0
    1.6880    1.2000   -0.5920 O   0  0  0  0  0  0  0  0  0  0  0  0
    2.0290    1.1240   -1.8580 O   0  0  0  0  0  0  0  0  0  0  0  0
   -0.0110    0.0450    0.2840 O   0  0  0  0  0  0  0  0  0  0  0  0
   -0.7930   -0.8250   -0.4600 C   0  0  0  0  0  0  0  0  0  0  0  0
   -2.2320   -0.6310    0.0300 C   0  0  0  0  0  0  0  0  0  0  0  0
   -2.6170    0.7000   -0.1790 O   0  0  0  0  0  0  0  0  0  0  0  0
   -3.8430    0.8600    0.2390 O   0  0  0  0  0  0  0  0  0  0  0  0
  1  2  2  0
  2  3  1  0
  2  4  1  0
  4  5  1  1
  4  7  1  0
  5  6  1  0
  7  8  1  0
  8  9  1  0
  9 10  1  0
 10 11  1  0
M  END
