
     RDKit          3D

 27 28  0  0  0  0  0  0  0  0999 V2000
    6.0470    0.0200    0.1050 C   0  0  0  0  0  0  0  0  0  0  0  0
    5.4590   -0.9810   -0.8100 C   0  0  0  0  0  0  0  0  0  0  0  0
    6.2220   -2.2050   -1.1340 C   0  0  0  0  0  0  0  0  0  0  0  0
    4.2540   -0.7670   -1.3270 C   0  0  0  0  0  0  0  0  0  0  0  0
    3.5190    0.4020   -1.0210 N   0  0  0  0  0  0  0  0  0  0  0  0
    2.2570    0.3440   -0.8120 C   0  0  0  0  0  0  0  0  0  0  0  0
    1.5450    1.5940   -0.4990 C   0  0  0  0  0  0  0  0  0  0  0  0
    0.2260    1.6290   -0.4810 C   0  0  0  0  0  0  0  0  0  0  0  0
   -0.4340    2.8850   -0.1780 C   0  0  0  0  0  0  0  0  0  0  0  0
   -1.6940    2.9890   -0.1490 O   0  0  0  0  0  0  0  0  0  0  0  0
    0.3280    4.0450    0.0970 N   0  0  0  0  0  0  0  0  0  0  0  0
   -0.3250    5.3150    0.4100 C   0  0  0  0  0  0  0  0  0  0  0  0
   -1.1290    5.1520    1.6670 C   0  0  0  0  0  0  0  0  0  0  0  0
   -1.7520    6.3750    1.9650 O   0  0  0  0  0  0  0  0  0  0  0  0
   -0.5630    0.3990   -0.6860 C   0  0  0  0  0  0  0  0  0  0  0  0
   -2.0070    0.4900   -0.6510 C   0  0  0  0  0  0  0  0  0  0  0  0
   -2.7550   -0.7410   -0.7970 N   0  0  0  0  0  0  0  0  0  0  0  0
   -4.1740   -0.4470   -0.9500 C   0  0  0  0  0  0  0  0  0  0  0  0
   -4.9130   -1.7600   -1.0430 C   0  0  0  0  0  0  0  0  0  0  0  0
   -4.9050   -2.3520    0.3620 C   0  0  0  0  0  0  0  0  0  0  0  0
   -3.7520   -1.7400    1.1520 C   0  0  1  0  0  0  0  0  0  0  0  0
   -3.5290   -2.6540    2.3440 C   0  0  0  0  0  0  0  0  0  0  0  0
   -2.5050   -1.6710    0.2780 C   0  0  0  0  0  0  0  0  0  0  0  0
    0.0610   -0.7240   -0.8750 C   0  0  0  0  0  0  0  0  0  0  0  0
    1.5160   -0.9040   -0.8960 C   0  0  2  0  0  0  0  0  0  0  0  0
    1.9030   -1.7620    0.3230 C   0  0  0  0  0  0  0  0  0  0  0  0
    1.1290   -3.0030    0.1940 N   0  0  0  0  0  0  0  0  0  0  0  0
  1  2  1  0
  2  3  1  0
  2  4  2  3
  4  5  1  0
  5  6  2  3
  6  7  1  0
  6 25  1  0
  7  8  2  0
  8  9  1  0
  8 15  1  0
  9 10  2  0
  9 11  1  0
 11 12  1  0
 12 13  1  0
 13 14  1  0
 15 16  1  0
 15 24  2  0
 16 17  1  0
 17 18  1  0
 17 23  1  0
 18 19  1  0
 19 20  1  0
 20 21  1  0
 21 22  1  1
 21 23  1  0
 24 25  1  0
 25 26  1  1
 26 27  1  0
M  CHG  2   5   1  27   1
M  END
