
     RDKit          3D

 27 29  0  0  0  0  0  0  0  0999 V2000
   -5.9250    1.1390    1.3090 C   0  0  0  0  0  0  0  0  0  0  0  0
   -5.0690    0.3050    0.3340 C   0  0  2  0  0  0  0  0  0  0  0  0
   -5.6230   -1.0560    0.3270 C   0  0  0  0  0  0  0  0  0  0  0  0
   -4.6770   -2.1940    0.1460 C   0  0  0  0  0  0  0  0  0  0  0  0
   -3.7530   -2.4230    1.3320 C   0  0  0  0  0  0  0  0  0  0  0  0
   -2.6150   -1.4710    1.2970 C   0  0  0  0  0  0  0  0  0  0  0  0
   -2.6050   -0.1800    1.0070 C   0  0  0  0  0  0  0  0  0  0  0  0
   -1.3440    0.5690    1.0360 C   0  0  0  0  0  0  0  0  0  0  0  0
   -0.8060    1.1320   -0.1380 N   0  0  0  0  0  0  0  0  0  0  0  0
    0.0360    2.2180    0.1840 C   0  0  0  0  0  0  0  0  0  0  0  0
    1.2870    2.0850    0.9130 C   0  0  0  0  0  0  0  0  0  0  0  0
    2.4050    1.3850    0.2700 C   0  0  0  0  0  0  0  0  0  0  0  0
    2.4120    1.2890   -0.9670 O   0  0  0  0  0  0  0  0  0  0  0  0
    3.4700    0.8170    1.0150 N   0  0  0  0  0  0  0  0  0  0  0  0
    4.5700    0.1280    0.4780 C   0  0  0  0  0  0  0  0  0  0  0  0
    5.5250   -0.3610    1.3940 C   0  0  0  0  0  0  0  0  0  0  0  0
    6.6350   -1.0550    1.0080 C   0  0  0  0  0  0  0  0  0  0  0  0
    7.5850   -1.5300    1.9620 N   0  0  0  0  0  0  0  0  0  0  0  0
    6.8530   -1.3010   -0.3340 C   0  0  0  0  0  0  0  0  0  0  0  0
    5.9190   -0.8220   -1.2230 C   0  0  0  0  0  0  0  0  0  0  0  0
    4.8350   -0.1400   -0.7950 N   0  0  0  0  0  0  0  0  0  0  0  0
   -0.6640    0.3620   -1.2870 C   0  0  2  0  0  0  0  0  0  0  0  0
    0.2300   -0.9020   -1.0940 C   0  0  0  0  0  0  0  0  0  0  0  0
   -0.2820    1.0940   -2.5450 C   0  0  0  0  0  0  0  0  0  0  0  0
   -1.6350    0.8670   -3.1050 C   0  0  0  0  0  0  0  0  0  0  0  0
   -1.8940   -0.1040   -1.9770 C   0  0  0  0  0  0  0  0  0  0  0  0
   -3.7670    0.5200    0.6780 O   0  0  0  0  0  0  0  0  0  0  0  0
  2  1  1  1
  2  3  1  0
  2 27  1  0
  3  4  1  0
  4  5  1  0
  5  6  1  0
  6  7  2  0
  7  8  1  0
  7 27  1  0
  8  9  1  0
  9 10  1  0
  9 22  1  0
 10 11  1  0
 11 12  1  0
 12 13  2  0
 12 14  1  0
 14 15  1  0
 15 16  2  0
 15 21  1  0
 16 17  1  0
 17 18  1  0
 17 19  2  0
 19 20  1  0
 20 21  2  0
 22 23  1  1
 22 24  1  0
 22 26  1  0
 24 25  1  0
 25 26  1  0
M  CHG  2  18   1  21   1
M  END
