
     RDKit          3D

 10 10  0  0  0  0  0  0  0  0999 V2000
    2.1040   -0.8460   -0.9160 N   0  0  0  0  0  0  0  0  0  0  0  0
    1.3580   -0.3990    0.2010 C   0  0  0  0  0  0  0  0  0  0  0  0
    1.9260   -0.3340    1.3760 C   0  0  0  0  0  0  0  0  0  0  0  0
    1.2370    0.0980    2.5040 O   0  0  0  0  0  0  0  0  0  0  0  0
   -0.0490   -0.0210   -0.0170 C   0  0  0  0  0  0  0  0  0  0  0  0
   -0.5620   -0.1100   -1.2300 C   0  0  0  0  0  0  0  0  0  0  0  0
   -1.9720    0.2570   -1.5050 C   0  0  0  0  0  0  0  0  0  0  0  0
   -2.6520    0.6910   -0.3510 O   0  0  0  0  0  0  0  0  0  0  0  0
   -2.0660    0.7630    0.8870 C   0  0  0  0  0  0  0  0  0  0  0  0
   -0.8480    0.4360    1.0750 N   0  0  0  0  0  0  0  0  0  0  0  0
  1  2  1  0
  2  3  2  3
  2  5  1  0
  3  4  1  0
  5  6  2  0
  5 10  1  0
  6  7  1  0
  7  8  1  0
  8  9  1  0
  9 10  2  0
M  END
