
     RDKit          3D

 22 24  0  0  0  0  0  0  0  0999 V2000
    5.0760    1.2120    1.2450 O   0  0  0  0  0  0  0  0  0  0  0  0
    4.0140    0.8130    0.7250 C   0  0  0  0  0  0  0  0  0  0  0  0
    3.3260   -0.3310    1.1550 O   0  0  0  0  0  0  0  0  0  0  0  0
    1.9050   -0.2950    1.0960 C   0  0  2  0  0  0  0  0  0  0  0  0
    1.4950   -1.6050    1.4370 O   0  0  0  0  0  0  0  0  0  0  0  0
    1.3950    0.0970   -0.2710 C   0  0  1  0  0  0  0  0  0  0  0  0
    0.8310   -1.1130   -0.9260 C   0  0  2  0  0  0  0  0  0  0  0  0
    1.1160   -1.0200   -2.3110 O   0  0  0  0  0  0  0  0  0  0  0  0
   -0.5760   -1.4140   -0.7010 C   0  0  1  0  0  0  0  0  0  0  0  0
   -0.7400   -2.7740   -0.3550 O   0  0  0  0  0  0  0  0  0  0  0  0
   -1.3340   -0.6130    0.3000 C   0  0  2  0  0  0  0  0  0  0  0  0
   -2.8060   -0.7830   -0.0190 C   0  0  0  0  0  0  0  0  0  0  0  0
   -3.6800    0.3280    0.3890 C   0  0  0  0  0  0  0  0  0  0  0  0
   -2.9450    1.5060    0.9700 C   0  0  0  0  0  0  0  0  0  0  0  0
   -1.8770    1.7270    0.0930 O   0  0  0  0  0  0  0  0  0  0  0  0
   -0.9000    0.7830    0.4920 C   0  0  1  0  0  0  0  0  0  0  0  0
   -0.6890    1.0970    1.8580 O   0  0  0  0  0  0  0  0  0  0  0  0
    0.3540    1.1770   -0.2170 C   0  0  2  0  0  0  0  0  0  0  0  0
    0.1120    1.6040   -1.5190 O   0  0  0  0  0  0  0  0  0  0  0  0
    2.5270    0.6430   -1.1290 C   0  0  2  0  0  0  0  0  0  0  0  0
    3.2260   -0.3560   -1.7740 O   0  0  0  0  0  0  0  0  0  0  0  0
    3.3970    1.4800   -0.3530 O   0  0  0  0  0  0  0  0  0  0  0  0
  1  2  2  0
  2  3  1  0
  2 22  1  0
  3  4  1  0
  4  5  1  6
  6  4  1  1
  6  7  1  0
  6 18  1  0
  6 20  1  0
  7  8  1  6
  7  9  1  0
  9 10  1  1
  9 11  1  0
 11 12  1  6
 11 16  1  0
 12 13  1  0
 13 14  1  0
 14 15  1  0
 15 16  1  0
 16 17  1  1
 16 18  1  0
 18 19  1  6
 20 21  1  1
 20 22  1  0
M  END
