
     RDKit          3D

 28 29  0  0  0  0  0  0  0  0999 V2000
    7.0280    0.9080   -1.3160 C   0  0  0  0  0  0  0  0  0  0  0  0
    5.8290    0.5560   -0.9320 C   0  0  0  0  0  0  0  0  0  0  0  0
    4.8220    1.3060   -0.1940 C   0  0  0  0  0  0  0  0  0  0  0  0
    4.9240    2.8870    0.1550 S   0  0  0  0  0  0  0  0  0  0  0  0
    3.7630    0.3570    0.1400 C   0  0  1  0  0  0  0  0  0  0  0  0
    2.4390    0.6810   -0.5390 C   0  0  2  0  0  0  0  0  0  0  0  0
    2.0670    1.9370   -0.1340 O   0  0  0  0  0  0  0  0  0  0  0  0
    1.4830   -0.3730   -0.1260 C   0  0  0  0  0  0  0  0  0  0  0  0
    1.6530   -1.5870   -0.4050 O   0  0  0  0  0  0  0  0  0  0  0  0
    0.3010    0.0060    0.6310 N   0  0  0  0  0  0  0  0  0  0  0  0
   -0.6250   -1.0110    1.0310 C   0  0  1  0  0  0  0  0  0  0  0  0
   -0.8950   -0.9300    2.3980 O   0  0  0  0  0  0  0  0  0  0  0  0
   -0.4570   -2.0770    3.0700 C   0  0  0  0  0  0  0  0  0  0  0  0
   -1.8740   -1.0260    0.2020 C   0  0  1  0  0  0  0  0  0  0  0  0
   -2.6920   -2.1160    0.6280 O   0  0  0  0  0  0  0  0  0  0  0  0
   -2.7810   -3.1180   -0.2950 C   0  0  0  0  0  0  0  0  0  0  0  0
   -2.6930    0.2150    0.1640 C   0  0  2  0  0  0  0  0  0  0  0  0
   -3.7450   -0.0250   -0.9010 C   0  0  0  0  0  0  0  0  0  0  0  0
   -5.1250   -0.0450   -0.6460 N   0  0  0  0  0  0  0  0  0  0  0  0
   -3.3370   -0.2170   -2.0750 O   0  0  0  0  0  0  0  0  0  0  0  0
   -1.9870    1.4720   -0.2750 C   0  0  0  0  0  0  0  0  0  0  0  0
   -3.0500    2.2800   -0.7960 O   0  0  0  0  0  0  0  0  0  0  0  0
   -3.7690    2.6740    0.3250 C   0  0  0  0  0  0  0  0  0  0  0  0
   -4.0730    1.6170    1.3160 C   0  0  0  0  0  0  0  0  0  0  0  0
   -3.2700    0.5210    1.3890 O   0  0  0  0  0  0  0  0  0  0  0  0
    4.2220   -0.9100   -0.2150 O   0  0  0  0  0  0  0  0  0  0  0  0
    5.1880   -0.7700   -1.1800 C   0  0  1  0  0  0  0  0  0  0  0  0
    4.6800   -0.7520   -2.4730 O   0  0  0  0  0  0  0  0  0  0  0  0
  1  2  2  0
  2  3  1  0
  2 27  1  0
  3  4  2  0
  3  5  1  0
  5  6  1  0
  5 26  1  6
  6  7  1  1
  6  8  1  0
  8  9  2  0
  8 10  1  0
 11 10  1  6
 11 12  1  0
 11 14  1  0
 12 13  1  0
 14 15  1  1
 14 17  1  0
 15 16  1  0
 17 18  1  6
 17 21  1  0
 17 25  1  0
 18 19  1  0
 18 20  2  0
 21 22  1  0
 22 23  1  0
 23 24  1  0
 24 25  1  0
 26 27  1  0
 27 28  1  6
M  END
