
     RDKit          3D

 21 22  0  0  0  0  0  0  0  0999 V2000
    0.4430   -2.3040   -0.5640 N   0  0  0  0  0  0  0  0  0  0  0  0
    0.1450   -1.1130    0.1830 C   0  0  2  0  0  0  0  0  0  0  0  0
   -1.1600   -1.1240    0.8660 C   0  0  0  0  0  0  0  0  0  0  0  0
   -2.4110   -1.3160    0.1250 C   0  0  1  0  0  0  0  0  0  0  0  0
   -3.6090   -1.2940    1.1300 C   0  0  0  0  0  0  0  0  0  0  0  0
   -3.7280   -0.0110    1.6370 O   0  0  0  0  0  0  0  0  0  0  0  0
   -4.0330    0.9240    0.7380 N   0  0  0  0  0  0  0  0  0  0  0  0
   -3.0130    1.0810   -0.2990 C   0  0  2  0  0  0  0  0  0  0  0  0
   -3.5620    1.8970   -1.2820 O   0  0  0  0  0  0  0  0  0  0  0  0
   -2.8140   -0.2880   -0.8940 C   0  0  0  0  0  0  0  0  0  0  0  0
    0.6070    0.1770   -0.3550 C   0  0  2  0  0  0  0  0  0  0  0  0
    0.1480    0.5040   -1.6290 O   0  0  0  0  0  0  0  0  0  0  0  0
    2.0980    0.4380   -0.2410 C   0  0  2  0  0  0  0  0  0  0  0  0
    2.8580   -0.3080   -1.0960 O   0  0  0  0  0  0  0  0  0  0  0  0
    2.5260    0.2580    1.1850 C   0  0  0  0  0  0  0  0  0  0  0  0
    3.4730    1.1490    1.6380 O   0  0  0  0  0  0  0  0  0  0  0  0
    4.7100    0.8160    1.0680 C   0  0  0  0  0  0  0  0  0  0  0  0
    4.7770    1.4560   -0.2600 C   0  0  0  0  0  0  0  0  0  0  0  0
    5.8870    1.5000   -0.7990 O   0  0  0  0  0  0  0  0  0  0  0  0
    3.7330    2.0280   -1.0000 O   0  0  0  0  0  0  0  0  0  0  0  0
    2.3190    1.8970   -0.6930 C   0  0  0  0  0  0  0  0  0  0  0  0
  2  1  1  6
  2  3  1  0
  2 11  1  0
  4  3  1  1
  4  5  1  0
  4 10  1  0
  5  6  1  0
  6  7  1  0
  7  8  1  0
  8  9  1  6
  8 10  1  0
 11 12  1  6
 11 13  1  0
 13 14  1  6
 13 15  1  0
 13 21  1  0
 15 16  1  0
 16 17  1  0
 17 18  1  0
 18 19  2  0
 18 20  1  0
 20 21  1  0
M  CHG  2   1   1   7   1
M  END
