
     RDKit          3D

 21 22  0  0  0  0  0  0  0  0999 V2000
   -3.0830   -2.3340    2.3230 C   0  0  0  0  0  0  0  0  0  0  0  0
   -1.9460   -1.6720    1.6070 C   0  0  0  0  0  0  0  0  0  0  0  0
   -0.6810   -2.1810    1.7290 C   0  0  0  0  0  0  0  0  0  0  0  0
    0.3970   -1.5800    1.0700 C   0  0  0  0  0  0  0  0  0  0  0  0
    1.6500   -2.1710    1.2530 O   0  0  0  0  0  0  0  0  0  0  0  0
    0.2380   -0.4680    0.2820 C   0  0  0  0  0  0  0  0  0  0  0  0
    1.3300    0.1720   -0.4080 C   0  0  0  0  0  0  0  0  0  0  0  0
    1.0340    1.2040   -1.1080 O   0  0  0  0  0  0  0  0  0  0  0  0
    2.7160   -0.2200   -0.3980 C   0  0  0  0  0  0  0  0  0  0  0  0
    3.6340    0.4760   -1.0940 C   0  0  0  0  0  0  0  0  0  0  0  0
    5.0500    0.2180   -1.1890 C   0  0  0  0  0  0  0  0  0  0  0  0
    5.5400    1.1450   -1.9700 C   0  0  0  0  0  0  0  0  0  0  0  0
    4.5010    2.0690   -2.4410 C   0  0  0  0  0  0  0  0  0  0  0  0
    3.3260    1.5840   -1.8490 O   0  0  0  0  0  0  0  0  0  0  0  0
   -1.0580    0.0130    0.1880 C   0  0  0  0  0  0  0  0  0  0  0  0
   -2.1300   -0.5570    0.8230 C   0  0  0  0  0  0  0  0  0  0  0  0
   -3.4400   -0.0190    0.6910 N   0  0  0  0  0  0  0  0  0  0  0  0
   -3.7420    1.1170   -0.0860 C   0  0  0  0  0  0  0  0  0  0  0  0
   -3.1790    2.3540    0.2770 N   0  0  0  0  0  0  0  0  0  0  0  0
   -4.5300    1.0410   -1.1270 C   0  0  0  0  0  0  0  0  0  0  0  0
   -4.8980    2.4630   -2.0850 Cl  0  0  0  0  0  0  0  0  0  0  0  0
  1  2  1  0
  2  3  2  0
  2 16  1  0
  3  4  1  0
  4  5  1  0
  4  6  2  0
  6  7  1  0
  6 15  1  0
  7  8  2  0
  7  9  1  0
  9 10  2  3
 10 11  1  0
 10 14  1  0
 11 12  2  0
 12 13  1  0
 13 14  1  0
 15 16  2  0
 16 17  1  0
 17 18  1  0
 18 19  1  0
 18 20  2  3
 20 21  1  0
M  END
