
     RDKit          3D

 19 20  0  0  0  0  0  0  0  0999 V2000
    5.2640   -0.4030    0.1900 C   0  0  0  0  0  0  0  0  0  0  0  0
    3.7800   -0.2720    0.1560 C   0  0  0  0  0  0  0  0  0  0  0  0
    3.1820    0.5910   -0.7140 C   0  0  0  0  0  0  0  0  0  0  0  0
    1.7920    0.7420   -0.7760 C   0  0  0  0  0  0  0  0  0  0  0  0
    1.1180    1.8840   -1.9340 Cl  0  0  0  0  0  0  0  0  0  0  0  0
    0.9740    0.0110    0.0550 C   0  0  0  0  0  0  0  0  0  0  0  0
   -0.3010    0.0280    0.1270 O   0  0  0  0  0  0  0  0  0  0  0  0
   -1.5770    0.0460    0.1980 C   0  0  0  0  0  0  0  0  0  0  0  0
   -2.1480   -0.8360    1.1760 C   0  0  0  0  0  0  0  0  0  0  0  0
   -3.4850   -0.9370    1.3780 C   0  0  0  0  0  0  0  0  0  0  0  0
   -4.1460   -2.0410    2.5990 Cl  0  0  0  0  0  0  0  0  0  0  0  0
   -4.3530   -0.1790    0.6330 C   0  0  0  0  0  0  0  0  0  0  0  0
   -5.7130   -0.3130    0.8710 O   0  0  0  0  0  0  0  0  0  0  0  0
   -3.8730    0.6760   -0.3100 C   0  0  0  0  0  0  0  0  0  0  0  0
   -2.4910    0.7760   -0.5140 C   0  0  0  0  0  0  0  0  0  0  0  0
   -2.0240    1.6730   -1.5020 N   0  0  0  0  0  0  0  0  0  0  0  0
    1.6450   -0.8870    0.9560 C   0  0  0  0  0  0  0  0  0  0  0  0
    2.9890   -1.0180    1.0000 C   0  0  0  0  0  0  0  0  0  0  0  0
    3.8140   -2.1120    2.0980 Cl  0  0  0  0  0  0  0  0  0  0  0  0
  1  2  1  0
  2  3  2  0
  2 18  1  0
  3  4  1  0
  4  5  1  0
  4  6  2  0
  6  7  1  0
  6 17  1  0
  7  8  1  0
  8  9  2  0
  8 15  1  0
  9 10  1  0
 10 11  1  0
 10 12  2  0
 12 13  1  0
 12 14  1  0
 14 15  2  0
 15 16  1  0
 17 18  2  0
 18 19  1  0
M  END
