
     RDKit          3D

 19 20  0  0  0  0  0  0  0  0999 V2000
   -1.2670   -2.3050   -2.2390 C   0  0  0  0  0  0  0  0  0  0  0  0
   -0.5490   -1.4490   -1.3710 O   0  0  0  0  0  0  0  0  0  0  0  0
   -1.2130   -0.6660   -0.4260 C   0  0  0  0  0  0  0  0  0  0  0  0
   -2.5860   -0.6960   -0.3040 C   0  0  0  0  0  0  0  0  0  0  0  0
   -3.2150    0.0890    0.6390 C   0  0  0  0  0  0  0  0  0  0  0  0
   -2.4280    0.8860    1.4340 C   0  0  0  0  0  0  0  0  0  0  0  0
   -3.0630    1.7020    2.4120 N   0  0  0  0  0  0  0  0  0  0  0  0
   -1.0450    0.9170    1.3130 C   0  0  0  0  0  0  0  0  0  0  0  0
   -0.0780    1.9540    2.3550 Cl  0  0  0  0  0  0  0  0  0  0  0  0
   -0.4050    0.1330    0.3700 C   0  0  0  0  0  0  0  0  0  0  0  0
    1.0410    0.1400    0.2150 C   0  0  0  0  0  0  0  0  0  0  0  0
    1.6020    1.0400   -0.6620 C   0  0  0  0  0  0  0  0  0  0  0  0
    2.9700    1.1160   -0.8710 C   0  0  0  0  0  0  0  0  0  0  0  0
    3.5010    2.0270   -1.7560 O   0  0  0  0  0  0  0  0  0  0  0  0
    3.8180    0.2740   -0.1900 C   0  0  0  0  0  0  0  0  0  0  0  0
    5.5670    0.3700   -0.4570 Cl  0  0  0  0  0  0  0  0  0  0  0  0
    3.2810   -0.6300    0.6870 C   0  0  0  0  0  0  0  0  0  0  0  0
    1.9080   -0.6930    0.8860 C   0  0  0  0  0  0  0  0  0  0  0  0
    1.2330   -1.8540    2.0120 Cl  0  0  0  0  0  0  0  0  0  0  0  0
  1  2  1  0
  2  3  1  0
  3  4  2  0
  3 10  1  0
  4  5  1  0
  5  6  2  0
  6  7  1  0
  6  8  1  0
  8  9  1  0
  8 10  2  0
 10 11  1  0
 11 12  2  0
 11 18  1  0
 12 13  1  0
 13 14  1  0
 13 15  2  0
 15 16  1  0
 15 17  1  0
 17 18  2  0
 18 19  1  0
M  END
