
     RDKit          3D

 19 20  0  0  0  0  0  0  0  0999 V2000
   -3.2520   -1.5050    0.2210 C   0  0  0  0  0  0  0  0  0  0  0  0
   -2.6410   -0.1780   -0.0990 C   0  0  1  0  0  0  0  0  0  0  0  0
   -3.5950    0.5770   -1.0020 C   0  0  0  0  0  0  0  0  0  0  0  0
   -2.4760    0.6070    1.1680 C   0  0  0  0  0  0  0  0  0  0  0  0
   -1.6010    0.0440    2.0580 O   0  0  0  0  0  0  0  0  0  0  0  0
   -0.6400   -0.7540    1.4920 C   0  0  0  0  0  0  0  0  0  0  0  0
   -0.1670   -0.1600    0.1860 C   0  0  1  0  0  0  0  0  0  0  0  0
    1.0120   -0.7890   -0.2820 O   0  0  0  0  0  0  0  0  0  0  0  0
    2.2060   -0.1270   -0.5430 C   0  0  0  0  0  0  0  0  0  0  0  0
    2.4430    0.3680   -1.8020 C   0  0  0  0  0  0  0  0  0  0  0  0
    1.2660    0.1760   -3.1060 Cl  0  0  0  0  0  0  0  0  0  0  0  0
    3.6350    1.0230   -2.0370 C   0  0  0  0  0  0  0  0  0  0  0  0
    4.5640    1.1760   -1.0350 C   0  0  0  0  0  0  0  0  0  0  0  0
    6.0630    2.0110   -1.3700 Cl  0  0  0  0  0  0  0  0  0  0  0  0
    4.3440    0.6870    0.2310 C   0  0  0  0  0  0  0  0  0  0  0  0
    5.5310    0.8810    1.5190 Cl  0  0  0  0  0  0  0  0  0  0  0  0
    3.1380    0.0260    0.4660 C   0  0  0  0  0  0  0  0  0  0  0  0
    2.8960   -0.4850    1.7660 N   0  0  0  0  0  0  0  0  0  0  0  0
   -1.3050   -0.2730   -0.8020 C   0  0  0  0  0  0  0  0  0  0  0  0
  2  1  1  1
  2  3  1  0
  2  4  1  0
  2 19  1  0
  4  5  1  0
  5  6  1  0
  6  7  1  0
  7  8  1  6
  7 19  1  0
  8  9  1  0
  9 10  2  0
  9 17  1  0
 10 11  1  0
 10 12  1  0
 12 13  2  0
 13 14  1  0
 13 15  1  0
 15 16  1  0
 15 17  2  0
 17 18  1  0
M  END
