
     RDKit          3D

 19 20  0  0  0  0  0  0  0  0999 V2000
   -3.7210   -1.6790    1.0180 C   0  0  0  0  0  0  0  0  0  0  0  0
   -2.5320   -1.5670    0.1470 C   0  0  0  0  0  0  0  0  0  0  0  0
   -1.9650   -0.3650   -0.1510 C   0  0  0  0  0  0  0  0  0  0  0  0
   -2.6280    0.7660    0.4540 C   0  0  0  0  0  0  0  0  0  0  0  0
   -2.3460    2.0360    0.3520 C   0  0  0  0  0  0  0  0  0  0  0  0
   -3.3710    3.1860    1.2400 Cl  0  0  0  0  0  0  0  0  0  0  0  0
   -1.0740    2.7230   -0.6000 Cl  0  0  0  0  0  0  0  0  0  0  0  0
   -0.7890   -0.4410   -0.9850 C   0  0  2  0  0  0  0  0  0  0  0  0
   -0.7110   -1.7700   -1.6220 N   0  0  0  0  0  0  0  0  0  0  0  0
    0.5030   -0.0590   -0.4130 C   0  0  0  0  0  0  0  0  0  0  0  0
    1.4730    0.6410   -1.1390 C   0  0  0  0  0  0  0  0  0  0  0  0
    2.7010    0.9730   -0.6500 C   0  0  0  0  0  0  0  0  0  0  0  0
    3.0410    0.6130    0.6280 C   0  0  0  0  0  0  0  0  0  0  0  0
    2.1290   -0.0710    1.3750 C   0  0  0  0  0  0  0  0  0  0  0  0
    0.8700   -0.4070    0.8650 C   0  0  0  0  0  0  0  0  0  0  0  0
   -0.2070   -1.2820    1.9150 Cl  0  0  0  0  0  0  0  0  0  0  0  0
    4.3450    1.0750    0.8670 O   0  0  0  0  0  0  0  0  0  0  0  0
    4.9180    1.4310   -0.3640 C   0  0  0  0  0  0  0  0  0  0  0  0
    3.8010    1.6510   -1.1800 O   0  0  0  0  0  0  0  0  0  0  0  0
  1  2  1  0
  2  3  2  3
  3  4  1  0
  3  8  1  0
  4  5  2  3
  5  6  1  0
  5  7  1  0
  8  9  1  1
  8 10  1  0
 10 11  2  0
 10 15  1  0
 11 12  1  0
 12 13  2  0
 12 19  1  0
 13 14  1  0
 13 17  1  0
 14 15  2  0
 15 16  1  0
 17 18  1  0
 18 19  1  0
M  END
