
     RDKit          3D

 19 20  0  0  0  0  0  0  0  0999 V2000
   -5.0700    1.0960   -0.9180 N   0  0  0  0  0  0  0  0  0  0  0  0
   -5.0070    0.1790    0.1930 C   0  0  0  0  0  0  0  0  0  0  0  0
   -3.6300   -0.2540    0.4290 C   0  0  0  0  0  0  0  0  0  0  0  0
   -3.4470   -1.1700    1.4860 O   0  0  0  0  0  0  0  0  0  0  0  0
   -2.5480    0.1070   -0.2230 C   0  0  0  0  0  0  0  0  0  0  0  0
   -1.2220   -0.4020    0.1120 C   0  0  0  0  0  0  0  0  0  0  0  0
   -1.0370   -1.5370    1.4310 Cl  0  0  0  0  0  0  0  0  0  0  0  0
   -0.1890    0.0230   -0.5940 C   0  0  0  0  0  0  0  0  0  0  0  0
    1.1410   -0.4780   -0.2770 C   0  0  0  0  0  0  0  0  0  0  0  0
    1.3380   -1.8260   -0.1020 C   0  0  0  0  0  0  0  0  0  0  0  0
    2.5970   -2.3030    0.2210 C   0  0  0  0  0  0  0  0  0  0  0  0
    2.9170   -4.0040    0.4550 Cl  0  0  0  0  0  0  0  0  0  0  0  0
    3.6140   -1.3880    0.3550 C   0  0  0  0  0  0  0  0  0  0  0  0
    5.2140   -1.9850    0.7680 Cl  0  0  0  0  0  0  0  0  0  0  0  0
    3.4130   -0.0270    0.1780 C   0  0  0  0  0  0  0  0  0  0  0  0
    2.1610    0.4640   -0.1450 C   0  0  0  0  0  0  0  0  0  0  0  0
    2.2000    1.8470   -0.2700 O   0  0  0  0  0  0  0  0  0  0  0  0
    3.5360    2.2720   -0.3260 C   0  0  0  0  0  0  0  0  0  0  0  0
    4.3300    1.1360    0.2700 C   0  0  0  0  0  0  0  0  0  0  0  0
  1  2  1  0
  2  3  1  0
  3  4  1  0
  3  5  2  3
  5  6  1  0
  6  7  1  0
  6  8  2  3
  8  9  1  0
  9 10  2  0
  9 16  1  0
 10 11  1  0
 11 12  1  0
 11 13  2  0
 13 14  1  0
 13 15  1  0
 15 16  2  0
 15 19  1  0
 16 17  1  0
 17 18  1  0
 18 19  1  0
M  END
