
     RDKit          3D

 19 19  0  0  0  0  0  0  0  0999 V2000
   -4.1420    1.1120   -1.2930 C   0  0  0  0  0  0  0  0  0  0  0  0
   -2.7830    0.6540   -0.8250 C   0  0  0  0  0  0  0  0  0  0  0  0
   -1.6090    1.1960   -1.0660 N   0  0  0  0  0  0  0  0  0  0  0  0
   -0.5790    0.5050   -0.4770 C   0  0  0  0  0  0  0  0  0  0  0  0
    0.7990    0.9490   -0.4580 C   0  0  0  0  0  0  0  0  0  0  0  0
    0.9500    2.2120   -0.7720 O   0  0  0  0  0  0  0  0  0  0  0  0
    2.0020    0.2780   -0.1690 C   0  0  0  0  0  0  0  0  0  0  0  0
    3.2520    1.0080   -0.0250 C   0  0  0  0  0  0  0  0  0  0  0  0
    3.4570    2.2710    0.1090 C   0  0  0  0  0  0  0  0  0  0  0  0
    4.7740    2.7590    0.2320 O   0  0  0  0  0  0  0  0  0  0  0  0
    2.1220   -1.0330   -0.2690 C   0  0  0  0  0  0  0  0  0  0  0  0
    3.3200   -1.8360    0.0180 C   0  0  2  0  0  0  0  0  0  0  0  0
    4.0130   -1.4600    1.6070 Cl  0  0  0  0  0  0  0  0  0  0  0  0
    4.5630   -1.7580   -1.2440 Cl  0  0  0  0  0  0  0  0  0  0  0  0
    2.8210   -3.5760    0.0810 Cl  0  0  0  0  0  0  0  0  0  0  0  0
   -1.1780   -0.5340    0.1750 C   0  0  0  0  0  0  0  0  0  0  0  0
   -0.6480   -1.5830    1.0910 C   0  0  0  0  0  0  0  0  0  0  0  0
   -2.5730   -0.4460   -0.0440 C   0  0  0  0  0  0  0  0  0  0  0  0
   -3.6030   -1.4010    0.4920 C   0  0  0  0  0  0  0  0  0  0  0  0
  1  2  1  0
  2  3  1  0
  2 18  2  0
  3  4  1  0
  4  5  1  0
  4 16  2  0
  5  6  2  0
  5  7  1  0
  7  8  1  0
  7 11  2  3
  8  9  2  3
  9 10  1  0
 11 12  1  0
 12 13  1  1
 12 14  1  0
 12 15  1  0
 16 17  1  0
 16 18  1  0
 18 19  1  0
M  END
