
     RDKit          3D

 15 15  0  0  0  0  0  0  0  0999 V2000
   -1.9100   -0.7230   -1.6100 N   0  0  0  0  0  0  0  0  0  0  0  0
   -2.1400    0.5370   -0.9390 C   0  0  1  0  0  0  0  0  0  0  0  0
   -3.1880    0.4090    0.1190 C   0  0  0  0  0  0  0  0  0  0  0  0
   -4.2390   -0.2910    0.0330 O   0  0  0  0  0  0  0  0  0  0  0  0
   -2.8090    1.1930    1.2150 O   0  0  0  0  0  0  0  0  0  0  0  0
   -1.6790    1.9080    0.8340 C   0  0  0  0  0  0  0  0  0  0  0  0
   -0.9420    0.8880   -0.0320 C   0  0  2  0  0  0  0  0  0  0  0  0
    0.0890    1.4700   -0.7110 O   0  0  0  0  0  0  0  0  0  0  0  0
   -0.6180   -0.3540    0.7180 C   0  0  0  0  0  0  0  0  0  0  0  0
    0.5060   -0.3250    1.6650 C   0  0  0  0  0  0  0  0  0  0  0  0
    1.7680   -0.1060    1.1430 O   0  0  0  0  0  0  0  0  0  0  0  0
    2.2540   -1.0890    0.3220 C   0  0  2  0  0  0  0  0  0  0  0  0
    3.3000   -1.7830    0.9900 O   0  0  0  0  0  0  0  0  0  0  0  0
    2.7430   -0.5750   -0.9980 C   0  0  0  0  0  0  0  0  0  0  0  0
    3.7620    0.3730   -0.8120 O   0  0  0  0  0  0  0  0  0  0  0  0
  2  1  1  1
  2  3  1  0
  2  7  1  0
  3  4  2  0
  3  5  1  0
  5  6  1  0
  6  7  1  0
  7  8  1  6
  7  9  1  0
  9 10  1  0
 10 11  1  0
 11 12  1  0
 12 13  1  1
 12 14  1  0
 14 15  1  0
M  END
