
     RDKit          3D

 22 22  0  0  0  0  0  0  0  0999 V2000
   -0.2050   -3.5880    0.6890 C   0  0  0  0  0  0  0  0  0  0  0  0
    0.6830   -2.5480    1.3100 C   0  0  0  0  0  0  0  0  0  0  0  0
    0.7350   -1.2470    0.5430 C   0  0  2  0  0  0  0  0  0  0  0  0
    1.6490   -0.3250    1.2450 N   0  0  0  0  0  0  0  0  0  0  0  0
    2.8380    0.1600    0.6510 C   0  0  0  0  0  0  0  0  0  0  0  0
    3.1470   -0.1870   -0.5030 O   0  0  0  0  0  0  0  0  0  0  0  0
    3.7240    1.0870    1.4000 C   0  0  0  0  0  0  0  0  0  0  0  0
    4.9210    1.4720    0.5700 C   0  0  0  0  0  0  0  0  0  0  0  0
    4.5270    2.1550   -0.6850 C   0  0  0  0  0  0  0  0  0  0  0  0
    5.5110    2.5750   -1.6210 N   0  0  0  0  0  0  0  0  0  0  0  0
    3.3230    2.3910   -0.9720 O   0  0  0  0  0  0  0  0  0  0  0  0
   -0.5900   -0.5940    0.4060 C   0  0  0  0  0  0  0  0  0  0  0  0
   -0.8250    0.5220    0.9850 O   0  0  0  0  0  0  0  0  0  0  0  0
   -1.6560   -1.1220   -0.3420 N   0  0  0  0  0  0  0  0  0  0  0  0
   -2.9380   -0.4800   -0.4710 C   0  0  0  0  0  0  0  0  0  0  0  0
   -3.9840   -1.0850    0.0120 C   0  0  0  0  0  0  0  0  0  0  0  0
   -5.3360   -0.5290   -0.0600 C   0  0  0  0  0  0  0  0  0  0  0  0
   -5.3690    0.7610   -0.7340 C   0  0  0  0  0  0  0  0  0  0  0  0
   -4.3500    1.3870   -1.2270 C   0  0  0  0  0  0  0  0  0  0  0  0
   -3.0070    0.7960   -1.1320 C   0  0  0  0  0  0  0  0  0  0  0  0
   -1.9650    1.4010   -1.6450 C   0  0  0  0  0  0  0  0  0  0  0  0
   -2.2110    3.0030   -2.4420 S   0  0  0  0  0  0  0  0  0  0  0  0
  1  2  1  0
  3  2  1  1
  3  4  1  0
  3 12  1  0
  4  5  1  0
  5  6  2  0
  5  7  1  0
  7  8  1  0
  8  9  1  0
  9 10  1  0
  9 11  2  0
 12 13  2  0
 12 14  1  0
 14 15  1  0
 15 16  2  0
 15 20  1  0
 16 17  1  0
 17 18  1  0
 18 19  2  0
 19 20  1  0
 20 21  2  3
 21 22  1  0
M  END
