
     RDKit          3D

 15 15  0  0  0  0  0  0  0  0999 V2000
    4.3290    0.4510   -0.5490 C   0  0  0  0  0  0  0  0  0  0  0  0
    3.1090   -0.2140   -0.0300 C   0  0  0  0  0  0  0  0  0  0  0  0
    3.2190   -1.3170    0.5530 O   0  0  0  0  0  0  0  0  0  0  0  0
    1.8070    0.3370   -0.1580 N   0  0  0  0  0  0  0  0  0  0  0  0
    0.6370   -0.3390    0.3610 C   0  0  1  0  0  0  0  0  0  0  0  0
   -0.1230    0.4770    1.3550 C   0  0  2  0  0  0  0  0  0  0  0  0
    0.3390    0.1200    2.6420 O   0  0  0  0  0  0  0  0  0  0  0  0
   -1.4760    0.2260    1.3850 O   0  0  0  0  0  0  0  0  0  0  0  0
   -2.1490    0.4290    0.2240 C   0  0  2  0  0  0  0  0  0  0  0  0
   -3.3410   -0.5110    0.1970 C   0  0  0  0  0  0  0  0  0  0  0  0
   -4.1310   -0.1920    1.3100 O   0  0  0  0  0  0  0  0  0  0  0  0
   -1.2900    0.3140   -0.9960 C   0  0  2  0  0  0  0  0  0  0  0  0
   -2.0420    0.0310   -2.1300 O   0  0  0  0  0  0  0  0  0  0  0  0
   -0.2180   -0.7180   -0.8500 C   0  0  2  0  0  0  0  0  0  0  0  0
   -0.7090   -2.0070   -0.7350 O   0  0  0  0  0  0  0  0  0  0  0  0
  1  2  1  0
  2  3  2  0
  2  4  1  0
  5  4  1  6
  5  6  1  0
  5 14  1  0
  6  7  1  1
  6  8  1  0
  8  9  1  0
  9 10  1  6
  9 12  1  0
 10 11  1  0
 12 13  1  6
 12 14  1  0
 14 15  1  1
M  END
