
     RDKit          3D

 15 15  0  0  0  0  0  0  0  0999 V2000
    4.0400   -0.2670    1.3430 N   0  0  0  0  0  0  0  0  0  0  0  0
    2.7600    0.0080    0.9280 O   0  0  0  0  0  0  0  0  0  0  0  0
    2.8470    0.4000   -0.4270 C   0  0  0  0  0  0  0  0  0  0  0  0
    1.9320   -0.4800   -1.1770 C   0  0  1  0  0  0  0  0  0  0  0  0
    2.1990   -1.8330   -0.5900 O   0  0  0  0  0  0  0  0  0  0  0  0
    0.4890   -0.3740   -1.2100 C   0  0  2  0  0  0  0  0  0  0  0  0
    0.4080    0.8990   -2.0510 O   0  0  0  0  0  0  0  0  0  0  0  0
   -0.1180    0.2130    0.0400 C   0  0  0  0  0  0  0  0  0  0  0  0
   -1.4780   -0.2230    0.2750 C   0  0  1  0  0  0  0  0  0  0  0  0
   -2.5020   -0.3580   -0.7580 C   0  0  0  0  0  0  0  0  0  0  0  0
   -3.1010    0.6820   -1.3700 O   0  0  0  0  0  0  0  0  0  0  0  0
   -1.6760   -1.1830    1.4060 C   0  0  0  0  0  0  0  0  0  0  0  0
   -2.0230   -0.4540    2.5460 O   0  0  0  0  0  0  0  0  0  0  0  0
   -2.8110    0.5340    1.9800 C   0  0  0  0  0  0  0  0  0  0  0  0
   -2.0490    0.9850    0.9680 O   0  0  0  0  0  0  0  0  0  0  0  0
  1  2  1  0
  2  3  1  0
  3  4  1  0
  4  5  1  1
  4  6  1  0
  6  7  1  6
  6  8  1  0
  9  8  1  6
  9 10  1  0
  9 12  1  0
  9 15  1  0
 10 11  1  0
 12 13  1  0
 13 14  1  0
 14 15  1  0
M  END
