
     RDKit          3D

 14 14  0  0  0  0  0  0  0  0999 V2000
    2.7120   -0.1970    0.5580 N   0  0  0  0  0  0  0  0  0  0  0  0
    1.3660   -0.2030    1.0330 C   0  0  0  0  0  0  0  0  0  0  0  0
    0.3510   -0.1130   -0.1290 C   0  0  2  0  0  0  0  0  0  0  0  0
    0.6200   -1.2990   -0.9530 C   0  0  0  0  0  0  0  0  0  0  0  0
   -0.2250   -2.1770   -1.1690 O   0  0  0  0  0  0  0  0  0  0  0  0
    1.8700   -1.4490   -1.5160 O   0  0  0  0  0  0  0  0  0  0  0  0
    0.8200    1.0810   -0.9350 C   0  0  0  0  0  0  0  0  0  0  0  0
   -0.2960    1.8590   -1.5510 C   0  0  0  0  0  0  0  0  0  0  0  0
   -1.1550    2.2360   -0.5020 O   0  0  0  0  0  0  0  0  0  0  0  0
   -1.8520    1.0960   -0.1620 C   0  0  0  0  0  0  0  0  0  0  0  0
   -0.9860    0.0190    0.4610 C   0  0  2  0  0  0  0  0  0  0  0  0
   -0.8820    0.3950    1.8300 O   0  0  0  0  0  0  0  0  0  0  0  0
   -1.8410   -1.2270    0.5050 C   0  0  0  0  0  0  0  0  0  0  0  0
   -1.2660   -2.2570    1.2430 O   0  0  0  0  0  0  0  0  0  0  0  0
  1  2  1  0
  3  2  1  1
  3  4  1  0
  3  7  1  0
  3 11  1  0
  4  5  2  0
  4  6  1  0
  7  8  1  0
  8  9  1  0
  9 10  1  0
 10 11  1  0
 11 12  1  1
 11 13  1  0
 13 14  1  0
M  END
