
     RDKit          3D

 11 11  0  0  0  0  0  0  0  0999 V2000
    0.7100   -1.9580   -0.4420 O   0  0  0  0  0  0  0  0  0  0  0  0
   -0.2190   -0.9550   -0.2540 C   0  0  0  0  0  0  0  0  0  0  0  0
   -1.5810   -1.2320   -0.4190 C   0  0  0  0  0  0  0  0  0  0  0  0
   -2.4920   -0.2090   -0.2250 C   0  0  0  0  0  0  0  0  0  0  0  0
   -2.0700    1.0710    0.1260 C   0  0  0  0  0  0  0  0  0  0  0  0
   -0.7170    1.3110    0.2810 C   0  0  0  0  0  0  0  0  0  0  0  0
   -0.2740    2.5830    0.6320 O   0  0  0  0  0  0  0  0  0  0  0  0
    0.2150    0.3000    0.0920 C   0  0  0  0  0  0  0  0  0  0  0  0
    1.6070    0.5110    0.2420 N   0  0  0  0  0  0  0  0  0  0  0  0
    2.6070   -0.4900    0.0610 C   0  0  0  0  0  0  0  0  0  0  0  0
    3.8520    0.1110    0.2970 F   0  0  0  0  0  0  0  0  0  0  0  0
  1  2  1  0
  2  3  2  0
  2  8  1  0
  3  4  1  0
  4  5  2  0
  5  6  1  0
  6  7  1  0
  6  8  2  0
  8  9  1  0
  9 10  1  0
 10 11  1  0
M  END
