
     RDKit          3D

 11 11  0  0  0  0  0  0  0  0999 V2000
   -2.9620   -1.2930    0.2190 N   0  0  0  0  0  0  0  0  0  0  0  0
   -1.7140   -0.6150    0.0430 C   0  0  0  0  0  0  0  0  0  0  0  0
   -1.7140    0.7380   -0.2730 C   0  0  0  0  0  0  0  0  0  0  0  0
   -0.5640    1.4540   -0.4570 C   0  0  0  0  0  0  0  0  0  0  0  0
   -0.6150    2.7960   -0.7700 O   0  0  0  0  0  0  0  0  0  0  0  0
    0.6530    0.7870   -0.3180 C   0  0  0  0  0  0  0  0  0  0  0  0
    0.6470   -0.5530   -0.0050 C   0  0  0  0  0  0  0  0  0  0  0  0
    1.8590   -1.2170    0.1320 O   0  0  0  0  0  0  0  0  0  0  0  0
    3.0620   -0.5260   -0.0550 C   0  0  0  0  0  0  0  0  0  0  0  0
    3.0760   -0.0480   -1.3490 F   0  0  0  0  0  0  0  0  0  0  0  0
   -0.5170   -1.2700    0.1790 C   0  0  0  0  0  0  0  0  0  0  0  0
  1  2  1  0
  2  3  2  0
  2 11  1  0
  3  4  1  0
  4  5  1  0
  4  6  2  0
  6  7  1  0
  7  8  1  0
  7 11  2  0
  8  9  1  0
  9 10  1  0
M  END
