
     RDKit          3D

 11 11  0  0  0  0  0  0  0  0999 V2000
   -3.0700   -0.5140   -0.0500 C   0  0  0  0  0  0  0  0  0  0  0  0
   -2.3060    0.6730   -0.0240 O   0  0  0  0  0  0  0  0  0  0  0  0
   -0.9220    0.6440   -0.0470 C   0  0  0  0  0  0  0  0  0  0  0  0
   -0.2880   -0.5780   -0.0980 C   0  0  0  0  0  0  0  0  0  0  0  0
    1.0960   -0.6830   -0.1250 C   0  0  0  0  0  0  0  0  0  0  0  0
    1.6910   -1.9680   -0.1770 N   0  0  0  0  0  0  0  0  0  0  0  0
    1.8280    0.4740   -0.0980 C   0  0  0  0  0  0  0  0  0  0  0  0
    3.1980    0.4320   -0.1220 O   0  0  0  0  0  0  0  0  0  0  0  0
    1.2040    1.6980   -0.0470 C   0  0  0  0  0  0  0  0  0  0  0  0
   -0.1900    1.8050   -0.0210 C   0  0  0  0  0  0  0  0  0  0  0  0
   -0.7880    3.0170    0.0290 F   0  0  0  0  0  0  0  0  0  0  0  0
  1  2  1  0
  2  3  1  0
  3  4  2  0
  3 10  1  0
  4  5  1  0
  5  6  1  0
  5  7  2  0
  7  8  1  0
  7  9  1  0
  9 10  2  0
 10 11  1  0
M  END
