
     RDKit          3D

 11 11  0  0  0  0  0  0  0  0999 V2000
    0.3380    2.0320    0.6350 N   0  0  0  0  0  0  0  0  0  0  0  0
   -0.2990    0.8100    0.3080 C   0  0  0  0  0  0  0  0  0  0  0  0
   -1.6790    0.6500    0.4780 C   0  0  0  0  0  0  0  0  0  0  0  0
   -2.4060    1.6880    0.9640 F   0  0  0  0  0  0  0  0  0  0  0  0
   -2.2530   -0.5590    0.1440 C   0  0  0  0  0  0  0  0  0  0  0  0
   -1.4470   -1.5620   -0.3420 C   0  0  0  0  0  0  0  0  0  0  0  0
   -0.0780   -1.4260   -0.5190 C   0  0  0  0  0  0  0  0  0  0  0  0
    0.4820   -0.2140   -0.1820 C   0  0  0  0  0  0  0  0  0  0  0  0
    1.9180   -0.0080   -0.3450 C   0  0  0  0  0  0  0  0  0  0  0  0
    2.4640    1.0890   -0.0470 O   0  0  0  0  0  0  0  0  0  0  0  0
    2.7590   -0.9990   -0.8330 O   0  0  0  0  0  0  0  0  0  0  0  0
  1  2  1  0
  2  3  2  0
  2  8  1  0
  3  4  1  0
  3  5  1  0
  5  6  2  0
  6  7  1  0
  7  8  2  0
  8  9  1  0
  9 10  2  0
  9 11  1  0
M  END
