
     RDKit          3D

 11 11  0  0  0  0  0  0  0  0999 V2000
   -0.3110    2.6460   -0.0800 N   0  0  0  0  0  0  0  0  0  0  0  0
    0.3060    1.3650   -0.1020 C   0  0  0  0  0  0  0  0  0  0  0  0
    1.6690    1.1840   -0.2260 C   0  0  0  0  0  0  0  0  0  0  0  0
    2.2340   -0.0760   -0.2430 C   0  0  0  0  0  0  0  0  0  0  0  0
    1.4680   -1.2170   -0.1370 C   0  0  0  0  0  0  0  0  0  0  0  0
    2.0310   -2.4990   -0.1530 O   0  0  0  0  0  0  0  0  0  0  0  0
    0.1060   -1.0310   -0.0140 C   0  0  0  0  0  0  0  0  0  0  0  0
   -0.4770    0.2230    0.0050 C   0  0  0  0  0  0  0  0  0  0  0  0
   -1.8620    0.3630    0.1320 O   0  0  0  0  0  0  0  0  0  0  0  0
   -2.6670   -0.7740    0.2410 C   0  0  0  0  0  0  0  0  0  0  0  0
   -2.5870   -1.6260   -0.8300 F   0  0  0  0  0  0  0  0  0  0  0  0
  1  2  1  0
  2  3  2  0
  2  8  1  0
  3  4  1  0
  4  5  2  0
  5  6  1  0
  5  7  1  0
  7  8  2  0
  8  9  1  0
  9 10  1  0
 10 11  1  0
M  END
