
     RDKit          3D

 11 11  0  0  0  0  0  0  0  0999 V2000
    2.1070   -2.0320    1.0110 O   0  0  0  0  0  0  0  0  0  0  0  0
    2.6450   -0.9750    0.6360 C   0  0  0  0  0  0  0  0  0  0  0  0
    1.8490    0.0770    0.1400 N   0  0  0  0  0  0  0  0  0  0  0  0
    0.4540    0.1210   -0.0070 C   0  0  0  0  0  0  0  0  0  0  0  0
   -0.4200   -0.8900    0.3190 C   0  0  0  0  0  0  0  0  0  0  0  0
   -1.8070   -0.8030    0.1560 C   0  0  0  0  0  0  0  0  0  0  0  0
   -2.5580   -1.7650    0.4730 O   0  0  0  0  0  0  0  0  0  0  0  0
   -2.2890    0.3380   -0.3470 N   0  0  0  0  0  0  0  0  0  0  0  0
   -1.4790    1.3520   -0.6800 C   0  0  0  0  0  0  0  0  0  0  0  0
   -0.1120    1.2840   -0.5260 C   0  0  0  0  0  0  0  0  0  0  0  0
    0.6960    2.3240   -0.8700 F   0  0  0  0  0  0  0  0  0  0  0  0
  1  2  2  0
  2  3  1  0
  3  4  1  0
  4  5  2  0
  4 10  1  0
  5  6  1  0
  6  7  2  0
  6  8  1  0
  8  9  1  0
  9 10  2  0
 10 11  1  0
M  END
