
     RDKit          3D

 22 23  0  0  0  0  0  0  0  0999 V2000
    5.4800    1.1360   -1.9070 C   0  0  0  0  0  0  0  0  0  0  0  0
    4.7210    0.7830   -0.7910 O   0  0  0  0  0  0  0  0  0  0  0  0
    4.7130   -0.6120   -0.6230 C   0  0  1  0  0  0  0  0  0  0  0  0
    5.1440   -0.9120    0.6680 O   0  0  0  0  0  0  0  0  0  0  0  0
    3.2470   -1.0280   -0.7010 C   0  0  2  0  0  0  0  0  0  0  0  0
    2.8070   -0.6240   -1.9770 O   0  0  0  0  0  0  0  0  0  0  0  0
    2.5270   -0.2500    0.3830 C   0  0  0  0  0  0  0  0  0  0  0  0
    1.1740   -0.5080    0.2440 O   0  0  0  0  0  0  0  0  0  0  0  0
    0.3910    0.1460    1.1780 C   0  0  1  0  0  0  0  0  0  0  0  0
   -0.5250    0.9930    0.5050 N   0  0  0  0  0  0  0  0  0  0  0  0
   -1.8960    0.8530    0.8200 C   0  0  1  0  0  0  0  0  0  0  0  0
   -2.4170   -0.1820    0.0470 O   0  0  0  0  0  0  0  0  0  0  0  0
   -3.3710    0.2960   -0.8140 C   0  0  1  0  0  0  0  0  0  0  0  0
   -2.7710    1.2440   -1.6400 O   0  0  0  0  0  0  0  0  0  0  0  0
   -3.9830   -0.7550   -1.6880 C   0  0  0  0  0  0  0  0  0  0  0  0
   -5.2290   -1.1230   -0.9380 C   0  0  0  0  0  0  0  0  0  0  0  0
   -5.5530   -0.1080   -0.0860 O   0  0  0  0  0  0  0  0  0  0  0  0
   -4.5760    0.8450   -0.0850 C   0  0  0  0  0  0  0  0  0  0  0  0
   -2.2290    0.6130    2.1190 O   0  0  0  0  0  0  0  0  0  0  0  0
   -1.2340    0.1530    2.9360 C   0  0  0  0  0  0  0  0  0  0  0  0
   -0.3540   -0.7780    2.0900 C   0  0  2  0  0  0  0  0  0  0  0  0
    0.4540   -1.4620    2.9810 O   0  0  0  0  0  0  0  0  0  0  0  0
  1  2  1  0
  2  3  1  0
  3  4  1  1
  3  5  1  0
  5  6  1  6
  5  7  1  0
  7  8  1  0
  9  8  1  6
  9 10  1  0
  9 21  1  0
 10 11  1  0
 11 12  1  6
 11 19  1  0
 12 13  1  0
 13 14  1  6
 13 15  1  0
 13 18  1  0
 15 16  1  0
 16 17  1  0
 17 18  1  0
 19 20  1  0
 20 21  1  0
 21 22  1  1
M  END
