
     RDKit          3D

 10 10  0  0  0  0  0  0  0  0999 V2000
    2.9110    0.3190    0.3340 N   0  0  0  0  0  0  0  0  0  0  0  0
    2.3130   -0.1910   -0.8420 C   0  0  0  0  0  0  0  0  0  0  0  0
    3.0380   -1.0040   -1.5280 O   0  0  0  0  0  0  0  0  0  0  0  0
    0.9420    0.1870   -1.2480 C   0  0  0  0  0  0  0  0  0  0  0  0
   -0.1090   -0.3690   -0.3320 C   0  0  2  0  0  0  0  0  0  0  0  0
   -0.0980   -1.7270   -0.2630 O   0  0  0  0  0  0  0  0  0  0  0  0
   -1.4640    0.1580   -0.8300 C   0  0  0  0  0  0  0  0  0  0  0  0
   -2.3700   -0.1530    0.3450 C   0  0  0  0  0  0  0  0  0  0  0  0
   -1.4790    0.0300    1.5320 C   0  0  0  0  0  0  0  0  0  0  0  0
   -0.0670    0.2420    1.0370 C   0  0  0  0  0  0  0  0  0  0  0  0
  1  2  1  0
  2  3  2  0
  2  4  1  0
  4  5  1  0
  5  6  1  1
  5  7  1  0
  5 10  1  0
  7  8  1  0
  8  9  1  0
  9 10  1  0
M  END
