
     RDKit          3D

 22 22  0  0  0  0  0  0  0  0999 V2000
    2.1530   -1.1070   -2.4850 C   0  0  0  0  0  0  0  0  0  0  0  0
    2.2310   -0.4230   -1.1370 C   0  0  2  0  0  0  0  0  0  0  0  0
    3.6370   -0.4000   -0.5920 C   0  0  0  0  0  0  0  0  0  0  0  0
    4.6220    0.3110   -1.4600 C   0  0  2  0  0  0  0  0  0  0  0  0
    4.7400   -0.2550   -2.7270 O   0  0  0  0  0  0  0  0  0  0  0  0
    5.8690    0.2110   -0.8430 O   0  0  0  0  0  0  0  0  0  0  0  0
    4.2890    1.7870   -1.5470 C   0  0  0  0  0  0  0  0  0  0  0  0
    4.1630    2.3550   -0.2840 O   0  0  0  0  0  0  0  0  0  0  0  0
    1.4350   -1.2030   -0.2350 N   0  0  0  0  0  0  0  0  0  0  0  0
    0.2620   -0.6340    0.3330 C   0  0  0  0  0  0  0  0  0  0  0  0
   -0.0150    0.5440    0.0040 O   0  0  0  0  0  0  0  0  0  0  0  0
   -0.5910   -1.4040    1.2710 C   0  0  0  0  0  0  0  0  0  0  0  0
   -1.6310   -0.7240    1.6850 O   0  0  0  0  0  0  0  0  0  0  0  0
   -2.6170   -0.2410    0.8920 C   0  0  1  0  0  0  0  0  0  0  0  0
   -3.9500   -0.8940    1.0820 C   0  0  2  0  0  0  0  0  0  0  0  0
   -3.9210   -2.0950    0.3380 O   0  0  0  0  0  0  0  0  0  0  0  0
   -5.1580   -0.1320    0.6720 C   0  0  2  0  0  0  0  0  0  0  0  0
   -5.8010   -0.7460   -0.4040 O   0  0  0  0  0  0  0  0  0  0  0  0
   -4.9100    1.1950    0.2980 O   0  0  0  0  0  0  0  0  0  0  0  0
   -4.1250    1.7360    1.3240 C   0  0  0  0  0  0  0  0  0  0  0  0
   -2.7170    1.2450    1.0260 C   0  0  1  0  0  0  0  0  0  0  0  0
   -1.9530    1.6360    2.1430 O   0  0  0  0  0  0  0  0  0  0  0  0
  2  1  1  6
  2  3  1  0
  2  9  1  0
  3  4  1  0
  4  5  1  6
  4  6  1  0
  4  7  1  0
  7  8  1  0
  9 10  1  0
 10 11  2  0
 10 12  1  0
 12 13  1  0
 14 13  1  1
 14 15  1  0
 14 21  1  0
 15 16  1  6
 15 17  1  0
 17 18  1  6
 17 19  1  0
 19 20  1  0
 20 21  1  0
 21 22  1  1
M  END
