
     RDKit          3D

 22 22  0  0  0  0  0  0  0  0999 V2000
    4.8340   -0.7180   -0.6200 N   0  0  0  0  0  0  0  0  0  0  0  0
    3.8500   -1.5080   -0.7960 C   0  0  0  0  0  0  0  0  0  0  0  0
    3.6830   -2.1330   -2.0130 O   0  0  0  0  0  0  0  0  0  0  0  0
    2.8940   -1.7540    0.2970 C   0  0  0  0  0  0  0  0  0  0  0  0
    1.4950   -1.3440   -0.1080 C   0  0  1  0  0  0  0  0  0  0  0  0
    0.5590   -1.6160    1.0430 C   0  0  0  0  0  0  0  0  0  0  0  0
   -0.7600   -1.6280    0.5840 O   0  0  0  0  0  0  0  0  0  0  0  0
   -1.5700   -0.7780    1.3350 C   0  0  0  0  0  0  0  0  0  0  0  0
   -2.5590   -0.1150    0.4030 C   0  0  1  0  0  0  0  0  0  0  0  0
   -2.1030   -0.1880   -0.9340 O   0  0  0  0  0  0  0  0  0  0  0  0
   -3.7530   -0.7930    0.4600 O   0  0  0  0  0  0  0  0  0  0  0  0
   -3.5390   -2.1120    0.0770 C   0  0  0  0  0  0  0  0  0  0  0  0
   -3.0360   -2.1220   -1.2350 O   0  0  0  0  0  0  0  0  0  0  0  0
   -2.6900    1.3340    0.8230 C   0  0  2  0  0  0  0  0  0  0  0  0
   -4.0080    1.7460    0.9200 O   0  0  0  0  0  0  0  0  0  0  0  0
   -1.9230    2.1820   -0.1950 C   0  0  0  0  0  0  0  0  0  0  0  0
   -0.6470    1.6360   -0.3310 O   0  0  0  0  0  0  0  0  0  0  0  0
    0.2450    2.6470   -0.6380 C   0  0  0  0  0  0  0  0  0  0  0  0
    1.6810    2.2620   -0.3660 C   0  0  2  0  0  0  0  0  0  0  0  0
    2.4250    2.3060   -1.5380 O   0  0  0  0  0  0  0  0  0  0  0  0
    1.7860    0.9120    0.3090 C   0  0  0  0  0  0  0  0  0  0  0  0
    1.4250   -0.0640   -0.5890 O   0  0  0  0  0  0  0  0  0  0  0  0
  1  2  2  0
  2  3  1  0
  2  4  1  0
  5  4  1  1
  5  6  1  0
  5 22  1  0
  6  7  1  0
  7  8  1  0
  8  9  1  0
  9 10  1  6
  9 11  1  0
  9 14  1  0
 11 12  1  0
 12 13  1  0
 14 15  1  6
 14 16  1  0
 16 17  1  0
 17 18  1  0
 18 19  1  0
 19 20  1  6
 19 21  1  0
 21 22  1  0
M  END
