
     RDKit          3D

 20 21  0  0  0  0  0  0  0  0999 V2000
   -2.9960   -2.0200    2.3940 O   0  0  0  0  0  0  0  0  0  0  0  0
   -3.2080   -1.4740    1.2960 C   0  0  0  0  0  0  0  0  0  0  0  0
   -4.4550   -1.6180    0.6570 N   0  0  0  0  0  0  0  0  0  0  0  0
   -4.8940   -0.6450   -0.3380 C   0  0  0  0  0  0  0  0  0  0  0  0
   -4.0760    0.6240   -0.2020 C   0  0  2  0  0  0  0  0  0  0  0  0
   -4.3660    1.4650   -1.2660 O   0  0  0  0  0  0  0  0  0  0  0  0
   -2.5770    0.3400   -0.2430 C   0  0  0  0  0  0  0  0  0  0  0  0
   -2.1740   -0.6900    0.6690 N   0  0  0  0  0  0  0  0  0  0  0  0
   -0.8600   -0.9930    0.9860 C   0  0  0  0  0  0  0  0  0  0  0  0
   -0.6770   -1.9340    1.8600 O   0  0  0  0  0  0  0  0  0  0  0  0
    0.3500   -0.3630    0.4380 C   0  0  0  0  0  0  0  0  0  0  0  0
    0.5200    0.5830   -0.4430 C   0  0  0  0  0  0  0  0  0  0  0  0
    1.9130    0.8180   -0.6140 O   0  0  0  0  0  0  0  0  0  0  0  0
    2.5260   -0.4120   -0.2140 C   0  0  1  0  0  0  0  0  0  0  0  0
    3.8920   -0.1360    0.4080 C   0  0  0  0  0  0  0  0  0  0  0  0
    4.7210    0.5070   -0.5290 O   0  0  0  0  0  0  0  0  0  0  0  0
    6.2370    0.7740    0.2700 P   0  0  0  0  0  0  0  0  0  0  0  0
    6.0380    1.6740    1.7350 O   0  0  0  0  0  0  0  0  0  0  0  0
    7.4120    1.4810   -0.7760 O   0  0  0  0  0  0  0  0  0  0  0  0
    1.6620   -0.7480    0.8470 O   0  0  0  0  0  0  0  0  0  0  0  0
  1  2  2  0
  2  3  1  0
  2  8  1  0
  3  4  1  0
  4  5  1  0
  5  6  1  6
  5  7  1  0
  7  8  1  0
  8  9  1  0
  9 10  2  0
  9 11  1  0
 11 12  2  0
 11 20  1  0
 12 13  1  0
 13 14  1  0
 14 15  1  1
 14 20  1  0
 15 16  1  0
 16 17  1  0
 17 18  1  0
 17 19  1  0
M  END
