
     RDKit          3D

 20 21  0  0  0  0  0  0  0  0999 V2000
   -1.9460   -1.3520    0.6010 N   0  0  0  0  0  0  0  0  0  0  0  0
   -2.4870   -0.1660    0.0700 C   0  0  2  0  0  0  0  0  0  0  0  0
   -1.5850    0.7850   -0.5970 C   0  0  0  0  0  0  0  0  0  0  0  0
   -0.2820    0.7880   -0.6130 C   0  0  0  0  0  0  0  0  0  0  0  0
    0.6840   -0.1240    0.0090 C   0  0  0  0  0  0  0  0  0  0  0  0
    0.4330   -1.1100    0.7030 O   0  0  0  0  0  0  0  0  0  0  0  0
    2.0960    0.1330   -0.1940 N   0  0  0  0  0  0  0  0  0  0  0  0
    3.0870   -0.7660    0.4180 C   0  0  0  0  0  0  0  0  0  0  0  0
    4.3220   -0.2880    0.0610 O   0  0  0  0  0  0  0  0  0  0  0  0
    5.6440   -1.1830    0.6640 P   0  0  0  0  0  0  0  0  0  0  0  0
    6.9440   -0.1940    1.2350 O   0  0  0  0  0  0  0  0  0  0  0  0
    5.2170   -2.3760    1.8220 O   0  0  0  0  0  0  0  0  0  0  0  0
    0.1430    1.9790   -1.4470 C   0  0  0  0  0  0  0  0  0  0  0  0
   -1.0260    2.6320   -1.8310 O   0  0  0  0  0  0  0  0  0  0  0  0
   -2.1270    1.9500   -1.3660 C   0  0  0  0  0  0  0  0  0  0  0  0
   -3.3420    2.2310   -1.5390 O   0  0  0  0  0  0  0  0  0  0  0  0
   -3.3140    0.5090    1.1580 C   0  0  0  0  0  0  0  0  0  0  0  0
   -4.4900   -0.2870    1.1320 O   0  0  0  0  0  0  0  0  0  0  0  0
   -4.7070   -0.3490   -0.2180 C   0  0  0  0  0  0  0  0  0  0  0  0
   -3.5190   -0.4900   -0.8360 O   0  0  0  0  0  0  0  0  0  0  0  0
  2  1  1  1
  2  3  1  0
  2 17  1  0
  2 20  1  0
  3  4  2  0
  3 15  1  0
  4  5  1  0
  4 13  1  0
  5  6  2  0
  5  7  1  0
  7  8  1  0
  8  9  1  0
  9 10  1  0
 10 11  1  0
 10 12  1  0
 13 14  1  0
 14 15  1  0
 15 16  2  0
 17 18  1  0
 18 19  1  0
 19 20  1  0
M  END
