
     RDKit          3D

 20 20  0  0  0  0  0  0  0  0999 V2000
    6.3330   -0.8540    0.2580 C   0  0  0  0  0  0  0  0  0  0  0  0
    4.9210   -1.0470    0.4430 O   0  0  0  0  0  0  0  0  0  0  0  0
    4.0070   -0.1530   -0.1050 C   0  0  0  0  0  0  0  0  0  0  0  0
    4.4240    0.8320   -0.7700 O   0  0  0  0  0  0  0  0  0  0  0  0
    2.6360   -0.2830    0.0360 O   0  0  0  0  0  0  0  0  0  0  0  0
    1.7420    0.6370   -0.5310 C   0  0  0  0  0  0  0  0  0  0  0  0
    2.2600    1.5840   -1.1740 O   0  0  0  0  0  0  0  0  0  0  0  0
    0.3370    0.4980   -0.3810 N   0  0  0  0  0  0  0  0  0  0  0  0
   -0.6150    1.4300   -0.9530 C   0  0  0  0  0  0  0  0  0  0  0  0
   -1.8320    1.2320   -0.0640 C   0  0  1  0  0  0  0  0  0  0  0  0
   -3.3220    1.8480   -0.9330 P   0  0  0  0  0  0  0  0  0  0  0  0
   -2.9740    3.4320   -1.5630 O   0  0  0  0  0  0  0  0  0  0  0  0
   -3.7470    0.8210   -2.2480 O   0  0  0  0  0  0  0  0  0  0  0  0
   -1.8190   -0.2930    0.0660 C   0  0  2  0  0  0  0  0  0  0  0  0
   -2.7440   -0.7370    1.1560 C   0  0  0  0  0  0  0  0  0  0  0  0
   -4.0880   -0.2690    0.7890 N   0  0  0  0  0  0  0  0  0  0  0  0
   -0.3750   -0.5530    0.3390 C   0  0  1  0  0  0  0  0  0  0  0  0
    0.0500   -1.8750   -0.1310 C   0  0  0  0  0  0  0  0  0  0  0  0
    0.9120   -1.9660   -1.0310 O   0  0  0  0  0  0  0  0  0  0  0  0
   -0.4840   -3.0290    0.4020 O   0  0  0  0  0  0  0  0  0  0  0  0
  1  2  1  0
  2  3  1  0
  3  4  2  0
  3  5  1  0
  5  6  1  0
  6  7  2  0
  6  8  1  0
  8  9  1  0
  8 17  1  0
  9 10  1  0
 10 11  1  6
 10 14  1  0
 11 12  1  0
 11 13  1  0
 14 15  1  1
 14 17  1  0
 15 16  1  0
 17 18  1  6
 18 19  2  0
 18 20  1  0
M  END
