
     RDKit          3D

 34 38  0  0  0  0  0  0  0  0999 V2000
   -0.6620   -3.1190   -1.5840 O   0  0  0  0  0  0  0  0  0  0  0  0
   -0.2160   -2.0300   -1.1750 C   0  0  0  0  0  0  0  0  0  0  0  0
   -1.0030   -1.1980   -0.3740 N   0  0  0  0  0  0  0  0  0  0  0  0
   -2.3150   -1.4090    0.0860 C   0  0  0  0  0  0  0  0  0  0  0  0
   -2.9510   -2.6180   -0.0230 C   0  0  0  0  0  0  0  0  0  0  0  0
   -4.2350   -2.8050    0.5110 C   0  0  0  0  0  0  0  0  0  0  0  0
   -4.8800   -1.7780    1.1570 C   0  0  0  0  0  0  0  0  0  0  0  0
   -6.2250   -1.9900    1.7130 C   0  0  0  0  0  0  0  0  0  0  0  0
   -6.9470   -3.1170    1.6640 N   0  0  0  0  0  0  0  0  0  0  0  0
   -8.0840   -2.8640    2.2810 N   0  0  0  0  0  0  0  0  0  0  0  0
   -8.0830   -1.6190    2.7070 N   0  0  0  0  0  0  0  0  0  0  0  0
   -6.9570   -1.0770    2.3680 N   0  0  0  0  0  0  0  0  0  0  0  0
   -4.2460   -0.5810    1.2620 C   0  0  0  0  0  0  0  0  0  0  0  0
   -2.9600   -0.3590    0.7360 C   0  0  0  0  0  0  0  0  0  0  0  0
   -2.3740    0.9950    0.8440 C   0  0  0  0  0  0  0  0  0  0  0  0
   -2.6420    1.7120   -0.4370 C   0  0  0  0  0  0  0  0  0  0  0  0
   -1.7180    1.9350   -1.4080 C   0  0  0  0  0  0  0  0  0  0  0  0
   -2.0670    2.5990   -2.5740 C   0  0  0  0  0  0  0  0  0  0  0  0
   -3.3520    3.0490   -2.7780 C   0  0  0  0  0  0  0  0  0  0  0  0
   -4.2840    2.8160   -1.7800 C   0  0  0  0  0  0  0  0  0  0  0  0
   -3.9590    2.1590   -0.6170 C   0  0  0  0  0  0  0  0  0  0  0  0
    1.1680   -1.6570   -1.5690 C   0  0  0  0  0  0  0  0  0  0  0  0
    1.9270   -2.4980   -2.3520 C   0  0  0  0  0  0  0  0  0  0  0  0
    3.2200   -2.1700   -2.7300 C   0  0  0  0  0  0  0  0  0  0  0  0
    3.7780   -0.9780   -2.3230 C   0  0  0  0  0  0  0  0  0  0  0  0
    2.9940   -0.1590   -1.5410 C   0  0  0  0  0  0  0  0  0  0  0  0
    3.5240    1.1260   -1.0750 C   0  0  0  0  0  0  0  0  0  0  0  0
    4.2320    1.0770    0.2360 C   0  0  2  0  0  0  0  0  0  0  0  0
    5.4180    0.1760    0.2720 C   0  0  0  0  0  0  0  0  0  0  0  0
    6.3510    0.6690    1.3590 C   0  0  0  0  0  0  0  0  0  0  0  0
    5.5470    1.3460    2.4140 C   0  0  0  0  0  0  0  0  0  0  0  0
    4.1840    0.7410    2.6430 C   0  0  0  0  0  0  0  0  0  0  0  0
    3.3350    0.7180    1.3900 C   0  0  0  0  0  0  0  0  0  0  0  0
    1.7380   -0.5020   -1.1870 N   0  0  0  0  0  0  0  0  0  0  0  0
  1  2  2  0
  2  3  1  0
  2 22  1  0
  3  4  1  0
  4  5  2  0
  4 14  1  0
  5  6  1  0
  6  7  2  0
  7  8  1  0
  7 13  1  0
  8  9  2  0
  8 12  1  0
  9 10  1  0
 10 11  2  0
 11 12  1  0
 13 14  2  0
 14 15  1  0
 15 16  1  0
 16 17  2  0
 16 21  1  0
 17 18  1  0
 18 19  2  0
 19 20  1  0
 20 21  2  0
 22 23  2  0
 22 34  1  0
 23 24  1  0
 24 25  2  0
 25 26  1  0
 26 27  1  0
 26 34  2  0
 28 27  1  6
 28 29  1  0
 28 33  1  0
 29 30  1  0
 30 31  1  0
 31 32  1  0
 32 33  1  0
M  END
