
     RDKit          3D

 35 38  0  0  0  0  0  0  0  0999 V2000
   -2.1750   -4.0410    1.2790 C   0  0  0  0  0  0  0  0  0  0  0  0
   -3.0250   -2.9760    0.6590 C   0  0  0  0  0  0  0  0  0  0  0  0
   -4.3190   -3.2250    0.5700 C   0  0  0  0  0  0  0  0  0  0  0  0
   -5.2610   -2.2530   -0.0200 C   0  0  0  0  0  0  0  0  0  0  0  0
   -4.6090   -1.0590   -0.5060 N   0  0  0  0  0  0  0  0  0  0  0  0
   -3.2280   -0.8290   -0.3840 C   0  0  0  0  0  0  0  0  0  0  0  0
   -2.5470    0.4400   -0.8500 C   0  0  0  0  0  0  0  0  0  0  0  0
   -2.5270    1.4780    0.2140 C   0  0  1  0  0  0  0  0  0  0  0  0
   -4.0420    1.6890    0.5180 C   0  0  0  0  0  0  0  0  0  0  0  0
   -2.0090    0.9960    1.5590 C   0  0  0  0  0  0  0  0  0  0  0  0
   -2.0220    2.8010   -0.1770 C   0  0  0  0  0  0  0  0  0  0  0  0
   -2.8610    3.9380   -0.1020 C   0  0  0  0  0  0  0  0  0  0  0  0
   -2.4920    5.1990   -0.4460 C   0  0  0  0  0  0  0  0  0  0  0  0
   -1.2200    5.3990   -0.9010 C   0  0  0  0  0  0  0  0  0  0  0  0
   -0.7200    7.0160   -1.3470 Cl  0  0  0  0  0  0  0  0  0  0  0  0
   -0.3760    4.3300   -0.9910 C   0  0  0  0  0  0  0  0  0  0  0  0
    1.0020    4.5840   -1.5070 C   0  0  0  0  0  0  0  0  0  0  0  0
   -0.7550    3.0080   -0.6330 C   0  0  0  0  0  0  0  0  0  0  0  0
    0.4120    1.7720   -0.8110 S   0  0  2  0  0  0  0  0  0  0  0  0
    0.4900    0.7400    0.2670 O   0  0  0  0  0  0  0  0  0  0  0  0
    1.8060    2.4400   -0.6460 O   0  0  0  0  0  0  0  0  0  0  0  0
    0.5020    1.1000   -2.3470 O   0  0  0  0  0  0  0  0  0  0  0  0
    1.8120    0.8720   -2.6940 C   0  0  0  0  0  0  0  0  0  0  0  0
    2.5480   -0.0540   -1.8140 C   0  0  0  0  0  0  0  0  0  0  0  0
    2.0040   -1.1620   -1.2160 C   0  0  0  0  0  0  0  0  0  0  0  0
    2.7260   -2.0010   -0.4090 C   0  0  0  0  0  0  0  0  0  0  0  0
    4.0700   -1.7520   -0.1640 C   0  0  0  0  0  0  0  0  0  0  0  0
    4.8570   -2.6510    0.6960 C   0  0  0  0  0  0  0  0  0  0  0  0
    6.1350   -2.4710    0.9680 C   0  0  0  0  0  0  0  0  0  0  0  0
    6.6240   -3.5560    1.8630 C   0  0  0  0  0  0  0  0  0  0  0  0
    5.4200   -4.3780    2.0550 C   0  0  0  0  0  0  0  0  0  0  0  0
    4.3940   -3.8610    1.3820 C   0  0  0  0  0  0  0  0  0  0  0  0
    4.6500   -0.6450   -0.7500 C   0  0  0  0  0  0  0  0  0  0  0  0
    3.9040    0.1790   -1.5530 C   0  0  0  0  0  0  0  0  0  0  0  0
   -2.4950   -1.7620    0.1750 N   0  0  0  0  0  0  0  0  0  0  0  0
  1  2  1  0
  2  3  2  0
  2 35  1  0
  3  4  1  0
  4  5  1  0
  5  6  1  0
  6  7  1  0
  6 35  2  0
  7  8  1  0
  8  9  1  1
  8 10  1  0
  8 11  1  0
 11 12  2  0
 11 18  1  0
 12 13  1  0
 13 14  2  0
 14 15  1  0
 14 16  1  0
 16 17  1  0
 16 18  2  0
 18 19  1  0
 19 20  2  0
 19 21  2  0
 19 22  1  6
 22 23  1  0
 23 24  1  0
 24 25  2  0
 24 34  1  0
 25 26  1  0
 26 27  2  0
 27 28  1  0
 27 33  1  0
 28 29  2  0
 28 32  1  0
 29 30  1  0
 30 31  1  0
 31 32  2  0
 33 34  2  0
M  END
