
     RDKit          3D

 34 38  0  0  0  0  0  0  0  0999 V2000
   10.0420   -3.6200   -0.8310 N   0  0  0  0  0  0  0  0  0  0  0  0
    9.6880   -2.5130   -0.7450 C   0  0  0  0  0  0  0  0  0  0  0  0
    9.2640   -1.1410   -0.6180 C   0  0  0  0  0  0  0  0  0  0  0  0
    9.7230   -0.1710   -1.4890 C   0  0  0  0  0  0  0  0  0  0  0  0
    9.2890    1.1270   -1.3270 C   0  0  0  0  0  0  0  0  0  0  0  0
    8.4110    1.4810   -0.3220 C   0  0  0  0  0  0  0  0  0  0  0  0
    7.9400    0.5200    0.5600 C   0  0  0  0  0  0  0  0  0  0  0  0
    6.8160    0.9170    1.8620 S   0  0  0  0  0  0  0  0  0  0  0  0
    5.1240    0.7510    1.2960 C   0  0  0  0  0  0  0  0  0  0  0  0
    4.0660    1.0080    2.1360 C   0  0  0  0  0  0  0  0  0  0  0  0
    2.7610    0.8650    1.6470 C   0  0  0  0  0  0  0  0  0  0  0  0
    2.4830    0.4800    0.3700 C   0  0  0  0  0  0  0  0  0  0  0  0
    1.1850    0.3370   -0.1630 N   0  0  0  0  0  0  0  0  0  0  0  0
   -0.0310    0.7210    0.4340 C   0  0  0  0  0  0  0  0  0  0  0  0
    0.0060    1.2650    1.5830 O   0  0  0  0  0  0  0  0  0  0  0  0
   -1.3240    0.5130   -0.2250 C   0  0  0  0  0  0  0  0  0  0  0  0
   -2.4290    0.8690    0.3340 N   0  0  0  0  0  0  0  0  0  0  0  0
   -3.6760    0.7050   -0.2120 N   0  0  0  0  0  0  0  0  0  0  0  0
   -4.8860    0.9690    0.5610 C   0  0  0  0  0  0  0  0  0  0  0  0
   -4.8470    1.7570    1.5060 O   0  0  0  0  0  0  0  0  0  0  0  0
   -6.1240    0.2850    0.1910 C   0  0  0  0  0  0  0  0  0  0  0  0
   -6.0880   -0.5460   -0.8360 C   0  0  0  0  0  0  0  0  0  0  0  0
   -7.2420   -1.3520   -1.3850 C   0  0  0  0  0  0  0  0  0  0  0  0
   -8.3970   -1.3080   -0.4360 C   0  0  0  0  0  0  0  0  0  0  0  0
   -8.0650   -1.6590    0.8570 O   0  0  0  0  0  0  0  0  0  0  0  0
   -7.7970   -0.6150    1.6910 C   0  0  0  0  0  0  0  0  0  0  0  0
   -7.2870    0.6210    1.0350 C   0  0  0  0  0  0  0  0  0  0  0  0
   -4.8990   -0.7940   -1.6030 N   0  0  0  0  0  0  0  0  0  0  0  0
   -3.8540    0.2380   -1.5640 C   0  0  2  0  0  0  0  0  0  0  0  0
   -2.5960   -0.1710   -2.1620 C   0  0  0  0  0  0  0  0  0  0  0  0
   -1.4380   -0.0450   -1.5560 C   0  0  0  0  0  0  0  0  0  0  0  0
    3.5920    0.2300   -0.4450 C   0  0  0  0  0  0  0  0  0  0  0  0
    4.8860    0.3590   -0.0030 C   0  0  0  0  0  0  0  0  0  0  0  0
    8.3850   -0.7850    0.3870 C   0  0  0  0  0  0  0  0  0  0  0  0
  1  2  3  0
  2  3  1  0
  3  4  2  0
  3 34  1  0
  4  5  1  0
  5  6  2  0
  6  7  1  0
  7  8  1  0
  7 34  2  0
  8  9  1  0
  9 10  2  0
  9 33  1  0
 10 11  1  0
 11 12  2  0
 12 13  1  0
 12 32  1  0
 13 14  1  0
 14 15  2  0
 14 16  1  0
 16 17  2  0
 16 31  1  0
 17 18  1  0
 18 19  1  0
 18 29  1  0
 19 20  2  0
 19 21  1  0
 21 22  2  0
 21 27  1  0
 22 23  1  0
 22 28  1  0
 23 24  1  0
 24 25  1  0
 25 26  1  0
 26 27  1  0
 29 28  1  1
 29 30  1  0
 30 31  2  0
 32 33  2  0
M  END
