
     RDKit          3D

 35 38  0  0  0  0  0  0  0  0999 V2000
   -3.1830    2.5550   -3.0800 C   0  0  0  0  0  0  0  0  0  0  0  0
   -2.5360    1.7250   -2.1370 O   0  0  0  0  0  0  0  0  0  0  0  0
   -3.1370    0.7240   -1.4080 C   0  0  0  0  0  0  0  0  0  0  0  0
   -4.3920    0.5760   -1.6440 O   0  0  0  0  0  0  0  0  0  0  0  0
   -2.4730   -0.1480   -0.4240 C   0  0  2  0  0  0  0  0  0  0  0  0
   -3.3290   -0.1280    0.8230 C   0  0  0  0  0  0  0  0  0  0  0  0
   -4.9680   -0.7840    0.3400 S   0  0  0  0  0  0  0  0  0  0  0  0
   -4.8650   -2.5170   -0.0180 C   0  0  0  0  0  0  0  0  0  0  0  0
   -3.8320   -3.3070    0.1580 C   0  0  0  0  0  0  0  0  0  0  0  0
   -4.1720   -4.7050   -0.2750 C   0  0  0  0  0  0  0  0  0  0  0  0
   -5.5940   -4.5830   -0.7240 C   0  0  0  0  0  0  0  0  0  0  0  0
   -5.9550   -3.3390   -0.5680 C   0  0  0  0  0  0  0  0  0  0  0  0
   -7.5460   -2.7040   -0.9620 Cl  0  0  0  0  0  0  0  0  0  0  0  0
   -1.0740    0.1610   -0.1700 N   0  0  0  0  0  0  0  0  0  0  0  0
   -0.1350   -0.8170   -0.4440 C   0  0  0  0  0  0  0  0  0  0  0  0
   -0.5930   -1.8760   -1.0460 O   0  0  0  0  0  0  0  0  0  0  0  0
    1.2930   -0.8710   -0.1750 C   0  0  0  0  0  0  0  0  0  0  0  0
    1.9890    0.0770    0.5350 C   0  0  0  0  0  0  0  0  0  0  0  0
    3.3660   -0.0170    0.7420 C   0  0  0  0  0  0  0  0  0  0  0  0
    4.0860   -1.0660    0.2420 C   0  0  0  0  0  0  0  0  0  0  0  0
    5.4040   -1.4680    0.2510 C   0  0  0  0  0  0  0  0  0  0  0  0
    6.5220   -0.7470    0.9030 C   0  0  0  0  0  0  0  0  0  0  0  0
    5.5250   -2.6530   -0.4440 C   0  0  0  0  0  0  0  0  0  0  0  0
    6.7970   -3.4140   -0.6630 C   0  0  0  0  0  0  0  0  0  0  0  0
    4.2990   -2.9640   -0.8690 N   0  0  0  0  0  0  0  0  0  0  0  0
    3.3930   -2.0160   -0.4670 C   0  0  0  0  0  0  0  0  0  0  0  0
    2.0440   -1.9380   -0.6780 C   0  0  0  0  0  0  0  0  0  0  0  0
   -0.8170    1.4440    0.3570 C   0  0  0  0  0  0  0  0  0  0  0  0
   -1.1090    1.7410    1.6710 C   0  0  0  0  0  0  0  0  0  0  0  0
   -0.8920    3.0060    2.2010 C   0  0  0  0  0  0  0  0  0  0  0  0
   -0.3740    4.0140    1.4270 C   0  0  0  0  0  0  0  0  0  0  0  0
   -0.1520    5.3380    1.9980 C   0  0  0  0  0  0  0  0  0  0  0  0
   -0.0720    3.7570    0.1210 C   0  0  0  0  0  0  0  0  0  0  0  0
    0.4900    4.8090   -0.7520 C   0  0  0  0  0  0  0  0  0  0  0  0
   -0.2880    2.4930   -0.4100 C   0  0  0  0  0  0  0  0  0  0  0  0
  1  2  1  0
  2  3  1  0
  3  4  2  0
  3  5  1  0
  5  6  1  1
  5 14  1  0
  6  7  1  0
  7  8  1  0
  8  9  2  0
  8 12  1  0
  9 10  1  0
 10 11  1  0
 11 12  2  0
 12 13  1  0
 14 15  1  0
 14 28  1  0
 15 16  2  0
 15 17  1  0
 17 18  2  0
 17 27  1  0
 18 19  1  0
 19 20  2  0
 20 21  1  0
 20 26  1  0
 21 22  1  0
 21 23  2  0
 23 24  1  0
 23 25  1  0
 25 26  1  0
 26 27  2  0
 28 29  2  0
 28 35  1  0
 29 30  1  0
 30 31  2  0
 31 32  1  0
 31 33  1  0
 33 34  1  0
 33 35  2  0
M  END
