
     RDKit          3D

 13 13  0  0  0  0  0  0  0  0999 V2000
    2.8570    1.5680   -0.1730 O   0  0  0  0  0  0  0  0  0  0  0  0
    3.2550    0.5120    0.6400 C   0  0  0  0  0  0  0  0  0  0  0  0
    2.3180   -0.6710    0.5270 C   0  0  1  0  0  0  0  0  0  0  0  0
    2.7720   -1.6840    1.3600 O   0  0  0  0  0  0  0  0  0  0  0  0
    0.9980   -0.3100    0.7760 O   0  0  0  0  0  0  0  0  0  0  0  0
    0.2690   -0.5470   -0.3610 C   0  0  0  0  0  0  0  0  0  0  0  0
   -1.1860   -0.2070   -0.2520 C   0  0  1  0  0  0  0  0  0  0  0  0
   -1.7880   -0.5000   -1.4740 O   0  0  0  0  0  0  0  0  0  0  0  0
   -1.8820   -0.9260    0.8720 C   0  0  0  0  0  0  0  0  0  0  0  0
   -2.8280    0.1740    1.3750 C   0  0  0  0  0  0  0  0  0  0  0  0
   -1.9590    1.2670    1.3810 O   0  0  0  0  0  0  0  0  0  0  0  0
   -1.4430    1.2350    0.0720 C   0  0  2  0  0  0  0  0  0  0  0  0
   -2.4660    1.7630   -0.7470 O   0  0  0  0  0  0  0  0  0  0  0  0
  1  2  1  0
  2  3  1  0
  3  4  1  1
  3  5  1  0
  5  6  1  0
  6  7  1  0
  7  8  1  6
  7  9  1  0
  7 12  1  0
  9 10  1  0
 10 11  1  0
 11 12  1  0
 12 13  1  6
M  END
