
     RDKit          3D

 13 13  0  0  0  0  0  0  0  0999 V2000
    2.4210   -1.0980    0.4080 C   0  0  0  0  0  0  0  0  0  0  0  0
    1.0620   -0.9890    0.5340 O   0  0  0  0  0  0  0  0  0  0  0  0
    0.4540    0.0150   -0.1360 C   0  0  1  0  0  0  0  0  0  0  0  0
    0.9900    1.3550    0.3150 C   0  0  2  0  0  0  0  0  0  0  0  0
    0.7430    1.4870    1.6800 O   0  0  0  0  0  0  0  0  0  0  0  0
    0.4090    2.4080   -0.4010 O   0  0  0  0  0  0  0  0  0  0  0  0
    0.4610   -0.1020   -1.6360 C   0  0  0  0  0  0  0  0  0  0  0  0
   -0.3400   -1.2000   -1.8340 O   0  0  0  0  0  0  0  0  0  0  0  0
   -1.4920   -0.8910   -1.0820 C   0  0  0  0  0  0  0  0  0  0  0  0
   -1.0430   -0.0910    0.0940 C   0  0  2  0  0  0  0  0  0  0  0  0
   -1.6000    1.1830    0.0920 O   0  0  0  0  0  0  0  0  0  0  0  0
   -1.3620   -0.7410    1.4160 C   0  0  0  0  0  0  0  0  0  0  0  0
   -2.7440   -0.8230    1.5750 O   0  0  0  0  0  0  0  0  0  0  0  0
  1  2  1  0
  3  2  1  1
  3  4  1  0
  3  7  1  0
  3 10  1  0
  4  5  1  1
  4  6  1  0
  7  8  1  0
  8  9  1  0
  9 10  1  0
 10 11  1  1
 10 12  1  0
 12 13  1  0
M  END
