
     RDKit          3D

 38 40  0  0  0  0  0  0  0  0999 V2000
    8.4790   -2.4040   -2.9660 C   0  0  0  0  0  0  0  0  0  0  0  0
    8.3870   -2.1420   -1.4710 C   0  0  0  0  0  0  0  0  0  0  0  0
    8.0590   -0.8070   -1.2930 O   0  0  0  0  0  0  0  0  0  0  0  0
    7.9180   -0.3310    0.3460 P   0  0  0  0  0  0  0  0  0  0  0  0
    7.0120   -1.5140    1.3930 C   0  0  0  0  0  0  0  0  0  0  0  0
    5.5490   -1.5270    1.1390 C   0  0  0  0  0  0  0  0  0  0  0  0
    4.7140   -0.3710    1.4180 C   0  0  0  0  0  0  0  0  0  0  0  0
    4.8560    0.9370    0.8000 C   0  0  1  0  0  0  0  0  0  0  0  0
    6.0680    1.5450    1.0410 O   0  0  0  0  0  0  0  0  0  0  0  0
    4.5900    0.9860   -0.6880 C   0  0  0  0  0  0  0  0  0  0  0  0
    3.3430    0.3810   -1.0800 N   0  0  0  0  0  0  0  0  0  0  0  0
    2.0760    0.8120   -0.6140 C   0  0  0  0  0  0  0  0  0  0  0  0
    2.0580    1.7770    0.1860 O   0  0  0  0  0  0  0  0  0  0  0  0
    0.8150    0.2100   -1.0080 C   0  0  0  0  0  0  0  0  0  0  0  0
   -0.3070    0.7180   -0.4820 C   0  0  0  0  0  0  0  0  0  0  0  0
   -0.3890    1.7730    0.4120 O   0  0  0  0  0  0  0  0  0  0  0  0
   -1.7120    2.0090    0.7430 C   0  0  0  0  0  0  0  0  0  0  0  0
   -2.5020    1.1670    0.1150 C   0  0  0  0  0  0  0  0  0  0  0  0
   -3.9640    1.1660    0.2620 C   0  0  0  0  0  0  0  0  0  0  0  0
   -4.7170    0.3030   -0.3890 C   0  0  0  0  0  0  0  0  0  0  0  0
   -6.1860    0.3100   -0.2350 C   0  0  0  0  0  0  0  0  0  0  0  0
   -6.9120   -0.5740   -0.9090 C   0  0  0  0  0  0  0  0  0  0  0  0
   -8.3570   -0.5630   -0.7510 C   0  0  0  0  0  0  0  0  0  0  0  0
   -8.9620   -0.3780    0.4660 C   0  0  0  0  0  0  0  0  0  0  0  0
  -10.3350   -0.3540    0.5910 C   0  0  0  0  0  0  0  0  0  0  0  0
  -11.1000   -0.5220   -0.5400 C   0  0  0  0  0  0  0  0  0  0  0  0
  -12.5620   -0.4910   -0.3920 C   0  0  0  0  0  0  0  0  0  0  0  0
  -13.0470   -1.8940   -0.1160 C   0  0  0  0  0  0  0  0  0  0  0  0
  -10.4600   -0.7100   -1.7690 C   0  0  0  0  0  0  0  0  0  0  0  0
   -9.1230   -0.7280   -1.8650 N   0  0  0  0  0  0  0  0  0  0  0  0
   -6.7600    1.2400    0.6080 O   0  0  0  0  0  0  0  0  0  0  0  0
   -5.9620    2.1380    1.2850 C   0  0  0  0  0  0  0  0  0  0  0  0
   -4.6480    2.1120    1.1290 C   0  0  0  0  0  0  0  0  0  0  0  0
   -1.6950    0.2680   -0.7370 C   0  0  1  0  0  0  0  0  0  0  0  0
   -2.0140    0.4350   -2.0880 O   0  0  0  0  0  0  0  0  0  0  0  0
    9.4660    0.0960    1.0140 O   0  0  0  0  0  0  0  0  0  0  0  0
    9.3640    1.3930    1.5150 C   0  0  0  0  0  0  0  0  0  0  0  0
   10.6830    1.8340    2.1150 C   0  0  0  0  0  0  0  0  0  0  0  0
  1  2  1  0
  2  3  1  0
  3  4  1  0
  4  5  1  0
  4 36  1  0
  5  6  1  0
  6  7  1  0
  7  8  1  0
  8  9  1  6
  8 10  1  0
 10 11  1  0
 11 12  1  0
 12 13  2  0
 12 14  1  0
 14 15  2  3
 15 16  1  0
 15 34  1  0
 16 17  1  0
 17 18  2  0
 18 19  1  0
 18 34  1  0
 19 20  2  0
 19 33  1  0
 20 21  1  0
 21 22  2  3
 21 31  1  0
 22 23  1  0
 23 24  2  0
 23 30  1  0
 24 25  1  0
 25 26  2  0
 26 27  1  0
 26 29  1  0
 27 28  1  0
 29 30  2  0
 31 32  1  0
 32 33  2  0
 34 35  1  6
 36 37  1  0
 37 38  1  0
M  END
