
     RDKit          3D

 38 40  0  0  0  0  0  0  0  0999 V2000
   -7.7720   -2.1300    1.3510 C   0  0  0  0  0  0  0  0  0  0  0  0
   -8.0970   -0.9160    0.4940 C   0  0  0  0  0  0  0  0  0  0  0  0
   -7.0190   -0.8100   -0.4070 O   0  0  0  0  0  0  0  0  0  0  0  0
   -6.2300    0.7110   -0.1920 P   0  0  0  0  0  0  0  0  0  0  0  0
   -4.7300    0.7560   -1.1770 C   0  0  0  0  0  0  0  0  0  0  0  0
   -3.3840    0.5610   -0.5800 C   0  0  0  0  0  0  0  0  0  0  0  0
   -2.5070    1.6020   -0.4730 C   0  0  0  0  0  0  0  0  0  0  0  0
   -1.2210    1.4180   -0.0780 C   0  0  0  0  0  0  0  0  0  0  0  0
   -0.6490    0.1750    0.2690 C   0  0  0  0  0  0  0  0  0  0  0  0
    0.7730    0.1820    0.5030 C   0  0  0  0  0  0  0  0  0  0  0  0
    1.6700   -0.8180    0.2220 N   0  0  0  0  0  0  0  0  0  0  0  0
    2.3330   -1.7450    1.0900 C   0  0  0  0  0  0  0  0  0  0  0  0
    2.4600   -2.9650    0.8590 O   0  0  0  0  0  0  0  0  0  0  0  0
    2.9850   -1.1590    2.3410 C   0  0  0  0  0  0  0  0  0  0  0  0
    3.9090   -0.0950    1.8090 C   0  0  0  0  0  0  0  0  0  0  0  0
    3.7140    1.2270    2.0300 C   0  0  0  0  0  0  0  0  0  0  0  0
    4.4360    2.2450    1.5170 C   0  0  0  0  0  0  0  0  0  0  0  0
    5.5010    1.9280    0.6710 C   0  0  0  0  0  0  0  0  0  0  0  0
    6.3300    3.0110    0.0920 C   0  0  0  0  0  0  0  0  0  0  0  0
    5.7560    0.6050    0.4210 C   0  0  0  0  0  0  0  0  0  0  0  0
    6.8570    0.2310   -0.5010 C   0  0  0  0  0  0  0  0  0  0  0  0
    6.7110    0.5020   -1.7400 O   0  0  0  0  0  0  0  0  0  0  0  0
    8.0150   -0.3690   -0.0840 O   0  0  0  0  0  0  0  0  0  0  0  0
    9.0900   -0.6750   -0.9830 C   0  0  0  0  0  0  0  0  0  0  0  0
    4.9610   -0.4270    0.9830 C   0  0  0  0  0  0  0  0  0  0  0  0
    2.3080   -0.9570   -1.1320 C   0  0  2  0  0  0  0  0  0  0  0  0
    1.9820   -0.0380   -2.2110 C   0  0  0  0  0  0  0  0  0  0  0  0
    1.4280   -1.3920   -2.2890 C   0  0  1  0  0  0  0  0  0  0  0  0
    2.0590   -2.3690   -3.2090 N   0  0  0  0  0  0  0  0  0  0  0  0
   -1.5120   -0.8410    0.1790 C   0  0  0  0  0  0  0  0  0  0  0  0
   -1.1320   -2.2060    0.4960 C   0  0  0  0  0  0  0  0  0  0  0  0
   -0.6480   -2.5500    1.5770 O   0  0  0  0  0  0  0  0  0  0  0  0
   -1.3460   -3.1330   -0.5110 O   0  0  0  0  0  0  0  0  0  0  0  0
   -1.1420   -4.4180   -0.7030 C   0  0  0  0  0  0  0  0  0  0  0  0
   -2.8610   -0.6970   -0.2270 C   0  0  0  0  0  0  0  0  0  0  0  0
   -7.1850    2.0820   -0.0780 O   0  0  0  0  0  0  0  0  0  0  0  0
   -6.3880    3.2460    0.1290 C   0  0  0  0  0  0  0  0  0  0  0  0
   -7.2350    4.4430    0.2560 C   0  0  0  0  0  0  0  0  0  0  0  0
  1  2  1  0
  2  3  1  0
  3  4  1  0
  4  5  1  0
  4 36  1  0
  5  6  1  0
  6  7  2  0
  6 35  1  0
  7  8  1  0
  8  9  2  0
  9 10  1  0
  9 30  1  0
 10 11  1  0
 11 12  1  0
 26 11  1  1
 12 13  2  0
 12 14  1  0
 14 15  1  0
 15 16  2  0
 15 25  1  0
 16 17  1  0
 17 18  2  0
 18 19  1  0
 18 20  1  0
 20 21  1  0
 20 25  2  0
 21 22  2  0
 21 23  1  0
 23 24  1  0
 26 27  1  0
 26 28  1  0
 27 28  1  0
 28 29  1  6
 30 31  1  0
 30 35  2  0
 31 32  2  0
 31 33  1  0
 33 34  1  0
 36 37  1  0
 37 38  1  0
M  END
