
     RDKit          3D

 38 40  0  0  0  0  0  0  0  0999 V2000
   -5.6500    2.7880    3.4520 C   0  0  0  0  0  0  0  0  0  0  0  0
   -5.6190    2.7700    1.9390 C   0  0  0  0  0  0  0  0  0  0  0  0
   -4.4870    2.7440    1.3180 O   0  0  0  0  0  0  0  0  0  0  0  0
   -3.4610    1.9900    1.2080 C   0  0  0  0  0  0  0  0  0  0  0  0
   -3.5290    0.5690    0.6320 C   0  0  2  0  0  0  0  0  0  0  0  0
   -4.1160    0.4590   -0.5800 O   0  0  0  0  0  0  0  0  0  0  0  0
   -3.9530   -0.3830    1.6820 C   0  0  0  0  0  0  0  0  0  0  0  0
   -5.3380   -0.4320    2.0180 N   0  0  0  0  0  0  0  0  0  0  0  0
   -6.3480   -1.0650    1.2400 C   0  0  0  0  0  0  0  0  0  0  0  0
   -6.0320   -2.0950    0.4160 C   0  0  0  0  0  0  0  0  0  0  0  0
   -7.0800   -2.6400   -0.3220 C   0  0  0  0  0  0  0  0  0  0  0  0
   -8.3340   -2.2030   -0.2530 C   0  0  0  0  0  0  0  0  0  0  0  0
   -9.6370   -2.9970   -1.2720 P   0  0  0  0  0  0  0  0  0  0  0  0
   -9.5950   -4.5610   -1.4370 O   0  0  0  0  0  0  0  0  0  0  0  0
   -8.6530   -1.1340    0.6070 C   0  0  0  0  0  0  0  0  0  0  0  0
   -7.6720   -0.5490    1.3660 C   0  0  0  0  0  0  0  0  0  0  0  0
   -2.0180    0.2400    0.3100 C   0  0  0  0  0  0  0  0  0  0  0  0
   -1.8340   -1.0460   -0.3190 C   0  0  0  0  0  0  0  0  0  0  0  0
   -2.7500   -1.9190   -0.3460 O   0  0  0  0  0  0  0  0  0  0  0  0
   -0.5970   -1.4210   -0.9680 C   0  0  0  0  0  0  0  0  0  0  0  0
    0.2030   -0.2340   -0.7230 O   0  0  0  0  0  0  0  0  0  0  0  0
    0.1860   -2.1870   -1.6170 O   0  0  0  0  0  0  0  0  0  0  0  0
    1.5300   -1.7730   -1.8810 C   0  0  0  0  0  0  0  0  0  0  0  0
    2.0840   -1.5720   -3.0590 C   0  0  0  0  0  0  0  0  0  0  0  0
    3.4390   -1.1250   -3.1710 C   0  0  0  0  0  0  0  0  0  0  0  0
    4.1760   -0.9040   -2.0380 C   0  0  0  0  0  0  0  0  0  0  0  0
    5.4740   -0.3650   -2.0300 N   0  0  0  0  0  0  0  0  0  0  0  0
    6.4890   -0.5840   -1.0820 C   0  0  0  0  0  0  0  0  0  0  0  0
    6.2330   -1.4040   -0.1290 O   0  0  0  0  0  0  0  0  0  0  0  0
    7.8030    0.0320   -1.0680 C   0  0  0  0  0  0  0  0  0  0  0  0
    7.9080    1.3770   -1.3700 C   0  0  0  0  0  0  0  0  0  0  0  0
    9.1450    2.0450   -1.3190 C   0  0  0  0  0  0  0  0  0  0  0  0
   10.2780    1.3470   -0.9610 C   0  0  0  0  0  0  0  0  0  0  0  0
   11.6440    2.0050   -0.8920 C   0  0  0  0  0  0  0  0  0  0  0  0
   10.1810    0.0260   -0.6610 C   0  0  0  0  0  0  0  0  0  0  0  0
    8.9740   -0.6340   -0.7120 C   0  0  0  0  0  0  0  0  0  0  0  0
    3.5740   -1.1280   -0.7980 C   0  0  0  0  0  0  0  0  0  0  0  0
    2.2760   -1.5570   -0.6940 C   0  0  0  0  0  0  0  0  0  0  0  0
  1  2  1  0
  2  3  1  0
  3  4  1  0
  4  5  1  0
  5  6  1  6
  5  7  1  0
  5 17  1  0
  7  8  1  0
  8  9  1  0
  9 10  2  0
  9 16  1  0
 10 11  1  0
 11 12  2  0
 12 13  1  0
 12 15  1  0
 13 14  2  0
 15 16  2  0
 17 18  1  0
 18 19  2  0
 18 20  1  0
 20 21  2  0
 20 22  1  0
 22 23  1  0
 23 24  2  0
 23 38  1  0
 24 25  1  0
 25 26  2  0
 26 27  1  0
 26 37  1  0
 27 28  1  0
 28 29  2  0
 28 30  1  0
 30 31  2  0
 30 36  1  0
 31 32  1  0
 32 33  2  0
 33 34  1  0
 33 35  1  0
 35 36  2  0
 37 38  2  0
M  END
