
     RDKit          3D

 37 39  0  0  0  0  0  0  0  0999 V2000
   -4.3610   -4.1820   -3.2120 C   0  0  0  0  0  0  0  0  0  0  0  0
   -4.4680   -5.0230   -1.9780 C   0  0  0  0  0  0  0  0  0  0  0  0
   -4.2740   -4.2710   -0.8010 O   0  0  0  0  0  0  0  0  0  0  0  0
   -3.1510   -3.5740   -0.4810 C   0  0  0  0  0  0  0  0  0  0  0  0
   -3.1380   -2.2300   -0.5850 C   0  0  0  0  0  0  0  0  0  0  0  0
   -1.9580   -1.4830   -0.2490 C   0  0  0  0  0  0  0  0  0  0  0  0
   -1.6220   -0.2550   -0.2360 C   0  0  0  0  0  0  0  0  0  0  0  0
   -2.4370    0.8700   -0.5960 C   0  0  0  0  0  0  0  0  0  0  0  0
   -3.8920    0.7700   -0.8800 C   0  0  1  0  0  0  0  0  0  0  0  0
   -4.8100    0.5450    0.2930 C   0  0  0  0  0  0  0  0  0  0  0  0
   -4.7860    1.5300    1.2520 O   0  0  0  0  0  0  0  0  0  0  0  0
   -5.1560    2.7860    0.8610 C   0  0  0  0  0  0  0  0  0  0  0  0
   -5.1150    3.7770    2.0270 C   0  0  0  0  0  0  0  0  0  0  0  0
   -4.3510    1.7960   -1.8940 C   0  0  0  0  0  0  0  0  0  0  0  0
   -4.3450    0.3360   -2.2300 C   0  0  0  0  0  0  0  0  0  0  0  0
   -1.9920    2.1160   -0.6280 N   0  0  0  0  0  0  0  0  0  0  0  0
   -0.7060    2.4570   -0.3160 N   0  0  0  0  0  0  0  0  0  0  0  0
   -0.1930    3.8150   -0.3410 C   0  0  0  0  0  0  0  0  0  0  0  0
    0.1800    1.4190    0.0570 C   0  0  0  0  0  0  0  0  0  0  0  0
    1.5010    1.7620    0.3840 C   0  0  0  0  0  0  0  0  0  0  0  0
    2.4140    0.8080    0.7570 C   0  0  0  0  0  0  0  0  0  0  0  0
    3.8140    1.1570    1.1130 C   0  0  2  0  0  0  0  0  0  0  0  0
    3.9590    0.9650    2.4910 O   0  0  0  0  0  0  0  0  0  0  0  0
    4.0540    2.6210    0.8500 C   0  0  0  0  0  0  0  0  0  0  0  0
    5.4670    3.0240    1.2050 C   0  0  0  0  0  0  0  0  0  0  0  0
    6.4530    2.2430    0.4060 C   0  0  0  0  0  0  0  0  0  0  0  0
    6.2500    2.4820   -1.4080 P   0  0  0  0  0  0  0  0  0  0  0  0
    7.4760    1.6610   -2.3050 O   0  0  0  0  0  0  0  0  0  0  0  0
    6.0780    4.1280   -1.8520 O   0  0  0  0  0  0  0  0  0  0  0  0
    2.0080   -0.5010    0.8060 C   0  0  0  0  0  0  0  0  0  0  0  0
    2.9410   -1.4570    1.1860 O   0  0  0  0  0  0  0  0  0  0  0  0
    2.5370   -2.8110    1.2390 C   0  0  0  0  0  0  0  0  0  0  0  0
    3.6620   -3.7180    1.6670 C   0  0  0  0  0  0  0  0  0  0  0  0
    3.1940   -5.1640    1.7110 C   0  0  0  0  0  0  0  0  0  0  0  0
    4.1990   -6.0210    2.0980 O   0  0  0  0  0  0  0  0  0  0  0  0
    0.6860   -0.8760    0.4830 C   0  0  0  0  0  0  0  0  0  0  0  0
   -0.2040    0.0870    0.1150 C   0  0  0  0  0  0  0  0  0  0  0  0
  1  2  1  0
  2  3  1  0
  3  4  1  0
  4  5  2  3
  5  6  1  0
  6  7  2  3
  7  8  1  0
  7 37  1  0
  8  9  1  0
  8 16  2  0
  9 10  1  1
  9 14  1  0
  9 15  1  0
 10 11  1  0
 11 12  1  0
 12 13  1  0
 14 15  1  0
 16 17  1  0
 17 18  1  0
 17 19  1  0
 19 20  2  0
 19 37  1  0
 20 21  1  0
 21 22  1  0
 21 30  2  0
 22 23  1  1
 22 24  1  0
 24 25  1  0
 25 26  1  0
 26 27  1  0
 27 28  1  0
 27 29  1  0
 30 31  1  0
 30 36  1  0
 31 32  1  0
 32 33  1  0
 33 34  1  0
 34 35  1  0
 36 37  2  0
M  END
