
     RDKit          3D

 38 40  0  0  0  0  0  0  0  0999 V2000
  -11.6840   -0.4780   -2.0020 C   0  0  0  0  0  0  0  0  0  0  0  0
  -11.2670   -0.5240   -0.5470 C   0  0  0  0  0  0  0  0  0  0  0  0
  -10.0420   -1.1850   -0.4780 O   0  0  0  0  0  0  0  0  0  0  0  0
   -9.4400   -1.3150    1.1220 P   0  0  0  0  0  0  0  0  0  0  0  0
  -10.4440   -0.3180    2.3240 C   0  0  0  0  0  0  0  0  0  0  0  0
   -7.6930   -0.7860    1.2450 C   0  0  0  0  0  0  0  0  0  0  0  0
   -6.7760   -1.5750    1.9140 C   0  0  0  0  0  0  0  0  0  0  0  0
   -5.4600   -1.1700    2.0040 C   0  0  0  0  0  0  0  0  0  0  0  0
   -5.0060    0.0060    1.4490 C   0  0  0  0  0  0  0  0  0  0  0  0
   -3.6100    0.3830    1.5750 C   0  0  0  0  0  0  0  0  0  0  0  0
   -2.8140   -0.4000    2.1890 O   0  0  0  0  0  0  0  0  0  0  0  0
   -3.0470    1.5710    1.0640 N   0  0  0  0  0  0  0  0  0  0  0  0
   -1.6450    1.8490    1.2460 C   0  0  0  0  0  0  0  0  0  0  0  0
   -0.7910    1.0530    0.3350 C   0  0  0  0  0  0  0  0  0  0  0  0
   -1.3690    0.1950   -0.5710 C   0  0  0  0  0  0  0  0  0  0  0  0
   -0.6120   -0.5720   -1.4460 C   0  0  0  0  0  0  0  0  0  0  0  0
    0.7810   -0.4550   -1.3870 C   0  0  0  0  0  0  0  0  0  0  0  0
    1.3630    0.4050   -0.4780 C   0  0  0  0  0  0  0  0  0  0  0  0
    2.8170    0.5100   -0.4370 C   0  0  1  0  0  0  0  0  0  0  0  0
    3.1010    1.8980   -0.3560 O   0  0  0  0  0  0  0  0  0  0  0  0
    3.4650   -0.1120    0.7460 C   0  0  0  0  0  0  0  0  0  0  0  0
    4.8990    0.0650    0.8220 N   0  0  0  0  0  0  0  0  0  0  0  0
    5.7450   -0.4340   -0.1860 C   0  0  0  0  0  0  0  0  0  0  0  0
    5.2020   -1.0480   -1.1600 O   0  0  0  0  0  0  0  0  0  0  0  0
    7.1910   -0.2930   -0.1850 C   0  0  0  0  0  0  0  0  0  0  0  0
    7.8620    0.4210    0.7740 C   0  0  0  0  0  0  0  0  0  0  0  0
    9.2370    0.5570    0.7790 C   0  0  0  0  0  0  0  0  0  0  0  0
   10.0170   -0.0370   -0.2080 C   0  0  0  0  0  0  0  0  0  0  0  0
   11.3980    0.0990   -0.1990 O   0  0  0  0  0  0  0  0  0  0  0  0
   12.2550   -0.4480   -1.1700 C   0  0  0  0  0  0  0  0  0  0  0  0
   11.9620    0.1440   -2.4760 C   0  0  0  0  0  0  0  0  0  0  0  0
   11.1090    1.0560   -2.5740 O   0  0  0  0  0  0  0  0  0  0  0  0
   12.5830   -0.2460   -3.6580 O   0  0  0  0  0  0  0  0  0  0  0  0
    9.3420   -0.7550   -1.1710 C   0  0  0  0  0  0  0  0  0  0  0  0
    7.9700   -0.8910   -1.1780 C   0  0  0  0  0  0  0  0  0  0  0  0
    0.5800    1.1570    0.3810 C   0  0  0  0  0  0  0  0  0  0  0  0
   -5.8980    0.7930    0.7870 C   0  0  0  0  0  0  0  0  0  0  0  0
   -7.2310    0.3880    0.6920 C   0  0  0  0  0  0  0  0  0  0  0  0
  1  2  1  0
  2  3  1  0
  3  4  1  0
  4  5  1  0
  4  6  1  0
  6  7  2  0
  6 38  1  0
  7  8  1  0
  8  9  2  0
  9 10  1  0
  9 37  1  0
 10 11  2  0
 10 12  1  0
 12 13  1  0
 13 14  1  0
 14 15  2  0
 14 36  1  0
 15 16  1  0
 16 17  2  0
 17 18  1  0
 18 19  1  0
 18 36  2  0
 19 20  1  1
 19 21  1  0
 21 22  1  0
 22 23  1  0
 23 24  2  0
 23 25  1  0
 25 26  2  0
 25 35  1  0
 26 27  1  0
 27 28  2  0
 28 29  1  0
 28 34  1  0
 29 30  1  0
 30 31  1  0
 31 32  2  0
 31 33  1  0
 34 35  2  0
 37 38  2  0
M  END
