
     RDKit          3D

 15 15  0  0  0  0  0  0  0  0999 V2000
    3.3980    0.6710   -1.0010 N   0  0  0  0  0  0  0  0  0  0  0  0
    3.0840    0.5620    0.4040 C   0  0  1  0  0  0  0  0  0  0  0  0
    2.8110    1.8850    1.0220 C   0  0  0  0  0  0  0  0  0  0  0  0
    3.4270    2.9640    0.8480 O   0  0  0  0  0  0  0  0  0  0  0  0
    1.7050    1.7490    1.8740 O   0  0  0  0  0  0  0  0  0  0  0  0
    1.4280    0.3550    2.0270 C   0  0  0  0  0  0  0  0  0  0  0  0
    1.7630   -0.1550    0.6390 C   0  0  2  0  0  0  0  0  0  0  0  0
    1.9200   -1.5400    0.6170 O   0  0  0  0  0  0  0  0  0  0  0  0
    0.7220    0.2900   -0.3650 C   0  0  0  0  0  0  0  0  0  0  0  0
   -0.5730   -0.4150   -0.1320 C   0  0  0  0  0  0  0  0  0  0  0  0
   -1.5410   -0.0290   -1.0330 O   0  0  0  0  0  0  0  0  0  0  0  0
   -2.7150   -0.7430   -0.7340 C   0  0  2  0  0  0  0  0  0  0  0  0
   -3.0800   -1.4670   -1.8750 O   0  0  0  0  0  0  0  0  0  0  0  0
   -3.8570    0.1910   -0.4130 C   0  0  0  0  0  0  0  0  0  0  0  0
   -4.9670   -0.6030   -0.1320 O   0  0  0  0  0  0  0  0  0  0  0  0
  2  1  1  6
  2  3  1  0
  2  7  1  0
  3  4  2  0
  3  5  1  0
  5  6  1  0
  6  7  1  0
  7  8  1  1
  7  9  1  0
  9 10  1  0
 10 11  1  0
 11 12  1  0
 12 13  1  6
 12 14  1  0
 14 15  1  0
M  END
