
     RDKit          3D

 15 15  0  0  0  0  0  0  0  0999 V2000
   -3.2950   -1.5650    0.3080 O   0  0  0  0  0  0  0  0  0  0  0  0
   -2.0250   -0.9550    0.2890 C   0  0  2  0  0  0  0  0  0  0  0  0
   -2.1840    0.5250    0.0320 C   0  0  0  0  0  0  0  0  0  0  0  0
   -1.2250    1.3260    0.7440 N   0  0  0  0  0  0  0  0  0  0  0  0
   -0.2800    1.9910   -0.1090 C   0  0  1  0  0  0  0  0  0  0  0  0
   -0.9550    2.3950   -1.2830 O   0  0  0  0  0  0  0  0  0  0  0  0
    0.1910    3.1460    0.5270 O   0  0  0  0  0  0  0  0  0  0  0  0
    0.7790    1.2160   -0.4930 O   0  0  0  0  0  0  0  0  0  0  0  0
    1.8170    1.1550    0.4030 C   0  0  0  0  0  0  0  0  0  0  0  0
    2.8100    0.1190   -0.1370 C   0  0  0  0  0  0  0  0  0  0  0  0
    2.1160   -0.8020   -0.9160 O   0  0  0  0  0  0  0  0  0  0  0  0
    1.9590   -2.0290   -0.2910 C   0  0  0  0  0  0  0  0  0  0  0  0
    0.6600   -2.1040    0.5030 C   0  0  0  0  0  0  0  0  0  0  0  0
   -0.3660   -2.6240   -0.2530 O   0  0  0  0  0  0  0  0  0  0  0  0
   -1.2210   -1.6540   -0.7700 C   0  0  0  0  0  0  0  0  0  0  0  0
  2  1  1  6
  2  3  1  0
  2 15  1  0
  3  4  1  0
  4  5  1  0
  5  6  1  6
  5  7  1  0
  5  8  1  0
  8  9  1  0
  9 10  1  0
 10 11  1  0
 11 12  1  0
 12 13  1  0
 13 14  1  0
 14 15  1  0
M  END
