
     RDKit          3D

 22 22  0  0  0  0  0  0  0  0999 V2000
    0.4140   -1.8520    2.8700 C   0  0  0  0  0  0  0  0  0  0  0  0
   -0.5490   -0.9430    2.1180 C   0  0  0  0  0  0  0  0  0  0  0  0
    0.0210   -0.5870    0.7940 C   0  0  2  0  0  0  0  0  0  0  0  0
    1.2830    0.1200    0.8670 N   0  0  0  0  0  0  0  0  0  0  0  0
    2.5190   -0.3980    0.4060 C   0  0  0  0  0  0  0  0  0  0  0  0
    2.5470   -1.5470   -0.1050 O   0  0  0  0  0  0  0  0  0  0  0  0
    3.7430    0.4380    0.5430 C   0  0  0  0  0  0  0  0  0  0  0  0
    4.9600   -0.2790   -0.0030 C   0  0  0  0  0  0  0  0  0  0  0  0
    6.1410    0.6040    0.1620 C   0  0  0  0  0  0  0  0  0  0  0  0
    7.4520    0.2450   -0.2330 N   0  0  0  0  0  0  0  0  0  0  0  0
    6.0170    1.7590    0.6850 O   0  0  0  0  0  0  0  0  0  0  0  0
   -0.9400    0.0280   -0.1310 C   0  0  0  0  0  0  0  0  0  0  0  0
   -0.6020    1.0450   -0.7870 O   0  0  0  0  0  0  0  0  0  0  0  0
   -2.2270   -0.5130   -0.2940 N   0  0  0  0  0  0  0  0  0  0  0  0
   -3.2290    0.0000   -1.1890 C   0  0  0  0  0  0  0  0  0  0  0  0
   -3.5110   -0.7250   -2.2710 C   0  0  0  0  0  0  0  0  0  0  0  0
   -4.4850   -0.3590   -3.2720 C   0  0  0  0  0  0  0  0  0  0  0  0
   -5.1560    0.9110   -2.9960 C   0  0  0  0  0  0  0  0  0  0  0  0
   -4.9010    1.6360   -1.9460 C   0  0  0  0  0  0  0  0  0  0  0  0
   -3.8940    1.2460   -0.9140 C   0  0  0  0  0  0  0  0  0  0  0  0
   -3.7690    1.9990    0.1520 C   0  0  0  0  0  0  0  0  0  0  0  0
   -2.7360    1.6360    1.5250 S   0  0  0  0  0  0  0  0  0  0  0  0
  1  2  1  0
  3  2  1  1
  3  4  1  0
  3 12  1  0
  4  5  1  0
  5  6  2  0
  5  7  1  0
  7  8  1  0
  8  9  1  0
  9 10  1  0
  9 11  2  0
 12 13  2  0
 12 14  1  0
 14 15  1  0
 15 16  2  0
 15 20  1  0
 16 17  1  0
 17 18  1  0
 18 19  2  0
 19 20  1  0
 20 21  2  3
 21 22  1  0
M  END
