
     RDKit          3D

 35 36  0  0  0  0  0  0  0  0999 V2000
    7.4160    0.0410   -0.0250 C   0  0  0  0  0  0  0  0  0  0  0  0
    6.9370    1.3850    0.4650 C   0  0  2  0  0  0  0  0  0  0  0  0
    7.9650    2.2160    0.8420 O   0  0  0  0  0  0  0  0  0  0  0  0
    6.1200    1.1630    1.5710 O   0  0  0  0  0  0  0  0  0  0  0  0
    6.1520    2.0450   -0.6630 C   0  0  2  0  0  0  0  0  0  0  0  0
    5.6010    3.3020   -0.2500 N   0  0  0  0  0  0  0  0  0  0  0  0
    5.5950    3.6520    0.8820 O   0  0  0  0  0  0  0  0  0  0  0  0
    5.1190    1.1470   -1.0220 O   0  0  0  0  0  0  0  0  0  0  0  0
    5.0270    0.5650   -2.2720 C   0  0  0  0  0  0  0  0  0  0  0  0
    5.9050    0.8530   -3.1200 O   0  0  0  0  0  0  0  0  0  0  0  0
    3.9140   -0.3600   -2.5570 C   0  0  0  0  0  0  0  0  0  0  0  0
    3.0630   -0.5220   -1.4380 O   0  0  0  0  0  0  0  0  0  0  0  0
    1.9550   -1.3530   -1.4970 C   0  0  0  0  0  0  0  0  0  0  0  0
    1.7500   -1.9480   -2.5850 O   0  0  0  0  0  0  0  0  0  0  0  0
    1.0460   -1.5360   -0.3200 C   0  0  2  0  0  0  0  0  0  0  0  0
    1.4680   -0.7570    0.8050 N   0  0  0  0  0  0  0  0  0  0  0  0
    1.0200   -2.9980    0.1050 C   0  0  0  0  0  0  0  0  0  0  0  0
   -0.3170   -3.3600    0.7100 C   0  0  0  0  0  0  0  0  0  0  0  0
   -0.9430   -2.1530    1.4040 C   0  0  0  0  0  0  0  0  0  0  0  0
   -1.2190   -1.0290    0.4310 C   0  0  2  0  0  0  0  0  0  0  0  0
   -2.5600   -0.8790    0.1530 O   0  0  0  0  0  0  0  0  0  0  0  0
   -3.1440    0.3020    0.5150 C   0  0  2  0  0  0  0  0  0  0  0  0
   -2.5540    1.4130   -0.1080 O   0  0  0  0  0  0  0  0  0  0  0  0
   -3.0500    0.5400    1.9980 C   0  0  0  0  0  0  0  0  0  0  0  0
   -4.0220    1.5800    2.4920 C   0  0  1  0  0  0  0  0  0  0  0  0
   -3.4320    2.7980    2.7850 O   0  0  0  0  0  0  0  0  0  0  0  0
   -5.1470    1.8190    1.5130 C   0  0  2  0  0  0  0  0  0  0  0  0
   -6.1830    2.4280    2.2300 O   0  0  0  0  0  0  0  0  0  0  0  0
   -5.5050    0.5890    1.0140 O   0  0  0  0  0  0  0  0  0  0  0  0
   -4.5880    0.2560    0.0150 C   0  0  1  0  0  0  0  0  0  0  0  0
   -4.7870    1.1200   -1.0400 O   0  0  0  0  0  0  0  0  0  0  0  0
   -5.3060    0.4410   -2.1240 C   0  0  0  0  0  0  0  0  0  0  0  0
   -6.6450   -0.1710   -1.9170 C   0  0  0  0  0  0  0  0  0  0  0  0
   -6.9900   -0.8090   -3.1310 O   0  0  0  0  0  0  0  0  0  0  0  0
   -0.3640   -1.2180   -0.7780 C   0  0  0  0  0  0  0  0  0  0  0  0
  2  1  1  6
  2  3  1  0
  2  4  1  0
  2  5  1  0
  5  6  1  0
  5  8  1  1
  6  7  2  0
  8  9  1  0
  9 10  2  0
  9 11  1  0
 11 12  1  0
 12 13  1  0
 13 14  2  0
 13 15  1  0
 15 16  1  1
 15 17  1  0
 15 35  1  0
 17 18  1  0
 18 19  1  0
 19 20  1  0
 20 21  1  6
 20 35  1  0
 21 22  1  0
 22 23  1  6
 22 24  1  0
 22 30  1  0
 24 25  1  0
 25 26  1  6
 25 27  1  0
 27 28  1  1
 27 29  1  0
 29 30  1  0
 30 31  1  6
 31 32  1  0
 32 33  1  0
 33 34  1  0
M  END
