
     RDKit          3D

 20 20  0  0  0  0  0  0  0  0999 V2000
    2.4560    1.1750    0.1120 O   0  0  0  0  0  0  0  0  0  0  0  0
    2.6620   -0.0630    0.0120 C   0  0  0  0  0  0  0  0  0  0  0  0
    4.0280   -0.6130    0.2110 C   0  0  0  0  0  0  0  0  0  0  0  0
    5.0100    0.4450    0.5170 C   0  0  0  0  0  0  0  0  0  0  0  0
    6.2020    0.0900    0.7040 O   0  0  0  0  0  0  0  0  0  0  0  0
    4.7140    1.7880    0.6110 O   0  0  0  0  0  0  0  0  0  0  0  0
    5.6690    2.6920    0.8940 O   0  0  0  0  0  0  0  0  0  0  0  0
    1.5560   -0.9010   -0.2920 N   0  0  0  0  0  0  0  0  0  0  0  0
    0.2140   -0.4000   -0.4920 C   0  0  1  0  0  0  0  0  0  0  0  0
   -0.3140   -0.6710   -1.8600 C   0  0  0  0  0  0  0  0  0  0  0  0
   -1.4020   -1.5950   -1.8630 O   0  0  0  0  0  0  0  0  0  0  0  0
   -2.4850   -1.2720   -1.0220 C   0  0  0  0  0  0  0  0  0  0  0  0
   -3.6410   -1.6880   -1.2170 O   0  0  0  0  0  0  0  0  0  0  0  0
   -2.1240   -0.3770    0.1350 C   0  0  1  0  0  0  0  0  0  0  0  0
   -3.1190   -0.4680    1.2380 C   0  0  0  0  0  0  0  0  0  0  0  0
   -4.3800   -0.0810    0.7450 O   0  0  0  0  0  0  0  0  0  0  0  0
   -4.7050    1.1350    0.2190 C   0  0  0  0  0  0  0  0  0  0  0  0
   -3.8360    2.0210    0.1480 O   0  0  0  0  0  0  0  0  0  0  0  0
   -5.9900    1.4350   -0.2510 O   0  0  0  0  0  0  0  0  0  0  0  0
   -0.7410   -0.8830    0.5780 C   0  0  0  0  0  0  0  0  0  0  0  0
  1  2  2  0
  2  3  1  0
  2  8  1  0
  3  4  1  0
  4  5  2  0
  4  6  1  0
  6  7  1  0
  9  8  1  1
  9 10  1  0
  9 20  1  0
 10 11  1  0
 11 12  1  0
 12 13  2  0
 12 14  1  0
 14 15  1  1
 14 20  1  0
 15 16  1  0
 16 17  1  0
 17 18  2  0
 17 19  1  0
M  END
