
     RDKit          3D

 20 19  0  0  0  0  0  0  0  0999 V2000
   -6.4620   -0.3320   -0.1560 C   0  0  0  0  0  0  0  0  0  0  0  0
   -5.0370   -0.8510   -0.3960 C   0  0  0  0  0  0  0  0  0  0  0  0
   -4.5500    0.2390   -1.1680 O   0  0  0  0  0  0  0  0  0  0  0  0
   -3.2530    0.9840   -0.4630 P   0  0  0  0  0  0  0  0  0  0  0  0
   -3.4430    2.7110   -0.3440 O   0  0  0  0  0  0  0  0  0  0  0  0
   -2.4150    0.2970    0.9960 C   0  0  0  0  0  0  0  0  0  0  0  0
   -0.9090    0.6820    0.6260 N   0  0  0  0  0  0  0  0  0  0  0  0
   -0.7140   -0.3340   -0.4690 C   0  0  0  0  0  0  0  0  0  0  0  0
    0.2310   -0.0350   -1.5260 C   0  0  0  0  0  0  0  0  0  0  0  0
    1.5680    0.2330   -1.3770 O   0  0  0  0  0  0  0  0  0  0  0  0
    2.4330   -0.8190   -0.7410 C   0  0  0  0  0  0  0  0  0  0  0  0
    1.7970   -1.8260   -0.3930 O   0  0  0  0  0  0  0  0  0  0  0  0
    3.8890   -0.5420   -0.5170 C   0  0  2  0  0  0  0  0  0  0  0  0
    4.5290   -1.6570    0.2550 C   0  0  0  0  0  0  0  0  0  0  0  0
    4.6110   -2.7980   -0.5700 O   0  0  0  0  0  0  0  0  0  0  0  0
    4.2100    0.7410    0.0100 C   0  0  0  0  0  0  0  0  0  0  0  0
    3.4300    1.7340    0.2100 O   0  0  0  0  0  0  0  0  0  0  0  0
    5.5540    1.0700    0.4210 O   0  0  0  0  0  0  0  0  0  0  0  0
    5.8930    2.2440    0.8940 O   0  0  0  0  0  0  0  0  0  0  0  0
    5.9010    3.1630   -0.1190 O   0  0  0  0  0  0  0  0  0  0  0  0
  1  2  1  0
  2  3  1  0
  3  4  1  0
  4  5  1  0
  4  6  1  0
  6  7  1  0
  7  8  1  0
  8  9  1  0
  9 10  1  0
 10 11  1  0
 11 12  2  0
 11 13  1  0
 13 14  1  1
 13 16  1  0
 14 15  1  0
 16 17  2  0
 16 18  1  0
 18 19  1  0
 19 20  1  0
M  END
