
     RDKit          3D

 20 20  0  0  0  0  0  0  0  0999 V2000
   -4.0370    1.3390    1.6860 C   0  0  0  0  0  0  0  0  0  0  0  0
   -2.8220    0.9790    2.2090 O   0  0  0  0  0  0  0  0  0  0  0  0
   -1.4950    0.9490    1.1150 P   0  0  0  0  0  0  0  0  0  0  0  0
   -1.8500    2.1230   -0.1420 O   0  0  0  0  0  0  0  0  0  0  0  0
   -2.2680    1.5230   -1.3320 C   0  0  0  0  0  0  0  0  0  0  0  0
   -1.3320   -0.7090    0.3070 C   0  0  0  0  0  0  0  0  0  0  0  0
   -0.1060   -1.0590   -0.1760 C   0  0  0  0  0  0  0  0  0  0  0  0
    1.0650   -0.1820    0.0670 C   0  0  0  0  0  0  0  0  0  0  0  0
    1.0730    0.9340    0.5840 O   0  0  0  0  0  0  0  0  0  0  0  0
    2.3140   -0.7180   -0.3250 O   0  0  0  0  0  0  0  0  0  0  0  0
    3.5700   -0.2100   -0.1770 C   0  0  0  0  0  0  0  0  0  0  0  0
    4.1950    1.0840   -0.4030 C   0  0  0  0  0  0  0  0  0  0  0  0
    5.5920    0.6740    0.0580 O   0  0  0  0  0  0  0  0  0  0  0  0
    6.3200    0.6820   -1.0880 O   0  0  0  0  0  0  0  0  0  0  0  0
   -0.0380   -2.1810   -0.7910 O   0  0  0  0  0  0  0  0  0  0  0  0
   -1.0670   -2.9900   -0.9830 C   0  0  0  0  0  0  0  0  0  0  0  0
   -0.8760   -4.0400   -1.5790 O   0  0  0  0  0  0  0  0  0  0  0  0
   -2.3390   -2.6800   -0.5120 N   0  0  0  0  0  0  0  0  0  0  0  0
   -2.4810   -1.4920    0.1670 C   0  0  0  0  0  0  0  0  0  0  0  0
   -3.6110   -1.2430    0.5770 O   0  0  0  0  0  0  0  0  0  0  0  0
  1  2  1  0
  2  3  1  0
  3  4  1  0
  3  6  1  0
  4  5  1  0
  6  7  2  0
  6 19  1  0
  7  8  1  0
  7 15  1  0
  8  9  2  0
  8 10  1  0
 10 11  1  0
 11 12  1  0
 12 13  1  0
 13 14  1  0
 15 16  1  0
 16 17  2  0
 16 18  1  0
 18 19  1  0
 19 20  2  0
M  END
