
     RDKit          3D

 20 20  0  0  0  0  0  0  0  0999 V2000
   -1.2760   -0.7700   -1.1900 O   0  0  0  0  0  0  0  0  0  0  0  0
   -1.0340    0.3430   -0.6100 C   0  0  0  0  0  0  0  0  0  0  0  0
    0.2480    0.8710   -0.6890 O   0  0  0  0  0  0  0  0  0  0  0  0
    1.2280    0.1230   -1.4260 C   0  0  0  0  0  0  0  0  0  0  0  0
    2.4470    0.7360   -1.4370 O   0  0  0  0  0  0  0  0  0  0  0  0
    3.0170    0.9370   -0.2100 C   0  0  0  0  0  0  0  0  0  0  0  0
    3.2680   -0.3040    0.5780 C   0  0  0  0  0  0  0  0  0  0  0  0
    4.2110   -1.2530   -0.1630 C   0  0  0  0  0  0  0  0  0  0  0  0
    5.8470   -0.4290   -0.4720 P   0  0  0  0  0  0  0  0  0  0  0  0
    7.1160   -1.5990   -0.1860 O   0  0  0  0  0  0  0  0  0  0  0  0
    6.0410    0.8110    0.7400 O   0  0  0  0  0  0  0  0  0  0  0  0
   -2.0640    0.9700    0.0730 O   0  0  0  0  0  0  0  0  0  0  0  0
   -3.3340    0.3790    0.1110 C   0  0  2  0  0  0  0  0  0  0  0  0
   -4.3520    1.2930   -0.5110 C   0  0  0  0  0  0  0  0  0  0  0  0
   -5.5560    0.7250   -0.7730 O   0  0  0  0  0  0  0  0  0  0  0  0
   -5.9120   -0.3500   -0.0150 C   0  0  0  0  0  0  0  0  0  0  0  0
   -6.1960   -0.0110    1.3280 O   0  0  0  0  0  0  0  0  0  0  0  0
   -5.0110   -0.1650    2.0020 N   0  0  0  0  0  0  0  0  0  0  0  0
   -3.7140    0.1910    1.5380 C   0  0  0  0  0  0  0  0  0  0  0  0
   -2.8090    0.3620    2.3940 O   0  0  0  0  0  0  0  0  0  0  0  0
  1  2  2  0
  2  3  1  0
  2 12  1  0
  3  4  1  0
  4  5  1  0
  5  6  1  0
  6  7  1  0
  7  8  1  0
  8  9  1  0
  9 10  1  0
  9 11  1  0
 13 12  1  1
 13 14  1  0
 13 19  1  0
 14 15  1  0
 15 16  1  0
 16 17  1  0
 17 18  1  0
 18 19  1  0
 19 20  2  0
M  END
