
     RDKit          3D

 34 38  0  0  0  0  0  0  0  0999 V2000
   -4.9980    3.1190    2.3840 C   0  0  0  0  0  0  0  0  0  0  0  0
   -4.2120    1.8620    2.7020 C   0  0  0  0  0  0  0  0  0  0  0  0
   -4.7420    0.7440    1.8580 C   0  0  0  0  0  0  0  0  0  0  0  0
   -4.0050   -0.5510    2.1190 C   0  0  0  0  0  0  0  0  0  0  0  0
   -4.5460   -1.6500    1.2710 C   0  0  0  0  0  0  0  0  0  0  0  0
   -4.4180   -1.3430   -0.2100 C   0  0  0  0  0  0  0  0  0  0  0  0
   -5.5380   -1.3030   -0.8570 C   0  0  0  0  0  0  0  0  0  0  0  0
   -5.8380   -1.0390   -2.2360 C   0  0  0  0  0  0  0  0  0  0  0  0
   -5.4800    0.0300   -3.0620 C   0  0  0  0  0  0  0  0  0  0  0  0
   -6.0310   -0.2060   -4.3080 C   0  0  0  0  0  0  0  0  0  0  0  0
   -6.6950   -1.3950   -4.1930 C   0  0  0  0  0  0  0  0  0  0  0  0
   -6.5600   -1.8410   -2.9880 O   0  0  0  0  0  0  0  0  0  0  0  0
   -3.0530   -1.2500   -0.7660 C   0  0  0  0  0  0  0  0  0  0  0  0
   -2.7740   -1.3720   -2.1240 C   0  0  0  0  0  0  0  0  0  0  0  0
   -1.0130   -1.0980   -2.1930 S   0  0  0  0  0  0  0  0  0  0  0  0
   -0.8890   -0.8510   -0.3280 C   0  0  0  0  0  0  0  0  0  0  0  0
    0.4430   -0.5730    0.2200 N   0  0  0  0  0  0  0  0  0  0  0  0
    1.2990   -1.6120    0.7030 C   0  0  0  0  0  0  0  0  0  0  0  0
    2.3790   -1.0140    1.5900 C   0  0  0  0  0  0  0  0  0  0  0  0
    3.1950    0.0090    0.8180 C   0  0  2  0  0  0  0  0  0  0  0  0
    2.3410    0.9270   -0.0110 C   0  0  1  0  0  0  0  0  0  0  0  0
    2.6650    0.5970   -1.4620 C   0  0  0  0  0  0  0  0  0  0  0  0
    4.0450   -0.0160   -1.3470 C   0  0  0  0  0  0  0  0  0  0  0  0
    3.9980   -0.7090   -0.1110 N   0  0  0  0  0  0  0  0  0  0  0  0
    5.2160   -1.2520    0.3770 C   0  0  0  0  0  0  0  0  0  0  0  0
    6.3020   -0.2890    0.6070 C   0  0  0  0  0  0  0  0  0  0  0  0
    6.5090    0.4720    1.7340 C   0  0  0  0  0  0  0  0  0  0  0  0
    7.6100    1.2280    1.5610 N   0  0  0  0  0  0  0  0  0  0  0  0
    8.0590    0.9200    0.3390 C   0  0  0  0  0  0  0  0  0  0  0  0
    9.2110    1.4890   -0.2560 N   0  0  0  0  0  0  0  0  0  0  0  0
    9.0580    2.9150   -1.2060 Cl  0  0  0  0  0  0  0  0  0  0  0  0
    7.2920    0.0160   -0.2480 N   0  0  0  0  0  0  0  0  0  0  0  0
    0.8620    0.7880    0.2530 C   0  0  0  0  0  0  0  0  0  0  0  0
   -1.9860   -0.9910   -0.0330 N   0  0  0  0  0  0  0  0  0  0  0  0
  1  2  1  0
  2  3  1  0
  3  4  1  0
  4  5  1  0
  5  6  1  0
  6  7  2  3
  6 13  1  0
  7  8  1  0
  8  9  2  0
  8 12  1  0
  9 10  1  0
 10 11  2  0
 11 12  1  0
 13 14  2  0
 13 34  1  0
 14 15  1  0
 15 16  1  0
 16 17  1  0
 16 34  2  0
 17 18  1  0
 17 33  1  0
 18 19  1  0
 20 19  1  6
 20 21  1  0
 20 24  1  0
 21 22  1  6
 21 33  1  0
 22 23  1  0
 23 24  1  0
 24 25  1  0
 25 26  1  0
 26 27  2  0
 26 32  1  0
 27 28  1  0
 28 29  2  0
 29 30  1  0
 29 32  1  0
 30 31  1  0
M  CHG  1  28   1
M  END
