
     RDKit          3D

 35 39  0  0  0  0  0  0  0  0999 V2000
    2.7910   -2.8410   -0.1820 C   0  0  0  0  0  0  0  0  0  0  0  0
    1.7230   -2.1550    0.6140 C   0  0  2  0  0  0  0  0  0  0  0  0
    0.3270   -2.4080    0.0260 C   0  0  0  0  0  0  0  0  0  0  0  0
   -0.1840   -1.0390   -0.1380 C   0  0  1  0  0  0  0  0  0  0  0  0
   -1.6680   -0.8570    0.0210 C   0  0  2  0  0  0  0  0  0  0  0  0
   -2.4320   -1.9270   -0.7340 C   0  0  0  0  0  0  0  0  0  0  0  0
   -3.8950   -1.7150   -0.3840 C   0  0  0  0  0  0  0  0  0  0  0  0
   -4.2040   -0.3470   -0.9540 C   0  0  0  0  0  0  0  0  0  0  0  0
   -5.1070   -0.2650   -1.8740 C   0  0  0  0  0  0  0  0  0  0  0  0
   -5.4960    1.0020   -2.5160 C   0  0  0  0  0  0  0  0  0  0  0  0
   -6.3680    1.0600   -3.3980 O   0  0  0  0  0  0  0  0  0  0  0  0
   -4.7660    2.1520   -2.0190 C   0  0  0  0  0  0  0  0  0  0  0  0
   -3.8530    2.0480   -1.0790 C   0  0  0  0  0  0  0  0  0  0  0  0
   -3.4680    0.8140   -0.4310 C   0  0  1  0  0  0  0  0  0  0  0  0
   -3.9860    0.9520    1.0140 C   0  0  0  0  0  0  0  0  0  0  0  0
   -1.9810    0.5490   -0.4470 C   0  0  2  0  0  0  0  0  0  0  0  0
   -1.4630    0.7120   -2.1610 Cl  0  0  0  0  0  0  0  0  0  0  0  0
   -1.1750    1.5250    0.3160 C   0  0  1  0  0  0  0  0  0  0  0  0
   -1.7500    1.9340    1.5280 O   0  0  0  0  0  0  0  0  0  0  0  0
    0.2360    1.1760    0.6100 C   0  0  0  0  0  0  0  0  0  0  0  0
    0.4740   -0.2590    0.9740 C   0  0  1  0  0  0  0  0  0  0  0  0
   -0.1790   -0.6440    2.2760 C   0  0  0  0  0  0  0  0  0  0  0  0
    1.8880   -0.7240    0.8620 C   0  0  2  0  0  0  0  0  0  0  0  0
    2.7080    0.0720    0.2110 O   0  0  0  0  0  0  0  0  0  0  0  0
    3.0610    0.5130   -0.9890 C   0  0  0  0  0  0  0  0  0  0  0  0
    2.4150    0.0120   -1.9280 O   0  0  0  0  0  0  0  0  0  0  0  0
    4.0840    1.4850   -1.3010 C   0  0  0  0  0  0  0  0  0  0  0  0
    4.4360    1.9290   -2.5470 C   0  0  0  0  0  0  0  0  0  0  0  0
    5.4700    2.8650   -2.3850 C   0  0  0  0  0  0  0  0  0  0  0  0
    5.6700    2.9140   -1.0210 C   0  0  0  0  0  0  0  0  0  0  0  0
    4.8400    2.0940   -0.4330 O   0  0  0  0  0  0  0  0  0  0  0  0
    2.4800   -0.6620    2.3340 C   0  0  2  0  0  0  0  0  0  0  0  0
    2.4120    0.6090    2.8300 O   0  0  0  0  0  0  0  0  0  0  0  0
    3.9810   -0.9750    2.2120 C   0  0  0  0  0  0  0  0  0  0  0  0
    4.7370   -0.9230    3.8320 Cl  0  0  0  0  0  0  0  0  0  0  0  0
  2  1  1  6
  2  3  1  0
  2 23  1  0
  4  3  1  1
  4  5  1  0
  4 21  1  0
  5  6  1  6
  5 16  1  0
  6  7  1  0
  7  8  1  0
  8  9  2  0
  8 14  1  0
  9 10  1  0
 10 11  2  0
 10 12  1  0
 12 13  2  0
 13 14  1  0
 14 15  1  1
 14 16  1  0
 16 17  1  6
 16 18  1  0
 18 19  1  1
 18 20  1  0
 20 21  1  0
 21 22  1  1
 21 23  1  0
 23 24  1  6
 23 32  1  0
 24 25  1  0
 25 26  2  0
 25 27  1  0
 27 28  2  0
 27 31  1  0
 28 29  1  0
 29 30  2  0
 30 31  1  0
 32 33  1  6
 32 34  1  0
 34 35  1  0
M  END
