
     RDKit          3D

 34 37  0  0  0  0  0  0  0  0999 V2000
   -8.6310   -1.1780   -0.3450 C   0  0  0  0  0  0  0  0  0  0  0  0
   -8.3530    0.0360    0.0570 C   0  0  0  0  0  0  0  0  0  0  0  0
   -6.9040    0.4450    0.2160 C   0  0  0  0  0  0  0  0  0  0  0  0
   -6.6750    1.6710    0.6160 C   0  0  0  0  0  0  0  0  0  0  0  0
   -5.4140    2.3620    0.8530 C   0  0  0  0  0  0  0  0  0  0  0  0
   -5.9170   -0.6180   -0.0230 C   0  0  0  0  0  0  0  0  0  0  0  0
   -4.6040   -0.2330    0.4360 N   0  0  0  0  0  0  0  0  0  0  0  0
   -4.5590   -0.3380    1.8910 C   0  0  0  0  0  0  0  0  0  0  0  0
   -4.4900   -1.7910    2.3500 C   0  0  0  0  0  0  0  0  0  0  0  0
   -3.5570   -0.9840   -0.1720 C   0  0  1  0  0  0  0  0  0  0  0  0
   -3.4410   -0.8550   -1.6700 C   0  0  0  0  0  0  0  0  0  0  0  0
   -2.9900    0.4940   -2.1150 C   0  0  0  0  0  0  0  0  0  0  0  0
   -1.9160    1.0650   -1.2300 C   0  0  0  0  0  0  0  0  0  0  0  0
   -1.3810    0.0540   -0.3860 N   0  0  0  0  0  0  0  0  0  0  0  0
    0.0510   -0.2230   -0.3500 C   0  0  0  0  0  0  0  0  0  0  0  0
    1.0330    0.1740   -0.8920 N   0  0  0  0  0  0  0  0  0  0  0  0
    2.2780   -0.1760   -0.7350 C   0  0  0  0  0  0  0  0  0  0  0  0
    3.4590    0.3310   -1.4370 C   0  0  0  0  0  0  0  0  0  0  0  0
    3.2940    1.2280   -2.3280 O   0  0  0  0  0  0  0  0  0  0  0  0
    4.7520   -0.1420   -1.1560 N   0  0  0  0  0  0  0  0  0  0  0  0
    4.9860   -1.1220   -0.1580 C   0  0  0  0  0  0  0  0  0  0  0  0
    6.4710   -1.4070    0.0410 C   0  0  0  0  0  0  0  0  0  0  0  0
    7.2540   -0.1530   -0.0610 C   0  0  0  0  0  0  0  0  0  0  0  0
    6.9720    0.7180   -1.0180 C   0  0  0  0  0  0  0  0  0  0  0  0
    5.8890    0.3770   -1.9380 C   0  0  0  0  0  0  0  0  0  0  0  0
    7.6800    1.9230   -1.0790 N   0  0  0  0  0  0  0  0  0  0  0  0
    8.6020    2.2770   -0.2680 C   0  0  0  0  0  0  0  0  0  0  0  0
    9.4220    3.8430   -0.4720 Cl  0  0  0  0  0  0  0  0  0  0  0  0
    9.0190    1.4580    0.8730 C   0  0  0  0  0  0  0  0  0  0  0  0
    8.3510    0.1230    0.8320 C   0  0  0  0  0  0  0  0  0  0  0  0
    8.8220   -0.8090    1.6420 C   0  0  0  0  0  0  0  0  0  0  0  0
    2.4370   -1.1780    0.2320 N   0  0  0  0  0  0  0  0  0  0  0  0
    0.7000   -1.4710    0.7860 S   0  0  0  0  0  0  0  0  0  0  0  0
   -2.2310   -0.7440    0.4790 C   0  0  0  0  0  0  0  0  0  0  0  0
  1  2  2  0
  2  3  1  0
  3  4  2  3
  3  6  1  0
  4  5  1  0
  6  7  1  0
  7  8  1  0
 10  7  1  1
  8  9  1  0
 10 11  1  0
 10 34  1  0
 11 12  1  0
 12 13  1  0
 13 14  1  0
 14 15  1  0
 14 34  1  0
 15 16  2  0
 15 33  1  0
 16 17  1  0
 17 18  1  0
 17 32  2  0
 18 19  2  0
 18 20  1  0
 20 21  1  0
 20 25  1  0
 21 22  1  0
 22 23  1  0
 23 24  2  0
 23 30  1  0
 24 25  1  0
 24 26  1  0
 26 27  2  0
 27 28  1  0
 27 29  1  0
 29 30  1  0
 30 31  2  0
 32 33  1  0
M  CHG  1  26   1
M  END
