
     RDKit          3D

 35 38  0  0  0  0  0  0  0  0999 V2000
   -2.1990    3.9430   -0.1290 C   0  0  0  0  0  0  0  0  0  0  0  0
   -1.8440    2.5400   -0.6020 C   0  0  1  0  0  0  0  0  0  0  0  0
   -1.2190    2.7800   -2.0020 C   0  0  0  0  0  0  0  0  0  0  0  0
   -0.8000    1.9990    0.3090 C   0  0  0  0  0  0  0  0  0  0  0  0
   -0.5310    0.5540    0.0380 C   0  0  0  0  0  0  0  0  0  0  0  0
    0.8350    0.1570    0.0960 N   0  0  0  0  0  0  0  0  0  0  0  0
    1.9520    0.9580    0.4220 C   0  0  0  0  0  0  0  0  0  0  0  0
    1.8370    2.1440    0.7190 O   0  0  0  0  0  0  0  0  0  0  0  0
    3.3270    0.3710    0.4130 C   0  0  0  0  0  0  0  0  0  0  0  0
    4.3150    1.1720    0.7260 C   0  0  0  0  0  0  0  0  0  0  0  0
    4.1160    2.5130    1.0560 O   0  0  0  0  0  0  0  0  0  0  0  0
    5.7100    0.7110    0.7500 C   0  0  0  0  0  0  0  0  0  0  0  0
    6.7390    1.5620    1.0920 C   0  0  0  0  0  0  0  0  0  0  0  0
    8.0530    1.1650    1.1360 C   0  0  0  0  0  0  0  0  0  0  0  0
    8.3220   -0.1510    0.8170 C   0  0  0  0  0  0  0  0  0  0  0  0
    7.3040   -0.9980    0.4770 C   0  0  0  0  0  0  0  0  0  0  0  0
    5.9740   -0.5870    0.4350 C   0  0  0  0  0  0  0  0  0  0  0  0
    4.9020   -1.5220    0.0550 C   0  0  0  0  0  0  0  0  0  0  0  0
    3.5230   -1.0270    0.0790 C   0  0  0  0  0  0  0  0  0  0  0  0
   -1.5240   -0.2960   -0.2580 C   0  0  0  0  0  0  0  0  0  0  0  0
   -1.3050   -1.6720   -0.5320 C   0  0  0  0  0  0  0  0  0  0  0  0
    0.1100   -2.4430   -0.4520 S   0  0  0  0  0  0  0  0  0  0  0  0
   -2.3890   -2.5440   -1.0210 C   0  0  0  0  0  0  0  0  0  0  0  0
   -3.0030   -2.2580   -2.2100 C   0  0  0  0  0  0  0  0  0  0  0  0
   -4.0010   -3.0540   -2.7390 C   0  0  0  0  0  0  0  0  0  0  0  0
   -4.3750   -4.1590   -2.0400 C   0  0  0  0  0  0  0  0  0  0  0  0
   -3.7980   -4.4930   -0.8520 C   0  0  0  0  0  0  0  0  0  0  0  0
   -2.7840   -3.6630   -0.3390 C   0  0  0  0  0  0  0  0  0  0  0  0
   -2.1820   -3.9850    0.8660 O   0  0  0  0  0  0  0  0  0  0  0  0
   -2.9000    0.2850   -0.1870 C   0  0  1  0  0  0  0  0  0  0  0  0
   -3.6340    0.2050    1.0810 C   0  0  1  0  0  0  0  0  0  0  0  0
   -3.8790   -1.2010    1.6080 C   0  0  0  0  0  0  0  0  0  0  0  0
   -3.2640    1.0390    2.2340 C   0  0  0  0  0  0  0  0  0  0  0  0
   -4.9770    0.6290    0.7390 O   0  0  0  0  0  0  0  0  0  0  0  0
   -2.9950    1.6560   -0.7680 C   0  0  0  0  0  0  0  0  0  0  0  0
  2  1  1  1
  2  3  1  0
  2  4  1  0
  2 35  1  0
  4  5  1  0
  5  6  1  0
  5 20  2  0
  6  7  1  0
  7  8  2  0
  7  9  1  0
  9 10  2  0
  9 19  1  0
 10 11  1  0
 10 12  1  0
 12 13  2  0
 12 17  1  0
 13 14  1  0
 14 15  2  0
 15 16  1  0
 16 17  2  0
 17 18  1  0
 18 19  1  0
 20 21  1  0
 20 30  1  0
 21 22  2  0
 21 23  1  0
 23 24  2  0
 23 28  1  0
 24 25  1  0
 25 26  2  0
 26 27  1  0
 27 28  2  0
 28 29  1  0
 30 31  1  0
 30 35  1  1
 31 32  1  1
 31 33  1  0
 31 34  1  0
M  END
