
     RDKit          3D

 26 29  0  0  0  0  0  0  0  0999 V2000
   -3.0790    2.7910    0.6530 O   0  0  0  0  0  0  0  0  0  0  0  0
   -2.7260    1.5080    1.0480 C   0  0  2  0  0  0  0  0  0  0  0  0
   -1.5250    0.9750    0.3010 C   0  0  1  0  0  0  0  0  0  0  0  0
   -0.5690    0.4440    1.1270 O   0  0  0  0  0  0  0  0  0  0  0  0
    0.7180    0.8650    0.9180 C   0  0  0  0  0  0  0  0  0  0  0  0
    1.2420    0.5570   -0.4520 C   0  0  0  0  0  0  0  0  0  0  0  0
    2.6490    1.0410   -0.6160 C   0  0  2  0  0  0  0  0  0  0  0  0
    3.0770    0.6760   -2.0440 C   0  0  0  0  0  0  0  0  0  0  0  0
    4.5050    1.2360   -2.1230 C   0  0  0  0  0  0  0  0  0  0  0  0
    5.2980    0.4230   -1.3890 O   0  0  0  0  0  0  0  0  0  0  0  0
    4.9180    0.0450   -0.1550 C   0  0  1  0  0  0  0  0  0  0  0  0
    4.9970   -1.4900   -0.1060 C   0  0  0  0  0  0  0  0  0  0  0  0
    5.5980   -1.7870    1.2290 C   0  0  0  0  0  0  0  0  0  0  0  0
    6.6920   -0.7270    1.3190 C   0  0  0  0  0  0  0  0  0  0  0  0
    6.0080    0.5020    0.8270 C   0  0  0  0  0  0  0  0  0  0  0  0
    3.6250    0.5040    0.3730 C   0  0  0  0  0  0  0  0  0  0  0  0
   -2.0920   -0.1900   -0.5210 C   0  0  0  0  0  0  0  0  0  0  0  0
   -3.2080   -0.7500    0.3350 C   0  0  2  0  0  0  0  0  0  0  0  0
   -2.6460   -1.4730    1.3680 O   0  0  0  0  0  0  0  0  0  0  0  0
   -4.1150   -1.5480   -0.5440 C   0  0  0  0  0  0  0  0  0  0  0  0
   -5.3870   -1.9850    0.1490 C   0  0  2  0  0  0  0  0  0  0  0  0
   -6.1030   -2.7540   -0.7640 O   0  0  0  0  0  0  0  0  0  0  0  0
   -6.2360   -0.8380    0.6020 C   0  0  0  0  0  0  0  0  0  0  0  0
   -6.0700    0.3320   -0.3040 C   0  0  0  0  0  0  0  0  0  0  0  0
   -4.8220    1.1110   -0.1190 C   0  0  0  0  0  0  0  0  0  0  0  0
   -3.8480    0.5100    0.8600 C   0  0  2  0  0  0  0  0  0  0  0  0
  2  1  1  6
  2  3  1  0
  2 26  1  0
  3  4  1  1
  3 17  1  0
  4  5  1  0
  5  6  1  0
  7  6  1  1
  7  8  1  0
  7 16  1  0
  8  9  1  0
  9 10  1  0
 10 11  1  0
 11 12  1  6
 11 15  1  0
 11 16  1  0
 12 13  1  0
 13 14  1  0
 14 15  1  0
 17 18  1  0
 18 19  1  1
 18 20  1  0
 18 26  1  0
 20 21  1  0
 21 22  1  6
 21 23  1  0
 23 24  1  0
 24 25  1  0
 26 25  1  6
M  END
