
     RDKit          3D

 26 29  0  0  0  0  0  0  0  0999 V2000
   -1.8940   -1.6120    1.1760 C   0  0  0  0  0  0  0  0  0  0  0  0
   -1.7230   -0.5140    0.1790 C   0  0  2  0  0  0  0  0  0  0  0  0
   -0.9420   -0.8900   -1.0190 C   0  0  0  0  0  0  0  0  0  0  0  0
    0.2100   -0.0230   -1.3850 C   0  0  2  0  0  0  0  0  0  0  0  0
    0.9790   -0.7810   -2.3050 O   0  0  0  0  0  0  0  0  0  0  0  0
    1.0440    0.4890   -0.2680 C   0  0  1  0  0  0  0  0  0  0  0  0
    0.3140    0.3880    1.0870 C   0  0  1  0  0  0  0  0  0  0  0  0
    1.0150    1.3950    1.9850 C   0  0  0  0  0  0  0  0  0  0  0  0
    2.3730    0.8200    2.2780 C   0  0  0  0  0  0  0  0  0  0  0  0
    3.0700    0.3320    1.0710 C   0  0  0  0  0  0  0  0  0  0  0  0
    4.3800    0.1780    1.1730 C   0  0  0  0  0  0  0  0  0  0  0  0
    5.1050   -0.3000    0.0030 C   0  0  0  0  0  0  0  0  0  0  0  0
    6.0580   -1.1100    0.1460 O   0  0  0  0  0  0  0  0  0  0  0  0
    4.6730    0.2030   -1.3250 C   0  0  0  0  0  0  0  0  0  0  0  0
    3.2600    0.7440   -1.2810 C   0  0  0  0  0  0  0  0  0  0  0  0
    2.4410    0.0040   -0.2110 C   0  0  2  0  0  0  0  0  0  0  0  0
    2.6290   -1.4590   -0.4750 C   0  0  0  0  0  0  0  0  0  0  0  0
   -1.0770    0.7450    0.7760 C   0  0  2  0  0  0  0  0  0  0  0  0
   -2.0190    1.0420    1.8710 C   0  0  0  0  0  0  0  0  0  0  0  0
   -3.3820    0.7370    1.2400 C   0  0  0  0  0  0  0  0  0  0  0  0
   -3.0930    0.0720   -0.0990 C   0  0  1  0  0  0  0  0  0  0  0  0
   -3.0050    1.0510   -1.1020 O   0  0  0  0  0  0  0  0  0  0  0  0
   -4.1220   -0.9020   -0.4390 C   0  0  0  0  0  0  0  0  0  0  0  0
   -4.3800   -1.8200    0.3120 O   0  0  0  0  0  0  0  0  0  0  0  0
   -4.8880   -0.8070   -1.7110 C   0  0  0  0  0  0  0  0  0  0  0  0
   -4.5000    0.2800   -2.4750 O   0  0  0  0  0  0  0  0  0  0  0  0
  2  1  1  1
  2  3  1  0
  2 18  1  0
  2 21  1  0
  3  4  1  0
  4  5  1  6
  6  4  1  6
  6  7  1  0
  6 16  1  0
  7  8  1  1
  7 18  1  0
  8  9  1  0
  9 10  1  0
 10 11  2  0
 10 16  1  0
 11 12  1  0
 12 13  2  0
 12 14  1  0
 14 15  1  0
 15 16  1  0
 16 17  1  6
 18 19  1  1
 19 20  1  0
 20 21  1  0
 21 22  1  6
 21 23  1  0
 23 24  2  0
 23 25  1  0
 25 26  1  0
M  END
