
     RDKit          3D

 26 28  0  0  0  0  0  0  0  0999 V2000
   -1.0750   -1.3970   -2.8510 C   0  0  0  0  0  0  0  0  0  0  0  0
   -0.2100   -0.6350   -1.9350 C   0  0  2  0  0  0  0  0  0  0  0  0
    1.1460   -1.3570   -2.0750 C   0  0  0  0  0  0  0  0  0  0  0  0
    1.9470   -1.2630   -0.8010 C   0  0  0  0  0  0  0  0  0  0  0  0
    1.8170    0.0990   -0.1770 C   0  0  2  0  0  0  0  0  0  0  0  0
    1.8800    0.9800   -1.3050 O   0  0  0  0  0  0  0  0  0  0  0  0
    2.9660    0.4260    0.6530 C   0  0  2  0  0  0  0  0  0  0  0  0
    3.0400    1.6500    1.4620 C   0  0  0  0  0  0  0  0  0  0  0  0
    4.2270    1.7890    2.2250 O   0  0  0  0  0  0  0  0  0  0  0  0
    4.1310    0.7090   -0.3950 C   0  0  0  0  0  0  0  0  0  0  0  0
    5.3290    0.4570    0.4770 C   0  0  0  0  0  0  0  0  0  0  0  0
    4.8810   -0.0520    1.6840 O   0  0  0  0  0  0  0  0  0  0  0  0
    3.7050   -0.6970    1.3100 C   0  0  0  0  0  0  0  0  0  0  0  0
    0.4020    0.2530    0.3250 C   0  0  1  0  0  0  0  0  0  0  0  0
    0.2460   -0.1910    1.7530 C   0  0  0  0  0  0  0  0  0  0  0  0
    0.1070    1.7380    0.1120 C   0  0  0  0  0  0  0  0  0  0  0  0
   -0.5770   -0.5970   -0.5040 C   0  0  1  0  0  0  0  0  0  0  0  0
   -1.9520   -0.7660   -0.0640 C   0  0  1  0  0  0  0  0  0  0  0  0
   -2.4180   -2.2050   -0.4740 C   0  0  0  0  0  0  0  0  0  0  0  0
   -2.0540   -0.8450    1.3550 O   0  0  0  0  0  0  0  0  0  0  0  0
   -3.0580    0.1430   -0.4040 C   0  0  2  0  0  0  0  0  0  0  0  0
   -3.0440    1.5640    0.0410 C   0  0  0  0  0  0  0  0  0  0  0  0
   -4.5470    1.8790    0.0540 C   0  0  0  0  0  0  0  0  0  0  0  0
   -5.1960    0.7400   -0.4110 O   0  0  0  0  0  0  0  0  0  0  0  0
   -4.4090   -0.2800    0.1710 C   0  0  2  0  0  0  0  0  0  0  0  0
   -4.5460   -0.1670    1.6400 C   0  0  0  0  0  0  0  0  0  0  0  0
  2  1  1  6
  2  3  1  0
 17  2  1  6
  3  4  1  0
  4  5  1  0
  5  6  1  6
  5  7  1  0
  5 14  1  0
  7  8  1  1
  7 10  1  0
  7 13  1  0
  8  9  1  0
 10 11  1  0
 11 12  1  0
 12 13  1  0
 14 15  1  1
 14 16  1  0
 14 17  1  0
 17 18  1  0
 18 19  1  6
 18 20  1  0
 18 21  1  0
 21 22  1  1
 21 25  1  0
 22 23  1  0
 23 24  1  0
 24 25  1  0
 25 26  1  1
M  END
