
     RDKit          3D

 26 29  0  0  0  0  0  0  0  0999 V2000
   -1.7290    3.0880   -0.0700 C   0  0  0  0  0  0  0  0  0  0  0  0
   -2.5040    1.7960   -0.2560 C   0  0  0  0  0  0  0  0  0  0  0  0
   -1.9260    0.6780    0.5450 C   0  0  1  0  0  0  0  0  0  0  0  0
   -1.9650    1.0400    2.0400 C   0  0  0  0  0  0  0  0  0  0  0  0
   -1.2300    2.1810    2.2440 O   0  0  0  0  0  0  0  0  0  0  0  0
   -2.6340   -0.6390    0.4210 C   0  0  1  0  0  0  0  0  0  0  0  0
   -4.0770   -0.4710    0.5930 C   0  0  0  0  0  0  0  0  0  0  0  0
   -4.6480   -0.9830    1.6130 O   0  0  0  0  0  0  0  0  0  0  0  0
   -4.8790    0.2260   -0.3040 O   0  0  0  0  0  0  0  0  0  0  0  0
   -2.3380   -1.3380   -0.8920 C   0  0  2  0  0  0  0  0  0  0  0  0
   -3.0550   -2.6650   -0.8390 C   0  0  0  0  0  0  0  0  0  0  0  0
   -2.0770   -3.6700   -1.3480 C   0  0  0  0  0  0  0  0  0  0  0  0
   -0.7420   -3.1490   -0.8530 C   0  0  0  0  0  0  0  0  0  0  0  0
   -0.8840   -1.6480   -0.9930 C   0  0  2  0  0  0  0  0  0  0  0  0
   -0.0670   -0.9670    0.0970 C   0  0  1  0  0  0  0  0  0  0  0  0
    1.3750   -1.0550   -0.2680 C   0  0  0  0  0  0  0  0  0  0  0  0
    2.0240    0.2750   -0.5870 C   0  0  2  0  0  0  0  0  0  0  0  0
    3.2950   -0.0770   -1.3780 C   0  0  0  0  0  0  0  0  0  0  0  0
    4.2560   -0.2730   -0.1950 C   0  0  0  0  0  0  0  0  0  0  0  0
    3.8000    0.8670    0.6790 C   0  0  2  0  0  0  0  0  0  0  0  0
    4.5410    2.1090    0.2290 C   0  0  0  0  0  0  0  0  0  0  0  0
    4.0930    0.5740    2.1550 C   0  0  0  0  0  0  0  0  0  0  0  0
    2.4490    0.9440    0.5360 O   0  0  0  0  0  0  0  0  0  0  0  0
    1.1240    1.1680   -1.3710 C   0  0  0  0  0  0  0  0  0  0  0  0
   -0.2330    0.9850   -1.1430 O   0  0  0  0  0  0  0  0  0  0  0  0
   -0.4590    0.4940    0.1230 C   0  0  1  0  0  0  0  0  0  0  0  0
  1  2  1  0
  3  2  1  6
  3  4  1  0
  3  6  1  0
  3 26  1  0
  4  5  1  0
  6  7  1  6
  6 10  1  0
  7  8  2  0
  7  9  1  0
 10 11  1  1
 10 14  1  0
 11 12  1  0
 12 13  1  0
 14 13  1  1
 14 15  1  0
 15 16  1  6
 15 26  1  0
 17 16  1  1
 17 18  1  0
 17 23  1  0
 17 24  1  0
 18 19  1  0
 19 20  1  0
 20 21  1  6
 20 22  1  0
 20 23  1  0
 24 25  1  0
 26 25  1  6
M  END
