
     RDKit          3D

 26 28  0  0  0  0  0  0  0  0999 V2000
   -4.8280   -1.6890   -1.0620 C   0  0  0  0  0  0  0  0  0  0  0  0
   -3.4110   -1.8290   -0.5970 C   0  0  0  0  0  0  0  0  0  0  0  0
   -2.7540   -0.4520   -0.3470 C   0  0  1  0  0  0  0  0  0  0  0  0
   -1.3840   -0.7340    0.0900 C   0  0  2  0  0  0  0  0  0  0  0  0
   -0.7820   -1.4810   -0.9670 O   0  0  0  0  0  0  0  0  0  0  0  0
   -1.1740   -1.5270    1.3200 C   0  0  0  0  0  0  0  0  0  0  0  0
   -0.4580   -0.7240    2.4200 C   0  0  0  0  0  0  0  0  0  0  0  0
    0.9630   -0.5430    1.9300 C   0  0  0  0  0  0  0  0  0  0  0  0
    0.9610   -0.0060    0.5100 C   0  0  2  0  0  0  0  0  0  0  0  0
   -0.4530    0.4910    0.1370 C   0  0  0  0  0  0  0  0  0  0  0  0
    1.2340   -1.0070   -0.3460 O   0  0  0  0  0  0  0  0  0  0  0  0
    2.4500   -1.1580   -0.8730 C   0  0  0  0  0  0  0  0  0  0  0  0
    3.6100   -0.5680   -0.1520 C   0  0  1  0  0  0  0  0  0  0  0  0
    4.2710   -1.6330    0.7120 C   0  0  0  0  0  0  0  0  0  0  0  0
    4.6620   -0.1980   -1.2060 C   0  0  0  0  0  0  0  0  0  0  0  0
    4.1920    0.7100   -2.1190 O   0  0  0  0  0  0  0  0  0  0  0  0
    3.3050    0.6190    0.6770 C   0  0  1  0  0  0  0  0  0  0  0  0
    4.2500    1.6390    0.5140 O   0  0  0  0  0  0  0  0  0  0  0  0
    1.8930    1.1610    0.4740 C   0  0  1  0  0  0  0  0  0  0  0  0
    1.7820    1.9820   -0.7840 C   0  0  0  0  0  0  0  0  0  0  0  0
    1.6390    2.0950    1.6360 C   0  0  0  0  0  0  0  0  0  0  0  0
   -2.8440    0.3810   -1.6060 C   0  0  0  0  0  0  0  0  0  0  0  0
   -3.6050    1.6320   -1.3100 C   0  0  0  0  0  0  0  0  0  0  0  0
   -3.6870    1.7390    0.1700 C   0  0  0  0  0  0  0  0  0  0  0  0
   -3.6720    0.2740    0.5540 C   0  0  2  0  0  0  0  0  0  0  0  0
   -3.5250    0.0740    1.9010 O   0  0  0  0  0  0  0  0  0  0  0  0
  1  2  1  0
  3  2  1  6
  3  4  1  0
  3 22  1  0
  3 25  1  0
  4  5  1  6
  4  6  1  0
  4 10  1  0
  6  7  1  0
  7  8  1  0
  9  8  1  1
  9 10  1  0
  9 11  1  0
  9 19  1  0
 11 12  1  0
 12 13  1  0
 13 14  1  1
 13 15  1  0
 13 17  1  0
 15 16  1  0
 17 18  1  6
 17 19  1  0
 19 20  1  6
 19 21  1  0
 22 23  1  0
 23 24  1  0
 24 25  1  0
 25 26  1  1
M  END
