
     RDKit          3D

 31 34  0  0  0  0  0  0  0  0999 V2000
    9.3610    0.7290    2.7050 C   0  0  0  0  0  0  0  0  0  0  0  0
    9.5450    1.1250    1.3580 O   0  0  0  0  0  0  0  0  0  0  0  0
    8.4750    0.9220    0.4930 C   0  0  0  0  0  0  0  0  0  0  0  0
    7.2810    0.3680    0.8890 C   0  0  0  0  0  0  0  0  0  0  0  0
    6.2050    0.1570    0.0500 C   0  0  0  0  0  0  0  0  0  0  0  0
    6.3050    0.5140   -1.2680 C   0  0  0  0  0  0  0  0  0  0  0  0
    5.2600    0.3600   -2.2110 N   0  0  0  0  0  0  0  0  0  0  0  0
    3.9110    0.1200   -1.8820 C   0  0  0  0  0  0  0  0  0  0  0  0
    3.5610    0.0350   -0.6960 O   0  0  0  0  0  0  0  0  0  0  0  0
    2.9320   -0.0270   -2.9380 N   0  0  0  0  0  0  0  0  0  0  0  0
    1.5680   -0.2630   -2.7410 C   0  0  0  0  0  0  0  0  0  0  0  0
    0.8230   -0.5870   -3.8810 C   0  0  0  0  0  0  0  0  0  0  0  0
   -0.5200   -0.8160   -3.7420 C   0  0  0  0  0  0  0  0  0  0  0  0
   -1.2110   -0.7520   -2.5440 C   0  0  0  0  0  0  0  0  0  0  0  0
   -2.4760   -0.9250   -2.1430 N   0  0  0  0  0  0  0  0  0  0  0  0
   -2.5760   -0.7290   -0.8190 C   0  0  0  0  0  0  0  0  0  0  0  0
   -3.8230   -0.8280    0.0200 C   0  0  0  0  0  0  0  0  0  0  0  0
   -3.4360   -0.5260    1.4430 C   0  0  0  0  0  0  0  0  0  0  0  0
   -4.6470   -0.6070    2.3470 C   0  0  0  0  0  0  0  0  0  0  0  0
   -5.6920    0.3800    1.9200 C   0  0  0  0  0  0  0  0  0  0  0  0
   -6.8930   -0.0620    1.5670 C   0  0  0  0  0  0  0  0  0  0  0  0
   -7.1490   -1.5450    1.6140 C   0  0  0  0  0  0  0  0  0  0  0  0
   -7.9070    0.8180    1.1570 N   0  0  0  0  0  0  0  0  0  0  0  0
   -7.7240    2.2350    1.0990 C   0  0  0  0  0  0  0  0  0  0  0  0
   -6.3710    2.6340    1.5050 C   0  0  0  0  0  0  0  0  0  0  0  0
   -5.4380    1.7970    1.8800 C   0  0  0  0  0  0  0  0  0  0  0  0
   -1.3280   -0.4280   -0.4000 N   0  0  0  0  0  0  0  0  0  0  0  0
   -0.4750   -0.4330   -1.4240 C   0  0  0  0  0  0  0  0  0  0  0  0
    0.8960   -0.1950   -1.5460 C   0  0  0  0  0  0  0  0  0  0  0  0
    7.5130    1.0790   -1.6890 C   0  0  0  0  0  0  0  0  0  0  0  0
    8.5610    1.2760   -0.8370 C   0  0  0  0  0  0  0  0  0  0  0  0
  1  2  1  0
  2  3  1  0
  3  4  2  0
  3 31  1  0
  4  5  1  0
  5  6  2  0
  6  7  1  0
  6 30  1  0
  7  8  1  0
  8  9  2  0
  8 10  1  0
 10 11  1  0
 11 12  2  0
 11 29  1  0
 12 13  1  0
 13 14  2  0
 14 15  1  0
 14 28  1  0
 15 16  2  0
 16 17  1  0
 16 27  1  0
 17 18  1  0
 18 19  1  0
 19 20  1  0
 20 21  2  0
 20 26  1  0
 21 22  1  0
 21 23  1  0
 23 24  1  0
 24 25  1  0
 25 26  2  0
 27 28  1  0
 28 29  2  0
 30 31  2  0
M  END
