
     RDKit          3D

 31 34  0  0  0  0  0  0  0  0999 V2000
    8.5370    1.1700   -0.8220 C   0  0  0  0  0  0  0  0  0  0  0  0
    7.4890    0.1240   -1.0200 C   0  0  0  0  0  0  0  0  0  0  0  0
    7.2240   -0.4010   -2.2830 C   0  0  0  0  0  0  0  0  0  0  0  0
    6.2640   -1.3620   -2.4720 C   0  0  0  0  0  0  0  0  0  0  0  0
    5.5470   -1.8170   -1.3910 C   0  0  0  0  0  0  0  0  0  0  0  0
    5.7720   -1.3290   -0.1220 C   0  0  0  0  0  0  0  0  0  0  0  0
    4.9530   -1.8640    1.0350 C   0  0  0  0  0  0  0  0  0  0  0  0
    3.8700   -1.1820    1.1840 O   0  0  0  0  0  0  0  0  0  0  0  0
    2.7650   -0.5190    1.2620 C   0  0  0  0  0  0  0  0  0  0  0  0
    1.8860   -0.4830    0.2050 N   0  0  0  0  0  0  0  0  0  0  0  0
    0.7290    0.1840    0.2250 C   0  0  0  0  0  0  0  0  0  0  0  0
   -0.2030    0.1970   -0.9530 C   0  0  1  0  0  0  0  0  0  0  0  0
    0.2290   -0.9440   -1.8500 C   0  0  0  0  0  0  0  0  0  0  0  0
   -1.5820   -0.0130   -0.5340 N   0  0  0  0  0  0  0  0  0  0  0  0
   -2.6150    0.8950   -0.8240 C   0  0  0  0  0  0  0  0  0  0  0  0
   -2.3100    1.9290   -1.4760 O   0  0  0  0  0  0  0  0  0  0  0  0
   -4.0220    0.7010   -0.4080 C   0  0  0  0  0  0  0  0  0  0  0  0
   -4.4150   -0.4000    0.3070 C   0  0  0  0  0  0  0  0  0  0  0  0
   -5.7280   -0.5550    0.6790 C   0  0  0  0  0  0  0  0  0  0  0  0
   -6.1580   -1.7570    1.4590 C   0  0  0  0  0  0  0  0  0  0  0  0
   -6.6460    0.4060    0.3290 C   0  0  0  0  0  0  0  0  0  0  0  0
   -6.2800    1.5200   -0.3870 C   0  0  0  0  0  0  0  0  0  0  0  0
   -4.9690    1.6410   -0.7400 C   0  0  0  0  0  0  0  0  0  0  0  0
   -7.4950    2.3800   -0.6130 C   0  0  0  0  0  0  0  0  0  0  0  0
   -8.6380    1.4510   -0.3370 C   0  0  0  0  0  0  0  0  0  0  0  0
   -8.0600    0.4870    0.5860 N   0  0  0  0  0  0  0  0  0  0  0  0
    0.3210    0.8860    1.2940 N   0  0  0  0  0  0  0  0  0  0  0  0
    1.1350    0.8870    2.3510 C   0  0  0  0  0  0  0  0  0  0  0  0
    2.3310    0.2200    2.3820 C   0  0  0  0  0  0  0  0  0  0  0  0
    3.1300    0.2700    3.5280 N   0  0  0  0  0  0  0  0  0  0  0  0
    6.7390   -0.3710    0.0240 C   0  0  0  0  0  0  0  0  0  0  0  0
  1  2  1  0
  2  3  2  0
  2 31  1  0
  3  4  1  0
  4  5  2  0
  5  6  1  0
  6  7  1  0
  6 31  2  0
  7  8  1  0
  8  9  1  0
  9 10  2  0
  9 29  1  0
 10 11  1  0
 11 12  1  0
 11 27  2  0
 12 13  1  6
 12 14  1  0
 14 15  1  0
 15 16  2  0
 15 17  1  0
 17 18  2  0
 17 23  1  0
 18 19  1  0
 19 20  1  0
 19 21  2  0
 21 22  1  0
 21 26  1  0
 22 23  2  0
 22 24  1  0
 24 25  1  0
 25 26  1  0
 27 28  1  0
 28 29  2  0
 29 30  1  0
M  END
