
     RDKit          3D

 31 34  0  0  0  0  0  0  0  0999 V2000
    5.0910    0.4070    5.2820 C   0  0  0  0  0  0  0  0  0  0  0  0
    4.7730    1.9040    5.3500 C   0  0  0  0  0  0  0  0  0  0  0  0
    4.3170    2.3680    3.9840 C   0  0  1  0  0  0  0  0  0  0  0  0
    5.4040    2.1270    2.9820 C   0  0  0  0  0  0  0  0  0  0  0  0
    3.0030    1.7150    3.6090 C   0  0  0  0  0  0  0  0  0  0  0  0
    2.5810    2.1470    2.2370 C   0  0  0  0  0  0  0  0  0  0  0  0
    1.2750    1.5140    1.8350 C   0  0  0  0  0  0  0  0  0  0  0  0
    0.4180    1.2400    2.7460 O   0  0  0  0  0  0  0  0  0  0  0  0
    0.9330    1.2000    0.5090 N   0  0  0  0  0  0  0  0  0  0  0  0
   -0.3320    0.6890    0.1140 C   0  0  0  0  0  0  0  0  0  0  0  0
   -0.5660    0.2360   -1.1710 C   0  0  0  0  0  0  0  0  0  0  0  0
   -1.8250   -0.1640   -1.5690 C   0  0  0  0  0  0  0  0  0  0  0  0
   -2.0640   -0.5670   -2.9830 C   0  0  0  0  0  0  0  0  0  0  0  0
   -2.5630    0.3610   -3.8750 C   0  0  0  0  0  0  0  0  0  0  0  0
   -2.7040    0.0630   -5.2160 C   0  0  0  0  0  0  0  0  0  0  0  0
   -2.3240   -1.2190   -5.6560 C   0  0  0  0  0  0  0  0  0  0  0  0
   -1.8260   -2.1660   -4.7830 C   0  0  0  0  0  0  0  0  0  0  0  0
   -1.5150   -3.4230   -5.2080 C   0  0  0  0  0  0  0  0  0  0  0  0
   -1.0740   -4.3770   -4.3330 C   0  0  0  0  0  0  0  0  0  0  0  0
   -0.9460   -4.0350   -2.9830 C   0  0  0  0  0  0  0  0  0  0  0  0
   -1.2640   -2.7420   -2.5320 C   0  0  0  0  0  0  0  0  0  0  0  0
   -1.7060   -1.8040   -3.4340 C   0  0  0  0  0  0  0  0  0  0  0  0
   -2.8920   -0.1260   -0.6920 C   0  0  0  0  0  0  0  0  0  0  0  0
   -4.2040   -0.4430   -0.7700 C   0  0  0  0  0  0  0  0  0  0  0  0
   -4.7970   -0.9710   -1.8360 N   0  0  0  0  0  0  0  0  0  0  0  0
   -6.1890   -1.1930   -1.6380 C   0  0  0  0  0  0  0  0  0  0  0  0
   -6.9870   -0.2700   -2.0500 O   0  0  0  0  0  0  0  0  0  0  0  0
   -4.7660   -0.1950    0.4280 N   0  0  0  0  0  0  0  0  0  0  0  0
   -3.8090    0.2730    1.2470 N   0  0  0  0  0  0  0  0  0  0  0  0
   -2.6290    0.3380    0.6160 C   0  0  0  0  0  0  0  0  0  0  0  0
   -1.3940    0.7100    0.9380 N   0  0  0  0  0  0  0  0  0  0  0  0
  1  2  1  0
  2  3  1  0
  3  4  1  6
  3  5  1  0
  5  6  1  0
  6  7  1  0
  7  8  2  0
  7  9  1  0
  9 10  1  0
 10 11  2  0
 10 31  1  0
 11 12  1  0
 12 13  1  0
 12 23  2  0
 13 14  2  0
 13 22  1  0
 14 15  1  0
 15 16  2  0
 16 17  1  0
 17 18  2  0
 17 22  1  0
 18 19  1  0
 19 20  2  0
 20 21  1  0
 21 22  2  0
 23 24  1  0
 23 30  1  0
 24 25  2  3
 24 28  1  0
 25 26  1  0
 26 27  2  0
 28 29  1  0
 29 30  1  0
 30 31  2  0
M  END
