
     RDKit          3D

 29 31  0  0  0  0  0  0  0  0999 V2000
   -0.2970    4.9390    0.0210 C   0  0  0  0  0  0  0  0  0  0  0  0
   -0.5310    3.8740   -0.6940 C   0  0  0  0  0  0  0  0  0  0  0  0
   -0.2770    3.7150   -2.1390 C   0  0  0  0  0  0  0  0  0  0  0  0
   -0.3070    2.2430   -2.3870 C   0  0  0  0  0  0  0  0  0  0  0  0
   -0.4710    1.6020   -1.1030 N   0  0  0  0  0  0  0  0  0  0  0  0
   -0.0760    0.2500   -0.7980 C   0  0  2  0  0  0  0  0  0  0  0  0
   -0.9140   -0.7410   -1.5630 C   0  0  0  0  0  0  0  0  0  0  0  0
   -1.8170   -1.5070   -0.7520 N   0  0  0  0  0  0  0  0  0  0  0  0
   -1.4400   -2.0150    0.5210 C   0  0  0  0  0  0  0  0  0  0  0  0
   -1.9570   -3.1100    1.0470 C   0  0  0  0  0  0  0  0  0  0  0  0
   -2.9820   -3.9410    0.3930 C   0  0  0  0  0  0  0  0  0  0  0  0
   -4.2610   -4.0410    1.1920 C   0  0  0  0  0  0  0  0  0  0  0  0
   -5.1670   -4.8910    0.4150 N   0  0  0  0  0  0  0  0  0  0  0  0
   -0.4240   -1.2340    1.2190 C   0  0  0  0  0  0  0  0  0  0  0  0
   -0.0070   -1.5730    2.3400 O   0  0  0  0  0  0  0  0  0  0  0  0
    0.1000   -0.0490    0.5890 N   0  0  0  0  0  0  0  0  0  0  0  0
    0.8430    0.8430    1.4470 C   0  0  0  0  0  0  0  0  0  0  0  0
    2.3010    0.3910    1.3990 C   0  0  0  0  0  0  0  0  0  0  0  0
    2.8050    0.4540    0.0800 O   0  0  0  0  0  0  0  0  0  0  0  0
    4.1120    0.0850   -0.1790 C   0  0  0  0  0  0  0  0  0  0  0  0
    4.6260    0.1380   -1.4560 C   0  0  0  0  0  0  0  0  0  0  0  0
    5.9470   -0.2440   -1.6670 C   0  0  0  0  0  0  0  0  0  0  0  0
    6.7500   -0.6720   -0.6400 C   0  0  0  0  0  0  0  0  0  0  0  0
    6.2370   -0.7250    0.6380 C   0  0  0  0  0  0  0  0  0  0  0  0
    4.9090   -0.3430    0.8580 C   0  0  0  0  0  0  0  0  0  0  0  0
   -1.1000    2.5790   -0.2770 C   0  0  0  0  0  0  0  0  0  0  0  0
   -2.0100    2.3480    0.6390 C   0  0  0  0  0  0  0  0  0  0  0  0
   -2.6070    3.4610    1.4090 C   0  0  0  0  0  0  0  0  0  0  0  0
   -2.4710    1.1120    0.9380 F   0  0  0  0  0  0  0  0  0  0  0  0
  1  2  2  0
  2  3  1  0
  2 26  1  0
  3  4  1  0
  4  5  1  0
  6  5  1  1
  5 26  1  0
  6  7  1  0
  6 16  1  0
  7  8  1  0
  8  9  1  0
  9 10  2  3
  9 14  1  0
 10 11  1  0
 11 12  1  0
 12 13  1  0
 14 15  2  0
 14 16  1  0
 16 17  1  0
 17 18  1  0
 18 19  1  0
 19 20  1  0
 20 21  2  0
 20 25  1  0
 21 22  1  0
 22 23  2  0
 23 24  1  0
 24 25  2  0
 26 27  2  3
 27 28  1  0
 27 29  1  0
M  CHG  1  13   1
M  END
