
     RDKit          3D

 18 18  0  0  0  0  0  0  0  0999 V2000
    4.6500    0.3930   -1.6830 C   0  0  0  0  0  0  0  0  0  0  0  0
    3.8600   -0.0160   -0.7250 C   0  0  0  0  0  0  0  0  0  0  0  0
    2.5300   -0.3990   -0.9700 O   0  0  0  0  0  0  0  0  0  0  0  0
    1.6880   -0.4290    0.1600 C   0  0  2  0  0  0  0  0  0  0  0  0
    0.3130   -0.1620   -0.2670 C   0  0  0  0  0  0  0  0  0  0  0  0
    0.0890    0.0410   -1.4870 O   0  0  0  0  0  0  0  0  0  0  0  0
   -0.7950   -0.1170    0.6180 N   0  0  0  0  0  0  0  0  0  0  0  0
   -2.0910    0.1500    0.1090 C   0  0  0  0  0  0  0  0  0  0  0  0
   -2.2170    0.3400   -1.1260 O   0  0  0  0  0  0  0  0  0  0  0  0
   -3.2930    0.2130    0.9640 C   0  0  0  0  0  0  0  0  0  0  0  0
   -4.4300    0.4850    0.1800 O   0  0  0  0  0  0  0  0  0  0  0  0
   -4.7980   -0.3830   -0.8230 C   0  0  0  0  0  0  0  0  0  0  0  0
   -5.9550   -0.1220   -1.6350 N   0  0  0  0  0  0  0  0  0  0  0  0
   -4.1670   -1.4190   -1.0780 O   0  0  0  0  0  0  0  0  0  0  0  0
    2.1120    0.5400    1.2230 C   0  0  0  0  0  0  0  0  0  0  0  0
    3.4270    0.5060    1.5600 O   0  0  0  0  0  0  0  0  0  0  0  0
    4.2780   -0.1160    0.6980 C   0  0  1  0  0  0  0  0  0  0  0  0
    4.4960   -1.4420    0.9910 F   0  0  0  0  0  0  0  0  0  0  0  0
  1  2  2  0
  2  3  1  0
  2 17  1  0
  3  4  1  0
  4  5  1  6
  4 15  1  0
  5  6  2  0
  5  7  1  0
  7  8  1  0
  8  9  2  0
  8 10  1  0
 10 11  1  0
 11 12  1  0
 12 13  1  0
 12 14  2  0
 15 16  1  0
 16 17  1  0
 17 18  1  1
M  END
