
     RDKit          3D

 17 18  0  0  0  0  0  0  0  0999 V2000
    3.4680    0.6520    0.6280 C   0  0  0  0  0  0  0  0  0  0  0  0
    2.0570    0.7240    0.2520 N   0  0  0  0  0  0  0  0  0  0  0  0
    1.2880   -0.4300   -0.0570 C   0  0  0  0  0  0  0  0  0  0  0  0
    1.8850   -1.5350    0.0080 O   0  0  0  0  0  0  0  0  0  0  0  0
   -0.1470   -0.3640   -0.4390 C   0  0  1  0  0  0  0  0  0  0  0  0
   -0.6730   -1.7530   -0.7030 C   0  0  0  0  0  0  0  0  0  0  0  0
   -1.2520   -2.3910    0.4930 C   0  0  0  0  0  0  0  0  0  0  0  0
   -1.0290   -3.5460    0.8810 O   0  0  0  0  0  0  0  0  0  0  0  0
   -2.1380   -1.6110    1.2610 O   0  0  0  0  0  0  0  0  0  0  0  0
   -2.3400   -0.2860    0.7850 C   0  0  0  0  0  0  0  0  0  0  0  0
   -0.9720    0.3710    0.5890 C   0  0  1  0  0  0  0  0  0  0  0  0
   -0.3090    0.5130    1.7890 O   0  0  0  0  0  0  0  0  0  0  0  0
   -1.2390    1.7160    0.0170 C   0  0  0  0  0  0  0  0  0  0  0  0
   -1.6260    2.7460    0.6150 O   0  0  0  0  0  0  0  0  0  0  0  0
   -0.9720    1.6320   -1.3730 N   0  0  0  0  0  0  0  0  0  0  0  0
   -0.3120    0.4190   -1.6780 C   0  0  0  0  0  0  0  0  0  0  0  0
    0.0690    0.0630   -2.8050 O   0  0  0  0  0  0  0  0  0  0  0  0
  1  2  1  0
  2  3  1  0
  3  4  2  0
  5  3  1  1
  5  6  1  0
  5 11  1  0
  5 16  1  0
  6  7  1  0
  7  8  2  0
  7  9  1  0
  9 10  1  0
 10 11  1  0
 11 12  1  1
 11 13  1  0
 13 14  2  0
 13 15  1  0
 15 16  1  0
 16 17  2  0
M  END
