
     RDKit          3D

 17 18  0  0  0  0  0  0  0  0999 V2000
    4.7680   -0.9550   -0.9330 O   0  0  0  0  0  0  0  0  0  0  0  0
    3.5850   -0.6060   -0.6430 C   0  0  0  0  0  0  0  0  0  0  0  0
    3.3940    0.7340   -0.1750 N   0  0  0  0  0  0  0  0  0  0  0  0
    2.2520    1.2950    0.4560 C   0  0  0  0  0  0  0  0  0  0  0  0
    2.3390    2.5070    0.8120 O   0  0  0  0  0  0  0  0  0  0  0  0
    1.0630    0.6250    0.7100 O   0  0  0  0  0  0  0  0  0  0  0  0
    0.3710   -0.3400    0.0000 C   0  0  1  0  0  0  0  0  0  0  0  0
   -0.6710   -0.9470    0.9490 C   0  0  0  0  0  0  0  0  0  0  0  0
   -2.0250   -0.9990    0.2840 C   0  0  0  0  0  0  0  0  0  0  0  0
   -2.5370    0.4160    0.1320 C   0  0  2  0  0  0  0  0  0  0  0  0
   -3.6300    0.5140   -0.7010 O   0  0  0  0  0  0  0  0  0  0  0  0
   -1.4150    1.2690   -0.4110 C   0  0  2  0  0  0  0  0  0  0  0  0
   -1.8850    2.2750   -1.2510 O   0  0  0  0  0  0  0  0  0  0  0  0
   -0.4210    0.3710   -1.1030 C   0  0  0  0  0  0  0  0  0  0  0  0
    1.1660   -1.4430   -0.5300 C   0  0  0  0  0  0  0  0  0  0  0  0
    0.4900   -2.4820   -0.7940 O   0  0  0  0  0  0  0  0  0  0  0  0
    2.5590   -1.5790   -0.8080 N   0  0  0  0  0  0  0  0  0  0  0  0
  1  2  2  0
  2  3  1  0
  2 17  1  0
  3  4  1  0
  4  5  2  0
  4  6  1  0
  6  7  1  0
  7  8  1  1
  7 14  1  0
  7 15  1  0
  8  9  1  0
  9 10  1  0
 10 11  1  6
 10 12  1  0
 12 13  1  6
 12 14  1  0
 15 16  2  0
 15 17  1  0
M  END
