
     RDKit          3D

 16 17  0  0  0  0  0  0  0  0999 V2000
    1.6940   -1.5920   -2.0450 C   0  0  0  0  0  0  0  0  0  0  0  0
    2.1320   -0.8120   -0.8580 C   0  0  0  0  0  0  0  0  0  0  0  0
    1.2570   -0.3800    0.0790 C   0  0  0  0  0  0  0  0  0  0  0  0
   -0.1680   -0.6640   -0.0310 C   0  0  0  0  0  0  0  0  0  0  0  0
   -1.1140    0.4830   -0.1350 C   0  0  2  0  0  0  0  0  0  0  0  0
   -1.1360    1.3920    0.9590 N   0  0  0  0  0  0  0  0  0  0  0  0
   -2.4560   -0.1070   -0.5040 C   0  0  1  0  0  0  0  0  0  0  0  0
   -2.9990   -1.0770    0.4880 C   0  0  0  0  0  0  0  0  0  0  0  0
   -4.4960   -0.7940    0.4020 C   0  0  0  0  0  0  0  0  0  0  0  0
   -4.6690   -0.0150   -0.7660 O   0  0  0  0  0  0  0  0  0  0  0  0
   -3.5430    0.8520   -0.7820 C   0  0  0  0  0  0  0  0  0  0  0  0
    1.8770    0.3620    1.1920 C   0  0  2  0  0  0  0  0  0  0  0  0
    2.3960    1.7220    0.7680 C   0  0  0  0  0  0  0  0  0  0  0  0
    2.9470   -0.3970    1.7430 O   0  0  0  0  0  0  0  0  0  0  0  0
    3.9650   -0.5590    0.8200 C   0  0  0  0  0  0  0  0  0  0  0  0
    3.5680   -0.4610   -0.6100 C   0  0  0  0  0  0  0  0  0  0  0  0
  1  2  1  0
  2  3  2  0
  2 16  1  0
  3  4  1  0
  3 12  1  0
  4  5  1  0
  5  6  1  1
  5  7  1  0
  7  8  1  1
  7 11  1  0
  8  9  1  0
  9 10  1  0
 10 11  1  0
 12 13  1  6
 12 14  1  0
 14 15  1  0
 15 16  1  0
M  CHG  1   6   1
M  END
