
     RDKit          3D

 16 17  0  0  0  0  0  0  0  0999 V2000
   -3.7080    2.5760   -1.3250 O   0  0  0  0  0  0  0  0  0  0  0  0
   -3.0420    1.9000   -0.2850 C   0  0  0  0  0  0  0  0  0  0  0  0
   -3.2150    0.4200   -0.5180 C   0  0  0  0  0  0  0  0  0  0  0  0
   -2.5750   -0.4330    0.5240 C   0  0  1  0  0  0  0  0  0  0  0  0
   -2.8370   -1.8850    0.1580 C   0  0  0  0  0  0  0  0  0  0  0  0
   -1.8950   -2.2970   -0.9550 C   0  0  0  0  0  0  0  0  0  0  0  0
   -0.5030   -2.2480   -0.3950 C   0  0  0  0  0  0  0  0  0  0  0  0
   -0.1680   -0.8060   -0.0940 C   0  0  2  0  0  0  0  0  0  0  0  0
    1.1450   -0.7990    0.5270 N   0  0  0  0  0  0  0  0  0  0  0  0
    1.8840    0.4110    0.2410 C   0  0  1  0  0  0  0  0  0  0  0  0
    2.5030    0.9840    1.5140 C   0  0  0  0  0  0  0  0  0  0  0  0
    3.8100    1.6190    1.0870 C   0  0  0  0  0  0  0  0  0  0  0  0
    3.8930    1.4140   -0.4240 C   0  0  0  0  0  0  0  0  0  0  0  0
    3.1340    0.1130   -0.5780 C   0  0  2  0  0  0  0  0  0  0  0  0
    2.8520   -0.1970   -1.8870 O   0  0  0  0  0  0  0  0  0  0  0  0
   -1.1550   -0.1650    0.8360 C   0  0  0  0  0  0  0  0  0  0  0  0
  1  2  1  0
  2  3  1  0
  4  3  1  6
  4  5  1  0
  4 16  1  0
  5  6  1  0
  6  7  1  0
  7  8  1  0
  8  9  1  1
  8 16  1  0
 10  9  1  1
 10 11  1  0
 10 14  1  0
 11 12  1  0
 12 13  1  0
 13 14  1  0
 14 15  1  6
M  CHG  1   9   1
M  END
