
     RDKit          3D

 19 20  0  0  0  0  0  0  0  0999 V2000
    1.4980   -2.0320   -1.3710 C   0  0  0  0  0  0  0  0  0  0  0  0
    0.2780   -1.5970   -0.6410 C   0  0  0  0  0  0  0  0  0  0  0  0
   -0.0470   -0.1520   -0.6030 C   0  0  1  0  0  0  0  0  0  0  0  0
    0.8470    0.7610   -0.0070 N   0  0  0  0  0  0  0  0  0  0  0  0
    2.0860    0.3670    0.5210 C   0  0  2  0  0  0  0  0  0  0  0  0
    2.2690    0.7630    2.0040 C   0  0  0  0  0  0  0  0  0  0  0  0
    3.1970    1.2160   -0.1380 C   0  0  1  0  0  0  0  0  0  0  0  0
    4.4490    0.8680    0.3400 O   0  0  0  0  0  0  0  0  0  0  0  0
    3.0960    1.2550   -1.5000 O   0  0  0  0  0  0  0  0  0  0  0  0
   -0.3360    0.2940   -2.0480 C   0  0  0  0  0  0  0  0  0  0  0  0
   -1.4680   -0.4190   -2.6840 C   0  0  0  0  0  0  0  0  0  0  0  0
   -2.7510   -0.0950   -1.9710 C   0  0  0  0  0  0  0  0  0  0  0  0
   -2.5380   -0.0290   -0.4970 C   0  0  0  0  0  0  0  0  0  0  0  0
   -1.3640   -0.0540    0.0950 C   0  0  0  0  0  0  0  0  0  0  0  0
   -1.4050    0.0160    1.5420 N   0  0  0  0  0  0  0  0  0  0  0  0
   -2.5890    0.1040    2.2550 N   0  0  0  0  0  0  0  0  0  0  0  0
   -2.5870    0.1730    3.6900 C   0  0  0  0  0  0  0  0  0  0  0  0
   -3.7960    0.1270    1.5680 N   0  0  0  0  0  0  0  0  0  0  0  0
   -3.7960    0.0650    0.2770 C   0  0  0  0  0  0  0  0  0  0  0  0
  1  2  1  0
  3  2  1  6
  3  4  1  0
  3 10  1  0
  3 14  1  0
  4  5  1  0
  5  6  1  1
  5  7  1  0
  7  8  1  6
  7  9  1  0
 10 11  1  0
 11 12  1  0
 12 13  1  0
 13 14  2  0
 13 19  1  0
 14 15  1  0
 15 16  1  0
 16 17  1  0
 16 18  1  0
 18 19  2  0
M  CHG  1   4   1
M  END
