
     RDKit          3D

 19 21  0  0  0  0  0  0  0  0999 V2000
    5.5760    2.5600   -0.2450 C   0  0  0  0  0  0  0  0  0  0  0  0
    4.3220    2.1210   -0.9090 C   0  0  0  0  0  0  0  0  0  0  0  0
    3.6930    1.0110   -0.5270 C   0  0  0  0  0  0  0  0  0  0  0  0
    2.4920    0.4950   -1.0860 N   0  0  0  0  0  0  0  0  0  0  0  0
    2.1440   -0.5890   -0.4980 C   0  0  0  0  0  0  0  0  0  0  0  0
    0.9220   -1.3810   -0.8520 C   0  0  0  0  0  0  0  0  0  0  0  0
    0.0110   -1.4700    0.3430 C   0  0  0  0  0  0  0  0  0  0  0  0
   -1.1620   -2.2400   -0.0220 N   0  0  0  0  0  0  0  0  0  0  0  0
   -2.1030   -1.4550   -0.7860 C   0  0  1  0  0  0  0  0  0  0  0  0
   -3.4710   -2.0900   -0.9160 C   0  0  0  0  0  0  0  0  0  0  0  0
   -3.2770   -0.8260   -0.1710 C   0  0  2  0  0  0  0  0  0  0  0  0
   -3.8370    0.4130   -0.8550 C   0  0  1  0  0  0  0  0  0  0  0  0
   -4.9360    0.8490   -0.1220 O   0  0  0  0  0  0  0  0  0  0  0  0
   -4.4120    1.5070    0.9820 C   0  0  0  0  0  0  0  0  0  0  0  0
   -3.0960    2.0200    0.4660 C   0  0  0  0  0  0  0  0  0  0  0  0
   -2.9480    1.4720   -0.8030 O   0  0  0  0  0  0  0  0  0  0  0  0
    3.0550   -0.9440    0.5250 N   0  0  0  0  0  0  0  0  0  0  0  0
    4.0680    0.0820    0.5220 C   0  0  0  0  0  0  0  0  0  0  0  0
    5.0950    0.1540    1.2960 N   0  0  0  0  0  0  0  0  0  0  0  0
  1  2  1  0
  2  3  2  3
  3  4  1  0
  3 18  1  0
  4  5  2  0
  5  6  1  0
  5 17  1  0
  6  7  1  0
  7  8  1  0
  9  8  1  1
  9 10  1  0
  9 11  1  0
 11 10  1  6
 11 12  1  0
 12 13  1  1
 12 16  1  0
 13 14  1  0
 14 15  1  0
 15 16  1  0
 17 18  1  0
 18 19  2  0
M  CHG  1   8   1
M  END
