
     RDKit          3D

 19 21  0  0  0  0  0  0  0  0999 V2000
   -3.7060   -1.9260    0.3650 N   0  0  0  0  0  0  0  0  0  0  0  0
   -2.4520   -1.2170    0.2840 C   0  0  0  0  0  0  0  0  0  0  0  0
   -2.4390    0.0230    1.1450 C   0  0  2  0  0  0  0  0  0  0  0  0
   -3.5500    0.9210    0.6570 C   0  0  0  0  0  0  0  0  0  0  0  0
   -3.0190    1.2830   -0.6640 N   0  0  0  0  0  0  0  0  0  0  0  0
   -3.3870    1.6260   -1.8920 N   0  0  0  0  0  0  0  0  0  0  0  0
   -2.3450    1.8460   -2.6660 C   0  0  0  0  0  0  0  0  0  0  0  0
   -1.2280    1.6290   -1.8730 C   0  0  0  0  0  0  0  0  0  0  0  0
   -1.6800    1.2760   -0.6260 C   0  0  0  0  0  0  0  0  0  0  0  0
   -1.2240    0.8890    0.7380 C   0  0  2  0  0  0  0  0  0  0  0  0
   -0.0870    0.0920    0.8400 N   0  0  0  0  0  0  0  0  0  0  0  0
    0.9310    0.1640   -0.1250 C   0  0  0  0  0  0  0  0  0  0  0  0
    2.0520   -0.7800    0.1040 C   0  0  0  0  0  0  0  0  0  0  0  0
    3.2580   -0.3420    0.2890 C   0  0  0  0  0  0  0  0  0  0  0  0
    4.4910   -1.1950    0.5290 C   0  0  0  0  0  0  0  0  0  0  0  0
    5.4460   -0.4660   -0.4400 C   0  0  0  0  0  0  0  0  0  0  0  0
    5.1140    0.9400   -0.0730 C   0  0  0  0  0  0  0  0  0  0  0  0
    5.8740    1.9110   -0.1240 O   0  0  0  0  0  0  0  0  0  0  0  0
    3.7890    0.9580    0.3320 O   0  0  0  0  0  0  0  0  0  0  0  0
  1  2  1  0
  3  2  1  6
  3  4  1  0
  3 10  1  0
  4  5  1  0
  5  6  1  0
  5  9  1  0
  6  7  2  0
  7  8  1  0
  8  9  2  0
  9 10  1  0
 10 11  1  6
 11 12  1  0
 12 13  1  0
 13 14  2  3
 14 15  1  0
 14 19  1  0
 15 16  1  0
 16 17  1  0
 17 18  2  0
 17 19  1  0
M  CHG  1   1   1
M  END
