
     RDKit          3D

 19 20  0  0  0  0  0  0  0  0999 V2000
   -4.6570    1.2370    1.7900 O   0  0  0  0  0  0  0  0  0  0  0  0
   -3.7170    0.6840    1.1870 C   0  0  0  0  0  0  0  0  0  0  0  0
   -2.5690    1.3600    0.7940 C   0  0  0  0  0  0  0  0  0  0  0  0
   -1.5730    0.6940    0.1350 C   0  0  0  0  0  0  0  0  0  0  0  0
   -1.6740   -0.6490   -0.1590 C   0  0  0  0  0  0  0  0  0  0  0  0
   -2.8320   -1.2410    0.2620 N   0  0  0  0  0  0  0  0  0  0  0  0
   -2.9450   -2.5870   -0.0250 O   0  0  0  0  0  0  0  0  0  0  0  0
   -3.7550   -0.5830    0.8840 O   0  0  0  0  0  0  0  0  0  0  0  0
   -0.7620   -1.5570   -0.8770 C   0  0  0  0  0  0  0  0  0  0  0  0
    0.6410   -1.6560   -0.4160 C   0  0  0  0  0  0  0  0  0  0  0  0
    1.3160   -0.3290   -0.1490 C   0  0  0  0  0  0  0  0  0  0  0  0
    2.4580   -0.3400    0.4460 C   0  0  0  0  0  0  0  0  0  0  0  0
    3.3240    0.7450    0.8520 C   0  0  0  0  0  0  0  0  0  0  0  0
    2.8960    2.0200    0.7130 F   0  0  0  0  0  0  0  0  0  0  0  0
    0.8010    0.9640   -0.5950 C   0  0  0  0  0  0  0  0  0  0  0  0
    1.5300    1.6820   -1.4160 C   0  0  0  0  0  0  0  0  0  0  0  0
    1.0180    2.8700   -1.7930 F   0  0  0  0  0  0  0  0  0  0  0  0
    2.7020    1.2580   -1.9150 F   0  0  0  0  0  0  0  0  0  0  0  0
   -0.4560    1.5040   -0.2040 O   0  0  0  0  0  0  0  0  0  0  0  0
  1  2  2  0
  2  3  1  0
  2  8  1  0
  3  4  2  0
  4  5  1  0
  4 19  1  0
  5  6  2  0
  5  9  1  0
  6  7  1  0
  6  8  1  0
  9 10  1  0
 10 11  1  0
 11 12  2  3
 11 15  1  0
 12 13  1  0
 13 14  1  0
 15 16  2  3
 15 19  1  0
 16 17  1  0
 16 18  1  0
M  CHG  2   6   1   7  -1
M  END
