
     RDKit          3D

 12 12  0  0  0  0  0  0  0  0999 V2000
    3.7750   -0.6140    0.1040 C   0  0  0  0  0  0  0  0  0  0  0  0
    2.5340   -0.2780   -0.0760 O   0  0  0  0  0  0  0  0  0  0  0  0
    1.2350   -0.2190   -0.1810 C   0  0  0  0  0  0  0  0  0  0  0  0
    0.3670   -1.2580    0.0090 C   0  0  0  0  0  0  0  0  0  0  0  0
   -0.9750   -1.0230   -0.0710 C   0  0  0  0  0  0  0  0  0  0  0  0
   -1.8970   -2.0870    0.1260 O   0  0  0  0  0  0  0  0  0  0  0  0
   -1.4810    0.2260   -0.3310 C   0  0  0  0  0  0  0  0  0  0  0  0
   -2.9360    0.4090    0.0090 C   0  0  0  0  0  0  0  0  0  0  0  0
   -3.8680    0.6180   -0.9540 O   0  0  0  0  0  0  0  0  0  0  0  0
   -0.6090    1.2790   -0.5470 C   0  0  0  0  0  0  0  0  0  0  0  0
    0.7380    1.0820   -0.4820 C   0  0  0  0  0  0  0  0  0  0  0  0
    1.7110    2.0850   -0.6790 O   0  0  0  0  0  0  0  0  0  0  0  0
  1  2  1  0
  2  3  1  0
  3  4  2  0
  3 11  1  0
  4  5  1  0
  5  6  1  0
  5  7  2  0
  7  8  1  0
  7 10  1  0
  8  9  1  0
 10 11  2  0
 11 12  1  0
M  END
