
     RDKit          3D

 19 20  0  0  0  0  0  0  0  0999 V2000
   -3.6150    0.3350   -2.5530 C   0  0  0  0  0  0  0  0  0  0  0  0
   -3.1450    0.5140   -1.3560 C   0  0  0  0  0  0  0  0  0  0  0  0
   -1.8060    0.9260   -0.9670 C   0  0  0  0  0  0  0  0  0  0  0  0
   -1.5390    0.5310    0.2530 C   0  0  0  0  0  0  0  0  0  0  0  0
   -0.6210    0.4530    1.3900 C   0  0  0  0  0  0  0  0  0  0  0  0
    0.8610    0.6450    1.2810 C   0  0  0  0  0  0  0  0  0  0  0  0
    1.4400   -0.2910    0.4270 O   0  0  0  0  0  0  0  0  0  0  0  0
    2.8090   -0.2470    0.2190 C   0  0  0  0  0  0  0  0  0  0  0  0
    3.4840    0.6370    0.8080 O   0  0  0  0  0  0  0  0  0  0  0  0
    3.5050   -1.2170   -0.6830 C   0  0  0  0  0  0  0  0  0  0  0  0
    4.9980   -0.9080   -0.7000 C   0  0  2  0  0  0  0  0  0  0  0  0
    5.2330    0.3720   -1.1590 F   0  0  0  0  0  0  0  0  0  0  0  0
    5.6540   -1.7750   -1.5310 F   0  0  0  0  0  0  0  0  0  0  0  0
    5.4220   -1.0500    0.6250 F   0  0  0  0  0  0  0  0  0  0  0  0
   -1.3350    0.2020    2.4280 N   0  0  0  0  0  0  0  0  0  0  0  0
   -0.7750    0.0610    3.6980 O   0  0  0  0  0  0  0  0  0  0  0  0
   -2.6740    0.1020    2.1060 O   0  0  0  0  0  0  0  0  0  0  0  0
   -2.7350   -0.2480    0.7620 C   0  0  1  0  0  0  0  0  0  0  0  0
   -3.8500    0.3450   -0.0420 C   0  0  0  0  0  0  0  0  0  0  0  0
  1  2  2  0
  2  3  1  0
  2 19  1  0
  3  4  2  0
  4  5  1  0
  4 18  1  0
  5  6  1  0
  5 15  2  0
  6  7  1  0
  7  8  1  0
  8  9  2  0
  8 10  1  0
 10 11  1  0
 11 12  1  6
 11 13  1  0
 11 14  1  0
 15 16  1  0
 15 17  1  0
 17 18  1  0
 18 19  1  6
M  CHG  2  15   1  16  -1
M  END
