
     RDKit          3D

 19 20  0  0  0  0  0  0  0  0999 V2000
   -4.2100    0.8470   -1.2170 O   0  0  0  0  0  0  0  0  0  0  0  0
   -2.9980    1.0040   -1.0680 C   0  0  0  0  0  0  0  0  0  0  0  0
   -2.1420    1.3820   -2.0860 O   0  0  0  0  0  0  0  0  0  0  0  0
   -0.7850    1.1270   -2.1090 C   0  0  0  0  0  0  0  0  0  0  0  0
   -0.2640    0.4520   -1.0570 C   0  0  0  0  0  0  0  0  0  0  0  0
    1.1400    0.1480   -0.9780 C   0  0  0  0  0  0  0  0  0  0  0  0
    1.8370   -0.4340   -0.0660 C   0  0  0  0  0  0  0  0  0  0  0  0
    3.3230   -0.6340   -0.2460 C   0  0  0  0  0  0  0  0  0  0  0  0
    4.0810    0.0680    0.8600 C   0  0  2  0  0  0  0  0  0  0  0  0
    3.7590    1.4290    0.7800 F   0  0  0  0  0  0  0  0  0  0  0  0
    5.4420   -0.0050    0.6420 F   0  0  0  0  0  0  0  0  0  0  0  0
    3.7490   -0.3890    2.0980 F   0  0  0  0  0  0  0  0  0  0  0  0
   -1.1880   -0.0880   -0.0640 C   0  0  0  0  0  0  0  0  0  0  0  0
   -1.2820   -1.2130    0.5470 N   0  0  0  0  0  0  0  0  0  0  0  0
   -0.4340   -2.2880    0.3780 O   0  0  0  0  0  0  0  0  0  0  0  0
   -2.3960   -1.2180    1.4440 C   0  0  0  0  0  0  0  0  0  0  0  0
   -2.6250   -2.0990    2.2950 O   0  0  0  0  0  0  0  0  0  0  0  0
   -3.2250   -0.0250    1.2030 C   0  0  0  0  0  0  0  0  0  0  0  0
   -2.3800    0.7820    0.2830 C   0  0  2  0  0  0  0  0  0  0  0  0
  1  2  2  0
  2  3  1  0
  2 19  1  0
  3  4  1  0
  4  5  2  0
  5  6  1  0
  5 13  1  0
  6  7  2  3
  7  8  1  0
  8  9  1  0
  9 10  1  1
  9 11  1  0
  9 12  1  0
 13 14  2  0
 13 19  1  0
 14 15  1  0
 14 16  1  0
 16 17  2  0
 16 18  1  0
 19 18  1  1
M  CHG  2  14   1  15  -1
M  END
