
     RDKit          3D

 12 12  0  0  0  0  0  0  0  0999 V2000
    3.5510    0.6680   -0.4580 C   0  0  0  0  0  0  0  0  0  0  0  0
    2.3080    0.0710   -0.6260 O   0  0  0  0  0  0  0  0  0  0  0  0
    1.8720   -0.5330    0.5560 C   0  0  0  0  0  0  0  0  0  0  0  0
    0.5400   -1.1640    0.3460 C   0  0  2  0  0  0  0  0  0  0  0  0
    0.6670   -2.1240   -0.6570 O   0  0  0  0  0  0  0  0  0  0  0  0
   -0.5430   -0.2210   -0.0500 C   0  0  1  0  0  0  0  0  0  0  0  0
   -0.2240    0.4040   -1.2690 O   0  0  0  0  0  0  0  0  0  0  0  0
   -1.8300   -1.0210   -0.2090 C   0  0  0  0  0  0  0  0  0  0  0  0
   -2.9490   -0.0390   -0.3590 C   0  0  0  0  0  0  0  0  0  0  0  0
   -2.5300    1.2310   -0.7240 O   0  0  0  0  0  0  0  0  0  0  0  0
   -1.7480    1.8550    0.2230 C   0  0  0  0  0  0  0  0  0  0  0  0
   -0.8300    0.8570    0.9420 C   0  0  0  0  0  0  0  0  0  0  0  0
  1  2  1  0
  2  3  1  0
  3  4  1  0
  4  5  1  6
  4  6  1  0
  6  7  1  6
  6  8  1  0
  6 12  1  0
  8  9  1  0
  9 10  1  0
 10 11  1  0
 11 12  1  0
M  END
