
     RDKit          3D

 12 11  0  0  0  0  0  0  0  0999 V2000
    0.1710    1.3900    2.2080 C   0  0  0  0  0  0  0  0  0  0  0  0
   -0.3000    0.7530    1.1360 C   0  0  0  0  0  0  0  0  0  0  0  0
   -1.6780    0.3180    1.1740 C   0  0  0  0  0  0  0  0  0  0  0  0
   -2.3340   -0.3210    0.2330 C   0  0  0  0  0  0  0  0  0  0  0  0
   -3.7580   -0.7110    0.4060 C   0  0  0  0  0  0  0  0  0  0  0  0
   -3.9560   -2.0680    0.3220 O   0  0  0  0  0  0  0  0  0  0  0  0
    0.6160    0.5480    0.0110 C   0  0  0  0  0  0  0  0  0  0  0  0
    0.2830   -0.0340   -1.0380 O   0  0  0  0  0  0  0  0  0  0  0  0
    1.9100    1.0050    0.0840 O   0  0  0  0  0  0  0  0  0  0  0  0
    2.9250    0.9180   -0.8430 C   0  0  0  0  0  0  0  0  0  0  0  0
    3.3850   -0.4400   -1.2380 C   0  0  0  0  0  0  0  0  0  0  0  0
    2.4210   -1.2480   -1.8090 O   0  0  0  0  0  0  0  0  0  0  0  0
  1  2  2  0
  2  3  1  0
  2  7  1  0
  3  4  2  3
  4  5  1  0
  5  6  1  0
  7  8  2  0
  7  9  1  0
  9 10  1  0
 10 11  1  0
 11 12  1  0
M  END
