
     RDKit          3D

 23 23  0  0  0  0  0  0  0  0999 V2000
   -3.2570    3.1340   -0.1500 C   0  0  0  0  0  0  0  0  0  0  0  0
   -2.8560    1.8970    0.4080 O   0  0  0  0  0  0  0  0  0  0  0  0
   -3.0320    0.6890   -0.2510 C   0  0  0  0  0  0  0  0  0  0  0  0
   -3.5680    0.7410   -1.3780 O   0  0  0  0  0  0  0  0  0  0  0  0
   -2.6330   -0.6240    0.2880 C   0  0  1  0  0  0  0  0  0  0  0  0
   -2.8570   -1.7000   -0.6870 C   0  0  0  0  0  0  0  0  0  0  0  0
   -2.1250   -1.6080   -1.9680 C   0  0  0  0  0  0  0  0  0  0  0  0
   -2.4850   -0.9830   -2.9430 O   0  0  0  0  0  0  0  0  0  0  0  0
   -1.3220   -0.5140    0.9420 C   0  0  2  0  0  0  0  0  0  0  0  0
   -1.4780    0.4380    1.9890 O   0  0  0  0  0  0  0  0  0  0  0  0
   -0.1760   -0.0170    0.1350 C   0  0  0  0  0  0  0  0  0  0  0  0
    0.9460   -0.3040    1.1440 C   0  0  2  0  0  0  0  0  0  0  0  0
    1.0050    0.8350    1.9830 O   0  0  0  0  0  0  0  0  0  0  0  0
    2.2620   -0.4890    0.4700 C   0  0  1  0  0  0  0  0  0  0  0  0
    2.3250   -1.5680   -0.3730 O   0  0  0  0  0  0  0  0  0  0  0  0
    2.6280    0.8140   -0.2380 C   0  0  0  0  0  0  0  0  0  0  0  0
    3.9670    0.6780   -0.9450 C   0  0  1  0  0  0  0  0  0  0  0  0
    4.9940    0.3750   -0.0590 O   0  0  0  0  0  0  0  0  0  0  0  0
    3.8680   -0.2340   -1.9810 O   0  0  0  0  0  0  0  0  0  0  0  0
    4.2580    1.9400   -1.4820 O   0  0  0  0  0  0  0  0  0  0  0  0
    0.5240   -1.3410    1.9210 O   0  0  0  0  0  0  0  0  0  0  0  0
   -0.7620   -1.7270    1.5660 C   0  0  2  0  0  0  0  0  0  0  0  0
   -0.6610   -2.8360    0.7650 O   0  0  0  0  0  0  0  0  0  0  0  0
  1  2  1  0
  2  3  1  0
  3  4  2  0
  3  5  1  0
  5  6  1  6
  5  9  1  0
  6  7  1  0
  7  8  2  0
  9 10  1  1
  9 11  1  0
  9 22  1  0
 11 12  1  0
 12 13  1  1
 12 14  1  0
 12 21  1  0
 14 15  1  6
 14 16  1  0
 16 17  1  0
 17 18  1  1
 17 19  1  0
 17 20  1  0
 21 22  1  0
 22 23  1  6
M  END
