
     RDKit          3D

 22 22  0  0  0  0  0  0  0  0999 V2000
    5.9970    1.4490    0.4710 O   0  0  0  0  0  0  0  0  0  0  0  0
    4.8750    0.6870    0.7940 C   0  0  0  0  0  0  0  0  0  0  0  0
    4.4150   -0.0490   -0.2690 O   0  0  0  0  0  0  0  0  0  0  0  0
    3.3240   -0.8210   -0.0430 C   0  0  0  0  0  0  0  0  0  0  0  0
    2.0940   -0.0660    0.3930 C   0  0  1  0  0  0  0  0  0  0  0  0
    1.8350    1.0890   -0.5250 C   0  0  0  0  0  0  0  0  0  0  0  0
    0.5480    1.1780   -0.9870 O   0  0  0  0  0  0  0  0  0  0  0  0
   -0.3510    1.6660   -0.0170 C   0  0  0  0  0  0  0  0  0  0  0  0
   -1.7200    1.6520   -0.5820 C   0  0  2  0  0  0  0  0  0  0  0  0
   -2.0630    2.9950   -0.8770 O   0  0  0  0  0  0  0  0  0  0  0  0
   -2.7910    1.0960    0.2600 C   0  0  1  0  0  0  0  0  0  0  0  0
   -3.9690    0.6590   -0.6070 C   0  0  0  0  0  0  0  0  0  0  0  0
   -4.4780    1.7650   -1.3210 O   0  0  0  0  0  0  0  0  0  0  0  0
   -2.4370   -0.0440    1.1450 C   0  0  1  0  0  0  0  0  0  0  0  0
   -3.6050   -0.3620    1.8840 O   0  0  0  0  0  0  0  0  0  0  0  0
   -2.0340   -1.3000    0.4400 C   0  0  1  0  0  0  0  0  0  0  0  0
   -1.5930   -1.0580   -0.8560 O   0  0  0  0  0  0  0  0  0  0  0  0
   -1.0680   -1.9910    1.1730 O   0  0  0  0  0  0  0  0  0  0  0  0
   -0.2640   -2.7920    0.3410 C   0  0  0  0  0  0  0  0  0  0  0  0
    0.9650   -2.0300   -0.1180 C   0  0  1  0  0  0  0  0  0  0  0  0
    0.8390   -1.8440   -1.4920 O   0  0  0  0  0  0  0  0  0  0  0  0
    1.0350   -0.8850    0.6050 O   0  0  0  0  0  0  0  0  0  0  0  0
  1  2  1  0
  2  3  1  0
  3  4  1  0
  5  4  1  6
  5  6  1  0
  5 22  1  0
  6  7  1  0
  7  8  1  0
  8  9  1  0
  9 10  1  1
  9 11  1  0
 11 12  1  6
 11 14  1  0
 12 13  1  0
 14 15  1  6
 14 16  1  0
 16 17  1  6
 16 18  1  0
 18 19  1  0
 19 20  1  0
 20 21  1  6
 20 22  1  0
M  END
