
     RDKit          3D

 11 11  0  0  0  0  0  0  0  0999 V2000
   -0.2500   -0.6480   -2.2690 O   0  0  0  0  0  0  0  0  0  0  0  0
    0.3030   -0.5040   -1.1910 C   0  0  0  0  0  0  0  0  0  0  0  0
    1.7740   -0.6800   -1.0560 C   0  0  0  0  0  0  0  0  0  0  0  0
    2.2460    0.4060   -0.1240 C   0  0  0  0  0  0  0  0  0  0  0  0
    1.5940    0.3570    1.2250 C   0  0  0  0  0  0  0  0  0  0  0  0
    0.1710    0.0090    1.2450 C   0  0  0  0  0  0  0  0  0  0  0  0
   -0.5330   -0.1520   -0.0360 C   0  0  1  0  0  0  0  0  0  0  0  0
   -1.2660    1.1430   -0.3860 C   0  0  0  0  0  0  0  0  0  0  0  0
   -2.0620    1.0000   -1.4990 O   0  0  0  0  0  0  0  0  0  0  0  0
   -1.5700   -1.2810    0.0790 C   0  0  0  0  0  0  0  0  0  0  0  0
   -2.4320   -1.0870    1.1270 O   0  0  0  0  0  0  0  0  0  0  0  0
  1  2  2  0
  2  3  1  0
  2  7  1  0
  3  4  1  0
  4  5  1  0
  5  6  1  0
  6  7  1  0
  7  8  1  6
  7 10  1  0
  8  9  1  0
 10 11  1  0
M  END
