
     RDKit          3D

 11 11  0  0  0  0  0  0  0  0999 V2000
    3.7550    1.3720    0.4270 O   0  0  0  0  0  0  0  0  0  0  0  0
    3.6940    0.0030    0.6430 C   0  0  0  0  0  0  0  0  0  0  0  0
    2.2800   -0.4610    0.4780 C   0  0  0  0  0  0  0  0  0  0  0  0
    1.7700   -0.1660   -0.9090 C   0  0  0  0  0  0  0  0  0  0  0  0
    0.3410   -0.6360   -1.0700 C   0  0  0  0  0  0  0  0  0  0  0  0
   -0.4530    0.0300   -0.1380 O   0  0  0  0  0  0  0  0  0  0  0  0
   -1.7830   -0.3710   -0.2480 C   0  0  2  0  0  0  0  0  0  0  0  0
   -2.6630    0.8440   -0.4580 C   0  0  0  0  0  0  0  0  0  0  0  0
   -3.1090    1.1640    0.9420 C   0  0  0  0  0  0  0  0  0  0  0  0
   -2.3870    0.3350    1.7960 O   0  0  0  0  0  0  0  0  0  0  0  0
   -2.3220   -0.8660    1.0800 C   0  0  0  0  0  0  0  0  0  0  0  0
  1  2  1  0
  2  3  1  0
  3  4  1  0
  4  5  1  0
  5  6  1  0
  7  6  1  1
  7  8  1  0
  7 11  1  0
  8  9  1  0
  9 10  1  0
 10 11  1  0
M  END
