
     RDKit          3D

 11 11  0  0  0  0  0  0  0  0999 V2000
   -1.4950   -1.1610   -0.1790 C   0  0  0  0  0  0  0  0  0  0  0  0
   -1.1230    0.1460    0.4400 C   0  0  1  0  0  0  0  0  0  0  0  0
   -2.3400    1.0780    0.3350 C   0  0  0  0  0  0  0  0  0  0  0  0
   -0.8300    0.0410    1.7890 O   0  0  0  0  0  0  0  0  0  0  0  0
    0.0110    0.8490   -0.2470 C   0  0  2  0  0  0  0  0  0  0  0  0
   -0.2130    0.9940   -1.6160 O   0  0  0  0  0  0  0  0  0  0  0  0
    1.3110    0.2090   -0.0670 C   0  0  0  0  0  0  0  0  0  0  0  0
    1.6960   -0.8200    0.7580 C   0  0  0  0  0  0  0  0  0  0  0  0
    3.0350   -1.0400    0.5410 C   0  0  0  0  0  0  0  0  0  0  0  0
    3.4120   -0.1270   -0.4170 C   0  0  0  0  0  0  0  0  0  0  0  0
    2.3810    0.5670   -0.7310 O   0  0  0  0  0  0  0  0  0  0  0  0
  2  1  1  6
  2  3  1  0
  2  4  1  0
  2  5  1  0
  5  6  1  6
  5  7  1  0
  7  8  2  0
  7 11  1  0
  8  9  1  0
  9 10  2  0
 10 11  1  0
M  END
