
     RDKit          3D

 11 10  0  0  0  0  0  0  0  0999 V2000
   -1.5010    2.5280   -0.6240 C   0  0  0  0  0  0  0  0  0  0  0  0
   -2.0980    1.1980   -0.3490 C   0  0  0  0  0  0  0  0  0  0  0  0
   -3.4460    1.0430   -0.5160 O   0  0  0  0  0  0  0  0  0  0  0  0
   -1.3480    0.1990    0.0440 C   0  0  0  0  0  0  0  0  0  0  0  0
   -1.9690   -1.1130    0.3100 C   0  0  0  0  0  0  0  0  0  0  0  0
   -1.4920   -2.1440   -0.4680 O   0  0  0  0  0  0  0  0  0  0  0  0
    0.1030    0.4070    0.2150 C   0  0  0  0  0  0  0  0  0  0  0  0
    0.9330   -0.4780   -0.6630 C   0  0  0  0  0  0  0  0  0  0  0  0
    2.4080   -0.2370   -0.4680 C   0  0  0  0  0  0  0  0  0  0  0  0
    2.8750   -0.4920    0.9460 C   0  0  0  0  0  0  0  0  0  0  0  0
    2.6540   -1.7860    1.3610 O   0  0  0  0  0  0  0  0  0  0  0  0
  1  2  1  0
  2  3  1  0
  2  4  2  3
  4  5  1  0
  4  7  1  0
  5  6  1  0
  7  8  1  0
  8  9  1  0
  9 10  1  0
 10 11  1  0
M  END
