
     RDKit          3D

 10 10  0  0  0  0  0  0  0  0999 V2000
    4.2450    0.2500   -0.7160 C   0  0  0  0  0  0  0  0  0  0  0  0
    2.9170    0.5000   -0.4400 O   0  0  0  0  0  0  0  0  0  0  0  0
    2.4330   -0.4570    0.4180 C   0  0  0  0  0  0  0  0  0  0  0  0
    0.9600   -0.2180    0.7530 C   0  0  0  0  0  0  0  0  0  0  0  0
    0.2140   -0.2560   -0.4330 O   0  0  0  0  0  0  0  0  0  0  0  0
   -1.1610   -0.0670   -0.4140 C   0  0  0  0  0  0  0  0  0  0  0  0
   -1.8280    0.7620   -1.1810 C   0  0  0  0  0  0  0  0  0  0  0  0
   -3.2610    0.6520   -0.8400 C   0  0  0  0  0  0  0  0  0  0  0  0
   -3.2310    0.2010    0.6010 C   0  0  0  0  0  0  0  0  0  0  0  0
   -2.0790   -0.8040    0.5090 C   0  0  0  0  0  0  0  0  0  0  0  0
  1  2  1  0
  2  3  1  0
  3  4  1  0
  4  5  1  0
  5  6  1  0
  6  7  2  0
  6 10  1  0
  7  8  1  0
  8  9  1  0
  9 10  1  0
M  END
