
     RDKit          3D

 11 11  0  0  0  0  0  0  0  0999 V2000
   -2.3290   -1.7410    0.0050 C   0  0  0  0  0  0  0  0  0  0  0  0
   -1.4310   -0.5340    0.0500 C   0  0  0  0  0  0  0  0  0  0  0  0
   -1.9680    0.7350    0.2250 C   0  0  0  0  0  0  0  0  0  0  0  0
   -1.1460    1.8490    0.2670 C   0  0  0  0  0  0  0  0  0  0  0  0
   -1.7000    3.1080    0.4430 O   0  0  0  0  0  0  0  0  0  0  0  0
    0.2260    1.6920    0.1330 C   0  0  0  0  0  0  0  0  0  0  0  0
    0.7860    0.4440   -0.0430 C   0  0  0  0  0  0  0  0  0  0  0  0
    2.1590    0.3360   -0.1730 O   0  0  0  0  0  0  0  0  0  0  0  0
    2.8590   -0.8500   -0.3540 C   0  0  0  0  0  0  0  0  0  0  0  0
    4.2270   -0.5220   -0.4390 O   0  0  0  0  0  0  0  0  0  0  0  0
   -0.0640   -0.6380   -0.0790 C   0  0  0  0  0  0  0  0  0  0  0  0
  1  2  1  0
  2  3  2  0
  2 11  1  0
  3  4  1  0
  4  5  1  0
  4  6  2  0
  6  7  1  0
  7  8  1  0
  7 11  2  0
  8  9  1  0
  9 10  1  0
M  END
