
     RDKit          3D

 36 39  0  0  0  0  0  0  0  0999 V2000
    6.0010   -0.6920   -0.9120 C   0  0  0  0  0  0  0  0  0  0  0  0
    4.7390   -1.5590   -0.7900 C   0  0  0  0  0  0  0  0  0  0  0  0
    3.6310   -0.8740   -1.4420 N   0  0  0  0  0  0  0  0  0  0  0  0
    3.3650   -1.0290   -2.7350 C   0  0  0  0  0  0  0  0  0  0  0  0
    2.2810   -0.2550   -3.0750 C   0  0  0  0  0  0  0  0  0  0  0  0
    1.9350    0.3580   -1.9060 N   0  0  0  0  0  0  0  0  0  0  0  0
    0.8950    1.2440   -1.8310 O   0  0  0  0  0  0  0  0  0  0  0  0
    2.7330    0.0000   -0.9050 C   0  0  0  0  0  0  0  0  0  0  0  0
    2.7230    0.4290    0.4890 C   0  0  0  0  0  0  0  0  0  0  0  0
    1.3860    0.6280    1.0790 N   0  0  0  0  0  0  0  0  0  0  0  0
    0.8960   -0.5390    1.8380 C   0  0  0  0  0  0  0  0  0  0  0  0
    1.3500   -1.8460    1.3830 C   0  0  0  0  0  0  0  0  0  0  0  0
    0.4560   -2.8040    0.7490 C   0  0  0  0  0  0  0  0  0  0  0  0
    1.1240   -3.9010   -0.0950 C   0  0  1  0  0  0  0  0  0  0  0  0
    0.1700   -4.7310   -0.6080 F   0  0  0  0  0  0  0  0  0  0  0  0
    1.8220   -3.3440   -1.1410 F   0  0  0  0  0  0  0  0  0  0  0  0
    2.0100   -4.5990    0.6860 F   0  0  0  0  0  0  0  0  0  0  0  0
   -0.7710   -2.8350    0.8130 N   0  0  0  0  0  0  0  0  0  0  0  0
   -1.8610   -2.1680    1.3740 C   0  0  0  0  0  0  0  0  0  0  0  0
   -2.6000   -2.4650    2.4480 C   0  0  0  0  0  0  0  0  0  0  0  0
   -3.6260   -1.4370    2.6030 C   0  0  0  0  0  0  0  0  0  0  0  0
   -3.3810   -0.5390    1.4820 C   0  0  0  0  0  0  0  0  0  0  0  0
   -2.3730   -0.9310    0.7620 C   0  0  0  0  0  0  0  0  0  0  0  0
   -1.7060   -0.4000   -0.4370 C   0  0  0  0  0  0  0  0  0  0  0  0
   -1.9890    1.0430   -0.6040 N   0  0  0  0  0  0  0  0  0  0  0  0
   -2.5750    1.3950   -1.9100 C   0  0  0  0  0  0  0  0  0  0  0  0
   -3.9550    0.8680   -2.0990 C   0  0  0  0  0  0  0  0  0  0  0  0
   -4.4310    1.2720   -3.4080 N   0  0  0  0  0  0  0  0  0  0  0  0
   -1.7570    2.0210    0.3870 C   0  0  0  0  0  0  0  0  0  0  0  0
   -2.7930    2.8450    0.8060 N   0  0  0  0  0  0  0  0  0  0  0  0
   -2.3020    3.6430    1.7000 N   0  0  0  0  0  0  0  0  0  0  0  0
   -1.0190    3.4400    1.9280 C   0  0  0  0  0  0  0  0  0  0  0  0
   -0.1670    4.2240    2.9060 C   0  0  0  0  0  0  0  0  0  0  0  0
   -0.6150    2.3710    1.0770 C   0  0  0  0  0  0  0  0  0  0  0  0
    0.7300    1.8610    0.9810 C   0  0  0  0  0  0  0  0  0  0  0  0
    1.6020    2.8130    0.7320 O   0  0  0  0  0  0  0  0  0  0  0  0
  1  2  1  0
  2  3  1  0
  3  4  1  0
  3  8  1  0
  4  5  2  0
  5  6  1  0
  6  7  1  0
  6  8  2  0
  8  9  1  0
  9 10  1  0
 10 11  1  0
 10 35  1  0
 11 12  1  0
 12 13  1  0
 13 14  1  0
 13 18  2  0
 14 15  1  6
 14 16  1  0
 14 17  1  0
 18 19  1  0
 19 20  2  0
 19 23  1  0
 20 21  1  0
 21 22  1  0
 22 23  2  0
 23 24  1  0
 24 25  1  0
 25 26  1  0
 25 29  1  0
 26 27  1  0
 27 28  1  0
 29 30  1  0
 29 34  2  0
 30 31  1  0
 31 32  2  0
 32 33  1  0
 32 34  1  0
 34 35  1  0
 35 36  2  0
M  CHG  3   6   1   7  -1  28   1
M  END
