
     RDKit          3D

 36 39  0  0  0  0  0  0  0  0999 V2000
   -5.9980   -1.8160   -1.2380 C   0  0  0  0  0  0  0  0  0  0  0  0
   -5.2520   -0.5890   -0.7280 C   0  0  0  0  0  0  0  0  0  0  0  0
   -5.7850    0.2780    0.1530 C   0  0  0  0  0  0  0  0  0  0  0  0
   -4.9670    1.2240    0.7360 C   0  0  0  0  0  0  0  0  0  0  0  0
   -5.6450    2.3340    1.4840 C   0  0  0  0  0  0  0  0  0  0  0  0
   -6.9220    2.6560    0.7970 C   0  0  0  0  0  0  0  0  0  0  0  0
   -6.5410    3.1800   -0.6170 N   0  0  0  0  0  0  0  0  0  0  0  0
   -6.2490    3.5750   -1.7060 N   0  0  0  0  0  0  0  0  0  0  0  0
   -3.6550    1.2950    0.4980 N   0  0  0  0  0  0  0  0  0  0  0  0
   -3.0800    0.4370   -0.3520 C   0  0  0  0  0  0  0  0  0  0  0  0
   -1.8330   -0.0350   -0.3350 N   0  0  0  0  0  0  0  0  0  0  0  0
   -0.6830   -0.2220    0.4100 C   0  0  0  0  0  0  0  0  0  0  0  0
   -0.4170   -1.7450    0.1250 C   0  0  0  0  0  0  0  0  0  0  0  0
   -1.5540   -2.4400   -0.1210 N   0  0  0  0  0  0  0  0  0  0  0  0
   -1.3900   -3.8380   -0.4680 C   0  0  0  0  0  0  0  0  0  0  0  0
   -2.4850   -4.5770   -0.7410 O   0  0  0  0  0  0  0  0  0  0  0  0
   -0.1370   -4.2530   -0.5060 C   0  0  0  0  0  0  0  0  0  0  0  0
    1.0030   -3.5500   -0.2500 C   0  0  0  0  0  0  0  0  0  0  0  0
    2.3620   -3.9770   -0.5720 C   0  0  0  0  0  0  0  0  0  0  0  0
    0.8240   -2.1790    0.0890 C   0  0  0  0  0  0  0  0  0  0  0  0
    1.8980   -1.2270    0.0270 C   0  0  0  0  0  0  0  0  0  0  0  0
    1.8430   -0.1790   -0.9270 C   0  0  0  0  0  0  0  0  0  0  0  0
    2.9370    0.4540   -0.7510 N   0  0  0  0  0  0  0  0  0  0  0  0
    3.7000   -0.1000    0.3040 C   0  0  0  0  0  0  0  0  0  0  0  0
    4.9000    0.6210    0.5620 C   0  0  0  0  0  0  0  0  0  0  0  0
    4.7910    1.9940    0.7250 C   0  0  0  0  0  0  0  0  0  0  0  0
    5.7340    2.9330    0.6780 C   0  0  0  0  0  0  0  0  0  0  0  0
    7.0670    2.4500    0.4410 C   0  0  0  0  0  0  0  0  0  0  0  0
    8.0980    3.4380    0.3160 C   0  0  1  0  0  0  0  0  0  0  0  0
    9.1550    3.0350   -0.4420 F   0  0  0  0  0  0  0  0  0  0  0  0
    7.5110    4.5310   -0.3690 F   0  0  0  0  0  0  0  0  0  0  0  0
    8.4350    3.8660    1.5670 F   0  0  0  0  0  0  0  0  0  0  0  0
    7.1920    1.0920    0.3130 N   0  0  0  0  0  0  0  0  0  0  0  0
    6.2070    0.1800    0.3770 C   0  0  0  0  0  0  0  0  0  0  0  0
    3.0380   -1.1020    0.7030 O   0  0  0  0  0  0  0  0  0  0  0  0
   -3.9710   -0.5120   -0.9740 N   0  0  0  0  0  0  0  0  0  0  0  0
  1  2  1  0
  2  3  2  0
  2 36  1  0
  3  4  1  0
  4  5  1  0
  4  9  2  0
  5  6  1  0
  6  7  1  0
  7  8  3  0
  9 10  1  0
 10 11  1  0
 10 36  2  0
 11 12  1  0
 12 13  1  0
 13 14  2  0
 13 20  1  0
 14 15  1  0
 15 16  1  0
 15 17  2  0
 17 18  1  0
 18 19  1  0
 18 20  2  0
 20 21  1  0
 21 22  2  0
 21 35  1  0
 22 23  1  0
 23 24  2  0
 24 25  1  0
 24 35  1  0
 25 26  2  0
 25 34  1  0
 26 27  1  0
 27 28  2  0
 28 29  1  0
 28 33  1  0
 29 30  1  6
 29 31  1  0
 29 32  1  0
 33 34  2  0
M  CHG  3   7   1  16  -1  33   1
M  END
