
     RDKit          3D

 36 40  0  0  0  0  0  0  0  0999 V2000
   -5.9060    2.6380    3.0610 O   0  0  0  0  0  0  0  0  0  0  0  0
   -6.4340    1.8300    2.0240 N   0  0  0  0  0  0  0  0  0  0  0  0
   -7.6720    1.9080    1.7460 C   0  0  0  0  0  0  0  0  0  0  0  0
   -8.2320    1.0900    0.6820 C   0  0  0  0  0  0  0  0  0  0  0  0
   -7.4730    0.2680   -0.0090 C   0  0  0  0  0  0  0  0  0  0  0  0
   -8.0990   -0.5550   -1.0870 C   0  0  1  0  0  0  0  0  0  0  0  0
   -7.6100   -0.1980   -2.3190 F   0  0  0  0  0  0  0  0  0  0  0  0
   -7.8110   -1.8900   -0.8830 F   0  0  0  0  0  0  0  0  0  0  0  0
   -9.4770   -0.4170   -1.0200 F   0  0  0  0  0  0  0  0  0  0  0  0
   -6.0360    0.1840    0.2300 C   0  0  1  0  0  0  0  0  0  0  0  0
   -5.3790    0.6950   -0.9900 N   0  0  0  0  0  0  0  0  0  0  0  0
   -4.7790   -0.3270   -1.7690 C   0  0  0  0  0  0  0  0  0  0  0  0
   -3.3340   -0.5510   -1.6330 C   0  0  0  0  0  0  0  0  0  0  0  0
   -2.8000   -1.6950   -2.2440 C   0  0  0  0  0  0  0  0  0  0  0  0
   -1.4720   -1.9880   -2.1760 C   0  0  0  0  0  0  0  0  0  0  0  0
   -0.6790   -1.1470   -1.5030 N   0  0  0  0  0  0  0  0  0  0  0  0
   -1.0740   -0.0370   -0.8860 C   0  0  0  0  0  0  0  0  0  0  0  0
   -0.2770    0.8670   -0.1720 N   0  0  0  0  0  0  0  0  0  0  0  0
    1.0960    0.7560    0.0160 C   0  0  0  0  0  0  0  0  0  0  0  0
    1.8550   -0.2570   -0.4740 C   0  0  0  0  0  0  0  0  0  0  0  0
    3.2350   -0.2730   -0.2250 C   0  0  0  0  0  0  0  0  0  0  0  0
    4.0070   -1.2960   -0.7200 C   0  0  0  0  0  0  0  0  0  0  0  0
    5.3260   -1.2840   -0.4650 N   0  0  0  0  0  0  0  0  0  0  0  0
    5.9110   -0.3080    0.2560 C   0  0  0  0  0  0  0  0  0  0  0  0
    7.2940   -0.2830    0.5300 N   0  0  0  0  0  0  0  0  0  0  0  0
    7.8720    0.7750    1.3030 C   0  0  0  0  0  0  0  0  0  0  0  0
    9.3260    0.4140    1.5790 C   0  0  0  0  0  0  0  0  0  0  0  0
    9.3000   -0.9030    2.0920 O   0  0  0  0  0  0  0  0  0  0  0  0
    9.1660   -1.7780    1.0330 C   0  0  0  0  0  0  0  0  0  0  0  0
    8.1260   -1.3380    0.0230 C   0  0  0  0  0  0  0  0  0  0  0  0
    5.1310    0.6830    0.7290 N   0  0  0  0  0  0  0  0  0  0  0  0
    3.7900    0.7350    0.5100 C   0  0  0  0  0  0  0  0  0  0  0  0
    3.0160    1.7630    1.0070 C   0  0  0  0  0  0  0  0  0  0  0  0
    1.7210    1.7300    0.7430 N   0  0  0  0  0  0  0  0  0  0  0  0
   -2.4590    0.2500   -0.9680 C   0  0  0  0  0  0  0  0  0  0  0  0
   -5.5370    0.9390    1.3840 C   0  0  0  0  0  0  0  0  0  0  0  0
  1  2  1  0
  2  3  2  0
  2 36  1  0
  3  4  1  0
  4  5  2  0
  5  6  1  0
  5 10  1  0
  6  7  1  6
  6  8  1  0
  6  9  1  0
 10 11  1  6
 10 36  1  0
 11 12  1  0
 12 13  1  0
 13 14  2  0
 13 35  1  0
 14 15  1  0
 15 16  2  0
 16 17  1  0
 17 18  1  0
 17 35  2  0
 18 19  1  0
 19 20  2  0
 19 34  1  0
 20 21  1  0
 21 22  2  0
 21 32  1  0
 22 23  1  0
 23 24  2  0
 24 25  1  0
 24 31  1  0
 25 26  1  0
 25 30  1  0
 26 27  1  0
 27 28  1  0
 28 29  1  0
 29 30  1  0
 31 32  2  0
 32 33  1  0
 33 34  2  0
M  CHG  3   1  -1   2   1  11   1
M  END
