
     RDKit          3D

 37 40  0  0  0  0  0  0  0  0999 V2000
    2.7510    2.2990    1.4180 C   0  0  0  0  0  0  0  0  0  0  0  0
    3.1740    1.0760    0.6750 C   0  0  0  0  0  0  0  0  0  0  0  0
    4.4150    0.5230    1.0220 C   0  0  0  0  0  0  0  0  0  0  0  0
    4.8870   -0.6020    0.3880 C   0  0  0  0  0  0  0  0  0  0  0  0
    6.0680   -1.2230    0.6260 O   0  0  0  0  0  0  0  0  0  0  0  0
    7.0770   -0.9240    1.4820 C   0  0  0  0  0  0  0  0  0  0  0  0
    7.8050    0.3600    1.2670 C   0  0  0  0  0  0  0  0  0  0  0  0
    8.4640    0.5180   -0.0720 C   0  0  0  0  0  0  0  0  0  0  0  0
    9.7140   -0.6270   -0.4680 S   0  0  2  0  0  0  0  0  0  0  0  0
    9.1670   -2.3020   -0.5150 C   0  0  0  0  0  0  0  0  0  0  0  0
   10.9290   -0.4900    0.4230 O   0  0  0  0  0  0  0  0  0  0  0  0
   10.1990   -0.2900   -1.8740 O   0  0  0  0  0  0  0  0  0  0  0  0
    4.0500   -1.1460   -0.6110 C   0  0  0  0  0  0  0  0  0  0  0  0
    2.8390   -0.6130   -0.9540 C   0  0  0  0  0  0  0  0  0  0  0  0
    1.9800   -1.2110   -1.9960 C   0  0  0  0  0  0  0  0  0  0  0  0
    2.3850    0.5160   -0.3060 C   0  0  0  0  0  0  0  0  0  0  0  0
    1.1090    1.0870   -0.6870 C   0  0  0  0  0  0  0  0  0  0  0  0
    1.0400    2.2790   -1.4250 C   0  0  0  0  0  0  0  0  0  0  0  0
   -0.1530    2.8400   -1.8200 C   0  0  0  0  0  0  0  0  0  0  0  0
   -1.3300    2.2400   -1.4980 C   0  0  0  0  0  0  0  0  0  0  0  0
   -1.2990    1.0540   -0.7670 C   0  0  0  0  0  0  0  0  0  0  0  0
   -2.5490    0.3540   -0.4090 C   0  0  0  0  0  0  0  0  0  0  0  0
   -3.6860    1.0240   -0.8610 O   0  0  0  0  0  0  0  0  0  0  0  0
   -4.9370    0.4790   -0.6210 C   0  0  0  0  0  0  0  0  0  0  0  0
   -6.0740    1.1440   -1.0710 C   0  0  0  0  0  0  0  0  0  0  0  0
   -7.3260    0.6080   -0.8400 C   0  0  0  0  0  0  0  0  0  0  0  0
   -7.5420   -0.5660   -0.1810 C   0  0  0  0  0  0  0  0  0  0  0  0
   -6.3770   -1.2300    0.2740 C   0  0  0  0  0  0  0  0  0  0  0  0
   -5.1350   -0.7060    0.0480 C   0  0  0  0  0  0  0  0  0  0  0  0
   -6.7660   -2.4050    0.9300 O   0  0  0  0  0  0  0  0  0  0  0  0
   -8.1150   -2.1880    1.3810 C   0  0  0  0  0  0  0  0  0  0  0  0
   -8.6890   -1.4000    0.2140 C   0  0  1  0  0  0  0  0  0  0  0  0
   -9.9530   -0.7390    0.5600 C   0  0  0  0  0  0  0  0  0  0  0  0
  -10.6040   -0.0030   -0.5280 C   0  0  0  0  0  0  0  0  0  0  0  0
  -10.2930   -0.0660   -1.7360 O   0  0  0  0  0  0  0  0  0  0  0  0
  -11.6650    0.8430   -0.1910 O   0  0  0  0  0  0  0  0  0  0  0  0
   -0.0930    0.5090   -0.3810 C   0  0  0  0  0  0  0  0  0  0  0  0
  1  2  1  0
  2  3  2  0
  2 16  1  0
  3  4  1  0
  4  5  1  0
  4 13  2  0
  5  6  1  0
  6  7  1  0
  7  8  1  0
  8  9  1  0
  9 10  1  6
  9 11  2  0
  9 12  2  0
 13 14  1  0
 14 15  1  0
 14 16  2  0
 16 17  1  0
 17 18  2  0
 17 37  1  0
 18 19  1  0
 19 20  2  0
 20 21  1  0
 21 22  1  0
 21 37  2  0
 22 23  1  0
 23 24  1  0
 24 25  2  0
 24 29  1  0
 25 26  1  0
 26 27  2  0
 27 28  1  0
 27 32  1  0
 28 29  2  0
 28 30  1  0
 30 31  1  0
 31 32  1  0
 32 33  1  1
 33 34  1  0
 34 35  2  0
 34 36  1  0
M  END
