
     RDKit          3D

 36 40  0  0  0  0  0  0  0  0999 V2000
    9.3230    1.2550    1.3690 C   0  0  0  0  0  0  0  0  0  0  0  0
    8.1570    0.7520    0.5650 C   0  0  0  0  0  0  0  0  0  0  0  0
    7.7930   -0.5090    0.6300 C   0  0  0  0  0  0  0  0  0  0  0  0
    8.4740   -1.5230    1.4750 C   0  0  1  0  0  0  0  0  0  0  0  0
    8.9680   -2.5440    0.6860 F   0  0  0  0  0  0  0  0  0  0  0  0
    9.5280   -1.0360    2.2050 F   0  0  0  0  0  0  0  0  0  0  0  0
    7.5620   -2.0260    2.4140 F   0  0  0  0  0  0  0  0  0  0  0  0
    6.6330   -0.9670   -0.1840 C   0  0  0  0  0  0  0  0  0  0  0  0
    5.6460    0.0470   -0.3490 N   0  0  0  0  0  0  0  0  0  0  0  0
    4.2790   -0.3140   -0.4840 C   0  0  0  0  0  0  0  0  0  0  0  0
    3.9160   -1.6320   -0.4550 N   0  0  0  0  0  0  0  0  0  0  0  0
    2.6290   -1.9950   -0.5800 C   0  0  0  0  0  0  0  0  0  0  0  0
    1.6200   -1.0380   -0.7450 C   0  0  0  0  0  0  0  0  0  0  0  0
    1.9760    0.2700   -0.7750 C   0  0  0  0  0  0  0  0  0  0  0  0
    1.0960    1.3660   -0.9260 N   0  0  0  0  0  0  0  0  0  0  0  0
   -0.2940    1.1420   -1.0370 C   0  0  0  0  0  0  0  0  0  0  0  0
   -0.9450    0.3200   -0.2980 N   0  0  0  0  0  0  0  0  0  0  0  0
   -2.3470    0.3110   -0.6490 C   0  0  0  0  0  0  0  0  0  0  0  0
   -3.3600   -0.4730   -0.0470 N   0  0  0  0  0  0  0  0  0  0  0  0
   -3.2830   -0.7700    1.3540 C   0  0  0  0  0  0  0  0  0  0  0  0
   -4.6620   -0.7850    1.9120 C   0  0  0  0  0  0  0  0  0  0  0  0
   -5.6150    0.0160    1.1790 N   0  0  2  0  0  0  0  0  0  0  0  0
   -6.8670    0.0670    1.8810 C   0  0  0  0  0  0  0  0  0  0  0  0
   -8.0410   -0.2120    1.0230 C   0  0  0  0  0  0  0  0  0  0  0  0
   -8.7890    0.6740    0.2820 C   0  0  0  0  0  0  0  0  0  0  0  0
   -9.7680   -0.0350   -0.3460 C   0  0  0  0  0  0  0  0  0  0  0  0
   -9.5810   -1.3430    0.0370 C   0  0  0  0  0  0  0  0  0  0  0  0
   -8.5680   -1.3900    0.8300 O   0  0  0  0  0  0  0  0  0  0  0  0
   -5.7300   -0.3710   -0.2010 C   0  0  0  0  0  0  0  0  0  0  0  0
   -4.4840   -1.0110   -0.7420 C   0  0  0  0  0  0  0  0  0  0  0  0
   -2.4990    1.1550   -1.6180 N   0  0  0  0  0  0  0  0  0  0  0  0
   -3.7460    1.3900   -2.1990 O   0  0  0  0  0  0  0  0  0  0  0  0
   -1.2570    1.7920   -1.9910 C   0  0  0  0  0  0  0  0  0  0  0  0
    3.2990    0.5610   -0.6410 N   0  0  0  0  0  0  0  0  0  0  0  0
    5.9550    1.4670   -0.3910 C   0  0  0  0  0  0  0  0  0  0  0  0
    7.4430    1.7020   -0.2900 C   0  0  0  0  0  0  0  0  0  0  0  0
  1  2  1  0
  2  3  2  0
  2 36  1  0
  3  4  1  0
  3  8  1  0
  4  5  1  6
  4  6  1  0
  4  7  1  0
  8  9  1  0
  9 10  1  0
  9 35  1  0
 10 11  2  0
 10 34  1  0
 11 12  1  0
 12 13  2  0
 13 14  1  0
 14 15  1  0
 14 34  2  0
 15 16  1  0
 16 17  2  0
 16 33  1  0
 17 18  1  0
 18 19  1  0
 18 31  2  0
 19 20  1  0
 19 30  1  0
 20 21  1  0
 21 22  1  0
 22 23  1  1
 22 29  1  0
 23 24  1  0
 24 25  2  0
 24 28  1  0
 25 26  1  0
 26 27  2  0
 27 28  1  0
 29 30  1  0
 31 32  1  0
 31 33  1  0
 35 36  1  0
M  CHG  3  22   1  31   1  32  -1
M  END
