
     RDKit          3D

 22 24  0  0  0  0  0  0  0  0999 V2000
    4.9160   -1.3830   -1.9140 C   0  0  0  0  0  0  0  0  0  0  0  0
    4.2430   -0.4690   -0.9640 C   0  0  0  0  0  0  0  0  0  0  0  0
    5.0360    0.3080   -0.1420 C   0  0  0  0  0  0  0  0  0  0  0  0
    4.4330    1.1690    0.7530 C   0  0  0  0  0  0  0  0  0  0  0  0
    3.0550    1.2390    0.8130 C   0  0  0  0  0  0  0  0  0  0  0  0
    2.2410    0.4660   -0.0060 C   0  0  0  0  0  0  0  0  0  0  0  0
    0.8670    0.5790    0.0990 O   0  0  0  0  0  0  0  0  0  0  0  0
    0.2810    1.4530    1.0080 C   0  0  0  0  0  0  0  0  0  0  0  0
   -1.2220    1.4320    0.9700 C   0  0  0  0  0  0  0  0  0  0  0  0
   -1.7660    2.2000    1.8040 O   0  0  0  0  0  0  0  0  0  0  0  0
   -1.9440    0.5810    0.0350 C   0  0  0  0  0  0  0  0  0  0  0  0
   -1.5420    0.5460   -1.3020 C   0  0  0  0  0  0  0  0  0  0  0  0
   -2.2530   -0.1180   -2.2660 C   0  0  0  0  0  0  0  0  0  0  0  0
   -3.3970   -0.7700   -1.9090 C   0  0  0  0  0  0  0  0  0  0  0  0
   -3.8400   -0.7700   -0.5980 C   0  0  0  0  0  0  0  0  0  0  0  0
   -4.9110   -1.3400   -0.0050 N   0  0  0  0  0  0  0  0  0  0  0  0
   -4.9170   -1.0810    1.2920 C   0  0  0  0  0  0  0  0  0  0  0  0
   -3.7760   -0.2920    1.5530 C   0  0  0  0  0  0  0  0  0  0  0  0
   -3.3590    0.1010    2.8810 C   0  0  0  0  0  0  0  0  0  0  0  0
   -4.2450    0.1970    3.7740 O   0  0  0  0  0  0  0  0  0  0  0  0
   -3.0960   -0.0870    0.3680 C   0  0  0  0  0  0  0  0  0  0  0  0
    2.8650   -0.3810   -0.8850 C   0  0  0  0  0  0  0  0  0  0  0  0
  1  2  1  0
  2  3  2  0
  2 22  1  0
  3  4  1  0
  4  5  2  0
  5  6  1  0
  6  7  1  0
  6 22  2  0
  7  8  1  0
  8  9  1  0
  9 10  2  0
  9 11  1  0
 11 12  2  0
 11 21  1  0
 12 13  1  0
 13 14  2  0
 14 15  1  0
 15 16  1  0
 15 21  2  0
 16 17  1  0
 17 18  2  0
 18 19  1  0
 18 21  1  0
 19 20  2  0
M  END
