
     RDKit          3D

 13 13  0  0  0  0  0  0  0  0999 V2000
   -1.9170   -1.5640   -0.8620 C   0  0  0  0  0  0  0  0  0  0  0  0
   -1.2660   -0.2810   -0.7140 N   0  0  1  0  0  0  0  0  0  0  0  0
   -2.2350    0.7400   -1.0580 C   0  0  0  0  0  0  0  0  0  0  0  0
   -0.8430   -0.1380    0.6310 C   0  0  1  0  0  0  0  0  0  0  0  0
    0.3260   -0.9710    1.0510 C   0  0  0  0  0  0  0  0  0  0  0  0
    1.6200   -0.5930    0.4070 C   0  0  0  0  0  0  0  0  0  0  0  0
    2.6790   -0.0320    1.0510 C   0  0  0  0  0  0  0  0  0  0  0  0
    3.6700    0.3280    0.1830 N   0  0  0  0  0  0  0  0  0  0  0  0
    3.1300   -0.0210   -1.0220 C   0  0  0  0  0  0  0  0  0  0  0  0
    1.9100   -0.5660   -0.9030 N   0  0  0  0  0  0  0  0  0  0  0  0
   -0.7370    1.2480    1.0640 C   0  0  0  0  0  0  0  0  0  0  0  0
   -1.4220    1.6850    2.0280 O   0  0  0  0  0  0  0  0  0  0  0  0
    0.0910    2.2210    0.5000 O   0  0  0  0  0  0  0  0  0  0  0  0
  2  1  1  1
  2  3  1  0
  2  4  1  0
  4  5  1  6
  4 11  1  0
  5  6  1  0
  6  7  2  0
  6 10  1  0
  7  8  1  0
  8  9  1  0
  9 10  2  0
 11 12  2  0
 11 13  1  0
M  CHG  1   2   1
M  END
