
     RDKit          3D

 22 23  0  0  0  0  0  0  0  0999 V2000
   -4.2480    4.1980    1.4810 C   0  0  0  0  0  0  0  0  0  0  0  0
   -3.4780    3.2640    0.9180 C   0  0  0  0  0  0  0  0  0  0  0  0
   -2.2890    2.7590    1.6490 C   0  0  0  0  0  0  0  0  0  0  0  0
   -2.3930    1.3210    1.8720 N   0  0  0  0  0  0  0  0  0  0  0  0
   -2.3180    0.3880    0.8080 C   0  0  0  0  0  0  0  0  0  0  0  0
   -3.3710   -0.0680    0.1600 C   0  0  0  0  0  0  0  0  0  0  0  0
   -3.2840   -1.0250   -0.9300 C   0  0  0  0  0  0  0  0  0  0  0  0
   -4.2940   -1.4470   -1.5330 O   0  0  0  0  0  0  0  0  0  0  0  0
   -1.9800   -1.5080   -1.3310 C   0  0  0  0  0  0  0  0  0  0  0  0
   -1.7770   -2.4850   -2.4260 C   0  0  0  0  0  0  0  0  0  0  0  0
   -2.5320   -3.7410   -2.0410 C   0  0  0  0  0  0  0  0  0  0  0  0
   -0.8850   -1.0600   -0.6870 C   0  0  0  0  0  0  0  0  0  0  0  0
   -0.9850   -0.0940    0.4120 C   0  0  0  0  0  0  0  0  0  0  0  0
    0.0660    0.3830    1.0450 C   0  0  0  0  0  0  0  0  0  0  0  0
    1.4390   -0.0360    0.7310 C   0  0  0  0  0  0  0  0  0  0  0  0
    1.8840   -1.3340    0.6130 C   0  0  0  0  0  0  0  0  0  0  0  0
    3.2320   -1.2550    0.3080 C   0  0  0  0  0  0  0  0  0  0  0  0
    3.5590    0.0780    0.2530 C   0  0  0  0  0  0  0  0  0  0  0  0
    4.9180    0.6060   -0.0470 C   0  0  0  0  0  0  0  0  0  0  0  0
    5.8410   -0.4310   -0.0470 O   0  0  0  0  0  0  0  0  0  0  0  0
    7.1210   -0.0090   -0.3220 C   0  0  0  0  0  0  0  0  0  0  0  0
    2.4660    0.7660    0.5100 O   0  0  0  0  0  0  0  0  0  0  0  0
  1  2  2  0
  2  3  1  0
  3  4  1  0
  4  5  1  0
  5  6  2  0
  5 13  1  0
  6  7  1  0
  7  8  2  0
  7  9  1  0
  9 10  1  0
  9 12  2  0
 10 11  1  0
 12 13  1  0
 13 14  2  3
 14 15  1  0
 15 16  2  0
 15 22  1  0
 16 17  1  0
 17 18  2  0
 18 19  1  0
 18 22  1  0
 19 20  1  0
 20 21  1  0
M  END
