
     RDKit          3D

 28 31  0  0  0  0  0  0  0  0999 V2000
   -4.0360    3.0140    0.0250 C   0  0  0  0  0  0  0  0  0  0  0  0
   -3.0300    1.9440   -0.0870 C   0  0  0  0  0  0  0  0  0  0  0  0
   -3.2530    0.6480   -0.2510 C   0  0  0  0  0  0  0  0  0  0  0  0
   -4.5950    0.1070   -0.3500 C   0  0  0  0  0  0  0  0  0  0  0  0
   -5.4540    0.5820   -1.2000 C   0  0  0  0  0  0  0  0  0  0  0  0
   -5.2120    1.5800   -2.0490 F   0  0  0  0  0  0  0  0  0  0  0  0
   -6.6880    0.0300   -1.2230 F   0  0  0  0  0  0  0  0  0  0  0  0
   -4.9470   -1.0280    0.5630 C   0  0  0  0  0  0  0  0  0  0  0  0
   -3.6980   -1.2860    1.3760 C   0  0  0  0  0  0  0  0  0  0  0  0
   -2.5990   -1.5910    0.3450 C   0  0  0  0  0  0  0  0  0  0  0  0
   -2.1110   -0.3320   -0.3080 C   0  0  2  0  0  0  0  0  0  0  0  0
   -0.8790    0.2320    0.3660 C   0  0  0  0  0  0  0  0  0  0  0  0
    0.1860   -0.8390    0.3930 C   0  0  2  0  0  0  0  0  0  0  0  0
    1.4880   -0.2400    0.5680 N   0  0  0  0  0  0  0  0  0  0  0  0
    2.6270   -0.9150    0.7220 C   0  0  0  0  0  0  0  0  0  0  0  0
    3.6810    0.0030    0.8630 C   0  0  0  0  0  0  0  0  0  0  0  0
    5.0010   -0.4240    1.0760 N   0  0  0  0  0  0  0  0  0  0  0  0
    6.2010    0.1800    0.6840 C   0  0  0  0  0  0  0  0  0  0  0  0
    6.2250    1.3020   -0.0900 C   0  0  0  0  0  0  0  0  0  0  0  0
    7.4370    1.8280   -0.3970 N   0  0  0  0  0  0  0  0  0  0  0  0
    8.5810    1.3350   -0.0040 N   0  0  0  0  0  0  0  0  0  0  0  0
    8.5670    0.2400    0.7510 C   0  0  0  0  0  0  0  0  0  0  0  0
    7.3920   -0.3190    1.0830 N   0  0  0  0  0  0  0  0  0  0  0  0
    3.0930    1.2310    0.7830 C   0  0  0  0  0  0  0  0  0  0  0  0
    1.7720    1.0360    0.6050 N   0  0  0  0  0  0  0  0  0  0  0  0
    0.1740   -1.7300   -0.7910 C   0  0  0  0  0  0  0  0  0  0  0  0
   -0.7830   -1.4170   -1.8740 C   0  0  0  0  0  0  0  0  0  0  0  0
   -1.7700   -0.5160   -1.6210 O   0  0  0  0  0  0  0  0  0  0  0  0
  1  2  1  0
  2  3  2  3
  3  4  1  0
  3 11  1  0
  4  5  2  3
  4  8  1  0
  5  6  1  0
  5  7  1  0
  8  9  1  0
  9 10  1  0
 11 10  1  1
 11 12  1  0
 11 28  1  0
 12 13  1  0
 13 14  1  6
 13 26  1  0
 14 15  1  0
 14 25  1  0
 15 16  2  0
 16 17  1  0
 16 24  1  0
 17 18  1  0
 18 19  2  0
 18 23  1  0
 19 20  1  0
 20 21  2  0
 21 22  1  0
 22 23  2  0
 24 25  2  0
 26 27  1  0
 27 28  1  0
M  END
