
     RDKit          3D

 28 31  0  0  0  0  0  0  0  0999 V2000
   -4.5670    1.2930   -1.4600 C   0  0  0  0  0  0  0  0  0  0  0  0
   -3.6530    0.9850   -0.5500 C   0  0  0  0  0  0  0  0  0  0  0  0
   -3.6660    1.6550    0.7120 N   0  0  0  0  0  0  0  0  0  0  0  0
   -3.4310    0.7880    1.8870 C   0  0  0  0  0  0  0  0  0  0  0  0
   -2.3070   -0.1230    1.6600 C   0  0  1  0  0  0  0  0  0  0  0  0
   -2.0750   -1.1920    2.7110 C   0  0  0  0  0  0  0  0  0  0  0  0
   -2.0360   -2.5930    2.1750 C   0  0  0  0  0  0  0  0  0  0  0  0
   -1.0250   -2.8130    1.0440 C   0  0  0  0  0  0  0  0  0  0  0  0
   -0.9780   -1.5020    0.3680 N   0  0  0  0  0  0  0  0  0  0  0  0
    0.2220   -1.0050   -0.1040 C   0  0  0  0  0  0  0  0  0  0  0  0
    0.2890    0.1620   -0.5970 O   0  0  0  0  0  0  0  0  0  0  0  0
    1.4330   -1.7230   -0.0820 N   0  0  0  0  0  0  0  0  0  0  0  0
    2.6840   -1.1780   -0.5820 C   0  0  0  0  0  0  0  0  0  0  0  0
    3.0750    0.0510    0.1430 C   0  0  0  0  0  0  0  0  0  0  0  0
    2.4450    0.6720    1.1380 N   0  0  0  0  0  0  0  0  0  0  0  0
    3.1500    1.7280    1.4800 N   0  0  0  0  0  0  0  0  0  0  0  0
    4.2450    1.8160    0.7190 C   0  0  0  0  0  0  0  0  0  0  0  0
    5.2920    2.7050    0.6600 C   0  0  0  0  0  0  0  0  0  0  0  0
    6.3190    2.5550   -0.2460 C   0  0  0  0  0  0  0  0  0  0  0  0
    6.2520    1.4680   -1.0990 C   0  0  0  0  0  0  0  0  0  0  0  0
    5.2000    0.6090   -1.0120 C   0  0  0  0  0  0  0  0  0  0  0  0
    4.1830    0.7540   -0.1160 N   0  0  0  0  0  0  0  0  0  0  0  0
   -2.2910   -0.8850    0.3460 C   0  0  2  0  0  0  0  0  0  0  0  0
   -2.6370   -0.0380   -0.7810 C   0  0  0  0  0  0  0  0  0  0  0  0
   -2.0790   -0.1380   -1.9640 C   0  0  0  0  0  0  0  0  0  0  0  0
   -2.2850    0.6420   -3.1790 C   0  0  1  0  0  0  0  0  0  0  0  0
   -2.4230    2.0060   -2.9040 F   0  0  0  0  0  0  0  0  0  0  0  0
   -1.1040    0.6170   -3.9700 F   0  0  0  0  0  0  0  0  0  0  0  0
  1  2  2  0
  2  3  1  0
  2 24  1  0
  3  4  1  0
  5  4  1  1
  5  6  1  0
  5 23  1  0
  6  7  1  0
  7  8  1  0
  8  9  1  0
  9 10  1  0
 23  9  1  6
 10 11  2  0
 10 12  1  0
 12 13  1  0
 13 14  1  0
 14 15  2  0
 14 22  1  0
 15 16  1  0
 16 17  2  0
 17 18  1  0
 17 22  1  0
 18 19  2  0
 19 20  1  0
 20 21  2  0
 21 22  1  0
 23 24  1  0
 24 25  2  3
 25 26  1  0
 26 27  1  1
 26 28  1  0
M  END
