
     RDKit          3D

 28 31  0  0  0  0  0  0  0  0999 V2000
    5.6420   -1.4880    1.2230 C   0  0  0  0  0  0  0  0  0  0  0  0
    4.8050   -0.4490    0.5780 C   0  0  0  0  0  0  0  0  0  0  0  0
    3.9900   -0.8400   -0.3700 C   0  0  0  0  0  0  0  0  0  0  0  0
    3.1640    0.0990   -1.0270 N   0  0  0  0  0  0  0  0  0  0  0  0
    2.3070   -0.3680   -2.0370 N   0  0  0  0  0  0  0  0  0  0  0  0
    1.0530   -0.4070   -1.7920 C   0  0  0  0  0  0  0  0  0  0  0  0
    0.5200   -0.0080   -0.5780 C   0  0  0  0  0  0  0  0  0  0  0  0
   -0.8490   -0.0760   -0.3820 C   0  0  0  0  0  0  0  0  0  0  0  0
   -1.3940    0.3430    0.8900 C   0  0  0  0  0  0  0  0  0  0  0  0
   -1.7690    1.6430    1.0870 C   0  0  0  0  0  0  0  0  0  0  0  0
   -2.2970    2.0930    2.2910 C   0  0  0  0  0  0  0  0  0  0  0  0
   -2.4350    1.1740    3.3020 C   0  0  0  0  0  0  0  0  0  0  0  0
   -2.9460    1.5540    4.5040 F   0  0  0  0  0  0  0  0  0  0  0  0
   -2.0690   -0.1450    3.1410 C   0  0  0  0  0  0  0  0  0  0  0  0
   -1.5400   -0.5610    1.9110 C   0  0  0  0  0  0  0  0  0  0  0  0
   -1.6410   -0.5290   -1.3710 N   0  0  0  0  0  0  0  0  0  0  0  0
   -3.0570   -0.6150   -1.2080 C   0  0  0  0  0  0  0  0  0  0  0  0
   -3.6450   -0.5650   -0.0650 N   0  0  0  0  0  0  0  0  0  0  0  0
   -5.0310   -0.6720   -0.1930 N   0  0  0  0  0  0  0  0  0  0  0  0
   -5.3280   -0.2810   -1.5720 C   0  0  0  0  0  0  0  0  0  0  0  0
   -4.0660   -0.7700   -2.2500 C   0  0  0  0  0  0  0  0  0  0  0  0
   -1.1150   -0.9140   -2.5450 C   0  0  0  0  0  0  0  0  0  0  0  0
   -1.8990   -1.3370   -3.4570 O   0  0  0  0  0  0  0  0  0  0  0  0
    0.2070   -0.8590   -2.7640 N   0  0  0  0  0  0  0  0  0  0  0  0
    3.2060    1.4670   -0.6710 C   0  0  0  0  0  0  0  0  0  0  0  0
    4.0080    1.8790    0.2690 C   0  0  0  0  0  0  0  0  0  0  0  0
    4.9000    0.9600    0.9990 C   0  0  1  0  0  0  0  0  0  0  0  0
    4.6150    1.0770    2.3680 F   0  0  0  0  0  0  0  0  0  0  0  0
  1  2  1  0
  2  3  2  0
  2 27  1  0
  3  4  1  0
  4  5  1  0
  4 25  1  0
  5  6  2  3
  6  7  1  0
  6 24  1  0
  7  8  2  0
  8  9  1  0
  8 16  1  0
  9 10  2  0
  9 15  1  0
 10 11  1  0
 11 12  2  0
 12 13  1  0
 12 14  1  0
 14 15  2  0
 16 17  1  0
 16 22  1  0
 17 18  2  0
 17 21  1  0
 18 19  1  0
 19 20  1  0
 20 21  1  0
 22 23  2  0
 22 24  1  0
 25 26  2  0
 26 27  1  0
 27 28  1  1
M  END
