
     RDKit          3D

 28 31  0  0  0  0  0  0  0  0999 V2000
   -2.6030   -0.6640   -3.8940 C   0  0  0  0  0  0  0  0  0  0  0  0
   -3.4140   -0.2990   -2.6620 C   0  0  0  0  0  0  0  0  0  0  0  0
   -4.7850   -0.1680   -3.1820 F   0  0  0  0  0  0  0  0  0  0  0  0
   -3.3350   -0.0370   -1.4920 C   0  0  0  0  0  0  0  0  0  0  0  0
   -2.1400    0.0500   -0.6780 C   0  0  0  0  0  0  0  0  0  0  0  0
   -2.1410   -0.3750    0.6630 C   0  0  0  0  0  0  0  0  0  0  0  0
   -0.9340   -0.1680    1.1170 N   0  0  0  0  0  0  0  0  0  0  0  0
   -0.1660    0.3630    0.1460 N   0  0  0  0  0  0  0  0  0  0  0  0
   -0.8910    0.5080   -0.9720 C   0  0  0  0  0  0  0  0  0  0  0  0
   -0.3520    1.0350   -2.0670 N   0  0  0  0  0  0  0  0  0  0  0  0
    0.9460    1.4410   -2.0980 C   0  0  0  0  0  0  0  0  0  0  0  0
    1.4410    1.9380   -3.1280 O   0  0  0  0  0  0  0  0  0  0  0  0
    1.6930    1.2850   -0.9340 C   0  0  0  0  0  0  0  0  0  0  0  0
    2.9600    1.5850   -0.6150 N   0  0  0  0  0  0  0  0  0  0  0  0
    3.2030    1.2560    0.6730 C   0  0  0  0  0  0  0  0  0  0  0  0
    4.4770    1.4650    1.3550 C   0  0  0  0  0  0  0  0  0  0  0  0
    5.4160    0.3310    1.4560 C   0  0  0  0  0  0  0  0  0  0  0  0
    5.9140   -0.2890    0.2090 C   0  0  0  0  0  0  0  0  0  0  0  0
    4.8790   -0.8850   -0.5970 C   0  0  0  0  0  0  0  0  0  0  0  0
    4.0720   -1.3590   -1.2470 N   0  0  0  0  0  0  0  0  0  0  0  0
    2.0610    0.7470    1.1270 N   0  0  0  0  0  0  0  0  0  0  0  0
    1.8560    0.2450    2.4550 C   0  0  0  0  0  0  0  0  0  0  0  0
    1.1170    0.7500    0.1650 C   0  0  0  0  0  0  0  0  0  0  0  0
   -3.4800   -0.8800    1.1550 C   0  0  1  0  0  0  0  0  0  0  0  0
   -3.4800   -0.9530    2.6630 C   0  0  0  0  0  0  0  0  0  0  0  0
   -4.4850    0.1780    0.6970 C   0  0  0  0  0  0  0  0  0  0  0  0
   -4.6580    0.1750   -0.7360 C   0  0  2  0  0  0  0  0  0  0  0  0
   -5.4150   -0.9640   -1.0940 F   0  0  0  0  0  0  0  0  0  0  0  0
  1  2  1  0
  2  3  1  0
  2  4  2  3
  4  5  1  0
  4 27  1  0
  5  6  1  0
  5  9  2  0
  6  7  2  0
  6 24  1  0
  7  8  1  0
  8  9  1  0
  8 23  1  0
  9 10  1  0
 10 11  1  0
 11 12  2  0
 11 13  1  0
 13 14  1  0
 13 23  2  0
 14 15  2  0
 15 16  1  0
 15 21  1  0
 16 17  1  0
 17 18  1  0
 18 19  1  0
 19 20  3  0
 21 22  1  0
 21 23  1  0
 24 25  1  1
 24 26  1  0
 26 27  1  0
 27 28  1  1
M  END
