
     RDKit          3D

 36 37  0  0  0  0  0  0  0  0999 V2000
   -5.7820   -3.2020   -1.0080 C   0  0  0  0  0  0  0  0  0  0  0  0
   -4.8980   -3.2070    0.0400 C   0  0  0  0  0  0  0  0  0  0  0  0
   -5.1480   -4.2340    1.0450 C   0  0  0  0  0  0  0  0  0  0  0  0
   -3.8700   -2.2080   -0.0170 C   0  0  0  0  0  0  0  0  0  0  0  0
   -2.9070   -1.9600    0.8060 C   0  0  0  0  0  0  0  0  0  0  0  0
   -2.5530   -2.6130    2.0570 C   0  0  0  0  0  0  0  0  0  0  0  0
   -2.5910   -1.6780    3.1100 F   0  0  0  0  0  0  0  0  0  0  0  0
   -2.0320   -0.8220    0.4220 N   0  0  0  0  0  0  0  0  0  0  0  0
   -0.6510   -1.0330    0.1740 C   0  0  0  0  0  0  0  0  0  0  0  0
   -0.2830   -2.2180    0.3070 O   0  0  0  0  0  0  0  0  0  0  0  0
    0.2930    0.0260   -0.2040 C   0  0  0  0  0  0  0  0  0  0  0  0
   -0.1820    1.2350   -0.3040 C   0  0  0  0  0  0  0  0  0  0  0  0
    0.3790    2.5090   -0.6530 C   0  0  0  0  0  0  0  0  0  0  0  0
    1.6640    2.7840   -1.0640 O   0  0  0  0  0  0  0  0  0  0  0  0
    2.0870    2.8900   -2.4140 C   0  0  2  0  0  0  0  0  0  0  0  0
    1.8070    1.6580   -3.0210 F   0  0  0  0  0  0  0  0  0  0  0  0
    3.4750    3.0930   -2.4610 F   0  0  0  0  0  0  0  0  0  0  0  0
    1.5380    3.9110   -3.1310 F   0  0  0  0  0  0  0  0  0  0  0  0
   -0.4160    3.6090   -0.6000 C   0  0  0  0  0  0  0  0  0  0  0  0
   -1.8080    3.4840   -0.2040 C   0  0  0  0  0  0  0  0  0  0  0  0
   -2.2710    4.3440    0.7130 C   0  0  0  0  0  0  0  0  0  0  0  0
   -3.9190    4.2520    1.2300 Cl  0  0  0  0  0  0  0  0  0  0  0  0
   -1.2810    5.3250    1.2230 C   0  0  0  0  0  0  0  0  0  0  0  0
   -0.5650    5.9760    0.0800 C   0  0  0  0  0  0  0  0  0  0  0  0
    0.0630    4.9760   -0.8850 C   0  0  0  0  0  0  0  0  0  0  0  0
    1.6990   -0.2740   -0.2670 C   0  0  0  0  0  0  0  0  0  0  0  0
    2.5290    0.6830   -0.3280 O   0  0  0  0  0  0  0  0  0  0  0  0
    2.2310   -1.5780   -0.2700 N   0  0  0  0  0  0  0  0  0  0  0  0
    3.6190   -1.9340   -0.3210 C   0  0  0  0  0  0  0  0  0  0  0  0
    4.6230   -1.0180   -0.3770 C   0  0  0  0  0  0  0  0  0  0  0  0
    5.9870   -1.3730   -0.4280 C   0  0  0  0  0  0  0  0  0  0  0  0
    6.2920   -2.7110   -0.4190 C   0  0  0  0  0  0  0  0  0  0  0  0
    7.6360   -3.0880   -0.4690 O   0  0  0  0  0  0  0  0  0  0  0  0
    5.2760   -3.6280   -0.3630 C   0  0  0  0  0  0  0  0  0  0  0  0
    3.9260   -3.3010   -0.3130 C   0  0  0  0  0  0  0  0  0  0  0  0
    2.9770   -4.3030   -0.2580 O   0  0  0  0  0  0  0  0  0  0  0  0
  1  2  2  0
  2  3  1  0
  2  4  1  0
  4  5  2  3
  5  6  1  0
  5  8  1  0
  6  7  1  0
  8  9  1  0
  9 10  2  0
  9 11  1  0
 11 12  2  3
 11 26  1  0
 12 13  1  0
 13 14  1  0
 13 19  2  3
 14 15  1  0
 15 16  1  6
 15 17  1  0
 15 18  1  0
 19 20  1  0
 19 25  1  0
 20 21  2  0
 21 22  1  0
 21 23  1  0
 23 24  1  0
 24 25  1  0
 26 27  2  0
 26 28  1  0
 28 29  1  0
 29 30  2  0
 29 35  1  0
 30 31  1  0
 31 32  2  0
 32 33  1  0
 32 34  1  0
 34 35  2  0
 35 36  1  0
M  END
