
     RDKit          3D

 36 38  0  0  0  0  0  0  0  0999 V2000
    1.0870   -1.2870    1.3580 O   0  0  0  0  0  0  0  0  0  0  0  0
    0.1410   -0.4030    1.2820 C   0  0  0  0  0  0  0  0  0  0  0  0
   -1.1410   -0.8780    1.0840 N   0  0  0  0  0  0  0  0  0  0  0  0
   -1.5680   -2.2490    0.9390 C   0  0  0  0  0  0  0  0  0  0  0  0
   -0.7220   -3.3010    0.9770 C   0  0  0  0  0  0  0  0  0  0  0  0
   -1.1940   -4.6110    0.8290 C   0  0  0  0  0  0  0  0  0  0  0  0
   -0.0580   -5.9360    0.8850 Cl  0  0  0  0  0  0  0  0  0  0  0  0
   -2.5330   -4.7870    0.6450 C   0  0  0  0  0  0  0  0  0  0  0  0
   -3.3970   -3.7410    0.6040 C   0  0  0  0  0  0  0  0  0  0  0  0
   -2.9420   -2.4630    0.7480 C   0  0  0  0  0  0  0  0  0  0  0  0
   -3.8300   -1.3880    0.7060 O   0  0  0  0  0  0  0  0  0  0  0  0
    0.5250    0.9880    1.4150 C   0  0  0  0  0  0  0  0  0  0  0  0
   -0.2680    2.0000    1.3510 C   0  0  0  0  0  0  0  0  0  0  0  0
   -1.6840    2.1480    1.1390 C   0  0  0  0  0  0  0  0  0  0  0  0
   -2.5320    2.3290    2.2180 C   0  0  0  0  0  0  0  0  0  0  0  0
   -3.8750    2.5340    2.0820 C   0  0  0  0  0  0  0  0  0  0  0  0
   -4.4220    2.5640    0.8300 C   0  0  0  0  0  0  0  0  0  0  0  0
   -3.6360    2.3900   -0.2910 C   0  0  0  0  0  0  0  0  0  0  0  0
   -4.2410    2.4290   -1.5350 O   0  0  0  0  0  0  0  0  0  0  0  0
   -2.2860    2.1850   -0.1260 C   0  0  0  0  0  0  0  0  0  0  0  0
    2.0260    1.2390    1.6420 C   0  0  1  0  0  0  0  0  0  0  0  0
    2.7950    0.4740    0.6050 C   0  0  0  0  0  0  0  0  0  0  0  0
    3.6160   -0.3970    0.9640 O   0  0  0  0  0  0  0  0  0  0  0  0
    2.6130    0.7160   -0.7700 N   0  0  0  0  0  0  0  0  0  0  0  0
    3.2540    0.0870   -1.8710 C   0  0  0  0  0  0  0  0  0  0  0  0
    4.1770   -0.8950   -1.6940 C   0  0  0  0  0  0  0  0  0  0  0  0
    4.7910   -1.4970   -2.7960 C   0  0  0  0  0  0  0  0  0  0  0  0
    4.4770   -1.1120   -4.0740 C   0  0  0  0  0  0  0  0  0  0  0  0
    3.5350   -0.1110   -4.2240 C   0  0  0  0  0  0  0  0  0  0  0  0
    3.2020    0.2930   -5.4880 F   0  0  0  0  0  0  0  0  0  0  0  0
    2.9250    0.4880   -3.1630 C   0  0  0  0  0  0  0  0  0  0  0  0
    1.9770    1.4950   -3.3100 O   0  0  0  0  0  0  0  0  0  0  0  0
    2.4130    2.6460    1.7440 C   0  0  2  0  0  0  0  0  0  0  0  0
    2.1570    3.4500    0.6610 F   0  0  0  0  0  0  0  0  0  0  0  0
    3.8360    2.6410    1.8360 F   0  0  0  0  0  0  0  0  0  0  0  0
    1.9170    3.2540    2.8730 F   0  0  0  0  0  0  0  0  0  0  0  0
  1  2  2  0
  2  3  1  0
  2 12  1  0
  3  4  1  0
  4  5  2  0
  4 10  1  0
  5  6  1  0
  6  7  1  0
  6  8  2  0
  8  9  1  0
  9 10  2  0
 10 11  1  0
 12 13  2  3
 21 12  1  6
 13 14  1  0
 14 15  2  0
 14 20  1  0
 15 16  1  0
 16 17  2  0
 17 18  1  0
 18 19  1  0
 18 20  2  0
 21 22  1  0
 21 33  1  0
 22 23  2  0
 22 24  1  0
 24 25  1  0
 25 26  2  0
 25 31  1  0
 26 27  1  0
 27 28  2  0
 28 29  1  0
 29 30  1  0
 29 31  2  0
 31 32  1  0
 33 34  1  6
 33 35  1  0
 33 36  1  0
M  END
