
     RDKit          3D

 36 39  0  0  0  0  0  0  0  0999 V2000
    6.8750    1.9710   -0.8510 C   0  0  0  0  0  0  0  0  0  0  0  0
    5.6760    2.7150   -1.4000 C   0  0  0  0  0  0  0  0  0  0  0  0
    4.6700    1.7730   -2.0020 C   0  0  0  0  0  0  0  0  0  0  0  0
    4.1470    0.8040   -1.0690 N   0  0  0  0  0  0  0  0  0  0  0  0
    3.0670    0.9820   -0.2910 N   0  0  0  0  0  0  0  0  0  0  0  0
    2.8580   -0.1180    0.4620 C   0  0  0  0  0  0  0  0  0  0  0  0
    1.7990   -0.3420    1.4360 C   0  0  0  0  0  0  0  0  0  0  0  0
    1.7190   -1.4130    2.0660 O   0  0  0  0  0  0  0  0  0  0  0  0
    0.8090    0.6540    1.7110 N   0  0  0  0  0  0  0  0  0  0  0  0
   -0.2350    0.4740    2.6510 C   0  0  0  0  0  0  0  0  0  0  0  0
    0.1610    0.1660    4.3210 Cl  0  0  0  0  0  0  0  0  0  0  0  0
   -1.5070    0.5440    2.2290 C   0  0  0  0  0  0  0  0  0  0  0  0
   -1.7710    0.8000    0.8430 C   0  0  0  0  0  0  0  0  0  0  0  0
   -2.9320    0.8960    0.2550 C   0  0  0  0  0  0  0  0  0  0  0  0
   -4.2540    0.7640    0.8510 C   0  0  1  0  0  0  0  0  0  0  0  0
   -5.3180    0.0900   -0.4720 Cl  0  0  0  0  0  0  0  0  0  0  0  0
   -4.4120   -0.1960    1.9060 N   0  0  0  0  0  0  0  0  0  0  0  0
   -3.9530   -1.5640    1.7740 C   0  0  0  0  0  0  0  0  0  0  0  0
   -5.0660   -2.5560    2.0360 C   0  0  0  0  0  0  0  0  0  0  0  0
   -6.0970   -2.0970    3.0050 C   0  0  0  0  0  0  0  0  0  0  0  0
   -5.6410   -0.9940    3.8290 N   0  0  0  0  0  0  0  0  0  0  0  0
   -5.0700    0.1180    3.1500 C   0  0  0  0  0  0  0  0  0  0  0  0
   -5.0940    1.2900    3.5330 O   0  0  0  0  0  0  0  0  0  0  0  0
   -2.9240    1.2330   -1.1530 N   0  0  0  0  0  0  0  0  0  0  0  0
   -2.9010    0.2940   -2.2330 C   0  0  0  0  0  0  0  0  0  0  0  0
   -2.3070    1.1520   -3.3560 C   0  0  0  0  0  0  0  0  0  0  0  0
   -2.9020    2.4310   -3.1200 N   0  0  0  0  0  0  0  0  0  0  0  0
   -4.1800    2.6230   -3.7330 C   0  0  0  0  0  0  0  0  0  0  0  0
   -2.9360    2.5760   -1.6710 C   0  0  0  0  0  0  0  0  0  0  0  0
    3.8380   -1.0350    0.1570 C   0  0  0  0  0  0  0  0  0  0  0  0
    4.0990   -2.3150    0.6250 C   0  0  0  0  0  0  0  0  0  0  0  0
    5.1690   -3.0360    0.1410 C   0  0  0  0  0  0  0  0  0  0  0  0
    5.4840   -4.4120    0.6170 C   0  0  0  0  0  0  0  0  0  0  0  0
    5.9500   -2.4250   -0.8140 C   0  0  0  0  0  0  0  0  0  0  0  0
    5.7050   -1.1540   -1.2900 C   0  0  0  0  0  0  0  0  0  0  0  0
    4.6300   -0.4310   -0.8030 C   0  0  0  0  0  0  0  0  0  0  0  0
  1  2  1  0
  2  3  1  0
  3  4  1  0
  4  5  1  0
  4 36  1  0
  5  6  2  0
  6  7  1  0
  6 30  1  0
  7  8  2  0
  7  9  1  0
  9 10  1  0
 10 11  1  0
 10 12  2  3
 12 13  1  0
 13 14  2  3
 14 15  1  0
 14 24  1  0
 15 16  1  6
 15 17  1  0
 17 18  1  0
 17 22  1  0
 18 19  1  0
 19 20  1  0
 20 21  1  0
 21 22  1  0
 22 23  2  0
 24 25  1  0
 24 29  1  0
 25 26  1  0
 26 27  1  0
 27 28  1  0
 27 29  1  0
 30 31  2  0
 30 36  1  0
 31 32  1  0
 32 33  1  0
 32 34  2  0
 34 35  1  0
 35 36  2  0
M  END
