
     RDKit          3D

 33 34  0  0  0  0  0  0  0  0999 V2000
   -7.6510   -0.0660   -2.6080 C   0  0  0  0  0  0  0  0  0  0  0  0
   -6.6210    0.7390   -2.5720 C   0  0  0  0  0  0  0  0  0  0  0  0
   -5.2280    0.4870   -3.0250 C   0  0  0  0  0  0  0  0  0  0  0  0
   -4.4250    0.6630   -1.8710 O   0  0  0  0  0  0  0  0  0  0  0  0
   -4.4730   -0.1530   -0.7890 C   0  0  0  0  0  0  0  0  0  0  0  0
   -5.2060   -1.2930   -0.6200 C   0  0  0  0  0  0  0  0  0  0  0  0
   -5.1950   -2.0630    0.5450 C   0  0  0  0  0  0  0  0  0  0  0  0
   -4.4040   -1.6620    1.5930 C   0  0  0  0  0  0  0  0  0  0  0  0
   -4.3260   -2.3570    2.7940 O   0  0  0  0  0  0  0  0  0  0  0  0
   -5.0980   -3.5400    2.9440 C   0  0  0  0  0  0  0  0  0  0  0  0
   -3.6570   -0.5080    1.4270 C   0  0  0  0  0  0  0  0  0  0  0  0
   -3.6550    0.2660    0.2800 C   0  0  0  0  0  0  0  0  0  0  0  0
   -2.7550    1.3800    0.1680 C   0  0  2  0  0  0  0  0  0  0  0  0
   -3.2640    2.7660    0.2750 C   0  0  0  0  0  0  0  0  0  0  0  0
   -3.9160    2.9950    1.5530 N   0  0  0  0  0  0  0  0  0  0  0  0
   -1.5990    1.1850   -0.6250 N   0  0  0  0  0  0  0  0  0  0  0  0
   -0.2770    1.2180   -0.0520 C   0  0  0  0  0  0  0  0  0  0  0  0
   -0.2900    1.4730    1.2200 O   0  0  0  0  0  0  0  0  0  0  0  0
    0.9960    1.0060   -0.6700 C   0  0  0  0  0  0  0  0  0  0  0  0
    2.1100    1.1770    0.1870 C   0  0  0  0  0  0  0  0  0  0  0  0
    3.3320    0.9530   -0.2750 N   0  0  0  0  0  0  0  0  0  0  0  0
    3.5840    0.5640   -1.5340 C   0  0  0  0  0  0  0  0  0  0  0  0
    5.2800    0.1970   -2.0040 S   0  0  0  0  0  0  0  0  0  0  0  0
    5.6660   -1.4410   -1.3560 C   0  0  0  0  0  0  0  0  0  0  0  0
    5.8230   -1.4790    0.1390 C   0  0  1  0  0  0  0  0  0  0  0  0
    6.0620   -2.8840    0.4020 O   0  0  0  0  0  0  0  0  0  0  0  0
    7.0810   -0.8010    0.6410 C   0  0  0  0  0  0  0  0  0  0  0  0
    7.1400    0.5510    0.5360 O   0  0  0  0  0  0  0  0  0  0  0  0
    8.3610    0.9970    1.0900 C   0  0  0  0  0  0  0  0  0  0  0  0
    9.4990    0.3500    0.3430 C   0  0  0  0  0  0  0  0  0  0  0  0
    2.5360    0.4000   -2.3600 N   0  0  0  0  0  0  0  0  0  0  0  0
    1.2410    0.6120   -1.9610 C   0  0  0  0  0  0  0  0  0  0  0  0
    0.2940    0.4490   -2.7560 O   0  0  0  0  0  0  0  0  0  0  0  0
  1  2  2  0
  2  3  1  0
  3  4  1  0
  4  5  1  0
  5  6  2  0
  5 12  1  0
  6  7  1  0
  7  8  2  0
  8  9  1  0
  8 11  1  0
  9 10  1  0
 11 12  2  0
 12 13  1  0
 13 14  1  6
 13 16  1  0
 14 15  1  0
 16 17  1  0
 17 18  2  0
 17 19  1  0
 19 20  2  0
 19 32  1  0
 20 21  1  0
 21 22  2  0
 22 23  1  0
 22 31  1  0
 23 24  1  0
 24 25  1  0
 25 26  1  6
 25 27  1  0
 27 28  1  0
 28 29  1  0
 29 30  1  0
 31 32  1  0
 32 33  2  0
M  CHG  1  15   1
M  END
