
     RDKit          3D

 33 34  0  0  0  0  0  0  0  0999 V2000
   10.7770   -0.3450    0.4740 C   0  0  0  0  0  0  0  0  0  0  0  0
   10.1330    0.8980    0.3630 O   0  0  0  0  0  0  0  0  0  0  0  0
    9.3330    0.8670   -0.8190 C   0  0  0  0  0  0  0  0  0  0  0  0
    8.2800   -0.1830   -0.5470 C   0  0  0  0  0  0  0  0  0  0  0  0
    8.1360   -1.1610   -1.2780 O   0  0  0  0  0  0  0  0  0  0  0  0
    7.3800   -0.0700    0.5990 N   0  0  0  0  0  0  0  0  0  0  0  0
    6.4080   -1.1240    0.7550 C   0  0  0  0  0  0  0  0  0  0  0  0
    5.4010   -0.6730    1.8220 C   0  0  0  0  0  0  0  0  0  0  0  0
    4.7140    0.9340    1.1490 S   0  0  0  0  0  0  0  0  0  0  0  0
    3.9530    0.4460   -0.4360 C   0  0  0  0  0  0  0  0  0  0  0  0
    2.5150    0.1330   -0.4500 C   0  0  0  0  0  0  0  0  0  0  0  0
    1.9040   -0.7210    0.5580 C   0  0  0  0  0  0  0  0  0  0  0  0
    0.5440   -1.0540    0.2500 N   0  0  0  0  0  0  0  0  0  0  0  0
   -0.3860   -0.1010   -0.1900 C   0  0  0  0  0  0  0  0  0  0  0  0
   -0.1200    1.1700   -0.3790 O   0  0  0  0  0  0  0  0  0  0  0  0
   -1.6920   -0.4840   -0.4010 N   0  0  0  0  0  0  0  0  0  0  0  0
   -2.1930    0.8450   -1.6140 C   0  0  0  0  0  0  0  0  0  0  0  0
   -1.3050    0.9930   -2.2070 O   0  0  0  0  0  0  0  0  0  0  0  0
   -3.5460    1.0280   -1.1780 C   0  0  0  0  0  0  0  0  0  0  0  0
   -3.8150    2.3490   -0.8300 O   0  0  0  0  0  0  0  0  0  0  0  0
   -5.0320    2.4430   -0.4360 C   0  0  0  0  0  0  0  0  0  0  0  0
   -5.6330    1.2160   -0.5050 C   0  0  0  0  0  0  0  0  0  0  0  0
   -4.6590    0.3280   -0.9980 C   0  0  0  0  0  0  0  0  0  0  0  0
   -4.9620   -1.0770   -1.2060 C   0  0  0  0  0  0  0  0  0  0  0  0
   -4.8600   -2.0180   -0.0810 C   0  0  0  0  0  0  0  0  0  0  0  0
   -5.0970   -3.4790   -0.6280 C   0  0  0  0  0  0  0  0  0  0  0  0
   -4.7980   -4.4340    0.3670 N   0  0  0  0  0  0  0  0  0  0  0  0
   -5.4770   -3.6170   -1.6820 O   0  0  0  0  0  0  0  0  0  0  0  0
   -7.0020    0.8190   -0.0330 C   0  0  0  0  0  0  0  0  0  0  0  0
   -7.6900    1.5090    0.8120 C   0  0  0  0  0  0  0  0  0  0  0  0
   -7.5000    2.7970    1.5560 C   0  0  0  0  0  0  0  0  0  0  0  0
   -6.1030    3.3230    1.5250 C   0  0  0  0  0  0  0  0  0  0  0  0
   -5.7540    3.6690    0.0550 C   0  0  0  0  0  0  0  0  0  0  0  0
  1  2  1  0
  2  3  1  0
  3  4  1  0
  4  5  2  0
  4  6  1  0
  6  7  1  0
  7  8  1  0
  8  9  1  0
  9 10  1  0
 10 11  1  0
 11 12  1  0
 12 13  1  0
 13 14  1  0
 14 15  2  0
 14 16  1  0
 16 17  1  0
 17 18  2  0
 17 19  1  0
 19 20  1  0
 19 23  2  0
 20 21  1  0
 21 22  2  0
 21 33  1  0
 22 23  1  0
 22 29  1  0
 23 24  1  0
 24 25  1  0
 25 26  1  0
 26 27  1  0
 26 28  2  0
 29 30  2  0
 30 31  1  0
 31 32  1  0
 32 33  1  0
M  CHG  1  27   1
M  END
