
     RDKit          3D

 23 25  0  0  0  0  0  0  0  0999 V2000
    7.5270   -0.4890    0.6070 O   0  0  0  0  0  0  0  0  0  0  0  0
    6.5460    0.1170   -0.3630 S   0  0  2  0  0  0  0  0  0  0  0  0
    6.9170    1.5800   -0.4750 O   0  0  0  0  0  0  0  0  0  0  0  0
    4.9240    0.0150    0.2340 C   0  0  0  0  0  0  0  0  0  0  0  0
    4.4370    0.9790    1.0770 C   0  0  0  0  0  0  0  0  0  0  0  0
    3.1260    0.9080    1.5670 C   0  0  0  0  0  0  0  0  0  0  0  0
    2.3210   -0.1470    1.1920 C   0  0  0  0  0  0  0  0  0  0  0  0
    0.9860   -0.2610    1.6620 N   0  0  0  0  0  0  0  0  0  0  0  0
   -0.0370   -0.1330    0.8750 C   0  0  0  0  0  0  0  0  0  0  0  0
   -1.3350   -0.2130    1.1650 N   0  0  0  0  0  0  0  0  0  0  0  0
   -2.0780   -0.0230    0.0790 C   0  0  0  0  0  0  0  0  0  0  0  0
   -3.5480   -0.0180   -0.1010 C   0  0  0  0  0  0  0  0  0  0  0  0
   -4.0610    0.2130   -1.3770 C   0  0  0  0  0  0  0  0  0  0  0  0
   -5.4070    0.2280   -1.6000 C   0  0  0  0  0  0  0  0  0  0  0  0
   -6.0660    0.5500   -3.3750 Br  0  0  0  0  0  0  0  0  0  0  0  0
   -6.3010    0.0170   -0.5720 C   0  0  0  0  0  0  0  0  0  0  0  0
   -5.8050   -0.2090    0.6800 C   0  0  0  0  0  0  0  0  0  0  0  0
   -4.4160   -0.2270    0.9190 C   0  0  0  0  0  0  0  0  0  0  0  0
   -3.9830   -0.4630    2.2130 O   0  0  0  0  0  0  0  0  0  0  0  0
   -1.1840    0.1810   -0.9120 N   0  0  0  0  0  0  0  0  0  0  0  0
    0.0680    0.1170   -0.4400 N   0  0  0  0  0  0  0  0  0  0  0  0
    2.8040   -1.1320    0.3370 C   0  0  0  0  0  0  0  0  0  0  0  0
    4.1210   -1.0320   -0.1370 C   0  0  0  0  0  0  0  0  0  0  0  0
  1  2  2  0
  2  3  2  0
  2  4  1  1
  4  5  2  0
  4 23  1  0
  5  6  1  0
  6  7  2  0
  7  8  1  0
  7 22  1  0
  8  9  2  3
  9 10  1  0
  9 21  1  0
 10 11  2  0
 11 12  1  0
 11 20  1  0
 12 13  2  0
 12 18  1  0
 13 14  1  0
 14 15  1  0
 14 16  2  0
 16 17  1  0
 17 18  2  0
 18 19  1  0
 20 21  1  0
 22 23  2  0
M  END
