
     RDKit          3D

 23 25  0  0  0  0  0  0  0  0999 V2000
   -2.5040   -1.9350    1.2890 N   0  0  0  0  0  0  0  0  0  0  0  0
   -2.9830   -0.7610    0.6240 C   0  0  0  0  0  0  0  0  0  0  0  0
   -4.3200   -0.4430    0.7350 C   0  0  0  0  0  0  0  0  0  0  0  0
   -4.8330    0.6770    0.1140 C   0  0  0  0  0  0  0  0  0  0  0  0
   -6.5660    1.1300    0.2320 S   0  0  0  0  0  0  0  0  0  0  0  0
   -6.7200    2.1550    1.6150 O   0  0  0  0  0  0  0  0  0  0  0  0
   -3.9430    1.4500   -0.6150 C   0  0  0  0  0  0  0  0  0  0  0  0
   -2.6090    1.1330   -0.7270 C   0  0  0  0  0  0  0  0  0  0  0  0
   -2.1030    0.0140   -0.1050 C   0  0  0  0  0  0  0  0  0  0  0  0
   -0.7210   -0.3550   -0.1930 N   0  0  0  0  0  0  0  0  0  0  0  0
    0.3400    0.4100   -0.0950 N   0  0  0  0  0  0  0  0  0  0  0  0
    1.4180   -0.3760   -0.2430 C   0  0  0  0  0  0  0  0  0  0  0  0
    2.8270   -0.0080   -0.2150 C   0  0  0  0  0  0  0  0  0  0  0  0
    3.3050    0.8470    0.7720 C   0  0  0  0  0  0  0  0  0  0  0  0
    4.6320    1.2170    0.8290 C   0  0  0  0  0  0  0  0  0  0  0  0
    5.4930    0.7180   -0.1240 C   0  0  0  0  0  0  0  0  0  0  0  0
    7.3450    1.2040   -0.0850 Br  0  0  0  0  0  0  0  0  0  0  0  0
    5.0520   -0.1410   -1.1270 C   0  0  0  0  0  0  0  0  0  0  0  0
    5.9020   -0.6530   -2.0930 O   0  0  0  0  0  0  0  0  0  0  0  0
    3.7130   -0.4880   -1.1500 C   0  0  0  0  0  0  0  0  0  0  0  0
    0.9770   -1.6860   -0.4410 C   0  0  0  0  0  0  0  0  0  0  0  0
    1.7150   -2.6910   -0.6170 O   0  0  0  0  0  0  0  0  0  0  0  0
   -0.3640   -1.6170   -0.4010 N   0  0  0  0  0  0  0  0  0  0  0  0
  1  2  1  0
  2  3  2  0
  2  9  1  0
  3  4  1  0
  4  5  1  0
  4  7  2  0
  5  6  1  0
  7  8  1  0
  8  9  2  0
  9 10  1  0
 10 11  1  0
 10 23  1  0
 11 12  2  0
 12 13  1  0
 12 21  1  0
 13 14  2  0
 13 20  1  0
 14 15  1  0
 15 16  2  0
 16 17  1  0
 16 18  1  0
 18 19  1  0
 18 20  2  0
 21 22  2  0
 21 23  1  0
M  END
