
     RDKit          3D

 16 17  0  0  0  0  0  0  0  0999 V2000
    4.0100    1.0100    0.6370 N   0  0  0  0  0  0  0  0  0  0  0  0
    3.3900    0.8670   -0.6310 C   0  0  0  0  0  0  0  0  0  0  0  0
    4.0780    0.9740   -1.6960 O   0  0  0  0  0  0  0  0  0  0  0  0
    1.9360    0.5940   -0.7180 C   0  0  1  0  0  0  0  0  0  0  0  0
    1.5810    0.5250   -2.0680 O   0  0  0  0  0  0  0  0  0  0  0  0
    1.6560   -0.7660   -0.1430 C   0  0  0  0  0  0  0  0  0  0  0  0
    0.2630   -1.1670   -0.2360 N   0  0  0  0  0  0  0  0  0  0  0  0
    0.2130   -2.5640    0.2070 C   0  0  0  0  0  0  0  0  0  0  0  0
   -1.5150   -3.0770    0.0370 S   0  0  0  0  0  0  0  0  0  0  0  0
   -2.6480   -1.6900    0.0430 C   0  0  0  0  0  0  0  0  0  0  0  0
   -2.0190   -0.3490    0.2310 C   0  0  2  0  0  0  0  0  0  0  0  0
   -0.5860   -0.3590    0.6330 C   0  0  0  0  0  0  0  0  0  0  0  0
   -2.7080    0.3560    1.2200 O   0  0  0  0  0  0  0  0  0  0  0  0
   -2.5820    1.6820    0.8870 C   0  0  0  0  0  0  0  0  0  0  0  0
   -2.5560    1.6620   -0.6150 C   0  0  0  0  0  0  0  0  0  0  0  0
   -2.1520    0.3960   -0.9390 O   0  0  0  0  0  0  0  0  0  0  0  0
  1  2  1  0
  2  3  2  0
  2  4  1  0
  4  5  1  6
  4  6  1  0
  6  7  1  0
  7  8  1  0
  7 12  1  0
  8  9  1  0
  9 10  1  0
 11 10  1  6
 11 12  1  0
 11 13  1  0
 11 16  1  0
 13 14  1  0
 14 15  1  0
 15 16  1  0
M  END
