
     RDKit          3D

 12 12  0  0  0  0  0  0  0  0999 V2000
    3.5890   -0.1780    1.0590 N   0  0  0  0  0  0  0  0  0  0  0  0
    2.5990   -0.2060    0.0470 C   0  0  1  0  0  0  0  0  0  0  0  0
    2.2330   -1.5850   -0.4350 C   0  0  0  0  0  0  0  0  0  0  0  0
    0.9860   -1.3460   -1.0390 O   0  0  0  0  0  0  0  0  0  0  0  0
    0.5970   -0.0760   -0.6550 C   0  0  1  0  0  0  0  0  0  0  0  0
   -0.8720    0.0660   -0.4490 C   0  0  2  0  0  0  0  0  0  0  0  0
   -1.5160   -0.2340   -1.6480 O   0  0  0  0  0  0  0  0  0  0  0  0
   -1.1530    1.5240   -0.0900 C   0  0  0  0  0  0  0  0  0  0  0  0
   -2.6050    1.7130    0.0580 N   0  0  0  0  0  0  0  0  0  0  0  0
   -1.3480   -0.8700    0.6150 C   0  0  0  0  0  0  0  0  0  0  0  0
   -2.7190   -0.7830    0.8320 O   0  0  0  0  0  0  0  0  0  0  0  0
    1.3400    0.2480    0.4820 O   0  0  0  0  0  0  0  0  0  0  0  0
  2  1  1  1
  2  3  1  0
  2 12  1  0
  3  4  1  0
  5  4  1  1
  5  6  1  0
  5 12  1  0
  6  7  1  6
  6  8  1  0
  6 10  1  0
  8  9  1  0
 10 11  1  0
M  CHG  1   9   1
M  END
