
     RDKit          3D

 17 18  0  0  0  0  0  0  0  0999 V2000
    1.3850    0.0510   -0.3990 O   0  0  0  0  0  0  0  0  0  0  0  0
    1.2190   -0.7580    0.5320 C   0  0  0  0  0  0  0  0  0  0  0  0
    0.0640   -0.7740    1.3580 N   0  0  0  0  0  0  0  0  0  0  0  0
   -0.9980    0.1650    1.1550 C   0  0  0  0  0  0  0  0  0  0  0  0
   -1.5810    0.0220   -0.2240 C   0  0  2  0  0  0  0  0  0  0  0  0
   -2.7060    1.0220   -0.4290 C   0  0  0  0  0  0  0  0  0  0  0  0
   -3.9170    0.4930    0.2900 C   0  0  1  0  0  0  0  0  0  0  0  0
   -4.9390    1.4030    0.1160 O   0  0  0  0  0  0  0  0  0  0  0  0
   -4.2100   -0.8190   -0.4510 C   0  0  0  0  0  0  0  0  0  0  0  0
   -2.5230   -1.5510   -0.3650 S   0  0  0  0  0  0  0  0  0  0  0  0
    2.2460   -1.6890    0.7510 O   0  0  0  0  0  0  0  0  0  0  0  0
    3.4130   -1.7080   -0.0490 C   0  0  0  0  0  0  0  0  0  0  0  0
    4.1650   -0.4270    0.0190 C   0  0  0  0  0  0  0  0  0  0  0  0
    4.4080    0.3260   -1.0230 C   0  0  0  0  0  0  0  0  0  0  0  0
    5.1340    1.4560   -0.6220 O   0  0  0  0  0  0  0  0  0  0  0  0
    4.9320    1.5160    0.7560 N   0  0  0  0  0  0  0  0  0  0  0  0
    4.7290    0.2040    1.1020 O   0  0  0  0  0  0  0  0  0  0  0  0
  1  2  2  0
  2  3  1  0
  2 11  1  0
  3  4  1  0
  5  4  1  1
  5  6  1  0
  5 10  1  0
  6  7  1  0
  7  8  1  6
  7  9  1  0
  9 10  1  0
 11 12  1  0
 12 13  1  0
 13 14  2  0
 13 17  1  0
 14 15  1  0
 15 16  1  0
 16 17  1  0
M  END
