
     RDKit          3D

 17 17  0  0  0  0  0  0  0  0999 V2000
    1.6280   -2.1230   -0.0640 O   0  0  0  0  0  0  0  0  0  0  0  0
    1.6210   -0.8680   -0.0950 C   0  0  0  0  0  0  0  0  0  0  0  0
    2.8530   -0.1670   -0.0860 N   0  0  0  0  0  0  0  0  0  0  0  0
    4.0770   -0.9370   -0.0420 C   0  0  0  0  0  0  0  0  0  0  0  0
    5.3020   -0.0710   -0.0370 C   0  0  0  0  0  0  0  0  0  0  0  0
    5.3480    0.7870    1.0510 O   0  0  0  0  0  0  0  0  0  0  0  0
    0.3300   -0.1950   -0.1380 C   0  0  0  0  0  0  0  0  0  0  0  0
    0.2980    1.0580   -0.1680 O   0  0  0  0  0  0  0  0  0  0  0  0
   -0.8870   -0.9120   -0.1460 N   0  0  0  0  0  0  0  0  0  0  0  0
   -2.0990   -0.1220   -0.1900 C   0  0  0  0  0  0  0  0  0  0  0  0
   -2.9240   -0.2720    0.8120 C   0  0  0  0  0  0  0  0  0  0  0  0
   -4.2130    0.3940    1.0270 C   0  0  2  0  0  0  0  0  0  0  0  0
   -5.1900   -0.6220    1.1540 O   0  0  0  0  0  0  0  0  0  0  0  0
   -4.6050    1.5130   -0.2810 S   0  0  0  0  0  0  0  0  0  0  0  0
   -5.9480    1.2320   -0.8990 O   0  0  0  0  0  0  0  0  0  0  0  0
   -3.3310    1.5150   -1.4830 C   0  0  0  0  0  0  0  0  0  0  0  0
   -2.2760    0.7420   -1.3170 C   0  0  0  0  0  0  0  0  0  0  0  0
  1  2  2  0
  2  3  1  0
  2  7  1  0
  3  4  1  0
  4  5  1  0
  5  6  1  0
  7  8  2  0
  7  9  1  0
  9 10  1  0
 10 11  2  0
 10 17  1  0
 11 12  1  0
 12 13  1  6
 12 14  1  0
 14 15  2  0
 14 16  1  6
 16 17  2  0
M  END
