
     RDKit          3D

 19 21  0  0  0  0  0  0  0  0999 V2000
   -3.4690    1.6160   -0.6840 C   0  0  0  0  0  0  0  0  0  0  0  0
   -2.9960    0.2480   -0.4310 C   0  0  0  0  0  0  0  0  0  0  0  0
   -3.8710   -0.8170   -0.4030 C   0  0  0  0  0  0  0  0  0  0  0  0
   -3.4160   -2.1010   -0.1640 C   0  0  0  0  0  0  0  0  0  0  0  0
   -2.0700   -2.2750    0.0430 C   0  0  0  0  0  0  0  0  0  0  0  0
   -1.1740   -1.2280    0.0210 C   0  0  0  0  0  0  0  0  0  0  0  0
   -1.6540    0.0310   -0.2180 C   0  0  0  0  0  0  0  0  0  0  0  0
   -0.7560    1.0740   -0.2400 O   0  0  0  0  0  0  0  0  0  0  0  0
    0.6090    0.9050   -0.0310 C   0  0  0  0  0  0  0  0  0  0  0  0
    1.4200    2.0200   -0.0740 C   0  0  0  0  0  0  0  0  0  0  0  0
    2.7810    1.8790    0.1310 C   0  0  0  0  0  0  0  0  0  0  0  0
    3.5360    3.0390    0.0740 O   0  0  0  0  0  0  0  0  0  0  0  0
    3.3090    0.6270    0.3760 C   0  0  0  0  0  0  0  0  0  0  0  0
    4.7330    0.4780    0.5910 C   0  0  0  0  0  0  0  0  0  0  0  0
    5.1850   -0.6810    0.8120 O   0  0  0  0  0  0  0  0  0  0  0  0
    2.4820   -0.4820    0.4160 C   0  0  0  0  0  0  0  0  0  0  0  0
    1.1120   -0.3440    0.2110 C   0  0  0  0  0  0  0  0  0  0  0  0
    0.2480   -1.5430    0.2580 C   0  0  1  0  0  0  0  0  0  0  0  0
    0.3130   -2.1760    1.5040 O   0  0  0  0  0  0  0  0  0  0  0  0
  1  2  1  0
  2  3  2  0
  2  7  1  0
  3  4  1  0
  4  5  2  0
  5  6  1  0
  6  7  2  0
  6 18  1  0
  7  8  1  0
  8  9  1  0
  9 10  2  0
  9 17  1  0
 10 11  1  0
 11 12  1  0
 11 13  2  0
 13 14  1  0
 13 16  1  0
 14 15  2  0
 16 17  2  0
 17 18  1  0
 18 19  1  1
M  END
