
     RDKit          3D

 19 21  0  0  0  0  0  0  0  0999 V2000
   -5.8840    1.6450   -0.8720 O   0  0  0  0  0  0  0  0  0  0  0  0
   -4.8270    0.7870   -0.6120 C   0  0  0  0  0  0  0  0  0  0  0  0
   -4.9840   -0.5800   -0.7400 C   0  0  0  0  0  0  0  0  0  0  0  0
   -3.9130   -1.4060   -0.4750 C   0  0  0  0  0  0  0  0  0  0  0  0
   -2.6950   -0.8950   -0.0860 C   0  0  0  0  0  0  0  0  0  0  0  0
   -1.4880   -1.4740    0.2350 C   0  0  0  0  0  0  0  0  0  0  0  0
   -0.6360   -0.4220    0.5480 C   0  0  0  0  0  0  0  0  0  0  0  0
    0.7860   -0.4840    0.9630 C   0  0  0  0  0  0  0  0  0  0  0  0
    1.2660    0.7750    1.1800 O   0  0  0  0  0  0  0  0  0  0  0  0
    2.5700    0.8590    1.5690 C   0  0  0  0  0  0  0  0  0  0  0  0
    3.5340    0.2960    0.6070 C   0  0  0  0  0  0  0  0  0  0  0  0
    4.3690   -0.6900    0.8400 C   0  0  0  0  0  0  0  0  0  0  0  0
    5.1440   -0.9300   -0.3880 C   0  0  0  0  0  0  0  0  0  0  0  0
    4.6260    0.0640   -1.3460 C   0  0  0  0  0  0  0  0  0  0  0  0
    3.6860    0.7770   -0.7580 C   0  0  0  0  0  0  0  0  0  0  0  0
   -1.3160    0.6870    0.4150 O   0  0  0  0  0  0  0  0  0  0  0  0
   -2.5440    0.4750    0.0410 C   0  0  0  0  0  0  0  0  0  0  0  0
   -3.5950    1.3090   -0.2180 C   0  0  0  0  0  0  0  0  0  0  0  0
   -3.4810    2.6850   -0.1020 O   0  0  0  0  0  0  0  0  0  0  0  0
  1  2  1  0
  2  3  2  0
  2 18  1  0
  3  4  1  0
  4  5  2  0
  5  6  1  0
  5 17  1  0
  6  7  2  0
  7  8  1  0
  7 16  1  0
  8  9  1  0
  9 10  1  0
 10 11  1  0
 11 12  2  0
 11 15  1  0
 12 13  1  0
 13 14  1  0
 14 15  2  0
 16 17  1  0
 17 18  2  0
 18 19  1  0
M  END
