
     RDKit          3D

 19 21  0  0  0  0  0  0  0  0999 V2000
    6.5770    1.7190   -0.2500 C   0  0  0  0  0  0  0  0  0  0  0  0
    5.2590    1.2170   -0.2960 O   0  0  0  0  0  0  0  0  0  0  0  0
    4.8930    0.0420   -0.9120 C   0  0  0  0  0  0  0  0  0  0  0  0
    5.7790   -0.6400   -1.4760 O   0  0  0  0  0  0  0  0  0  0  0  0
    3.4960   -0.3810   -0.8960 C   0  0  0  0  0  0  0  0  0  0  0  0
    3.0110   -1.5530   -1.4880 C   0  0  0  0  0  0  0  0  0  0  0  0
    1.6480   -1.5670   -1.2410 C   0  0  0  0  0  0  0  0  0  0  0  0
    1.3540   -0.4320   -0.5240 C   0  0  0  0  0  0  0  0  0  0  0  0
   -0.0150   -0.0410   -0.0390 C   0  0  0  0  0  0  0  0  0  0  0  0
   -1.0290   -0.7960   -0.2880 C   0  0  0  0  0  0  0  0  0  0  0  0
   -2.3710   -0.4230    0.1810 C   0  0  0  0  0  0  0  0  0  0  0  0
   -2.5280    0.6960    0.8630 C   0  0  0  0  0  0  0  0  0  0  0  0
   -3.8450    1.1450    1.3720 C   0  0  0  0  0  0  0  0  0  0  0  0
   -4.7590   -0.0390    1.4950 C   0  0  0  0  0  0  0  0  0  0  0  0
   -4.7760   -0.7190    0.1190 C   0  0  0  0  0  0  0  0  0  0  0  0
   -3.4610   -1.3740   -0.1670 C   0  0  0  0  0  0  0  0  0  0  0  0
   -1.4230    1.4780    1.1120 O   0  0  0  0  0  0  0  0  0  0  0  0
   -0.1220    1.2210    0.7170 C   0  0  0  0  0  0  0  0  0  0  0  0
    2.4650    0.2080   -0.3590 O   0  0  0  0  0  0  0  0  0  0  0  0
  1  2  1  0
  2  3  1  0
  3  4  2  0
  3  5  1  0
  5  6  2  0
  5 19  1  0
  6  7  1  0
  7  8  2  0
  8  9  1  0
  8 19  1  0
  9 10  2  0
  9 18  1  0
 10 11  1  0
 11 12  2  0
 11 16  1  0
 12 13  1  0
 12 17  1  0
 13 14  1  0
 14 15  1  0
 15 16  1  0
 17 18  1  0
M  END
