
     RDKit          3D

 19 20  0  0  0  0  0  0  0  0999 V2000
    5.2640    2.3080    1.9310 O   0  0  0  0  0  0  0  0  0  0  0  0
    4.5550    1.4910    1.2900 C   0  0  0  0  0  0  0  0  0  0  0  0
    5.1300    0.2320    0.9670 N   0  0  0  0  0  0  0  0  0  0  0  0
    4.3530   -0.6810    0.2570 N   0  0  0  0  0  0  0  0  0  0  0  0
    3.0040   -0.3900   -0.1530 C   0  0  0  0  0  0  0  0  0  0  0  0
    2.2730   -1.2430   -0.8160 C   0  0  0  0  0  0  0  0  0  0  0  0
    0.9000   -1.0020   -1.2570 C   0  0  0  0  0  0  0  0  0  0  0  0
    0.3570    0.3120   -0.9180 C   0  0  1  0  0  0  0  0  0  0  0  0
    0.0510    0.9540   -2.1710 O   0  0  0  0  0  0  0  0  0  0  0  0
   -0.9530    0.2180   -0.1750 C   0  0  0  0  0  0  0  0  0  0  0  0
   -0.9290   -0.3120    0.9540 O   0  0  0  0  0  0  0  0  0  0  0  0
   -2.1620    0.7060   -0.7220 N   0  0  0  0  0  0  0  0  0  0  0  0
   -3.4350    0.6280   -0.0260 C   0  0  0  0  0  0  0  0  0  0  0  0
   -3.8250   -0.7950    0.2820 C   0  0  0  0  0  0  0  0  0  0  0  0
   -5.1620   -0.7420    1.0040 C   0  0  0  0  0  0  0  0  0  0  0  0
   -5.5500   -2.0280    1.3020 F   0  0  0  0  0  0  0  0  0  0  0  0
    1.2220    1.1600   -0.1920 N   0  0  0  0  0  0  0  0  0  0  0  0
    2.4050    0.8990    0.1730 C   0  0  0  0  0  0  0  0  0  0  0  0
    3.2280    1.8230    0.9070 N   0  0  0  0  0  0  0  0  0  0  0  0
  1  2  2  0
  2  3  1  0
  2 19  1  0
  3  4  1  0
  4  5  1  0
  5  6  2  0
  5 18  1  0
  6  7  1  0
  7  8  1  0
  8  9  1  6
  8 10  1  0
  8 17  1  0
 10 11  2  0
 10 12  1  0
 12 13  1  0
 13 14  1  0
 14 15  1  0
 15 16  1  0
 17 18  2  0
 18 19  1  0
M  END
