
     RDKit          3D

 19 20  0  0  0  0  0  0  0  0999 V2000
   -4.3000    0.7390   -0.2270 O   0  0  0  0  0  0  0  0  0  0  0  0
   -3.0050    0.5940   -0.0810 C   0  0  0  0  0  0  0  0  0  0  0  0
   -2.5910   -0.7190   -0.4020 N   0  0  0  0  0  0  0  0  0  0  0  0
   -2.0170   -1.7260    0.4810 C   0  0  0  0  0  0  0  0  0  0  0  0
   -0.8460   -2.4550   -0.1480 C   0  0  0  0  0  0  0  0  0  0  0  0
    0.4750   -1.9230    0.4390 C   0  0  1  0  0  0  0  0  0  0  0  0
    1.4740   -2.3110   -0.4300 O   0  0  0  0  0  0  0  0  0  0  0  0
    0.2950   -0.4250    0.4890 C   0  0  0  0  0  0  0  0  0  0  0  0
    1.5890    0.3020    0.3590 C   0  0  0  0  0  0  0  0  0  0  0  0
    2.6740    0.1550    1.1020 C   0  0  0  0  0  0  0  0  0  0  0  0
    3.6690    1.1010    0.5630 C   0  0  2  0  0  0  0  0  0  0  0  0
    3.9090    2.0190    1.5940 F   0  0  0  0  0  0  0  0  0  0  0  0
    3.0070    1.7330   -0.5070 N   0  0  0  0  0  0  0  0  0  0  0  0
    1.7990    1.3050   -0.6660 C   0  0  0  0  0  0  0  0  0  0  0  0
    0.7900    1.6990   -1.6360 N   0  0  0  0  0  0  0  0  0  0  0  0
   -0.4480    2.3330   -1.3980 C   0  0  0  0  0  0  0  0  0  0  0  0
   -0.9030    2.9190   -2.4980 O   0  0  0  0  0  0  0  0  0  0  0  0
   -1.2760    2.4810   -0.2980 N   0  0  0  0  0  0  0  0  0  0  0  0
   -2.2250    1.6980    0.3540 N   0  0  0  0  0  0  0  0  0  0  0  0
  1  2  2  0
  2  3  1  0
  2 19  1  0
  3  4  1  0
  4  5  1  0
  5  6  1  0
  6  7  1  6
  6  8  1  0
  8  9  1  0
  9 10  2  0
  9 14  1  0
 10 11  1  0
 11 12  1  1
 11 13  1  0
 13 14  2  0
 14 15  1  0
 15 16  1  0
 16 17  2  0
 16 18  1  0
 18 19  1  0
M  END
