
     RDKit          3D

 19 20  0  0  0  0  0  0  0  0999 V2000
   -2.7180   -2.3020   -0.0310 C   0  0  0  0  0  0  0  0  0  0  0  0
   -2.0960   -1.0380   -0.6430 C   0  0  2  0  0  0  0  0  0  0  0  0
   -0.6320   -1.1120   -0.4240 C   0  0  0  0  0  0  0  0  0  0  0  0
    0.0050    0.1160   -0.0710 N   0  0  0  0  0  0  0  0  0  0  0  0
    1.3490    0.4540   -0.3370 C   0  0  0  0  0  0  0  0  0  0  0  0
    1.7010    1.5110   -1.0820 N   0  0  0  0  0  0  0  0  0  0  0  0
    2.9880    1.8290   -1.3330 C   0  0  0  0  0  0  0  0  0  0  0  0
    3.9400    1.0490   -0.8110 N   0  0  0  0  0  0  0  0  0  0  0  0
    3.6950   -0.0310   -0.0530 C   0  0  0  0  0  0  0  0  0  0  0  0
    4.7310   -0.8350    0.4830 N   0  0  0  0  0  0  0  0  0  0  0  0
    2.3600   -0.3230    0.1810 C   0  0  0  0  0  0  0  0  0  0  0  0
    2.0430   -1.4370    0.9640 N   0  0  0  0  0  0  0  0  0  0  0  0
   -0.8130    1.1160    0.6310 C   0  0  0  0  0  0  0  0  0  0  0  0
   -2.0810    1.2300   -0.2260 C   0  0  2  0  0  0  0  0  0  0  0  0
   -2.8950    2.3590    0.2150 C   0  0  0  0  0  0  0  0  0  0  0  0
   -2.4150    3.5190    0.1430 O   0  0  0  0  0  0  0  0  0  0  0  0
   -4.1600    2.1710    0.6990 O   0  0  0  0  0  0  0  0  0  0  0  0
   -4.9610    3.1660    1.1200 F   0  0  0  0  0  0  0  0  0  0  0  0
   -2.7360    0.0310   -0.0890 O   0  0  0  0  0  0  0  0  0  0  0  0
  2  1  1  1
  2  3  1  0
  2 19  1  0
  3  4  1  0
  4  5  1  0
  4 13  1  0
  5  6  2  0
  5 11  1  0
  6  7  1  0
  7  8  2  0
  8  9  1  0
  9 10  1  0
  9 11  2  0
 11 12  1  0
 13 14  1  0
 14 15  1  1
 14 19  1  0
 15 16  2  0
 15 17  1  0
 17 18  1  0
M  END
