
     RDKit          3D

 20 20  0  0  0  0  0  0  0  0999 V2000
    5.2910   -0.0470    1.0640 N   0  0  0  0  0  0  0  0  0  0  0  0
    4.6570    0.3280   -0.1440 C   0  0  0  0  0  0  0  0  0  0  0  0
    5.3630    1.0230   -1.1500 N   0  0  0  0  0  0  0  0  0  0  0  0
    3.4250    0.0200   -0.3010 N   0  0  0  0  0  0  0  0  0  0  0  0
    2.7640    0.3950   -1.5280 C   0  0  0  0  0  0  0  0  0  0  0  0
    1.3720   -0.2330   -1.6040 C   0  0  0  0  0  0  0  0  0  0  0  0
    0.5070    0.2050   -0.4900 C   0  0  0  0  0  0  0  0  0  0  0  0
   -0.9060   -0.3900   -0.5570 C   0  0  1  0  0  0  0  0  0  0  0  0
   -0.8080   -1.8310   -0.5000 C   0  0  0  0  0  0  0  0  0  0  0  0
   -1.1240   -2.6000    0.4510 O   0  0  0  0  0  0  0  0  0  0  0  0
   -0.3170   -2.5110   -1.6060 O   0  0  0  0  0  0  0  0  0  0  0  0
   -1.6330    0.2550    0.4790 N   0  0  2  0  0  0  0  0  0  0  0  0
   -1.8160   -0.4330    1.7090 C   0  0  2  0  0  0  0  0  0  0  0  0
   -2.9490   -1.2760    1.7430 O   0  0  0  0  0  0  0  0  0  0  0  0
   -2.3050    0.7790    2.5400 C   0  0  0  0  0  0  0  0  0  0  0  0
   -3.3920    1.2570    1.5600 C   0  0  0  0  0  0  0  0  0  0  0  0
   -2.9090    0.7960    0.1760 C   0  0  2  0  0  0  0  0  0  0  0  0
   -3.8650   -0.0660   -0.5050 C   0  0  0  0  0  0  0  0  0  0  0  0
   -3.5350   -1.2350   -0.8180 O   0  0  0  0  0  0  0  0  0  0  0  0
   -5.1470    0.3360   -0.8340 O   0  0  0  0  0  0  0  0  0  0  0  0
  1  2  1  0
  2  3  1  0
  2  4  2  3
  4  5  1  0
  5  6  1  0
  6  7  1  0
  8  7  1  1
  8  9  1  0
 12  8  1  6
  9 10  2  0
  9 11  1  0
 12 13  1  0
 12 17  1  0
 13 14  1  6
 13 15  1  0
 15 16  1  0
 16 17  1  0
 17 18  1  1
 18 19  2  0
 18 20  1  0
M  CHG  2   4   1  12   1
M  END
