
     RDKit          3D

 10 11  0  0  0  0  0  0  0  0999 V2000
   -2.1510   -0.6780    0.0130 N   0  0  0  0  0  0  0  0  0  0  0  0
   -1.0210    0.1640   -0.0190 C   0  0  0  0  0  0  0  0  0  0  0  0
   -1.2120    1.5210   -0.0900 C   0  0  0  0  0  0  0  0  0  0  0  0
   -0.1250    2.3300   -0.1210 N   0  0  0  0  0  0  0  0  0  0  0  0
    1.1150    1.8760   -0.0860 N   0  0  0  0  0  0  0  0  0  0  0  0
    1.3640    0.5550   -0.0170 C   0  0  0  0  0  0  0  0  0  0  0  0
    2.5100   -0.2100    0.0330 C   0  0  0  0  0  0  0  0  0  0  0  0
    2.1020   -1.4840    0.0940 N   0  0  0  0  0  0  0  0  0  0  0  0
    0.7840   -1.5510    0.0850 N   0  0  0  0  0  0  0  0  0  0  0  0
    0.2740   -0.3000    0.0160 C   0  0  0  0  0  0  0  0  0  0  0  0
  1  2  1  0
  2  3  2  0
  2 10  1  0
  3  4  1  0
  4  5  2  0
  5  6  1  0
  6  7  1  0
  6 10  2  0
  7  8  2  0
  8  9  1  0
  9 10  1  0
M  END
