
     RDKit          3D

 22 23  0  0  0  0  0  0  0  0999 V2000
   -4.1000    3.7450    0.0340 C   0  0  0  0  0  0  0  0  0  0  0  0
   -4.2540    2.3950   -0.5170 C   0  0  0  0  0  0  0  0  0  0  0  0
   -3.2050    1.6030   -0.6640 C   0  0  0  0  0  0  0  0  0  0  0  0
   -1.9950    2.2550   -0.2230 C   0  0  0  0  0  0  0  0  0  0  0  0
   -0.7830    1.4730   -0.0730 C   0  0  0  0  0  0  0  0  0  0  0  0
   -0.2890    0.2480   -0.0500 C   0  0  0  0  0  0  0  0  0  0  0  0
    1.0410    0.7560    0.1710 C   0  0  0  0  0  0  0  0  0  0  0  0
    2.1300   -0.0880    0.3400 N   0  0  0  0  0  0  0  0  0  0  0  0
    3.2520    0.5940    0.9190 C   0  0  0  0  0  0  0  0  0  0  0  0
    3.8500    1.6200   -0.0220 C   0  0  0  0  0  0  0  0  0  0  0  0
    5.0190    2.3000    0.6490 C   0  0  0  0  0  0  0  0  0  0  0  0
    2.4170   -1.1400   -0.5210 C   0  0  0  0  0  0  0  0  0  0  0  0
    2.0130   -2.5000   -0.0970 C   0  0  0  0  0  0  0  0  0  0  0  0
    0.7830   -2.9740    0.1440 C   0  0  0  0  0  0  0  0  0  0  0  0
    0.7310   -4.3840    0.5520 C   0  0  0  0  0  0  0  0  0  0  0  0
   -0.5640   -2.4310    0.1090 N   0  0  0  0  0  0  0  0  0  0  0  0
   -1.6470   -3.2660    0.4070 C   0  0  0  0  0  0  0  0  0  0  0  0
   -0.9070   -1.0690   -0.1990 C   0  0  0  0  0  0  0  0  0  0  0  0
   -2.0630   -1.5460   -0.6660 C   0  0  0  0  0  0  0  0  0  0  0  0
   -3.2370   -0.9160   -1.2430 C   0  0  0  0  0  0  0  0  0  0  0  0
   -3.6710    0.3310   -1.2310 C   0  0  0  0  0  0  0  0  0  0  0  0
   -5.2010    0.4890   -2.1250 Cl  0  0  0  0  0  0  0  0  0  0  0  0
  1  2  1  0
  2  3  2  3
  3  4  1  0
  3 21  1  0
  4  5  1  0
  5  6  2  0
  6  7  1  0
  6 18  1  0
  7  8  1  0
  8  9  1  0
  8 12  1  0
  9 10  1  0
 10 11  1  0
 12 13  1  0
 13 14  2  0
 14 15  1  0
 14 16  1  0
 16 17  1  0
 16 18  1  0
 18 19  2  0
 19 20  1  0
 20 21  2  0
 21 22  1  0
M  END
