
     RDKit          3D

 22 24  0  0  0  0  0  0  0  0999 V2000
    5.9740   -2.6120   -0.5920 C   0  0  0  0  0  0  0  0  0  0  0  0
    4.6410   -1.8570   -0.6760 C   0  0  0  0  0  0  0  0  0  0  0  0
    4.5350   -1.0350    0.5740 C   0  0  0  0  0  0  0  0  0  0  0  0
    3.3110   -0.2400    0.6660 C   0  0  0  0  0  0  0  0  0  0  0  0
    2.1390   -0.6740    1.2360 C   0  0  0  0  0  0  0  0  0  0  0  0
    0.9970    0.0940    1.3110 C   0  0  0  0  0  0  0  0  0  0  0  0
    1.0100    1.3790    0.7870 C   0  0  0  0  0  0  0  0  0  0  0  0
   -0.1880    2.2520    0.8380 C   0  0  0  0  0  0  0  0  0  0  0  0
   -0.9790    2.1770   -0.3410 N   0  0  0  0  0  0  0  0  0  0  0  0
   -2.1380    2.9870   -0.3540 C   0  0  0  0  0  0  0  0  0  0  0  0
   -3.4440    2.2810   -0.4830 C   0  0  0  0  0  0  0  0  0  0  0  0
   -3.3460    0.8150   -0.4100 C   0  0  0  0  0  0  0  0  0  0  0  0
   -4.4540    0.1330   -0.0650 N   0  0  0  0  0  0  0  0  0  0  0  0
   -4.4190   -1.2070    0.0150 C   0  0  0  0  0  0  0  0  0  0  0  0
   -5.6420   -1.9910    0.3980 C   0  0  0  0  0  0  0  0  0  0  0  0
   -3.2560   -1.8940   -0.2530 C   0  0  0  0  0  0  0  0  0  0  0  0
   -2.1170   -1.2300   -0.6040 C   0  0  0  0  0  0  0  0  0  0  0  0
   -0.6050   -2.0260   -0.9610 Cl  0  0  0  0  0  0  0  0  0  0  0  0
   -2.1690    0.1540   -0.6830 C   0  0  0  0  0  0  0  0  0  0  0  0
   -1.0010    0.9710   -1.0530 C   0  0  0  0  0  0  0  0  0  0  0  0
    2.1850    1.8490    0.2010 C   0  0  0  0  0  0  0  0  0  0  0  0
    3.3130    1.0390    0.1480 C   0  0  0  0  0  0  0  0  0  0  0  0
  1  2  1  0
  2  3  1  0
  3  4  1  0
  4  5  2  0
  4 22  1  0
  5  6  1  0
  6  7  2  0
  7  8  1  0
  7 21  1  0
  8  9  1  0
  9 10  1  0
  9 20  1  0
 10 11  1  0
 11 12  1  0
 12 13  2  0
 12 19  1  0
 13 14  1  0
 14 15  1  0
 14 16  2  0
 16 17  1  0
 17 18  1  0
 17 19  2  0
 19 20  1  0
 21 22  2  0
M  CHG  1  13   1
M  END
