
     RDKit          3D

 28 29  0  0  0  0  0  0  0  0999 V2000
   -4.8820   -2.1050   -2.7930 C   0  0  0  0  0  0  0  0  0  0  0  0
   -4.6990   -0.9590   -1.8500 C   0  0  0  0  0  0  0  0  0  0  0  0
   -3.4000   -1.0080   -1.1490 N   0  0  0  0  0  0  0  0  0  0  0  0
   -3.3800   -1.7050    0.0870 C   0  0  0  0  0  0  0  0  0  0  0  0
   -2.3040   -0.3720   -1.7210 C   0  0  0  0  0  0  0  0  0  0  0  0
   -2.5520    0.2310   -2.8490 O   0  0  0  0  0  0  0  0  0  0  0  0
   -0.9370   -0.2760   -1.2650 C   0  0  2  0  0  0  0  0  0  0  0  0
   -0.1900   -1.5860   -1.3230 C   0  0  0  0  0  0  0  0  0  0  0  0
    1.2890   -1.1850   -1.4150 C   0  0  0  0  0  0  0  0  0  0  0  0
    1.5710   -0.4940   -0.1710 N   0  0  0  0  0  0  0  0  0  0  0  0
    2.8150   -0.8400    0.4870 C   0  0  0  0  0  0  0  0  0  0  0  0
    2.9320   -1.6340    1.4900 N   0  0  0  0  0  0  0  0  0  0  0  0
    4.5980   -1.7560    1.9480 S   0  0  2  0  0  0  0  0  0  0  0  0
    4.9500   -3.1780    2.1570 O   0  0  0  0  0  0  0  0  0  0  0  0
    4.9630   -0.8510    3.0550 O   0  0  0  0  0  0  0  0  0  0  0  0
    5.2480   -1.1440    0.3710 C   0  0  0  0  0  0  0  0  0  0  0  0
    4.0760   -0.2590    0.0280 C   0  0  0  0  0  0  0  0  0  0  0  0
    4.1920    0.8870   -0.6020 C   0  0  0  0  0  0  0  0  0  0  0  0
    5.4910    1.4020   -1.0320 C   0  0  0  0  0  0  0  0  0  0  0  0
    5.4600    1.6090   -2.8290 Cl  0  0  0  0  0  0  0  0  0  0  0  0
    0.7170    0.4890    0.4460 C   0  0  0  0  0  0  0  0  0  0  0  0
   -0.7330    0.3060    0.1140 C   0  0  1  0  0  0  0  0  0  0  0  0
   -1.6710    1.8020    0.2120 S   0  0  1  0  0  0  0  0  0  0  0  0
   -1.1090    2.8250   -0.7610 O   0  0  0  0  0  0  0  0  0  0  0  0
   -3.1020    1.5820   -0.1640 O   0  0  0  0  0  0  0  0  0  0  0  0
   -1.6470    2.5480    1.8080 C   0  0  1  0  0  0  0  0  0  0  0  0
   -2.3090    1.7030    2.8630 C   0  0  0  0  0  0  0  0  0  0  0  0
   -0.2870    3.0140    2.2450 C   0  0  0  0  0  0  0  0  0  0  0  0
  1  2  1  0
  2  3  1  0
  3  4  1  0
  3  5  1  0
  5  6  2  0
  7  5  1  1
  7  8  1  0
  7 22  1  0
  8  9  1  0
  9 10  1  0
 10 11  1  0
 10 21  1  0
 11 12  2  0
 11 17  1  0
 12 13  1  0
 13 14  2  0
 13 15  2  0
 13 16  1  6
 16 17  1  0
 17 18  2  3
 18 19  1  0
 19 20  1  0
 22 21  1  6
 22 23  1  0
 23 24  2  0
 23 25  2  0
 23 26  1  1
 26 27  1  1
 26 28  1  0
M  END
