
     RDKit          3D

 28 29  0  0  0  0  0  0  0  0999 V2000
   -8.2740   -1.0500   -0.5130 C   0  0  0  0  0  0  0  0  0  0  0  0
   -7.2500   -0.0630   -0.5950 O   0  0  0  0  0  0  0  0  0  0  0  0
   -5.8960   -0.3620   -0.4170 C   0  0  0  0  0  0  0  0  0  0  0  0
   -5.5790   -1.5480   -0.1770 O   0  0  0  0  0  0  0  0  0  0  0  0
   -4.8550    0.6960   -0.5070 C   0  0  0  0  0  0  0  0  0  0  0  0
   -3.9950    0.3670   -1.7090 C   0  0  2  0  0  0  0  0  0  0  0  0
   -3.2390   -1.2790   -1.4470 S   0  0  0  0  0  0  0  0  0  0  0  0
   -1.5600   -0.9910   -0.9720 C   0  0  0  0  0  0  0  0  0  0  0  0
   -0.6500   -1.8920   -1.1720 C   0  0  0  0  0  0  0  0  0  0  0  0
   -1.0380   -3.1860   -1.8120 C   0  0  0  0  0  0  0  0  0  0  0  0
   -0.6810   -4.5590   -0.7130 Cl  0  0  0  0  0  0  0  0  0  0  0  0
   -1.2030    0.2740   -0.3980 C   0  0  0  0  0  0  0  0  0  0  0  0
   -0.3480    0.4210    0.5570 C   0  0  0  0  0  0  0  0  0  0  0  0
    0.5190   -0.9210    1.3200 S   0  0  0  0  0  0  0  0  0  0  0  0
    2.3130   -0.8060    1.0080 C   0  0  0  0  0  0  0  0  0  0  0  0
    2.8660    0.4250    1.6010 C   0  0  0  0  0  0  0  0  0  0  0  0
    2.1140    1.2480    2.2140 O   0  0  0  0  0  0  0  0  0  0  0  0
    4.2330    0.7120    1.5010 N   0  0  0  0  0  0  0  0  0  0  0  0
    5.1270   -0.1880    0.8330 C   0  0  0  0  0  0  0  0  0  0  0  0
    6.4940   -0.2870    1.4680 C   0  0  0  0  0  0  0  0  0  0  0  0
    6.8530    0.8190    2.2130 O   0  0  0  0  0  0  0  0  0  0  0  0
    6.2480    1.9790    1.8010 C   0  0  0  0  0  0  0  0  0  0  0  0
    4.7530    1.9330    2.0710 C   0  0  1  0  0  0  0  0  0  0  0  0
    4.1390    3.1330    1.5230 C   0  0  0  0  0  0  0  0  0  0  0  0
    3.6550    4.1070    1.0980 N   0  0  0  0  0  0  0  0  0  0  0  0
   -1.8890    1.4510   -0.8960 N   0  0  0  0  0  0  0  0  0  0  0  0
   -2.8760    1.3340   -1.9080 C   0  0  0  0  0  0  0  0  0  0  0  0
   -2.7850    2.0550   -2.9590 O   0  0  0  0  0  0  0  0  0  0  0  0
  1  2  1  0
  2  3  1  0
  3  4  2  0
  3  5  1  0
  6  5  1  1
  6  7  1  0
  6 27  1  0
  7  8  1  0
  8  9  2  3
  8 12  1  0
  9 10  1  0
 10 11  1  0
 12 13  2  3
 12 26  1  0
 13 14  1  0
 14 15  1  0
 15 16  1  0
 16 17  2  0
 16 18  1  0
 18 19  1  0
 18 23  1  0
 19 20  1  0
 20 21  1  0
 21 22  1  0
 22 23  1  0
 23 24  1  6
 24 25  3  0
 26 27  1  0
 27 28  2  0
M  END
