
     RDKit          3D

 23 24  0  0  0  0  0  0  0  0999 V2000
   -0.0730   -1.5590    1.6310 C   0  0  0  0  0  0  0  0  0  0  0  0
   -1.3780   -1.0450    1.1340 C   0  0  1  0  0  0  0  0  0  0  0  0
   -2.4060   -2.1500    1.4170 C   0  0  0  0  0  0  0  0  0  0  0  0
   -1.7850    0.1300    1.9910 C   0  0  0  0  0  0  0  0  0  0  0  0
   -1.4280   -0.7200   -0.3530 C   0  0  0  0  0  0  0  0  0  0  0  0
   -0.4300    0.3180   -0.7200 C   0  0  0  0  0  0  0  0  0  0  0  0
    0.9110   -0.0870   -0.9160 C   0  0  0  0  0  0  0  0  0  0  0  0
    1.2350   -1.4620   -1.1680 C   0  0  0  0  0  0  0  0  0  0  0  0
    2.2890   -2.1760   -1.0190 C   0  0  0  0  0  0  0  0  0  0  0  0
    3.5640   -1.7900   -0.5030 C   0  0  0  0  0  0  0  0  0  0  0  0
    4.5710   -2.7010   -0.4450 C   0  0  0  0  0  0  0  0  0  0  0  0
    5.8940   -2.3570    0.0750 C   0  0  0  0  0  0  0  0  0  0  0  0
    5.8650   -0.9960    0.4570 O   0  0  0  0  0  0  0  0  0  0  0  0
    1.9120    0.8610   -1.0310 C   0  0  0  0  0  0  0  0  0  0  0  0
    1.5740    2.2000   -0.9510 C   0  0  0  0  0  0  0  0  0  0  0  0
    0.2810    2.5610   -0.7680 C   0  0  0  0  0  0  0  0  0  0  0  0
   -0.7930    1.6340   -0.6460 C   0  0  0  0  0  0  0  0  0  0  0  0
   -2.1230    2.2050   -0.6520 C   0  0  0  0  0  0  0  0  0  0  0  0
   -3.1720    1.7200   -1.2140 C   0  0  0  0  0  0  0  0  0  0  0  0
   -4.5240    2.3460   -1.1810 C   0  0  0  0  0  0  0  0  0  0  0  0
   -4.5610    3.5220   -0.4610 O   0  0  0  0  0  0  0  0  0  0  0  0
   -3.4750    4.0760    0.1530 C   0  0  0  0  0  0  0  0  0  0  0  0
   -2.3060    3.4780    0.0830 C   0  0  0  0  0  0  0  0  0  0  0  0
  2  1  1  1
  2  3  1  0
  2  4  1  0
  2  5  1  0
  5  6  1  0
  6  7  2  0
  6 17  1  0
  7  8  1  0
  7 14  1  0
  8  9  2  3
  9 10  1  0
 10 11  2  3
 11 12  1  0
 12 13  1  0
 14 15  2  0
 15 16  1  0
 16 17  2  0
 17 18  1  0
 18 19  2  0
 18 23  1  0
 19 20  1  0
 20 21  1  0
 21 22  1  0
 22 23  2  0
M  END
