
     RDKit          3D

 22 23  0  0  0  0  0  0  0  0999 V2000
    0.9270   -0.6260   -1.8580 C   0  0  0  0  0  0  0  0  0  0  0  0
    0.5020   -0.4320   -0.4710 C   0  0  0  0  0  0  0  0  0  0  0  0
    1.3550   -0.2330    0.4920 C   0  0  0  0  0  0  0  0  0  0  0  0
    2.7970   -0.1790    0.3330 C   0  0  0  0  0  0  0  0  0  0  0  0
    3.4420   -1.1120   -0.4060 C   0  0  0  0  0  0  0  0  0  0  0  0
    4.8280   -1.0120   -0.5450 C   0  0  0  0  0  0  0  0  0  0  0  0
    5.5120    0.0100    0.0570 C   0  0  0  0  0  0  0  0  0  0  0  0
    6.9850    0.1480   -0.0660 C   0  0  0  0  0  0  0  0  0  0  0  0
    4.8500    0.9650    0.8150 C   0  0  0  0  0  0  0  0  0  0  0  0
    3.4910    0.8680    0.9510 C   0  0  0  0  0  0  0  0  0  0  0  0
    2.6940    1.8350    1.7390 C   0  0  0  0  0  0  0  0  0  0  0  0
   -0.8510   -0.4510   -0.1070 O   0  0  0  0  0  0  0  0  0  0  0  0
   -1.8840   -0.2160   -1.0150 C   0  0  1  0  0  0  0  0  0  0  0  0
   -1.8770   -1.1440   -2.0240 O   0  0  0  0  0  0  0  0  0  0  0  0
   -3.1810   -0.1270   -0.3160 C   0  0  0  0  0  0  0  0  0  0  0  0
   -4.0720    0.9020   -0.6560 C   0  0  0  0  0  0  0  0  0  0  0  0
   -5.2940    1.0350   -0.0420 C   0  0  0  0  0  0  0  0  0  0  0  0
   -6.2430    2.1360   -0.4110 C   0  0  0  0  0  0  0  0  0  0  0  0
   -5.6200    0.1120    0.9310 C   0  0  0  0  0  0  0  0  0  0  0  0
   -4.7520   -0.9030    1.2730 C   0  0  0  0  0  0  0  0  0  0  0  0
   -3.5030   -1.0420    0.6490 C   0  0  0  0  0  0  0  0  0  0  0  0
   -2.6150   -2.1490    1.0550 C   0  0  0  0  0  0  0  0  0  0  0  0
  1  2  1  0
  2  3  2  3
  2 12  1  0
  3  4  1  0
  4  5  2  0
  4 10  1  0
  5  6  1  0
  6  7  2  0
  7  8  1  0
  7  9  1  0
  9 10  2  0
 10 11  1  0
 12 13  1  0
 13 14  1  6
 13 15  1  0
 15 16  2  0
 15 21  1  0
 16 17  1  0
 17 18  1  0
 17 19  2  0
 19 20  1  0
 20 21  2  0
 21 22  1  0
M  END
