
     RDKit          3D

 23 24  0  0  0  0  0  0  0  0999 V2000
    4.4740    2.9620    1.3330 C   0  0  0  0  0  0  0  0  0  0  0  0
    3.4790    1.8050    1.2820 C   0  0  0  0  0  0  0  0  0  0  0  0
    3.5250    1.2700   -0.1250 C   0  0  0  0  0  0  0  0  0  0  0  0
    2.5870    0.1200   -0.3390 C   0  0  0  0  0  0  0  0  0  0  0  0
    1.4000    0.3180   -1.0090 C   0  0  0  0  0  0  0  0  0  0  0  0
    0.4620   -0.6890   -1.2560 C   0  0  0  0  0  0  0  0  0  0  0  0
   -0.7960   -0.3770   -1.9980 C   0  0  1  0  0  0  0  0  0  0  0  0
   -1.1390   -1.3490   -2.9200 O   0  0  0  0  0  0  0  0  0  0  0  0
   -1.9020    0.0570   -1.1220 C   0  0  0  0  0  0  0  0  0  0  0  0
   -2.1810    1.4210   -0.9490 C   0  0  0  0  0  0  0  0  0  0  0  0
   -3.1860    1.8910   -0.1380 C   0  0  0  0  0  0  0  0  0  0  0  0
   -3.4230    3.3470    0.0000 C   0  0  0  0  0  0  0  0  0  0  0  0
   -3.9830    1.0170    0.5580 C   0  0  0  0  0  0  0  0  0  0  0  0
   -5.0830    1.4570    1.4510 C   0  0  0  0  0  0  0  0  0  0  0  0
   -3.7320   -0.3310    0.4070 C   0  0  0  0  0  0  0  0  0  0  0  0
   -2.7110   -0.8090   -0.4170 C   0  0  0  0  0  0  0  0  0  0  0  0
   -2.5040   -2.1640   -0.5330 O   0  0  0  0  0  0  0  0  0  0  0  0
   -3.2590   -3.1520    0.1320 C   0  0  0  0  0  0  0  0  0  0  0  0
    0.7960   -1.9360   -0.7800 C   0  0  0  0  0  0  0  0  0  0  0  0
    1.9740   -2.1920   -0.1020 C   0  0  0  0  0  0  0  0  0  0  0  0
    2.3020   -3.5440    0.3970 C   0  0  0  0  0  0  0  0  0  0  0  0
    2.8600   -1.1510    0.1110 C   0  0  0  0  0  0  0  0  0  0  0  0
    4.1390   -1.4100    0.8430 C   0  0  0  0  0  0  0  0  0  0  0  0
  1  2  1  0
  2  3  1  0
  3  4  1  0
  4  5  2  0
  4 22  1  0
  5  6  1  0
  6  7  1  0
  6 19  2  0
  7  8  1  1
  7  9  1  0
  9 10  2  0
  9 16  1  0
 10 11  1  0
 11 12  1  0
 11 13  2  0
 13 14  1  0
 13 15  1  0
 15 16  2  0
 16 17  1  0
 17 18  1  0
 19 20  1  0
 20 21  1  0
 20 22  2  0
 22 23  1  0
M  END
