
     RDKit          3D

 23 24  0  0  0  0  0  0  0  0999 V2000
    5.4960    2.3220    1.3290 C   0  0  0  0  0  0  0  0  0  0  0  0
    4.2550    1.9080    1.3740 C   0  0  0  0  0  0  0  0  0  0  0  0
    3.3280    2.4870    2.3540 C   0  0  0  0  0  0  0  0  0  0  0  0
    3.7980    0.8790    0.4550 C   0  0  0  0  0  0  0  0  0  0  0  0
    2.5570    0.4270    0.4580 C   0  0  0  0  0  0  0  0  0  0  0  0
    2.1920   -0.6230   -0.5200 C   0  0  0  0  0  0  0  0  0  0  0  0
    0.9440   -1.1100   -0.5380 C   0  0  0  0  0  0  0  0  0  0  0  0
    0.0030   -0.5360    0.4640 C   0  0  0  0  0  0  0  0  0  0  0  0
   -0.7910    0.6140    0.0280 C   0  0  0  0  0  0  0  0  0  0  0  0
   -1.8690    0.6220   -0.9340 C   0  0  0  0  0  0  0  0  0  0  0  0
   -3.1980    0.0710   -0.6580 C   0  0  1  0  0  0  0  0  0  0  0  0
   -3.4340   -1.3360   -0.2970 C   0  0  0  0  0  0  0  0  0  0  0  0
   -4.8150   -1.2150    0.1830 O   0  0  0  0  0  0  0  0  0  0  0  0
   -4.8360   -0.0230    0.9030 C   0  0  0  0  0  0  0  0  0  0  0  0
   -5.7920    0.2220    1.9900 C   0  0  0  0  0  0  0  0  0  0  0  0
   -5.7650    1.3030    2.5990 O   0  0  0  0  0  0  0  0  0  0  0  0
   -3.8990    0.7950    0.4590 C   0  0  0  0  0  0  0  0  0  0  0  0
   -3.6490    2.1350    0.9970 C   0  0  0  0  0  0  0  0  0  0  0  0
    0.6360   -2.1510   -1.4770 C   0  0  0  0  0  0  0  0  0  0  0  0
   -0.7380   -2.7810   -1.5300 C   0  0  0  0  0  0  0  0  0  0  0  0
    1.5520   -2.6160   -2.3030 C   0  0  0  0  0  0  0  0  0  0  0  0
    2.9300   -2.1420   -2.3510 C   0  0  0  0  0  0  0  0  0  0  0  0
    3.2580   -1.0620   -1.4360 C   0  0  0  0  0  0  0  0  0  0  0  0
  1  2  2  0
  2  3  1  0
  2  4  1  0
  4  5  2  3
  5  6  1  0
  6  7  2  0
  6 23  1  0
  7  8  1  0
  7 19  1  0
  8  9  1  0
  9 10  1  0
 11 10  1  1
 11 12  1  0
 11 17  1  0
 12 13  1  0
 13 14  1  0
 14 15  1  0
 14 17  2  0
 15 16  2  0
 17 18  1  0
 19 20  1  0
 19 21  2  0
 21 22  1  0
 22 23  1  0
M  END
