
     RDKit          3D

 11 11  0  0  0  0  0  0  0  0999 V2000
    4.5360   -1.1550    0.3120 O   0  0  0  0  0  0  0  0  0  0  0  0
    3.6540   -0.5550   -0.5630 C   0  0  0  0  0  0  0  0  0  0  0  0
    2.4360    0.0010    0.1490 C   0  0  0  0  0  0  0  0  0  0  0  0
    1.4890    0.6520   -0.8340 C   0  0  0  0  0  0  0  0  0  0  0  0
    0.2710    1.2140   -0.1630 C   0  0  0  0  0  0  0  0  0  0  0  0
   -0.5360    0.1920    0.5610 C   0  0  1  0  0  0  0  0  0  0  0  0
   -1.7350    0.8610    1.1980 C   0  0  0  0  0  0  0  0  0  0  0  0
   -2.7900   -0.2310    1.3230 C   0  0  0  0  0  0  0  0  0  0  0  0
   -3.2680   -0.4870   -0.1020 C   0  0  0  0  0  0  0  0  0  0  0  0
   -2.0390   -0.6820   -0.9650 C   0  0  0  0  0  0  0  0  0  0  0  0
   -0.8930   -0.8940   -0.2130 O   0  0  0  0  0  0  0  0  0  0  0  0
  1  2  1  0
  2  3  1  0
  3  4  1  0
  4  5  1  0
  6  5  1  6
  6  7  1  0
  6 11  1  0
  7  8  1  0
  8  9  1  0
  9 10  1  0
 10 11  1  0
M  END
