
     RDKit          3D

 11 11  0  0  0  0  0  0  0  0999 V2000
   -3.3320    1.0400   -0.3480 C   0  0  0  0  0  0  0  0  0  0  0  0
   -2.0390    0.5270    0.2490 C   0  0  1  0  0  0  0  0  0  0  0  0
   -2.2050   -0.9680    0.5480 C   0  0  0  0  0  0  0  0  0  0  0  0
   -0.9090    0.6300   -0.7490 C   0  0  0  0  0  0  0  0  0  0  0  0
    0.3640    0.1360   -0.1750 C   0  0  0  0  0  0  0  0  0  0  0  0
    0.6080   -0.3570    1.0830 C   0  0  0  0  0  0  0  0  0  0  0  0
    1.9680   -0.6710    1.0760 C   0  0  0  0  0  0  0  0  0  0  0  0
    2.4610   -0.3530   -0.1710 C   0  0  0  0  0  0  0  0  0  0  0  0
    3.8980   -0.5440   -0.5820 C   0  0  0  0  0  0  0  0  0  0  0  0
    4.6290    0.6070   -0.2890 O   0  0  0  0  0  0  0  0  0  0  0  0
    1.4870    0.1180   -0.8770 O   0  0  0  0  0  0  0  0  0  0  0  0
  2  1  1  6
  2  3  1  0
  2  4  1  0
  4  5  1  0
  5  6  2  0
  5 11  1  0
  6  7  1  0
  7  8  2  0
  8  9  1  0
  8 11  1  0
  9 10  1  0
M  END
