
     RDKit          3D

 10 10  0  0  0  0  0  0  0  0999 V2000
    3.5550    1.0830   -0.0720 C   0  0  0  0  0  0  0  0  0  0  0  0
    3.3750   -0.1640    0.7450 C   0  0  0  0  0  0  0  0  0  0  0  0
    2.3280   -0.9420    0.5310 C   0  0  0  0  0  0  0  0  0  0  0  0
    1.3230   -0.5960   -0.5110 C   0  0  0  0  0  0  0  0  0  0  0  0
    0.1020   -0.4520    0.1330 O   0  0  0  0  0  0  0  0  0  0  0  0
   -0.9340   -0.1270   -0.7240 C   0  0  2  0  0  0  0  0  0  0  0  0
   -1.6340    1.1510   -0.3510 C   0  0  0  0  0  0  0  0  0  0  0  0
   -2.5060    0.6630    0.8140 C   0  0  0  0  0  0  0  0  0  0  0  0
   -3.1660   -0.5250    0.1430 C   0  0  0  0  0  0  0  0  0  0  0  0
   -2.0060   -1.1840   -0.5650 C   0  0  0  0  0  0  0  0  0  0  0  0
  1  2  1  0
  2  3  2  3
  3  4  1  0
  4  5  1  0
  6  5  1  1
  6  7  1  0
  6 10  1  0
  7  8  1  0
  8  9  1  0
  9 10  1  0
M  END
