
     RDKit          3D

 23 24  0  0  0  0  0  0  0  0999 V2000
   -0.0870    2.9470    2.3330 C   0  0  0  0  0  0  0  0  0  0  0  0
    0.4740    1.8910    1.4320 C   0  0  0  0  0  0  0  0  0  0  0  0
    1.7850    1.7840    1.3250 C   0  0  0  0  0  0  0  0  0  0  0  0
    2.5000    0.8440    0.5200 C   0  0  0  0  0  0  0  0  0  0  0  0
    3.8270    0.8080    0.4720 C   0  0  0  0  0  0  0  0  0  0  0  0
    4.6400   -0.0960   -0.3040 C   0  0  0  0  0  0  0  0  0  0  0  0
    4.0910   -1.1410   -1.1880 C   0  0  0  0  0  0  0  0  0  0  0  0
    5.9810   -0.0080   -0.2440 C   0  0  0  0  0  0  0  0  0  0  0  0
    6.9000   -0.8410   -0.9610 C   0  0  0  0  0  0  0  0  0  0  0  0
    8.1410   -0.6590   -0.8220 O   0  0  0  0  0  0  0  0  0  0  0  0
    6.5000   -1.8490   -1.8080 O   0  0  0  0  0  0  0  0  0  0  0  0
   -0.3090    0.9730    0.6500 C   0  0  0  0  0  0  0  0  0  0  0  0
   -1.6170    0.8310    0.5550 C   0  0  0  0  0  0  0  0  0  0  0  0
   -2.5350    1.6630    1.3030 C   0  0  0  0  0  0  0  0  0  0  0  0
   -3.9440    1.1260    1.4540 C   0  0  0  0  0  0  0  0  0  0  0  0
   -4.0710   -0.3560    1.2230 C   0  0  0  0  0  0  0  0  0  0  0  0
   -3.3790   -0.7770    0.0050 C   0  0  0  0  0  0  0  0  0  0  0  0
   -3.9110   -1.7360   -0.8100 C   0  0  0  0  0  0  0  0  0  0  0  0
   -5.1960   -2.4200   -0.5170 C   0  0  0  0  0  0  0  0  0  0  0  0
   -3.2390   -2.1180   -1.9850 C   0  0  0  0  0  0  0  0  0  0  0  0
   -2.0490   -1.5290   -2.3180 C   0  0  0  0  0  0  0  0  0  0  0  0
   -1.5010   -0.5570   -1.5010 C   0  0  0  0  0  0  0  0  0  0  0  0
   -2.1780   -0.2000   -0.3550 C   0  0  0  0  0  0  0  0  0  0  0  0
  1  2  1  0
  2  3  2  3
  2 12  1  0
  3  4  1  0
  4  5  2  3
  5  6  1  0
  6  7  1  0
  6  8  2  3
  8  9  1  0
  9 10  2  0
  9 11  1  0
 12 13  2  3
 13 14  1  0
 13 23  1  0
 14 15  1  0
 15 16  1  0
 16 17  1  0
 17 18  2  0
 17 23  1  0
 18 19  1  0
 18 20  1  0
 20 21  2  0
 21 22  1  0
 22 23  2  0
M  END
