
     RDKit          3D

 11 11  0  0  0  0  0  0  0  0999 V2000
    2.3750   -0.6030    1.0330 C   0  0  0  0  0  0  0  0  0  0  0  0
    2.0810   -0.1260   -0.3700 C   0  0  2  0  0  0  0  0  0  0  0  0
    2.4540    1.3320   -0.4250 C   0  0  0  0  0  0  0  0  0  0  0  0
    0.7600   -0.4660   -0.9010 C   0  0  0  0  0  0  0  0  0  0  0  0
   -0.4570    0.0210   -0.2090 C   0  0  2  0  0  0  0  0  0  0  0  0
   -0.5160    1.4150   -0.1400 O   0  0  0  0  0  0  0  0  0  0  0  0
   -0.7880   -0.6460    1.0890 C   0  0  0  0  0  0  0  0  0  0  0  0
   -2.1360   -0.0780    1.5570 C   0  0  0  0  0  0  0  0  0  0  0  0
   -3.1250   -0.4800    0.6950 O   0  0  0  0  0  0  0  0  0  0  0  0
   -2.9420   -0.0180   -0.6030 C   0  0  0  0  0  0  0  0  0  0  0  0
   -1.6100   -0.3530   -1.1670 C   0  0  0  0  0  0  0  0  0  0  0  0
  2  1  1  1
  2  3  1  0
  2  4  1  0
  4  5  1  0
  5  6  1  1
  5  7  1  0
  5 11  1  0
  7  8  1  0
  8  9  1  0
  9 10  1  0
 10 11  1  0
M  END
