
     RDKit          3D

 15 16  0  0  0  0  0  0  0  0999 V2000
   -0.0360   -1.7140   -2.4260 O   0  0  0  0  0  0  0  0  0  0  0  0
   -0.5620   -1.6860   -1.2990 C   0  0  0  0  0  0  0  0  0  0  0  0
   -1.8070   -2.1380   -0.8520 O   0  0  0  0  0  0  0  0  0  0  0  0
   -2.0130   -1.6940    0.5040 C   0  0  0  0  0  0  0  0  0  0  0  0
   -1.1020   -0.4780    0.5670 C   0  0  2  0  0  0  0  0  0  0  0  0
   -1.7430    0.6210   -0.1690 C   0  0  0  0  0  0  0  0  0  0  0  0
   -3.0730    0.9890    0.4310 C   0  0  0  0  0  0  0  0  0  0  0  0
   -2.9380    1.3820    1.7730 O   0  0  0  0  0  0  0  0  0  0  0  0
    0.0790   -1.1170   -0.0830 C   0  0  1  0  0  0  0  0  0  0  0  0
    0.2940   -2.2860    0.7180 O   0  0  0  0  0  0  0  0  0  0  0  0
    1.3440   -0.4950   -0.2230 C   0  0  1  0  0  0  0  0  0  0  0  0
    1.6490    0.6520   -1.0780 C   0  0  0  0  0  0  0  0  0  0  0  0
    3.1170    0.9710   -0.7300 C   0  0  0  0  0  0  0  0  0  0  0  0
    3.1270    1.3600    0.7230 C   0  0  0  0  0  0  0  0  0  0  0  0
    1.9080    0.1660    1.4060 S   0  0  0  0  0  0  0  0  0  0  0  0
  1  2  2  0
  2  3  1  0
  2  9  1  0
  3  4  1  0
  4  5  1  0
  5  6  1  6
  5  9  1  0
  6  7  1  0
  7  8  1  0
  9 10  1  1
  9 11  1  0
 11 12  1  6
 11 15  1  0
 12 13  1  0
 13 14  1  0
 14 15  1  0
M  END
