
     RDKit          3D

 12 11  0  0  0  0  0  0  0  0999 V2000
   -2.1440   -2.2720    0.8720 N   0  0  0  0  0  0  0  0  0  0  0  0
   -2.5660   -1.0110    0.6230 O   0  0  0  0  0  0  0  0  0  0  0  0
   -1.7170   -0.0510   -0.0170 C   0  0  0  0  0  0  0  0  0  0  0  0
   -0.4580   -0.3330   -0.0750 C   0  0  0  0  0  0  0  0  0  0  0  0
    0.6340    0.4070   -0.6400 C   0  0  0  0  0  0  0  0  0  0  0  0
    0.5260    1.6270   -1.2610 O   0  0  0  0  0  0  0  0  0  0  0  0
    1.8540   -0.1030   -0.5710 C   0  0  0  0  0  0  0  0  0  0  0  0
    2.0280   -1.3640    0.0620 N   0  0  0  0  0  0  0  0  0  0  0  0
    2.9480    0.5890   -1.1110 N   0  0  0  0  0  0  0  0  0  0  0  0
    3.8430    1.0530   -0.3640 N   0  0  0  0  0  0  0  0  0  0  0  0
   -2.3200    1.1760   -0.5590 C   0  0  0  0  0  0  0  0  0  0  0  0
   -3.2780    0.8240   -1.5430 O   0  0  0  0  0  0  0  0  0  0  0  0
  1  2  1  0
  2  3  1  0
  3  4  2  3
  3 11  1  0
  4  5  1  0
  5  6  1  0
  5  7  2  3
  7  8  1  0
  7  9  1  0
  9 10  2  0
 11 12  1  0
M  CHG  1  10   1
M  END
