
     RDKit          3D

 14 14  0  0  0  0  0  0  0  0999 V2000
   -2.2330   -0.6090   -1.0680 C   0  0  0  0  0  0  0  0  0  0  0  0
   -1.9200    0.1380    0.1850 C   0  0  2  0  0  0  0  0  0  0  0  0
   -2.9040    1.2220    0.4820 C   0  0  0  0  0  0  0  0  0  0  0  0
   -4.5830    0.6240    0.6880 S   0  0  0  0  0  0  0  0  0  0  0  0
   -0.5460    0.7030    0.2100 C   0  0  0  0  0  0  0  0  0  0  0  0
   -0.4200    1.9490    0.3150 O   0  0  0  0  0  0  0  0  0  0  0  0
    0.6140   -0.0980    0.1220 N   0  0  0  0  0  0  0  0  0  0  0  0
    0.5970   -1.5650    0.0060 C   0  0  0  0  0  0  0  0  0  0  0  0
    2.0030   -1.9510    0.5110 C   0  0  0  0  0  0  0  0  0  0  0  0
    2.7910   -0.8530   -0.1610 C   0  0  0  0  0  0  0  0  0  0  0  0
    1.9690    0.3730    0.1360 C   0  0  1  0  0  0  0  0  0  0  0  0
    2.2290    1.4460   -0.8500 C   0  0  0  0  0  0  0  0  0  0  0  0
    1.3200    1.8080   -1.6150 O   0  0  0  0  0  0  0  0  0  0  0  0
    3.4880    2.0140   -0.8880 O   0  0  0  0  0  0  0  0  0  0  0  0
  2  1  1  6
  2  3  1  0
  2  5  1  0
  3  4  1  0
  5  6  2  0
  5  7  1  0
  7  8  1  0
  7 11  1  0
  8  9  1  0
  9 10  1  0
 10 11  1  0
 11 12  1  6
 12 13  2  0
 12 14  1  0
M  END
