
     RDKit          3D

 12 11  0  0  0  0  0  0  0  0999 V2000
   -2.0600   -1.6210    0.8120 N   0  0  0  0  0  0  0  0  0  0  0  0
   -1.5610   -0.9990   -0.3050 O   0  0  0  0  0  0  0  0  0  0  0  0
   -1.4690    0.3930   -0.4040 C   0  0  0  0  0  0  0  0  0  0  0  0
   -0.2640    0.9230   -0.3820 C   0  0  0  0  0  0  0  0  0  0  0  0
    0.9270    0.1100   -0.2590 C   0  0  0  0  0  0  0  0  0  0  0  0
    0.7610   -1.2930   -0.1630 N   0  0  0  0  0  0  0  0  0  0  0  0
    2.1410    0.6010   -0.2330 C   0  0  0  0  0  0  0  0  0  0  0  0
    3.2230   -0.2280   -0.1160 O   0  0  0  0  0  0  0  0  0  0  0  0
    4.3460    0.0510    0.6140 N   0  0  0  0  0  0  0  0  0  0  0  0
   -2.6710    1.2150   -0.5280 C   0  0  0  0  0  0  0  0  0  0  0  0
   -3.9690    0.6430   -0.5520 N   0  0  0  0  0  0  0  0  0  0  0  0
   -2.5160    2.4570   -0.6120 O   0  0  0  0  0  0  0  0  0  0  0  0
  1  2  1  0
  2  3  1  0
  3  4  2  3
  3 10  1  0
  4  5  1  0
  5  6  1  0
  5  7  2  3
  7  8  1  0
  8  9  1  0
 10 11  1  0
 10 12  2  0
M  CHG  1   9   1
M  END
