
     RDKit          3D

 24 24  0  0  0  0  0  0  0  0999 V2000
   -2.8840   -4.0710    0.7210 C   0  0  0  0  0  0  0  0  0  0  0  0
   -2.9150   -2.7820    0.3040 C   0  0  0  0  0  0  0  0  0  0  0  0
   -3.8150   -2.3400   -0.6860 C   0  0  0  0  0  0  0  0  0  0  0  0
   -4.0110   -1.1690   -1.2730 C   0  0  0  0  0  0  0  0  0  0  0  0
   -5.1500   -1.2840   -2.2420 C   0  0  0  0  0  0  0  0  0  0  0  0
   -5.8140   -0.6940   -3.0800 C   0  0  0  0  0  0  0  0  0  0  0  0
   -5.9640    0.5850   -3.7540 C   0  0  0  0  0  0  0  0  0  0  0  0
   -3.0800   -0.0910   -1.2960 C   0  0  0  0  0  0  0  0  0  0  0  0
   -3.6190    1.1260   -1.7170 C   0  0  0  0  0  0  0  0  0  0  0  0
   -1.6830   -0.0410   -1.1000 C   0  0  0  0  0  0  0  0  0  0  0  0
   -0.6930   -0.7620   -0.8020 C   0  0  0  0  0  0  0  0  0  0  0  0
    0.6870   -0.1360   -0.7200 C   0  0  0  0  0  0  0  0  0  0  0  0
    0.7600    1.0700   -0.9550 O   0  0  0  0  0  0  0  0  0  0  0  0
    1.8220   -0.8860   -0.3950 N   0  0  0  0  0  0  0  0  0  0  0  0
    3.1460   -0.3040   -0.2960 C   0  0  0  0  0  0  0  0  0  0  0  0
    3.2740    0.6510    0.8080 C   0  0  0  0  0  0  0  0  0  0  0  0
    2.2290    0.8770    1.6720 C   0  0  0  0  0  0  0  0  0  0  0  0
    2.3080    1.7530    2.7480 C   0  0  0  0  0  0  0  0  0  0  0  0
    1.1430    1.9600    3.6570 C   0  0  0  0  0  0  0  0  0  0  0  0
    3.5000    2.4140    2.9340 C   0  0  0  0  0  0  0  0  0  0  0  0
    4.5610    2.1820    2.0550 C   0  0  0  0  0  0  0  0  0  0  0  0
    5.8390    2.9160    2.2800 C   0  0  0  0  0  0  0  0  0  0  0  0
    4.4780    1.3120    0.9900 C   0  0  0  0  0  0  0  0  0  0  0  0
    5.6530    1.1150    0.0910 C   0  0  0  0  0  0  0  0  0  0  0  0
  1  2  2  0
  2  3  1  0
  3  4  2  3
  4  5  1  0
  4  8  1  0
  5  6  2  3
  6  7  1  0
  8  9  2  0
  8 10  1  0
 10 11  2  3
 11 12  1  0
 12 13  2  0
 12 14  1  0
 14 15  1  0
 15 16  1  0
 16 17  2  0
 16 23  1  0
 17 18  1  0
 18 19  1  0
 18 20  2  0
 20 21  1  0
 21 22  1  0
 21 23  2  0
 23 24  1  0
M  END
