
     RDKit          3D

 24 24  0  0  0  0  0  0  0  0999 V2000
    5.4860   -0.9360    0.9720 C   0  0  0  0  0  0  0  0  0  0  0  0
    4.8740   -0.0640    1.7130 C   0  0  0  0  0  0  0  0  0  0  0  0
    3.5300    0.3920    1.8280 C   0  0  0  0  0  0  0  0  0  0  0  0
    3.3850    1.4310    2.7500 C   0  0  0  0  0  0  0  0  0  0  0  0
    4.5410    1.9510    3.4890 C   0  0  0  0  0  0  0  0  0  0  0  0
    2.3500    0.1360    1.0790 C   0  0  0  0  0  0  0  0  0  0  0  0
    1.9150   -0.7390    0.2310 C   0  0  0  0  0  0  0  0  0  0  0  0
    0.5340   -0.4930   -0.3210 C   0  0  0  0  0  0  0  0  0  0  0  0
    0.0040   -1.2790   -1.1160 O   0  0  0  0  0  0  0  0  0  0  0  0
   -0.2460    0.6410    0.0230 N   0  0  0  0  0  0  0  0  0  0  0  0
   -1.5620    0.8980   -0.4840 C   0  0  0  0  0  0  0  0  0  0  0  0
   -2.2690    0.1230   -1.3470 C   0  0  0  0  0  0  0  0  0  0  0  0
   -3.5640    0.5000   -1.7630 C   0  0  0  0  0  0  0  0  0  0  0  0
   -4.2860   -0.4050   -2.7130 C   0  0  0  0  0  0  0  0  0  0  0  0
   -5.3490   -1.2160   -2.0010 C   0  0  0  0  0  0  0  0  0  0  0  0
   -4.1700    1.6480   -1.3280 C   0  0  0  0  0  0  0  0  0  0  0  0
   -5.5330    2.0010   -1.7960 C   0  0  0  0  0  0  0  0  0  0  0  0
   -3.4590    2.4330   -0.4570 C   0  0  0  0  0  0  0  0  0  0  0  0
   -2.1950    2.0680   -0.0480 C   0  0  0  0  0  0  0  0  0  0  0  0
   -1.4600    2.9520    0.8990 C   0  0  0  0  0  0  0  0  0  0  0  0
    2.3380   -2.1040    0.1570 C   0  0  0  0  0  0  0  0  0  0  0  0
    2.8810   -2.6410    1.5340 C   0  0  0  0  0  0  0  0  0  0  0  0
    2.1440   -3.0340   -0.7040 C   0  0  0  0  0  0  0  0  0  0  0  0
    1.4790   -3.2580   -1.9650 C   0  0  0  0  0  0  0  0  0  0  0  0
  1  2  2  0
  2  3  1  0
  3  4  2  3
  3  6  1  0
  4  5  1  0
  6  7  2  3
  7  8  1  0
  7 21  1  0
  8  9  2  0
  8 10  1  0
 10 11  1  0
 11 12  2  0
 11 19  1  0
 12 13  1  0
 13 14  1  0
 13 16  2  0
 14 15  1  0
 16 17  1  0
 16 18  1  0
 18 19  2  0
 19 20  1  0
 21 22  1  0
 21 23  2  3
 23 24  1  0
M  END
