
     RDKit          3D

 25 29  0  0  0  0  0  0  0  0999 V2000
    4.3140    1.5380   -0.3460 C   0  0  0  0  0  0  0  0  0  0  0  0
    3.2080    0.8520   -0.3080 C   0  0  0  0  0  0  0  0  0  0  0  0
    1.8540    1.2940   -0.6860 C   0  0  0  0  0  0  0  0  0  0  0  0
    0.9230    0.3290   -0.0370 C   0  0  2  0  0  0  0  0  0  0  0  0
    1.7920   -0.4550    0.9630 C   0  0  0  0  0  0  0  0  0  0  0  0
    3.0770   -0.5490    0.1360 C   0  0  2  0  0  0  0  0  0  0  0  0
    4.1280   -0.9770    0.9340 O   0  0  0  0  0  0  0  0  0  0  0  0
    2.7950   -1.4880   -1.0130 C   0  0  0  0  0  0  0  0  0  0  0  0
    1.3420   -1.8680   -1.1030 C   0  0  0  0  0  0  0  0  0  0  0  0
    0.4270   -0.6920   -1.0290 C   0  0  1  0  0  0  0  0  0  0  0  0
   -0.9300   -1.0300   -0.4850 C   0  0  1  0  0  0  0  0  0  0  0  0
   -1.8730   -1.6060   -1.4420 C   0  0  0  0  0  0  0  0  0  0  0  0
   -3.1760   -1.3360   -1.2210 C   0  0  0  0  0  0  0  0  0  0  0  0
   -3.6530   -0.7400    0.0580 C   0  0  2  0  0  0  0  0  0  0  0  0
   -4.6690    0.1750   -0.1440 O   0  0  0  0  0  0  0  0  0  0  0  0
   -2.5700   -0.0950    0.8640 C   0  0  1  0  0  0  0  0  0  0  0  0
   -3.0270    1.0090    1.7520 C   0  0  0  0  0  0  0  0  0  0  0  0
   -1.8700   -1.1950    1.6180 C   0  0  0  0  0  0  0  0  0  0  0  0
   -2.1630   -1.5310    2.7850 O   0  0  0  0  0  0  0  0  0  0  0  0
   -0.8990   -1.6960    0.7540 O   0  0  0  0  0  0  0  0  0  0  0  0
   -1.4620    0.3280   -0.0810 C   0  0  1  0  0  0  0  0  0  0  0  0
   -0.2710    0.9270    0.6410 C   0  0  2  0  0  0  0  0  0  0  0  0
   -0.3190    2.3920    0.6690 C   0  0  0  0  0  0  0  0  0  0  0  0
   -0.2370    2.9900    1.7940 O   0  0  0  0  0  0  0  0  0  0  0  0
   -0.4490    3.2210   -0.4240 O   0  0  0  0  0  0  0  0  0  0  0  0
  1  2  2  0
  2  3  1  0
  2  6  1  0
  4  3  1  6
  4  5  1  0
  4 10  1  0
  4 22  1  0
  5  6  1  0
  6  7  1  1
  6  8  1  0
  8  9  1  0
 10  9  1  1
 10 11  1  0
 11 12  1  0
 11 20  1  1
 11 21  1  0
 12 13  2  0
 13 14  1  0
 14 15  1  6
 14 16  1  0
 16 17  1  1
 16 18  1  0
 16 21  1  0
 18 19  2  0
 18 20  1  0
 21 22  1  1
 22 23  1  6
 23 24  2  0
 23 25  1  0
M  END
