
     RDKit          3D

 24 24  0  0  0  0  0  0  0  0999 V2000
   -4.0020   -0.9880   -1.6580 C   0  0  0  0  0  0  0  0  0  0  0  0
   -3.7250   -0.8880   -0.3890 C   0  0  0  0  0  0  0  0  0  0  0  0
   -3.9710   -2.0980    0.4620 C   0  0  0  0  0  0  0  0  0  0  0  0
   -2.8700   -2.1670    1.4850 C   0  0  0  0  0  0  0  0  0  0  0  0
   -2.4830   -0.9160    2.1400 C   0  0  0  0  0  0  0  0  0  0  0  0
   -2.0310    0.2190    1.1730 C   0  0  1  0  0  0  0  0  0  0  0  0
   -1.8490    1.3360    2.1220 C   0  0  0  0  0  0  0  0  0  0  0  0
   -1.4070    2.6510    1.7560 C   0  0  0  0  0  0  0  0  0  0  0  0
   -0.7960   -0.3140    0.5460 C   0  0  0  0  0  0  0  0  0  0  0  0
   -0.2290   -1.3540    0.9510 O   0  0  0  0  0  0  0  0  0  0  0  0
   -0.2250    0.3520   -0.5370 N   0  0  0  0  0  0  0  0  0  0  0  0
    0.9380    0.0950   -1.3080 C   0  0  0  0  0  0  0  0  0  0  0  0
    2.2630    0.1830   -0.6250 C   0  0  0  0  0  0  0  0  0  0  0  0
    3.0750    1.1370   -1.0720 C   0  0  0  0  0  0  0  0  0  0  0  0
    4.3910    1.4120   -0.5730 C   0  0  0  0  0  0  0  0  0  0  0  0
    5.1120    2.4200   -1.1280 C   0  0  0  0  0  0  0  0  0  0  0  0
    4.5260    3.2070   -2.2320 C   0  0  0  0  0  0  0  0  0  0  0  0
    2.7030   -0.7340    0.4360 C   0  0  0  0  0  0  0  0  0  0  0  0
    2.7000   -2.1930   -0.0110 C   0  0  2  0  0  0  0  0  0  0  0  0
    3.1580   -3.0220    1.1630 C   0  0  0  0  0  0  0  0  0  0  0  0
    3.7360   -2.4000   -1.1060 C   0  0  0  0  0  0  0  0  0  0  0  0
   -3.1770    0.3440    0.2210 C   0  0  0  0  0  0  0  0  0  0  0  0
   -3.7490    1.4710   -0.1030 C   0  0  0  0  0  0  0  0  0  0  0  0
   -4.8980    1.6540   -1.0200 C   0  0  0  0  0  0  0  0  0  0  0  0
  1  2  2  0
  2  3  1  0
  2 22  1  0
  3  4  1  0
  4  5  1  0
  5  6  1  0
  6  7  1  1
  6  9  1  0
  6 22  1  0
  7  8  1  0
  9 10  2  0
  9 11  1  0
 11 12  1  0
 12 13  1  0
 13 14  2  3
 13 18  1  0
 14 15  1  0
 15 16  2  3
 16 17  1  0
 18 19  1  0
 19 20  1  1
 19 21  1  0
 22 23  2  3
 23 24  1  0
M  END
