
     RDKit          3D

 22 23  0  0  0  0  0  0  0  0999 V2000
    4.7360    0.2090   -2.7680 C   0  0  0  0  0  0  0  0  0  0  0  0
    4.0520   -0.8460   -2.7700 C   0  0  0  0  0  0  0  0  0  0  0  0
    2.8950   -1.4100   -2.1230 C   0  0  0  0  0  0  0  0  0  0  0  0
    2.6530   -2.7010   -2.6250 C   0  0  0  0  0  0  0  0  0  0  0  0
    1.6200   -3.6150   -2.2710 C   0  0  0  0  0  0  0  0  0  0  0  0
    2.3520   -5.1440   -1.6130 Cl  0  0  0  0  0  0  0  0  0  0  0  0
    2.0130   -0.9350   -1.1470 C   0  0  0  0  0  0  0  0  0  0  0  0
    1.7930    0.0960   -0.4010 C   0  0  0  0  0  0  0  0  0  0  0  0
    2.5240    1.3480   -0.2890 C   0  0  0  0  0  0  0  0  0  0  0  0
    1.5230    2.4390   -0.7460 C   0  0  0  0  0  0  0  0  0  0  0  0
    1.7530    3.2730   -1.5650 O   0  0  0  0  0  0  0  0  0  0  0  0
    0.2990    2.3100   -0.0560 N   0  0  0  0  0  0  0  0  0  0  0  0
   -0.1710    1.1010    0.4870 C   0  0  0  0  0  0  0  0  0  0  0  0
   -1.2140    0.7770    1.3970 N   0  0  0  0  0  0  0  0  0  0  0  0
   -2.5370    1.0110    1.0320 C   0  0  0  0  0  0  0  0  0  0  0  0
   -2.5980    1.4090   -0.1850 O   0  0  0  0  0  0  0  0  0  0  0  0
   -3.6300    0.8080    1.9240 C   0  0  0  0  0  0  0  0  0  0  0  0
   -4.8830    1.0210    1.5590 C   0  0  0  0  0  0  0  0  0  0  0  0
   -5.7370    0.7140    2.7140 C   0  0  0  0  0  0  0  0  0  0  0  0
   -4.8190    0.2950    3.7960 C   0  0  0  0  0  0  0  0  0  0  0  0
   -3.5890    0.3530    3.3240 C   0  0  0  0  0  0  0  0  0  0  0  0
    0.5350    0.0540    0.3550 N   0  0  0  0  0  0  0  0  0  0  0  0
  1  2  2  0
  2  3  1  0
  3  4  2  3
  3  7  1  0
  4  5  1  0
  5  6  1  0
  7  8  2  3
  8  9  1  0
  8 22  1  0
  9 10  1  0
 10 11  2  0
 10 12  1  0
 12 13  1  0
 13 14  1  0
 13 22  2  0
 14 15  1  0
 15 16  2  0
 15 17  1  0
 17 18  2  0
 17 21  1  0
 18 19  1  0
 19 20  1  0
 20 21  2  0
M  END
