
     RDKit          3D

 34 34  0  0  0  0  0  0  0  0999 V2000
   -5.7640   -4.5180    1.7450 C   0  0  0  0  0  0  0  0  0  0  0  0
   -5.8410   -3.3700    0.9090 O   0  0  0  0  0  0  0  0  0  0  0  0
   -4.6770   -2.6350    0.5960 C   0  0  0  0  0  0  0  0  0  0  0  0
   -3.6230   -3.0630    1.0950 O   0  0  0  0  0  0  0  0  0  0  0  0
   -4.7260   -1.4720   -0.2440 C   0  0  0  0  0  0  0  0  0  0  0  0
   -6.0220   -1.1040   -0.8460 C   0  0  0  0  0  0  0  0  0  0  0  0
   -7.1430   -1.9140   -0.5660 N   0  0  0  0  0  0  0  0  0  0  0  0
   -6.1750   -0.1080   -1.5940 O   0  0  0  0  0  0  0  0  0  0  0  0
   -3.6620   -0.6780   -0.4130 C   0  0  0  0  0  0  0  0  0  0  0  0
   -3.9220    0.6700   -1.5170 S   0  0  0  0  0  0  0  0  0  0  0  0
   -3.3490    2.2740   -1.1390 C   0  0  0  0  0  0  0  0  0  0  0  0
   -1.8750    2.4410   -1.0690 C   0  0  0  0  0  0  0  0  0  0  0  0
   -1.5170    3.7880   -0.8300 O   0  0  0  0  0  0  0  0  0  0  0  0
   -2.5660   -0.7470    0.4880 N   0  0  0  0  0  0  0  0  0  0  0  0
   -1.2180   -0.7150   -0.0140 C   0  0  0  0  0  0  0  0  0  0  0  0
   -1.1170   -0.6530   -1.2740 O   0  0  0  0  0  0  0  0  0  0  0  0
   -0.0450   -0.7440    0.7390 N   0  0  0  0  0  0  0  0  0  0  0  0
    1.2990   -0.7060    0.2670 C   0  0  0  0  0  0  0  0  0  0  0  0
    1.7530    0.4820   -0.4720 C   0  0  2  0  0  0  0  0  0  0  0  0
    1.0060    0.6710   -1.6230 O   0  0  0  0  0  0  0  0  0  0  0  0
    3.1930    0.4550   -0.9040 C   0  0  1  0  0  0  0  0  0  0  0  0
    3.5150   -0.6990   -1.8250 C   0  0  0  0  0  0  0  0  0  0  0  0
    3.4940    1.7400   -1.6430 C   0  0  0  0  0  0  0  0  0  0  0  0
    4.1140    0.4020    0.2930 C   0  0  0  0  0  0  0  0  0  0  0  0
    5.5330    0.3760   -0.1220 C   0  0  0  0  0  0  0  0  0  0  0  0
    5.9250    0.4020   -1.3090 O   0  0  0  0  0  0  0  0  0  0  0  0
    6.4930    0.3190    0.8700 O   0  0  0  0  0  0  0  0  0  0  0  0
    7.8680    0.2880    0.6670 C   0  0  0  0  0  0  0  0  0  0  0  0
    8.2940    1.5020   -0.0460 C   0  0  0  0  0  0  0  0  0  0  0  0
    7.3470    2.4810   -0.4090 N   0  0  0  0  0  0  0  0  0  0  0  0
    9.4960    1.6660   -0.3310 O   0  0  0  0  0  0  0  0  0  0  0  0
   -2.7740   -0.7310    1.9020 C   0  0  2  0  0  0  0  0  0  0  0  0
   -4.0760   -0.5000    2.5410 C   0  0  0  0  0  0  0  0  0  0  0  0
   -3.2240    0.6730    2.4010 C   0  0  0  0  0  0  0  0  0  0  0  0
  1  2  1  0
  2  3  1  0
  3  4  2  0
  3  5  1  0
  5  6  1  0
  5  9  2  3
  6  7  1  0
  6  8  2  0
  9 10  1  0
  9 14  1  0
 10 11  1  0
 11 12  1  0
 12 13  1  0
 14 15  1  0
 32 14  1  6
 15 16  2  0
 15 17  1  0
 17 18  1  0
 18 19  1  0
 19 20  1  6
 19 21  1  0
 21 22  1  6
 21 23  1  0
 21 24  1  0
 24 25  1  0
 25 26  2  0
 25 27  1  0
 27 28  1  0
 28 29  1  0
 29 30  1  0
 29 31  2  0
 32 33  1  0
 32 34  1  0
 33 34  1  0
M  END
