
     RDKit          3D

 33 32  0  0  0  0  0  0  0  0999 V2000
    5.5400    2.4160    0.6200 C   0  0  0  0  0  0  0  0  0  0  0  0
    5.3940    0.9840    0.1410 C   0  0  1  0  0  0  0  0  0  0  0  0
    3.9980    0.6320    0.2620 N   0  0  0  0  0  0  0  0  0  0  0  0
    3.4970   -0.3630    1.1430 C   0  0  0  0  0  0  0  0  0  0  0  0
    4.3300   -0.9700    1.8600 O   0  0  0  0  0  0  0  0  0  0  0  0
    2.1410   -0.7030    1.2560 N   0  0  0  0  0  0  0  0  0  0  0  0
    1.6200   -1.7210    2.1530 C   0  0  2  0  0  0  0  0  0  0  0  0
    1.9160   -1.4320    3.5960 C   0  0  0  0  0  0  0  0  0  0  0  0
    2.2340   -3.0550    1.8000 C   0  0  0  0  0  0  0  0  0  0  0  0
    0.1080   -1.8510    1.9240 C   0  0  0  0  0  0  0  0  0  0  0  0
   -0.4260   -0.6190    2.2000 O   0  0  0  0  0  0  0  0  0  0  0  0
   -1.7850   -0.5000    2.0560 C   0  0  2  0  0  0  0  0  0  0  0  0
   -2.1270    0.9500    2.4280 C   0  0  0  0  0  0  0  0  0  0  0  0
   -2.5930   -1.3860    2.9540 C   0  0  0  0  0  0  0  0  0  0  0  0
   -2.2310   -0.6490    0.6350 C   0  0  0  0  0  0  0  0  0  0  0  0
   -1.4710   -0.8590   -0.3270 O   0  0  0  0  0  0  0  0  0  0  0  0
   -3.5890   -0.5480    0.3590 O   0  0  0  0  0  0  0  0  0  0  0  0
   -4.0520   -0.6840   -0.9670 C   0  0  0  0  0  0  0  0  0  0  0  0
   -5.5430   -0.5220   -0.9400 C   0  0  0  0  0  0  0  0  0  0  0  0
   -6.1060   -0.3050    0.1490 O   0  0  0  0  0  0  0  0  0  0  0  0
   -6.2200   -0.6290   -2.1760 N   0  0  0  0  0  0  0  0  0  0  0  0
   -7.6330   -0.4870   -2.2800 C   0  0  0  0  0  0  0  0  0  0  0  0
   -8.2140    0.8240   -1.8860 C   0  0  1  0  0  0  0  0  0  0  0  0
   -8.0050    1.2160   -0.5820 O   0  0  0  0  0  0  0  0  0  0  0  0
   -7.7590    1.9590   -2.7850 C   0  0  0  0  0  0  0  0  0  0  0  0
   -8.5250    3.0770   -2.4630 O   0  0  0  0  0  0  0  0  0  0  0  0
    5.8890    0.8080   -1.2460 C   0  0  0  0  0  0  0  0  0  0  0  0
    5.0850    0.3900   -2.1110 O   0  0  0  0  0  0  0  0  0  0  0  0
    7.1840    1.0790   -1.6300 O   0  0  0  0  0  0  0  0  0  0  0  0
    7.6190    0.8920   -2.9880 C   0  0  0  0  0  0  0  0  0  0  0  0
    9.0500    1.2570   -3.1240 C   0  0  0  0  0  0  0  0  0  0  0  0
   10.0440    0.5780   -2.3610 N   0  0  0  0  0  0  0  0  0  0  0  0
    9.4870    2.4470   -4.1570 S   0  0  0  0  0  0  0  0  0  0  0  0
  2  1  1  6
  2  3  1  0
  2 27  1  0
  3  4  1  0
  4  5  2  0
  4  6  1  0
  6  7  1  0
  7  8  1  1
  7  9  1  0
  7 10  1  0
 10 11  1  0
 11 12  1  0
 12 13  1  1
 12 14  1  0
 12 15  1  0
 15 16  2  0
 15 17  1  0
 17 18  1  0
 18 19  1  0
 19 20  2  0
 19 21  1  0
 21 22  1  0
 22 23  1  0
 23 24  1  1
 23 25  1  0
 25 26  1  0
 27 28  2  0
 27 29  1  0
 29 30  1  0
 30 31  1  0
 31 32  1  0
 31 33  2  0
M  END
