
     RDKit          3D

 34 36  0  0  0  0  0  0  0  0999 V2000
   -6.3210   -2.3530   -0.1580 C   0  0  0  0  0  0  0  0  0  0  0  0
   -7.2250   -1.3870    0.5080 C   0  0  0  0  0  0  0  0  0  0  0  0
   -6.5720   -0.3260    1.3520 C   0  0  0  0  0  0  0  0  0  0  0  0
   -5.7270    0.5400    0.8080 O   0  0  0  0  0  0  0  0  0  0  0  0
   -4.5630    0.7320    0.1900 C   0  0  0  0  0  0  0  0  0  0  0  0
   -3.6320   -0.2390   -0.1300 C   0  0  0  0  0  0  0  0  0  0  0  0
   -2.4450    0.0420   -0.7710 C   0  0  0  0  0  0  0  0  0  0  0  0
   -1.3650   -0.7270   -1.1970 C   0  0  0  0  0  0  0  0  0  0  0  0
   -1.3130   -2.1970   -0.9870 C   0  0  0  0  0  0  0  0  0  0  0  0
   -0.9670   -2.5370    0.4470 C   0  0  0  0  0  0  0  0  0  0  0  0
    0.3020   -2.0150    0.8460 N   0  0  0  0  0  0  0  0  0  0  0  0
    1.4950   -2.3820    0.1920 C   0  0  0  0  0  0  0  0  0  0  0  0
    1.4770   -3.1910   -0.7690 O   0  0  0  0  0  0  0  0  0  0  0  0
    2.8360   -1.8440    0.5920 C   0  0  0  0  0  0  0  0  0  0  0  0
    3.9330   -2.3830   -0.2580 C   0  0  0  0  0  0  0  0  0  0  0  0
    5.1900   -1.8370    0.1500 N   0  0  0  0  0  0  0  0  0  0  0  0
    5.4930   -0.4440    0.1250 C   0  0  0  0  0  0  0  0  0  0  0  0
    4.6140    0.3520   -0.2810 O   0  0  0  0  0  0  0  0  0  0  0  0
    6.7780    0.0970    0.5480 C   0  0  0  0  0  0  0  0  0  0  0  0
    7.0450    1.4530    0.3610 C   0  0  0  0  0  0  0  0  0  0  0  0
    8.2400    2.0200    0.7430 C   0  0  0  0  0  0  0  0  0  0  0  0
    9.2330    1.2570    1.3340 C   0  0  0  0  0  0  0  0  0  0  0  0
   10.5190    1.8790    1.7420 C   0  0  0  0  0  0  0  0  0  0  0  0
    8.9850   -0.0800    1.5250 C   0  0  0  0  0  0  0  0  0  0  0  0
   10.2350   -1.0600    2.2740 Cl  0  0  0  0  0  0  0  0  0  0  0  0
    7.7700   -0.6540    1.1350 C   0  0  0  0  0  0  0  0  0  0  0  0
   -0.4530    0.1160   -1.7860 C   0  0  0  0  0  0  0  0  0  0  0  0
   -0.9400    1.3180   -1.7250 O   0  0  0  0  0  0  0  0  0  0  0  0
   -2.1300    1.3310   -1.1270 C   0  0  0  0  0  0  0  0  0  0  0  0
   -3.0240    2.3350   -0.8300 C   0  0  0  0  0  0  0  0  0  0  0  0
   -4.1930    2.0450   -0.1970 C   0  0  0  0  0  0  0  0  0  0  0  0
   -5.1310    3.1380    0.1070 C   0  0  0  0  0  0  0  0  0  0  0  0
   -6.3140    3.1830   -0.8400 C   0  0  0  0  0  0  0  0  0  0  0  0
   -5.8150    3.3770   -2.2050 N   0  0  0  0  0  0  0  0  0  0  0  0
  1  2  1  0
  2  3  1  0
  3  4  1  0
  4  5  1  0
  5  6  2  0
  5 31  1  0
  6  7  1  0
  7  8  1  0
  7 29  2  0
  8  9  1  0
  8 27  2  0
  9 10  1  0
 10 11  1  0
 11 12  1  0
 12 13  2  0
 12 14  1  0
 14 15  1  0
 15 16  1  0
 16 17  1  0
 17 18  2  0
 17 19  1  0
 19 20  2  0
 19 26  1  0
 20 21  1  0
 21 22  2  0
 22 23  1  0
 22 24  1  0
 24 25  1  0
 24 26  2  0
 27 28  1  0
 28 29  1  0
 29 30  1  0
 30 31  2  0
 31 32  1  0
 32 33  1  0
 33 34  1  0
M  CHG  1  34   1
M  END
