
     RDKit          3D

 19 18  0  0  0  0  0  0  0  0999 V2000
   -4.5470    1.9740    1.0410 C   0  0  0  0  0  0  0  0  0  0  0  0
   -3.5770    0.7940    1.1960 C   0  0  0  0  0  0  0  0  0  0  0  0
   -3.0540    0.5080   -0.1710 C   0  0  0  0  0  0  0  0  0  0  0  0
   -2.1060   -0.5690   -0.2560 N   0  0  0  0  0  0  0  0  0  0  0  0
   -2.6000   -1.8960   -0.5050 C   0  0  0  0  0  0  0  0  0  0  0  0
   -2.8760   -2.6870    0.6920 C   0  0  0  0  0  0  0  0  0  0  0  0
   -3.3800   -3.8350    0.5160 O   0  0  0  0  0  0  0  0  0  0  0  0
   -2.6290   -2.2790    1.9880 O   0  0  0  0  0  0  0  0  0  0  0  0
   -0.7120   -0.3510   -0.1220 C   0  0  0  0  0  0  0  0  0  0  0  0
    0.1250   -1.2910   -0.1960 O   0  0  0  0  0  0  0  0  0  0  0  0
   -0.1740    0.9180    0.1020 O   0  0  0  0  0  0  0  0  0  0  0  0
    1.1190    1.1610    0.2330 O   0  0  0  0  0  0  0  0  0  0  0  0
    1.8060    1.1060   -0.9750 C   0  0  0  0  0  0  0  0  0  0  0  0
    3.2680    1.3810   -0.8310 C   0  0  0  0  0  0  0  0  0  0  0  0
    4.1250    0.1840    0.2800 P   0  0  0  0  0  0  0  0  0  0  0  0
    5.2330    1.0570    1.2780 O   0  0  0  0  0  0  0  0  0  0  0  0
    5.2770   -1.2670   -0.9060 P   0  0  0  0  0  0  0  0  0  0  0  0
    6.6760   -0.5070   -1.6260 O   0  0  0  0  0  0  0  0  0  0  0  0
    5.8540   -2.5180    0.1730 O   0  0  0  0  0  0  0  0  0  0  0  0
  1  2  1  0
  2  3  1  0
  3  4  1  0
  4  5  1  0
  4  9  1  0
  5  6  1  0
  6  7  2  0
  6  8  1  0
  9 10  2  0
  9 11  1  0
 11 12  1  0
 12 13  1  0
 13 14  1  0
 14 15  1  0
 15 16  1  0
 15 17  1  0
 17 18  1  0
 17 19  1  0
M  END
