
     RDKit          3D

 19 18  0  0  0  0  0  0  0  0999 V2000
   -5.4680   -0.2630   -0.1210 C   0  0  0  0  0  0  0  0  0  0  0  0
   -5.0000    1.1870   -0.2490 C   0  0  0  0  0  0  0  0  0  0  0  0
   -3.6610    1.1990   -0.9210 C   0  0  0  0  0  0  0  0  0  0  0  0
   -2.6600    0.4640   -0.1930 N   0  0  0  0  0  0  0  0  0  0  0  0
   -2.2890    0.8110    1.1040 C   0  0  0  0  0  0  0  0  0  0  0  0
   -2.8640    1.8100    1.6550 O   0  0  0  0  0  0  0  0  0  0  0  0
   -1.2690    0.0880    1.8800 C   0  0  0  0  0  0  0  0  0  0  0  0
   -0.6500   -0.8750    1.0600 O   0  0  0  0  0  0  0  0  0  0  0  0
    0.0970   -0.5440   -0.0590 C   0  0  0  0  0  0  0  0  0  0  0  0
    0.2300    0.6650   -0.3500 O   0  0  0  0  0  0  0  0  0  0  0  0
    0.7450   -1.5830   -0.9250 C   0  0  0  0  0  0  0  0  0  0  0  0
    2.4540   -1.8550   -0.2070 P   0  0  0  0  0  0  0  0  0  0  0  0
    3.5870   -2.5850   -1.4750 C   0  0  0  0  0  0  0  0  0  0  0  0
    3.1700    0.0920    0.5060 P   0  0  0  0  0  0  0  0  0  0  0  0
    2.7740    1.3730   -0.5750 O   0  0  0  0  0  0  0  0  0  0  0  0
    2.7190    2.4960    0.1290 O   0  0  0  0  0  0  0  0  0  0  0  0
    5.2870    0.0140    1.0010 P   0  0  0  0  0  0  0  0  0  0  0  0
    5.8160    1.5090    1.6690 O   0  0  0  0  0  0  0  0  0  0  0  0
    6.2650   -0.5180   -0.3080 O   0  0  0  0  0  0  0  0  0  0  0  0
  1  2  1  0
  2  3  1  0
  3  4  1  0
  4  5  1  0
  5  6  2  0
  5  7  1  0
  7  8  1  0
  8  9  1  0
  9 10  2  0
  9 11  1  0
 11 12  1  0
 12 13  1  0
 12 14  1  0
 14 15  1  0
 14 17  1  0
 15 16  1  0
 17 18  1  0
 17 19  1  0
M  END
