
     RDKit          3D

 19 18  0  0  0  0  0  0  0  0999 V2000
   -7.3350   -0.0570    0.1670 C   0  0  0  0  0  0  0  0  0  0  0  0
   -6.9810   -1.0300    1.1800 O   0  0  0  0  0  0  0  0  0  0  0  0
   -5.9940   -1.7160    0.3250 O   0  0  0  0  0  0  0  0  0  0  0  0
   -4.8360   -1.1130    0.3520 C   0  0  0  0  0  0  0  0  0  0  0  0
   -4.6150   -0.0400    1.1390 O   0  0  0  0  0  0  0  0  0  0  0  0
   -3.4820   -1.3110   -0.3850 C   0  0  0  0  0  0  0  0  0  0  0  0
   -3.3770   -0.0320   -0.9040 O   0  0  0  0  0  0  0  0  0  0  0  0
   -2.3790    0.6870   -0.8740 N   0  0  0  0  0  0  0  0  0  0  0  0
   -1.1800    0.4760   -0.2060 C   0  0  0  0  0  0  0  0  0  0  0  0
   -0.8990   -0.6130    0.4250 O   0  0  0  0  0  0  0  0  0  0  0  0
   -0.1680    1.5530   -0.1210 C   0  0  0  0  0  0  0  0  0  0  0  0
    1.3120    0.8080   -0.9070 P   0  0  0  0  0  0  0  0  0  0  0  0
    0.7130   -0.8390   -1.4330 O   0  0  0  0  0  0  0  0  0  0  0  0
    2.6020    0.4360    0.3690 C   0  0  0  0  0  0  0  0  0  0  0  0
    3.8660    0.1150   -0.4160 C   0  0  0  0  0  0  0  0  0  0  0  0
    4.9190   -0.3890    0.5070 C   0  0  0  0  0  0  0  0  0  0  0  0
    6.5260   -0.4260   -0.3970 P   0  0  0  0  0  0  0  0  0  0  0  0
    7.7890   -0.5340    0.8530 O   0  0  0  0  0  0  0  0  0  0  0  0
    6.7270    1.1760   -1.1380 O   0  0  0  0  0  0  0  0  0  0  0  0
  1  2  1  0
  2  3  1  0
  3  4  1  0
  4  5  2  0
  4  6  1  0
  6  7  1  0
  7  8  1  0
  8  9  1  0
  9 10  2  0
  9 11  1  0
 11 12  1  0
 12 13  1  0
 12 14  1  0
 14 15  1  0
 15 16  1  0
 16 17  1  0
 17 18  1  0
 17 19  1  0
M  END
