
     RDKit          3D

 19 18  0  0  0  0  0  0  0  0999 V2000
   -5.9060    1.7810   -1.7060 O   0  0  0  0  0  0  0  0  0  0  0  0
   -6.2600    1.5570   -0.5200 C   0  0  0  0  0  0  0  0  0  0  0  0
   -7.4540    2.1050   -0.0470 O   0  0  0  0  0  0  0  0  0  0  0  0
   -5.4770    0.7610    0.3510 N   0  0  0  0  0  0  0  0  0  0  0  0
   -4.2460    0.1970   -0.1390 C   0  0  0  0  0  0  0  0  0  0  0  0
   -3.8390    0.3780   -1.2940 O   0  0  0  0  0  0  0  0  0  0  0  0
   -3.5060   -0.5710    0.7300 O   0  0  0  0  0  0  0  0  0  0  0  0
   -2.2710   -1.1950    0.4000 C   0  0  0  0  0  0  0  0  0  0  0  0
   -1.2230   -0.2110    0.0050 C   0  0  0  0  0  0  0  0  0  0  0  0
   -0.0410   -0.8220   -0.3220 O   0  0  0  0  0  0  0  0  0  0  0  0
    0.4990   -1.5370    0.6960 C   0  0  0  0  0  0  0  0  0  0  0  0
    1.8290   -2.1720    0.3370 C   0  0  0  0  0  0  0  0  0  0  0  0
    2.8950   -1.1950   -0.0370 C   0  0  0  0  0  0  0  0  0  0  0  0
    2.6100   -0.3290   -1.2160 C   0  0  0  0  0  0  0  0  0  0  0  0
    4.1050    0.7680   -1.4660 P   0  0  0  0  0  0  0  0  0  0  0  0
    5.4370   -0.2650   -1.9060 O   0  0  0  0  0  0  0  0  0  0  0  0
    4.6380    1.7160    0.4590 P   0  0  0  0  0  0  0  0  0  0  0  0
    5.9140    2.8330    0.1580 O   0  0  0  0  0  0  0  0  0  0  0  0
    3.2640    2.4340    1.1990 O   0  0  0  0  0  0  0  0  0  0  0  0
  1  2  2  0
  2  3  1  0
  2  4  1  0
  4  5  1  0
  5  6  2  0
  5  7  1  0
  7  8  1  0
  8  9  1  0
  9 10  1  0
 10 11  1  0
 11 12  1  0
 12 13  1  0
 13 14  1  0
 14 15  1  0
 15 16  1  0
 15 17  1  0
 17 18  1  0
 17 19  1  0
M  END
