
     RDKit          3D

 24 25  0  0  0  0  0  0  0  0999 V2000
    5.6270   -0.1880    0.1040 C   0  0  0  0  0  0  0  0  0  0  0  0
    4.7720    1.2380    0.8690 P   0  0  0  0  0  0  0  0  0  0  0  0
    3.5210    1.9700   -0.1780 N   0  0  0  0  0  0  0  0  0  0  0  0
    3.9610    2.9380   -1.0880 N   0  0  0  0  0  0  0  0  0  0  0  0
    2.1630    1.6370   -0.1480 C   0  0  0  0  0  0  0  0  0  0  0  0
    1.3570    2.2110   -0.9180 O   0  0  0  0  0  0  0  0  0  0  0  0
    1.6000    0.6520    0.7300 N   0  0  0  0  0  0  0  0  0  0  0  0
    0.1880    0.3350    0.7290 C   0  0  2  0  0  0  0  0  0  0  0  0
   -0.6480    1.4160    0.8210 O   0  0  0  0  0  0  0  0  0  0  0  0
   -0.0700   -0.7620    1.7660 C   0  0  0  0  0  0  0  0  0  0  0  0
    0.8080   -1.5410    0.9680 O   0  0  0  0  0  0  0  0  0  0  0  0
   -0.2200   -1.0410   -0.3770 P   0  0  0  0  0  0  0  0  0  0  0  0
   -1.7980   -1.8750   -0.2570 C   0  0  0  0  0  0  0  0  0  0  0  0
   -2.9540   -1.4780   -0.7700 C   0  0  0  0  0  0  0  0  0  0  0  0
   -2.9730   -0.3000   -1.4740 O   0  0  0  0  0  0  0  0  0  0  0  0
   -3.3190    0.8820   -0.8740 C   0  0  0  0  0  0  0  0  0  0  0  0
   -3.6220    0.8280    0.3360 O   0  0  0  0  0  0  0  0  0  0  0  0
   -3.3520    2.1050   -1.5080 O   0  0  0  0  0  0  0  0  0  0  0  0
   -3.7040    3.2640   -0.8630 N   0  0  0  0  0  0  0  0  0  0  0  0
   -4.0930   -2.3710   -0.5140 C   0  0  0  0  0  0  0  0  0  0  0  0
   -4.2320   -2.5760    0.8510 O   0  0  0  0  0  0  0  0  0  0  0  0
   -3.5100   -3.5990    1.2700 O   0  0  0  0  0  0  0  0  0  0  0  0
   -1.8830   -3.4950    0.6700 P   0  0  0  0  0  0  0  0  0  0  0  0
   -1.7050   -4.7760   -0.5180 O   0  0  0  0  0  0  0  0  0  0  0  0
  1  2  1  0
  2  3  1  0
  3  4  1  0
  3  5  1  0
  5  6  2  0
  5  7  1  0
  7  8  1  0
  8  9  1  1
  8 10  1  0
  8 12  1  0
 10 11  1  0
 11 12  1  0
 12 13  1  0
 13 14  2  0
 13 23  1  0
 14 15  1  0
 14 20  1  0
 15 16  1  0
 16 17  2  0
 16 18  1  0
 18 19  1  0
 20 21  1  0
 21 22  1  0
 22 23  1  0
 23 24  1  0
M  END
