
     RDKit          3D

 20 20  0  0  0  0  0  0  0  0999 V2000
    3.5900   -0.8930    2.6720 O   0  0  0  0  0  0  0  0  0  0  0  0
    2.5760   -1.4410    2.1270 C   0  0  0  0  0  0  0  0  0  0  0  0
    1.5390   -0.6580    1.5520 N   0  0  0  0  0  0  0  0  0  0  0  0
    1.6620    0.7880    1.5940 C   0  0  0  0  0  0  0  0  0  0  0  0
    2.3660    1.2550    0.3480 C   0  0  0  0  0  0  0  0  0  0  0  0
    4.0600    0.5650    0.1410 P   0  0  0  0  0  0  0  0  0  0  0  0
    4.3150   -0.0030   -1.4630 O   0  0  0  0  0  0  0  0  0  0  0  0
    5.3030    1.6530    0.5960 O   0  0  0  0  0  0  0  0  0  0  0  0
    0.4350   -1.3140    0.9610 C   0  0  0  0  0  0  0  0  0  0  0  0
    0.3960   -2.5650    0.9650 O   0  0  0  0  0  0  0  0  0  0  0  0
   -0.6400   -0.5820    0.3590 N   0  0  0  0  0  0  0  0  0  0  0  0
   -1.7500   -1.2140   -0.2340 C   0  0  0  0  0  0  0  0  0  0  0  0
   -1.7470   -2.4840   -0.2060 O   0  0  0  0  0  0  0  0  0  0  0  0
   -2.8620   -0.4970   -0.8570 C   0  0  0  0  0  0  0  0  0  0  0  0
   -3.9810   -1.0290   -1.4570 C   0  0  0  0  0  0  0  0  0  0  0  0
   -4.2570   -2.3740   -1.5800 O   0  0  0  0  0  0  0  0  0  0  0  0
   -4.8040   -0.0030   -1.9290 C   0  0  0  0  0  0  0  0  0  0  0  0
   -4.1860    1.1340   -1.6150 N   0  0  0  0  0  0  0  0  0  0  0  0
   -3.0140    0.8680   -0.9690 C   0  0  0  0  0  0  0  0  0  0  0  0
   -2.1110    1.8260   -0.4960 O   0  0  0  0  0  0  0  0  0  0  0  0
  1  2  2  0
  2  3  1  0
  3  4  1  0
  3  9  1  0
  4  5  1  0
  5  6  1  0
  6  7  1  0
  6  8  1  0
  9 10  2  0
  9 11  1  0
 11 12  1  0
 12 13  2  0
 12 14  1  0
 14 15  1  0
 14 19  2  0
 15 16  1  0
 15 17  2  0
 17 18  1  0
 18 19  1  0
 19 20  1  0
M  END
