
     RDKit          3D

 26 27  0  0  0  0  0  0  0  0999 V2000
    7.6060   -0.6240    0.0380 C   0  0  0  0  0  0  0  0  0  0  0  0
    6.4300    0.1220    0.6950 C   0  0  1  0  0  0  0  0  0  0  0  0
    7.0760    1.0560    1.7170 C   0  0  0  0  0  0  0  0  0  0  0  0
    5.6720    0.8070   -0.2210 O   0  0  0  0  0  0  0  0  0  0  0  0
    4.3320    0.6020   -0.4860 C   0  0  0  0  0  0  0  0  0  0  0  0
    3.7100    1.3990   -1.4680 C   0  0  0  0  0  0  0  0  0  0  0  0
    2.3870    1.2550   -1.7870 C   0  0  0  0  0  0  0  0  0  0  0  0
    1.5920    0.3360   -1.1760 C   0  0  0  0  0  0  0  0  0  0  0  0
    0.1760    0.1780   -1.5130 C   0  0  0  0  0  0  0  0  0  0  0  0
   -0.2250    0.4280   -2.8120 C   0  0  0  0  0  0  0  0  0  0  0  0
   -1.5180    0.2920   -3.1480 N   0  0  0  0  0  0  0  0  0  0  0  0
   -2.4250   -0.0900   -2.2030 C   0  0  0  0  0  0  0  0  0  0  0  0
   -2.0640   -0.3470   -0.9010 C   0  0  0  0  0  0  0  0  0  0  0  0
   -2.9580   -0.7160    0.1110 N   0  0  0  0  0  0  0  0  0  0  0  0
   -4.4190   -0.4800    0.0690 C   0  0  1  0  0  0  0  0  0  0  0  0
   -5.2300   -1.4640    1.3370 P   0  0  0  0  0  0  0  0  0  0  0  0
   -5.0860   -1.1480    2.8790 O   0  0  0  0  0  0  0  0  0  0  0  0
   -6.4340   -2.5470    0.7370 O   0  0  0  0  0  0  0  0  0  0  0  0
   -4.2920   -2.6710    1.2800 O   0  0  0  0  0  0  0  0  0  0  0  0
   -4.7460    1.1670    0.0900 P   0  0  0  0  0  0  0  0  0  0  0  0
   -6.3920    0.8390   -0.0700 O   0  0  0  0  0  0  0  0  0  0  0  0
   -4.1710    1.1670    1.6580 O   0  0  0  0  0  0  0  0  0  0  0  0
   -5.1430    2.6340    0.2710 O   0  0  0  0  0  0  0  0  0  0  0  0
   -0.7240   -0.2090   -0.5440 C   0  0  0  0  0  0  0  0  0  0  0  0
    2.1840   -0.4510   -0.2140 C   0  0  0  0  0  0  0  0  0  0  0  0
    3.5260   -0.3240    0.1270 C   0  0  0  0  0  0  0  0  0  0  0  0
  2  1  1  6
  2  3  1  0
  2  4  1  0
  4  5  1  0
  5  6  2  0
  5 26  1  0
  6  7  1  0
  7  8  2  0
  8  9  1  0
  8 25  1  0
  9 10  2  0
  9 24  1  0
 10 11  1  0
 11 12  2  0
 12 13  1  0
 13 14  1  0
 13 24  2  0
 15 14  1  1
 15 16  1  0
 15 20  1  0
 16 17  1  0
 16 18  1  0
 16 19  1  0
 20 21  1  0
 20 22  1  0
 20 23  1  0
 25 26  2  0
M  END
