
     RDKit          3D

 20 20  0  0  0  0  0  0  0  0999 V2000
   -2.3570    0.1480    3.0360 O   0  0  0  0  0  0  0  0  0  0  0  0
   -1.2960    0.7470    3.1290 C   0  0  0  0  0  0  0  0  0  0  0  0
   -1.0470    1.5010    4.3410 O   0  0  0  0  0  0  0  0  0  0  0  0
   -0.3620    0.7500    2.1700 O   0  0  0  0  0  0  0  0  0  0  0  0
   -0.4130    0.0460    0.9870 C   0  0  1  0  0  0  0  0  0  0  0  0
   -0.6330   -1.4650    1.3850 C   0  0  0  0  0  0  0  0  0  0  0  0
    0.3830   -1.7660    2.2750 O   0  0  0  0  0  0  0  0  0  0  0  0
   -1.3380    0.4030    0.0370 O   0  0  0  0  0  0  0  0  0  0  0  0
   -1.3340   -0.4730   -1.0140 C   0  0  1  0  0  0  0  0  0  0  0  0
   -2.2920    0.2140   -2.4430 P   0  0  0  0  0  0  0  0  0  0  0  0
   -2.9080    1.7790   -2.1230 O   0  0  0  0  0  0  0  0  0  0  0  0
   -3.5950   -0.8220   -2.9180 O   0  0  0  0  0  0  0  0  0  0  0  0
   -0.0620   -0.7430   -1.5180 O   0  0  0  0  0  0  0  0  0  0  0  0
    0.7330   -1.1710   -0.5910 O   0  0  0  0  0  0  0  0  0  0  0  0
    0.9230   -0.0600    0.2650 C   0  0  1  0  0  0  0  0  0  0  0  0
    1.1480    1.1200   -0.7230 C   0  0  0  0  0  0  0  0  0  0  0  0
    1.8250    0.4760   -1.7700 O   0  0  0  0  0  0  0  0  0  0  0  0
    3.4600    1.0800   -1.9690 P   0  0  0  0  0  0  0  0  0  0  0  0
    4.3170   -0.2770   -2.7890 O   0  0  0  0  0  0  0  0  0  0  0  0
    4.1310    1.1250   -0.3150 O   0  0  0  0  0  0  0  0  0  0  0  0
  1  2  2  0
  2  3  1  0
  2  4  1  0
  4  5  1  0
  5  6  1  1
  5  8  1  0
  5 15  1  0
  6  7  1  0
  8  9  1  0
  9 10  1  6
  9 13  1  0
 10 11  1  0
 10 12  1  0
 13 14  1  0
 14 15  1  0
 15 16  1  6
 16 17  1  0
 17 18  1  0
 18 19  1  0
 18 20  1  0
M  END
