
     RDKit          3D

 44 46  0  0  0  0  0  0  0  0999 V2000
    9.9770   -1.1100    3.0770 C   0  0  0  0  0  0  0  0  0  0  0  0
    8.8100   -0.7230    2.6280 C   0  0  0  0  0  0  0  0  0  0  0  0
    8.5000    0.7190    2.2760 C   0  0  0  0  0  0  0  0  0  0  0  0
    8.1420    0.7060    0.8650 C   0  0  0  0  0  0  0  0  0  0  0  0
    9.2020    0.6060   -0.0380 C   0  0  0  0  0  0  0  0  0  0  0  0
   10.5030    0.5300    0.4220 O   0  0  0  0  0  0  0  0  0  0  0  0
    8.9200    0.5870   -1.3810 C   0  0  0  0  0  0  0  0  0  0  0  0
    9.9950    0.4880   -2.2520 O   0  0  0  0  0  0  0  0  0  0  0  0
    9.7630    0.4640   -3.6390 C   0  0  0  0  0  0  0  0  0  0  0  0
    7.6220    0.6620   -1.8440 C   0  0  0  0  0  0  0  0  0  0  0  0
    6.5890    0.7570   -0.9750 C   0  0  0  0  0  0  0  0  0  0  0  0
    6.8290    0.7810    0.3900 C   0  0  0  0  0  0  0  0  0  0  0  0
    5.7810    0.8990    1.3400 N   0  0  0  0  0  0  0  0  0  0  0  0
    4.4000    1.0030    0.9950 C   0  0  0  0  0  0  0  0  0  0  0  0
    3.6920    1.7700    1.7030 O   0  0  0  0  0  0  0  0  0  0  0  0
    3.9000    0.2230   -0.1440 C   0  0  1  0  0  0  0  0  0  0  0  0
    2.4500    0.4150   -0.4250 C   0  0  0  0  0  0  0  0  0  0  0  0
    1.6640    0.0210    0.7690 C   0  0  0  0  0  0  0  0  0  0  0  0
    1.4110   -1.1580    1.1090 O   0  0  0  0  0  0  0  0  0  0  0  0
    1.1730    1.0230    1.5670 O   0  0  0  0  0  0  0  0  0  0  0  0
    0.4150    0.9190    2.7210 C   0  0  0  0  0  0  0  0  0  0  0  0
   -0.9030    0.1980    2.4200 C   0  0  0  0  0  0  0  0  0  0  0  0
   -1.5450    0.9760    1.4440 O   0  0  0  0  0  0  0  0  0  0  0  0
   -2.7770    0.7180    0.8780 C   0  0  0  0  0  0  0  0  0  0  0  0
   -3.5450   -0.3680    1.2410 C   0  0  0  0  0  0  0  0  0  0  0  0
   -4.7930   -0.6360    0.6720 C   0  0  0  0  0  0  0  0  0  0  0  0
   -5.2970    0.2100   -0.2960 C   0  0  0  0  0  0  0  0  0  0  0  0
   -6.5430   -0.0420   -0.8750 O   0  0  0  0  0  0  0  0  0  0  0  0
   -6.7750   -1.0440   -1.7810 C   0  0  0  0  0  0  0  0  0  0  0  0
   -5.8280   -1.7930   -2.1200 O   0  0  0  0  0  0  0  0  0  0  0  0
   -8.0920   -1.1890   -2.2950 N   0  0  0  0  0  0  0  0  0  0  0  0
   -8.3330   -2.2890   -3.2210 C   0  0  0  0  0  0  0  0  0  0  0  0
   -9.1660   -0.2880   -1.9700 C   0  0  0  0  0  0  0  0  0  0  0  0
   -9.8430   -0.7610   -0.7500 C   0  0  0  0  0  0  0  0  0  0  0  0
  -10.8190   -0.0860   -0.3290 O   0  0  0  0  0  0  0  0  0  0  0  0
   -9.4340   -1.9310   -0.0440 N   0  0  0  0  0  0  0  0  0  0  0  0
  -10.1300   -2.3480    1.1570 C   0  0  0  0  0  0  0  0  0  0  0  0
   -9.4890   -3.5800    1.6800 C   0  0  0  0  0  0  0  0  0  0  0  0
   -8.5420   -4.1430    1.1630 O   0  0  0  0  0  0  0  0  0  0  0  0
   -4.5270    1.2930   -0.6560 C   0  0  0  0  0  0  0  0  0  0  0  0
   -3.2960    1.5530   -0.0910 C   0  0  0  0  0  0  0  0  0  0  0  0
   -2.5110    2.6520   -0.4520 O   0  0  0  0  0  0  0  0  0  0  0  0
   -3.0430    3.5090   -1.4510 C   0  0  0  0  0  0  0  0  0  0  0  0
    4.9100    0.8290   -1.5660 S   0  0  0  0  0  0  0  0  0  0  0  0
  1  2  2  0
  2  3  1  0
  3  4  1  0
  4  5  2  0
  4 12  1  0
  5  6  1  0
  5  7  1  0
  7  8  1  0
  7 10  2  0
  8  9  1  0
 10 11  1  0
 11 12  2  0
 11 44  1  0
 12 13  1  0
 13 14  1  0
 14 15  2  0
 14 16  1  0
 16 17  1  6
 16 44  1  0
 17 18  1  0
 18 19  2  0
 18 20  1  0
 20 21  1  0
 21 22  1  0
 22 23  1  0
 23 24  1  0
 24 25  2  0
 24 41  1  0
 25 26  1  0
 26 27  2  0
 27 28  1  0
 27 40  1  0
 28 29  1  0
 29 30  2  0
 29 31  1  0
 31 32  1  0
 31 33  1  0
 33 34  1  0
 34 35  2  0
 34 36  1  0
 36 37  1  0
 37 38  1  0
 38 39  2  0
 40 41  2  0
 41 42  1  0
 42 43  1  0
M  END
