
     RDKit          3D

 44 46  0  0  0  0  0  0  0  0999 V2000
  -10.1440    0.0380   -1.0860 C   0  0  0  0  0  0  0  0  0  0  0  0
   -8.7470   -0.4310   -0.8990 C   0  0  0  0  0  0  0  0  0  0  0  0
   -7.8450   -1.2740   -2.2090 S   0  0  0  0  0  0  0  0  0  0  0  0
   -6.3040   -1.5180   -1.2090 C   0  0  0  0  0  0  0  0  0  0  0  0
   -5.1090   -2.1860   -1.7410 C   0  0  0  0  0  0  0  0  0  0  0  0
   -4.0120   -1.3130   -1.6740 O   0  0  0  0  0  0  0  0  0  0  0  0
   -4.0610   -0.1100   -2.3510 C   0  0  0  0  0  0  0  0  0  0  0  0
   -5.0940    0.1950   -3.0250 O   0  0  0  0  0  0  0  0  0  0  0  0
   -2.9270    0.8390   -2.3100 C   0  0  0  0  0  0  0  0  0  0  0  0
   -1.8850    0.4030   -1.4800 O   0  0  0  0  0  0  0  0  0  0  0  0
   -2.0930    0.2340   -0.1290 C   0  0  0  0  0  0  0  0  0  0  0  0
   -3.2930    0.4930    0.4910 C   0  0  0  0  0  0  0  0  0  0  0  0
   -3.4960    0.3230    1.8520 C   0  0  0  0  0  0  0  0  0  0  0  0
   -2.4190   -0.1250    2.5690 C   0  0  0  0  0  0  0  0  0  0  0  0
   -1.1690   -0.4060    1.9920 C   0  0  0  0  0  0  0  0  0  0  0  0
   -1.0110   -0.2240    0.6390 C   0  0  0  0  0  0  0  0  0  0  0  0
    0.1970   -0.4760   -0.0180 N   0  0  0  0  0  0  0  0  0  0  0  0
    1.4130   -0.9460    0.5300 C   0  0  0  0  0  0  0  0  0  0  0  0
    1.4930   -1.1900    1.7510 O   0  0  0  0  0  0  0  0  0  0  0  0
    2.6040   -1.1510   -0.3600 C   0  0  2  0  0  0  0  0  0  0  0  0
    2.2000   -2.2170   -1.3620 C   0  0  0  0  0  0  0  0  0  0  0  0
    3.7080   -1.6190    0.3530 O   0  0  0  0  0  0  0  0  0  0  0  0
    4.9230   -0.9410    0.3720 C   0  0  0  0  0  0  0  0  0  0  0  0
    4.9640    0.1240   -0.2980 O   0  0  0  0  0  0  0  0  0  0  0  0
    6.1010   -1.4160    1.1190 C   0  0  0  0  0  0  0  0  0  0  0  0
    7.1860   -0.5590    0.8700 O   0  0  0  0  0  0  0  0  0  0  0  0
    7.7690   -0.3640   -0.3480 C   0  0  0  0  0  0  0  0  0  0  0  0
    7.2960   -1.0570   -1.4210 C   0  0  0  0  0  0  0  0  0  0  0  0
    7.8820   -0.8710   -2.6750 C   0  0  0  0  0  0  0  0  0  0  0  0
    8.9250    0.0130   -2.7790 C   0  0  0  0  0  0  0  0  0  0  0  0
    9.3920    0.7130   -1.6530 C   0  0  0  0  0  0  0  0  0  0  0  0
    8.8290    0.5420   -0.4190 C   0  0  0  0  0  0  0  0  0  0  0  0
    9.2350    1.2010    0.7470 N   0  0  0  0  0  0  0  0  0  0  0  0
   10.2630    2.1570    0.8930 C   0  0  0  0  0  0  0  0  0  0  0  0
   10.9250    2.4980   -0.1040 O   0  0  0  0  0  0  0  0  0  0  0  0
   10.5920    2.7820    2.2070 C   0  0  0  0  0  0  0  0  0  0  0  0
   11.6270    3.6860    2.0140 O   0  0  0  0  0  0  0  0  0  0  0  0
   -6.6500   -0.9500   -0.0440 C   0  0  0  0  0  0  0  0  0  0  0  0
   -7.8620   -0.4000    0.1380 C   0  0  0  0  0  0  0  0  0  0  0  0
   -8.2330    0.2540    1.4250 C   0  0  0  0  0  0  0  0  0  0  0  0
   -7.4620    0.1440    2.4300 O   0  0  0  0  0  0  0  0  0  0  0  0
   -9.4530    1.0360    1.6200 C   0  0  0  0  0  0  0  0  0  0  0  0
   -9.4620    1.5190    3.0290 N   0  0  0  0  0  0  0  0  0  0  0  0
  -10.5790    2.2330    3.2180 O   0  0  0  0  0  0  0  0  0  0  0  0
  1  2  1  0
  2  3  1  0
  2 39  2  0
  3  4  1  0
  4  5  1  0
  4 38  2  0
  5  6  1  0
  6  7  1  0
  7  8  2  0
  7  9  1  0
  9 10  1  0
 10 11  1  0
 11 12  2  0
 11 16  1  0
 12 13  1  0
 13 14  2  0
 14 15  1  0
 15 16  2  0
 16 17  1  0
 17 18  1  0
 18 19  2  0
 18 20  1  0
 20 21  1  6
 20 22  1  0
 22 23  1  0
 23 24  2  0
 23 25  1  0
 25 26  1  0
 26 27  1  0
 27 28  2  0
 27 32  1  0
 28 29  1  0
 29 30  2  0
 30 31  1  0
 31 32  2  0
 32 33  1  0
 33 34  1  0
 34 35  2  0
 34 36  1  0
 36 37  1  0
 38 39  1  0
 39 40  1  0
 40 41  2  0
 40 42  1  0
 42 43  1  0
 43 44  1  0
M  END
