
     RDKit          3D

 43 45  0  0  0  0  0  0  0  0999 V2000
    1.3970   -3.4110   -2.0630 C   0  0  0  0  0  0  0  0  0  0  0  0
    1.3380   -3.0390   -0.6010 C   0  0  0  0  0  0  0  0  0  0  0  0
    0.6720   -1.8500   -0.3310 O   0  0  0  0  0  0  0  0  0  0  0  0
    0.9800   -0.5890   -0.7560 C   0  0  0  0  0  0  0  0  0  0  0  0
    2.0820   -0.3710   -1.5490 C   0  0  0  0  0  0  0  0  0  0  0  0
    2.4310    0.9060   -2.0040 C   0  0  0  0  0  0  0  0  0  0  0  0
    3.6080    1.1260   -2.8790 C   0  0  0  0  0  0  0  0  0  0  0  0
    4.3970   -0.4590   -3.1830 S   0  0  0  0  0  0  0  0  0  0  0  0
    5.2070   -1.1350   -1.7610 C   0  0  0  0  0  0  0  0  0  0  0  0
    5.6950   -2.3400   -1.7460 N   0  0  0  0  0  0  0  0  0  0  0  0
    6.2780   -2.5990   -0.4840 N   0  0  0  0  0  0  0  0  0  0  0  0
    6.6320   -1.2410   -0.0460 C   0  0  2  0  0  0  0  0  0  0  0  0
    7.7990   -0.7700   -0.8620 C   0  0  0  0  0  0  0  0  0  0  0  0
    6.8730   -1.1500    1.4130 C   0  0  0  0  0  0  0  0  0  0  0  0
    7.2320    0.2500    1.7980 C   0  0  0  0  0  0  0  0  0  0  0  0
    7.5080    0.3880    3.2810 C   0  0  0  0  0  0  0  0  0  0  0  0
    7.8260    1.7280    3.5200 O   0  0  0  0  0  0  0  0  0  0  0  0
    5.4560   -0.5780   -0.5100 O   0  0  0  0  0  0  0  0  0  0  0  0
    1.6530    1.9740   -1.6490 C   0  0  0  0  0  0  0  0  0  0  0  0
    1.9690    3.3140   -2.0880 C   0  0  0  0  0  0  0  0  0  0  0  0
    1.1580    4.2580   -1.7700 O   0  0  0  0  0  0  0  0  0  0  0  0
    3.0550    3.7080   -2.8200 O   0  0  0  0  0  0  0  0  0  0  0  0
    3.3030    5.0430   -3.2190 C   0  0  0  0  0  0  0  0  0  0  0  0
    0.5280    1.7530   -0.8420 C   0  0  0  0  0  0  0  0  0  0  0  0
    0.1900    0.5100   -0.4020 C   0  0  0  0  0  0  0  0  0  0  0  0
   -0.9120    0.2370    0.3930 O   0  0  0  0  0  0  0  0  0  0  0  0
   -2.1320   -0.1150   -0.1390 C   0  0  0  0  0  0  0  0  0  0  0  0
   -2.2580   -0.1830   -1.3870 O   0  0  0  0  0  0  0  0  0  0  0  0
   -3.3080   -0.4240    0.6380 N   0  0  0  0  0  0  0  0  0  0  0  0
   -4.5330   -0.7860   -0.0370 C   0  0  0  0  0  0  0  0  0  0  0  0
   -5.7720   -0.5420    0.6970 C   0  0  0  0  0  0  0  0  0  0  0  0
   -5.7950   -0.3930    2.0580 C   0  0  0  0  0  0  0  0  0  0  0  0
   -6.9930   -0.1760    2.6860 C   0  0  0  0  0  0  0  0  0  0  0  0
   -7.0730   -0.0190    4.0690 O   0  0  0  0  0  0  0  0  0  0  0  0
   -5.9300   -0.0770    4.8820 C   0  0  0  0  0  0  0  0  0  0  0  0
   -8.1900   -0.1060    1.9410 C   0  0  0  0  0  0  0  0  0  0  0  0
   -9.3390    0.1110    2.6280 O   0  0  0  0  0  0  0  0  0  0  0  0
   -8.1890   -0.2520    0.5820 C   0  0  0  0  0  0  0  0  0  0  0  0
   -9.3490   -0.2070   -0.2830 C   0  0  0  0  0  0  0  0  0  0  0  0
   -9.1880   -0.3600   -1.5210 O   0  0  0  0  0  0  0  0  0  0  0  0
  -10.6420   -0.0090    0.1330 O   0  0  0  0  0  0  0  0  0  0  0  0
  -11.7420    0.0220   -0.7700 C   0  0  0  0  0  0  0  0  0  0  0  0
   -6.9600   -0.4710   -0.0230 C   0  0  0  0  0  0  0  0  0  0  0  0
  1  2  1  0
  2  3  1  0
  3  4  1  0
  4  5  2  0
  4 25  1  0
  5  6  1  0
  6  7  1  0
  6 19  2  0
  7  8  1  0
  8  9  1  0
  9 10  2  0
  9 18  1  0
 10 11  1  0
 11 12  1  0
 12 13  1  6
 12 14  1  0
 12 18  1  0
 14 15  1  0
 15 16  1  0
 16 17  1  0
 19 20  1  0
 19 24  1  0
 20 21  2  0
 20 22  1  0
 22 23  1  0
 24 25  2  0
 25 26  1  0
 26 27  1  0
 27 28  2  0
 27 29  1  0
 29 30  1  0
 30 31  1  0
 31 32  2  0
 31 43  1  0
 32 33  1  0
 33 34  1  0
 33 36  2  0
 34 35  1  0
 36 37  1  0
 36 38  1  0
 38 39  1  0
 38 43  2  0
 39 40  2  0
 39 41  1  0
 41 42  1  0
M  END
