
     RDKit          3D

 44 47  0  0  0  0  0  0  0  0999 V2000
    2.9280   -0.2420   -2.6800 C   0  0  0  0  0  0  0  0  0  0  0  0
    2.8320    1.0210   -1.8220 C   0  0  2  0  0  0  0  0  0  0  0  0
    3.4100    2.1620   -2.5800 C   0  0  0  0  0  0  0  0  0  0  0  0
    3.6560    0.8240   -0.6170 N   0  0  0  0  0  0  0  0  0  0  0  0
    4.9980    0.4500   -0.7250 C   0  0  0  0  0  0  0  0  0  0  0  0
    5.4310    0.2790   -1.9390 O   0  0  0  0  0  0  0  0  0  0  0  0
    5.9460    0.2390    0.3720 C   0  0  0  0  0  0  0  0  0  0  0  0
    5.5660    0.4340    1.5650 O   0  0  0  0  0  0  0  0  0  0  0  0
    7.2570   -0.1680    0.1290 N   0  0  0  0  0  0  0  0  0  0  0  0
    8.3100   -0.4130    1.0930 C   0  0  2  0  0  0  0  0  0  0  0  0
    9.2130    0.8440    0.9270 C   0  0  0  0  0  0  0  0  0  0  0  0
   10.4510    0.6800    1.7350 C   0  0  0  0  0  0  0  0  0  0  0  0
   11.2270   -0.5500    1.3230 C   0  0  0  0  0  0  0  0  0  0  0  0
   10.3140   -1.7470    1.6030 C   0  0  2  0  0  0  0  0  0  0  0  0
   10.9950   -2.9560    1.3640 O   0  0  0  0  0  0  0  0  0  0  0  0
    9.1460   -1.5910    0.6640 C   0  0  0  0  0  0  0  0  0  0  0  0
    1.4120    1.2490   -1.4930 C   0  0  0  0  0  0  0  0  0  0  0  0
    0.8020    2.4530   -1.6830 C   0  0  0  0  0  0  0  0  0  0  0  0
   -0.5610    2.6420   -1.4380 C   0  0  0  0  0  0  0  0  0  0  0  0
   -1.2920    1.5300   -0.9800 C   0  0  0  0  0  0  0  0  0  0  0  0
   -0.7350    0.3050   -0.7770 C   0  0  0  0  0  0  0  0  0  0  0  0
   -1.4740   -0.9250   -0.4200 C   0  0  0  0  0  0  0  0  0  0  0  0
   -0.8400   -1.9970   -0.2870 O   0  0  0  0  0  0  0  0  0  0  0  0
   -2.8710   -0.9710   -0.2300 N   0  0  0  0  0  0  0  0  0  0  0  0
   -3.5340   -2.1450   -0.7160 C   0  0  0  0  0  0  0  0  0  0  0  0
   -3.6850   -3.2350    0.2900 C   0  0  0  0  0  0  0  0  0  0  0  0
   -4.3450   -4.4400   -0.3790 C   0  0  0  0  0  0  0  0  0  0  0  0
   -4.6410   -5.7180    0.8530 S   0  0  0  0  0  0  0  0  0  0  0  0
   -5.9340   -5.1920    2.0360 C   0  0  1  0  0  0  0  0  0  0  0  0
   -7.2760   -4.9820    1.3300 C   0  0  0  0  0  0  0  0  0  0  0  0
   -7.0530   -6.0730    2.2560 N   0  0  0  0  0  0  0  0  0  0  0  0
   -3.6970    0.0570    0.2950 C   0  0  0  0  0  0  0  0  0  0  0  0
   -3.3860    0.5570    1.5840 C   0  0  0  0  0  0  0  0  0  0  0  0
   -4.1710    1.5340    2.1300 C   0  0  0  0  0  0  0  0  0  0  0  0
   -5.2720    2.0730    1.4910 C   0  0  0  0  0  0  0  0  0  0  0  0
   -5.5810    1.5870    0.2300 C   0  0  0  0  0  0  0  0  0  0  0  0
   -6.7620    2.1460   -0.5060 C   0  0  1  0  0  0  0  0  0  0  0  0
   -8.0460    1.5400    0.0130 C   0  0  0  0  0  0  0  0  0  0  0  0
   -8.2280    1.8030    1.3650 O   0  0  0  0  0  0  0  0  0  0  0  0
   -6.7340    3.6290   -0.4590 C   0  0  0  0  0  0  0  0  0  0  0  0
   -7.8860    4.2800   -1.1670 C   0  0  0  0  0  0  0  0  0  0  0  0
   -7.7130    5.6720   -0.9990 O   0  0  0  0  0  0  0  0  0  0  0  0
   -4.7900    0.6040   -0.3210 C   0  0  0  0  0  0  0  0  0  0  0  0
    0.6300    0.1880   -1.0400 C   0  0  0  0  0  0  0  0  0  0  0  0
  2  1  1  6
  2  3  1  0
  2  4  1  0
  2 17  1  0
  4  5  1  0
  5  6  2  0
  5  7  1  0
  7  8  2  0
  7  9  1  0
 10  9  1  6
 10 11  1  0
 10 16  1  0
 11 12  1  0
 12 13  1  0
 13 14  1  0
 14 15  1  6
 14 16  1  0
 17 18  2  0
 17 44  1  0
 18 19  1  0
 19 20  2  0
 20 21  1  0
 21 22  1  0
 21 44  2  0
 22 23  2  0
 22 24  1  0
 24 25  1  0
 24 32  1  0
 25 26  1  0
 26 27  1  0
 27 28  1  0
 29 28  1  6
 29 30  1  0
 29 31  1  0
 30 31  1  0
 32 33  2  0
 32 43  1  0
 33 34  1  0
 34 35  2  0
 35 36  1  0
 36 37  1  0
 36 43  2  0
 37 38  1  1
 37 40  1  0
 38 39  1  0
 40 41  1  0
 41 42  1  0
M  END
