
     RDKit          3D

 44 48  0  0  0  0  0  0  0  0999 V2000
    6.2620   -1.8520    0.8830 C   0  0  0  0  0  0  0  0  0  0  0  0
    6.6280   -1.2400   -0.4900 C   0  0  2  0  0  0  0  0  0  0  0  0
    6.0760   -2.2230   -1.5260 C   0  0  0  0  0  0  0  0  0  0  0  0
    8.0400   -1.1070   -0.6060 N   0  0  0  0  0  0  0  0  0  0  0  0
    8.6930    0.1300   -0.7620 C   0  0  0  0  0  0  0  0  0  0  0  0
   10.0570    0.1750   -0.8640 N   0  0  0  0  0  0  0  0  0  0  0  0
   10.6730    1.3580   -1.0130 C   0  0  0  0  0  0  0  0  0  0  0  0
   12.0970    1.4040   -1.1190 N   0  0  0  0  0  0  0  0  0  0  0  0
    9.9570    2.5050   -1.0640 N   0  0  0  0  0  0  0  0  0  0  0  0
    8.5940    2.4830   -0.9650 C   0  0  0  0  0  0  0  0  0  0  0  0
    7.9080    3.5160   -1.0070 O   0  0  0  0  0  0  0  0  0  0  0  0
    7.9460    1.2800   -0.8110 C   0  0  0  0  0  0  0  0  0  0  0  0
    6.5560    1.1450   -0.7000 N   0  0  0  0  0  0  0  0  0  0  0  0
    5.9300    0.0460   -0.5560 C   0  0  0  0  0  0  0  0  0  0  0  0
    4.4390    0.0450   -0.4520 C   0  0  0  0  0  0  0  0  0  0  0  0
    3.8120   -1.0270   -0.3120 O   0  0  0  0  0  0  0  0  0  0  0  0
    3.7510    1.2810   -0.5150 N   0  0  0  0  0  0  0  0  0  0  0  0
    2.3210    1.3910   -0.4250 C   0  0  0  0  0  0  0  0  0  0  0  0
    1.8750    0.8440    0.8640 C   0  0  0  0  0  0  0  0  0  0  0  0
    2.6950    0.3830    1.6740 O   0  0  0  0  0  0  0  0  0  0  0  0
    0.4920    0.8430    1.1860 N   0  0  0  0  0  0  0  0  0  0  0  0
    0.0460    0.3090    2.4460 C   0  0  0  0  0  0  0  0  0  0  0  0
   -1.4240    0.3670    2.6110 C   0  0  0  0  0  0  0  0  0  0  0  0
   -2.2100   -0.6290    1.3540 S   0  0  1  0  0  0  0  0  0  0  0  0
   -1.8700   -0.1880   -0.0190 O   0  0  0  0  0  0  0  0  0  0  0  0
   -1.6930   -2.0290    1.5250 O   0  0  0  0  0  0  0  0  0  0  0  0
   -3.9710   -0.5630    1.5580 C   0  0  0  0  0  0  0  0  0  0  0  0
   -4.6090   -1.4410    0.4860 C   0  0  1  0  0  0  0  0  0  0  0  0
   -5.9640   -1.4160    0.6130 O   0  0  0  0  0  0  0  0  0  0  0  0
   -6.5920   -1.3030   -0.5750 C   0  0  1  0  0  0  0  0  0  0  0  0
   -7.4920   -0.1390   -0.6350 N   0  0  0  0  0  0  0  0  0  0  0  0
   -7.2290    1.0690   -1.1550 C   0  0  0  0  0  0  0  0  0  0  0  0
   -8.3070    1.8630   -1.0170 N   0  0  0  0  0  0  0  0  0  0  0  0
   -9.2750    1.1770   -0.4070 C   0  0  0  0  0  0  0  0  0  0  0  0
  -10.5520    1.5040   -0.0300 C   0  0  0  0  0  0  0  0  0  0  0  0
  -11.1310    2.7720   -0.2480 N   0  0  0  0  0  0  0  0  0  0  0  0
  -11.2920    0.5590    0.5820 N   0  0  0  0  0  0  0  0  0  0  0  0
  -10.8050   -0.6830    0.8270 C   0  0  0  0  0  0  0  0  0  0  0  0
   -9.5540   -0.9600    0.4420 N   0  0  0  0  0  0  0  0  0  0  0  0
   -8.7510   -0.0850   -0.1700 C   0  0  0  0  0  0  0  0  0  0  0  0
   -5.5790   -1.2030   -1.6630 C   0  0  2  0  0  0  0  0  0  0  0  0
   -5.4630   -2.4350   -2.3400 O   0  0  0  0  0  0  0  0  0  0  0  0
   -4.2910   -1.0010   -0.9050 C   0  0  2  0  0  0  0  0  0  0  0  0
   -3.2670   -1.7900   -1.4600 O   0  0  0  0  0  0  0  0  0  0  0  0
  2  1  1  1
  2  3  1  0
  2  4  1  0
  2 14  1  0
  4  5  1  0
  5  6  1  0
  5 12  2  0
  6  7  2  0
  7  8  1  0
  7  9  1  0
  9 10  1  0
 10 11  2  0
 10 12  1  0
 12 13  1  0
 13 14  2  0
 14 15  1  0
 15 16  2  0
 15 17  1  0
 17 18  1  0
 18 19  1  0
 19 20  2  0
 19 21  1  0
 21 22  1  0
 22 23  1  0
 24 23  1  1
 24 25  2  0
 24 26  2  0
 24 27  1  0
 28 27  1  1
 28 29  1  0
 28 43  1  0
 29 30  1  0
 30 31  1  1
 30 41  1  0
 31 32  1  0
 31 40  1  0
 32 33  2  0
 33 34  1  0
 34 35  2  0
 34 40  1  0
 35 36  1  0
 35 37  1  0
 37 38  2  0
 38 39  1  0
 39 40  2  0
 41 42  1  1
 41 43  1  0
 43 44  1  6
M  END
