
     RDKit          3D

 23 25  0  0  0  0  0  0  0  0999 V2000
    3.1390   -2.5600    0.1130 C   0  0  0  0  0  0  0  0  0  0  0  0
    2.6240   -1.1940   -0.0580 C   0  0  0  0  0  0  0  0  0  0  0  0
    1.3070   -0.8390   -0.0410 C   0  0  0  0  0  0  0  0  0  0  0  0
    0.2170   -1.7890    0.1540 C   0  0  0  0  0  0  0  0  0  0  0  0
    0.4950   -2.9800    0.3770 O   0  0  0  0  0  0  0  0  0  0  0  0
   -1.1770   -1.4190    0.1010 N   0  0  0  0  0  0  0  0  0  0  0  0
   -1.7800   -0.1340   -0.0110 C   0  0  0  0  0  0  0  0  0  0  0  0
   -3.2730   -0.1430    0.0790 C   0  0  2  0  0  0  0  0  0  0  0  0
   -3.7170   -0.7090    1.4110 C   0  0  0  0  0  0  0  0  0  0  0  0
   -3.8580   -1.0720   -0.9910 C   0  0  0  0  0  0  0  0  0  0  0  0
   -3.8650    1.2050   -0.1320 C   0  0  0  0  0  0  0  0  0  0  0  0
   -1.2050    1.0210   -0.1790 N   0  0  0  0  0  0  0  0  0  0  0  0
    0.1710    1.3650   -0.3010 C   0  0  0  0  0  0  0  0  0  0  0  0
    0.3800    2.7230   -0.5090 C   0  0  0  0  0  0  0  0  0  0  0  0
    1.6850    3.2050   -0.6470 C   0  0  0  0  0  0  0  0  0  0  0  0
    1.9760    4.9010   -0.9080 Cl  0  0  0  0  0  0  0  0  0  0  0  0
    2.7840    2.3600   -0.5820 C   0  0  0  0  0  0  0  0  0  0  0  0
    4.4150    2.9730   -0.7560 Cl  0  0  0  0  0  0  0  0  0  0  0  0
    2.5540    1.0040   -0.3730 C   0  0  0  0  0  0  0  0  0  0  0  0
    1.2680    0.5250   -0.2370 C   0  0  0  0  0  0  0  0  0  0  0  0
    3.3600   -0.0640   -0.2610 N   0  0  0  0  0  0  0  0  0  0  0  0
    4.7790   -0.0430   -0.3380 C   0  0  0  0  0  0  0  0  0  0  0  0
    5.4680    0.4570    0.6300 N   0  0  0  0  0  0  0  0  0  0  0  0
  1  2  1  0
  2  3  2  0
  2 21  1  0
  3  4  1  0
  3 20  1  0
  4  5  2  0
  4  6  1  0
  6  7  1  0
  7  8  1  0
  7 12  2  0
  8  9  1  1
  8 10  1  0
  8 11  1  0
 12 13  1  0
 13 14  2  0
 13 20  1  0
 14 15  1  0
 15 16  1  0
 15 17  2  0
 17 18  1  0
 17 19  1  0
 19 20  2  0
 19 21  1  0
 21 22  1  0
 22 23  2  0
M  END
