
     RDKit          3D

 23 25  0  0  0  0  0  0  0  0999 V2000
    6.4290    0.8820   -0.7750 C   0  0  0  0  0  0  0  0  0  0  0  0
    5.9100    0.4170    0.5770 C   0  0  0  0  0  0  0  0  0  0  0  0
    4.4430    0.2420    0.4520 C   0  0  0  0  0  0  0  0  0  0  0  0
    3.5900    1.2850    0.7180 C   0  0  0  0  0  0  0  0  0  0  0  0
    2.2280    1.0690    0.5860 C   0  0  0  0  0  0  0  0  0  0  0  0
    1.8010   -0.2010    0.1890 C   0  0  0  0  0  0  0  0  0  0  0  0
    0.5410   -0.6840   -0.0170 C   0  0  0  0  0  0  0  0  0  0  0  0
   -0.7420    0.0640    0.1400 C   0  0  0  0  0  0  0  0  0  0  0  0
   -0.7260    1.2590    0.4940 O   0  0  0  0  0  0  0  0  0  0  0  0
   -1.9770   -0.5710   -0.1100 N   0  0  0  0  0  0  0  0  0  0  0  0
   -3.2680   -0.0110   -0.0090 C   0  0  0  0  0  0  0  0  0  0  0  0
   -3.5060    1.2270    0.3450 C   0  0  0  0  0  0  0  0  0  0  0  0
   -4.8650    1.8020    0.4480 C   0  0  0  0  0  0  0  0  0  0  0  0
   -5.9340    1.0980    0.1860 C   0  0  0  0  0  0  0  0  0  0  0  0
   -5.8510   -0.2850   -0.2190 C   0  0  2  0  0  0  0  0  0  0  0  0
   -6.8190   -1.3850    0.7830 Cl  0  0  0  0  0  0  0  0  0  0  0  0
   -4.4420   -0.8210   -0.3080 C   0  0  0  0  0  0  0  0  0  0  0  0
   -4.3210   -2.0920   -0.6780 C   0  0  0  0  0  0  0  0  0  0  0  0
   -5.7460   -3.0810   -1.0420 Cl  0  0  0  0  0  0  0  0  0  0  0  0
    0.6560   -1.9680   -0.3920 N   0  0  0  0  0  0  0  0  0  0  0  0
    1.9430   -2.2760   -0.4180 C   0  0  0  0  0  0  0  0  0  0  0  0
    2.6610   -1.1930   -0.0620 N   0  0  0  0  0  0  0  0  0  0  0  0
    3.9610   -0.9500    0.0750 N   0  0  0  0  0  0  0  0  0  0  0  0
  1  2  1  0
  2  3  1  0
  3  4  1  0
  3 23  2  0
  4  5  2  0
  5  6  1  0
  6  7  2  0
  6 22  1  0
  7  8  1  0
  7 20  1  0
  8  9  2  0
  8 10  1  0
 10 11  1  0
 11 12  2  0
 11 17  1  0
 12 13  1  0
 13 14  2  0
 14 15  1  0
 15 16  1  1
 15 17  1  0
 17 18  2  3
 18 19  1  0
 20 21  2  0
 21 22  1  0
 22 23  1  0
M  END
