
     RDKit          3D

 23 25  0  0  0  0  0  0  0  0999 V2000
   -4.2210    2.5510   -1.2580 C   0  0  0  0  0  0  0  0  0  0  0  0
   -2.9140    2.0170   -1.8330 C   0  0  0  0  0  0  0  0  0  0  0  0
   -2.2650    1.0630   -0.8520 C   0  0  0  0  0  0  0  0  0  0  0  0
   -0.9550    0.6040   -1.5560 C   0  0  1  0  0  0  0  0  0  0  0  0
   -0.4080    2.0560   -1.6780 C   0  0  0  0  0  0  0  0  0  0  0  0
    0.0130    3.2060   -1.7620 N   0  0  0  0  0  0  0  0  0  0  0  0
    0.0070   -0.0010   -0.6260 C   0  0  0  0  0  0  0  0  0  0  0  0
    0.7140    0.6840    0.2690 N   0  0  0  0  0  0  0  0  0  0  0  0
    1.6950    0.2280    1.0440 C   0  0  0  0  0  0  0  0  0  0  0  0
    2.3500    1.1070    1.9220 C   0  0  0  0  0  0  0  0  0  0  0  0
    1.8990    2.8140    2.0200 Cl  0  0  0  0  0  0  0  0  0  0  0  0
    3.3890    0.5970    2.7030 C   0  0  0  0  0  0  0  0  0  0  0  0
    3.7360   -0.7490    2.5910 C   0  0  0  0  0  0  0  0  0  0  0  0
    5.0700   -1.3120    3.6180 Cl  0  0  0  0  0  0  0  0  0  0  0  0
    3.0670   -1.5620    1.7270 C   0  0  0  0  0  0  0  0  0  0  0  0
    2.0490   -1.0980    0.9420 C   0  0  0  0  0  0  0  0  0  0  0  0
    1.3880   -1.9050    0.0500 C   0  0  0  0  0  0  0  0  0  0  0  0
    1.6340   -3.2220   -0.0200 N   0  0  0  0  0  0  0  0  0  0  0  0
    0.9200   -4.0160   -0.8220 N   0  0  0  0  0  0  0  0  0  0  0  0
   -0.0590   -3.5710   -1.5890 C   0  0  0  0  0  0  0  0  0  0  0  0
   -0.3510   -2.1970   -1.5490 C   0  0  0  0  0  0  0  0  0  0  0  0
   -1.2770   -1.7030   -2.2620 O   0  0  0  0  0  0  0  0  0  0  0  0
    0.3610   -1.3630   -0.7400 C   0  0  0  0  0  0  0  0  0  0  0  0
  1  2  1  0
  2  3  1  0
  4  3  1  1
  4  5  1  0
  4  7  1  0
  5  6  3  0
  7  8  2  0
  7 23  1  0
  8  9  1  0
  9 10  2  0
  9 16  1  0
 10 11  1  0
 10 12  1  0
 12 13  2  0
 13 14  1  0
 13 15  1  0
 15 16  2  0
 16 17  1  0
 17 18  1  0
 17 23  2  0
 18 19  1  0
 19 20  2  0
 20 21  1  0
 21 22  2  0
 21 23  1  0
M  END
