
     RDKit          3D

 23 25  0  0  0  0  0  0  0  0999 V2000
   -2.7990    4.2240   -0.4920 C   0  0  0  0  0  0  0  0  0  0  0  0
   -3.2800    3.3080    0.5850 C   0  0  0  0  0  0  0  0  0  0  0  0
   -2.6470    1.9220    0.4990 C   0  0  0  0  0  0  0  0  0  0  0  0
   -1.2250    2.0420    0.6230 N   0  0  0  0  0  0  0  0  0  0  0  0
   -0.2680    1.0060    0.4930 C   0  0  0  0  0  0  0  0  0  0  0  0
    1.0900    1.1590    0.6550 N   0  0  0  0  0  0  0  0  0  0  0  0
    1.7030   -0.0090    0.4500 C   0  0  0  0  0  0  0  0  0  0  0  0
    3.1400   -0.3110    0.5180 C   0  0  0  0  0  0  0  0  0  0  0  0
    3.6050   -1.5080    0.2920 C   0  0  0  0  0  0  0  0  0  0  0  0
    5.0130   -1.8550    0.3460 C   0  0  2  0  0  0  0  0  0  0  0  0
    5.2700   -3.2900    1.4180 Cl  0  0  0  0  0  0  0  0  0  0  0  0
    5.9460   -0.7720    0.6950 C   0  0  0  0  0  0  0  0  0  0  0  0
    5.3550    0.5300    0.9300 C   0  0  0  0  0  0  0  0  0  0  0  0
    6.3800    1.9170    1.3470 Cl  0  0  0  0  0  0  0  0  0  0  0  0
    4.0750    0.7620    0.8550 C   0  0  0  0  0  0  0  0  0  0  0  0
    0.7310   -0.8840    0.1620 N   0  0  0  0  0  0  0  0  0  0  0  0
   -0.4540   -0.2670    0.1890 N   0  0  0  0  0  0  0  0  0  0  0  0
   -1.6640   -0.9740   -0.0960 C   0  0  2  0  0  0  0  0  0  0  0  0
   -1.4500   -2.4810    0.1540 C   0  0  0  0  0  0  0  0  0  0  0  0
   -2.6900   -3.1800   -0.3160 C   0  0  0  0  0  0  0  0  0  0  0  0
   -3.6200   -2.3650   -0.9090 O   0  0  0  0  0  0  0  0  0  0  0  0
   -3.1310   -1.5970   -1.9450 C   0  0  0  0  0  0  0  0  0  0  0  0
   -1.8510   -0.8950   -1.6210 C   0  0  0  0  0  0  0  0  0  0  0  0
  1  2  1  0
  2  3  1  0
  3  4  1  0
  4  5  1  0
  5  6  2  0
  5 17  1  0
  6  7  1  0
  7  8  1  0
  7 16  2  0
  8  9  2  0
  8 15  1  0
  9 10  1  0
 10 11  1  1
 10 12  1  0
 12 13  1  0
 13 14  1  0
 13 15  2  0
 16 17  1  0
 18 17  1  6
 18 19  1  0
 18 23  1  0
 19 20  1  0
 20 21  1  0
 21 22  1  0
 22 23  1  0
M  END
