
     RDKit          3D

 10 10  0  0  0  0  0  0  0  0999 V2000
    2.2760   -0.8790   -0.4760 O   0  0  0  0  0  0  0  0  0  0  0  0
    1.1960   -0.2490    0.0720 C   0  0  1  0  0  0  0  0  0  0  0  0
    1.1160    1.2160   -0.2800 C   0  0  0  0  0  0  0  0  0  0  0  0
    0.0710    1.8240    0.3660 O   0  0  0  0  0  0  0  0  0  0  0  0
   -1.1580    1.2700    0.1540 C   0  0  0  0  0  0  0  0  0  0  0  0
   -1.1730   -0.1890    0.5340 C   0  0  2  0  0  0  0  0  0  0  0  0
   -0.7520   -0.3650    1.8460 O   0  0  0  0  0  0  0  0  0  0  0  0
   -0.1320   -0.8700   -0.3650 C   0  0  1  0  0  0  0  0  0  0  0  0
   -0.4270   -0.5490   -1.6920 O   0  0  0  0  0  0  0  0  0  0  0  0
   -0.1010   -2.2320   -0.1820 O   0  0  0  0  0  0  0  0  0  0  0  0
  2  1  1  6
  2  3  1  0
  2  8  1  0
  3  4  1  0
  4  5  1  0
  5  6  1  0
  6  7  1  1
  6  8  1  0
  8  9  1  6
  8 10  1  0
M  END
