
     RDKit          3D

  9  9  0  0  0  0  0  0  0  0999 V2000
    2.4760   -0.9180   -0.3220 C   0  0  0  0  0  0  0  0  0  0  0  0
    1.5700   -0.1260    0.3330 O   0  0  0  0  0  0  0  0  0  0  0  0
    0.2830   -0.1760   -0.0980 C   0  0  2  0  0  0  0  0  0  0  0  0
   -0.2760    1.1270   -0.5790 C   0  0  1  0  0  0  0  0  0  0  0  0
   -0.6090    1.0700   -1.9530 O   0  0  0  0  0  0  0  0  0  0  0  0
   -1.4760    1.3460    0.0930 O   0  0  0  0  0  0  0  0  0  0  0  0
   -1.4280    0.6490    1.2780 C   0  0  0  0  0  0  0  0  0  0  0  0
   -0.7160   -0.6390    0.9270 C   0  0  1  0  0  0  0  0  0  0  0  0
   -1.6920   -1.4730    0.3460 O   0  0  0  0  0  0  0  0  0  0  0  0
  1  2  1  0
  3  2  1  1
  3  4  1  0
  3  8  1  0
  4  5  1  6
  4  6  1  0
  6  7  1  0
  7  8  1  0
  8  9  1  6
M  END
