
     RDKit          3D

  9  9  0  0  0  0  0  0  0  0999 V2000
   -2.2750    0.5150    0.6960 O   0  0  0  0  0  0  0  0  0  0  0  0
   -1.9200    0.0930   -0.5860 C   0  0  0  0  0  0  0  0  0  0  0  0
   -0.3900    0.0270   -0.6810 C   0  0  1  0  0  0  0  0  0  0  0  0
    0.0810    1.2880   -0.4320 O   0  0  0  0  0  0  0  0  0  0  0  0
    1.4270    1.3840   -0.2060 C   0  0  0  0  0  0  0  0  0  0  0  0
    2.0140    0.2490    0.5740 C   0  0  0  0  0  0  0  0  0  0  0  0
    1.0290   -0.5370    1.1750 O   0  0  0  0  0  0  0  0  0  0  0  0
    0.1390   -1.0330    0.2270 C   0  0  1  0  0  0  0  0  0  0  0  0
   -0.9070   -1.6240    0.9080 O   0  0  0  0  0  0  0  0  0  0  0  0
  1  2  1  0
  3  2  1  1
  3  4  1  0
  3  8  1  0
  4  5  1  0
  5  6  1  0
  6  7  1  0
  7  8  1  0
  8  9  1  1
M  END
