
     RDKit          3D

 28 29  0  0  0  0  0  0  0  0999 V2000
    1.7550   -5.1430   -0.3200 N   0  0  0  0  0  0  0  0  0  0  0  0
    2.5360   -4.0860   -1.4200 S   0  0  2  0  0  0  0  0  0  0  0  0
    1.9220   -4.2520   -2.7650 O   0  0  0  0  0  0  0  0  0  0  0  0
    3.9870   -4.4500   -1.5110 O   0  0  0  0  0  0  0  0  0  0  0  0
    2.3710   -2.4400   -0.8350 C   0  0  0  0  0  0  0  0  0  0  0  0
    3.3700   -1.9790    0.0070 C   0  0  0  0  0  0  0  0  0  0  0  0
    4.4200   -2.7690    0.3570 F   0  0  0  0  0  0  0  0  0  0  0  0
    3.3110   -0.7030    0.5030 C   0  0  0  0  0  0  0  0  0  0  0  0
    4.2690   -0.2080    1.3330 F   0  0  0  0  0  0  0  0  0  0  0  0
    2.2430    0.1160    0.1540 C   0  0  0  0  0  0  0  0  0  0  0  0
    2.2590    1.7480    0.7580 S   0  0  2  0  0  0  0  0  0  0  0  0
    2.8930    1.7670    2.1180 O   0  0  0  0  0  0  0  0  0  0  0  0
    0.8640    2.2830    0.7720 O   0  0  0  0  0  0  0  0  0  0  0  0
    3.1750    2.8360   -0.3090 C   0  0  0  0  0  0  0  0  0  0  0  0
    3.1180    4.2160    0.3160 C   0  0  0  0  0  0  0  0  0  0  0  0
    3.6770    4.1880    1.5680 O   0  0  0  0  0  0  0  0  0  0  0  0
    1.2360   -0.3160   -0.6780 C   0  0  0  0  0  0  0  0  0  0  0  0
    0.0780    0.4250   -1.0190 N   0  0  0  0  0  0  0  0  0  0  0  0
   -1.2570    0.1360   -0.5490 C   0  0  1  0  0  0  0  0  0  0  0  0
   -1.2420    0.0100    0.9510 C   0  0  0  0  0  0  0  0  0  0  0  0
   -2.3540   -0.9180    1.4500 C   0  0  0  0  0  0  0  0  0  0  0  0
   -3.5870   -0.1220    1.7150 C   0  0  0  0  0  0  0  0  0  0  0  0
   -4.6530   -0.2290    0.6830 C   0  0  0  0  0  0  0  0  0  0  0  0
   -4.1430   -0.3070   -0.7380 C   0  0  0  0  0  0  0  0  0  0  0  0
   -3.5480    0.9430   -1.2500 C   0  0  0  0  0  0  0  0  0  0  0  0
   -2.1710    1.2780   -0.8890 C   0  0  0  0  0  0  0  0  0  0  0  0
    1.3140   -1.6290   -1.1790 C   0  0  0  0  0  0  0  0  0  0  0  0
    0.3510   -2.1030   -2.0040 F   0  0  0  0  0  0  0  0  0  0  0  0
  2  1  1  1
  2  3  2  0
  2  4  2  0
  2  5  1  0
  5  6  2  0
  5 27  1  0
  6  7  1  0
  6  8  1  0
  8  9  1  0
  8 10  2  0
 10 11  1  0
 10 17  1  0
 11 12  2  0
 11 13  2  0
 11 14  1  6
 14 15  1  0
 15 16  1  0
 17 18  1  0
 17 27  2  0
 19 18  1  1
 19 20  1  0
 19 26  1  0
 20 21  1  0
 21 22  1  0
 22 23  1  0
 23 24  1  0
 24 25  1  0
 25 26  1  0
 27 28  1  0
M  END
