
     RDKit          3D

 10 10  0  0  0  0  0  0  0  0999 V2000
   -2.6890   -1.2420    0.0860 O   0  0  0  0  0  0  0  0  0  0  0  0
   -1.7500   -0.3280    0.5600 C   0  0  0  0  0  0  0  0  0  0  0  0
   -0.8780    0.1500   -0.5820 C   0  0  2  0  0  0  0  0  0  0  0  0
   -0.2020   -0.8970   -1.1730 O   0  0  0  0  0  0  0  0  0  0  0  0
    0.8950   -1.3230   -0.4390 C   0  0  0  0  0  0  0  0  0  0  0  0
    1.8460   -0.1580   -0.1380 C   0  0  2  0  0  0  0  0  0  0  0  0
    2.9240   -0.6340    0.5720 O   0  0  0  0  0  0  0  0  0  0  0  0
    1.0900    0.7150    0.6760 O   0  0  0  0  0  0  0  0  0  0  0  0
    0.0800    1.2160   -0.1650 C   0  0  2  0  0  0  0  0  0  0  0  0
   -0.5540    2.3110    0.3910 O   0  0  0  0  0  0  0  0  0  0  0  0
  1  2  1  0
  3  2  1  1
  3  4  1  0
  3  9  1  0
  4  5  1  0
  5  6  1  0
  6  7  1  1
  6  8  1  0
  8  9  1  0
  9 10  1  1
M  END
