
     RDKit          3D

 24 24  0  0  0  0  0  0  0  0999 V2000
    4.3770    3.0700    1.5090 C   0  0  0  0  0  0  0  0  0  0  0  0
    3.2920    3.7290    1.3950 C   0  0  0  0  0  0  0  0  0  0  0  0
    1.9300    3.4550    1.0650 C   0  0  0  0  0  0  0  0  0  0  0  0
    1.1330    4.5790    0.9930 C   0  0  0  0  0  0  0  0  0  0  0  0
    1.7070    5.8900    1.2450 C   0  0  0  0  0  0  0  0  0  0  0  0
    1.2840    2.2740    0.6750 C   0  0  0  0  0  0  0  0  0  0  0  0
    1.4790    0.9760    0.6480 C   0  0  0  0  0  0  0  0  0  0  0  0
    0.3120    0.2770    0.0120 C   0  0  0  0  0  0  0  0  0  0  0  0
   -0.5970    1.0730   -0.4190 O   0  0  0  0  0  0  0  0  0  0  0  0
    0.0740   -1.0680   -0.1640 N   0  0  0  0  0  0  0  0  0  0  0  0
   -1.0980   -1.6730   -0.7750 C   0  0  0  0  0  0  0  0  0  0  0  0
   -2.2280   -0.9880   -1.1120 C   0  0  0  0  0  0  0  0  0  0  0  0
   -3.3680   -1.6000   -1.6630 C   0  0  0  0  0  0  0  0  0  0  0  0
   -4.5240   -0.7320   -1.9830 C   0  0  0  0  0  0  0  0  0  0  0  0
   -4.6540   -0.4520   -3.4730 C   0  0  0  0  0  0  0  0  0  0  0  0
   -3.3350   -2.9550   -1.8690 C   0  0  0  0  0  0  0  0  0  0  0  0
   -4.5390   -3.6330   -2.4550 C   0  0  0  0  0  0  0  0  0  0  0  0
   -2.2020   -3.6480   -1.5330 C   0  0  0  0  0  0  0  0  0  0  0  0
   -1.0610   -3.0460   -0.9830 C   0  0  0  0  0  0  0  0  0  0  0  0
    0.1240   -3.8800   -0.6730 C   0  0  0  0  0  0  0  0  0  0  0  0
    2.3450    0.2560    1.5010 C   0  0  0  0  0  0  0  0  0  0  0  0
    2.6810    0.8490    2.8930 C   0  0  0  0  0  0  0  0  0  0  0  0
    2.7380   -0.9870    1.4200 C   0  0  0  0  0  0  0  0  0  0  0  0
    3.6830   -1.5890    2.4650 C   0  0  0  0  0  0  0  0  0  0  0  0
  1  2  2  0
  2  3  1  0
  3  4  2  3
  3  6  1  0
  4  5  1  0
  6  7  2  3
  7  8  1  0
  7 21  1  0
  8  9  2  0
  8 10  1  0
 10 11  1  0
 11 12  2  0
 11 19  1  0
 12 13  1  0
 13 14  1  0
 13 16  2  0
 14 15  1  0
 16 17  1  0
 16 18  1  0
 18 19  2  0
 19 20  1  0
 21 22  1  0
 21 23  2  3
 23 24  1  0
M  END
