
     RDKit          3D

 24 25  0  0  0  0  0  0  0  0999 V2000
    6.6850   -1.4440   -2.4730 C   0  0  0  0  0  0  0  0  0  0  0  0
    5.8970   -1.7350   -1.2000 C   0  0  0  0  0  0  0  0  0  0  0  0
    5.9690   -0.6150   -0.2550 C   0  0  0  0  0  0  0  0  0  0  0  0
    4.9770    0.0880    0.2190 C   0  0  0  0  0  0  0  0  0  0  0  0
    3.5820   -0.0980   -0.0980 C   0  0  0  0  0  0  0  0  0  0  0  0
    2.5800    0.6390    0.4210 C   0  0  0  0  0  0  0  0  0  0  0  0
    1.2190    0.3290    0.0020 C   0  0  0  0  0  0  0  0  0  0  0  0
    0.0480    0.7950    0.3340 C   0  0  0  0  0  0  0  0  0  0  0  0
   -0.1480    1.8530    1.3390 C   0  0  0  0  0  0  0  0  0  0  0  0
   -1.1160    0.1930   -0.3520 C   0  0  0  0  0  0  0  0  0  0  0  0
   -0.7430   -0.9460   -1.3090 C   0  0  0  0  0  0  0  0  0  0  0  0
   -2.3770    0.4740   -0.2720 C   0  0  0  0  0  0  0  0  0  0  0  0
   -3.0260    1.5060    0.5380 C   0  0  0  0  0  0  0  0  0  0  0  0
   -3.8060    1.0260    1.7150 C   0  0  0  0  0  0  0  0  0  0  0  0
   -4.3780   -0.3530    1.5430 C   0  0  0  0  0  0  0  0  0  0  0  0
   -5.3130   -0.4400    0.3260 C   0  0  2  0  0  0  0  0  0  0  0  0
   -6.2850   -1.5590    0.6430 C   0  0  0  0  0  0  0  0  0  0  0  0
   -4.4640   -0.7730   -0.8470 C   0  0  0  0  0  0  0  0  0  0  0  0
   -5.0920   -1.6670   -1.8820 C   0  0  0  0  0  0  0  0  0  0  0  0
   -3.2370   -0.4030   -1.1180 N   0  0  0  0  0  0  0  0  0  0  0  0
    2.8730    1.7470    1.3180 C   0  0  0  0  0  0  0  0  0  0  0  0
    4.2780    2.3000    1.1330 C   0  0  0  0  0  0  0  0  0  0  0  0
    5.2340    1.1870    1.1830 C   0  0  0  0  0  0  0  0  0  0  0  0
    6.1850    1.1770    1.9790 O   0  0  0  0  0  0  0  0  0  0  0  0
  1  2  1  0
  2  3  1  0
  3  4  2  3
  4  5  1  0
  4 23  1  0
  5  6  2  0
  6  7  1  0
  6 21  1  0
  7  8  2  3
  8  9  1  0
  8 10  1  0
 10 11  1  0
 10 12  2  3
 12 13  1  0
 12 20  1  0
 13 14  1  0
 14 15  1  0
 15 16  1  0
 16 17  1  1
 16 18  1  0
 18 19  1  0
 18 20  2  0
 21 22  1  0
 22 23  1  0
 23 24  2  0
M  END
