
     RDKit          3D

 24 25  0  0  0  0  0  0  0  0999 V2000
    5.4620   -2.9350    0.7870 C   0  0  0  0  0  0  0  0  0  0  0  0
    4.3860   -1.8770    0.9290 C   0  0  0  0  0  0  0  0  0  0  0  0
    3.7970   -1.5880   -0.4290 C   0  0  0  0  0  0  0  0  0  0  0  0
    2.7380   -0.5630   -0.2540 C   0  0  0  0  0  0  0  0  0  0  0  0
    3.0540    0.7170   -0.4400 N   0  0  0  0  0  0  0  0  0  0  0  0
    2.1730    1.6610   -0.2500 C   0  0  0  0  0  0  0  0  0  0  0  0
    0.8700    1.3230    0.1560 C   0  0  0  0  0  0  0  0  0  0  0  0
    0.4350    0.0370    0.3680 C   0  0  0  0  0  0  0  0  0  0  0  0
   -0.9480   -0.2060    0.6840 C   0  0  0  0  0  0  0  0  0  0  0  0
   -1.9820   -0.0820   -0.4100 C   0  0  1  0  0  0  0  0  0  0  0  0
   -2.2290    1.0560   -1.0590 O   0  0  0  0  0  0  0  0  0  0  0  0
   -1.5470   -1.0270   -1.5980 C   0  0  0  0  0  0  0  0  0  0  0  0
   -2.5090   -0.9400   -2.7280 C   0  0  0  0  0  0  0  0  0  0  0  0
   -3.2910   -0.7000   -0.0010 C   0  0  0  0  0  0  0  0  0  0  0  0
   -3.9520   -0.1320    1.1990 C   0  0  0  0  0  0  0  0  0  0  0  0
   -5.2480   -0.9340    1.3930 C   0  0  0  0  0  0  0  0  0  0  0  0
    1.4700   -0.9030    0.1370 C   0  0  0  0  0  0  0  0  0  0  0  0
    1.0710   -2.3270    0.3760 C   0  0  0  0  0  0  0  0  0  0  0  0
   -0.1820    2.2560    0.5430 C   0  0  0  0  0  0  0  0  0  0  0  0
   -0.9800    1.7900    1.6850 C   0  0  0  0  0  0  0  0  0  0  0  0
   -0.3660    3.4640   -0.0190 C   0  0  0  0  0  0  0  0  0  0  0  0
    0.4190    4.1060   -1.1100 C   0  0  0  0  0  0  0  0  0  0  0  0
    1.8850    4.0560   -0.8930 C   0  0  0  0  0  0  0  0  0  0  0  0
    2.6380    3.0350   -0.5320 C   0  0  0  0  0  0  0  0  0  0  0  0
  1  2  1  0
  2  3  1  0
  3  4  1  0
  4  5  2  0
  4 17  1  0
  5  6  1  0
  6  7  2  0
  6 24  1  0
  7  8  1  0
  7 19  1  0
  8  9  1  0
  8 17  2  0
  9 10  1  0
 10 11  1  6
 10 12  1  0
 10 14  1  0
 12 13  1  0
 14 15  1  0
 15 16  1  0
 17 18  1  0
 19 20  1  0
 19 21  2  0
 21 22  1  0
 22 23  1  0
 23 24  2  0
M  END
