
     RDKit          3D

 24 24  0  0  0  0  0  0  0  0999 V2000
   -5.3350    2.6480    2.0300 C   0  0  0  0  0  0  0  0  0  0  0  0
   -5.6010    1.4900    1.3590 C   0  0  0  0  0  0  0  0  0  0  0  0
   -4.5650    0.8970    0.5350 C   0  0  0  0  0  0  0  0  0  0  0  0
   -4.7310   -0.2620   -0.1760 C   0  0  0  0  0  0  0  0  0  0  0  0
   -6.0670   -0.7960    0.0010 C   0  0  0  0  0  0  0  0  0  0  0  0
   -6.6090   -1.8990   -0.4150 C   0  0  0  0  0  0  0  0  0  0  0  0
   -8.0400   -2.2950   -0.1230 C   0  0  0  0  0  0  0  0  0  0  0  0
   -3.6070   -0.8020   -0.8760 C   0  0  0  0  0  0  0  0  0  0  0  0
   -3.8700   -1.8370   -1.7510 C   0  0  0  0  0  0  0  0  0  0  0  0
   -2.2310   -0.5160   -0.7920 C   0  0  0  0  0  0  0  0  0  0  0  0
   -1.3480    0.2010   -0.1970 C   0  0  0  0  0  0  0  0  0  0  0  0
    0.0630    0.0100   -0.6430 C   0  0  0  0  0  0  0  0  0  0  0  0
    0.2550   -0.6830   -1.6800 O   0  0  0  0  0  0  0  0  0  0  0  0
    1.2120    0.5270   -0.0370 N   0  0  0  0  0  0  0  0  0  0  0  0
    2.5030    0.4410   -0.6220 C   0  0  0  0  0  0  0  0  0  0  0  0
    3.7250    0.3020    0.0940 C   0  0  0  0  0  0  0  0  0  0  0  0
    4.1300   -0.9340    0.6060 C   0  0  0  0  0  0  0  0  0  0  0  0
    5.4260   -1.2400    0.9860 C   0  0  0  0  0  0  0  0  0  0  0  0
    5.9000   -2.5740    1.4860 C   0  0  0  0  0  0  0  0  0  0  0  0
    6.3800   -0.2300    0.8460 C   0  0  0  0  0  0  0  0  0  0  0  0
    6.0190    1.0060    0.3480 C   0  0  0  0  0  0  0  0  0  0  0  0
    7.0730    2.0880    0.1970 C   0  0  0  0  0  0  0  0  0  0  0  0
    4.7380    1.2760   -0.0160 C   0  0  0  0  0  0  0  0  0  0  0  0
    4.3240    2.6970   -0.4050 C   0  0  0  0  0  0  0  0  0  0  0  0
  1  2  2  0
  2  3  1  0
  3  4  2  3
  4  5  1  0
  4  8  1  0
  5  6  2  3
  6  7  1  0
  8  9  2  0
  8 10  1  0
 10 11  2  3
 11 12  1  0
 12 13  2  0
 12 14  1  0
 14 15  1  0
 15 16  1  0
 16 17  2  0
 16 23  1  0
 17 18  1  0
 18 19  1  0
 18 20  2  0
 20 21  1  0
 21 22  1  0
 21 23  2  0
 23 24  1  0
M  END
