
     RDKit          3D

 25 29  0  0  0  0  0  0  0  0999 V2000
   -4.3740   -0.1670    1.8210 C   0  0  0  0  0  0  0  0  0  0  0  0
   -3.1260    0.0190    1.4320 C   0  0  0  0  0  0  0  0  0  0  0  0
   -2.3380   -0.8190    0.4440 C   0  0  0  0  0  0  0  0  0  0  0  0
   -0.9570   -0.2450    0.4000 C   0  0  2  0  0  0  0  0  0  0  0  0
   -0.8750    0.3600    1.7990 C   0  0  0  0  0  0  0  0  0  0  0  0
   -2.1990    1.0910    1.8700 C   0  0  2  0  0  0  0  0  0  0  0  0
   -2.4750    1.5200    3.1680 O   0  0  0  0  0  0  0  0  0  0  0  0
   -2.3200    2.2030    0.8700 C   0  0  0  0  0  0  0  0  0  0  0  0
   -1.2970    2.1960   -0.2090 C   0  0  0  0  0  0  0  0  0  0  0  0
   -0.7580    0.8630   -0.5920 C   0  0  1  0  0  0  0  0  0  0  0  0
    0.7240    0.8600   -0.7850 C   0  0  1  0  0  0  0  0  0  0  0  0
    1.2050    1.4640   -2.0510 C   0  0  0  0  0  0  0  0  0  0  0  0
    2.4190    1.0290   -2.4410 C   0  0  0  0  0  0  0  0  0  0  0  0
    3.2660    0.1200   -1.6220 C   0  0  2  0  0  0  0  0  0  0  0  0
    3.9410   -0.8130   -2.4230 O   0  0  0  0  0  0  0  0  0  0  0  0
    2.5060   -0.5800   -0.5160 C   0  0  1  0  0  0  0  0  0  0  0  0
    3.0780   -1.9110   -0.1830 C   0  0  0  0  0  0  0  0  0  0  0  0
    2.4700    0.3650    0.6260 C   0  0  0  0  0  0  0  0  0  0  0  0
    3.1890    0.3320    1.6350 O   0  0  0  0  0  0  0  0  0  0  0  0
    1.4770    1.2780    0.3260 O   0  0  0  0  0  0  0  0  0  0  0  0
    1.0520   -0.6080   -0.8860 C   0  0  1  0  0  0  0  0  0  0  0  0
    0.1460   -1.2240    0.1600 C   0  0  2  0  0  0  0  0  0  0  0  0
   -0.3620   -2.4640   -0.4520 C   0  0  0  0  0  0  0  0  0  0  0  0
   -1.4540   -2.5200   -1.0270 O   0  0  0  0  0  0  0  0  0  0  0  0
    0.3750   -3.6630   -0.4230 O   0  0  0  0  0  0  0  0  0  0  0  0
  1  2  2  0
  2  3  1  0
  2  6  1  0
  4  3  1  6
  4  5  1  0
  4 10  1  0
  4 22  1  0
  5  6  1  0
  6  7  1  1
  6  8  1  0
  8  9  1  0
 10  9  1  1
 10 11  1  0
 11 12  1  0
 11 20  1  1
 11 21  1  0
 12 13  2  0
 13 14  1  0
 14 15  1  6
 14 16  1  0
 16 17  1  1
 16 18  1  0
 16 21  1  0
 18 19  2  0
 18 20  1  0
 21 22  1  1
 22 23  1  6
 23 24  2  0
 23 25  1  0
M  END
