
     RDKit          3D

 24 24  0  0  0  0  0  0  0  0999 V2000
    5.9830   -1.3750    0.6190 C   0  0  0  0  0  0  0  0  0  0  0  0
    4.9980   -0.5390    0.8620 C   0  0  0  0  0  0  0  0  0  0  0  0
    4.3290    0.1530   -0.2360 C   0  0  0  0  0  0  0  0  0  0  0  0
    2.9100   -0.1290   -0.3250 N   0  0  0  0  0  0  0  0  0  0  0  0
    2.0980    0.8040    0.4560 C   0  0  0  0  0  0  0  0  0  0  0  0
    2.5620    1.8740    0.9040 O   0  0  0  0  0  0  0  0  0  0  0  0
    0.6930    0.4850    0.7300 C   0  0  0  0  0  0  0  0  0  0  0  0
   -0.3360    1.5690    0.5020 C   0  0  0  0  0  0  0  0  0  0  0  0
    0.0670    2.5170   -0.3090 C   0  0  0  0  0  0  0  0  0  0  0  0
   -0.7700    3.6500   -0.6660 C   0  0  0  0  0  0  0  0  0  0  0  0
   -0.2260    4.5590   -1.4970 C   0  0  0  0  0  0  0  0  0  0  0  0
   -2.1520    3.9040   -0.2540 C   0  0  0  0  0  0  0  0  0  0  0  0
   -1.6190    1.4660    1.1710 C   0  0  0  0  0  0  0  0  0  0  0  0
   -2.4960    0.5300    1.3010 C   0  0  0  0  0  0  0  0  0  0  0  0
   -3.7600    0.8790    2.1280 C   0  0  0  0  0  0  0  0  0  0  0  0
   -2.6200   -0.8610    0.8700 C   0  0  2  0  0  0  0  0  0  0  0  0
   -4.1150   -1.2800    0.7230 C   0  0  0  0  0  0  0  0  0  0  0  0
   -2.2110   -1.6970    2.1130 C   0  0  0  0  0  0  0  0  0  0  0  0
   -1.9950   -1.4220   -0.3120 C   0  0  0  0  0  0  0  0  0  0  0  0
   -0.9210   -2.4660   -0.0350 C   0  0  0  0  0  0  0  0  0  0  0  0
    0.1780   -2.5450   -1.0770 C   0  0  0  0  0  0  0  0  0  0  0  0
    1.5410   -2.2330   -0.4190 C   0  0  0  0  0  0  0  0  0  0  0  0
    2.3710   -1.2150   -1.1030 C   0  0  1  0  0  0  0  0  0  0  0  0
    1.8680   -0.7940   -2.4660 C   0  0  0  0  0  0  0  0  0  0  0  0
  1  2  2  0
  2  3  1  0
  3  4  1  0
  4  5  1  0
  4 23  1  0
  5  6  2  0
  5  7  1  0
  7  8  1  0
  8  9  2  3
  8 13  1  0
  9 10  1  0
 10 11  2  0
 10 12  1  0
 13 14  2  0
 14 15  1  0
 14 16  1  0
 16 17  1  6
 16 18  1  0
 16 19  1  0
 19 20  1  0
 20 21  1  0
 21 22  1  0
 22 23  1  0
 23 24  1  6
M  END
