
     RDKit          3D

 27 29  0  0  0  0  0  0  0  0999 V2000
    3.2010   -0.3060    1.4060 C   0  0  0  0  0  0  0  0  0  0  0  0
    3.4530   -0.3360   -0.0720 C   0  0  1  0  0  0  0  0  0  0  0  0
    4.6130   -1.1950   -0.4590 C   0  0  0  0  0  0  0  0  0  0  0  0
    5.8650   -0.7550    0.1350 C   0  0  0  0  0  0  0  0  0  0  0  0
    6.2380    0.2510    0.9340 C   0  0  0  0  0  0  0  0  0  0  0  0
    7.5070    0.3980    1.3290 C   0  0  0  0  0  0  0  0  0  0  0  0
    8.4420   -0.5280    0.8850 C   0  0  0  0  0  0  0  0  0  0  0  0
    7.4110   -1.6390   -0.1390 S   0  0  0  0  0  0  0  0  0  0  0  0
    2.2550   -0.8430   -0.7090 N   0  0  0  0  0  0  0  0  0  0  0  0
    1.5110   -0.0420   -1.6160 C   0  0  0  0  0  0  0  0  0  0  0  0
    1.9290    1.1150   -1.8440 O   0  0  0  0  0  0  0  0  0  0  0  0
    0.3360   -0.4960   -2.2590 N   0  0  0  0  0  0  0  0  0  0  0  0
   -0.4340    0.3060   -3.1840 C   0  0  0  0  0  0  0  0  0  0  0  0
   -0.9500    1.5670   -2.5200 C   0  0  0  0  0  0  0  0  0  0  0  0
   -1.8350    1.1790   -1.3480 C   0  0  0  0  0  0  0  0  0  0  0  0
   -2.8920    0.9420   -1.0150 N   0  0  0  0  0  0  0  0  0  0  0  0
   -3.3870    0.6030    0.1680 C   0  0  0  0  0  0  0  0  0  0  0  0
   -4.8290    0.3270    0.4120 C   0  0  0  0  0  0  0  0  0  0  0  0
   -5.7350    0.4190   -0.6320 C   0  0  0  0  0  0  0  0  0  0  0  0
   -7.0660    0.1650   -0.4080 C   0  0  0  0  0  0  0  0  0  0  0  0
   -7.5200   -0.1770    0.8170 N   0  0  0  0  0  0  0  0  0  0  0  0
   -6.6740   -0.2770    1.8510 C   0  0  0  0  0  0  0  0  0  0  0  0
   -7.1500   -0.6350    3.1300 N   0  0  0  0  0  0  0  0  0  0  0  0
   -5.3240   -0.0180    1.6230 C   0  0  0  0  0  0  0  0  0  0  0  0
   -4.5150   -0.1390    2.7250 O   0  0  0  0  0  0  0  0  0  0  0  0
   -2.3970    0.5350    1.1620 C   0  0  0  0  0  0  0  0  0  0  0  0
   -0.9020    0.9660    0.2580 S   0  0  0  0  0  0  0  0  0  0  0  0
  2  1  1  1
  2  3  1  0
  2  9  1  0
  3  4  1  0
  4  5  2  0
  4  8  1  0
  5  6  1  0
  6  7  2  0
  7  8  1  0
  9 10  1  0
 10 11  2  0
 10 12  1  0
 12 13  1  0
 13 14  1  0
 14 15  1  0
 15 16  2  0
 15 27  1  0
 16 17  1  0
 17 18  1  0
 17 26  2  0
 18 19  2  0
 18 24  1  0
 19 20  1  0
 20 21  2  0
 21 22  1  0
 22 23  1  0
 22 24  2  0
 24 25  1  0
 26 27  1  0
M  END
