
     RDKit          3D

 27 29  0  0  0  0  0  0  0  0999 V2000
   -5.0150   -0.2180   -1.2490 C   0  0  0  0  0  0  0  0  0  0  0  0
   -3.9640   -0.8680   -0.4270 C   0  0  0  0  0  0  0  0  0  0  0  0
   -2.9020   -1.3800   -1.0210 C   0  0  0  0  0  0  0  0  0  0  0  0
   -2.5460   -1.3910   -2.7880 S   0  0  0  0  0  0  0  0  0  0  0  0
   -0.7800   -1.6860   -2.5290 C   0  0  0  0  0  0  0  0  0  0  0  0
    0.1370   -1.4630   -3.3870 N   0  0  0  0  0  0  0  0  0  0  0  0
   -0.7180   -2.2080   -1.1740 C   0  0  0  0  0  0  0  0  0  0  0  0
    0.5600   -2.8890   -0.7140 C   0  0  0  0  0  0  0  0  0  0  0  0
   -1.7550   -2.0590   -0.4340 C   0  0  0  0  0  0  0  0  0  0  0  0
   -1.8310   -2.5350    0.9420 N   0  0  0  0  0  0  0  0  0  0  0  0
   -1.3800   -1.7040    1.9970 C   0  0  0  0  0  0  0  0  0  0  0  0
   -0.8890   -0.6090    2.2040 N   0  0  0  0  0  0  0  0  0  0  0  0
   -0.5590   -0.0640    3.3290 C   0  0  0  0  0  0  0  0  0  0  0  0
    0.0560    1.3180    3.5110 C   0  0  0  0  0  0  0  0  0  0  0  0
    0.4450    1.8820    2.3000 O   0  0  0  0  0  0  0  0  0  0  0  0
    1.3650    1.3790    1.4200 C   0  0  0  0  0  0  0  0  0  0  0  0
    2.0140    0.2050    1.6990 C   0  0  0  0  0  0  0  0  0  0  0  0
    2.9220   -0.2330    0.7640 C   0  0  0  0  0  0  0  0  0  0  0  0
    3.1570    0.4830   -0.3890 C   0  0  0  0  0  0  0  0  0  0  0  0
    2.5030    1.6850   -0.6890 C   0  0  0  0  0  0  0  0  0  0  0  0
    2.8390    2.3240   -1.9000 N   0  0  0  0  0  0  0  0  0  0  0  0
    2.2180    3.4830   -2.4110 C   0  0  0  0  0  0  0  0  0  0  0  0
    2.6500    4.0480   -3.6600 N   0  0  0  0  0  0  0  0  0  0  0  0
    1.2880    4.0470   -1.8050 O   0  0  0  0  0  0  0  0  0  0  0  0
    1.6010    2.1130    0.2470 C   0  0  0  0  0  0  0  0  0  0  0  0
   -0.7990   -0.8450    4.4610 C   0  0  0  0  0  0  0  0  0  0  0  0
   -1.4990   -2.3310    3.7680 S   0  0  0  0  0  0  0  0  0  0  0  0
  1  2  1  0
  2  3  2  3
  3  4  1  0
  3  9  1  0
  4  5  1  0
  5  6  2  0
  5  7  1  0
  7  8  1  0
  7  9  2  0
  9 10  1  0
 10 11  1  0
 11 12  2  0
 11 27  1  0
 12 13  1  0
 13 14  1  0
 13 26  2  0
 14 15  1  0
 15 16  1  0
 16 17  2  0
 16 25  1  0
 17 18  1  0
 18 19  2  0
 19 20  1  0
 20 21  1  0
 20 25  2  0
 21 22  1  0
 22 23  1  0
 22 24  2  0
 26 27  1  0
M  END
