
     RDKit          3D

 27 29  0  0  0  0  0  0  0  0999 V2000
    7.9020   -1.4370   -0.3450 C   0  0  0  0  0  0  0  0  0  0  0  0
    6.6480   -0.6300   -0.2770 C   0  0  0  0  0  0  0  0  0  0  0  0
    6.4770    0.6550   -0.7240 C   0  0  0  0  0  0  0  0  0  0  0  0
    5.1580    0.9960   -0.4550 C   0  0  0  0  0  0  0  0  0  0  0  0
    4.4470    2.1570   -0.6900 C   0  0  0  0  0  0  0  0  0  0  0  0
    3.1380    2.2020   -0.3090 C   0  0  0  0  0  0  0  0  0  0  0  0
    2.5260    1.1160    0.2990 C   0  0  0  0  0  0  0  0  0  0  0  0
    3.2070   -0.0520    0.5450 C   0  0  0  0  0  0  0  0  0  0  0  0
    2.6420   -1.1640    1.1770 N   0  0  0  0  0  0  0  0  0  0  0  0
    1.1500   -1.8710    0.7240 S   0  0  2  0  0  0  0  0  0  0  0  0
    1.0750   -3.3180    1.1620 O   0  0  0  0  0  0  0  0  0  0  0  0
    1.0170   -1.9240   -0.7960 O   0  0  0  0  0  0  0  0  0  0  0  0
   -0.1830   -0.9800    1.3240 N   0  0  0  0  0  0  0  0  0  0  0  0
   -1.1330   -0.4320    0.4330 C   0  0  0  0  0  0  0  0  0  0  0  0
   -0.8380    0.1570   -0.7740 C   0  0  0  0  0  0  0  0  0  0  0  0
   -1.8260    0.6600   -1.6070 C   0  0  0  0  0  0  0  0  0  0  0  0
   -3.1420    0.5640   -1.2090 C   0  0  0  0  0  0  0  0  0  0  0  0
   -3.5000   -0.0160   -0.0100 C   0  0  0  0  0  0  0  0  0  0  0  0
   -4.8300   -0.1200    0.4130 N   0  0  0  0  0  0  0  0  0  0  0  0
   -5.9310    0.4440   -0.3510 C   0  0  2  0  0  0  0  0  0  0  0  0
   -5.8560    1.9390   -0.4930 C   0  0  0  0  0  0  0  0  0  0  0  0
   -7.2080   -0.0250    0.1880 C   0  0  0  0  0  0  0  0  0  0  0  0
   -7.4960   -1.4000    0.2170 N   0  0  0  0  0  0  0  0  0  0  0  0
   -8.2910    1.0470    0.7510 S   0  0  0  0  0  0  0  0  0  0  0  0
   -2.4870   -0.5010    0.7830 C   0  0  0  0  0  0  0  0  0  0  0  0
    4.5480   -0.0670    0.1430 C   0  0  0  0  0  0  0  0  0  0  0  0
    5.4720   -1.0410    0.2400 N   0  0  0  0  0  0  0  0  0  0  0  0
  1  2  1  0
  2  3  2  0
  2 27  1  0
  3  4  1  0
  4  5  2  0
  4 26  1  0
  5  6  1  0
  6  7  2  0
  7  8  1  0
  8  9  1  0
  8 26  2  0
 10  9  1  6
 10 11  2  0
 10 12  2  0
 10 13  1  0
 13 14  1  0
 14 15  2  0
 14 25  1  0
 15 16  1  0
 16 17  2  0
 17 18  1  0
 18 19  1  0
 18 25  2  0
 19 20  1  0
 20 21  1  1
 20 22  1  0
 22 23  1  0
 22 24  2  0
 26 27  1  0
M  END
