
     RDKit          3D

 26 28  0  0  0  0  0  0  0  0999 V2000
   -2.0250   -2.9330   -0.6150 N   0  0  0  0  0  0  0  0  0  0  0  0
   -2.0850   -1.6100   -0.0620 C   0  0  0  0  0  0  0  0  0  0  0  0
   -0.9540   -0.9420    0.1000 C   0  0  0  0  0  0  0  0  0  0  0  0
    0.2520   -1.5340   -0.2670 O   0  0  0  0  0  0  0  0  0  0  0  0
   -1.0000    0.4000    0.6590 C   0  0  0  0  0  0  0  0  0  0  0  0
    0.0970    1.1150    0.8440 C   0  0  0  0  0  0  0  0  0  0  0  0
    0.1710    2.4230    1.3770 N   0  0  0  0  0  0  0  0  0  0  0  0
    1.3850    2.7660    1.3960 N   0  0  0  0  0  0  0  0  0  0  0  0
    2.2200    1.7550    0.8930 C   0  0  0  0  0  0  0  0  0  0  0  0
    3.5120    1.7640    0.7660 N   0  0  0  0  0  0  0  0  0  0  0  0
    4.1910    0.6380    0.2320 C   0  0  0  0  0  0  0  0  0  0  0  0
    5.8220    0.6930    0.0010 P   0  0  0  0  0  0  0  0  0  0  0  0
    6.7570   -0.7530   -0.6940 C   0  0  0  0  0  0  0  0  0  0  0  0
    7.9910   -0.1080   -1.9190 P   0  0  0  0  0  0  0  0  0  0  0  0
    1.3900    0.7050    0.5430 O   0  0  0  0  0  0  0  0  0  0  0  0
   -2.2770    0.9710    1.0240 C   0  0  0  0  0  0  0  0  0  0  0  0
   -2.3260    2.1680    1.4710 O   0  0  0  0  0  0  0  0  0  0  0  0
   -3.5350    0.2340    0.9060 C   0  0  1  0  0  0  0  0  0  0  0  0
   -4.1640    0.1210    2.1570 O   0  0  0  0  0  0  0  0  0  0  0  0
   -4.4300    1.0370   -0.0480 C   0  0  1  0  0  0  0  0  0  0  0  0
   -3.7150    1.1350   -1.2470 O   0  0  0  0  0  0  0  0  0  0  0  0
   -5.6530    0.2190   -0.2320 C   0  0  0  0  0  0  0  0  0  0  0  0
   -6.7280    0.8050   -0.4970 O   0  0  0  0  0  0  0  0  0  0  0  0
   -5.5690   -1.1360   -0.1080 O   0  0  0  0  0  0  0  0  0  0  0  0
   -4.4450   -1.8320    0.0280 O   0  0  0  0  0  0  0  0  0  0  0  0
   -3.3650   -1.0680    0.2920 N   0  0  0  0  0  0  0  0  0  0  0  0
  1  2  1  0
  2  3  2  0
  2 26  1  0
  3  4  1  0
  3  5  1  0
  5  6  2  3
  5 16  1  0
  6  7  1  0
  6 15  1  0
  7  8  2  0
  8  9  1  0
  9 10  2  3
  9 15  1  0
 10 11  1  0
 11 12  2  3
 12 13  1  0
 13 14  1  0
 16 17  2  0
 16 18  1  0
 18 19  1  1
 18 20  1  0
 18 26  1  0
 20 21  1  6
 20 22  1  0
 22 23  2  0
 22 24  1  0
 24 25  1  0
 25 26  1  0
M  END
