
     RDKit          3D

 26 27  0  0  0  0  0  0  0  0999 V2000
   -0.1200    4.8730    0.3690 C   0  0  0  0  0  0  0  0  0  0  0  0
   -0.4510    3.5530   -0.0670 O   0  0  0  0  0  0  0  0  0  0  0  0
    0.3280    2.4420    0.1850 C   0  0  0  0  0  0  0  0  0  0  0  0
    1.3880    2.6510    0.8430 O   0  0  0  0  0  0  0  0  0  0  0  0
    0.0300    1.1440   -0.2290 N   0  0  0  0  0  0  0  0  0  0  0  0
   -1.2330    1.0060   -0.9620 C   0  0  0  0  0  0  0  0  0  0  0  0
   -2.1000    0.0370   -0.2330 C   0  0  0  0  0  0  0  0  0  0  0  0
   -3.4180    0.1030   -0.2010 C   0  0  0  0  0  0  0  0  0  0  0  0
   -4.1940    1.0830   -0.8400 O   0  0  0  0  0  0  0  0  0  0  0  0
   -4.4610    2.2390   -0.1160 C   0  0  0  0  0  0  0  0  0  0  0  0
   -4.0230    2.3900    1.0510 O   0  0  0  0  0  0  0  0  0  0  0  0
   -3.8650   -1.0430    0.6280 C   0  0  0  0  0  0  0  0  0  0  0  0
   -2.7330   -1.4000    1.3460 O   0  0  0  0  0  0  0  0  0  0  0  0
   -1.7180   -1.0790    0.5340 N   0  0  0  0  0  0  0  0  0  0  0  0
   -0.5090   -1.7840    0.5140 N   0  0  0  0  0  0  0  0  0  0  0  0
   -0.8560   -3.1500    0.1170 C   0  0  0  0  0  0  0  0  0  0  0  0
    0.2820   -4.0940    0.3160 C   0  0  0  0  0  0  0  0  0  0  0  0
   -0.1670   -5.3670   -0.0950 O   0  0  0  0  0  0  0  0  0  0  0  0
    0.4360   -1.2590   -0.3990 C   0  0  1  0  0  0  0  0  0  0  0  0
    0.0190   -1.2290   -1.7100 F   0  0  0  0  0  0  0  0  0  0  0  0
    0.9380    0.0940    0.0860 C   0  0  1  0  0  0  0  0  0  0  0  0
    2.6300    0.3160   -0.6500 P   0  0  0  0  0  0  0  0  0  0  0  0
    3.1770   -1.2640   -1.1810 O   0  0  0  0  0  0  0  0  0  0  0  0
    3.8390    1.0530    0.5480 C   0  0  0  0  0  0  0  0  0  0  0  0
    5.0320    0.3230    0.5610 O   0  0  0  0  0  0  0  0  0  0  0  0
    5.5930    0.3370   -0.6860 N   0  0  0  0  0  0  0  0  0  0  0  0
  1  2  1  0
  2  3  1  0
  3  4  2  0
  3  5  1  0
  5  6  1  0
  5 21  1  0
  6  7  1  0
  7  8  2  0
  7 14  1  0
  8  9  1  0
  8 12  1  0
  9 10  1  0
 10 11  2  0
 12 13  1  0
 13 14  1  0
 14 15  1  0
 15 16  1  0
 15 19  1  0
 16 17  1  0
 17 18  1  0
 19 20  1  6
 19 21  1  0
 21 22  1  6
 22 23  1  0
 22 24  1  0
 24 25  1  0
 25 26  1  0
M  END
