
     RDKit          3D

 26 26  0  0  0  0  0  0  0  0999 V2000
   -0.0480    4.6880   -0.3360 O   0  0  0  0  0  0  0  0  0  0  0  0
    1.0640    4.4400   -0.8690 C   0  0  0  0  0  0  0  0  0  0  0  0
    1.3630    5.1500   -2.0330 O   0  0  0  0  0  0  0  0  0  0  0  0
    1.9490    3.5010   -0.3190 N   0  0  0  0  0  0  0  0  0  0  0  0
    3.1340    3.2600   -0.9180 F   0  0  0  0  0  0  0  0  0  0  0  0
    1.5820    2.7980    0.8880 C   0  0  0  0  0  0  0  0  0  0  0  0
    0.8580    1.5350    0.6050 C   0  0  0  0  0  0  0  0  0  0  0  0
   -0.3370    1.3050    1.0260 N   0  0  0  0  0  0  0  0  0  0  0  0
   -1.0650    0.1410    0.7920 N   0  0  0  0  0  0  0  0  0  0  0  0
   -2.5200    0.1250    0.8800 C   0  0  0  0  0  0  0  0  0  0  0  0
   -2.9880   -1.1620    0.6000 O   0  0  0  0  0  0  0  0  0  0  0  0
   -4.3340   -1.4480    0.6160 C   0  0  0  0  0  0  0  0  0  0  0  0
   -4.7330   -2.7180    0.6940 C   0  0  0  0  0  0  0  0  0  0  0  0
   -6.0750   -3.0600    0.7140 O   0  0  0  0  0  0  0  0  0  0  0  0
   -5.3130   -0.3480    0.5470 C   0  0  0  0  0  0  0  0  0  0  0  0
   -5.1270    0.3570   -0.6320 O   0  0  0  0  0  0  0  0  0  0  0  0
   -0.3450   -1.0760    0.4530 C   0  0  0  0  0  0  0  0  0  0  0  0
    0.7690   -0.6890   -0.4140 N   0  0  0  0  0  0  0  0  0  0  0  0
    1.5120    0.4940   -0.1820 C   0  0  0  0  0  0  0  0  0  0  0  0
    2.7210    0.6660   -0.6370 N   0  0  0  0  0  0  0  0  0  0  0  0
    3.2910   -0.3860   -1.3910 C   0  0  0  0  0  0  0  0  0  0  0  0
    4.1800   -1.1630   -0.8390 C   0  0  0  0  0  0  0  0  0  0  0  0
    4.6160   -1.0240    0.4750 O   0  0  0  0  0  0  0  0  0  0  0  0
    4.9290   -2.5330   -1.8070 P   0  0  0  0  0  0  0  0  0  0  0  0
    4.4260   -4.0590   -1.1310 O   0  0  0  0  0  0  0  0  0  0  0  0
    6.6600   -2.3720   -1.6420 O   0  0  0  0  0  0  0  0  0  0  0  0
  1  2  2  0
  2  3  1  0
  2  4  1  0
  4  5  1  0
  4  6  1  0
  6  7  1  0
  7  8  2  0
  7 19  1  0
  8  9  1  0
  9 10  1  0
  9 17  1  0
 10 11  1  0
 11 12  1  0
 12 13  2  3
 12 15  1  0
 13 14  1  0
 15 16  1  0
 17 18  1  0
 18 19  1  0
 19 20  2  3
 20 21  1  0
 21 22  2  3
 22 23  1  0
 22 24  1  0
 24 25  1  0
 24 26  1  0
M  END
