
     RDKit          3D

 25 26  0  0  0  0  0  0  0  0999 V2000
   -4.9580    4.0530   -0.2380 O   0  0  0  0  0  0  0  0  0  0  0  0
   -4.2690    3.0160   -0.1670 C   0  0  0  0  0  0  0  0  0  0  0  0
   -3.7740    2.5720    1.0500 C   0  0  0  0  0  0  0  0  0  0  0  0
   -3.0160    1.4300    1.1190 C   0  0  0  0  0  0  0  0  0  0  0  0
   -2.7250    0.6990    0.0170 N   0  0  0  0  0  0  0  0  0  0  0  0
   -1.9420   -0.4570    0.1790 C   0  0  2  0  0  0  0  0  0  0  0  0
   -0.6390   -0.1990    0.6550 O   0  0  0  0  0  0  0  0  0  0  0  0
   -0.1350   -1.4890    0.7670 C   0  0  2  0  0  0  0  0  0  0  0  0
    1.3700   -1.5230    0.8580 C   0  0  0  0  0  0  0  0  0  0  0  0
    1.9820   -0.9670   -0.2540 O   0  0  0  0  0  0  0  0  0  0  0  0
    3.6600   -1.0810   -0.0000 P   0  0  1  0  0  0  0  0  0  0  0  0
    3.9330   -2.4910    0.4960 O   0  0  0  0  0  0  0  0  0  0  0  0
    4.5240   -0.8680   -1.4190 O   0  0  0  0  0  0  0  0  0  0  0  0
    4.1100   -0.0100    1.2140 O   0  0  0  0  0  0  0  0  0  0  0  0
    4.6860    1.4440    0.5590 P   0  0  1  0  0  0  0  0  0  0  0  0
    4.1880    1.6480   -0.8540 O   0  0  0  0  0  0  0  0  0  0  0  0
    4.1680    2.7390    1.5180 O   0  0  0  0  0  0  0  0  0  0  0  0
    6.3890    1.3540    0.5310 O   0  0  0  0  0  0  0  0  0  0  0  0
   -0.6610   -2.2840   -0.3960 C   0  0  1  0  0  0  0  0  0  0  0  0
   -1.4280   -3.3390    0.0840 O   0  0  0  0  0  0  0  0  0  0  0  0
   -1.6590   -1.2860   -1.0130 C   0  0  1  0  0  0  0  0  0  0  0  0
   -2.7460   -2.0080   -1.4920 O   0  0  0  0  0  0  0  0  0  0  0  0
   -3.2130    1.1480   -1.1410 C   0  0  0  0  0  0  0  0  0  0  0  0
   -2.9770    0.5190   -2.1760 O   0  0  0  0  0  0  0  0  0  0  0  0
   -3.9640    2.2710   -1.2470 N   0  0  0  0  0  0  0  0  0  0  0  0
  1  2  2  0
  2  3  1  0
  2 25  1  0
  3  4  2  0
  4  5  1  0
  6  5  1  6
  5 23  1  0
  6  7  1  0
  6 21  1  0
  7  8  1  0
  8  9  1  6
  8 19  1  0
  9 10  1  0
 10 11  1  0
 11 12  2  0
 11 13  1  6
 11 14  1  0
 14 15  1  0
 15 16  2  0
 15 17  1  1
 15 18  1  0
 19 20  1  1
 19 21  1  0
 21 22  1  1
 23 24  2  0
 23 25  1  0
M  END
