
     RDKit          3D

 24 25  0  0  0  0  0  0  0  0999 V2000
   -0.4620    4.6210   -1.4620 O   0  0  0  0  0  0  0  0  0  0  0  0
   -1.0950    4.4420   -0.3990 C   0  0  0  0  0  0  0  0  0  0  0  0
   -1.8060    5.4720    0.2030 O   0  0  0  0  0  0  0  0  0  0  0  0
   -1.0940    3.1630    0.2150 N   0  0  0  0  0  0  0  0  0  0  0  0
   -0.3940    2.0490   -0.3280 C   0  0  0  0  0  0  0  0  0  0  0  0
    0.2480    2.2100   -1.3970 O   0  0  0  0  0  0  0  0  0  0  0  0
   -0.4270    0.7370    0.3550 C   0  0  1  0  0  0  0  0  0  0  0  0
    0.9810    0.3950    0.7810 C   0  0  0  0  0  0  0  0  0  0  0  0
    1.8600    0.3270   -0.2920 O   0  0  0  0  0  0  0  0  0  0  0  0
    3.4280   -0.0760    0.3860 P   0  0  0  0  0  0  0  0  0  0  0  0
    3.3700   -1.6490    1.1390 O   0  0  0  0  0  0  0  0  0  0  0  0
    4.9700   -0.1370   -1.1660 P   0  0  0  0  0  0  0  0  0  0  0  0
    6.5200    0.0310   -0.4100 O   0  0  0  0  0  0  0  0  0  0  0  0
    4.9470   -1.7140   -1.9260 O   0  0  0  0  0  0  0  0  0  0  0  0
   -1.2050    0.7720    1.5390 O   0  0  0  0  0  0  0  0  0  0  0  0
   -1.4180   -0.4680    2.1420 C   0  0  0  0  0  0  0  0  0  0  0  0
   -1.8170   -0.5160    3.3310 O   0  0  0  0  0  0  0  0  0  0  0  0
   -1.1960   -1.7520    1.4430 C   0  0  0  0  0  0  0  0  0  0  0  0
   -0.7400   -1.6140    0.1020 N   0  0  0  0  0  0  0  0  0  0  0  0
   -1.2650   -2.6500   -0.7910 C   0  0  0  0  0  0  0  0  0  0  0  0
   -2.7260   -2.4320   -1.0850 C   0  0  0  0  0  0  0  0  0  0  0  0
   -3.2010   -1.3960   -0.2930 O   0  0  0  0  0  0  0  0  0  0  0  0
   -2.5530   -0.1940   -0.5090 C   0  0  0  0  0  0  0  0  0  0  0  0
   -1.0360   -0.3480   -0.5090 C   0  0  1  0  0  0  0  0  0  0  0  0
  1  2  2  0
  2  3  1  0
  2  4  1  0
  4  5  1  0
  5  6  2  0
  5  7  1  0
  7  8  1  1
  7 15  1  0
  7 24  1  0
  8  9  1  0
  9 10  1  0
 10 11  1  0
 10 12  1  0
 12 13  1  0
 12 14  1  0
 15 16  1  0
 16 17  2  0
 16 18  1  0
 18 19  1  0
 19 20  1  0
 19 24  1  0
 20 21  1  0
 21 22  1  0
 22 23  1  0
 24 23  1  1
M  END
