
     RDKit          3D

 38 42  0  0  0  0  0  0  0  0999 V2000
   -7.8850   -2.2960   -1.2420 C   0  0  0  0  0  0  0  0  0  0  0  0
   -7.5390   -1.6820    0.0380 N   0  0  2  0  0  0  0  0  0  0  0  0
   -8.5920   -0.7770    0.4530 C   0  0  0  0  0  0  0  0  0  0  0  0
   -8.1370   -0.1340    1.7310 C   0  0  0  0  0  0  0  0  0  0  0  0
   -7.0710    0.8580    1.3900 C   0  0  0  0  0  0  0  0  0  0  0  0
   -6.2330    0.4160    0.2180 C   0  0  1  0  0  0  0  0  0  0  0  0
   -4.8380    0.8670    0.4660 C   0  0  0  0  0  0  0  0  0  0  0  0
   -4.5970    1.3980    1.6200 O   0  0  0  0  0  0  0  0  0  0  0  0
   -3.7670    0.7760   -0.4200 N   0  0  0  0  0  0  0  0  0  0  0  0
   -3.7190    0.2260   -1.7560 C   0  0  0  0  0  0  0  0  0  0  0  0
   -2.4190    0.8230   -2.2990 C   0  0  0  0  0  0  0  0  0  0  0  0
   -2.1690    1.9060   -1.4210 N   0  0  2  0  0  0  0  0  0  0  0  0
   -0.9850    2.6450   -1.5610 C   0  0  0  0  0  0  0  0  0  0  0  0
    0.2890    1.9320   -1.7900 C   0  0  0  0  0  0  0  0  0  0  0  0
    0.6890    1.0330   -0.7870 O   0  0  0  0  0  0  0  0  0  0  0  0
    0.9340    1.3620    0.5380 C   0  0  0  0  0  0  0  0  0  0  0  0
    0.7870    2.5530    0.8840 O   0  0  0  0  0  0  0  0  0  0  0  0
    1.3620    0.3300    1.5330 C   0  0  0  0  0  0  0  0  0  0  0  0
    2.8010    0.3640    1.6610 N   0  0  0  0  0  0  0  0  0  0  0  0
    3.4520    1.1100    2.5390 N   0  0  0  0  0  0  0  0  0  0  0  0
    4.7740    0.9380    2.4260 C   0  0  0  0  0  0  0  0  0  0  0  0
    4.9760    0.0200    1.4100 C   0  0  0  0  0  0  0  0  0  0  0  0
    6.1210   -0.5150    0.8730 C   0  0  0  0  0  0  0  0  0  0  0  0
    6.0030   -1.4200   -0.1550 C   0  0  0  0  0  0  0  0  0  0  0  0
    7.1510   -1.9670   -0.7090 O   0  0  0  0  0  0  0  0  0  0  0  0
    8.4220   -1.5700   -0.2510 C   0  0  0  0  0  0  0  0  0  0  0  0
    9.0440   -2.2530    0.7580 C   0  0  0  0  0  0  0  0  0  0  0  0
   10.2940   -1.8330    1.1830 C   0  0  0  0  0  0  0  0  0  0  0  0
   10.9010   -0.7440    0.5970 C   0  0  0  0  0  0  0  0  0  0  0  0
   12.1490   -0.3170    1.0150 O   0  0  0  0  0  0  0  0  0  0  0  0
   10.2460   -0.0770   -0.4190 C   0  0  0  0  0  0  0  0  0  0  0  0
   11.0170    1.3140   -1.1680 Cl  0  0  0  0  0  0  0  0  0  0  0  0
    9.0130   -0.4750   -0.8530 C   0  0  0  0  0  0  0  0  0  0  0  0
    4.7650   -1.7730   -0.6270 C   0  0  0  0  0  0  0  0  0  0  0  0
    3.6230   -1.2290   -0.0800 C   0  0  0  0  0  0  0  0  0  0  0  0
    3.7060   -0.3110    0.9610 C   0  0  0  0  0  0  0  0  0  0  0  0
   -2.4050    1.2940   -0.1220 C   0  0  0  0  0  0  0  0  0  0  0  0
   -6.2330   -1.0600    0.0170 C   0  0  0  0  0  0  0  0  0  0  0  0
  2  1  1  6
  2  3  1  0
  2 38  1  0
  3  4  1  0
  4  5  1  0
  5  6  1  0
  6  7  1  1
  6 38  1  0
  7  8  2  0
  7  9  1  0
  9 10  1  0
  9 37  1  0
 10 11  1  0
 11 12  1  0
 12 13  1  1
 12 37  1  0
 13 14  1  0
 14 15  1  0
 15 16  1  0
 16 17  2  0
 16 18  1  0
 18 19  1  0
 19 20  1  0
 19 36  1  0
 20 21  2  0
 21 22  1  0
 22 23  2  0
 22 36  1  0
 23 24  1  0
 24 25  1  0
 24 34  2  0
 25 26  1  0
 26 27  2  0
 26 33  1  0
 27 28  1  0
 28 29  2  0
 29 30  1  0
 29 31  1  0
 31 32  1  0
 31 33  2  0
 34 35  1  0
 35 36  2  0
M  CHG  2   2   1  12   1
M  END
