
     RDKit          3D

 38 42  0  0  0  0  0  0  0  0999 V2000
    6.7010   -3.3470   -0.8440 C   0  0  0  0  0  0  0  0  0  0  0  0
    7.0810   -2.1750   -0.2350 O   0  0  0  0  0  0  0  0  0  0  0  0
    6.0060   -1.3880    0.1520 C   0  0  2  0  0  0  0  0  0  0  0  0
    6.1600   -0.0380   -0.5080 C   0  0  0  0  0  0  0  0  0  0  0  0
    6.0260   -1.1980    1.6450 C   0  0  0  0  0  0  0  0  0  0  0  0
    4.9910   -0.4220    2.1540 O   0  0  0  0  0  0  0  0  0  0  0  0
    3.6470   -0.6860    2.0150 C   0  0  0  0  0  0  0  0  0  0  0  0
    3.3180   -1.7160    1.3640 O   0  0  0  0  0  0  0  0  0  0  0  0
    2.5670    0.1510    2.5750 C   0  0  0  0  0  0  0  0  0  0  0  0
    1.5270    0.4960    1.6350 N   0  0  0  0  0  0  0  0  0  0  0  0
    0.4860   -0.2570    1.4430 C   0  0  0  0  0  0  0  0  0  0  0  0
    0.3190   -1.3640    2.0380 O   0  0  0  0  0  0  0  0  0  0  0  0
   -0.5700    0.1070    0.5320 C   0  0  0  0  0  0  0  0  0  0  0  0
   -1.6390   -0.8590    0.4690 C   0  0  0  0  0  0  0  0  0  0  0  0
   -2.8270   -0.8800   -0.2100 N   0  0  2  0  0  0  0  0  0  0  0  0
   -3.8330   -0.1210    0.5570 C   0  0  0  0  0  0  0  0  0  0  0  0
   -5.1190   -0.8670    0.7540 C   0  0  0  0  0  0  0  0  0  0  0  0
   -5.4750   -1.4270   -0.5450 N   0  0  0  0  0  0  0  0  0  0  0  0
   -6.8170   -1.9500   -0.5190 C   0  0  0  0  0  0  0  0  0  0  0  0
   -6.6370   -3.1410    0.3120 N   0  0  0  0  0  0  0  0  0  0  0  0
   -5.3320   -3.6500    0.0280 C   0  0  0  0  0  0  0  0  0  0  0  0
   -4.5750   -2.5590   -0.7140 C   0  0  1  0  0  0  0  0  0  0  0  0
   -4.4310   -2.9880   -2.1550 C   0  0  0  0  0  0  0  0  0  0  0  0
   -3.2600   -2.3480   -0.0800 C   0  0  0  0  0  0  0  0  0  0  0  0
   -0.3680    1.3030   -0.1000 C   0  0  0  0  0  0  0  0  0  0  0  0
   -1.3240    1.7220   -0.9870 C   0  0  0  0  0  0  0  0  0  0  0  0
   -1.1670    2.9180   -1.6440 C   0  0  0  0  0  0  0  0  0  0  0  0
   -0.0590    3.6830   -1.4120 C   0  0  0  0  0  0  0  0  0  0  0  0
    0.0550    4.8740   -2.0840 C   0  0  0  0  0  0  0  0  0  0  0  0
    1.1500    5.6820   -1.8790 C   0  0  0  0  0  0  0  0  0  0  0  0
    1.2380    7.1910   -2.7620 Cl  0  0  0  0  0  0  0  0  0  0  0  0
    2.1230    5.2710   -0.9880 C   0  0  0  0  0  0  0  0  0  0  0  0
    3.2880    6.1710   -0.7960 C   0  0  0  0  0  0  0  0  0  0  0  0
    2.0260    4.0730   -0.3000 C   0  0  0  0  0  0  0  0  0  0  0  0
    0.9250    3.2780   -0.5190 C   0  0  0  0  0  0  0  0  0  0  0  0
    0.7430    2.0930    0.1150 N   0  0  0  0  0  0  0  0  0  0  0  0
    1.6680    1.6830    0.9710 C   0  0  0  0  0  0  0  0  0  0  0  0
    2.6910    2.3480    1.2080 O   0  0  0  0  0  0  0  0  0  0  0  0
  1  2  1  0
  2  3  1  0
  3  4  1  6
  3  5  1  0
  5  6  1  0
  6  7  1  0
  7  8  2  0
  7  9  1  0
  9 10  1  0
 10 11  1  0
 10 37  1  0
 11 12  2  0
 11 13  1  0
 13 14  1  0
 13 25  2  0
 15 14  1  1
 15 16  1  0
 15 24  1  0
 16 17  1  0
 17 18  1  0
 18 19  1  0
 18 22  1  0
 19 20  1  0
 20 21  1  0
 21 22  1  0
 22 23  1  6
 22 24  1  0
 25 26  1  0
 25 36  1  0
 26 27  2  0
 27 28  1  0
 28 29  2  0
 28 35  1  0
 29 30  1  0
 30 31  1  0
 30 32  2  0
 32 33  1  0
 32 34  1  0
 34 35  2  0
 35 36  1  0
 36 37  1  0
 37 38  2  0
M  CHG  2  15   1  20   1
M  END
