
     RDKit          3D

 38 42  0  0  0  0  0  0  0  0999 V2000
   -5.4780   -0.2930   -3.4970 C   0  0  0  0  0  0  0  0  0  0  0  0
   -6.7060   -0.2420   -3.0540 C   0  0  0  0  0  0  0  0  0  0  0  0
   -7.1580    0.0260   -1.7050 C   0  0  0  0  0  0  0  0  0  0  0  0
   -8.4610   -0.0010   -1.4710 C   0  0  0  0  0  0  0  0  0  0  0  0
   -9.1460    0.2370   -0.2040 C   0  0  0  0  0  0  0  0  0  0  0  0
  -10.0890   -1.1970    0.3150 Cl  0  0  0  0  0  0  0  0  0  0  0  0
   -6.2200    0.2850   -0.6130 C   0  0  0  0  0  0  0  0  0  0  0  0
   -5.4290    1.5630   -0.7270 C   0  0  0  0  0  0  0  0  0  0  0  0
   -4.5520    1.6280    0.4150 N   0  0  0  0  0  0  0  0  0  0  0  0
   -4.9700    2.2280    1.5370 C   0  0  0  0  0  0  0  0  0  0  0  0
   -6.1180    2.7380    1.6320 O   0  0  0  0  0  0  0  0  0  0  0  0
   -4.1390    2.2870    2.5880 N   0  0  0  0  0  0  0  0  0  0  0  0
   -2.8900    1.7540    2.5410 C   0  0  0  0  0  0  0  0  0  0  0  0
   -2.0880    1.8300    3.6120 N   0  0  0  0  0  0  0  0  0  0  0  0
   -0.8790    1.3170    3.5800 C   0  0  0  0  0  0  0  0  0  0  0  0
   -0.4380    0.6930    2.4190 C   0  0  0  0  0  0  0  0  0  0  0  0
   -1.1870    0.5650    1.2670 C   0  0  0  0  0  0  0  0  0  0  0  0
   -0.7160   -0.0590    0.0470 C   0  0  0  0  0  0  0  0  0  0  0  0
    0.5870   -0.6520    0.0100 N   0  0  2  0  0  0  0  0  0  0  0  0
    0.8220   -1.7790    0.8500 C   0  0  0  0  0  0  0  0  0  0  0  0
    2.0900   -1.9060    1.5780 C   0  0  0  0  0  0  0  0  0  0  0  0
    3.3430   -1.3600    1.0440 C   0  0  0  0  0  0  0  0  0  0  0  0
    3.5080   -1.2430   -0.4290 C   0  0  2  0  0  0  0  0  0  0  0  0
    4.9730   -0.9370   -0.6620 C   0  0  0  0  0  0  0  0  0  0  0  0
    5.6080    0.1960   -0.3120 N   0  0  0  0  0  0  0  0  0  0  0  0
    6.9040    0.1260   -0.6720 C   0  0  0  0  0  0  0  0  0  0  0  0
    7.0510   -1.1180   -1.2710 C   0  0  0  0  0  0  0  0  0  0  0  0
    5.8840   -1.6850   -1.2300 O   0  0  0  0  0  0  0  0  0  0  0  0
    8.2860   -1.7400   -1.8630 C   0  0  0  0  0  0  0  0  0  0  0  0
    9.3920   -1.5520   -1.0360 O   0  0  0  0  0  0  0  0  0  0  0  0
    9.1420   -0.6830    0.0080 C   0  0  0  0  0  0  0  0  0  0  0  0
    9.1910    0.6120   -0.4890 O   0  0  0  0  0  0  0  0  0  0  0  0
    7.9300    1.1830   -0.4600 C   0  0  0  0  0  0  0  0  0  0  0  0
    2.7230   -0.1080   -1.0260 C   0  0  0  0  0  0  0  0  0  0  0  0
    1.6220    0.3420   -0.0520 C   0  0  0  0  0  0  0  0  0  0  0  0
   -2.4700    1.1360    1.3730 C   0  0  0  0  0  0  0  0  0  0  0  0
   -3.3210    1.0860    0.3260 C   0  0  0  0  0  0  0  0  0  0  0  0
   -3.0290    0.5590   -0.7320 O   0  0  0  0  0  0  0  0  0  0  0  0
  1  2  2  0
  2  3  1  0
  3  4  2  3
  3  7  1  0
  4  5  1  0
  5  6  1  0
  7  8  1  0
  8  9  1  0
  9 10  1  0
  9 37  1  0
 10 11  2  0
 10 12  1  0
 12 13  1  0
 13 14  2  0
 13 36  1  0
 14 15  1  0
 15 16  2  0
 16 17  1  0
 17 18  1  0
 17 36  2  0
 19 18  1  1
 19 20  1  0
 19 35  1  0
 20 21  1  0
 21 22  1  0
 22 23  1  0
 23 24  1  1
 23 34  1  0
 24 25  2  0
 24 28  1  0
 25 26  1  0
 26 27  2  0
 26 33  1  0
 27 28  1  0
 27 29  1  0
 29 30  1  0
 30 31  1  0
 31 32  1  0
 32 33  1  0
 34 35  1  0
 36 37  1  0
 37 38  2  0
M  CHG  2  19   1  25   1
M  END
