
     RDKit          3D

 38 42  0  0  0  0  0  0  0  0999 V2000
    8.0890    3.0840   -0.0640 C   0  0  0  0  0  0  0  0  0  0  0  0
    7.0280    2.2600   -0.3780 O   0  0  0  0  0  0  0  0  0  0  0  0
    7.3800    0.9410   -0.5670 C   0  0  0  0  0  0  0  0  0  0  0  0
    8.0000    0.3280    0.6210 C   0  0  0  0  0  0  0  0  0  0  0  0
    9.3880    0.4030    0.7880 C   0  0  0  0  0  0  0  0  0  0  0  0
    9.9860   -0.1670    1.8970 C   0  0  0  0  0  0  0  0  0  0  0  0
    9.1540   -0.7980    2.8060 C   0  0  0  0  0  0  0  0  0  0  0  0
    9.8990   -1.5220    4.2120 Cl  0  0  0  0  0  0  0  0  0  0  0  0
    7.7690   -0.8560    2.6120 C   0  0  0  0  0  0  0  0  0  0  0  0
    7.2240   -0.2900    1.5210 N   0  0  0  0  0  0  0  0  0  0  0  0
    5.8100   -0.3230    1.2760 C   0  0  0  0  0  0  0  0  0  0  0  0
    5.2090   -1.3070    0.5580 C   0  0  0  0  0  0  0  0  0  0  0  0
    3.8170   -1.2450    0.3770 C   0  0  0  0  0  0  0  0  0  0  0  0
    3.0860   -0.2230    0.9070 C   0  0  0  0  0  0  0  0  0  0  0  0
    1.6180   -0.0990    0.7540 C   0  0  0  0  0  0  0  0  0  0  0  0
    1.0380    0.8990    1.2860 O   0  0  0  0  0  0  0  0  0  0  0  0
    0.8320   -1.0270    0.0500 N   0  0  0  0  0  0  0  0  0  0  0  0
   -0.5500   -1.0150   -0.1570 C   0  0  0  0  0  0  0  0  0  0  0  0
   -1.0960   -2.0150   -0.9730 C   0  0  0  0  0  0  0  0  0  0  0  0
   -2.4510   -2.0670   -1.2170 C   0  0  0  0  0  0  0  0  0  0  0  0
   -3.2730   -1.1230   -0.6500 C   0  0  0  0  0  0  0  0  0  0  0  0
   -4.6250   -1.1540   -0.8780 O   0  0  0  0  0  0  0  0  0  0  0  0
   -5.3140   -2.0610   -1.6450 C   0  0  1  0  0  0  0  0  0  0  0  0
   -6.4840   -2.7030   -0.8710 C   0  0  0  0  0  0  0  0  0  0  0  0
   -7.3320   -3.1970   -2.0300 C   0  0  0  0  0  0  0  0  0  0  0  0
   -7.2100   -2.2120   -3.0710 N   0  0  0  0  0  0  0  0  0  0  0  0
   -6.1480   -1.3080   -2.7010 C   0  0  0  0  0  0  0  0  0  0  0  0
   -2.7270   -0.1300    0.1600 C   0  0  0  0  0  0  0  0  0  0  0  0
   -3.6660    0.8440    0.7300 C   0  0  0  0  0  0  0  0  0  0  0  0
   -3.1770    1.7350    1.4560 O   0  0  0  0  0  0  0  0  0  0  0  0
   -4.9920    0.8370    0.5230 O   0  0  0  0  0  0  0  0  0  0  0  0
   -6.0460    1.6050    0.9100 C   0  0  0  0  0  0  0  0  0  0  0  0
   -6.1690    3.0120    0.4540 C   0  0  2  0  0  0  0  0  0  0  0  0
   -5.2700    4.1260    0.6840 C   0  0  0  0  0  0  0  0  0  0  0  0
   -6.5030    4.0770    1.5190 C   0  0  0  0  0  0  0  0  0  0  0  0
   -1.3700   -0.0790    0.4040 C   0  0  0  0  0  0  0  0  0  0  0  0
    3.7500    0.7140    1.6060 N   0  0  0  0  0  0  0  0  0  0  0  0
    5.0520    0.6710    1.7850 N   0  0  0  0  0  0  0  0  0  0  0  0
  1  2  1  0
  2  3  1  0
  3  4  1  0
  4  5  2  0
  4 10  1  0
  5  6  1  0
  6  7  2  0
  7  8  1  0
  7  9  1  0
  9 10  2  0
 10 11  1  0
 11 12  2  0
 11 38  1  0
 12 13  1  0
 13 14  2  0
 14 15  1  0
 14 37  1  0
 15 16  2  0
 15 17  1  0
 17 18  1  0
 18 19  2  0
 18 36  1  0
 19 20  1  0
 20 21  2  0
 21 22  1  0
 21 28  1  0
 23 22  1  1
 23 24  1  0
 23 27  1  0
 24 25  1  0
 25 26  1  0
 26 27  1  0
 28 29  1  0
 28 36  2  0
 29 30  2  0
 29 31  1  0
 31 32  1  0
 33 32  1  1
 33 34  1  0
 33 35  1  0
 34 35  1  0
 37 38  2  0
M  CHG  2  10   1  26   1
M  END
