
     RDKit          3D

 38 43  0  0  0  0  0  0  0  0999 V2000
    9.7030    0.2250    1.7750 C   0  0  0  0  0  0  0  0  0  0  0  0
    8.8090    1.2690    1.0570 C   0  0  0  0  0  0  0  0  0  0  0  0
    7.5860    1.0990    1.5650 O   0  0  0  0  0  0  0  0  0  0  0  0
    6.8060    0.1120    1.5560 C   0  0  0  0  0  0  0  0  0  0  0  0
    6.0360   -0.4420    0.3560 C   0  0  0  0  0  0  0  0  0  0  0  0
    6.1740   -0.9840   -0.7280 O   0  0  0  0  0  0  0  0  0  0  0  0
    5.0360   -1.2030   -1.3200 C   0  0  0  0  0  0  0  0  0  0  0  0
    4.7600   -1.8070   -2.5700 O   0  0  0  0  0  0  0  0  0  0  0  0
    4.4720   -1.0990   -3.7690 C   0  0  0  0  0  0  0  0  0  0  0  0
    4.0090   -0.7710   -0.6190 C   0  0  0  0  0  0  0  0  0  0  0  0
    2.5830   -0.9480   -0.3760 C   0  0  0  0  0  0  0  0  0  0  0  0
    1.5970   -0.1230   -0.4370 N   0  0  0  0  0  0  0  0  0  0  0  0
    0.4710   -0.6780    0.0060 C   0  0  0  0  0  0  0  0  0  0  0  0
   -0.7930   -0.1490    0.1260 C   0  0  0  0  0  0  0  0  0  0  0  0
   -1.7820   -0.9290    0.6460 C   0  0  0  0  0  0  0  0  0  0  0  0
   -1.4850   -2.1650    1.0920 N   0  0  0  0  0  0  0  0  0  0  0  0
   -0.2360   -2.6820    0.9990 C   0  0  0  0  0  0  0  0  0  0  0  0
    0.7940   -2.0000    0.3940 C   0  0  0  0  0  0  0  0  0  0  0  0
    2.0860   -2.1640    0.1290 N   0  0  0  0  0  0  0  0  0  0  0  0
   -3.0870   -0.1750    0.4920 C   0  0  2  0  0  0  0  0  0  0  0  0
   -3.6750   -0.4510   -0.7740 N   0  0  0  0  0  0  0  0  0  0  0  0
   -5.1210   -0.5120   -0.8440 C   0  0  0  0  0  0  0  0  0  0  0  0
   -5.6690   -1.8190   -0.2770 C   0  0  2  0  0  0  0  0  0  0  0  0
   -7.0720   -1.8010   -0.4450 O   0  0  0  0  0  0  0  0  0  0  0  0
   -7.5730   -0.9190    0.4260 C   0  0  0  0  0  0  0  0  0  0  0  0
   -8.7330   -0.1570    0.5220 C   0  0  0  0  0  0  0  0  0  0  0  0
   -8.9570    0.6500    1.6050 C   0  0  0  0  0  0  0  0  0  0  0  0
   -8.0300    0.8460    2.6290 C   0  0  0  0  0  0  0  0  0  0  0  0
   -6.8390    0.1270    2.4980 C   0  0  0  0  0  0  0  0  0  0  0  0
   -6.6430   -0.7270    1.4730 C   0  0  0  0  0  0  0  0  0  0  0  0
   -5.5930   -1.5940    1.1380 O   0  0  0  0  0  0  0  0  0  0  0  0
   -2.6170    1.2620    0.5890 C   0  0  0  0  0  0  0  0  0  0  0  0
   -1.2300    1.2620    0.0220 C   0  0  2  0  0  0  0  0  0  0  0  0
   -1.0880    1.8380   -1.2640 N   0  0  2  0  0  0  0  0  0  0  0  0
   -0.7160    0.8370   -2.2660 C   0  0  0  0  0  0  0  0  0  0  0  0
   -0.0400    2.8560   -1.2940 C   0  0  0  0  0  0  0  0  0  0  0  0
    4.6580   -0.2050    0.5790 C   0  0  0  0  0  0  0  0  0  0  0  0
    3.8970    1.0150    1.6000 Cl  0  0  0  0  0  0  0  0  0  0  0  0
  1  2  1  0
  2  3  1  0
  3  4  1  0
  4  5  1  0
  5  6  1  0
  5 37  2  0
  6  7  1  0
  7  8  1  0
  7 10  2  0
  8  9  1  0
 10 11  1  0
 10 37  1  0
 11 12  2  0
 11 19  1  0
 12 13  1  0
 13 14  2  0
 13 18  1  0
 14 15  1  0
 14 33  1  0
 15 16  2  0
 15 20  1  0
 16 17  1  0
 17 18  2  0
 18 19  1  0
 20 21  1  6
 20 32  1  0
 21 22  1  0
 23 22  1  6
 23 24  1  0
 23 31  1  0
 24 25  1  0
 25 26  2  0
 25 30  1  0
 26 27  1  0
 27 28  2  0
 28 29  1  0
 29 30  2  0
 30 31  1  0
 33 32  1  6
 33 34  1  0
 34 35  1  6
 34 36  1  0
 37 38  1  0
M  CHG  2  21   1  34   1
M  END
