
     RDKit          3D

 38 42  0  0  0  0  0  0  0  0999 V2000
    7.6820   -3.6970   -0.0530 C   0  0  0  0  0  0  0  0  0  0  0  0
    6.6730   -3.4520   -0.9540 O   0  0  0  0  0  0  0  0  0  0  0  0
    5.5070   -2.9670   -0.4610 C   0  0  2  0  0  0  0  0  0  0  0  0
    4.4690   -4.1230   -0.3230 C   0  0  0  0  0  0  0  0  0  0  0  0
    4.8290   -1.8880   -1.2550 C   0  0  0  0  0  0  0  0  0  0  0  0
    3.6040   -1.4560   -0.5830 O   0  0  0  0  0  0  0  0  0  0  0  0
    3.6310   -0.8430    0.6130 C   0  0  0  0  0  0  0  0  0  0  0  0
    4.8730   -0.6890    1.0820 O   0  0  0  0  0  0  0  0  0  0  0  0
    2.6390   -0.3260    1.4920 C   0  0  0  0  0  0  0  0  0  0  0  0
    1.5120    0.4350    1.1310 N   0  0  0  0  0  0  0  0  0  0  0  0
    0.2600    0.0170    1.1590 C   0  0  0  0  0  0  0  0  0  0  0  0
    0.0160   -1.1950    1.4950 O   0  0  0  0  0  0  0  0  0  0  0  0
   -0.8230    0.8570    0.8410 C   0  0  0  0  0  0  0  0  0  0  0  0
   -2.1640    0.4090    1.1610 C   0  0  0  0  0  0  0  0  0  0  0  0
   -2.7580   -0.7310    0.5760 N   0  0  2  0  0  0  0  0  0  0  0  0
   -2.7080   -0.9320   -0.8110 C   0  0  0  0  0  0  0  0  0  0  0  0
   -3.3810   -2.2480   -1.2150 C   0  0  0  0  0  0  0  0  0  0  0  0
   -4.2400   -2.7860   -0.1740 N   0  0  0  0  0  0  0  0  0  0  0  0
   -5.2850   -3.5590   -0.8220 C   0  0  0  0  0  0  0  0  0  0  0  0
   -6.3360   -2.6410   -1.1560 N   0  0  0  0  0  0  0  0  0  0  0  0
   -5.9680   -1.3320   -0.6150 C   0  0  0  0  0  0  0  0  0  0  0  0
   -4.9930   -1.7650    0.4820 C   0  0  1  0  0  0  0  0  0  0  0  0
   -5.8690   -2.3290    1.5830 C   0  0  0  0  0  0  0  0  0  0  0  0
   -4.1720   -0.6650    1.0350 C   0  0  0  0  0  0  0  0  0  0  0  0
   -0.5500    2.1590    0.4770 C   0  0  0  0  0  0  0  0  0  0  0  0
   -1.5610    3.0430    0.1900 C   0  0  0  0  0  0  0  0  0  0  0  0
   -1.2100    4.3410   -0.1160 C   0  0  0  0  0  0  0  0  0  0  0  0
    0.0800    4.7850   -0.1510 C   0  0  0  0  0  0  0  0  0  0  0  0
    0.3630    6.0630   -0.4960 C   0  0  0  0  0  0  0  0  0  0  0  0
    1.6450    6.4930   -0.5770 C   0  0  0  0  0  0  0  0  0  0  0  0
    1.9780    8.1620   -1.0180 Cl  0  0  0  0  0  0  0  0  0  0  0  0
    2.6790    5.5980   -0.2950 C   0  0  0  0  0  0  0  0  0  0  0  0
    4.0410    6.1360   -0.4420 C   0  0  0  0  0  0  0  0  0  0  0  0
    2.4180    4.2970    0.0610 C   0  0  0  0  0  0  0  0  0  0  0  0
    1.1150    3.8810    0.1350 C   0  0  0  0  0  0  0  0  0  0  0  0
    0.7890    2.5870    0.4440 N   0  0  0  0  0  0  0  0  0  0  0  0
    1.7420    1.7380    0.7630 C   0  0  0  0  0  0  0  0  0  0  0  0
    2.9410    2.0310    0.7760 O   0  0  0  0  0  0  0  0  0  0  0  0
  1  2  1  0
  2  3  1  0
  3  4  1  6
  3  5  1  0
  5  6  1  0
  6  7  1  0
  7  8  2  0
  7  9  1  0
  9 10  1  0
 10 11  1  0
 10 37  1  0
 11 12  2  0
 11 13  1  0
 13 14  1  0
 13 25  2  0
 15 14  1  6
 15 16  1  0
 15 24  1  0
 16 17  1  0
 17 18  1  0
 18 19  1  0
 18 22  1  0
 19 20  1  0
 20 21  1  0
 21 22  1  0
 22 23  1  1
 22 24  1  0
 25 26  1  0
 25 36  1  0
 26 27  2  0
 27 28  1  0
 28 29  2  0
 28 35  1  0
 29 30  1  0
 30 31  1  0
 30 32  2  0
 32 33  1  0
 32 34  1  0
 34 35  2  0
 35 36  1  0
 36 37  1  0
 37 38  2  0
M  CHG  2  15   1  20   1
M  END
