
     RDKit          3D

 38 42  0  0  0  0  0  0  0  0999 V2000
    7.9650    1.3430    2.6100 C   0  0  0  0  0  0  0  0  0  0  0  0
    6.6470    1.8830    3.1610 C   0  0  0  0  0  0  0  0  0  0  0  0
    5.6110    1.8520    2.0680 C   0  0  0  0  0  0  0  0  0  0  0  0
    4.8300    0.7750    1.8800 N   0  0  0  0  0  0  0  0  0  0  0  0
    3.9110    0.7850    0.8860 C   0  0  0  0  0  0  0  0  0  0  0  0
    3.7530    1.8730    0.0590 C   0  0  0  0  0  0  0  0  0  0  0  0
    4.5770    2.9460    0.2950 C   0  0  0  0  0  0  0  0  0  0  0  0
    4.4550    3.9560   -0.4460 O   0  0  0  0  0  0  0  0  0  0  0  0
    5.4580    2.8840    1.2790 O   0  0  0  0  0  0  0  0  0  0  0  0
    2.7220    1.7970   -0.9950 C   0  0  0  0  0  0  0  0  0  0  0  0
    2.9030    0.4570   -1.6830 C   0  0  0  0  0  0  0  0  0  0  0  0
    3.1520   -0.6410   -0.8130 N   0  0  2  0  0  0  0  0  0  0  0  0
    2.5980   -1.8660   -1.2630 C   0  0  0  0  0  0  0  0  0  0  0  0
    1.1370   -1.9320   -1.4270 C   0  0  0  0  0  0  0  0  0  0  0  0
    0.2370   -0.9800   -1.2060 N   0  0  0  0  0  0  0  0  0  0  0  0
   -1.0230   -1.4340   -1.4770 C   0  0  0  0  0  0  0  0  0  0  0  0
   -2.2890   -0.6670   -1.3520 C   0  0  2  0  0  0  0  0  0  0  0  0
   -2.2610    0.5320   -2.2760 C   0  0  0  0  0  0  0  0  0  0  0  0
   -2.3510    1.8280   -1.4970 C   0  0  0  0  0  0  0  0  0  0  0  0
   -3.5860    1.8560   -0.6180 C   0  0  0  0  0  0  0  0  0  0  0  0
   -3.6520    0.6180    0.1320 N   0  0  0  0  0  0  0  0  0  0  0  0
   -4.8070    0.2730    0.8850 C   0  0  0  0  0  0  0  0  0  0  0  0
   -4.8190   -0.8120    1.5150 O   0  0  0  0  0  0  0  0  0  0  0  0
   -5.9790    1.1280    0.9560 C   0  0  0  0  0  0  0  0  0  0  0  0
   -6.1440    2.2980    0.3660 O   0  0  0  0  0  0  0  0  0  0  0  0
   -7.3010    2.8100    0.6260 C   0  0  0  0  0  0  0  0  0  0  0  0
   -7.9760    1.9470    1.4410 C   0  0  0  0  0  0  0  0  0  0  0  0
   -7.1360    0.8760    1.6520 C   0  0  0  0  0  0  0  0  0  0  0  0
   -7.4310   -0.3250    2.4780 C   0  0  0  0  0  0  0  0  0  0  0  0
   -2.4900   -0.2510    0.0860 C   0  0  0  0  0  0  0  0  0  0  0  0
   -0.8910   -2.6970   -1.8730 N   0  0  0  0  0  0  0  0  0  0  0  0
    0.3980   -3.0660   -1.8670 C   0  0  0  0  0  0  0  0  0  0  0  0
    1.0230   -4.3160   -2.2110 C   0  0  0  0  0  0  0  0  0  0  0  0
    0.4790   -5.4120   -2.6180 C   0  0  0  0  0  0  0  0  0  0  0  0
   -0.8760   -5.7770   -2.8680 C   0  0  0  0  0  0  0  0  0  0  0  0
   -1.1630   -6.9830   -3.2860 O   0  0  0  0  0  0  0  0  0  0  0  0
   -2.2760   -4.7770   -2.6790 Cl  0  0  0  0  0  0  0  0  0  0  0  0
    3.0050   -0.3700    0.6010 C   0  0  0  0  0  0  0  0  0  0  0  0
  1  2  1  0
  2  3  1  0
  3  4  2  0
  3  9  1  0
  4  5  1  0
  5  6  2  0
  5 38  1  0
  6  7  1  0
  6 10  1  0
  7  8  2  0
  7  9  1  0
 10 11  1  0
 11 12  1  0
 12 13  1  6
 12 38  1  0
 13 14  1  0
 14 15  1  0
 14 32  2  0
 15 16  1  0
 17 16  1  1
 16 31  2  0
 17 18  1  0
 17 30  1  0
 18 19  1  0
 19 20  1  0
 20 21  1  0
 21 22  1  0
 21 30  1  0
 22 23  2  0
 22 24  1  0
 24 25  1  0
 24 28  2  0
 25 26  1  0
 26 27  2  0
 27 28  1  0
 28 29  1  0
 31 32  1  0
 32 33  1  0
 33 34  2  3
 34 35  1  0
 35 36  2  0
 35 37  1  0
M  CHG  2   4   1  12   1
M  END
