
     RDKit          3D

 38 42  0  0  0  0  0  0  0  0999 V2000
   10.2920    1.7390    1.6340 C   0  0  0  0  0  0  0  0  0  0  0  0
    9.5690    0.5780    1.1920 N   0  0  0  0  0  0  0  0  0  0  0  0
    9.3920    0.5590   -0.2580 C   0  0  0  0  0  0  0  0  0  0  0  0
    7.9330    0.6710   -0.5350 C   0  0  0  0  0  0  0  0  0  0  0  0
    7.3390   -0.0780   -1.5310 C   0  0  0  0  0  0  0  0  0  0  0  0
    5.9780    0.0270   -1.7910 C   0  0  0  0  0  0  0  0  0  0  0  0
    5.1780    0.8880   -1.0570 C   0  0  0  0  0  0  0  0  0  0  0  0
    3.8290    0.9830   -1.3250 O   0  0  0  0  0  0  0  0  0  0  0  0
    2.9130    0.1640   -0.6680 C   0  0  0  0  0  0  0  0  0  0  0  0
    1.5620    0.2860   -0.9140 C   0  0  0  0  0  0  0  0  0  0  0  0
    0.6310   -0.5050   -0.2840 C   0  0  0  0  0  0  0  0  0  0  0  0
    1.0210   -1.4580    0.6260 C   0  0  0  0  0  0  0  0  0  0  0  0
    0.0570   -2.2360    1.2420 O   0  0  0  0  0  0  0  0  0  0  0  0
   -1.2890   -2.0450    0.9570 C   0  0  0  0  0  0  0  0  0  0  0  0
   -1.9920   -2.7360    0.0580 N   0  0  0  0  0  0  0  0  0  0  0  0
   -3.2910   -2.4860   -0.1560 N   0  0  0  0  0  0  0  0  0  0  0  0
   -3.9080   -1.5280    0.5390 C   0  0  0  0  0  0  0  0  0  0  0  0
   -5.3330   -1.2200    0.3630 N   0  0  0  0  0  0  0  0  0  0  0  0
   -5.6840   -0.1920   -0.2960 C   0  0  0  0  0  0  0  0  0  0  0  0
   -4.4810    0.5280   -0.7840 C   0  0  0  0  0  0  0  0  0  0  0  0
   -3.4680   -0.1410   -1.0490 O   0  0  0  0  0  0  0  0  0  0  0  0
   -4.4400    1.9290   -0.9580 O   0  0  0  0  0  0  0  0  0  0  0  0
   -5.4730    2.7500   -1.5240 C   0  0  0  0  0  0  0  0  0  0  0  0
   -6.7760    2.6110   -0.8100 C   0  0  0  0  0  0  0  0  0  0  0  0
   -7.5750    1.3820   -1.2440 C   0  0  0  0  0  0  0  0  0  0  0  0
   -7.0790    0.2060   -0.4990 C   0  0  0  0  0  0  0  0  0  0  0  0
   -7.9820   -0.5690    0.0480 C   0  0  0  0  0  0  0  0  0  0  0  0
   -7.6900   -1.7760    0.8320 C   0  0  0  0  0  0  0  0  0  0  0  0
   -6.2750   -2.1170    0.9570 C   0  0  2  0  0  0  0  0  0  0  0  0
   -5.8760   -2.4170    2.4140 C   0  0  0  0  0  0  0  0  0  0  0  0
   -3.2190   -0.8280    1.4420 N   0  0  0  0  0  0  0  0  0  0  0  0
   -1.9210   -1.0370    1.6940 C   0  0  0  0  0  0  0  0  0  0  0  0
   -1.2790   -0.3640    2.5550 O   0  0  0  0  0  0  0  0  0  0  0  0
    2.3630   -1.5830    0.8730 C   0  0  0  0  0  0  0  0  0  0  0  0
    2.9030   -2.7930    2.0340 Cl  0  0  0  0  0  0  0  0  0  0  0  0
    3.3090   -0.7910    0.2440 C   0  0  0  0  0  0  0  0  0  0  0  0
    5.7680    1.6380   -0.0620 C   0  0  0  0  0  0  0  0  0  0  0  0
    7.1220    1.5260    0.1880 C   0  0  0  0  0  0  0  0  0  0  0  0
  1  2  1  0
  2  3  1  0
  3  4  1  0
  4  5  2  0
  4 38  1  0
  5  6  1  0
  6  7  2  0
  7  8  1  0
  7 37  1  0
  8  9  1  0
  9 10  2  0
  9 36  1  0
 10 11  1  0
 11 12  2  0
 12 13  1  0
 12 34  1  0
 13 14  1  0
 14 15  2  0
 14 32  1  0
 15 16  1  0
 16 17  2  0
 17 18  1  0
 17 31  1  0
 18 19  2  0
 18 29  1  0
 19 20  1  0
 19 26  1  0
 20 21  2  0
 20 22  1  0
 22 23  1  0
 23 24  1  0
 24 25  1  0
 25 26  1  0
 26 27  2  0
 27 28  1  0
 28 29  1  0
 29 30  1  1
 31 32  1  0
 32 33  2  0
 34 35  1  0
 34 36  2  0
 37 38  2  0
M  CHG  2   2   1  18   1
M  END
