
     RDKit          3D

 38 42  0  0  0  0  0  0  0  0999 V2000
   11.6240    1.0570    0.1580 C   0  0  0  0  0  0  0  0  0  0  0  0
   10.5010    0.1310    0.2480 N   0  0  0  0  0  0  0  0  0  0  0  0
    9.5120    0.3700   -0.7920 C   0  0  0  0  0  0  0  0  0  0  0  0
    8.1740    0.1810   -0.1700 C   0  0  0  0  0  0  0  0  0  0  0  0
    7.4560    1.2260    0.3680 C   0  0  0  0  0  0  0  0  0  0  0  0
    6.2010    0.9820    0.9410 C   0  0  0  0  0  0  0  0  0  0  0  0
    5.6870   -0.2900    0.9680 C   0  0  0  0  0  0  0  0  0  0  0  0
    4.4550   -0.5470    1.5270 O   0  0  0  0  0  0  0  0  0  0  0  0
    3.3230   -0.5000    0.7330 C   0  0  0  0  0  0  0  0  0  0  0  0
    2.8470   -1.6070    0.0660 C   0  0  0  0  0  0  0  0  0  0  0  0
    1.7300   -1.5820   -0.7210 C   0  0  0  0  0  0  0  0  0  0  0  0
    1.0530   -0.3550   -0.8390 C   0  0  0  0  0  0  0  0  0  0  0  0
   -0.0650   -0.2950   -1.6190 O   0  0  0  0  0  0  0  0  0  0  0  0
   -1.3670   -0.0780   -1.2350 C   0  0  0  0  0  0  0  0  0  0  0  0
   -2.3080    0.0020   -2.2230 N   0  0  0  0  0  0  0  0  0  0  0  0
   -3.5720    0.2050   -1.9150 N   0  0  0  0  0  0  0  0  0  0  0  0
   -4.0110    0.3430   -0.6500 C   0  0  0  0  0  0  0  0  0  0  0  0
   -5.4070    0.5890   -0.4770 N   0  0  0  0  0  0  0  0  0  0  0  0
   -6.1850   -0.3840   -0.2020 C   0  0  0  0  0  0  0  0  0  0  0  0
   -5.5170   -1.6970   -0.0910 C   0  0  0  0  0  0  0  0  0  0  0  0
   -4.3830   -1.7950   -0.5740 O   0  0  0  0  0  0  0  0  0  0  0  0
   -6.0830   -2.8350    0.5240 O   0  0  0  0  0  0  0  0  0  0  0  0
   -7.0330   -2.7790    1.5550 C   0  0  0  0  0  0  0  0  0  0  0  0
   -8.3630   -2.2590    1.2570 C   0  0  0  0  0  0  0  0  0  0  0  0
   -8.6260   -1.2090    0.2940 C   0  0  0  0  0  0  0  0  0  0  0  0
   -7.6300   -0.1920   -0.0150 C   0  0  0  0  0  0  0  0  0  0  0  0
   -8.1490    1.0070   -0.1320 C   0  0  0  0  0  0  0  0  0  0  0  0
   -7.3230    2.1730   -0.4470 C   0  0  0  0  0  0  0  0  0  0  0  0
   -5.8980    1.9290   -0.6000 C   0  0  2  0  0  0  0  0  0  0  0  0
   -5.4720    2.3660   -2.0310 C   0  0  0  0  0  0  0  0  0  0  0  0
   -3.1390    0.2730    0.3450 N   0  0  0  0  0  0  0  0  0  0  0  0
   -1.8210    0.0620    0.0540 C   0  0  0  0  0  0  0  0  0  0  0  0
   -1.0250   -0.0040    1.0120 O   0  0  0  0  0  0  0  0  0  0  0  0
    1.4910    0.7770   -0.1930 C   0  0  0  0  0  0  0  0  0  0  0  0
    0.6780    2.3130   -0.3960 Cl  0  0  0  0  0  0  0  0  0  0  0  0
    2.6350    0.6760    0.5910 C   0  0  0  0  0  0  0  0  0  0  0  0
    6.4200   -1.3170    0.4250 C   0  0  0  0  0  0  0  0  0  0  0  0
    7.6690   -1.1010   -0.1500 C   0  0  0  0  0  0  0  0  0  0  0  0
  1  2  1  0
  2  3  1  0
  3  4  1  0
  4  5  2  0
  4 38  1  0
  5  6  1  0
  6  7  2  0
  7  8  1  0
  7 37  1  0
  8  9  1  0
  9 10  2  0
  9 36  1  0
 10 11  1  0
 11 12  2  0
 12 13  1  0
 12 34  1  0
 13 14  1  0
 14 15  2  0
 14 32  1  0
 15 16  1  0
 16 17  2  0
 17 18  1  0
 17 31  1  0
 18 19  2  0
 18 29  1  0
 19 20  1  0
 19 26  1  0
 20 21  2  0
 20 22  1  0
 22 23  1  0
 23 24  1  0
 24 25  1  0
 25 26  1  0
 26 27  2  0
 27 28  1  0
 28 29  1  0
 29 30  1  6
 31 32  1  0
 32 33  2  0
 34 35  1  0
 34 36  2  0
 37 38  2  0
M  CHG  2   2   1  18   1
M  END
