
     RDKit          3D

 38 43  0  0  0  0  0  0  0  0999 V2000
   -9.1030    0.3820   -1.5050 C   0  0  0  0  0  0  0  0  0  0  0  0
   -8.8300    0.4960   -0.0250 C   0  0  0  0  0  0  0  0  0  0  0  0
   -8.5840    1.7650    0.4010 O   0  0  0  0  0  0  0  0  0  0  0  0
   -7.5220    2.4240   -0.1430 C   0  0  0  0  0  0  0  0  0  0  0  0
   -6.2090    1.7730    0.0790 C   0  0  0  0  0  0  0  0  0  0  0  0
   -6.0290    0.6720    0.7310 O   0  0  0  0  0  0  0  0  0  0  0  0
   -4.7800    0.3260    0.7760 C   0  0  0  0  0  0  0  0  0  0  0  0
   -4.2670   -0.7880    1.3900 O   0  0  0  0  0  0  0  0  0  0  0  0
   -4.9930   -1.7500    2.0790 C   0  0  0  0  0  0  0  0  0  0  0  0
   -4.0520    1.2710    0.0970 C   0  0  0  0  0  0  0  0  0  0  0  0
   -2.5910    1.2770   -0.1030 C   0  0  0  0  0  0  0  0  0  0  0  0
   -1.7340    0.3360    0.3600 N   0  0  0  0  0  0  0  0  0  0  0  0
   -0.4660    0.6170    0.0170 C   0  0  0  0  0  0  0  0  0  0  0  0
    0.7540   -0.0240    0.2460 C   0  0  0  0  0  0  0  0  0  0  0  0
    1.9120    0.5240   -0.2460 C   0  0  0  0  0  0  0  0  0  0  0  0
    1.8300    1.6750   -0.9420 N   0  0  0  0  0  0  0  0  0  0  0  0
    0.6490    2.3120   -1.1740 C   0  0  0  0  0  0  0  0  0  0  0  0
   -0.5330    1.7950   -0.6970 C   0  0  0  0  0  0  0  0  0  0  0  0
   -1.8230    2.1680   -0.7530 N   0  0  0  0  0  0  0  0  0  0  0  0
    3.0480   -0.3640    0.1500 C   0  0  2  0  0  0  0  0  0  0  0  0
    3.9680   -0.5590   -0.9310 N   0  0  0  0  0  0  0  0  0  0  0  0
    5.3080   -0.9060   -0.5730 C   0  0  0  0  0  0  0  0  0  0  0  0
    5.6640   -0.6040    0.8470 C   0  0  1  0  0  0  0  0  0  0  0  0
    7.0450   -1.0060    0.9900 O   0  0  0  0  0  0  0  0  0  0  0  0
    7.7680    0.0520    0.4570 C   0  0  0  0  0  0  0  0  0  0  0  0
    9.0380    0.1860   -0.0810 C   0  0  0  0  0  0  0  0  0  0  0  0
    9.5200    1.3700   -0.5460 C   0  0  0  0  0  0  0  0  0  0  0  0
    8.7080    2.4940   -0.4820 C   0  0  0  0  0  0  0  0  0  0  0  0
    7.4420    2.3860    0.0480 C   0  0  0  0  0  0  0  0  0  0  0  0
    6.9770    1.1770    0.5130 C   0  0  0  0  0  0  0  0  0  0  0  0
    5.7680    0.7830    1.0860 O   0  0  0  0  0  0  0  0  0  0  0  0
    2.4240   -1.6720    0.4940 C   0  0  0  0  0  0  0  0  0  0  0  0
    1.0410   -1.2940    0.9820 C   0  0  2  0  0  0  0  0  0  0  0  0
    0.0620   -2.2830    0.5610 N   0  0  2  0  0  0  0  0  0  0  0  0
    0.1290   -3.4860    1.3440 C   0  0  0  0  0  0  0  0  0  0  0  0
    0.1230   -2.5320   -0.8600 C   0  0  0  0  0  0  0  0  0  0  0  0
   -4.9700    2.1990   -0.3490 C   0  0  0  0  0  0  0  0  0  0  0  0
   -4.6590    3.6280   -1.2680 Cl  0  0  0  0  0  0  0  0  0  0  0  0
  1  2  1  0
  2  3  1  0
  3  4  1  0
  4  5  1  0
  5  6  1  0
  5 37  2  0
  6  7  1  0
  7  8  1  0
  7 10  2  0
  8  9  1  0
 10 11  1  0
 10 37  1  0
 11 12  2  0
 11 19  1  0
 12 13  1  0
 13 14  2  0
 13 18  1  0
 14 15  1  0
 14 33  1  0
 15 16  2  0
 15 20  1  0
 16 17  1  0
 17 18  2  0
 18 19  1  0
 20 21  1  6
 20 32  1  0
 21 22  1  0
 23 22  1  6
 23 24  1  0
 23 31  1  0
 24 25  1  0
 25 26  2  0
 25 30  1  0
 26 27  1  0
 27 28  2  0
 28 29  1  0
 29 30  2  0
 30 31  1  0
 33 32  1  6
 33 34  1  0
 34 35  1  1
 34 36  1  0
 37 38  1  0
M  CHG  2  21   1  34   1
M  END
