
     RDKit          3D

 38 42  0  0  0  0  0  0  0  0999 V2000
    8.3420   -2.5250    1.2350 C   0  0  0  0  0  0  0  0  0  0  0  0
    7.1040   -1.8720    1.0510 O   0  0  0  0  0  0  0  0  0  0  0  0
    7.1240   -0.5860    0.5150 C   0  0  0  0  0  0  0  0  0  0  0  0
    8.2850    0.0370    0.1740 C   0  0  0  0  0  0  0  0  0  0  0  0
    8.2890    1.3050   -0.3530 C   0  0  0  0  0  0  0  0  0  0  0  0
    7.0950    1.9620   -0.5420 C   0  0  0  0  0  0  0  0  0  0  0  0
    5.9180    1.3020   -0.1840 C   0  0  0  0  0  0  0  0  0  0  0  0
    5.8830    0.0360    0.3450 C   0  0  0  0  0  0  0  0  0  0  0  0
    4.6970   -0.6550    0.7180 N   0  0  0  0  0  0  0  0  0  0  0  0
    3.3890   -0.1900    0.6170 C   0  0  0  0  0  0  0  0  0  0  0  0
    3.1380    0.9320    0.1660 O   0  0  0  0  0  0  0  0  0  0  0  0
    2.2160   -1.0300    1.0520 C   0  0  0  0  0  0  0  0  0  0  0  0
    0.9920   -0.4050    0.9130 O   0  0  0  0  0  0  0  0  0  0  0  0
    0.3970    0.1070   -0.1970 C   0  0  0  0  0  0  0  0  0  0  0  0
    1.0770    0.0080   -1.2890 O   0  0  0  0  0  0  0  0  0  0  0  0
   -0.9180    0.7360   -0.2300 C   0  0  0  0  0  0  0  0  0  0  0  0
   -0.9530    2.1440   -0.0940 C   0  0  0  0  0  0  0  0  0  0  0  0
    0.3210    2.8800    0.0870 C   0  0  0  0  0  0  0  0  0  0  0  0
    0.8710    2.7060    1.7840 Cl  0  0  0  0  0  0  0  0  0  0  0  0
   -2.0990    2.8110   -0.1060 N   0  0  0  0  0  0  0  0  0  0  0  0
   -3.2320    2.1130   -0.2510 C   0  0  0  0  0  0  0  0  0  0  0  0
   -4.4770    2.8010   -0.2680 N   0  0  0  0  0  0  0  0  0  0  0  0
   -4.6940    4.2240   -0.1360 C   0  0  0  0  0  0  0  0  0  0  0  0
   -5.6690    4.4760   -1.2840 C   0  0  0  0  0  0  0  0  0  0  0  0
   -6.5170    3.2320   -1.2640 C   0  0  0  0  0  0  0  0  0  0  0  0
   -5.7780    2.2050   -0.4190 C   0  0  0  0  0  0  0  0  0  0  0  0
   -3.2200    0.7760   -0.3790 N   0  0  0  0  0  0  0  0  0  0  0  0
   -2.0660    0.0320   -0.3720 C   0  0  0  0  0  0  0  0  0  0  0  0
   -2.1880   -1.4190   -0.4080 C   0  0  0  0  0  0  0  0  0  0  0  0
   -1.1890   -2.3110   -0.6750 C   0  0  0  0  0  0  0  0  0  0  0  0
   -1.3860   -3.6960   -0.6280 C   0  0  0  0  0  0  0  0  0  0  0  0
   -2.6180   -4.2170   -0.3060 C   0  0  0  0  0  0  0  0  0  0  0  0
   -3.6520   -3.3570   -0.0300 C   0  0  0  0  0  0  0  0  0  0  0  0
   -3.4260   -1.9990   -0.0840 C   0  0  0  0  0  0  0  0  0  0  0  0
   -4.8370   -4.1710    0.2800 C   0  0  0  0  0  0  0  0  0  0  0  0
   -5.9850   -3.6800    0.5250 O   0  0  0  0  0  0  0  0  0  0  0  0
   -4.4460   -5.5870    0.2500 C   0  0  0  0  0  0  0  0  0  0  0  0
   -3.0800   -5.5690   -0.1890 N   0  0  0  0  0  0  0  0  0  0  0  0
  1  2  1  0
  2  3  1  0
  3  4  2  0
  3  8  1  0
  4  5  1  0
  5  6  2  0
  6  7  1  0
  7  8  2  0
  8  9  1  0
  9 10  1  0
 10 11  2  0
 10 12  1  0
 12 13  1  0
 13 14  1  0
 14 15  2  0
 14 16  1  0
 16 17  2  0
 16 28  1  0
 17 18  1  0
 17 20  1  0
 18 19  1  0
 20 21  2  0
 21 22  1  0
 21 27  1  0
 22 23  1  0
 22 26  1  0
 23 24  1  0
 24 25  1  0
 25 26  1  0
 27 28  2  0
 28 29  1  0
 29 30  2  0
 29 34  1  0
 30 31  1  0
 31 32  2  0
 32 33  1  0
 32 38  1  0
 33 34  2  0
 33 35  1  0
 35 36  2  0
 35 37  1  0
 37 38  1  0
M  CHG  2  20   1  27   1
M  END
