
     RDKit          3D

 37 42  0  0  0  0  0  0  0  0999 V2000
    9.7610   -1.3220    1.7820 C   0  0  0  0  0  0  0  0  0  0  0  0
    8.9260   -2.1620    0.9610 N   0  0  0  0  0  0  0  0  0  0  0  0
    7.9980   -1.3430    0.2140 C   0  0  0  0  0  0  0  0  0  0  0  0
    7.3600   -0.3350    1.1480 C   0  0  0  0  0  0  0  0  0  0  0  0
    6.3860    0.5040    0.3550 C   0  0  0  0  0  0  0  0  0  0  0  0
    6.8000    1.6760   -0.2460 C   0  0  0  0  0  0  0  0  0  0  0  0
    5.9170    2.4310   -0.9720 C   0  0  0  0  0  0  0  0  0  0  0  0
    4.6250    2.0240   -1.1000 C   0  0  0  0  0  0  0  0  0  0  0  0
    4.1810    0.8540   -0.5090 C   0  0  0  0  0  0  0  0  0  0  0  0
    2.9730    0.4330   -0.6010 O   0  0  0  0  0  0  0  0  0  0  0  0
    1.6970    0.2780   -0.7920 C   0  0  0  0  0  0  0  0  0  0  0  0
    1.2290   -0.6520   -1.7550 C   0  0  0  0  0  0  0  0  0  0  0  0
   -0.1010   -0.8590   -1.9910 C   0  0  0  0  0  0  0  0  0  0  0  0
   -1.0590   -0.1640   -1.2950 C   0  0  0  0  0  0  0  0  0  0  0  0
   -0.6630    0.7480   -0.3530 C   0  0  0  0  0  0  0  0  0  0  0  0
    0.6870    0.9630   -0.1070 C   0  0  0  0  0  0  0  0  0  0  0  0
    1.0370    1.8890    0.8490 O   0  0  0  0  0  0  0  0  0  0  0  0
    1.0800    3.2800    0.7140 C   0  0  0  0  0  0  0  0  0  0  0  0
    1.9470    3.6480   -0.2660 O   0  0  0  0  0  0  0  0  0  0  0  0
   -1.6390    1.4610    0.3640 O   0  0  0  0  0  0  0  0  0  0  0  0
   -3.0210    1.2570    0.1300 C   0  0  0  0  0  0  0  0  0  0  0  0
   -4.1150    1.7090    0.5840 N   0  0  0  0  0  0  0  0  0  0  0  0
   -5.2260    1.0960   -0.0540 N   0  0  0  0  0  0  0  0  0  0  0  0
   -6.4700    1.6150    0.5280 C   0  0  0  0  0  0  0  0  0  0  0  0
   -7.5880    0.6100    0.4040 C   0  0  0  0  0  0  0  0  0  0  0  0
   -7.1480   -0.6230    1.0000 N   0  0  1  0  0  0  0  0  0  0  0  0
   -8.0290   -1.0380    2.0970 C   0  0  0  0  0  0  0  0  0  0  0  0
   -7.2680   -1.6570   -0.0160 C   0  0  0  0  0  0  0  0  0  0  0  0
   -5.8760   -2.1630   -0.3090 C   0  0  0  0  0  0  0  0  0  0  0  0
   -5.0460   -1.2050   -0.9530 N   0  0  0  0  0  0  0  0  0  0  0  0
   -4.2010   -2.0350   -1.8000 C   0  0  0  0  0  0  0  0  0  0  0  0
   -4.3980   -3.2400   -1.9720 O   0  0  0  0  0  0  0  0  0  0  0  0
   -3.0160   -1.4040   -2.5140 C   0  0  0  0  0  0  0  0  0  0  0  0
   -2.4520   -0.4110   -1.5790 C   0  0  0  0  0  0  0  0  0  0  0  0
   -3.3070    0.2960   -0.8720 C   0  0  0  0  0  0  0  0  0  0  0  0
   -4.7840    0.1840   -1.0400 C   0  0  2  0  0  0  0  0  0  0  0  0
    5.0960    0.0940    0.2290 C   0  0  0  0  0  0  0  0  0  0  0  0
  1  2  1  0
  2  3  1  0
  3  4  1  0
  4  5  1  0
  5  6  2  0
  5 37  1  0
  6  7  1  0
  7  8  2  0
  8  9  1  0
  9 10  1  0
  9 37  2  0
 10 11  1  0
 11 12  2  0
 11 16  1  0
 12 13  1  0
 13 14  2  0
 14 15  1  0
 14 34  1  0
 15 16  2  0
 15 20  1  0
 16 17  1  0
 17 18  1  0
 18 19  1  0
 20 21  1  0
 21 22  2  0
 21 35  1  0
 22 23  1  0
 23 24  1  0
 36 23  1  1
 24 25  1  0
 25 26  1  0
 26 27  1  1
 26 28  1  0
 28 29  1  0
 29 30  1  0
 30 31  1  0
 30 36  1  0
 31 32  2  0
 31 33  1  0
 33 34  1  0
 34 35  2  0
 35 36  1  0
M  CHG  2   2   1  26   1
M  END
