
     RDKit          3D

 38 41  0  0  0  0  0  0  0  0999 V2000
    2.0950   -3.5010   -1.3860 C   0  0  0  0  0  0  0  0  0  0  0  0
    2.3000   -2.3190   -0.4370 C   0  0  1  0  0  0  0  0  0  0  0  0
    3.6050   -2.4130    0.2830 C   0  0  0  0  0  0  0  0  0  0  0  0
    2.2000   -1.0810   -1.2430 C   0  0  0  0  0  0  0  0  0  0  0  0
    2.3830    0.1590   -0.5560 N   0  0  0  0  0  0  0  0  0  0  0  0
    1.1410    0.7750   -0.3330 C   0  0  0  0  0  0  0  0  0  0  0  0
    0.9420    1.3640    1.0400 C   0  0  1  0  0  0  0  0  0  0  0  0
    1.8480    2.3350    1.3620 O   0  0  0  0  0  0  0  0  0  0  0  0
   -0.4870    1.7470    1.2150 C   0  0  2  0  0  0  0  0  0  0  0  0
   -0.7660    2.3120    2.5860 C   0  0  0  0  0  0  0  0  0  0  0  0
   -2.1570    2.6920    2.7870 C   0  0  0  0  0  0  0  0  0  0  0  0
   -2.6830    3.9240    2.5160 C   0  0  0  0  0  0  0  0  0  0  0  0
   -4.0040    4.2120    2.7320 C   0  0  0  0  0  0  0  0  0  0  0  0
   -4.8650    3.2560    3.2380 C   0  0  0  0  0  0  0  0  0  0  0  0
   -4.3620    1.9900    3.5250 C   0  0  0  0  0  0  0  0  0  0  0  0
   -3.0250    1.7310    3.2950 C   0  0  0  0  0  0  0  0  0  0  0  0
   -1.3900    0.6890    0.8560 N   0  0  0  0  0  0  0  0  0  0  0  0
   -2.3510    0.8060   -0.1940 C   0  0  0  0  0  0  0  0  0  0  0  0
   -2.3810    1.8940   -0.8100 O   0  0  0  0  0  0  0  0  0  0  0  0
   -3.2320   -0.1850   -0.5650 O   0  0  0  0  0  0  0  0  0  0  0  0
   -4.1670   -0.0040   -1.6200 C   0  0  1  0  0  0  0  0  0  0  0  0
   -4.0500   -1.1050   -2.6110 C   0  0  0  0  0  0  0  0  0  0  0  0
   -5.3060   -1.5060   -2.9950 O   0  0  0  0  0  0  0  0  0  0  0  0
   -6.2540   -0.8390   -2.2720 C   0  0  1  0  0  0  0  0  0  0  0  0
   -7.1440   -1.7610   -1.6770 O   0  0  0  0  0  0  0  0  0  0  0  0
   -6.4490   -2.2720   -0.5840 C   0  0  0  0  0  0  0  0  0  0  0  0
   -5.7270   -1.0820    0.0290 C   0  0  0  0  0  0  0  0  0  0  0  0
   -5.5950   -0.1270   -1.1300 C   0  0  1  0  0  0  0  0  0  0  0  0
    3.6660    1.0200   -1.1690 S   0  0  2  0  0  0  0  0  0  0  0  0
    3.8680    2.3890   -0.5880 O   0  0  0  0  0  0  0  0  0  0  0  0
    3.5200    1.2840   -2.6760 O   0  0  0  0  0  0  0  0  0  0  0  0
    5.1710    0.1650   -1.0070 C   0  0  0  0  0  0  0  0  0  0  0  0
    5.6580   -0.6370   -2.0440 C   0  0  0  0  0  0  0  0  0  0  0  0
    6.8740   -1.3060   -1.8880 C   0  0  0  0  0  0  0  0  0  0  0  0
    7.6020   -1.1850   -0.7240 C   0  0  0  0  0  0  0  0  0  0  0  0
    8.8350   -1.8550   -0.5490 N   0  0  0  0  0  0  0  0  0  0  0  0
    7.0930   -0.3810    0.2890 C   0  0  0  0  0  0  0  0  0  0  0  0
    5.9040    0.2780    0.1500 C   0  0  0  0  0  0  0  0  0  0  0  0
  2  1  1  6
  2  3  1  0
  2  4  1  0
  4  5  1  0
  5  6  1  0
 29  5  1  1
  6  7  1  0
  7  8  1  6
  7  9  1  0
  9 10  1  1
  9 17  1  0
 10 11  1  0
 11 12  2  0
 11 16  1  0
 12 13  1  0
 13 14  2  0
 14 15  1  0
 15 16  2  0
 17 18  1  0
 18 19  2  0
 18 20  1  0
 21 20  1  1
 21 22  1  0
 21 28  1  0
 22 23  1  0
 24 23  1  1
 24 25  1  0
 24 28  1  0
 25 26  1  0
 26 27  1  0
 28 27  1  1
 29 30  2  0
 29 31  2  0
 29 32  1  0
 32 33  2  0
 32 38  1  0
 33 34  1  0
 34 35  2  0
 35 36  1  0
 35 37  1  0
 37 38  2  0
M  END
