
     RDKit          3D

 13 12  0  0  0  0  0  0  0  0999 V2000
   -2.4240    2.1970    0.1260 N   0  0  0  0  0  0  0  0  0  0  0  0
   -2.6570    0.8440   -0.1580 C   0  0  0  0  0  0  0  0  0  0  0  0
   -3.9340    0.5940   -0.2840 O   0  0  0  0  0  0  0  0  0  0  0  0
   -1.6940   -0.1690   -0.3040 C   0  0  0  0  0  0  0  0  0  0  0  0
   -0.4250   -0.1750   -0.2300 C   0  0  0  0  0  0  0  0  0  0  0  0
    0.5720    0.8260    0.0290 C   0  0  0  0  0  0  0  0  0  0  0  0
    0.2010    2.2060    0.2820 N   0  0  0  0  0  0  0  0  0  0  0  0
    1.8560    0.5370    0.0470 C   0  0  0  0  0  0  0  0  0  0  0  0
    2.5460   -0.6930   -0.1580 C   0  0  0  0  0  0  0  0  0  0  0  0
    3.9980   -0.7590   -0.0860 N   0  0  0  0  0  0  0  0  0  0  0  0
    2.0320   -1.8070   -0.4110 O   0  0  0  0  0  0  0  0  0  0  0  0
   -2.2700   -1.4690   -0.5980 O   0  0  0  0  0  0  0  0  0  0  0  0
   -2.1670   -2.4470    0.3640 N   0  0  0  0  0  0  0  0  0  0  0  0
  1  2  1  0
  2  3  2  0
  2  4  1  0
  4  5  2  3
  4 12  1  0
  5  6  1  0
  6  7  1  0
  6  8  2  3
  8  9  1  0
  9 10  1  0
  9 11  2  0
 12 13  1  0
M  CHG  2  10   1  13   1
M  END
