
     RDKit          3D

 12 11  0  0  0  0  0  0  0  0999 V2000
    4.5600   -0.2390    0.0970 N   0  0  0  0  0  0  0  0  0  0  0  0
    3.2860    0.2930    0.3520 C   0  0  0  0  0  0  0  0  0  0  0  0
    3.0410    0.8920    1.4150 O   0  0  0  0  0  0  0  0  0  0  0  0
    2.2230    0.1410   -0.6550 C   0  0  0  0  0  0  0  0  0  0  0  0
    0.9750    0.7380   -0.2520 N   0  0  0  0  0  0  0  0  0  0  0  0
    0.2780   -0.1530    0.6520 C   0  0  0  0  0  0  0  0  0  0  0  0
   -1.1820   -0.2240    0.2910 C   0  0  0  0  0  0  0  0  0  0  0  0
   -2.0650    0.1400    1.1710 C   0  0  0  0  0  0  0  0  0  0  0  0
   -3.4710    0.1140    0.9350 N   0  0  0  0  0  0  0  0  0  0  0  0
   -1.4970   -0.7040   -1.0440 C   0  0  0  0  0  0  0  0  0  0  0  0
   -2.8290   -0.8250   -1.5260 N   0  0  0  0  0  0  0  0  0  0  0  0
   -0.5910   -1.0470   -1.8650 O   0  0  0  0  0  0  0  0  0  0  0  0
  1  2  1  0
  2  3  2  0
  2  4  1  0
  4  5  1  0
  5  6  1  0
  6  7  1  0
  7  8  2  3
  7 10  1  0
  8  9  1  0
 10 11  1  0
 10 12  2  0
M  CHG  2   5   1   9   1
M  END
