
     RDKit          3D

 13 12  0  0  0  0  0  0  0  0999 V2000
    4.3880   -0.0340    0.6180 C   0  0  0  0  0  0  0  0  0  0  0  0
    3.0310   -0.3880    0.8210 O   0  0  0  0  0  0  0  0  0  0  0  0
    2.0040    0.1040   -0.0490 C   0  0  0  0  0  0  0  0  0  0  0  0
    2.4540    0.8310   -0.9380 O   0  0  0  0  0  0  0  0  0  0  0  0
    0.6210   -0.2820    0.1920 C   0  0  0  0  0  0  0  0  0  0  0  0
    0.4390   -1.1460    1.3340 N   0  0  0  0  0  0  0  0  0  0  0  0
   -0.3750    0.0720   -0.5170 C   0  0  0  0  0  0  0  0  0  0  0  0
   -0.1390    0.9680   -1.7250 C   0  0  0  0  0  0  0  0  0  0  0  0
   -0.8360    2.2330   -1.5740 N   0  0  0  0  0  0  0  0  0  0  0  0
   -1.7300   -0.3150   -0.2690 C   0  0  0  0  0  0  0  0  0  0  0  0
   -2.6080    0.1440   -1.0960 O   0  0  0  0  0  0  0  0  0  0  0  0
   -2.2480   -1.1160    0.7340 N   0  0  0  0  0  0  0  0  0  0  0  0
   -3.6440   -1.4030    0.8340 N   0  0  0  0  0  0  0  0  0  0  0  0
  1  2  1  0
  2  3  1  0
  3  4  2  0
  3  5  1  0
  5  6  1  0
  5  7  2  3
  7  8  1  0
  7 10  1  0
  8  9  1  0
 10 11  2  0
 10 12  1  0
 12 13  1  0
M  CHG  2   9   1  13   1
M  END
