
     RDKit          3D

 17 17  0  0  0  0  0  0  0  0999 V2000
    5.8290   -1.2940   -1.3540 C   0  0  0  0  0  0  0  0  0  0  0  0
    4.4230   -1.1600   -1.3850 O   0  0  0  0  0  0  0  0  0  0  0  0
    4.0580   -0.3510   -0.3790 N   0  0  0  0  0  0  0  0  0  0  0  0
    2.6900   -0.2570   -0.0380 C   0  0  0  0  0  0  0  0  0  0  0  0
    1.8310   -0.9150   -0.6590 O   0  0  0  0  0  0  0  0  0  0  0  0
    2.2740    0.6300    1.0630 C   0  0  0  0  0  0  0  0  0  0  0  0
    0.8620    0.5650    1.1950 O   0  0  0  0  0  0  0  0  0  0  0  0
   -0.0080    0.9250    0.1880 C   0  0  0  0  0  0  0  0  0  0  0  0
    0.5000    1.3320   -0.8850 O   0  0  0  0  0  0  0  0  0  0  0  0
   -1.4830    0.8490    0.3290 C   0  0  0  0  0  0  0  0  0  0  0  0
   -2.1570    0.4520    1.3620 C   0  0  0  0  0  0  0  0  0  0  0  0
   -1.5490    0.0170    2.5490 O   0  0  0  0  0  0  0  0  0  0  0  0
   -3.6190    0.5130    1.1370 C   0  0  0  0  0  0  0  0  0  0  0  0
   -3.7010    1.4660   -0.0180 C   0  0  0  0  0  0  0  0  0  0  0  0
   -2.4180    1.2320   -0.7390 C   0  0  2  0  0  0  0  0  0  0  0  0
   -2.5280   -0.0780   -1.9790 S   0  0  0  0  0  0  0  0  0  0  0  0
   -3.2460   -1.5980   -1.3980 C   0  0  0  0  0  0  0  0  0  0  0  0
  1  2  1  0
  2  3  1  0
  3  4  1  0
  4  5  2  0
  4  6  1  0
  6  7  1  0
  7  8  1  0
  8  9  2  0
  8 10  1  0
 10 11  2  0
 10 15  1  0
 11 12  1  0
 11 13  1  0
 13 14  1  0
 14 15  1  0
 15 16  1  6
 16 17  1  0
M  END
