
     RDKit          3D

 12 12  0  0  0  0  0  0  0  0999 V2000
   -0.2940   -2.0800    0.2300 C   0  0  0  0  0  0  0  0  0  0  0  0
   -0.3440   -0.5510    0.2270 C   0  0  2  0  0  0  0  0  0  0  0  0
    0.9790    0.0390   -0.1200 C   0  0  0  0  0  0  0  0  0  0  0  0
    1.9940   -0.2320    0.7540 O   0  0  0  0  0  0  0  0  0  0  0  0
    3.1370    0.4190    0.2320 C   0  0  0  0  0  0  0  0  0  0  0  0
    4.2450    0.2240    1.0280 O   0  0  0  0  0  0  0  0  0  0  0  0
   -0.8550   -0.1520    1.4280 O   0  0  0  0  0  0  0  0  0  0  0  0
   -2.2440   -0.0080    1.2680 C   0  0  0  0  0  0  0  0  0  0  0  0
   -2.2750    0.7550   -0.0640 C   0  0  1  0  0  0  0  0  0  0  0  0
   -1.6960    1.9930    0.1840 O   0  0  0  0  0  0  0  0  0  0  0  0
   -1.3180   -0.1270   -0.8570 C   0  0  1  0  0  0  0  0  0  0  0  0
   -0.7230    0.6020   -1.8570 O   0  0  0  0  0  0  0  0  0  0  0  0
  2  1  1  1
  2  3  1  0
  2  7  1  0
  2 11  1  0
  3  4  1  0
  4  5  1  0
  5  6  1  0
  7  8  1  0
  8  9  1  0
  9 10  1  1
  9 11  1  0
 11 12  1  6
M  END
