
     RDKit          3D

 12 12  0  0  0  0  0  0  0  0999 V2000
   -3.6060    0.3530   -0.9420 C   0  0  0  0  0  0  0  0  0  0  0  0
   -2.3550    0.4160   -0.1190 C   0  0  2  0  0  0  0  0  0  0  0  0
   -1.7910    1.6880   -0.0980 O   0  0  0  0  0  0  0  0  0  0  0  0
   -0.4760    1.5500    0.2820 C   0  0  0  0  0  0  0  0  0  0  0  0
   -0.0760    0.1310    0.0630 C   0  0  2  0  0  0  0  0  0  0  0  0
    1.1540   -0.0520   -0.4930 O   0  0  0  0  0  0  0  0  0  0  0  0
    2.0380   -0.7940    0.2710 C   0  0  1  0  0  0  0  0  0  0  0  0
    2.6240   -1.8250   -0.4660 O   0  0  0  0  0  0  0  0  0  0  0  0
    3.1880    0.1550    0.6380 C   0  0  0  0  0  0  0  0  0  0  0  0
    4.0870   -0.5630    1.4030 O   0  0  0  0  0  0  0  0  0  0  0  0
   -1.2280   -0.4080   -0.7150 C   0  0  1  0  0  0  0  0  0  0  0  0
   -1.4330   -1.7710   -0.5190 O   0  0  0  0  0  0  0  0  0  0  0  0
  2  1  1  6
  2  3  1  0
  2 11  1  0
  3  4  1  0
  4  5  1  0
  5  6  1  6
  5 11  1  0
  6  7  1  0
  7  8  1  6
  7  9  1  0
  9 10  1  0
 11 12  1  1
M  END
