
     RDKit          3D

 12 11  0  0  0  0  0  0  0  0999 V2000
   -2.9540   -0.5040   -0.7520 N   0  0  0  0  0  0  0  0  0  0  0  0
   -2.2450    0.5160   -0.0650 C   0  0  0  0  0  0  0  0  0  0  0  0
   -2.7460    1.8390   -0.1680 N   0  0  0  0  0  0  0  0  0  0  0  0
   -1.8940    2.8720    0.0870 O   0  0  0  0  0  0  0  0  0  0  0  0
   -1.1850    0.2820    0.6320 N   0  0  0  0  0  0  0  0  0  0  0  0
   -0.6850   -1.0550    0.7300 C   0  0  0  0  0  0  0  0  0  0  0  0
    0.7690   -1.2480    0.8440 C   0  0  0  0  0  0  0  0  0  0  0  0
    1.6240   -0.7940   -0.2990 C   0  0  2  0  0  0  0  0  0  0  0  0
    3.0370   -1.0990    0.0470 N   0  0  0  0  0  0  0  0  0  0  0  0
    1.5970    0.6410   -0.5890 C   0  0  0  0  0  0  0  0  0  0  0  0
    0.6540    1.2250   -1.1650 O   0  0  0  0  0  0  0  0  0  0  0  0
    2.6750    1.4610   -0.2160 O   0  0  0  0  0  0  0  0  0  0  0  0
  1  2  1  0
  2  3  1  0
  2  5  2  3
  3  4  1  0
  5  6  1  0
  6  7  1  0
  7  8  1  0
  8  9  1  1
  8 10  1  0
 10 11  2  0
 10 12  1  0
M  CHG  2   5   1   9   1
M  END
