
     RDKit          3D

 11 10  0  0  0  0  0  0  0  0999 V2000
   -0.8620    2.1760    0.1870 O   0  0  0  0  0  0  0  0  0  0  0  0
   -1.5390    1.2170   -0.1160 C   0  0  0  0  0  0  0  0  0  0  0  0
   -2.7170    1.3160   -0.8900 O   0  0  0  0  0  0  0  0  0  0  0  0
   -1.1900   -0.2280    0.3400 C   0  0  2  0  0  0  0  0  0  0  0  0
   -2.0990   -0.6370    1.2380 O   0  0  0  0  0  0  0  0  0  0  0  0
   -3.1970   -1.0550    0.7230 O   0  0  0  0  0  0  0  0  0  0  0  0
    0.0990   -0.2870    0.7280 O   0  0  0  0  0  0  0  0  0  0  0  0
    0.8770   -0.5070   -0.3740 C   0  0  0  0  0  0  0  0  0  0  0  0
    2.3140   -0.8590    0.1760 C   0  0  0  0  0  0  0  0  0  0  0  0
    2.5600    0.2410    0.9500 O   0  0  0  0  0  0  0  0  0  0  0  0
    3.4830    1.0320    0.3890 O   0  0  0  0  0  0  0  0  0  0  0  0
  1  2  2  0
  2  3  1  0
  2  4  1  0
  4  5  1  1
  4  7  1  0
  5  6  1  0
  7  8  1  0
  8  9  1  0
  9 10  1  0
 10 11  1  0
M  END
