
     RDKit          3D

 13 13  0  0  0  0  0  0  0  0999 V2000
    1.0870   -1.5080   -1.2050 C   0  0  0  0  0  0  0  0  0  0  0  0
    0.8430   -0.5910   -0.3200 C   0  0  0  0  0  0  0  0  0  0  0  0
    1.8830   -0.1720    0.5890 N   0  0  0  0  0  0  0  0  0  0  0  0
    2.8330    0.6050    0.1900 C   0  0  0  0  0  0  0  0  0  0  0  0
    3.9230    1.0610    1.0870 C   0  0  0  0  0  0  0  0  0  0  0  0
   -0.5040    0.0170   -0.2070 C   0  0  0  0  0  0  0  0  0  0  0  0
   -0.4910    1.3680   -0.0270 N   0  0  0  0  0  0  0  0  0  0  0  0
   -1.5130    2.1370    0.1160 O   0  0  0  0  0  0  0  0  0  0  0  0
   -3.0000    1.4150    0.0760 P   0  0  0  0  0  0  0  0  0  0  0  0
   -4.5240    2.1900   -0.1880 O   0  0  0  0  0  0  0  0  0  0  0  0
   -2.8980   -0.2560   -0.1510 N   0  0  0  0  0  0  0  0  0  0  0  0
   -1.6320   -0.7590   -0.2660 C   0  0  0  0  0  0  0  0  0  0  0  0
   -1.5540   -2.2560   -0.4210 C   0  0  0  0  0  0  0  0  0  0  0  0
  1  2  2  0
  2  3  1  0
  2  6  1  0
  3  4  2  3
  4  5  1  0
  6  7  1  0
  6 12  2  0
  7  8  1  0
  8  9  1  0
  9 10  1  0
  9 11  1  0
 11 12  1  0
 12 13  1  0
M  END
