
     RDKit          3D

 28 30  0  0  0  0  0  0  0  0999 V2000
    4.9410    2.9580   -0.8970 N   0  0  0  0  0  0  0  0  0  0  0  0
    4.8290    1.5480   -1.1620 C   0  0  0  0  0  0  0  0  0  0  0  0
    3.8420    0.9070   -0.5440 N   0  0  0  0  0  0  0  0  0  0  0  0
    3.6710   -0.4110   -0.7390 C   0  0  0  0  0  0  0  0  0  0  0  0
    4.5480   -1.0570   -1.5930 C   0  0  0  0  0  0  0  0  0  0  0  0
    4.1410   -2.3480   -1.5970 N   0  0  0  0  0  0  0  0  0  0  0  0
    3.0830   -2.4750   -0.7940 C   0  0  0  0  0  0  0  0  0  0  0  0
    2.7770   -1.2590   -0.2480 N   0  0  0  0  0  0  0  0  0  0  0  0
    1.7140   -1.1110    0.6290 C   0  0  2  0  0  0  0  0  0  0  0  0
    0.4280   -1.2270    0.0330 O   0  0  0  0  0  0  0  0  0  0  0  0
   -0.3490   -1.3520    1.2100 C   0  0  2  0  0  0  0  0  0  0  0  0
   -1.7990   -1.0140    0.9390 C   0  0  0  0  0  0  0  0  0  0  0  0
   -2.0010    0.2420    0.4860 O   0  0  0  0  0  0  0  0  0  0  0  0
   -3.4490    0.8320    0.1290 P   0  0  0  0  0  0  0  0  0  0  0  0
   -4.2480   -0.1160    0.9950 O   0  0  0  0  0  0  0  0  0  0  0  0
   -4.0820    2.1260    1.0750 O   0  0  0  0  0  0  0  0  0  0  0  0
   -4.2650    0.5570   -1.2490 O   0  0  0  0  0  0  0  0  0  0  0  0
   -5.8350    0.3430   -1.2970 P   0  0  0  0  0  0  0  0  0  0  0  0
   -6.0740    1.2070   -2.5370 O   0  0  0  0  0  0  0  0  0  0  0  0
   -6.6110   -0.9400   -1.9780 O   0  0  0  0  0  0  0  0  0  0  0  0
   -6.8340    1.4220   -0.4150 O   0  0  0  0  0  0  0  0  0  0  0  0
    0.2730   -0.4990    2.2590 C   0  0  1  0  0  0  0  0  0  0  0  0
    0.7410   -1.2620    3.3450 O   0  0  0  0  0  0  0  0  0  0  0  0
    1.5110    0.0410    1.4840 C   0  0  1  0  0  0  0  0  0  0  0  0
    2.4350    0.2770    2.4870 O   0  0  0  0  0  0  0  0  0  0  0  0
    5.5650   -0.3780   -2.2250 C   0  0  0  0  0  0  0  0  0  0  0  0
    6.3440   -0.9890   -2.9920 O   0  0  0  0  0  0  0  0  0  0  0  0
    5.6900    0.9350   -1.9940 N   0  0  0  0  0  0  0  0  0  0  0  0
  1  2  1  0
  2  3  1  0
  2 28  2  0
  3  4  1  0
  4  5  2  0
  4  8  1  0
  5  6  1  0
  5 26  1  0
  6  7  2  0
  7  8  1  0
  9  8  1  6
  9 10  1  0
  9 24  1  0
 10 11  1  0
 11 12  1  6
 11 22  1  0
 12 13  1  0
 13 14  1  0
 14 15  1  0
 14 16  1  0
 14 17  1  0
 17 18  1  0
 18 19  1  0
 18 20  1  0
 18 21  1  0
 22 23  1  1
 22 24  1  0
 24 25  1  1
 26 27  2  0
 26 28  1  0
M  CHG  1  28   1
M  END
