
     RDKit          3D

 13 14  0  0  0  0  0  0  0  0999 V2000
    1.0060    2.2560    0.7310 C   0  0  0  0  0  0  0  0  0  0  0  0
    0.8900    0.7950    0.4260 C   0  0  0  0  0  0  0  0  0  0  0  0
    1.8020    0.0040    0.9800 C   0  0  0  0  0  0  0  0  0  0  0  0
    1.6870   -1.7820    0.6280 P   0  0  0  0  0  0  0  0  0  0  0  0
    3.1500   -2.4160   -0.0380 O   0  0  0  0  0  0  0  0  0  0  0  0
    0.3310   -2.0120   -0.4080 O   0  0  0  0  0  0  0  0  0  0  0  0
    0.0670   -0.9120   -1.2120 C   0  0  1  0  0  0  0  0  0  0  0  0
   -1.2910   -1.1350   -1.6620 O   0  0  0  0  0  0  0  0  0  0  0  0
   -2.0440   -0.9190   -0.4940 C   0  0  0  0  0  0  0  0  0  0  0  0
   -3.2780   -1.6130   -0.2770 N   0  0  0  0  0  0  0  0  0  0  0  0
   -1.4360   -0.0330    0.2760 C   0  0  0  0  0  0  0  0  0  0  0  0
   -0.1980    0.3560   -0.4410 C   0  0  1  0  0  0  0  0  0  0  0  0
   -0.5970    1.3590   -1.4140 N   0  0  0  0  0  0  0  0  0  0  0  0
  1  2  1  0
  2  3  2  0
  2 12  1  0
  3  4  1  0
  4  5  1  0
  4  6  1  0
  7  6  1  1
  7  8  1  0
  7 12  1  0
  8  9  1  0
  9 10  1  0
  9 11  2  0
 11 12  1  0
 12 13  1  6
M  END
