
     RDKit          3D

 13 14  0  0  0  0  0  0  0  0999 V2000
   -2.0130   -0.8820   -0.9750 C   0  0  0  0  0  0  0  0  0  0  0  0
   -1.0970   -0.3200    0.1480 C   0  0  2  0  0  0  0  0  0  0  0  0
   -1.8640    0.7850    0.8560 C   0  0  0  0  0  0  0  0  0  0  0  0
   -2.0040    1.7260   -0.3150 C   0  0  0  0  0  0  0  0  0  0  0  0
   -0.9860    1.5760   -1.1580 C   0  0  0  0  0  0  0  0  0  0  0  0
   -0.1140    0.5190   -0.5760 C   0  0  0  0  0  0  0  0  0  0  0  0
    1.1440    0.4270   -0.6160 N   0  0  0  0  0  0  0  0  0  0  0  0
    1.9510   -0.4840    0.0220 N   0  0  0  0  0  0  0  0  0  0  0  0
    3.3910   -0.5520   -0.0620 C   0  0  0  0  0  0  0  0  0  0  0  0
    3.9470    0.7170    0.4270 N   0  0  0  0  0  0  0  0  0  0  0  0
    1.0130   -1.6610    1.0350 P   0  0  0  0  0  0  0  0  0  0  0  0
   -0.6240   -1.3880    0.9640 C   0  0  0  0  0  0  0  0  0  0  0  0
   -1.5240   -2.1640    1.6710 O   0  0  0  0  0  0  0  0  0  0  0  0
  2  1  1  6
  2  3  1  0
  2  6  1  0
  2 12  1  0
  3  4  1  0
  4  5  2  0
  5  6  1  0
  6  7  2  0
  7  8  1  0
  8  9  1  0
  8 11  1  0
  9 10  1  0
 11 12  2  0
 12 13  1  0
M  END
