
     RDKit          3D

 13 13  0  0  0  0  0  0  0  0999 V2000
    4.5970   -0.4300    1.5200 C   0  0  0  0  0  0  0  0  0  0  0  0
    3.5530    0.0850    2.0250 N   0  0  0  0  0  0  0  0  0  0  0  0
    2.2710   -0.0350    1.4350 C   0  0  0  0  0  0  0  0  0  0  0  0
    1.1910    0.2000    2.0500 N   0  0  0  0  0  0  0  0  0  0  0  0
   -0.0780    0.1410    1.6610 O   0  0  0  0  0  0  0  0  0  0  0  0
   -0.4940   -0.2160    0.4130 C   0  0  0  0  0  0  0  0  0  0  0  0
   -1.9480   -0.2160    0.1930 C   0  0  0  0  0  0  0  0  0  0  0  0
   -2.8070    0.1090    1.1390 C   0  0  0  0  0  0  0  0  0  0  0  0
   -2.4580   -0.5770   -1.0810 N   0  0  0  0  0  0  0  0  0  0  0  0
   -3.3700    0.2620   -1.8360 C   0  0  0  0  0  0  0  0  0  0  0  0
    0.2930   -0.5530   -0.5830 C   0  0  0  0  0  0  0  0  0  0  0  0
    2.1010   -0.5540   -0.3130 P   0  0  0  0  0  0  0  0  0  0  0  0
    2.9070    0.5390   -1.3880 O   0  0  0  0  0  0  0  0  0  0  0  0
  1  2  2  0
  2  3  1  0
  3  4  2  0
  3 12  1  0
  4  5  1  0
  5  6  1  0
  6  7  1  0
  6 11  2  0
  7  8  2  0
  7  9  1  0
  9 10  1  0
 11 12  1  0
 12 13  1  0
M  END
