
     RDKit          3D

 10  9  0  0  0  0  0  0  0  0999 V2000
    4.5320    2.1440   -0.7680 C   0  0  0  0  0  0  0  0  0  0  0  0
    3.3690    1.4260   -1.1760 O   0  0  0  0  0  0  0  0  0  0  0  0
    2.4670    0.9480   -0.2350 C   0  0  0  0  0  0  0  0  0  0  0  0
    1.6850   -0.0700   -0.4820 C   0  0  0  0  0  0  0  0  0  0  0  0
    0.7470   -0.5390    0.5450 C   0  0  0  0  0  0  0  0  0  0  0  0
   -0.7020   -0.4570    0.0550 C   0  0  2  0  0  0  0  0  0  0  0  0
   -0.9540    0.9320   -0.2490 N   0  0  0  0  0  0  0  0  0  0  0  0
   -1.5610   -0.9780    1.1700 C   0  0  0  0  0  0  0  0  0  0  0  0
   -3.0290   -0.9680    0.8540 C   0  0  0  0  0  0  0  0  0  0  0  0
   -3.3490   -1.7800   -0.3000 N   0  0  0  0  0  0  0  0  0  0  0  0
  1  2  1  0
  2  3  1  0
  3  4  2  3
  4  5  1  0
  5  6  1  0
  6  7  1  1
  6  8  1  0
  8  9  1  0
  9 10  1  0
M  CHG  2   7   1  10   1
M  END
