
     RDKit          3D

 11 10  0  0  0  0  0  0  0  0999 V2000
   -2.0240   -2.2470    0.5130 N   0  0  0  0  0  0  0  0  0  0  0  0
   -2.2760   -1.0910   -0.3430 C   0  0  0  0  0  0  0  0  0  0  0  0
   -1.1150   -0.2010   -0.4270 C   0  0  0  0  0  0  0  0  0  0  0  0
   -1.0320    1.0620   -0.0750 C   0  0  0  0  0  0  0  0  0  0  0  0
   -2.2210    1.7580    0.4860 C   0  0  0  0  0  0  0  0  0  0  0  0
   -2.5400    2.8340   -0.3390 O   0  0  0  0  0  0  0  0  0  0  0  0
    0.2340    1.8460   -0.1540 C   0  0  0  0  0  0  0  0  0  0  0  0
    1.3320    1.1950   -0.5870 O   0  0  0  0  0  0  0  0  0  0  0  0
    1.8360    0.3080    0.3240 C   0  0  0  0  0  0  0  0  0  0  0  0
    3.0110   -0.4920   -0.1870 C   0  0  0  0  0  0  0  0  0  0  0  0
    3.4440   -1.3880    0.8720 N   0  0  0  0  0  0  0  0  0  0  0  0
  1  2  1  0
  2  3  1  0
  3  4  2  3
  4  5  1  0
  4  7  1  0
  5  6  1  0
  7  8  1  0
  8  9  1  0
  9 10  1  0
 10 11  1  0
M  CHG  2   1   1  11   1
M  END
