
     RDKit          3D

 11 10  0  0  0  0  0  0  0  0999 V2000
    4.2800   -0.3430   -0.6760 C   0  0  0  0  0  0  0  0  0  0  0  0
    3.4020   -1.0580    0.0880 O   0  0  0  0  0  0  0  0  0  0  0  0
    2.2320   -0.3800    0.4410 C   0  0  0  0  0  0  0  0  0  0  0  0
    1.4350    0.0510   -0.7680 C   0  0  0  0  0  0  0  0  0  0  0  0
    0.3020    0.7090   -0.5710 O   0  0  0  0  0  0  0  0  0  0  0  0
   -0.7620    0.2600    0.0960 C   0  0  2  0  0  0  0  0  0  0  0  0
   -0.6190   -0.0780    1.5420 C   0  0  0  0  0  0  0  0  0  0  0  0
   -1.4860   -0.8970   -0.5740 C   0  0  0  0  0  0  0  0  0  0  0  0
   -2.6150   -1.3460    0.1730 N   0  0  0  0  0  0  0  0  0  0  0  0
   -1.7760    1.4240    0.0220 C   0  0  0  0  0  0  0  0  0  0  0  0
   -2.0410    1.6580   -1.3680 N   0  0  0  0  0  0  0  0  0  0  0  0
  1  2  1  0
  2  3  1  0
  3  4  1  0
  4  5  1  0
  5  6  1  0
  6  7  1  1
  6  8  1  0
  6 10  1  0
  8  9  1  0
 10 11  1  0
M  CHG  2   9   1  11   1
M  END
