
     RDKit          3D

 11 10  0  0  0  0  0  0  0  0999 V2000
    2.6680    2.1900    0.0480 C   0  0  0  0  0  0  0  0  0  0  0  0
    2.2190    0.9030    0.7510 C   0  0  0  0  0  0  0  0  0  0  0  0
    1.3030    0.2970   -0.0730 O   0  0  0  0  0  0  0  0  0  0  0  0
    0.7860   -0.8810    0.3970 C   0  0  1  0  0  0  0  0  0  0  0  0
   -0.7030   -0.6910    0.5210 C   0  0  0  0  0  0  0  0  0  0  0  0
   -1.3070    0.1650   -0.3010 C   0  0  0  0  0  0  0  0  0  0  0  0
   -2.7650    0.3940   -0.2270 C   0  0  0  0  0  0  0  0  0  0  0  0
   -3.0130    1.8060    0.0670 N   0  0  0  0  0  0  0  0  0  0  0  0
    0.9840   -1.9630   -0.5990 C   0  0  0  0  0  0  0  0  0  0  0  0
    0.5100   -3.2850   -0.2980 N   0  0  0  0  0  0  0  0  0  0  0  0
    1.5450   -1.6880   -1.6430 O   0  0  0  0  0  0  0  0  0  0  0  0
  1  2  1  0
  2  3  1  0
  4  3  1  6
  4  5  1  0
  4  9  1  0
  5  6  2  3
  6  7  1  0
  7  8  1  0
  9 10  1  0
  9 11  2  0
M  CHG  2   8   1  10   1
M  END
