
     RDKit          3D

 18 18  0  0  0  0  0  0  0  0999 V2000
    4.0980    2.1150    0.6900 N   0  0  0  0  0  0  0  0  0  0  0  0
    3.6170    1.2430   -0.1680 C   0  0  0  0  0  0  0  0  0  0  0  0
    4.3020    1.3490   -1.3380 O   0  0  0  0  0  0  0  0  0  0  0  0
    2.6240    0.5990    0.5060 N   0  0  0  0  0  0  0  0  0  0  0  0
    1.7980   -0.3310   -0.0790 C   0  0  0  0  0  0  0  0  0  0  0  0
    2.0550   -0.5180   -1.2710 O   0  0  0  0  0  0  0  0  0  0  0  0
    0.7400   -0.9760    0.7290 C   0  0  1  0  0  0  0  0  0  0  0  0
   -0.0090    0.0370    1.4960 C   0  0  0  0  0  0  0  0  0  0  0  0
   -1.0260    0.7040    0.8590 O   0  0  0  0  0  0  0  0  0  0  0  0
   -1.2850    0.1180   -0.3970 C   0  0  2  0  0  0  0  0  0  0  0  0
   -2.5320    0.6510   -0.9700 C   0  0  0  0  0  0  0  0  0  0  0  0
   -3.3610    1.5650   -0.2710 N   0  0  0  0  0  0  0  0  0  0  0  0
   -2.8840    0.2980   -2.1080 O   0  0  0  0  0  0  0  0  0  0  0  0
   -1.3160   -1.3600   -0.0840 C   0  0  1  0  0  0  0  0  0  0  0  0
   -2.1360   -2.1570   -1.0030 C   0  0  0  0  0  0  0  0  0  0  0  0
   -1.6780   -3.0380   -1.7760 O   0  0  0  0  0  0  0  0  0  0  0  0
   -3.5050   -1.9490   -1.0420 O   0  0  0  0  0  0  0  0  0  0  0  0
    0.0310   -1.7660   -0.1110 O   0  0  0  0  0  0  0  0  0  0  0  0
  1  2  2  0
  2  3  1  0
  2  4  1  0
  4  5  1  0
  5  6  2  0
  7  5  1  6
  7  8  1  0
  7 18  1  0
  8  9  1  0
  9 10  1  0
 10 11  1  1
 10 14  1  0
 11 12  1  0
 11 13  2  0
 14 15  1  6
 14 18  1  0
 15 16  2  0
 15 17  1  0
M  END
