
     RDKit          3D

 25 26  0  0  0  0  0  0  0  0999 V2000
    6.1590   -1.5920   -0.1520 C   0  0  0  0  0  0  0  0  0  0  0  0
    4.9360   -2.3680    0.1320 C   0  0  0  0  0  0  0  0  0  0  0  0
    3.6700   -1.8430    0.0220 N   0  0  1  0  0  0  0  0  0  0  0  0
    3.1020   -1.9530    1.3480 O   0  0  0  0  0  0  0  0  0  0  0  0
    3.3830   -0.4170   -0.3010 C   0  0  0  0  0  0  0  0  0  0  0  0
    1.8450   -0.4360   -0.5000 C   0  0  0  0  0  0  0  0  0  0  0  0
    1.2720   -1.1990   -1.3810 N   0  0  0  0  0  0  0  0  0  0  0  0
   -0.0670   -0.8760   -1.3620 C   0  0  0  0  0  0  0  0  0  0  0  0
   -1.0550   -1.4750   -2.2990 C   0  0  0  0  0  0  0  0  0  0  0  0
   -0.3200    0.0730   -0.4780 N   0  0  0  0  0  0  0  0  0  0  0  0
   -1.4260    0.7390    0.0840 C   0  0  0  0  0  0  0  0  0  0  0  0
   -2.8380    0.4360   -0.1380 C   0  0  1  0  0  0  0  0  0  0  0  0
   -3.2150   -0.9640    0.2920 C   0  0  0  0  0  0  0  0  0  0  0  0
   -4.6360   -1.0560    0.5760 N   0  0  0  0  0  0  0  0  0  0  0  0
   -5.0850   -2.2400    1.1430 C   0  0  0  0  0  0  0  0  0  0  0  0
   -4.1400   -3.1100    1.6530 O   0  0  0  0  0  0  0  0  0  0  0  0
   -6.3060   -2.7250    1.3000 O   0  0  0  0  0  0  0  0  0  0  0  0
   -5.5640   -0.0420    0.3420 C   0  0  0  0  0  0  0  0  0  0  0  0
   -4.8770    1.2660    0.1700 C   0  0  0  0  0  0  0  0  0  0  0  0
   -3.6090    1.2390    0.7050 O   0  0  0  0  0  0  0  0  0  0  0  0
    0.9390    0.3450    0.0520 C   0  0  0  0  0  0  0  0  0  0  0  0
    1.1000    1.4620    1.0710 C   0  0  0  0  0  0  0  0  0  0  0  0
    1.1690    2.8020    0.3680 C   0  0  1  0  0  0  0  0  0  0  0  0
    1.3800    3.8410    1.4890 C   0  0  0  0  0  0  0  0  0  0  0  0
    2.2510    2.9250   -0.6520 C   0  0  0  0  0  0  0  0  0  0  0  0
  1  2  1  0
  2  3  1  0
  3  4  1  1
  3  5  1  0
  5  6  1  0
  6  7  1  0
  6 21  2  0
  7  8  2  0
  8  9  1  0
  8 10  1  0
 10 11  1  0
 10 21  1  0
 12 11  1  1
 12 13  1  0
 12 20  1  0
 13 14  1  0
 14 15  1  0
 14 18  1  0
 15 16  2  0
 15 17  1  0
 18 19  1  0
 19 20  1  0
 21 22  1  0
 22 23  1  0
 23 24  1  1
 23 25  1  0
M  CHG  3   3   1   4  -1   7   1
M  END
