
     RDKit          3D

 23 26  0  0  0  0  0  0  0  0999 V2000
    7.2180    0.6990    0.6410 O   0  0  0  0  0  0  0  0  0  0  0  0
    6.5570    0.2870   -0.3320 C   0  0  0  0  0  0  0  0  0  0  0  0
    7.1990    0.0380   -1.4890 N   0  0  0  0  0  0  0  0  0  0  0  0
    6.4550   -0.4110   -2.5380 C   0  0  0  0  0  0  0  0  0  0  0  0
    5.1300   -0.5890   -2.3950 N   0  0  0  0  0  0  0  0  0  0  0  0
    4.4730   -0.3460   -1.2490 C   0  0  0  0  0  0  0  0  0  0  0  0
    3.1020   -0.5380   -1.1250 C   0  0  0  0  0  0  0  0  0  0  0  0
    2.4400   -0.2840    0.0580 C   0  0  0  0  0  0  0  0  0  0  0  0
    1.1360   -0.3790    0.4630 N   0  0  0  0  0  0  0  0  0  0  0  0
    1.0380    0.0000    1.7420 C   0  0  0  0  0  0  0  0  0  0  0  0
   -0.1460    0.0310    2.5550 N   0  0  0  0  0  0  0  0  0  0  0  0
   -1.4570   -0.3190    2.0910 C   0  0  0  0  0  0  0  0  0  0  0  0
   -1.9300    0.7450    1.1470 C   0  0  0  0  0  0  0  0  0  0  0  0
   -3.2540    0.4870    0.6080 N   0  0  2  0  0  0  0  0  0  0  0  0
   -3.3620   -0.8730    0.2140 C   0  0  0  0  0  0  0  0  0  0  0  0
   -4.5270   -1.2120   -0.6440 C   0  0  0  0  0  0  0  0  0  0  0  0
   -5.1320   -0.0550   -1.3680 C   0  0  0  0  0  0  0  0  0  0  0  0
   -3.9860    0.9020   -1.7110 C   0  0  0  0  0  0  0  0  0  0  0  0
   -3.4980    1.4560   -0.4120 C   0  0  0  0  0  0  0  0  0  0  0  0
    2.2870    0.3290    2.1280 N   0  0  0  0  0  0  0  0  0  0  0  0
    3.1700    0.1710    1.1340 C   0  0  0  0  0  0  0  0  0  0  0  0
    4.5410    0.3610    1.0050 C   0  0  0  0  0  0  0  0  0  0  0  0
    5.1970    0.1060   -0.1780 C   0  0  0  0  0  0  0  0  0  0  0  0
  1  2  2  0
  2  3  1  0
  2 23  1  0
  3  4  2  0
  4  5  1  0
  5  6  1  0
  6  7  2  0
  6 23  1  0
  7  8  1  0
  8  9  1  0
  8 21  2  0
  9 10  1  0
 10 11  1  0
 10 20  2  0
 11 12  1  0
 12 13  1  0
 14 13  1  6
 14 15  1  0
 14 19  1  0
 15 16  1  0
 16 17  1  0
 17 18  1  0
 18 19  1  0
 20 21  1  0
 21 22  1  0
 22 23  2  0
M  CHG  1  14   1
M  END
