
     RDKit          3D

 25 26  0  0  0  0  0  0  0  0999 V2000
   -2.3670   -4.8190   -0.1900 C   0  0  0  0  0  0  0  0  0  0  0  0
   -1.6900   -4.0500    0.9460 C   0  0  0  0  0  0  0  0  0  0  0  0
   -2.0920   -2.6290    0.7770 C   0  0  0  0  0  0  0  0  0  0  0  0
   -1.2230   -1.6580    0.5850 C   0  0  0  0  0  0  0  0  0  0  0  0
    0.1930   -1.7890    0.5070 N   0  0  0  0  0  0  0  0  0  0  0  0
    0.6990   -0.4790    0.2930 C   0  0  0  0  0  0  0  0  0  0  0  0
   -0.3480    0.4170    0.2400 C   0  0  0  0  0  0  0  0  0  0  0  0
    0.1510    1.6100    0.0420 O   0  0  0  0  0  0  0  0  0  0  0  0
    1.4580    1.5170   -0.0330 C   0  0  0  0  0  0  0  0  0  0  0  0
    2.2010    2.5350   -0.2230 O   0  0  0  0  0  0  0  0  0  0  0  0
    1.8190    0.2360    0.1190 N   0  0  0  0  0  0  0  0  0  0  0  0
    3.1780   -0.2510    0.0940 C   0  0  2  0  0  0  0  0  0  0  0  0
    4.0920    0.8840    0.3590 C   0  0  0  0  0  0  0  0  0  0  0  0
    4.9450    1.1830   -0.5140 O   0  0  0  0  0  0  0  0  0  0  0  0
    3.9990    1.5910    1.5430 O   0  0  0  0  0  0  0  0  0  0  0  0
    4.8850    2.6580    1.7510 C   0  0  0  0  0  0  0  0  0  0  0  0
    3.5310   -0.9300   -1.2110 C   0  0  2  0  0  0  0  0  0  0  0  0
    4.9650   -1.3930   -1.1230 C   0  0  0  0  0  0  0  0  0  0  0  0
    3.3610   -0.0390   -2.3960 C   0  0  0  0  0  0  0  0  0  0  0  0
   -1.5570   -0.2940    0.4190 N   0  0  0  0  0  0  0  0  0  0  0  0
   -2.8930    0.2400    0.4360 C   0  0  0  0  0  0  0  0  0  0  0  0
   -2.9300    1.7250    0.2340 C   0  0  0  0  0  0  0  0  0  0  0  0
   -4.3390    2.1270    0.2740 N   0  0  1  0  0  0  0  0  0  0  0  0
   -4.4480    3.4520    0.8340 C   0  0  0  0  0  0  0  0  0  0  0  0
   -4.9780    2.0000   -1.0080 C   0  0  0  0  0  0  0  0  0  0  0  0
  1  2  1  0
  2  3  1  0
  3  4  2  3
  4  5  1  0
  4 20  1  0
  5  6  1  0
  6  7  2  0
  6 11  1  0
  7  8  1  0
  7 20  1  0
  8  9  1  0
  9 10  2  0
  9 11  1  0
 12 11  1  6
 12 13  1  0
 12 17  1  0
 13 14  2  0
 13 15  1  0
 15 16  1  0
 17 18  1  1
 17 19  1  0
 20 21  1  0
 21 22  1  0
 22 23  1  0
 23 24  1  6
 23 25  1  0
M  CHG  1  23   1
M  END
