
     RDKit          3D

 25 26  0  0  0  0  0  0  0  0999 V2000
    6.1680   -0.2970    0.3940 C   0  0  0  0  0  0  0  0  0  0  0  0
    5.1700    0.1820   -0.3100 C   0  0  0  0  0  0  0  0  0  0  0  0
    4.6790   -0.4750   -1.5450 C   0  0  0  0  0  0  0  0  0  0  0  0
    3.2120   -0.6730   -1.4320 C   0  0  0  0  0  0  0  0  0  0  0  0
    2.4930    0.2230   -0.5940 N   0  0  1  0  0  0  0  0  0  0  0  0
    2.4390   -0.3730    0.7280 C   0  0  0  0  0  0  0  0  0  0  0  0
    1.2120   -1.2190    0.8180 C   0  0  0  0  0  0  0  0  0  0  0  0
   -0.0180   -0.4490    0.6250 N   0  0  0  0  0  0  0  0  0  0  0  0
   -1.2960   -1.0740    0.6680 C   0  0  0  0  0  0  0  0  0  0  0  0
   -1.2460   -2.3370    0.8870 O   0  0  0  0  0  0  0  0  0  0  0  0
   -2.5300   -0.4100    0.4920 N   0  0  0  0  0  0  0  0  0  0  0  0
   -2.5650    1.0110    0.2790 C   0  0  1  0  0  0  0  0  0  0  0  0
   -3.1530    1.4360   -1.0390 C   0  0  0  0  0  0  0  0  0  0  0  0
   -3.1160    2.8800   -1.2230 N   0  0  0  0  0  0  0  0  0  0  0  0
   -2.5540    3.6140   -0.4020 O   0  0  0  0  0  0  0  0  0  0  0  0
   -3.6890    3.4660   -2.3240 O   0  0  0  0  0  0  0  0  0  0  0  0
   -3.5950    1.4840    1.3500 C   0  0  0  0  0  0  0  0  0  0  0  0
   -4.8240    0.9270    1.0060 O   0  0  0  0  0  0  0  0  0  0  0  0
   -4.8710   -0.4350    1.2690 C   0  0  0  0  0  0  0  0  0  0  0  0
   -3.7500   -1.1480    0.5360 C   0  0  1  0  0  0  0  0  0  0  0  0
   -4.2150   -1.7500   -0.7470 C   0  0  0  0  0  0  0  0  0  0  0  0
   -3.2320   -2.7410   -1.3440 C   0  0  0  0  0  0  0  0  0  0  0  0
    3.0850    1.5320   -0.4160 C   0  0  0  0  0  0  0  0  0  0  0  0
    4.4940    1.3950    0.1000 C   0  0  0  0  0  0  0  0  0  0  0  0
    5.0810    2.2710    0.8490 C   0  0  0  0  0  0  0  0  0  0  0  0
  1  2  2  0
  2  3  1  0
  2 24  1  0
  3  4  1  0
  4  5  1  0
  5  6  1  1
  5 23  1  0
  6  7  1  0
  7  8  1  0
  8  9  1  0
  9 10  2  0
  9 11  1  0
 11 12  1  0
 11 20  1  0
 12 13  1  6
 12 17  1  0
 13 14  1  0
 14 15  2  0
 14 16  1  0
 17 18  1  0
 18 19  1  0
 19 20  1  0
 20 21  1  6
 21 22  1  0
 23 24  1  0
 24 25  2  0
M  CHG  3   5   1  14   1  16  -1
M  END
