
     RDKit          3D

 24 25  0  0  0  0  0  0  0  0999 V2000
    2.3860   -2.4790   -2.5550 C   0  0  0  0  0  0  0  0  0  0  0  0
    1.7130   -1.9460   -1.3550 N   0  0  0  0  0  0  0  0  0  0  0  0
    2.4660   -1.0480   -0.5520 C   0  0  0  0  0  0  0  0  0  0  0  0
    3.7330   -0.6990   -0.8830 N   0  0  0  0  0  0  0  0  0  0  0  0
    4.4890    0.1480   -0.1680 C   0  0  0  0  0  0  0  0  0  0  0  0
    5.7910    0.4740   -0.5550 C   0  0  0  0  0  0  0  0  0  0  0  0
    6.5360    1.3560    0.2180 C   0  0  0  0  0  0  0  0  0  0  0  0
    5.9910    1.9140    1.3750 C   0  0  0  0  0  0  0  0  0  0  0  0
    4.7030    1.5640    1.7200 C   0  0  0  0  0  0  0  0  0  0  0  0
    3.9410    0.6930    0.9720 C   0  0  0  0  0  0  0  0  0  0  0  0
    2.6530    0.3370    1.3090 C   0  0  0  0  0  0  0  0  0  0  0  0
    2.1160    0.8150    2.3450 O   0  0  0  0  0  0  0  0  0  0  0  0
    1.9160   -0.5310    0.5500 N   0  0  0  0  0  0  0  0  0  0  0  0
    0.5660   -0.8880    0.9230 C   0  0  0  0  0  0  0  0  0  0  0  0
   -0.4650    0.0380    0.2940 C   0  0  0  0  0  0  0  0  0  0  0  0
   -1.7410   -0.4010    0.7240 O   0  0  0  0  0  0  0  0  0  0  0  0
   -2.8900    0.2460    0.3170 C   0  0  0  0  0  0  0  0  0  0  0  0
   -2.7170    1.2450   -0.4590 O   0  0  0  0  0  0  0  0  0  0  0  0
   -4.2510   -0.1730    0.7380 C   0  0  2  0  0  0  0  0  0  0  0  0
   -4.4300   -1.6140    0.3560 C   0  0  0  0  0  0  0  0  0  0  0  0
   -5.2410    0.7020    0.1400 N   0  0  2  0  0  0  0  0  0  0  0  0
   -5.0510    0.8340   -1.2860 C   0  0  0  0  0  0  0  0  0  0  0  0
   -5.1270    2.0170    0.7350 C   0  0  0  0  0  0  0  0  0  0  0  0
   -6.4960    0.2720    0.4190 O   0  0  0  0  0  0  0  0  0  0  0  0
  1  2  1  0
  2  3  1  0
  3  4  2  0
  3 13  1  0
  4  5  1  0
  5  6  2  0
  5 10  1  0
  6  7  1  0
  7  8  2  0
  8  9  1  0
  9 10  2  0
 10 11  1  0
 11 12  2  0
 11 13  1  0
 13 14  1  0
 14 15  1  0
 15 16  1  0
 16 17  1  0
 17 18  2  0
 17 19  1  0
 19 20  1  6
 19 21  1  0
 21 22  1  6
 21 23  1  0
 21 24  1  0
M  CHG  3   4   1  21   1  24  -1
M  END
