
     RDKit          3D

 21 23  0  0  0  0  0  0  0  0999 V2000
    5.7050    2.2850   -0.4620 C   0  0  0  0  0  0  0  0  0  0  0  0
    4.0150    2.9450   -0.4120 S   0  0  0  0  0  0  0  0  0  0  0  0
    2.8650    1.5860   -0.2420 C   0  0  0  0  0  0  0  0  0  0  0  0
    1.5270    1.6430   -0.1670 N   0  0  0  0  0  0  0  0  0  0  0  0
    1.0140    0.4110   -0.0440 C   0  0  0  0  0  0  0  0  0  0  0  0
   -0.3730    0.0450    0.0650 C   0  0  0  0  0  0  0  0  0  0  0  0
   -0.7820   -1.1940    0.1830 C   0  0  0  0  0  0  0  0  0  0  0  0
   -0.0030   -2.3930    0.2270 C   0  0  0  0  0  0  0  0  0  0  0  0
   -0.5850   -3.5810    0.3510 C   0  0  0  0  0  0  0  0  0  0  0  0
   -2.0790   -3.6130    0.4410 C   0  0  0  0  0  0  0  0  0  0  0  0
    0.2320   -4.8080    0.3950 C   0  0  0  0  0  0  0  0  0  0  0  0
   -1.4110    1.1080    0.0460 C   0  0  0  0  0  0  0  0  0  0  0  0
   -2.7430    0.8660    0.1430 N   0  0  0  0  0  0  0  0  0  0  0  0
   -3.4030    2.0190    0.0950 C   0  0  0  0  0  0  0  0  0  0  0  0
   -4.6410    2.6680    0.1190 C   0  0  0  0  0  0  0  0  0  0  0  0
   -4.4140    3.9370    0.0100 O   0  0  0  0  0  0  0  0  0  0  0  0
   -3.1410    4.2080   -0.0850 C   0  0  0  0  0  0  0  0  0  0  0  0
   -2.4820    3.0150   -0.0340 C   0  0  0  0  0  0  0  0  0  0  0  0
   -1.2690    2.4280   -0.0620 N   0  0  0  0  0  0  0  0  0  0  0  0
    2.0590   -0.4120   -0.0440 N   0  0  0  0  0  0  0  0  0  0  0  0
    3.1740    0.2810   -0.1620 N   0  0  0  0  0  0  0  0  0  0  0  0
  1  2  1  0
  2  3  1  0
  3  4  2  0
  3 21  1  0
  4  5  1  0
  5  6  1  0
  5 20  2  0
  6  7  2  3
  6 12  1  0
  7  8  1  0
  8  9  2  3
  9 10  1  0
  9 11  1  0
 12 13  2  0
 12 19  1  0
 13 14  1  0
 14 15  2  0
 14 18  1  0
 15 16  1  0
 16 17  1  0
 17 18  2  0
 18 19  1  0
 20 21  1  0
M  END
