
     RDKit          3D

 21 24  0  0  0  0  0  0  0  0999 V2000
    6.0750   -1.2120   -1.6580 N   0  0  0  0  0  0  0  0  0  0  0  0
    5.1590   -1.6770   -0.6580 C   0  0  0  0  0  0  0  0  0  0  0  0
    4.2370   -0.5750   -0.3240 C   0  0  0  0  0  0  0  0  0  0  0  0
    3.9960    0.5910   -0.6110 N   0  0  0  0  0  0  0  0  0  0  0  0
    3.0540    1.3330   -0.1060 C   0  0  0  0  0  0  0  0  0  0  0  0
    2.2370    0.7840    0.8410 C   0  0  0  0  0  0  0  0  0  0  0  0
    1.1040    1.2550    1.6300 C   0  0  0  0  0  0  0  0  0  0  0  0
   -0.2080    1.0280    0.9460 C   0  0  0  0  0  0  0  0  0  0  0  0
   -0.8710   -0.1470    1.1640 N   0  0  0  0  0  0  0  0  0  0  0  0
   -2.0560   -0.3800    0.5610 C   0  0  0  0  0  0  0  0  0  0  0  0
   -2.5590    0.5930   -0.2640 C   0  0  0  0  0  0  0  0  0  0  0  0
   -3.7380    0.5350   -0.9550 C   0  0  0  0  0  0  0  0  0  0  0  0
   -3.8340    1.7220   -1.6440 C   0  0  0  0  0  0  0  0  0  0  0  0
   -2.7210    2.4430   -1.3450 N   0  0  0  0  0  0  0  0  0  0  0  0
   -1.9180    1.7860   -0.5040 C   0  0  0  0  0  0  0  0  0  0  0  0
   -0.7290    1.9640    0.1300 N   0  0  0  0  0  0  0  0  0  0  0  0
   -4.5290   -0.6890   -0.7910 C   0  0  0  0  0  0  0  0  0  0  0  0
   -5.7390   -0.6730   -1.2080 O   0  0  0  0  0  0  0  0  0  0  0  0
   -3.9150   -1.8570   -0.1700 C   0  0  0  0  0  0  0  0  0  0  0  0
   -2.7990   -1.6340    0.7750 C   0  0  0  0  0  0  0  0  0  0  0  0
    2.9740   -0.9050    0.9180 S   0  0  0  0  0  0  0  0  0  0  0  0
  1  2  1  0
  2  3  1  0
  3  4  2  0
  3 21  1  0
  4  5  1  0
  5  6  2  0
  6  7  1  0
  6 21  1  0
  7  8  1  0
  8  9  2  0
  8 16  1  0
  9 10  1  0
 10 11  2  0
 10 20  1  0
 11 12  1  0
 11 15  1  0
 12 13  2  0
 12 17  1  0
 13 14  1  0
 14 15  1  0
 15 16  2  0
 17 18  2  0
 17 19  1  0
 19 20  1  0
M  END
