
     RDKit          3D

 21 24  0  0  0  0  0  0  0  0999 V2000
    5.8000    1.6710   -0.8390 N   0  0  0  0  0  0  0  0  0  0  0  0
    5.0330    0.4970   -0.9870 C   0  0  0  0  0  0  0  0  0  0  0  0
    5.5050   -0.6020   -0.6370 O   0  0  0  0  0  0  0  0  0  0  0  0
    3.6800    0.5790   -1.5560 C   0  0  0  0  0  0  0  0  0  0  0  0
    2.8550   -1.0200   -1.6980 S   0  0  0  0  0  0  0  0  0  0  0  0
    2.5110   -1.6440   -0.0700 C   0  0  0  0  0  0  0  0  0  0  0  0
    3.2920   -2.3990    0.7130 N   0  0  0  0  0  0  0  0  0  0  0  0
    2.6600   -2.6680    1.8600 N   0  0  0  0  0  0  0  0  0  0  0  0
    1.4370   -2.0640    1.8070 C   0  0  0  0  0  0  0  0  0  0  0  0
    0.2970   -1.8690    2.4880 N   0  0  0  0  0  0  0  0  0  0  0  0
   -0.5250   -1.1150    1.7370 C   0  0  0  0  0  0  0  0  0  0  0  0
   -1.7880   -0.5990    1.8800 C   0  0  0  0  0  0  0  0  0  0  0  0
   -2.3260    0.1500    0.8660 C   0  0  0  0  0  0  0  0  0  0  0  0
   -1.6550    0.4170   -0.3090 C   0  0  0  0  0  0  0  0  0  0  0  0
   -0.3910   -0.0930   -0.4630 C   0  0  0  0  0  0  0  0  0  0  0  0
    0.1600   -0.8580    0.5700 C   0  0  0  0  0  0  0  0  0  0  0  0
    1.3680   -1.4460    0.6200 N   0  0  0  0  0  0  0  0  0  0  0  0
   -2.3790    1.2420   -1.3050 C   0  0  0  0  0  0  0  0  0  0  0  0
   -3.7160    0.5200   -1.5250 C   0  0  0  0  0  0  0  0  0  0  0  0
   -4.5030    0.4060   -0.2600 C   0  0  0  0  0  0  0  0  0  0  0  0
   -3.7080    0.7220    0.9890 C   0  0  0  0  0  0  0  0  0  0  0  0
  1  2  1  0
  2  3  2  0
  2  4  1  0
  4  5  1  0
  5  6  1  0
  6  7  2  0
  6 17  1  0
  7  8  1  0
  8  9  2  0
  9 10  1  0
  9 17  1  0
 10 11  1  0
 11 12  2  0
 11 16  1  0
 12 13  1  0
 13 14  2  0
 13 21  1  0
 14 15  1  0
 14 18  1  0
 15 16  2  0
 16 17  1  0
 18 19  1  0
 19 20  1  0
 20 21  1  0
M  END
