
     RDKit          3D

 21 24  0  0  0  0  0  0  0  0999 V2000
    2.8850    1.2380    0.5380 O   0  0  0  0  0  0  0  0  0  0  0  0
    3.0200    0.0320    0.1450 C   0  0  0  0  0  0  0  0  0  0  0  0
    1.8350   -0.6790   -0.1580 N   0  0  0  0  0  0  0  0  0  0  0  0
    0.5440   -0.1060   -0.0400 C   0  0  0  0  0  0  0  0  0  0  0  0
    0.3310    1.1560    0.3670 N   0  0  0  0  0  0  0  0  0  0  0  0
   -0.9930    1.3890    0.3700 C   0  0  0  0  0  0  0  0  0  0  0  0
   -1.6120    0.2310   -0.0500 C   0  0  0  0  0  0  0  0  0  0  0  0
   -3.0510   -0.0040   -0.2080 C   0  0  0  0  0  0  0  0  0  0  0  0
   -3.4760   -1.2430   -0.6430 C   0  0  0  0  0  0  0  0  0  0  0  0
   -4.8380   -1.4390   -0.7850 C   0  0  0  0  0  0  0  0  0  0  0  0
   -5.7350   -0.4160   -0.4970 C   0  0  0  0  0  0  0  0  0  0  0  0
   -7.1430   -0.6470   -0.6520 N   0  0  0  0  0  0  0  0  0  0  0  0
   -7.8730    0.8550   -0.1950 S   0  0  0  0  0  0  0  0  0  0  0  0
   -6.3420    1.7110    0.1750 C   0  0  0  0  0  0  0  0  0  0  0  0
   -5.3790    0.7600   -0.0860 C   0  0  0  0  0  0  0  0  0  0  0  0
   -3.9690    0.9730    0.0640 C   0  0  0  0  0  0  0  0  0  0  0  0
   -0.6490   -0.6650   -0.2930 N   0  0  0  0  0  0  0  0  0  0  0  0
    4.3090   -0.5300    0.0310 N   0  0  0  0  0  0  0  0  0  0  0  0
    5.4670    0.2800    0.3650 C   0  0  1  0  0  0  0  0  0  0  0  0
    6.5930   -0.4660    1.1370 C   0  0  0  0  0  0  0  0  0  0  0  0
    6.7820   -0.0270   -0.2690 C   0  0  0  0  0  0  0  0  0  0  0  0
  1  2  2  0
  2  3  1  0
  2 18  1  0
  3  4  1  0
  4  5  2  0
  4 17  1  0
  5  6  1  0
  6  7  2  0
  7  8  1  0
  7 17  1  0
  8  9  1  0
  8 16  2  0
  9 10  2  0
 10 11  1  0
 11 12  2  0
 11 15  1  0
 12 13  1  0
 13 14  1  0
 14 15  2  0
 15 16  1  0
 19 18  1  6
 19 20  1  0
 19 21  1  0
 20 21  1  0
M  END
