
     RDKit          3D

 21 23  0  0  0  0  0  0  0  0999 V2000
   -3.0320   -2.8040    1.0850 C   0  0  0  0  0  0  0  0  0  0  0  0
   -2.8090   -1.3910    0.6500 C   0  0  0  0  0  0  0  0  0  0  0  0
   -1.6350   -0.7880    0.3720 N   0  0  0  0  0  0  0  0  0  0  0  0
   -1.8420    0.4850    0.0150 C   0  0  0  0  0  0  0  0  0  0  0  0
   -0.8180    1.4560   -0.3590 C   0  0  0  0  0  0  0  0  0  0  0  0
   -1.1080    2.7470   -0.7130 C   0  0  0  0  0  0  0  0  0  0  0  0
   -0.1340    3.6230   -1.0550 N   0  0  0  0  0  0  0  0  0  0  0  0
    1.1620    3.2780   -1.0660 C   0  0  0  0  0  0  0  0  0  0  0  0
    2.1740    4.2110   -1.4270 N   0  0  0  0  0  0  0  0  0  0  0  0
    1.4620    2.0210   -0.7220 N   0  0  0  0  0  0  0  0  0  0  0  0
    0.5480    1.1010   -0.3720 C   0  0  0  0  0  0  0  0  0  0  0  0
    0.8860   -0.5710    0.0900 S   0  0  0  0  0  0  0  0  0  0  0  0
    2.6020   -0.9790    0.0620 C   0  0  0  0  0  0  0  0  0  0  0  0
    3.5650   -0.1550   -0.2630 C   0  0  0  0  0  0  0  0  0  0  0  0
    4.9860   -0.5510   -0.2690 C   0  0  0  0  0  0  0  0  0  0  0  0
    5.1800   -1.8730    0.1030 O   0  0  0  0  0  0  0  0  0  0  0  0
    4.1850   -2.7470    0.4460 C   0  0  0  0  0  0  0  0  0  0  0  0
    2.9370   -2.3780    0.4440 C   0  0  0  0  0  0  0  0  0  0  0  0
   -3.1740    0.6640    0.0770 N   0  0  0  0  0  0  0  0  0  0  0  0
   -3.8040   -0.4530    0.4600 C   0  0  0  0  0  0  0  0  0  0  0  0
   -5.2760   -0.6740    0.6520 C   0  0  0  0  0  0  0  0  0  0  0  0
  1  2  1  0
  2  3  1  0
  2 20  2  0
  3  4  2  0
  4  5  1  0
  4 19  1  0
  5  6  2  0
  5 11  1  0
  6  7  1  0
  7  8  2  0
  8  9  1  0
  8 10  1  0
 10 11  2  0
 11 12  1  0
 12 13  1  0
 13 14  2  0
 13 18  1  0
 14 15  1  0
 15 16  1  0
 16 17  1  0
 17 18  2  0
 19 20  1  0
 20 21  1  0
M  END
