
     RDKit          3D

 21 24  0  0  0  0  0  0  0  0999 V2000
   -4.9510    1.8320   -0.2170 C   0  0  0  0  0  0  0  0  0  0  0  0
   -4.8300    0.4090    0.2230 C   0  0  0  0  0  0  0  0  0  0  0  0
   -3.6480   -0.2840   -0.3280 C   0  0  0  0  0  0  0  0  0  0  0  0
   -3.6470   -1.1750   -1.3290 N   0  0  0  0  0  0  0  0  0  0  0  0
   -2.4120   -1.5880   -1.5550 N   0  0  0  0  0  0  0  0  0  0  0  0
   -1.5580   -0.9920   -0.7200 C   0  0  0  0  0  0  0  0  0  0  0  0
   -0.2190   -1.0320   -0.5040 N   0  0  0  0  0  0  0  0  0  0  0  0
    0.4110   -0.3180    0.4240 C   0  0  0  0  0  0  0  0  0  0  0  0
    1.8720   -0.3780    0.6430 C   0  0  0  0  0  0  0  0  0  0  0  0
    2.3850    0.3840    1.6190 C   0  0  0  0  0  0  0  0  0  0  0  0
    3.8390    0.3100    1.8220 C   0  0  0  0  0  0  0  0  0  0  0  0
    4.4820    0.4220    0.4350 C   0  0  0  0  0  0  0  0  0  0  0  0
    5.5160    1.2200    0.1710 N   0  0  0  0  0  0  0  0  0  0  0  0
    5.7830    0.8900   -1.5880 S   0  0  0  0  0  0  0  0  0  0  0  0
    4.5470   -0.2280   -1.7910 C   0  0  0  0  0  0  0  0  0  0  0  0
    3.9490   -0.3340   -0.5180 C   0  0  0  0  0  0  0  0  0  0  0  0
    2.7730   -1.2230   -0.1560 C   0  0  0  0  0  0  0  0  0  0  0  0
   -0.3400    0.5030    1.2020 N   0  0  0  0  0  0  0  0  0  0  0  0
   -1.6590    0.5680    1.0180 C   0  0  0  0  0  0  0  0  0  0  0  0
   -2.3490    1.3400    1.7520 O   0  0  0  0  0  0  0  0  0  0  0  0
   -2.3330   -0.1630    0.0630 C   0  0  0  0  0  0  0  0  0  0  0  0
  1  2  1  0
  2  3  1  0
  3  4  2  0
  3 21  1  0
  4  5  1  0
  5  6  1  0
  6  7  1  0
  6 21  2  0
  7  8  1  0
  8  9  1  0
  8 18  2  0
  9 10  2  0
  9 17  1  0
 10 11  1  0
 11 12  1  0
 12 13  2  0
 12 16  1  0
 13 14  1  0
 14 15  1  0
 15 16  2  0
 16 17  1  0
 18 19  1  0
 19 20  2  0
 19 21  1  0
M  END
