
     RDKit          3D

 23 25  0  0  0  0  0  0  0  0999 V2000
   -4.7450   -2.1700   -0.3600 C   0  0  0  0  0  0  0  0  0  0  0  0
   -5.3910   -0.8710   -0.1890 N   0  0  0  0  0  0  0  0  0  0  0  0
   -6.5830   -0.4940   -0.6860 C   0  0  0  0  0  0  0  0  0  0  0  0
   -6.7930    0.7970   -0.2780 C   0  0  0  0  0  0  0  0  0  0  0  0
   -5.7150    1.1430    0.4500 N   0  0  0  0  0  0  0  0  0  0  0  0
   -4.8350    0.1240    0.5170 C   0  0  0  0  0  0  0  0  0  0  0  0
   -3.5370    0.1750    1.2440 C   0  0  0  0  0  0  0  0  0  0  0  0
   -2.5590    0.7740    0.3700 N   0  0  2  0  0  0  0  0  0  0  0  0
   -2.6390    0.2860   -0.9700 C   0  0  0  0  0  0  0  0  0  0  0  0
   -1.2520    0.5920    0.9670 C   0  0  0  0  0  0  0  0  0  0  0  0
   -0.2010    0.5940   -0.1060 C   0  0  0  0  0  0  0  0  0  0  0  0
    1.1170    0.4130    0.4700 N   0  0  0  0  0  0  0  0  0  0  0  0
    2.2660    0.3830   -0.3650 C   0  0  0  0  0  0  0  0  0  0  0  0
    2.1180    0.5160   -1.6010 O   0  0  0  0  0  0  0  0  0  0  0  0
    3.5660    0.2100    0.1500 N   0  0  0  0  0  0  0  0  0  0  0  0
    4.7540    0.1700   -0.6180 C   0  0  0  0  0  0  0  0  0  0  0  0
    4.9170    0.2850   -1.9770 C   0  0  0  0  0  0  0  0  0  0  0  0
    6.2050    0.1910   -2.2770 O   0  0  0  0  0  0  0  0  0  0  0  0
    6.9170    0.0180   -1.1860 C   0  0  0  0  0  0  0  0  0  0  0  0
    6.0240    0.0000   -0.1090 C   0  0  0  0  0  0  0  0  0  0  0  0
    6.6920   -0.1720    1.0180 C   0  0  0  0  0  0  0  0  0  0  0  0
    8.1300   -0.2760    0.6710 C   0  0  0  0  0  0  0  0  0  0  0  0
    8.1240   -0.1370   -0.7670 N   0  0  0  0  0  0  0  0  0  0  0  0
  1  2  1  0
  2  3  1  0
  2  6  1  0
  3  4  2  0
  4  5  1  0
  5  6  2  0
  6  7  1  0
  7  8  1  0
  8  9  1  6
  8 10  1  0
 10 11  1  0
 11 12  1  0
 12 13  1  0
 13 14  2  0
 13 15  1  0
 15 16  1  0
 16 17  2  0
 16 20  1  0
 17 18  1  0
 18 19  1  0
 19 20  1  0
 19 23  2  0
 20 21  2  0
 21 22  1  0
 22 23  1  0
M  CHG  1   8   1
M  END
