
     RDKit          3D

 23 26  0  0  0  0  0  0  0  0999 V2000
    5.2520    0.7400    0.2400 O   0  0  0  0  0  0  0  0  0  0  0  0
    4.5790   -0.2980    0.4640 C   0  0  0  0  0  0  0  0  0  0  0  0
    5.1460   -1.6490    0.7080 C   0  0  0  0  0  0  0  0  0  0  0  0
    4.0780   -2.5000    0.2210 N   0  0  0  0  0  0  0  0  0  0  0  0
    2.8740   -1.7420    0.4050 C   0  0  0  0  0  0  0  0  0  0  0  0
    1.5100   -2.3200    0.4460 C   0  0  0  0  0  0  0  0  0  0  0  0
    0.5450   -1.3010    0.5100 O   0  0  0  0  0  0  0  0  0  0  0  0
    0.3540   -0.3450   -0.4560 C   0  0  0  0  0  0  0  0  0  0  0  0
    1.1220   -0.3240   -1.6160 C   0  0  0  0  0  0  0  0  0  0  0  0
    0.9330    0.6320   -2.5850 C   0  0  0  0  0  0  0  0  0  0  0  0
   -0.0420    1.5860   -2.3970 C   0  0  0  0  0  0  0  0  0  0  0  0
   -0.8090    1.5680   -1.2440 C   0  0  0  0  0  0  0  0  0  0  0  0
   -0.6190    0.6140   -0.2770 C   0  0  0  0  0  0  0  0  0  0  0  0
   -1.4300    0.5840    0.9560 C   0  0  1  0  0  0  0  0  0  0  0  0
   -1.2010    1.7860    1.7380 N   0  0  0  0  0  0  0  0  0  0  0  0
   -2.2040    2.7020    2.0420 N   0  0  0  0  0  0  0  0  0  0  0  0
   -3.4200    2.5900    1.6740 C   0  0  0  0  0  0  0  0  0  0  0  0
   -3.7800    1.4280    0.8860 C   0  0  0  0  0  0  0  0  0  0  0  0
   -4.9590    1.0160    0.3470 N   0  0  0  0  0  0  0  0  0  0  0  0
   -4.7700   -0.1400   -0.3010 C   0  0  0  0  0  0  0  0  0  0  0  0
   -3.4760   -0.4610   -0.1750 N   0  0  0  0  0  0  0  0  0  0  0  0
   -2.8530    0.4880    0.5490 C   0  0  0  0  0  0  0  0  0  0  0  0
    3.1700   -0.4730    0.5450 N   0  0  0  0  0  0  0  0  0  0  0  0
  1  2  2  0
  2  3  1  0
  2 23  1  0
  3  4  1  0
  4  5  1  0
  5  6  1  0
  5 23  2  0
  6  7  1  0
  7  8  1  0
  8  9  2  0
  8 13  1  0
  9 10  1  0
 10 11  2  0
 11 12  1  0
 12 13  2  0
 14 13  1  6
 14 15  1  0
 14 22  1  0
 15 16  1  0
 16 17  2  0
 17 18  1  0
 18 19  1  0
 18 22  2  0
 19 20  1  0
 20 21  2  0
 21 22  1  0
M  CHG  1  21   1
M  END
