
     RDKit          3D

 22 23  0  0  0  0  0  0  0  0999 V2000
    5.8490    1.2040    1.0840 C   0  0  0  0  0  0  0  0  0  0  0  0
    4.5900    0.8970    1.4510 C   0  0  0  0  0  0  0  0  0  0  0  0
    3.8840    1.7130    2.4570 C   0  0  0  0  0  0  0  0  0  0  0  0
    2.5380    1.1990    2.6980 C   0  0  0  0  0  0  0  0  0  0  0  0
    2.0340    0.1540    2.0980 C   0  0  0  0  0  0  0  0  0  0  0  0
    2.7620   -0.6250    1.1120 C   0  0  0  0  0  0  0  0  0  0  0  0
    2.2340   -1.8090    0.4100 C   0  0  0  0  0  0  0  0  0  0  0  0
    1.0420   -1.5570   -0.3780 N   0  0  0  0  0  0  0  0  0  0  0  0
    1.1420   -1.0980   -1.7550 C   0  0  0  0  0  0  0  0  0  0  0  0
   -0.2360   -1.7580    0.1870 C   0  0  0  0  0  0  0  0  0  0  0  0
   -0.3640   -2.1900    1.3910 O   0  0  0  0  0  0  0  0  0  0  0  0
   -1.4330   -1.4870   -0.5580 C   0  0  0  0  0  0  0  0  0  0  0  0
   -1.4040   -1.0700   -1.7170 O   0  0  0  0  0  0  0  0  0  0  0  0
   -2.7500   -1.6880    0.0050 N   0  0  0  0  0  0  0  0  0  0  0  0
   -3.9510   -1.4130   -0.7520 C   0  0  0  0  0  0  0  0  0  0  0  0
   -4.0240    0.0210   -1.1790 C   0  0  0  0  0  0  0  0  0  0  0  0
   -4.0820    0.4380   -2.4230 C   0  0  0  0  0  0  0  0  0  0  0  0
   -4.1420    1.9050   -2.4320 C   0  0  0  0  0  0  0  0  0  0  0  0
   -4.1100    2.2870   -1.0170 C   0  0  0  0  0  0  0  0  0  0  0  0
   -4.0420    1.1820   -0.3110 C   0  0  0  0  0  0  0  0  0  0  0  0
   -3.9820    1.1560    1.4580 Cl  0  0  0  0  0  0  0  0  0  0  0  0
    3.9650   -0.2070    0.8620 N   0  0  0  0  0  0  0  0  0  0  0  0
  1  2  2  0
  2  3  1  0
  2 22  1  0
  3  4  1  0
  4  5  2  0
  5  6  1  0
  6  7  1  0
  6 22  2  0
  7  8  1  0
  8  9  1  0
  8 10  1  0
 10 11  2  0
 10 12  1  0
 12 13  2  0
 12 14  1  0
 14 15  1  0
 15 16  1  0
 16 17  2  0
 16 20  1  0
 17 18  1  0
 18 19  1  0
 19 20  2  0
 20 21  1  0
M  END
