
     RDKit          3D

 22 24  0  0  0  0  0  0  0  0999 V2000
    6.5120    2.6130   -1.0720 C   0  0  0  0  0  0  0  0  0  0  0  0
    5.6850    2.8370    0.0540 O   0  0  0  0  0  0  0  0  0  0  0  0
    4.4430    2.2110    0.0780 C   0  0  0  0  0  0  0  0  0  0  0  0
    3.9980    1.3930   -0.9390 C   0  0  0  0  0  0  0  0  0  0  0  0
    2.7460    0.7710   -0.8980 C   0  0  0  0  0  0  0  0  0  0  0  0
    1.9180    0.9670    0.1790 C   0  0  0  0  0  0  0  0  0  0  0  0
    0.6160    0.3170    0.2180 C   0  0  0  0  0  0  0  0  0  0  0  0
    0.0990   -0.5050   -0.7420 N   0  0  0  0  0  0  0  0  0  0  0  0
   -1.1010   -0.9010   -0.3550 N   0  0  0  0  0  0  0  0  0  0  0  0
   -1.4000   -0.3640    0.8400 C   0  0  0  0  0  0  0  0  0  0  0  0
   -2.6540   -0.5520    1.6340 C   0  0  2  0  0  0  0  0  0  0  0  0
   -2.5260   -1.9280    2.2940 C   0  0  0  0  0  0  0  0  0  0  0  0
   -3.7990   -0.4140    0.8690 O   0  0  0  0  0  0  0  0  0  0  0  0
   -4.0420   -1.2280   -0.2130 C   0  0  0  0  0  0  0  0  0  0  0  0
   -3.7310   -0.8860   -1.4630 C   0  0  0  0  0  0  0  0  0  0  0  0
   -4.1300   -1.9890   -2.3550 C   0  0  0  0  0  0  0  0  0  0  0  0
   -4.7120   -3.0070   -1.4480 C   0  0  0  0  0  0  0  0  0  0  0  0
   -4.6530   -2.5440   -0.1970 C   0  0  0  0  0  0  0  0  0  0  0  0
   -5.2560   -3.4700    1.1580 Cl  0  0  0  0  0  0  0  0  0  0  0  0
   -0.3270    0.3790    1.1670 N   0  0  0  0  0  0  0  0  0  0  0  0
    2.3400    1.7760    1.2030 C   0  0  0  0  0  0  0  0  0  0  0  0
    3.5900    2.3940    1.1550 C   0  0  0  0  0  0  0  0  0  0  0  0
  1  2  1  0
  2  3  1  0
  3  4  2  0
  3 22  1  0
  4  5  1  0
  5  6  2  0
  6  7  1  0
  6 21  1  0
  7  8  2  0
  7 20  1  0
  8  9  1  0
  9 10  2  0
 10 11  1  0
 10 20  1  0
 11 12  1  6
 11 13  1  0
 13 14  1  0
 14 15  2  0
 14 18  1  0
 15 16  1  0
 16 17  1  0
 17 18  2  0
 18 19  1  0
 21 22  2  0
M  END
