
     RDKit          3D

 17 19  0  0  0  0  0  0  0  0999 V2000
    5.1820   -0.4030   -0.6180 C   0  0  0  0  0  0  0  0  0  0  0  0
    4.4860    0.5790    0.1890 N   0  0  0  0  0  0  0  0  0  0  0  0
    3.0480    0.4810    0.2280 C   0  0  0  0  0  0  0  0  0  0  0  0
    2.2260    1.2900    0.9120 N   0  0  0  0  0  0  0  0  0  0  0  0
    0.9580    0.8960    0.7110 C   0  0  0  0  0  0  0  0  0  0  0  0
   -0.2730    1.3760    1.1760 C   0  0  0  0  0  0  0  0  0  0  0  0
   -1.4420    0.7500    0.7900 C   0  0  0  0  0  0  0  0  0  0  0  0
   -2.6830    1.1930    1.2270 C   0  0  0  0  0  0  0  0  0  0  0  0
   -2.6910    2.1920    1.9930 O   0  0  0  0  0  0  0  0  0  0  0  0
   -3.8090    0.5710    0.8410 N   0  0  0  0  0  0  0  0  0  0  0  0
   -3.7970   -0.4960    0.0230 C   0  0  0  0  0  0  0  0  0  0  0  0
   -5.0260   -1.0930   -0.3360 N   0  0  0  0  0  0  0  0  0  0  0  0
   -2.6040   -0.9340   -0.4060 N   0  0  0  0  0  0  0  0  0  0  0  0
   -1.4480   -0.3460   -0.0480 C   0  0  0  0  0  0  0  0  0  0  0  0
   -0.2220   -0.8030   -0.4950 C   0  0  0  0  0  0  0  0  0  0  0  0
    0.9670   -0.1990   -0.1270 C   0  0  0  0  0  0  0  0  0  0  0  0
    2.2660   -0.4130   -0.3940 N   0  0  0  0  0  0  0  0  0  0  0  0
  1  2  1  0
  2  3  1  0
  3  4  2  0
  3 17  1  0
  4  5  1  0
  5  6  2  0
  5 16  1  0
  6  7  1  0
  7  8  1  0
  7 14  2  0
  8  9  2  0
  8 10  1  0
 10 11  2  0
 11 12  1  0
 11 13  1  0
 13 14  1  0
 14 15  1  0
 15 16  2  0
 16 17  1  0
M  CHG  1  10   1
M  END
