
     RDKit          3D

 19 20  0  0  0  0  0  0  0  0999 V2000
   -4.7110   -0.1640   -0.9950 C   0  0  0  0  0  0  0  0  0  0  0  0
   -3.5460    0.1250   -0.4790 C   0  0  0  0  0  0  0  0  0  0  0  0
   -2.8360    1.4450   -0.4810 C   0  0  0  0  0  0  0  0  0  0  0  0
   -1.6830    1.2560    0.2400 O   0  0  0  0  0  0  0  0  0  0  0  0
   -1.2950   -0.0690   -0.0050 C   0  0  2  0  0  0  0  0  0  0  0  0
   -0.8950   -0.1780   -1.4410 C   0  0  0  0  0  0  0  0  0  0  0  0
    0.1980    0.7210   -1.7040 N   0  0  0  0  0  0  0  0  0  0  0  0
    1.4370    0.5990   -1.0280 C   0  0  0  0  0  0  0  0  0  0  0  0
    1.5960   -0.3090   -0.1840 O   0  0  0  0  0  0  0  0  0  0  0  0
    2.5050    1.5050   -1.3040 N   0  0  0  0  0  0  0  0  0  0  0  0
    3.7780    1.4020   -0.6280 C   0  0  0  0  0  0  0  0  0  0  0  0
    4.8530    1.9000   -0.5540 N   0  0  0  0  0  0  0  0  0  0  0  0
    5.8190    1.5120    0.2220 N   0  0  0  0  0  0  0  0  0  0  0  0
    5.7510    0.5990    0.9650 C   0  0  0  0  0  0  0  0  0  0  0  0
    6.6250   -0.1100    1.9700 C   0  0  0  0  0  0  0  0  0  0  0  0
    4.0010    0.0180    0.6490 S   0  0  0  0  0  0  0  0  0  0  0  0
   -2.6300   -0.7530    0.2340 C   0  0  0  0  0  0  0  0  0  0  0  0
   -2.8390   -1.8460    0.9290 C   0  0  0  0  0  0  0  0  0  0  0  0
   -4.1930   -2.4000    1.1080 C   0  0  0  0  0  0  0  0  0  0  0  0
  1  2  2  0
  2  3  1  0
  2 17  1  0
  3  4  1  0
  4  5  1  0
  5  6  1  6
  5 17  1  0
  6  7  1  0
  7  8  1  0
  8  9  2  0
  8 10  1  0
 10 11  1  0
 11 12  2  0
 11 16  1  0
 12 13  1  0
 13 14  2  0
 14 15  1  0
 14 16  1  0
 17 18  2  3
 18 19  1  0
M  END
