
     RDKit          3D

 19 20  0  0  0  0  0  0  0  0999 V2000
   -3.6980   -0.5990    1.2230 C   0  0  0  0  0  0  0  0  0  0  0  0
   -3.5170    0.2990    0.0320 C   0  0  1  0  0  0  0  0  0  0  0  0
   -4.8370    0.2760   -0.7410 C   0  0  0  0  0  0  0  0  0  0  0  0
   -3.3310    1.7210    0.5150 C   0  0  0  0  0  0  0  0  0  0  0  0
   -2.5150   -0.1130   -0.8440 O   0  0  0  0  0  0  0  0  0  0  0  0
   -1.1780   -0.2650   -0.5180 C   0  0  0  0  0  0  0  0  0  0  0  0
   -0.2490    0.7480   -0.6310 C   0  0  0  0  0  0  0  0  0  0  0  0
    1.0480    0.5750   -0.3070 N   0  0  0  0  0  0  0  0  0  0  0  0
    1.4890   -0.6160    0.1470 C   0  0  0  0  0  0  0  0  0  0  0  0
    2.9140   -0.8340    0.5110 C   0  0  1  0  0  0  0  0  0  0  0  0
    3.7660   -1.1900   -0.6560 C   0  0  0  0  0  0  0  0  0  0  0  0
    4.5380   -0.1490   -1.2120 N   0  0  0  0  0  0  0  0  0  0  0  0
    3.8420    0.5760   -2.6510 S   0  0  0  0  0  0  0  0  0  0  0  0
    5.0200    0.8300   -0.2750 C   0  0  0  0  0  0  0  0  0  0  0  0
    3.8150    1.3050    0.5270 C   0  0  0  0  0  0  0  0  0  0  0  0
    3.3640    0.2360    1.2570 O   0  0  0  0  0  0  0  0  0  0  0  0
    0.5990   -1.6190    0.2650 N   0  0  0  0  0  0  0  0  0  0  0  0
   -0.7090   -1.4740   -0.0530 C   0  0  0  0  0  0  0  0  0  0  0  0
   -1.5680   -2.5730    0.1010 N   0  0  0  0  0  0  0  0  0  0  0  0
  2  1  1  1
  2  3  1  0
  2  4  1  0
  2  5  1  0
  5  6  1  0
  6  7  2  0
  6 18  1  0
  7  8  1  0
  8  9  2  0
 10  9  1  6
  9 17  1  0
 10 11  1  0
 10 16  1  0
 11 12  1  0
 12 13  1  0
 12 14  1  0
 14 15  1  0
 15 16  1  0
 17 18  2  0
 18 19  1  0
M  END
