
     RDKit          3D

 22 23  0  0  0  0  0  0  0  0999 V2000
    7.7290    0.5830    0.6760 C   0  0  0  0  0  0  0  0  0  0  0  0
    7.6910   -0.7090    0.2130 O   0  0  0  0  0  0  0  0  0  0  0  0
    6.9280   -0.9110   -0.9060 C   0  0  0  0  0  0  0  0  0  0  0  0
    5.5080   -0.5500   -0.6030 C   0  0  0  0  0  0  0  0  0  0  0  0
    4.7770    0.2300   -0.1140 N   0  0  0  0  0  0  0  0  0  0  0  0
    3.4970    0.2870   -0.0020 C   0  0  0  0  0  0  0  0  0  0  0  0
    2.7060    1.4070    0.7000 C   0  0  0  0  0  0  0  0  0  0  0  0
    1.3630    0.8230    0.9650 C   0  0  0  0  0  0  0  0  0  0  0  0
    1.2220   -0.1130    1.7570 O   0  0  0  0  0  0  0  0  0  0  0  0
    0.2310    1.3960    0.2460 N   0  0  0  0  0  0  0  0  0  0  0  0
   -0.9980    0.8210    0.4650 N   0  0  0  0  0  0  0  0  0  0  0  0
   -2.1820    1.1020   -0.2950 C   0  0  0  0  0  0  0  0  0  0  0  0
   -2.1030    1.9700   -1.1890 O   0  0  0  0  0  0  0  0  0  0  0  0
   -3.3960    0.4300   -0.0690 N   0  0  0  0  0  0  0  0  0  0  0  0
   -4.5930    0.6960   -0.8350 C   0  0  0  0  0  0  0  0  0  0  0  0
   -5.6810   -0.2360   -0.3600 C   0  0  0  0  0  0  0  0  0  0  0  0
   -6.8530    0.0160    0.1510 C   0  0  0  0  0  0  0  0  0  0  0  0
   -7.5770   -1.2380    0.4700 C   0  0  0  0  0  0  0  0  0  0  0  0
   -6.6130   -2.3010    0.0670 C   0  0  0  0  0  0  0  0  0  0  0  0
   -5.5380   -1.7010   -0.4070 C   0  0  0  0  0  0  0  0  0  0  0  0
    2.8200   -0.8130   -0.5830 C   0  0  0  0  0  0  0  0  0  0  0  0
    4.1850   -1.7870   -1.2190 S   0  0  0  0  0  0  0  0  0  0  0  0
  1  2  1  0
  2  3  1  0
  3  4  1  0
  4  5  2  0
  4 22  1  0
  5  6  1  0
  6  7  1  0
  6 21  2  0
  7  8  1  0
  8  9  2  0
  8 10  1  0
 10 11  1  0
 11 12  1  0
 12 13  2  0
 12 14  1  0
 14 15  1  0
 15 16  1  0
 16 17  2  0
 16 20  1  0
 17 18  1  0
 18 19  1  0
 19 20  2  0
 21 22  1  0
M  END
