
     RDKit          3D

 22 23  0  0  0  0  0  0  0  0999 V2000
    5.1070    1.7830    2.0250 C   0  0  0  0  0  0  0  0  0  0  0  0
    5.6170    0.3650    1.9010 C   0  0  0  0  0  0  0  0  0  0  0  0
    4.3070   -0.8230    2.2660 S   0  0  0  0  0  0  0  0  0  0  0  0
    3.0180   -0.7790    1.0140 C   0  0  0  0  0  0  0  0  0  0  0  0
    3.0570    0.0600   -0.0620 C   0  0  0  0  0  0  0  0  0  0  0  0
    2.0410    0.0530   -1.0110 C   0  0  0  0  0  0  0  0  0  0  0  0
    0.9520   -0.8010   -0.9050 C   0  0  0  0  0  0  0  0  0  0  0  0
   -0.0880   -0.8220   -1.8770 N   0  0  0  0  0  0  0  0  0  0  0  0
    0.0260   -1.1480   -3.1700 N   0  0  0  0  0  0  0  0  0  0  0  0
   -1.1630   -1.0620   -3.7700 C   0  0  0  0  0  0  0  0  0  0  0  0
   -1.4480   -1.2950   -4.9900 O   0  0  0  0  0  0  0  0  0  0  0  0
   -2.0770   -0.6660   -2.8280 C   0  0  0  0  0  0  0  0  0  0  0  0
   -1.3770   -0.5220   -1.6480 C   0  0  0  0  0  0  0  0  0  0  0  0
   -1.9640   -0.1000   -0.3540 C   0  0  0  0  0  0  0  0  0  0  0  0
   -1.2090    0.0700    0.6320 O   0  0  0  0  0  0  0  0  0  0  0  0
   -3.3390    0.1160   -0.2000 N   0  0  0  0  0  0  0  0  0  0  0  0
   -3.9730    0.5120    0.9820 N   0  0  0  0  0  0  0  0  0  0  0  0
   -5.3660    0.6830    1.0980 C   0  0  0  0  0  0  0  0  0  0  0  0
   -6.0730    1.0980    2.3270 C   0  0  0  0  0  0  0  0  0  0  0  0
   -6.0460    0.4550    0.0490 O   0  0  0  0  0  0  0  0  0  0  0  0
    0.9230   -1.6440    0.1880 C   0  0  0  0  0  0  0  0  0  0  0  0
    1.9400   -1.6410    1.1440 C   0  0  0  0  0  0  0  0  0  0  0  0
  1  2  1  0
  2  3  1  0
  3  4  1  0
  4  5  2  0
  4 22  1  0
  5  6  1  0
  6  7  2  0
  7  8  1  0
  7 21  1  0
  8  9  1  0
  8 13  1  0
  9 10  1  0
 10 11  2  0
 10 12  1  0
 12 13  2  0
 13 14  1  0
 14 15  2  0
 14 16  1  0
 16 17  1  0
 17 18  1  0
 18 19  1  0
 18 20  2  0
 21 22  2  0
M  END
