
     RDKit          3D

 22 23  0  0  0  0  0  0  0  0999 V2000
   -4.9420   -1.4010    0.3800 C   0  0  0  0  0  0  0  0  0  0  0  0
   -3.5790   -1.9730    0.0900 C   0  0  1  0  0  0  0  0  0  0  0  0
   -3.6520   -2.6900   -1.2440 C   0  0  0  0  0  0  0  0  0  0  0  0
   -2.5380   -0.9020    0.0980 C   0  0  0  0  0  0  0  0  0  0  0  0
   -1.2300   -1.2450    0.3230 C   0  0  0  0  0  0  0  0  0  0  0  0
   -0.2690   -0.2360    0.3510 C   0  0  0  0  0  0  0  0  0  0  0  0
    1.1090   -0.5360    0.5390 N   0  0  0  0  0  0  0  0  0  0  0  0
    2.0280   -0.5260   -0.5000 N   0  0  0  0  0  0  0  0  0  0  0  0
    3.4660   -1.3140   -0.0650 S   0  0  1  0  0  0  0  0  0  0  0  0
    3.4610   -3.0460   -0.4050 C   0  0  0  0  0  0  0  0  0  0  0  0
    4.6980   -0.6320   -0.6440 O   0  0  0  0  0  0  0  0  0  0  0  0
    3.6220   -1.1700    1.4470 O   0  0  0  0  0  0  0  0  0  0  0  0
   -0.6280    1.0790    0.1590 C   0  0  0  0  0  0  0  0  0  0  0  0
    0.3850    2.1130    0.2000 C   0  0  0  0  0  0  0  0  0  0  0  0
    1.3630    2.2410    1.1530 C   0  0  0  0  0  0  0  0  0  0  0  0
    2.3030    3.2530    1.1310 C   0  0  0  0  0  0  0  0  0  0  0  0
    2.2860    4.1920    0.1180 C   0  0  0  0  0  0  0  0  0  0  0  0
    3.2400    5.1900    0.1190 O   0  0  0  0  0  0  0  0  0  0  0  0
    1.3120    4.0950   -0.8640 C   0  0  0  0  0  0  0  0  0  0  0  0
    0.3920    3.0740   -0.8090 C   0  0  0  0  0  0  0  0  0  0  0  0
   -1.9360    1.3080   -0.0530 N   0  0  0  0  0  0  0  0  0  0  0  0
   -2.8640    0.3810   -0.0870 N   0  0  0  0  0  0  0  0  0  0  0  0
  2  1  1  6
  2  3  1  0
  2  4  1  0
  4  5  2  0
  4 22  1  0
  5  6  1  0
  6  7  1  0
  6 13  2  0
  7  8  1  0
  8  9  1  0
  9 10  1  1
  9 11  2  0
  9 12  2  0
 13 14  1  0
 13 21  1  0
 14 15  2  0
 14 20  1  0
 15 16  1  0
 16 17  2  0
 17 18  1  0
 17 19  1  0
 19 20  2  0
 21 22  2  0
M  END
