
     RDKit          3D

 33 35  0  0  0  0  0  0  0  0999 V2000
    0.1080    1.9620   -3.2510 C   0  0  0  0  0  0  0  0  0  0  0  0
   -0.3430    0.6990   -2.9150 O   0  0  0  0  0  0  0  0  0  0  0  0
    0.4160    0.0720   -1.9720 C   0  0  0  0  0  0  0  0  0  0  0  0
    0.5110    0.7390   -0.6350 C   0  0  2  0  0  0  0  0  0  0  0  0
    1.5310   -0.0430    0.1670 C   0  0  0  0  0  0  0  0  0  0  0  0
    1.7130    0.5400    1.5530 C   0  0  0  0  0  0  0  0  0  0  0  0
    2.7390   -0.2550    2.3410 C   0  0  0  0  0  0  0  0  0  0  0  0
    4.0570   -0.2610    1.6910 C   0  0  0  0  0  0  0  0  0  0  0  0
    4.6050   -1.4130    1.3210 C   0  0  0  0  0  0  0  0  0  0  0  0
    3.9010   -2.6870    1.5570 C   0  0  0  0  0  0  0  0  0  0  0  0
    5.9200   -1.4420    0.6750 C   0  0  0  0  0  0  0  0  0  0  0  0
    6.5750   -2.4980    0.2610 C   0  0  0  0  0  0  0  0  0  0  0  0
    7.8920   -2.1180   -0.3500 C   0  0  0  0  0  0  0  0  0  0  0  0
    7.8100   -0.6410   -0.5500 C   0  0  0  0  0  0  0  0  0  0  0  0
    6.7300   -0.2200    0.3890 C   0  0  0  0  0  0  0  0  0  0  0  0
   -0.7030    0.9010    0.0110 O   0  0  0  0  0  0  0  0  0  0  0  0
   -1.2850    2.0750    0.4200 C   0  0  0  0  0  0  0  0  0  0  0  0
   -0.6710    3.1400    0.1980 O   0  0  0  0  0  0  0  0  0  0  0  0
   -2.6000    2.0780    1.1040 C   0  0  1  0  0  0  0  0  0  0  0  0
   -2.9570    3.4410    1.6190 C   0  0  0  0  0  0  0  0  0  0  0  0
   -4.4540    3.5620    1.7230 C   0  0  0  0  0  0  0  0  0  0  0  0
   -4.9810    3.5480    0.2760 C   0  0  0  0  0  0  0  0  0  0  0  0
   -4.7930    2.1220   -0.1440 C   0  0  0  0  0  0  0  0  0  0  0  0
   -5.6990    1.4450   -0.9110 C   0  0  0  0  0  0  0  0  0  0  0  0
   -5.5050    0.1100   -1.2790 C   0  0  0  0  0  0  0  0  0  0  0  0
   -4.3810   -0.5660   -0.8710 C   0  0  0  0  0  0  0  0  0  0  0  0
   -4.1700   -1.9190   -1.2300 N   0  0  0  0  0  0  0  0  0  0  0  0
   -3.3800   -2.2540   -2.3820 C   0  0  0  0  0  0  0  0  0  0  0  0
   -4.7530   -2.9300   -0.4330 C   0  0  0  0  0  0  0  0  0  0  0  0
   -5.5720   -2.6340    0.7600 C   0  0  0  0  0  0  0  0  0  0  0  0
   -4.5680   -4.1290   -0.7490 O   0  0  0  0  0  0  0  0  0  0  0  0
   -3.4570    0.1290   -0.0870 C   0  0  0  0  0  0  0  0  0  0  0  0
   -3.6550    1.4470    0.2710 C   0  0  0  0  0  0  0  0  0  0  0  0
  1  2  1  0
  2  3  1  0
  4  3  1  6
  4  5  1  0
  4 16  1  0
  5  6  1  0
  6  7  1  0
  7  8  1  0
  8  9  2  3
  9 10  1  0
  9 11  1  0
 11 12  2  0
 11 15  1  0
 12 13  1  0
 13 14  1  0
 14 15  1  0
 16 17  1  0
 17 18  2  0
 19 17  1  6
 19 20  1  0
 19 33  1  0
 20 21  1  0
 21 22  1  0
 22 23  1  0
 23 24  2  0
 23 33  1  0
 24 25  1  0
 25 26  2  0
 26 27  1  0
 26 32  1  0
 27 28  1  0
 27 29  1  0
 29 30  1  0
 29 31  2  0
 32 33  2  0
M  END
