
     RDKit          3D

 33 35  0  0  0  0  0  0  0  0999 V2000
   -9.5820   -0.4440   -1.8060 C   0  0  0  0  0  0  0  0  0  0  0  0
   -8.1910   -0.7980   -1.3370 C   0  0  0  0  0  0  0  0  0  0  0  0
   -7.6630    0.1710   -0.4620 O   0  0  0  0  0  0  0  0  0  0  0  0
   -6.3770   -0.0660    0.0420 C   0  0  0  0  0  0  0  0  0  0  0  0
   -5.6690   -1.1980   -0.3050 C   0  0  0  0  0  0  0  0  0  0  0  0
   -4.4050   -1.3910    0.2220 C   0  0  0  0  0  0  0  0  0  0  0  0
   -3.8550   -0.4920    1.0770 C   0  0  0  0  0  0  0  0  0  0  0  0
   -2.4900   -0.7350    1.5780 C   0  0  0  0  0  0  0  0  0  0  0  0
   -1.5410    0.2410    1.0070 C   0  0  0  0  0  0  0  0  0  0  0  0
   -1.6630    1.4660    1.3720 O   0  0  0  0  0  0  0  0  0  0  0  0
   -0.5010   -0.0400    0.0770 N   0  0  0  0  0  0  0  0  0  0  0  0
    0.3320    1.0430   -0.4000 C   0  0  0  0  0  0  0  0  0  0  0  0
    1.3040    0.4520   -1.3820 C   0  0  0  0  0  0  0  0  0  0  0  0
    2.2110   -0.5800   -0.8680 C   0  0  0  0  0  0  0  0  0  0  0  0
    2.0020   -1.9650   -0.9400 C   0  0  0  0  0  0  0  0  0  0  0  0
    3.0700   -2.5790   -0.3340 C   0  0  0  0  0  0  0  0  0  0  0  0
    3.2820   -4.0800   -0.1710 C   0  0  0  0  0  0  0  0  0  0  0  0
    3.8950   -1.6070    0.0870 N   0  0  0  0  0  0  0  0  0  0  0  0
    3.4240   -0.3910   -0.2110 C   0  0  0  0  0  0  0  0  0  0  0  0
    4.1130    0.8380    0.1110 C   0  0  0  0  0  0  0  0  0  0  0  0
    3.4510    1.8620    0.3300 O   0  0  0  0  0  0  0  0  0  0  0  0
    5.5740    0.9270    0.1670 C   0  0  0  0  0  0  0  0  0  0  0  0
    6.2220    1.5230    1.2370 C   0  0  0  0  0  0  0  0  0  0  0  0
    5.4220    2.0970    2.3770 C   0  0  0  0  0  0  0  0  0  0  0  0
    7.5980    1.6190    1.2810 C   0  0  0  0  0  0  0  0  0  0  0  0
    8.3720    1.1210    0.2550 C   0  0  0  0  0  0  0  0  0  0  0  0
    7.7210    0.5210   -0.8170 C   0  0  0  0  0  0  0  0  0  0  0  0
    6.3380    0.4260   -0.8590 C   0  0  0  0  0  0  0  0  0  0  0  0
    5.7080   -0.2270   -2.0590 C   0  0  0  0  0  0  0  0  0  0  0  0
   -4.5470    0.6540    1.4440 C   0  0  0  0  0  0  0  0  0  0  0  0
   -5.8150    0.8680    0.9200 C   0  0  0  0  0  0  0  0  0  0  0  0
   -6.5350    1.9850    1.2410 O   0  0  0  0  0  0  0  0  0  0  0  0
   -6.0860    2.9910    2.0850 C   0  0  0  0  0  0  0  0  0  0  0  0
  1  2  1  0
  2  3  1  0
  3  4  1  0
  4  5  2  0
  4 31  1  0
  5  6  1  0
  6  7  2  0
  7  8  1  0
  7 30  1  0
  8  9  1  0
  9 10  2  0
  9 11  1  0
 11 12  1  0
 12 13  1  0
 13 14  1  0
 14 15  1  0
 14 19  2  0
 15 16  2  0
 16 17  1  0
 16 18  1  0
 18 19  1  0
 19 20  1  0
 20 21  2  0
 20 22  1  0
 22 23  2  0
 22 28  1  0
 23 24  1  0
 23 25  1  0
 25 26  2  0
 26 27  1  0
 27 28  2  0
 28 29  1  0
 30 31  2  0
 31 32  1  0
 32 33  1  0
M  END
