
     RDKit          3D

  6  6  0  0  0  0  0  0  0  0999 V2000
    2.0020   -1.7730   -0.2910 O   0  0  0  0  0  0  0  0  0  0  0  0
    1.0180   -1.0150   -0.0900 C   0  0  0  0  0  0  0  0  0  0  0  0
    0.9690    0.4400    0.1920 C   0  0  0  0  0  0  0  0  0  0  0  0
   -0.4320    0.8430   -0.2660 C   0  0  0  0  0  0  0  0  0  0  0  0
   -1.2030   -0.4150    0.0680 C   0  0  0  0  0  0  0  0  0  0  0  0
   -0.2850   -1.4930   -0.1070 O   0  0  0  0  0  0  0  0  0  0  0  0
  1  2  2  0
  2  3  1  0
  2  6  1  0
  3  4  1  0
  4  5  1  0
  5  6  1  0
M  END
