
     RDKit          3D

 12 13  0  0  0  0  0  0  0  0999 V2000
   -3.4360    0.7820    0.3560 C   0  0  0  0  0  0  0  0  0  0  0  0
   -2.6260    0.5570   -0.9060 C   0  0  0  0  0  0  0  0  0  0  0  0
   -1.4730   -0.2500   -0.5410 N   0  0  0  0  0  0  0  0  0  0  0  0
   -1.3800   -1.6280   -0.1560 C   0  0  0  0  0  0  0  0  0  0  0  0
   -0.2020   -1.6710    0.7630 C   0  0  0  0  0  0  0  0  0  0  0  0
    0.6790   -0.6450    0.2580 N   0  0  0  0  0  0  0  0  0  0  0  0
    2.1280   -0.4440    0.4200 C   0  0  0  0  0  0  0  0  0  0  0  0
    2.5220    0.8410   -0.1750 C   0  0  0  0  0  0  0  0  0  0  0  0
    3.8820    1.2510   -0.0470 N   0  0  0  0  0  0  0  0  0  0  0  0
    1.7440    1.6560   -0.8050 N   0  0  0  0  0  0  0  0  0  0  0  0
    0.4010    1.3300   -0.9520 N   0  0  0  0  0  0  0  0  0  0  0  0
   -0.1230    0.2440   -0.4810 C   0  0  0  0  0  0  0  0  0  0  0  0
  1  2  1  0
  2  3  1  0
  3  4  1  0
  3 12  1  0
  4  5  1  0
  5  6  1  0
  6  7  1  0
  6 12  1  0
  7  8  1  0
  8  9  1  0
  8 10  2  0
 10 11  1  0
 11 12  2  0
M  CHG  1   9   1
M  END
