
     RDKit          3D

 13 14  0  0  0  0  0  0  0  0999 V2000
    3.7830    0.7390    0.9750 O   0  0  0  0  0  0  0  0  0  0  0  0
    2.7420    0.4530    0.2910 C   0  0  0  0  0  0  0  0  0  0  0  0
    2.5580   -0.9690   -0.0630 C   0  0  0  0  0  0  0  0  0  0  0  0
    1.0890   -1.6860    0.6900 S   0  0  0  0  0  0  0  0  0  0  0  0
   -0.3850   -0.7580    0.2880 C   0  0  0  0  0  0  0  0  0  0  0  0
   -0.5220    0.4930   -0.1210 C   0  0  0  0  0  0  0  0  0  0  0  0
   -1.8490    0.9780   -0.3710 N   0  0  0  0  0  0  0  0  0  0  0  0
   -2.9560    0.1470   -0.1860 N   0  0  0  0  0  0  0  0  0  0  0  0
   -2.7550   -1.1840    0.2530 C   0  0  0  0  0  0  0  0  0  0  0  0
   -1.5390   -1.6450    0.4870 C   0  0  0  0  0  0  0  0  0  0  0  0
    0.4990    1.5100   -0.3710 C   0  0  0  0  0  0  0  0  0  0  0  0
    0.0830    2.5410   -0.9740 O   0  0  0  0  0  0  0  0  0  0  0  0
    1.8830    1.5320   -0.0480 N   0  0  0  0  0  0  0  0  0  0  0  0
  1  2  2  0
  2  3  1  0
  2 13  1  0
  3  4  1  0
  4  5  1  0
  5  6  2  0
  5 10  1  0
  6  7  1  0
  6 11  1  0
  7  8  1  0
  8  9  1  0
  9 10  2  0
 11 12  2  0
 11 13  1  0
M  END
