
     RDKit          3D

 13 13  0  0  0  0  0  0  0  0999 V2000
   -0.0910   -0.1220   -1.9200 C   0  0  0  0  0  0  0  0  0  0  0  0
   -0.9810   -0.1880   -0.7420 C   0  0  0  0  0  0  0  0  0  0  0  0
   -2.3040    0.0800   -0.9110 N   0  0  0  0  0  0  0  0  0  0  0  0
   -3.1110    0.0190    0.1610 C   0  0  0  0  0  0  0  0  0  0  0  0
   -4.3360    0.2520    0.0890 O   0  0  0  0  0  0  0  0  0  0  0  0
   -2.6080   -0.3030    1.3770 N   0  0  0  0  0  0  0  0  0  0  0  0
   -1.3100   -0.5710    1.5700 C   0  0  0  0  0  0  0  0  0  0  0  0
   -0.8110   -0.8720    2.6790 O   0  0  0  0  0  0  0  0  0  0  0  0
   -0.4550   -0.5170    0.4900 C   0  0  0  0  0  0  0  0  0  0  0  0
    0.9370   -0.7860    0.5980 N   0  0  0  0  0  0  0  0  0  0  0  0
    1.9170    0.1730    0.8710 C   0  0  0  0  0  0  0  0  0  0  0  0
    2.9120    0.3330    0.0170 C   0  0  0  0  0  0  0  0  0  0  0  0
    4.2080    1.5490    0.3050 S   0  0  0  0  0  0  0  0  0  0  0  0
  1  2  1  0
  2  3  1  0
  2  9  2  0
  3  4  1  0
  4  5  2  0
  4  6  1  0
  6  7  1  0
  7  8  2  0
  7  9  1  0
  9 10  1  0
 10 11  1  0
 11 12  2  3
 12 13  1  0
M  END
