
     RDKit          3D

 13 13  0  0  0  0  0  0  0  0999 V2000
   -3.9040    0.2520    1.2180 C   0  0  0  0  0  0  0  0  0  0  0  0
   -2.8340    0.0800    0.4230 C   0  0  0  0  0  0  0  0  0  0  0  0
   -2.9840   -0.7080   -0.8330 C   0  0  0  0  0  0  0  0  0  0  0  0
   -1.5940    0.6620    0.8320 C   0  0  0  0  0  0  0  0  0  0  0  0
   -0.4500    0.6090    0.2000 C   0  0  0  0  0  0  0  0  0  0  0  0
    0.0200    0.0410   -0.9960 N   0  0  0  0  0  0  0  0  0  0  0  0
    1.3530   -0.1140   -1.1340 N   0  0  0  0  0  0  0  0  0  0  0  0
    2.1170    0.2040   -0.2990 C   0  0  0  0  0  0  0  0  0  0  0  0
    3.4870    0.0200   -0.4480 N   0  0  0  0  0  0  0  0  0  0  0  0
    4.3280   -0.0500    0.6820 C   0  0  0  0  0  0  0  0  0  0  0  0
    3.6970    0.0070    1.7620 O   0  0  0  0  0  0  0  0  0  0  0  0
    5.6920   -0.1760    0.5270 O   0  0  0  0  0  0  0  0  0  0  0  0
    1.1150    1.3400    0.7490 S   0  0  0  0  0  0  0  0  0  0  0  0
  1  2  2  0
  2  3  1  0
  2  4  1  0
  4  5  2  3
  5  6  1  0
  5 13  1  0
  6  7  1  0
  7  8  2  0
  8  9  1  0
  8 13  1  0
  9 10  1  0
 10 11  2  0
 10 12  1  0
M  END
