
     RDKit          3D

 20 21  0  0  0  0  0  0  0  0999 V2000
   -6.9930    0.3050    0.4360 C   0  0  0  0  0  0  0  0  0  0  0  0
   -5.6250    0.6260    0.3010 O   0  0  0  0  0  0  0  0  0  0  0  0
   -4.6230   -0.3060    0.3910 C   0  0  0  0  0  0  0  0  0  0  0  0
   -4.8750   -1.5070    0.6010 O   0  0  0  0  0  0  0  0  0  0  0  0
   -3.2240    0.1310    0.2350 C   0  0  0  0  0  0  0  0  0  0  0  0
   -2.0810   -0.5950    0.2840 C   0  0  0  0  0  0  0  0  0  0  0  0
   -0.9070    0.0040    0.1150 C   0  0  0  0  0  0  0  0  0  0  0  0
    0.4140   -0.6780    0.1480 C   0  0  0  0  0  0  0  0  0  0  0  0
    1.5840    0.0460   -0.0580 C   0  0  0  0  0  0  0  0  0  0  0  0
    2.8360   -0.5180   -0.0400 C   0  0  0  0  0  0  0  0  0  0  0  0
    4.0460    0.1570   -0.2230 N   0  0  0  0  0  0  0  0  0  0  0  0
    4.1880    1.5430   -0.1930 C   0  0  0  0  0  0  0  0  0  0  0  0
    5.5510    2.1260   -0.4120 C   0  0  0  0  0  0  0  0  0  0  0  0
    3.2630    2.3460    0.0030 O   0  0  0  0  0  0  0  0  0  0  0  0
    2.9100   -1.8940    0.2000 C   0  0  0  0  0  0  0  0  0  0  0  0
    1.7670   -2.5880    0.3990 C   0  0  0  0  0  0  0  0  0  0  0  0
    0.5600   -1.9730    0.3690 N   0  0  0  0  0  0  0  0  0  0  0  0
   -0.5130   -2.7880    0.5870 O   0  0  0  0  0  0  0  0  0  0  0  0
   -0.9210    1.3790   -0.1070 C   0  0  0  0  0  0  0  0  0  0  0  0
   -2.6730    1.7700   -0.0640 S   0  0  0  0  0  0  0  0  0  0  0  0
  1  2  1  0
  2  3  1  0
  3  4  2  0
  3  5  1  0
  5  6  2  0
  5 20  1  0
  6  7  1  0
  7  8  1  0
  7 19  2  0
  8  9  2  0
  8 17  1  0
  9 10  1  0
 10 11  1  0
 10 15  2  0
 11 12  1  0
 12 13  1  0
 12 14  2  0
 15 16  1  0
 16 17  2  0
 17 18  1  0
 19 20  1  0
M  CHG  2  17   1  18  -1
M  END
