
     RDKit          3D

 20 21  0  0  0  0  0  0  0  0999 V2000
    3.1200    0.7130    1.0220 C   0  0  0  0  0  0  0  0  0  0  0  0
    2.6790   -0.0130   -0.2450 C   0  0  0  0  0  0  0  0  0  0  0  0
    3.5280   -0.6690   -1.0210 C   0  0  0  0  0  0  0  0  0  0  0  0
    4.9630   -0.7900   -0.7980 N   0  0  0  0  0  0  0  0  0  0  0  0
    5.6370    0.0980   -0.2740 O   0  0  0  0  0  0  0  0  0  0  0  0
    5.5520   -1.9480   -1.2100 O   0  0  0  0  0  0  0  0  0  0  0  0
    2.9660   -1.2970   -2.1610 C   0  0  0  0  0  0  0  0  0  0  0  0
    1.2370   -0.9300   -2.0910 S   0  0  0  0  0  0  0  0  0  0  0  0
    1.3340    0.0320   -0.5650 C   0  0  0  0  0  0  0  0  0  0  0  0
    0.2590    0.6930    0.1090 C   0  0  0  0  0  0  0  0  0  0  0  0
    0.5540    1.7330    0.7910 O   0  0  0  0  0  0  0  0  0  0  0  0
   -1.1160    0.2770    0.0770 C   0  0  0  0  0  0  0  0  0  0  0  0
   -1.6190   -0.8300   -0.5740 C   0  0  0  0  0  0  0  0  0  0  0  0
   -2.9690   -1.1780   -0.5550 C   0  0  0  0  0  0  0  0  0  0  0  0
   -3.8460   -0.3930    0.1410 C   0  0  0  0  0  0  0  0  0  0  0  0
   -5.2660   -0.7070    0.1950 C   0  0  0  0  0  0  0  0  0  0  0  0
   -5.6790   -1.7150   -0.4150 O   0  0  0  0  0  0  0  0  0  0  0  0
   -3.3930    0.7420    0.8210 C   0  0  0  0  0  0  0  0  0  0  0  0
   -2.0530    1.0380    0.7670 C   0  0  0  0  0  0  0  0  0  0  0  0
   -1.6250    2.1920    1.4650 N   0  0  0  0  0  0  0  0  0  0  0  0
  1  2  1  0
  2  3  1  0
  2  9  2  0
  3  4  1  0
  3  7  2  0
  4  5  2  0
  4  6  1  0
  7  8  1  0
  8  9  1  0
  9 10  1  0
 10 11  2  0
 10 12  1  0
 12 13  2  0
 12 19  1  0
 13 14  1  0
 14 15  2  0
 15 16  1  0
 15 18  1  0
 16 17  2  0
 18 19  2  0
 19 20  1  0
M  CHG  2   4   1   6  -1
M  END
