
     RDKit          3D

 20 21  0  0  0  0  0  0  0  0999 V2000
   -0.6490   -0.2480   -0.7140 O   0  0  0  0  0  0  0  0  0  0  0  0
   -0.4290    0.2510    0.4110 C   0  0  0  0  0  0  0  0  0  0  0  0
   -1.5900    0.7570    1.2420 C   0  0  0  0  0  0  0  0  0  0  0  0
   -2.8680    0.5180    0.4830 C   0  0  0  0  0  0  0  0  0  0  0  0
   -3.8040   -0.2310    1.0010 C   0  0  0  0  0  0  0  0  0  0  0  0
   -5.1150   -0.5930    0.4420 C   0  0  0  0  0  0  0  0  0  0  0  0
   -5.3620    0.1000   -1.1860 S   0  0  0  0  0  0  0  0  0  0  0  0
   -3.9400    1.0620   -1.6240 C   0  0  0  0  0  0  0  0  0  0  0  0
   -2.9290    1.1640   -0.8190 C   0  0  0  0  0  0  0  0  0  0  0  0
    0.8940    0.3330    0.8900 N   0  0  0  0  0  0  0  0  0  0  0  0
    2.0680   -0.0880    0.2340 C   0  0  0  0  0  0  0  0  0  0  0  0
    2.1170   -0.4860   -1.0960 C   0  0  0  0  0  0  0  0  0  0  0  0
    3.3030   -0.8490   -1.7430 C   0  0  0  0  0  0  0  0  0  0  0  0
    3.3110   -1.2410   -3.0740 O   0  0  0  0  0  0  0  0  0  0  0  0
    4.4940   -0.8230   -1.0630 C   0  0  0  0  0  0  0  0  0  0  0  0
    4.4780   -0.4340    0.2560 C   0  0  0  0  0  0  0  0  0  0  0  0
    3.2710   -0.0690    0.8980 C   0  0  0  0  0  0  0  0  0  0  0  0
    3.3370    0.3180    2.2620 N   0  0  0  0  0  0  0  0  0  0  0  0
    2.5260    0.1040    3.1530 O   0  0  0  0  0  0  0  0  0  0  0  0
    4.4980    0.9990    2.6660 O   0  0  0  0  0  0  0  0  0  0  0  0
  1  2  2  0
  2  3  1  0
  2 10  1  0
  3  4  1  0
  4  5  2  0
  4  9  1  0
  5  6  1  0
  6  7  1  0
  7  8  1  0
  8  9  2  0
 10 11  1  0
 11 12  2  0
 11 17  1  0
 12 13  1  0
 13 14  1  0
 13 15  2  0
 15 16  1  0
 16 17  2  0
 17 18  1  0
 18 19  2  0
 18 20  1  0
M  CHG  2  18   1  20  -1
M  END
