
     RDKit          3D

 20 21  0  0  0  0  0  0  0  0999 V2000
   -0.2640   -4.2710   -0.6700 C   0  0  0  0  0  0  0  0  0  0  0  0
   -0.4350   -2.9260   -0.0310 C   0  0  0  0  0  0  0  0  0  0  0  0
   -0.4130   -1.8930   -1.0240 O   0  0  0  0  0  0  0  0  0  0  0  0
   -0.5620   -0.5760   -0.5760 C   0  0  0  0  0  0  0  0  0  0  0  0
   -1.7910    0.0210   -0.4620 C   0  0  0  0  0  0  0  0  0  0  0  0
   -2.9210   -0.6920   -0.7970 O   0  0  0  0  0  0  0  0  0  0  0  0
   -1.9460    1.3520   -0.0090 C   0  0  0  0  0  0  0  0  0  0  0  0
   -3.3190    1.8470    0.0580 C   0  0  0  0  0  0  0  0  0  0  0  0
   -3.5770    3.1510    0.4930 N   0  0  0  0  0  0  0  0  0  0  0  0
   -2.7500    3.9690    0.8420 O   0  0  0  0  0  0  0  0  0  0  0  0
   -4.9080    3.5670    0.5360 O   0  0  0  0  0  0  0  0  0  0  0  0
   -0.7900    2.0070    0.3080 C   0  0  0  0  0  0  0  0  0  0  0  0
    0.4660    1.3850    0.1880 C   0  0  0  0  0  0  0  0  0  0  0  0
    1.5740    2.1460    0.5380 C   0  0  0  0  0  0  0  0  0  0  0  0
    2.8400    1.5920    0.4420 C   0  0  0  0  0  0  0  0  0  0  0  0
    4.2750    2.5630    0.8910 S   0  0  0  0  0  0  0  0  0  0  0  0
    2.9400    0.2890   -0.0050 C   0  0  0  0  0  0  0  0  0  0  0  0
    4.2530   -0.2670   -0.0980 N   0  0  0  0  0  0  0  0  0  0  0  0
    1.8400   -0.4630   -0.3520 C   0  0  0  0  0  0  0  0  0  0  0  0
    0.5920    0.0910   -0.2540 C   0  0  0  0  0  0  0  0  0  0  0  0
  1  2  1  0
  2  3  1  0
  3  4  1  0
  4  5  2  0
  4 20  1  0
  5  6  1  0
  5  7  1  0
  7  8  1  0
  7 12  2  0
  8  9  1  0
  9 10  2  0
  9 11  1  0
 12 13  1  0
 13 14  2  0
 13 20  1  0
 14 15  1  0
 15 16  1  0
 15 17  2  0
 17 18  1  0
 17 19  1  0
 19 20  2  0
M  CHG  2   9   1  11  -1
M  END
