
     RDKit          3D

 32 34  0  0  0  0  0  0  0  0999 V2000
   -7.9990   -1.4120    1.7080 C   0  0  0  0  0  0  0  0  0  0  0  0
   -7.7540   -0.0090    1.1970 C   0  0  2  0  0  0  0  0  0  0  0  0
   -6.7760    0.0460    0.1480 N   0  0  0  0  0  0  0  0  0  0  0  0
   -5.8380    0.8670    0.4370 C   0  0  0  0  0  0  0  0  0  0  0  0
   -4.6400    1.3120   -0.2050 C   0  0  0  0  0  0  0  0  0  0  0  0
   -3.8280    2.0720    0.1150 O   0  0  0  0  0  0  0  0  0  0  0  0
   -4.3990    0.5520   -1.7270 N   0  0  0  0  0  0  0  0  0  0  0  0
   -3.1540    1.2210   -2.0430 C   0  0  0  0  0  0  0  0  0  0  0  0
   -2.5210    2.0400   -1.5040 O   0  0  0  0  0  0  0  0  0  0  0  0
   -2.6640    0.6730   -3.3530 N   0  0  0  0  0  0  0  0  0  0  0  0
   -1.4350    1.1590   -3.8320 C   0  0  0  0  0  0  0  0  0  0  0  0
   -0.1940    0.7840   -3.1870 C   0  0  0  0  0  0  0  0  0  0  0  0
    0.0900    0.8170   -1.7850 C   0  0  0  0  0  0  0  0  0  0  0  0
   -0.6240    0.0890   -1.0050 O   0  0  0  0  0  0  0  0  0  0  0  0
    1.1000    1.5960   -1.1570 N   0  0  0  0  0  0  0  0  0  0  0  0
    1.3040    1.5240    0.2570 C   0  0  0  0  0  0  0  0  0  0  0  0
    1.9390    0.2390    0.6190 C   0  0  0  0  0  0  0  0  0  0  0  0
    3.3170    0.1560    0.6400 N   0  0  0  0  0  0  0  0  0  0  0  0
    3.6970   -1.0780    0.9930 C   0  0  0  0  0  0  0  0  0  0  0  0
    5.1090   -1.4810    1.1040 C   0  0  0  0  0  0  0  0  0  0  0  0
    5.5660   -2.7410    1.3840 C   0  0  0  0  0  0  0  0  0  0  0  0
    6.9660   -2.6690    1.3880 C   0  0  0  0  0  0  0  0  0  0  0  0
    7.2910   -1.3680    1.1120 C   0  0  0  0  0  0  0  0  0  0  0  0
    8.6560   -0.7280    0.9880 C   0  0  0  0  0  0  0  0  0  0  0  0
    9.0650   -0.6210   -0.4770 C   0  0  0  0  0  0  0  0  0  0  0  0
   10.2980   -0.0180   -0.5510 O   0  0  0  0  0  0  0  0  0  0  0  0
    6.1520   -0.7400    0.9600 O   0  0  0  0  0  0  0  0  0  0  0  0
    2.5750   -1.7640    1.1890 N   0  0  0  0  0  0  0  0  0  0  0  0
    1.5140   -0.9590    0.9620 N   0  0  0  0  0  0  0  0  0  0  0  0
   -6.1660    1.4290    1.7890 C   0  0  0  0  0  0  0  0  0  0  0  0
   -7.2650    0.9190    2.2160 C   0  0  0  0  0  0  0  0  0  0  0  0
   -7.8920    1.1820    3.4180 O   0  0  0  0  0  0  0  0  0  0  0  0
  2  1  1  1
  2  3  1  0
  2 31  1  0
  3  4  2  0
  4  5  1  0
  4 30  1  0
  5  6  2  0
  5  7  1  0
  7  8  1  0
  8  9  2  0
  8 10  1  0
 10 11  1  0
 11 12  1  0
 12 13  1  0
 13 14  2  0
 13 15  1  0
 15 16  1  0
 16 17  1  0
 17 18  2  0
 17 29  1  0
 18 19  1  0
 19 20  1  0
 19 28  2  0
 20 21  2  0
 20 27  1  0
 21 22  1  0
 22 23  2  0
 23 24  1  0
 23 27  1  0
 24 25  1  0
 25 26  1  0
 28 29  1  0
 30 31  2  0
 31 32  1  0
M  CHG  1   3   1
M  END
