
     RDKit          3D

 27 30  0  0  0  0  0  0  0  0999 V2000
    5.0550    1.1510   -2.8080 C   0  0  0  0  0  0  0  0  0  0  0  0
    5.5690    0.7040   -1.6760 C   0  0  0  0  0  0  0  0  0  0  0  0
    4.7810    0.2800   -0.5240 C   0  0  0  0  0  0  0  0  0  0  0  0
    3.4030    0.3160   -0.5310 C   0  0  0  0  0  0  0  0  0  0  0  0
    2.6270   -0.0740    0.5330 C   0  0  0  0  0  0  0  0  0  0  0  0
    1.2250   -0.0530    0.5850 N   0  0  0  0  0  0  0  0  0  0  0  0
    0.3230    0.4420   -0.3600 C   0  0  0  0  0  0  0  0  0  0  0  0
    0.8090    0.9800   -1.4300 O   0  0  0  0  0  0  0  0  0  0  0  0
   -1.1240    0.4240   -0.2670 C   0  0  0  0  0  0  0  0  0  0  0  0
   -1.9700    1.3310   -0.8300 N   0  0  0  0  0  0  0  0  0  0  0  0
   -3.2210    1.0250   -0.6110 N   0  0  0  0  0  0  0  0  0  0  0  0
   -4.4040    1.7280   -1.0360 C   0  0  0  0  0  0  0  0  0  0  0  0
   -4.3480    2.8420   -1.7460 C   0  0  0  0  0  0  0  0  0  0  0  0
   -5.7560    3.2800   -1.9980 C   0  0  0  0  0  0  0  0  0  0  0  0
   -6.5500    2.2310   -1.3150 C   0  0  0  0  0  0  0  0  0  0  0  0
   -5.7440    1.3540   -0.7730 N   0  0  0  0  0  0  0  0  0  0  0  0
   -3.2170   -0.1150    0.1150 C   0  0  0  0  0  0  0  0  0  0  0  0
   -4.0240   -1.0110    0.6860 N   0  0  0  0  0  0  0  0  0  0  0  0
   -3.3350   -1.9890    1.2820 C   0  0  0  0  0  0  0  0  0  0  0  0
   -3.8710   -3.1670    2.0240 C   0  0  0  0  0  0  0  0  0  0  0  0
   -1.9920   -1.6900    1.0740 C   0  0  0  0  0  0  0  0  0  0  0  0
   -0.8670   -2.5350    1.5360 C   0  0  0  0  0  0  0  0  0  0  0  0
   -1.8970   -0.5250    0.3510 C   0  0  0  0  0  0  0  0  0  0  0  0
    3.3420   -0.5200    1.6500 C   0  0  0  0  0  0  0  0  0  0  0  0
    4.7150   -0.5710    1.6960 C   0  0  0  0  0  0  0  0  0  0  0  0
    5.4420   -0.1620    0.5870 C   0  0  0  0  0  0  0  0  0  0  0  0
    6.9060   -0.2110    0.6240 C   0  0  0  0  0  0  0  0  0  0  0  0
  1  2  2  0
  2  3  1  0
  3  4  2  0
  3 26  1  0
  4  5  1  0
  5  6  1  0
  5 24  2  0
  6  7  1  0
  7  8  2  0
  7  9  1  0
  9 10  2  0
  9 23  1  0
 10 11  1  0
 11 12  1  0
 11 17  1  0
 12 13  2  0
 12 16  1  0
 13 14  1  0
 14 15  1  0
 15 16  2  0
 17 18  1  0
 17 23  2  0
 18 19  1  0
 19 20  1  0
 19 21  2  0
 21 22  1  0
 21 23  1  0
 24 25  1  0
 25 26  2  0
 26 27  1  0
M  END
