
     RDKit          3D

 32 34  0  0  0  0  0  0  0  0999 V2000
   -1.2680   -3.2580    1.9610 C   0  0  0  0  0  0  0  0  0  0  0  0
   -1.2960   -2.1760    1.2710 O   0  0  0  0  0  0  0  0  0  0  0  0
   -1.3230   -1.0800    0.5600 C   0  0  0  0  0  0  0  0  0  0  0  0
   -0.2360   -0.3220    0.1310 C   0  0  0  0  0  0  0  0  0  0  0  0
    1.1380   -0.5920    0.4420 C   0  0  0  0  0  0  0  0  0  0  0  0
    1.6550   -0.0210    1.4700 O   0  0  0  0  0  0  0  0  0  0  0  0
    2.0010   -1.4330   -0.2740 N   0  0  0  0  0  0  0  0  0  0  0  0
    3.3430   -1.6590    0.0840 N   0  0  0  0  0  0  0  0  0  0  0  0
    4.3410   -0.6420   -0.0680 C   0  0  0  0  0  0  0  0  0  0  0  0
    3.9540    0.4560   -0.5330 O   0  0  0  0  0  0  0  0  0  0  0  0
    5.6940   -0.8160    0.2710 N   0  0  0  0  0  0  0  0  0  0  0  0
    6.6870    0.1850    0.1290 C   0  0  0  0  0  0  0  0  0  0  0  0
    6.4180    1.5290    0.0880 C   0  0  0  0  0  0  0  0  0  0  0  0
    7.4930    2.3890   -0.1150 C   0  0  0  0  0  0  0  0  0  0  0  0
    8.7840    1.9360   -0.2710 C   0  0  0  0  0  0  0  0  0  0  0  0
    9.0630    0.5710   -0.2290 C   0  0  0  0  0  0  0  0  0  0  0  0
   10.4200    0.0910   -0.3730 C   0  0  0  0  0  0  0  0  0  0  0  0
   10.6300   -1.1610   -0.3380 O   0  0  0  0  0  0  0  0  0  0  0  0
   11.4870    0.9430   -0.5450 O   0  0  0  0  0  0  0  0  0  0  0  0
    8.0130   -0.2720   -0.0310 C   0  0  0  0  0  0  0  0  0  0  0  0
   -0.7380    0.7200   -0.5580 N   0  0  0  0  0  0  0  0  0  0  0  0
   -2.0570    0.6520   -0.5760 N   0  0  0  0  0  0  0  0  0  0  0  0
   -2.4930   -0.4380    0.0960 C   0  0  0  0  0  0  0  0  0  0  0  0
   -3.8600   -0.8840    0.1380 C   0  0  2  0  0  0  0  0  0  0  0  0
   -4.7270   -0.1040    1.1240 C   0  0  0  0  0  0  0  0  0  0  0  0
   -6.0400    0.0720    0.5550 N   0  0  0  0  0  0  0  0  0  0  0  0
   -6.2350    1.4490    0.4650 C   0  0  0  0  0  0  0  0  0  0  0  0
   -7.4870    2.0590   -0.0160 C   0  0  0  0  0  0  0  0  0  0  0  0
   -7.2440    3.5340    0.0960 N   0  0  0  0  0  0  0  0  0  0  0  0
   -6.2770   -0.8260   -0.4910 C   0  0  0  0  0  0  0  0  0  0  0  0
   -5.5730   -2.1510   -0.4820 C   0  0  0  0  0  0  0  0  0  0  0  0
   -4.2870   -2.1420    0.0980 O   0  0  0  0  0  0  0  0  0  0  0  0
  1  2  1  0
  2  3  1  0
  3  4  1  0
  3 23  2  0
  4  5  1  0
  4 21  2  0
  5  6  2  0
  5  7  1  0
  7  8  1  0
  8  9  1  0
  9 10  2  0
  9 11  1  0
 11 12  1  0
 12 13  2  0
 12 20  1  0
 13 14  1  0
 14 15  2  0
 15 16  1  0
 16 17  1  0
 16 20  2  0
 17 18  2  0
 17 19  1  0
 21 22  1  0
 22 23  1  0
 24 23  1  1
 24 25  1  0
 24 32  1  0
 25 26  1  0
 26 27  1  0
 26 30  1  0
 27 28  1  0
 28 29  1  0
 30 31  1  0
 31 32  1  0
M  CHG  1  29   1
M  END
