
     RDKit          3D

 22 22  0  0  0  0  0  0  0  0999 V2000
    4.9520    0.7960   -3.1150 N   0  0  0  0  0  0  0  0  0  0  0  0
    4.1500    0.1360   -2.1620 C   0  0  0  0  0  0  0  0  0  0  0  0
    4.5120   -1.0190   -1.7890 O   0  0  0  0  0  0  0  0  0  0  0  0
    2.9250    0.7470   -1.5990 C   0  0  2  0  0  0  0  0  0  0  0  0
    3.2640    2.0490   -0.8600 C   0  0  0  0  0  0  0  0  0  0  0  0
    2.1100    2.6190   -0.3370 O   0  0  0  0  0  0  0  0  0  0  0  0
    2.3090   -0.1680   -0.6410 N   0  0  0  0  0  0  0  0  0  0  0  0
    0.9790   -0.6290   -0.8220 C   0  0  0  0  0  0  0  0  0  0  0  0
    0.3350   -0.2390   -1.8200 O   0  0  0  0  0  0  0  0  0  0  0  0
    0.3930   -1.5050    0.0970 N   0  0  0  0  0  0  0  0  0  0  0  0
   -1.0080   -2.0150   -0.0580 C   0  0  1  0  0  0  0  0  0  0  0  0
   -0.7520   -3.5170   -0.4000 C   0  0  0  0  0  0  0  0  0  0  0  0
   -1.9400   -4.1820   -0.5850 O   0  0  0  0  0  0  0  0  0  0  0  0
   -1.6020   -1.8450    1.0850 O   0  0  0  0  0  0  0  0  0  0  0  0
   -2.6090   -1.1780    1.5560 C   0  0  0  0  0  0  0  0  0  0  0  0
   -2.6860    0.2740    1.6100 C   0  0  0  0  0  0  0  0  0  0  0  0
   -2.8120    0.8930    2.7960 C   0  0  0  0  0  0  0  0  0  0  0  0
   -2.9000    2.3420    2.9890 C   0  0  0  0  0  0  0  0  0  0  0  0
   -2.9140    3.0480    1.7950 O   0  0  0  0  0  0  0  0  0  0  0  0
   -2.7910    2.4500    0.5810 C   0  0  0  0  0  0  0  0  0  0  0  0
   -2.6790    1.1150    0.4490 C   0  0  0  0  0  0  0  0  0  0  0  0
   -2.5650    0.6530   -0.8530 O   0  0  0  0  0  0  0  0  0  0  0  0
  1  2  1  0
  2  3  2  0
  2  4  1  0
  4  5  1  1
  4  7  1  0
  5  6  1  0
  7  8  1  0
  8  9  2  0
  8 10  1  0
 10 11  1  0
 11 12  1  1
 11 14  1  0
 12 13  1  0
 14 15  1  0
 15 16  1  0
 16 17  2  0
 16 21  1  0
 17 18  1  0
 18 19  1  0
 19 20  1  0
 20 21  2  0
 21 22  1  0
M  END
