
     RDKit          3D

 10 11  0  0  0  0  0  0  0  0999 V2000
   -0.1790    2.1250    0.1960 N   0  0  0  0  0  0  0  0  0  0  0  0
   -0.6340    0.9430    0.0210 C   0  0  0  0  0  0  0  0  0  0  0  0
   -2.0060    0.4920   -0.1860 C   0  0  0  0  0  0  0  0  0  0  0  0
   -2.0020   -0.8260   -0.3220 C   0  0  0  0  0  0  0  0  0  0  0  0
   -0.6170   -1.2650   -0.2060 C   0  0  0  0  0  0  0  0  0  0  0  0
    0.1820   -2.3680   -0.2270 N   0  0  0  0  0  0  0  0  0  0  0  0
    1.4340   -1.9880   -0.0420 N   0  0  0  0  0  0  0  0  0  0  0  0
    1.4800   -0.6530    0.1020 C   0  0  0  0  0  0  0  0  0  0  0  0
    2.6180    0.1670    0.3200 N   0  0  0  0  0  0  0  0  0  0  0  0
    0.2050   -0.2200   -0.0020 N   0  0  0  0  0  0  0  0  0  0  0  0
  1  2  2  0
  2  3  1  0
  2 10  1  0
  3  4  2  0
  4  5  1  0
  5  6  2  0
  5 10  1  0
  6  7  1  0
  7  8  2  0
  8  9  1  0
  8 10  1  0
M  END
