
     RDKit          3D

 21 21  0  0  0  0  0  0  0  0999 V2000
    4.5080   -1.7420   -0.7710 C   0  0  0  0  0  0  0  0  0  0  0  0
    3.5510   -1.6360    0.2310 O   0  0  0  0  0  0  0  0  0  0  0  0
    3.8030   -0.6890    1.1820 C   0  0  0  0  0  0  0  0  0  0  0  0
    3.9050    0.6760    0.6140 C   0  0  0  0  0  0  0  0  0  0  0  0
    2.4590    1.2270   -0.2610 S   0  0  0  0  0  0  0  0  0  0  0  0
    0.9400    1.2420    0.7650 C   0  0  2  0  0  0  0  0  0  0  0  0
    0.0610    0.1420    0.2730 C   0  0  0  0  0  0  0  0  0  0  0  0
   -1.1530    0.0020    0.9140 O   0  0  0  0  0  0  0  0  0  0  0  0
   -2.0920   -0.9180    0.5050 C   0  0  0  0  0  0  0  0  0  0  0  0
   -2.4680   -1.9650    1.2400 C   0  0  0  0  0  0  0  0  0  0  0  0
   -3.4700   -2.9420    0.8030 C   0  0  1  0  0  0  0  0  0  0  0  0
   -4.5490   -3.0050    1.7350 O   0  0  0  0  0  0  0  0  0  0  0  0
   -4.0360   -2.7300   -0.4470 O   0  0  0  0  0  0  0  0  0  0  0  0
   -3.6800   -1.6720   -1.2290 C   0  0  0  0  0  0  0  0  0  0  0  0
   -4.2910   -1.4990   -2.4980 N   0  0  0  0  0  0  0  0  0  0  0  0
   -2.7690   -0.8160   -0.7980 C   0  0  0  0  0  0  0  0  0  0  0  0
   -2.3670    0.2870   -1.6370 N   0  0  0  0  0  0  0  0  0  0  0  0
    0.3910    2.6270    0.7410 C   0  0  1  0  0  0  0  0  0  0  0  0
    1.4490    3.4350    1.2760 O   0  0  0  0  0  0  0  0  0  0  0  0
    0.1850    3.0910   -0.6890 C   0  0  0  0  0  0  0  0  0  0  0  0
   -0.1270    4.4720   -0.6610 O   0  0  0  0  0  0  0  0  0  0  0  0
  1  2  1  0
  2  3  1  0
  3  4  1  0
  4  5  1  0
  5  6  1  0
  6  7  1  6
  6 18  1  0
  7  8  1  0
  8  9  1  0
  9 10  2  0
  9 16  1  0
 10 11  1  0
 11 12  1  1
 11 13  1  0
 13 14  1  0
 14 15  1  0
 14 16  2  0
 16 17  1  0
 18 19  1  6
 18 20  1  0
 20 21  1  0
M  END
