
     RDKit          3D

 10 11  0  0  0  0  0  0  0  0999 V2000
    2.1000   -0.7290    0.3420 N   0  0  0  0  0  0  0  0  0  0  0  0
    1.0100    0.1680    0.1660 C   0  0  0  0  0  0  0  0  0  0  0  0
    1.2360    1.5270    0.2100 C   0  0  0  0  0  0  0  0  0  0  0  0
    0.1870    2.3500    0.0400 N   0  0  0  0  0  0  0  0  0  0  0  0
   -1.0550    1.9070   -0.1670 N   0  0  0  0  0  0  0  0  0  0  0  0
   -1.3370    0.5970   -0.2190 C   0  0  0  0  0  0  0  0  0  0  0  0
   -2.4400   -0.1410   -0.4050 N   0  0  0  0  0  0  0  0  0  0  0  0
   -2.1430   -1.4320   -0.3620 N   0  0  0  0  0  0  0  0  0  0  0  0
   -0.8210   -1.5590   -0.1440 C   0  0  0  0  0  0  0  0  0  0  0  0
   -0.2970   -0.2880   -0.0520 C   0  0  0  0  0  0  0  0  0  0  0  0
  1  2  1  0
  2  3  2  0
  2 10  1  0
  3  4  1  0
  4  5  2  0
  5  6  1  0
  6  7  1  0
  6 10  2  0
  7  8  1  0
  8  9  2  0
  9 10  1  0
M  END
