
     RDKit          3D

 22 23  0  0  0  0  0  0  0  0999 V2000
    1.3430    1.0280   -1.7580 O   0  0  0  0  0  0  0  0  0  0  0  0
    1.2950    0.4480   -0.7040 C   0  0  0  0  0  0  0  0  0  0  0  0
    0.0120   -0.2830   -0.3860 N   0  0  0  0  0  0  0  0  0  0  0  0
   -0.9940   -0.2690   -1.3560 C   0  0  0  0  0  0  0  0  0  0  0  0
   -2.2000   -1.0340   -0.8040 C   0  0  2  0  0  0  0  0  0  0  0  0
   -1.8500   -2.3250   -0.4580 O   0  0  0  0  0  0  0  0  0  0  0  0
   -3.1940   -1.1110   -1.9750 C   0  0  0  0  0  0  0  0  0  0  0  0
   -4.6550   -1.9900   -1.3680 S   0  0  0  0  0  0  0  0  0  0  0  0
   -4.6350   -1.9600    0.4330 C   0  0  0  0  0  0  0  0  0  0  0  0
   -3.9940   -0.6980    0.8690 C   0  0  0  0  0  0  0  0  0  0  0  0
   -4.3500    0.1740    1.7940 O   0  0  0  0  0  0  0  0  0  0  0  0
   -3.5130    1.1550    1.8740 C   0  0  0  0  0  0  0  0  0  0  0  0
   -2.5260    0.9070    0.9220 C   0  0  0  0  0  0  0  0  0  0  0  0
   -1.4220    1.6890    0.6490 O   0  0  0  0  0  0  0  0  0  0  0  0
   -2.8420   -0.2870    0.2770 C   0  0  0  0  0  0  0  0  0  0  0  0
    2.1200    0.2240    0.3920 N   0  0  0  0  0  0  0  0  0  0  0  0
    3.3420    1.3600   -0.0770 C   0  0  0  0  0  0  0  0  0  0  0  0
    3.1410    1.9310   -1.0540 O   0  0  0  0  0  0  0  0  0  0  0  0
    4.4240    1.3950    0.8750 C   0  0  2  0  0  0  0  0  0  0  0  0
    5.1740    2.5670    0.5880 O   0  0  0  0  0  0  0  0  0  0  0  0
    5.3300    0.1950    0.6070 C   0  0  0  0  0  0  0  0  0  0  0  0
    4.6770   -0.9780    0.8810 O   0  0  0  0  0  0  0  0  0  0  0  0
  1  2  2  0
  2  3  1  0
  2 16  1  0
  3  4  1  0
  4  5  1  0
  5  6  1  1
  5  7  1  0
  5 15  1  0
  7  8  1  0
  8  9  1  0
  9 10  1  0
 10 11  1  0
 10 15  2  0
 11 12  1  0
 12 13  2  0
 13 14  1  0
 13 15  1  0
 16 17  1  0
 17 18  2  0
 17 19  1  0
 19 20  1  6
 19 21  1  0
 21 22  1  0
M  END
