
     RDKit          3D

 22 22  0  0  0  0  0  0  0  0999 V2000
    7.4680   -2.1690    1.0270 C   0  0  0  0  0  0  0  0  0  0  0  0
    7.3330   -0.5490    1.8060 S   0  0  0  0  0  0  0  0  0  0  0  0
    6.1800    0.5260    0.9530 C   0  0  0  0  0  0  0  0  0  0  0  0
    4.7540    0.0410    1.0380 C   0  0  0  0  0  0  0  0  0  0  0  0
    3.9090    0.9420    0.3390 O   0  0  0  0  0  0  0  0  0  0  0  0
    2.5460    0.7710    0.2420 C   0  0  0  0  0  0  0  0  0  0  0  0
    2.0700   -0.2490    0.8170 O   0  0  0  0  0  0  0  0  0  0  0  0
    1.6870    1.7020   -0.4790 C   0  0  0  0  0  0  0  0  0  0  0  0
    2.1370    2.7170   -1.0590 O   0  0  0  0  0  0  0  0  0  0  0  0
    0.2560    1.4680   -0.5430 N   0  0  0  0  0  0  0  0  0  0  0  0
   -0.5930    2.3780   -1.2510 C   0  0  0  0  0  0  0  0  0  0  0  0
   -2.0140    1.9600   -1.1910 C   0  0  0  0  0  0  0  0  0  0  0  0
   -2.8690    2.7210   -1.8070 O   0  0  0  0  0  0  0  0  0  0  0  0
   -2.5340    0.8410   -0.5480 N   0  0  0  0  0  0  0  0  0  0  0  0
   -3.9370    0.4620   -0.5120 C   0  0  0  0  0  0  0  0  0  0  0  0
   -4.9150    1.2050   -1.1440 C   0  0  0  0  0  0  0  0  0  0  0  0
   -6.4560    0.3560   -0.8230 S   0  0  0  0  0  0  0  0  0  0  0  0
   -5.6630   -0.9620    0.1550 C   0  0  0  0  0  0  0  0  0  0  0  0
   -6.4180   -2.0940    0.7800 C   0  0  0  0  0  0  0  0  0  0  0  0
   -7.7760   -1.9740    0.4960 O   0  0  0  0  0  0  0  0  0  0  0  0
   -4.3530   -0.6390    0.1420 C   0  0  0  0  0  0  0  0  0  0  0  0
   -3.4560   -1.5190    0.8500 O   0  0  0  0  0  0  0  0  0  0  0  0
  1  2  1  0
  2  3  1  0
  3  4  1  0
  4  5  1  0
  5  6  1  0
  6  7  2  0
  6  8  1  0
  8  9  2  0
  8 10  1  0
 10 11  1  0
 11 12  1  0
 12 13  2  0
 12 14  1  0
 14 15  1  0
 15 16  2  0
 15 21  1  0
 16 17  1  0
 17 18  1  0
 18 19  1  0
 18 21  2  0
 19 20  1  0
 21 22  1  0
M  END
