
     RDKit          3D

 22 22  0  0  0  0  0  0  0  0999 V2000
    5.5710    2.7160    0.3330 C   0  0  0  0  0  0  0  0  0  0  0  0
    5.6570    1.4510   -0.4870 C   0  0  0  0  0  0  0  0  0  0  0  0
    4.3180    0.8810   -0.7030 N   0  0  0  0  0  0  0  0  0  0  0  0
    3.5040    0.4850    0.3850 C   0  0  0  0  0  0  0  0  0  0  0  0
    3.9540    0.6330    1.5470 O   0  0  0  0  0  0  0  0  0  0  0  0
    2.1710   -0.0830    0.1930 C   0  0  0  0  0  0  0  0  0  0  0  0
    1.5310   -0.4150    1.5020 C   0  0  1  0  0  0  0  0  0  0  0  0
    1.3750    0.7340    2.3560 N   0  0  0  0  0  0  0  0  0  0  0  0
    0.2590   -1.1610    1.3310 C   0  0  0  0  0  0  0  0  0  0  0  0
   -0.7660   -0.7280    1.9240 O   0  0  0  0  0  0  0  0  0  0  0  0
    0.1250   -2.2920    0.5680 O   0  0  0  0  0  0  0  0  0  0  0  0
   -1.0620   -3.0160    0.3890 C   0  0  0  0  0  0  0  0  0  0  0  0
   -2.1000   -2.1680   -0.2190 C   0  0  0  0  0  0  0  0  0  0  0  0
   -3.4040   -2.5130   -0.5500 C   0  0  0  0  0  0  0  0  0  0  0  0
   -4.1890   -1.5970   -1.0950 C   0  0  0  0  0  0  0  0  0  0  0  0
   -3.6850   -0.3290   -1.3150 C   0  0  0  0  0  0  0  0  0  0  0  0
   -4.3080    0.8830   -1.8990 C   0  0  0  0  0  0  0  0  0  0  0  0
   -5.0900    1.8900   -0.6890 S   0  0  1  0  0  0  0  0  0  0  0  0
   -6.1400    1.0760    0.0060 O   0  0  0  0  0  0  0  0  0  0  0  0
   -4.0360    2.3340    0.3020 O   0  0  0  0  0  0  0  0  0  0  0  0
   -5.7530    3.2230   -1.4700 O   0  0  0  0  0  0  0  0  0  0  0  0
   -2.0080   -0.4950   -0.7030 S   0  0  0  0  0  0  0  0  0  0  0  0
  1  2  1  0
  2  3  1  0
  3  4  1  0
  4  5  2  0
  4  6  1  0
  6  7  1  0
  7  8  1  6
  7  9  1  0
  9 10  2  0
  9 11  1  0
 11 12  1  0
 12 13  1  0
 13 14  2  0
 13 22  1  0
 14 15  1  0
 15 16  2  0
 16 17  1  0
 16 22  1  0
 17 18  1  0
 18 19  2  0
 18 20  2  0
 18 21  1  6
M  END
