
     RDKit          3D

 22 22  0  0  0  0  0  0  0  0999 V2000
   -5.3500   -1.2750    0.2720 C   0  0  0  0  0  0  0  0  0  0  0  0
   -4.0820   -1.2760    0.0260 C   0  0  0  0  0  0  0  0  0  0  0  0
   -3.2270   -2.8440    0.0880 S   0  0  0  0  0  0  0  0  0  0  0  0
   -1.6090   -2.2380   -0.2970 C   0  0  0  0  0  0  0  0  0  0  0  0
   -1.8210   -0.8600   -0.4510 C   0  0  0  0  0  0  0  0  0  0  0  0
   -0.6600   -0.0050   -0.7170 N   0  0  0  0  0  0  0  0  0  0  0  0
    0.5780   -0.4990   -1.1010 C   0  0  0  0  0  0  0  0  0  0  0  0
    0.8190   -1.6950   -1.2640 O   0  0  0  0  0  0  0  0  0  0  0  0
    1.7040    0.4810   -1.3370 C   0  0  0  0  0  0  0  0  0  0  0  0
    3.1580   -0.4610   -1.8220 S   0  0  0  0  0  0  0  0  0  0  0  0
    3.8000   -1.5160   -0.5080 C   0  0  0  0  0  0  0  0  0  0  0  0
    4.3900   -0.7580    0.6210 C   0  0  0  0  0  0  0  0  0  0  0  0
    4.8090   -1.3150    1.6670 O   0  0  0  0  0  0  0  0  0  0  0  0
    4.5000    0.6440    0.5450 N   0  0  0  0  0  0  0  0  0  0  0  0
    5.0480    1.4340    1.6020 C   0  0  0  0  0  0  0  0  0  0  0  0
    5.4480    0.8610    2.6350 O   0  0  0  0  0  0  0  0  0  0  0  0
    5.1460    2.8020    1.5100 O   0  0  0  0  0  0  0  0  0  0  0  0
   -3.0880   -0.3890   -0.2840 C   0  0  0  0  0  0  0  0  0  0  0  0
   -3.3840    0.9120   -0.4490 C   0  0  0  0  0  0  0  0  0  0  0  0
   -4.5110    1.7250   -0.3950 C   0  0  0  0  0  0  0  0  0  0  0  0
   -4.2340    3.0280   -0.6500 O   0  0  0  0  0  0  0  0  0  0  0  0
   -5.8380    1.5750   -0.1550 O   0  0  0  0  0  0  0  0  0  0  0  0
  1  2  2  0
  2  3  1  0
  2 18  1  0
  3  4  1  0
  4  5  2  0
  5  6  1  0
  5 18  1  0
  6  7  1  0
  7  8  2  0
  7  9  1  0
  9 10  1  0
 10 11  1  0
 11 12  1  0
 12 13  2  0
 12 14  1  0
 14 15  1  0
 15 16  2  0
 15 17  1  0
 18 19  2  3
 19 20  1  0
 20 21  2  0
 20 22  1  0
M  END
