
     RDKit          3D

 22 22  0  0  0  0  0  0  0  0999 V2000
    6.4420    0.4460   -0.4770 C   0  0  0  0  0  0  0  0  0  0  0  0
    5.1680   -0.4570   -1.3950 S   0  0  0  0  0  0  0  0  0  0  0  0
    3.6980   -0.6830   -0.3370 C   0  0  0  0  0  0  0  0  0  0  0  0
    2.7040    0.2130   -0.3070 C   0  0  0  0  0  0  0  0  0  0  0  0
    1.6250    0.0140    0.4910 C   0  0  0  0  0  0  0  0  0  0  0  0
    0.4230    0.7600    0.7480 C   0  0  0  0  0  0  0  0  0  0  0  0
   -0.4150    0.2980    1.5690 O   0  0  0  0  0  0  0  0  0  0  0  0
    0.1700    1.9550    0.1250 O   0  0  0  0  0  0  0  0  0  0  0  0
   -0.9750    2.7270    0.3210 C   0  0  0  0  0  0  0  0  0  0  0  0
   -2.2380    2.0960   -0.0800 C   0  0  0  0  0  0  0  0  0  0  0  0
   -3.3430    2.6960    0.1560 O   0  0  0  0  0  0  0  0  0  0  0  0
   -2.3100    0.8330   -0.7290 N   0  0  0  0  0  0  0  0  0  0  0  0
   -3.5720    0.2150   -1.1160 C   0  0  0  0  0  0  0  0  0  0  0  0
   -4.4750   -0.0450    0.0500 C   0  0  0  0  0  0  0  0  0  0  0  0
   -5.7490   -0.6690   -0.3350 C   0  0  0  0  0  0  0  0  0  0  0  0
   -6.7700   -1.0140    0.5770 N   0  0  0  0  0  0  0  0  0  0  0  0
   -5.9360   -0.9090   -1.5650 O   0  0  0  0  0  0  0  0  0  0  0  0
    1.9960   -1.5970    1.3130 S   0  0  0  0  0  0  0  0  0  0  0  0
    3.6030   -1.7930    0.4460 C   0  0  0  0  0  0  0  0  0  0  0  0
    4.4710   -2.9130    0.6400 C   0  0  0  0  0  0  0  0  0  0  0  0
    4.2130   -3.8600    1.4180 O   0  0  0  0  0  0  0  0  0  0  0  0
    5.6550   -2.9520   -0.0680 O   0  0  0  0  0  0  0  0  0  0  0  0
  1  2  1  0
  2  3  1  0
  3  4  1  0
  3 19  2  0
  4  5  2  0
  5  6  1  0
  5 18  1  0
  6  7  2  0
  6  8  1  0
  8  9  1  0
  9 10  1  0
 10 11  2  0
 10 12  1  0
 12 13  1  0
 13 14  1  0
 14 15  1  0
 15 16  1  0
 15 17  2  0
 18 19  1  0
 19 20  1  0
 20 21  2  0
 20 22  1  0
M  END
