
     RDKit          3D

 22 22  0  0  0  0  0  0  0  0999 V2000
    5.8220   -1.0100    1.6560 C   0  0  0  0  0  0  0  0  0  0  0  0
    6.2800    0.1450    0.8160 C   0  0  0  0  0  0  0  0  0  0  0  0
    5.4870    0.3320   -0.3800 N   0  0  0  0  0  0  0  0  0  0  0  0
    4.0940    0.5930   -0.3630 C   0  0  0  0  0  0  0  0  0  0  0  0
    3.5190    0.6660    0.7550 O   0  0  0  0  0  0  0  0  0  0  0  0
    3.3060    0.7800   -1.6170 C   0  0  0  0  0  0  0  0  0  0  0  0
    1.9470    1.0270   -1.3470 O   0  0  0  0  0  0  0  0  0  0  0  0
    1.1380    0.1470   -0.6710 C   0  0  0  0  0  0  0  0  0  0  0  0
    1.6340   -0.9320   -0.2720 O   0  0  0  0  0  0  0  0  0  0  0  0
   -0.2820    0.4630   -0.4180 C   0  0  0  0  0  0  0  0  0  0  0  0
   -1.2350   -0.2270    0.2040 C   0  0  0  0  0  0  0  0  0  0  0  0
   -2.4720    0.2900    0.3030 C   0  0  0  0  0  0  0  0  0  0  0  0
   -3.8760   -0.5450    1.1290 S   0  0  0  0  0  0  0  0  0  0  0  0
   -4.7620   -1.5620   -0.0840 C   0  0  0  0  0  0  0  0  0  0  0  0
   -5.8860   -2.2260    0.5930 C   0  0  0  0  0  0  0  0  0  0  0  0
   -5.6930   -3.3470    1.1070 O   0  0  0  0  0  0  0  0  0  0  0  0
   -7.1480   -1.6040    0.6540 O   0  0  0  0  0  0  0  0  0  0  0  0
   -2.6970    1.5290   -0.2550 C   0  0  0  0  0  0  0  0  0  0  0  0
   -3.8890    2.3320   -0.3130 C   0  0  0  0  0  0  0  0  0  0  0  0
   -5.0830    1.8620    0.2690 N   0  0  0  0  0  0  0  0  0  0  0  0
   -3.8640    3.4430   -0.8790 O   0  0  0  0  0  0  0  0  0  0  0  0
   -1.0980    1.9440   -0.9270 S   0  0  0  0  0  0  0  0  0  0  0  0
  1  2  1  0
  2  3  1  0
  3  4  1  0
  4  5  2  0
  4  6  1  0
  6  7  1  0
  7  8  1  0
  8  9  2  0
  8 10  1  0
 10 11  2  0
 10 22  1  0
 11 12  1  0
 12 13  1  0
 12 18  2  0
 13 14  1  0
 14 15  1  0
 15 16  2  0
 15 17  1  0
 18 19  1  0
 18 22  1  0
 19 20  1  0
 19 21  2  0
M  END
