
     RDKit          3D

 18 19  0  0  0  0  0  0  0  0999 V2000
   -5.5960    0.8280    1.1580 O   0  0  0  0  0  0  0  0  0  0  0  0
   -4.4620    0.5160    0.7630 C   0  0  0  0  0  0  0  0  0  0  0  0
   -4.3170   -0.5070   -0.2740 C   0  0  0  0  0  0  0  0  0  0  0  0
   -2.9470   -0.8020   -0.6700 C   0  0  0  0  0  0  0  0  0  0  0  0
   -1.8360   -0.2260   -0.1710 C   0  0  0  0  0  0  0  0  0  0  0  0
   -0.5650   -0.6440   -0.6830 C   0  0  0  0  0  0  0  0  0  0  0  0
    0.5880   -0.1770   -0.2970 C   0  0  0  0  0  0  0  0  0  0  0  0
    1.8530   -0.6740   -0.8880 C   0  0  0  0  0  0  0  0  0  0  0  0
    2.9870   -0.1980   -0.4920 C   0  0  0  0  0  0  0  0  0  0  0  0
    3.2340    1.0530    0.7460 S   0  0  0  0  0  0  0  0  0  0  0  0
    5.0190    1.1290    0.6090 C   0  0  0  0  0  0  0  0  0  0  0  0
    5.8040    1.8920    1.2410 O   0  0  0  0  0  0  0  0  0  0  0  0
    5.3590    0.1530   -0.3540 N   0  0  0  0  0  0  0  0  0  0  0  0
    4.3120   -0.5440   -0.9350 C   0  0  0  0  0  0  0  0  0  0  0  0
    4.5000   -1.4550   -1.8240 O   0  0  0  0  0  0  0  0  0  0  0  0
   -1.9960    0.7880    0.8580 C   0  0  0  0  0  0  0  0  0  0  0  0
   -1.0380    1.3920    1.3950 O   0  0  0  0  0  0  0  0  0  0  0  0
   -3.3210    1.1300    1.2970 N   0  0  0  0  0  0  0  0  0  0  0  0
  1  2  2  0
  2  3  1  0
  2 18  1  0
  3  4  1  0
  4  5  2  0
  5  6  1  0
  5 16  1  0
  6  7  2  3
  7  8  1  0
  8  9  2  3
  9 10  1  0
  9 14  1  0
 10 11  1  0
 11 12  2  0
 11 13  1  0
 13 14  1  0
 14 15  2  0
 16 17  2  0
 16 18  1  0
M  END
