
     RDKit          3D

 18 19  0  0  0  0  0  0  0  0999 V2000
    4.6080    1.2040    0.6790 C   0  0  0  0  0  0  0  0  0  0  0  0
    3.6840    0.1170    0.0800 C   0  0  0  0  0  0  0  0  0  0  0  0
    4.0760   -1.1180   -0.1240 C   0  0  0  0  0  0  0  0  0  0  0  0
    3.2130   -2.0610   -0.6630 C   0  0  0  0  0  0  0  0  0  0  0  0
    3.4250   -3.7150   -1.0390 Cl  0  0  0  0  0  0  0  0  0  0  0  0
    1.7220   -1.0760   -0.8870 S   0  0  0  0  0  0  0  0  0  0  0  0
    2.3680    0.5120   -0.2460 C   0  0  0  0  0  0  0  0  0  0  0  0
    1.6360    1.7210   -0.1610 C   0  0  0  0  0  0  0  0  0  0  0  0
    0.2940    1.6160   -0.6310 O   0  0  0  0  0  0  0  0  0  0  0  0
   -0.6220    0.7320   -0.0500 C   0  0  0  0  0  0  0  0  0  0  0  0
   -0.1880    0.0470    0.9000 O   0  0  0  0  0  0  0  0  0  0  0  0
   -1.9940    0.6250   -0.5290 C   0  0  0  0  0  0  0  0  0  0  0  0
   -2.5670    1.3320   -1.5630 C   0  0  0  0  0  0  0  0  0  0  0  0
   -3.8460    0.9540   -1.7030 N   0  0  0  0  0  0  0  0  0  0  0  0
   -4.0830    0.0280   -0.7790 N   0  0  0  0  0  0  0  0  0  0  0  0
   -2.9640   -0.1970   -0.0400 C   0  0  0  0  0  0  0  0  0  0  0  0
   -2.8960   -1.1750    1.0740 C   0  0  0  0  0  0  0  0  0  0  0  0
   -4.1690   -1.8400    1.2570 N   0  0  0  0  0  0  0  0  0  0  0  0
  1  2  1  0
  2  3  1  0
  2  7  2  0
  3  4  2  0
  4  5  1  0
  4  6  1  0
  6  7  1  0
  7  8  1  0
  8  9  1  0
  9 10  1  0
 10 11  2  0
 10 12  1  0
 12 13  2  0
 12 16  1  0
 13 14  1  0
 14 15  1  0
 15 16  2  0
 16 17  1  0
 17 18  1  0
M  CHG  1  18   1
M  END
