
     RDKit          3D

 18 18  0  0  0  0  0  0  0  0999 V2000
   -4.9670    1.3760   -1.7980 C   0  0  0  0  0  0  0  0  0  0  0  0
   -4.4610    0.7070   -0.7760 C   0  0  0  0  0  0  0  0  0  0  0  0
   -3.0180    0.7870   -0.5220 C   0  0  0  0  0  0  0  0  0  0  0  0
   -2.5140   -0.2500    0.3560 N   0  0  0  0  0  0  0  0  0  0  0  0
   -1.1200   -0.2710    0.6060 C   0  0  0  0  0  0  0  0  0  0  0  0
   -0.5520   -1.4110    1.6120 S   0  0  0  0  0  0  0  0  0  0  0  0
   -0.2940    0.6880    0.0090 N   0  0  0  0  0  0  0  0  0  0  0  0
    1.1270    0.8100    0.1360 C   0  0  0  0  0  0  0  0  0  0  0  0
    1.8110   -0.3030   -0.5890 C   0  0  2  0  0  0  0  0  0  0  0  0
    1.5260   -1.5700   -0.1660 O   0  0  0  0  0  0  0  0  0  0  0  0
    3.2770   -0.0780   -0.6390 C   0  0  0  0  0  0  0  0  0  0  0  0
    3.7470    1.0130   -1.0080 O   0  0  0  0  0  0  0  0  0  0  0  0
    4.1210   -1.0980   -0.2690 O   0  0  0  0  0  0  0  0  0  0  0  0
    5.5210   -0.8920   -0.3130 C   0  0  0  0  0  0  0  0  0  0  0  0
    5.8480    0.2650    0.6170 C   0  0  0  0  0  0  0  0  0  0  0  0
   -3.4140   -1.2210    0.9450 C   0  0  0  0  0  0  0  0  0  0  0  0
   -4.7060   -0.5480    1.2950 C   0  0  0  0  0  0  0  0  0  0  0  0
   -5.2600   -0.0680    0.0630 O   0  0  0  0  0  0  0  0  0  0  0  0
  1  2  2  0
  2  3  1  0
  2 18  1  0
  3  4  1  0
  4  5  1  0
  4 16  1  0
  5  6  2  0
  5  7  1  0
  7  8  1  0
  8  9  1  0
  9 10  1  1
  9 11  1  0
 11 12  2  0
 11 13  1  0
 13 14  1  0
 14 15  1  0
 16 17  1  0
 17 18  1  0
M  END
