
     RDKit          3D

 13 13  0  0  0  0  0  0  0  0999 V2000
   -3.5160    1.3520   -0.3960 C   0  0  0  0  0  0  0  0  0  0  0  0
   -2.3780    0.8320    0.4260 C   0  0  0  0  0  0  0  0  0  0  0  0
   -1.9470   -0.3990    0.2770 C   0  0  0  0  0  0  0  0  0  0  0  0
   -2.5910   -1.2820   -0.7110 C   0  0  0  0  0  0  0  0  0  0  0  0
   -0.8730   -0.8780    1.0600 N   0  0  0  0  0  0  0  0  0  0  0  0
    0.4810   -0.5780    0.8130 C   0  0  0  0  0  0  0  0  0  0  0  0
    1.4560   -1.0900    1.6290 C   0  0  0  0  0  0  0  0  0  0  0  0
    2.8000   -0.8390    1.4480 C   0  0  0  0  0  0  0  0  0  0  0  0
    3.2020   -0.0430    0.4080 C   0  0  0  0  0  0  0  0  0  0  0  0
    4.5640    0.2360    0.1890 O   0  0  0  0  0  0  0  0  0  0  0  0
    2.2340    0.4850   -0.4300 C   0  0  0  0  0  0  0  0  0  0  0  0
    2.6670    1.3090   -1.5050 N   0  0  0  0  0  0  0  0  0  0  0  0
    0.8750    0.2190   -0.2300 C   0  0  0  0  0  0  0  0  0  0  0  0
  1  2  1  0
  2  3  2  3
  3  4  1  0
  3  5  1  0
  5  6  1  0
  6  7  2  0
  6 13  1  0
  7  8  1  0
  8  9  2  0
  9 10  1  0
  9 11  1  0
 11 12  1  0
 11 13  2  0
M  END
