
     RDKit          3D

 13 13  0  0  0  0  0  0  0  0999 V2000
   -2.8880    1.4860   -0.8500 C   0  0  0  0  0  0  0  0  0  0  0  0
   -2.7170    0.3210   -0.2320 C   0  0  0  0  0  0  0  0  0  0  0  0
   -3.8320   -0.2700    0.5530 C   0  0  0  0  0  0  0  0  0  0  0  0
   -1.4480   -0.3860   -0.3150 C   0  0  0  0  0  0  0  0  0  0  0  0
   -1.3160   -1.5120    0.2930 N   0  0  0  0  0  0  0  0  0  0  0  0
   -0.3530    0.1140   -1.0510 N   0  0  0  0  0  0  0  0  0  0  0  0
    0.9640    0.0360   -0.5520 C   0  0  0  0  0  0  0  0  0  0  0  0
    2.0080    0.3870   -1.4220 C   0  0  0  0  0  0  0  0  0  0  0  0
    3.2990    0.3310   -0.9640 C   0  0  0  0  0  0  0  0  0  0  0  0
    3.6260   -0.0540    0.3160 C   0  0  0  0  0  0  0  0  0  0  0  0
    4.9650   -0.0980    0.7490 O   0  0  0  0  0  0  0  0  0  0  0  0
    2.6100   -0.3970    1.1720 C   0  0  0  0  0  0  0  0  0  0  0  0
    1.3050   -0.3450    0.7200 C   0  0  0  0  0  0  0  0  0  0  0  0
  1  2  2  0
  2  3  1  0
  2  4  1  0
  4  5  2  0
  4  6  1  0
  6  7  1  0
  7  8  2  0
  7 13  1  0
  8  9  1  0
  9 10  2  0
 10 11  1  0
 10 12  1  0
 12 13  2  0
M  END
