
     RDKit          3D

 13 14  0  0  0  0  0  0  0  0999 V2000
   -3.1040    1.4850   -0.3720 C   0  0  0  0  0  0  0  0  0  0  0  0
   -1.6880    1.0310   -0.2640 C   0  0  0  0  0  0  0  0  0  0  0  0
   -0.6550    1.8740   -0.2330 N   0  0  0  0  0  0  0  0  0  0  0  0
    0.5190    1.2120   -0.1310 C   0  0  0  0  0  0  0  0  0  0  0  0
    1.8320    1.6560   -0.0660 C   0  0  0  0  0  0  0  0  0  0  0  0
    2.8320    0.7390    0.0350 C   0  0  0  0  0  0  0  0  0  0  0  0
    2.5380   -0.6050    0.0720 C   0  0  0  0  0  0  0  0  0  0  0  0
    3.6240   -1.5320    0.1790 N   0  0  0  0  0  0  0  0  0  0  0  0
    1.2190   -1.0450    0.0070 C   0  0  0  0  0  0  0  0  0  0  0  0
    0.1740   -0.1370   -0.0970 C   0  0  0  0  0  0  0  0  0  0  0  0
   -1.1910   -0.2450   -0.1790 C   0  0  0  0  0  0  0  0  0  0  0  0
   -1.9850   -1.4850   -0.1790 C   0  0  0  0  0  0  0  0  0  0  0  0
   -1.2460   -2.6450   -0.0840 O   0  0  0  0  0  0  0  0  0  0  0  0
  1  2  1  0
  2  3  1  0
  2 11  2  0
  3  4  1  0
  4  5  2  0
  4 10  1  0
  5  6  1  0
  6  7  2  0
  7  8  1  0
  7  9  1  0
  9 10  2  0
 10 11  1  0
 11 12  1  0
 12 13  1  0
M  END
