
     RDKit          3D

  8  8  0  0  0  0  0  0  0  0999 V2000
   -1.5820    0.9650    0.2960 C   0  0  0  0  0  0  0  0  0  0  0  0
   -0.1990    0.3990    0.0660 C   0  0  0  0  0  0  0  0  0  0  0  0
   -0.1660   -0.9150   -0.0470 C   0  0  0  0  0  0  0  0  0  0  0  0
   -1.4110   -1.7200    0.0520 C   0  0  0  0  0  0  0  0  0  0  0  0
    1.4210   -1.6810   -0.3200 S   0  0  0  0  0  0  0  0  0  0  0  0
    2.5760   -0.3600   -0.3630 N   0  0  0  0  0  0  0  0  0  0  0  0
    2.1330    0.9610   -0.1950 C   0  0  0  0  0  0  0  0  0  0  0  0
    0.8900    1.3190   -0.0020 C   0  0  0  0  0  0  0  0  0  0  0  0
  1  2  1  0
  2  3  2  0
  2  8  1  0
  3  4  1  0
  3  5  1  0
  5  6  1  0
  6  7  1  0
  7  8  2  0
M  END
