
     RDKit          3D

  8  8  0  0  0  0  0  0  0  0999 V2000
   -1.2020    1.6090    0.4400 C   0  0  0  0  0  0  0  0  0  0  0  0
    0.0080    0.7570    0.2470 C   0  0  0  0  0  0  0  0  0  0  0  0
    1.2000    1.2680    0.4820 C   0  0  0  0  0  0  0  0  0  0  0  0
    2.6570    0.2890    0.2650 S   0  0  0  0  0  0  0  0  0  0  0  0
    2.1560   -1.3420   -0.2800 C   0  0  0  0  0  0  0  0  0  0  0  0
    0.7520   -1.4400   -0.3990 N   0  0  0  0  0  0  0  0  0  0  0  0
   -0.1570   -0.6200   -0.1970 C   0  0  0  0  0  0  0  0  0  0  0  0
   -1.5830   -1.0950   -0.4360 C   0  0  0  0  0  0  0  0  0  0  0  0
  1  2  1  0
  2  3  2  0
  2  7  1  0
  3  4  1  0
  4  5  1  0
  5  6  1  0
  6  7  2  0
  7  8  1  0
M  END
