
     RDKit          3D

  8  8  0  0  0  0  0  0  0  0999 V2000
    2.6770   -0.2160   -0.0560 C   0  0  0  0  0  0  0  0  0  0  0  0
    1.2940   -0.7000    0.0240 C   0  0  0  0  0  0  0  0  0  0  0  0
    0.2550    0.1050   -0.0220 C   0  0  0  0  0  0  0  0  0  0  0  0
    0.3880    1.8910   -0.1890 S   0  0  0  0  0  0  0  0  0  0  0  0
   -1.4360    2.1470   -0.1580 C   0  0  0  0  0  0  0  0  0  0  0  0
   -1.9090    0.8440   -0.0290 N   0  0  0  0  0  0  0  0  0  0  0  0
   -1.1510   -0.1410    0.0380 C   0  0  0  0  0  0  0  0  0  0  0  0
   -1.6860   -1.5510    0.1780 C   0  0  0  0  0  0  0  0  0  0  0  0
  1  2  1  0
  2  3  2  3
  3  4  1  0
  3  7  1  0
  4  5  1  0
  5  6  1  0
  6  7  2  0
  7  8  1  0
M  END
