
     RDKit          3D

 27 27  0  0  0  0  0  0  0  0999 V2000
   -3.3530    0.5790   -2.5000 C   0  0  0  0  0  0  0  0  0  0  0  0
   -2.8260    0.1890   -1.1020 C   0  0  0  0  0  0  0  0  0  0  0  0
   -2.8760    1.4040   -0.2620 C   0  0  0  0  0  0  0  0  0  0  0  0
   -2.4510    1.3110    1.1450 C   0  0  2  0  0  0  0  0  0  0  0  0
   -2.5630    2.6740    1.8540 C   0  0  0  0  0  0  0  0  0  0  0  0
   -1.6880    3.6940    1.1610 C   0  0  0  0  0  0  0  0  0  0  0  0
   -1.1590    0.6670    1.5080 C   0  0  2  0  0  0  0  0  0  0  0  0
   -0.7390   -0.4980    0.7910 N   0  0  0  0  0  0  0  0  0  0  0  0
    0.6170   -0.5550    0.2910 C   0  0  0  0  0  0  0  0  0  0  0  0
    1.3410    0.4320    0.5220 O   0  0  0  0  0  0  0  0  0  0  0  0
    1.0890   -1.6470   -0.4090 N   0  0  0  0  0  0  0  0  0  0  0  0
    2.4250   -1.8710   -0.9650 C   0  0  0  0  0  0  0  0  0  0  0  0
    3.3340   -0.9690   -0.7030 C   0  0  0  0  0  0  0  0  0  0  0  0
    4.7070   -0.9590   -1.1330 C   0  0  0  0  0  0  0  0  0  0  0  0
    5.2730   -1.8080   -1.8300 O   0  0  0  0  0  0  0  0  0  0  0  0
    5.5510    0.1450   -0.7260 N   0  0  0  0  0  0  0  0  0  0  0  0
    6.9250    0.1980   -1.1290 C   0  0  0  0  0  0  0  0  0  0  0  0
    7.7970    1.3260   -0.7180 C   0  0  0  0  0  0  0  0  0  0  0  0
    7.3810   -0.7260   -1.8370 O   0  0  0  0  0  0  0  0  0  0  0  0
    2.5820   -2.9830   -1.6920 O   0  0  0  0  0  0  0  0  0  0  0  0
    3.2450   -3.4450   -2.7340 C   0  0  0  0  0  0  0  0  0  0  0  0
    3.0470   -2.6360   -4.0380 C   0  0  0  0  0  0  0  0  0  0  0  0
   -1.8490    0.1720    2.7950 C   0  0  0  0  0  0  0  0  0  0  0  0
   -3.1440    0.2910    2.0180 C   0  0  1  0  0  0  0  0  0  0  0  0
   -4.1500    0.8360    2.7730 O   0  0  0  0  0  0  0  0  0  0  0  0
   -5.2830    0.0520    2.7730 C   0  0  0  0  0  0  0  0  0  0  0  0
   -4.9780   -1.3180    3.3400 C   0  0  0  0  0  0  0  0  0  0  0  0
  1  2  1  0
  2  3  1  0
  4  3  1  6
  4  5  1  0
  4  7  1  0
  4 24  1  0
  5  6  1  0
  7  8  1  6
  7 23  1  0
  8  9  1  0
  9 10  2  0
  9 11  1  0
 11 12  1  0
 12 13  2  3
 12 20  1  0
 13 14  1  0
 14 15  2  0
 14 16  1  0
 16 17  1  0
 17 18  1  0
 17 19  2  0
 20 21  1  0
 21 22  1  0
 23 24  1  0
 24 25  1  1
 25 26  1  0
 26 27  1  0
M  END
