
     RDKit          3D

 17 18  0  0  0  0  0  0  0  0999 V2000
    6.0670    0.8360   -0.2440 O   0  0  0  0  0  0  0  0  0  0  0  0
    4.7240    0.5370   -0.1970 C   0  0  0  0  0  0  0  0  0  0  0  0
    3.8040    1.5340   -0.1400 C   0  0  0  0  0  0  0  0  0  0  0  0
    2.4480    1.2030   -0.0930 C   0  0  0  0  0  0  0  0  0  0  0  0
    2.0070   -0.0830   -0.1020 C   0  0  0  0  0  0  0  0  0  0  0  0
    0.5960   -0.4070   -0.0530 C   0  0  0  0  0  0  0  0  0  0  0  0
   -0.3770    0.4600    0.0030 C   0  0  0  0  0  0  0  0  0  0  0  0
   -1.7820    0.0840    0.0510 C   0  0  0  0  0  0  0  0  0  0  0  0
   -2.7720    1.0710    0.1100 C   0  0  0  0  0  0  0  0  0  0  0  0
   -4.1110    0.8040    0.1580 C   0  0  0  0  0  0  0  0  0  0  0  0
   -5.0710    1.8210    0.2170 O   0  0  0  0  0  0  0  0  0  0  0  0
   -4.5090   -0.5110    0.1470 C   0  0  0  0  0  0  0  0  0  0  0  0
   -3.6040   -1.5150    0.0900 C   0  0  0  0  0  0  0  0  0  0  0  0
   -3.9520   -2.8780    0.0760 O   0  0  0  0  0  0  0  0  0  0  0  0
   -2.2370   -1.2110    0.0420 C   0  0  0  0  0  0  0  0  0  0  0  0
    2.9710   -1.0770   -0.1610 C   0  0  0  0  0  0  0  0  0  0  0  0
    4.3140   -0.7850   -0.2080 C   0  0  0  0  0  0  0  0  0  0  0  0
  1  2  1  0
  2  3  2  0
  2 17  1  0
  3  4  1  0
  4  5  2  0
  5  6  1  0
  5 16  1  0
  6  7  2  3
  7  8  1  0
  8  9  2  0
  8 15  1  0
  9 10  1  0
 10 11  1  0
 10 12  2  0
 12 13  1  0
 13 14  1  0
 13 15  2  0
 16 17  2  0
M  END
