
     RDKit          3D

 27 27  0  0  0  0  0  0  0  0999 V2000
   -5.3090    1.2980   -1.7190 C   0  0  0  0  0  0  0  0  0  0  0  0
   -4.1310    0.5210   -1.1390 C   0  0  1  0  0  0  0  0  0  0  0  0
   -4.7350   -0.5440   -0.2620 C   0  0  0  0  0  0  0  0  0  0  0  0
   -5.5720    0.0190    0.8370 C   0  0  0  0  0  0  0  0  0  0  0  0
   -4.8690    0.8920    1.7720 C   0  0  0  0  0  0  0  0  0  0  0  0
   -5.6450    1.4990    2.8110 N   0  0  0  0  0  0  0  0  0  0  0  0
   -3.6480    1.1690    1.7620 O   0  0  0  0  0  0  0  0  0  0  0  0
   -3.3390   -0.1440   -2.2330 C   0  0  2  0  0  0  0  0  0  0  0  0
   -2.8000    0.8920   -3.2000 C   0  0  0  0  0  0  0  0  0  0  0  0
   -4.2130   -0.9500   -2.9590 O   0  0  0  0  0  0  0  0  0  0  0  0
   -2.2580   -1.0130   -1.6860 C   0  0  0  0  0  0  0  0  0  0  0  0
   -1.2520   -0.2530   -0.8280 C   0  0  0  0  0  0  0  0  0  0  0  0
   -0.2180   -1.2570   -0.3460 C   0  0  0  0  0  0  0  0  0  0  0  0
    0.7900   -0.5940    0.4910 C   0  0  0  0  0  0  0  0  0  0  0  0
    0.6880    0.6490    0.7000 O   0  0  0  0  0  0  0  0  0  0  0  0
    1.8850   -1.2780    1.0870 N   0  0  0  0  0  0  0  0  0  0  0  0
    1.9990   -2.7000    0.8460 C   0  0  0  0  0  0  0  0  0  0  0  0
    2.8770   -0.6440    1.9050 C   0  0  0  0  0  0  0  0  0  0  0  0
    4.0340   -0.1480    1.0930 C   0  0  0  0  0  0  0  0  0  0  0  0
    4.0870   -0.2900   -0.1380 O   0  0  0  0  0  0  0  0  0  0  0  0
    5.0660    0.4900    1.7930 N   0  0  0  0  0  0  0  0  0  0  0  0
    6.2500    1.0340    1.2310 C   0  0  0  0  0  0  0  0  0  0  0  0
    6.5410    1.0130   -0.0360 C   0  0  0  0  0  0  0  0  0  0  0  0
    7.7810    1.5890   -0.5800 C   0  0  0  0  0  0  0  0  0  0  0  0
    8.6010    2.1520    0.3870 O   0  0  0  0  0  0  0  0  0  0  0  0
    8.3470    2.2050    1.7370 C   0  0  0  0  0  0  0  0  0  0  0  0
    7.2190    1.6700    2.1580 C   0  0  0  0  0  0  0  0  0  0  0  0
  2  1  1  6
  2  3  1  0
  2  8  1  0
  3  4  1  0
  4  5  1  0
  5  6  1  0
  5  7  2  0
  8  9  1  6
  8 10  1  0
  8 11  1  0
 11 12  1  0
 12 13  1  0
 13 14  1  0
 14 15  2  0
 14 16  1  0
 16 17  1  0
 16 18  1  0
 18 19  1  0
 19 20  2  0
 19 21  1  0
 21 22  1  0
 22 23  2  0
 22 27  1  0
 23 24  1  0
 24 25  1  0
 25 26  1  0
 26 27  2  0
M  END
