
     RDKit          3D

 27 27  0  0  0  0  0  0  0  0999 V2000
   -3.5580    4.1790   -1.9810 C   0  0  0  0  0  0  0  0  0  0  0  0
   -4.3390    3.0830   -1.3120 C   0  0  0  0  0  0  0  0  0  0  0  0
   -3.6260    1.8690   -1.2520 O   0  0  0  0  0  0  0  0  0  0  0  0
   -4.2230    0.7700   -0.6610 C   0  0  0  0  0  0  0  0  0  0  0  0
   -5.3880    0.9730   -0.2200 O   0  0  0  0  0  0  0  0  0  0  0  0
   -3.6530   -0.5470   -0.5090 C   0  0  1  0  0  0  0  0  0  0  0  0
   -3.5430   -1.1540   -1.9290 C   0  0  0  0  0  0  0  0  0  0  0  0
   -2.3670   -0.7310    0.1890 C   0  0  0  0  0  0  0  0  0  0  0  0
   -1.1580   -0.0670   -0.3350 C   0  0  1  0  0  0  0  0  0  0  0  0
   -1.2320    1.3230   -0.3870 O   0  0  0  0  0  0  0  0  0  0  0  0
    0.0490   -0.3830    0.5220 C   0  0  0  0  0  0  0  0  0  0  0  0
    0.3730   -1.8300    0.6040 C   0  0  0  0  0  0  0  0  0  0  0  0
    1.5730   -2.0650    1.4510 C   0  0  0  0  0  0  0  0  0  0  0  0
    2.7480   -1.5120    1.0580 O   0  0  0  0  0  0  0  0  0  0  0  0
    3.2580   -1.9080   -0.1480 C   0  0  2  0  0  0  0  0  0  0  0  0
    4.6060   -2.5720   -0.0490 C   0  0  0  0  0  0  0  0  0  0  0  0
    5.7160   -1.6620    0.3210 C   0  0  0  0  0  0  0  0  0  0  0  0
    5.6010   -0.2370   -0.0320 C   0  0  0  0  0  0  0  0  0  0  0  0
    4.2360    0.3060   -0.2840 C   0  0  2  0  0  0  0  0  0  0  0  0
    3.5640    0.7010    0.8430 O   0  0  0  0  0  0  0  0  0  0  0  0
    3.2040    2.0330    0.7450 C   0  0  0  0  0  0  0  0  0  0  0  0
    4.3500    2.9750    0.6220 C   0  0  0  0  0  0  0  0  0  0  0  0
    3.4200   -0.7250   -1.0580 C   0  0  0  0  0  0  0  0  0  0  0  0
   -4.6230   -1.3870    0.1690 N   0  0  0  0  0  0  0  0  0  0  0  0
   -5.0570   -0.9810    1.4620 C   0  0  0  0  0  0  0  0  0  0  0  0
   -4.5370    0.0120    2.0960 N   0  0  0  0  0  0  0  0  0  0  0  0
   -6.1200   -1.7000    2.1010 N   0  0  0  0  0  0  0  0  0  0  0  0
  1  2  1  0
  2  3  1  0
  3  4  1  0
  4  5  2  0
  4  6  1  0
  6  7  1  6
  6  8  1  0
  6 24  1  0
  8  9  1  0
  9 10  1  1
  9 11  1  0
 11 12  1  0
 12 13  1  0
 13 14  1  0
 15 14  1  1
 15 16  1  0
 15 23  1  0
 16 17  1  0
 17 18  1  0
 18 19  1  0
 19 20  1  1
 19 23  1  0
 20 21  1  0
 21 22  1  0
 24 25  1  0
 25 26  2  0
 25 27  1  0
M  END
