
     RDKit          3D

 27 27  0  0  0  0  0  0  0  0999 V2000
   -4.1630   -2.4810    1.4180 C   0  0  0  0  0  0  0  0  0  0  0  0
   -4.8500   -1.1560    1.5770 C   0  0  2  0  0  0  0  0  0  0  0  0
   -5.8160   -1.3410    2.7980 C   0  0  0  0  0  0  0  0  0  0  0  0
   -5.7350   -0.7910    0.4520 C   0  0  1  0  0  0  0  0  0  0  0  0
   -6.8290   -1.9040    0.4010 C   0  0  0  0  0  0  0  0  0  0  0  0
   -6.4560    0.3650    0.7590 O   0  0  0  0  0  0  0  0  0  0  0  0
   -5.1890   -0.7380   -0.9240 C   0  0  0  0  0  0  0  0  0  0  0  0
   -4.3130    0.2980   -1.3050 N   0  0  0  0  0  0  0  0  0  0  0  0
   -3.0200    0.5750   -0.8400 C   0  0  0  0  0  0  0  0  0  0  0  0
   -2.4670   -0.1370   -0.0090 O   0  0  0  0  0  0  0  0  0  0  0  0
   -2.2720    1.7070   -1.3140 N   0  0  0  0  0  0  0  0  0  0  0  0
   -0.9350    1.9710   -0.8150 C   0  0  0  0  0  0  0  0  0  0  0  0
   -0.4170    3.2080   -1.4850 C   0  0  0  0  0  0  0  0  0  0  0  0
    0.8420    3.5980   -1.1230 O   0  0  0  0  0  0  0  0  0  0  0  0
    1.8550    2.6840   -1.3960 C   0  0  1  0  0  0  0  0  0  0  0  0
    2.8980    3.2860   -2.3170 C   0  0  0  0  0  0  0  0  0  0  0  0
    2.5370    2.3350   -0.1320 C   0  0  0  0  0  0  0  0  0  0  0  0
    2.1880    2.8730    0.9360 O   0  0  0  0  0  0  0  0  0  0  0  0
    3.5830    1.3920   -0.1390 N   0  0  0  0  0  0  0  0  0  0  0  0
    4.0790    0.6770   -1.2890 C   0  0  0  0  0  0  0  0  0  0  0  0
    4.5010   -0.6470   -0.6980 C   0  0  1  0  0  0  0  0  0  0  0  0
    5.4680   -1.3070   -1.6580 C   0  0  0  0  0  0  0  0  0  0  0  0
    5.1380   -0.2610    0.5910 C   0  0  2  0  0  0  0  0  0  0  0  0
    5.0210   -1.2520    1.6990 C   0  0  0  0  0  0  0  0  0  0  0  0
    5.6050   -2.5970    1.4450 C   0  0  0  0  0  0  0  0  0  0  0  0
    4.9620   -3.1810    0.3640 O   0  0  0  0  0  0  0  0  0  0  0  0
    4.3570    0.9810    1.0220 C   0  0  0  0  0  0  0  0  0  0  0  0
  2  1  1  6
  2  3  1  0
  2  4  1  0
  4  5  1  6
  4  6  1  0
  4  7  1  0
  7  8  1  0
  8  9  1  0
  9 10  2  0
  9 11  1  0
 11 12  1  0
 12 13  1  0
 13 14  1  0
 14 15  1  0
 15 16  1  6
 15 17  1  0
 17 18  2  0
 17 19  1  0
 19 20  1  0
 19 27  1  0
 20 21  1  0
 21 22  1  6
 21 23  1  0
 23 24  1  1
 23 27  1  0
 24 25  1  0
 25 26  1  0
M  END
