
     RDKit          3D

 27 27  0  0  0  0  0  0  0  0999 V2000
   -4.9790    4.3250   -1.6580 C   0  0  0  0  0  0  0  0  0  0  0  0
   -4.9820    3.2120   -0.6480 C   0  0  0  0  0  0  0  0  0  0  0  0
   -3.9260    2.3160   -0.9330 O   0  0  0  0  0  0  0  0  0  0  0  0
   -3.7170    1.1990   -0.1180 C   0  0  0  0  0  0  0  0  0  0  0  0
   -4.5150    1.0460    0.8730 O   0  0  0  0  0  0  0  0  0  0  0  0
   -2.6480    0.2480   -0.3690 C   0  0  0  0  0  0  0  0  0  0  0  0
   -1.9190    0.4530   -1.3660 O   0  0  0  0  0  0  0  0  0  0  0  0
   -2.4940   -0.8820    0.5570 C   0  0  0  0  0  0  0  0  0  0  0  0
   -1.3050   -1.7710    0.2850 C   0  0  2  0  0  0  0  0  0  0  0  0
   -1.4610   -2.3050   -1.1170 C   0  0  0  0  0  0  0  0  0  0  0  0
   -1.3270   -3.0030    1.1750 C   0  0  0  0  0  0  0  0  0  0  0  0
   -2.5370   -3.8420    0.9890 C   0  0  0  0  0  0  0  0  0  0  0  0
   -0.0570   -0.9840    0.4070 C   0  0  0  0  0  0  0  0  0  0  0  0
    1.2280   -1.6300    0.1980 C   0  0  1  0  0  0  0  0  0  0  0  0
    1.5070   -2.2780   -1.0490 N   0  0  0  0  0  0  0  0  0  0  0  0
    1.9520   -3.6220   -1.0510 C   0  0  0  0  0  0  0  0  0  0  0  0
    2.2450   -4.3100   -2.3390 C   0  0  0  0  0  0  0  0  0  0  0  0
    2.1200   -4.2860    0.0040 O   0  0  0  0  0  0  0  0  0  0  0  0
    2.3240   -0.6070    0.2940 C   0  0  0  0  0  0  0  0  0  0  0  0
    3.4420   -0.8420   -0.2130 O   0  0  0  0  0  0  0  0  0  0  0  0
    2.0730    0.5960    0.9490 N   0  0  0  0  0  0  0  0  0  0  0  0
    3.0000    1.6260    1.1120 C   0  0  0  0  0  0  0  0  0  0  0  0
    4.2420    1.6090    0.7010 C   0  0  0  0  0  0  0  0  0  0  0  0
    5.0320    2.8670    1.0120 C   0  0  0  0  0  0  0  0  0  0  0  0
    4.2770    4.0980    0.6300 C   0  0  0  0  0  0  0  0  0  0  0  0
    2.8480    3.9650    0.8410 N   0  0  0  0  0  0  0  0  0  0  0  0
    2.6120    2.9220    1.8180 C   0  0  0  0  0  0  0  0  0  0  0  0
  1  2  1  0
  2  3  1  0
  3  4  1  0
  4  5  2  0
  4  6  1  0
  6  7  2  0
  6  8  1  0
  8  9  1  0
  9 10  1  6
  9 11  1  0
  9 13  1  0
 11 12  1  0
 14 13  1  6
 14 15  1  0
 14 19  1  0
 15 16  1  0
 16 17  1  0
 16 18  2  0
 19 20  2  0
 19 21  1  0
 21 22  1  0
 22 23  2  0
 22 27  1  0
 23 24  1  0
 24 25  1  0
 25 26  1  0
 26 27  1  0
M  END
