
     RDKit          3D

 27 27  0  0  0  0  0  0  0  0999 V2000
    5.3250   -1.1910    2.7700 C   0  0  0  0  0  0  0  0  0  0  0  0
    6.3240   -0.3700    2.5570 C   0  0  0  0  0  0  0  0  0  0  0  0
    6.6480    0.1180    1.2300 C   0  0  0  0  0  0  0  0  0  0  0  0
    7.6820    0.9390    1.0930 C   0  0  0  0  0  0  0  0  0  0  0  0
    8.4970    1.3590    2.2570 C   0  0  0  0  0  0  0  0  0  0  0  0
    5.8710   -0.2840    0.0970 N   0  0  0  0  0  0  0  0  0  0  0  0
    4.5000    0.0280   -0.0760 C   0  0  0  0  0  0  0  0  0  0  0  0
    3.9230    0.7020    0.8120 O   0  0  0  0  0  0  0  0  0  0  0  0
    3.7540   -0.4350   -1.2890 C   0  0  2  0  0  0  0  0  0  0  0  0
    4.4650   -0.0100   -2.5560 C   0  0  0  0  0  0  0  0  0  0  0  0
    2.3840   -0.0150   -1.2620 N   0  0  0  0  0  0  0  0  0  0  0  0
    1.2650   -0.8760   -1.1950 C   0  0  0  0  0  0  0  0  0  0  0  0
    1.5150   -2.1280   -1.1580 O   0  0  0  0  0  0  0  0  0  0  0  0
   -0.1360   -0.3810   -1.1690 C   0  0  0  0  0  0  0  0  0  0  0  0
   -1.0670   -1.5690   -1.0910 C   0  0  0  0  0  0  0  0  0  0  0  0
   -2.4540   -1.1630   -1.0600 N   0  0  0  0  0  0  0  0  0  0  0  0
   -3.5400   -2.0440   -0.9890 C   0  0  0  0  0  0  0  0  0  0  0  0
   -3.3220   -3.2800   -0.9490 O   0  0  0  0  0  0  0  0  0  0  0  0
   -4.9680   -1.6070   -0.9560 C   0  0  2  0  0  0  0  0  0  0  0  0
   -5.5750   -2.0930   -2.2770 C   0  0  0  0  0  0  0  0  0  0  0  0
   -4.9540   -0.2290   -1.0020 O   0  0  0  0  0  0  0  0  0  0  0  0
   -5.5470    0.4150    0.0260 C   0  0  2  0  0  0  0  0  0  0  0  0
   -6.6800    1.3420   -0.3580 C   0  0  0  0  0  0  0  0  0  0  0  0
   -6.9150    1.9890    0.8520 O   0  0  0  0  0  0  0  0  0  0  0  0
   -5.6750    2.3570    1.3070 C   0  0  1  0  0  0  0  0  0  0  0  0
   -5.6090    2.4400    2.8200 C   0  0  0  0  0  0  0  0  0  0  0  0
   -4.6680    1.3380    0.8170 C   0  0  0  0  0  0  0  0  0  0  0  0
  1  2  2  0
  2  3  1  0
  3  4  2  3
  3  6  1  0
  4  5  1  0
  6  7  1  0
  7  8  2  0
  7  9  1  0
  9 10  1  6
  9 11  1  0
 11 12  1  0
 12 13  2  0
 12 14  1  0
 14 15  1  0
 15 16  1  0
 16 17  1  0
 17 18  2  0
 17 19  1  0
 19 20  1  6
 19 21  1  0
 22 21  1  6
 22 23  1  0
 22 27  1  0
 23 24  1  0
 24 25  1  0
 25 26  1  1
 25 27  1  0
M  END
