
     RDKit          3D

 27 27  0  0  0  0  0  0  0  0999 V2000
   -2.4350   -4.1070    2.3470 C   0  0  0  0  0  0  0  0  0  0  0  0
   -2.5390   -3.5360    0.9240 C   0  0  0  0  0  0  0  0  0  0  0  0
   -1.3190   -2.9860    0.6400 O   0  0  0  0  0  0  0  0  0  0  0  0
   -1.1700   -2.3970   -0.5800 C   0  0  2  0  0  0  0  0  0  0  0  0
   -1.5010   -3.3560   -1.7150 C   0  0  0  0  0  0  0  0  0  0  0  0
    0.3390   -2.1280   -0.7740 C   0  0  0  0  0  0  0  0  0  0  0  0
    0.8430   -1.2640    0.2440 N   0  0  0  0  0  0  0  0  0  0  0  0
    2.2450   -0.9270    0.1840 C   0  0  0  0  0  0  0  0  0  0  0  0
    2.9350   -1.4100   -0.7540 O   0  0  0  0  0  0  0  0  0  0  0  0
    2.8570   -0.0480    1.1830 C   0  0  0  0  0  0  0  0  0  0  0  0
    4.3020    0.2010    0.9160 C   0  0  0  0  0  0  0  0  0  0  0  0
    4.6250    0.8610   -0.3770 C   0  0  2  0  0  0  0  0  0  0  0  0
    6.1490    1.0130   -0.4260 C   0  0  0  0  0  0  0  0  0  0  0  0
    4.0620    2.2600   -0.4880 C   0  0  0  0  0  0  0  0  0  0  0  0
    4.5780    3.1760    0.5780 C   0  0  0  0  0  0  0  0  0  0  0  0
   -1.8650   -1.1310   -0.8130 C   0  0  0  0  0  0  0  0  0  0  0  0
   -1.7940   -0.6910   -2.0140 O   0  0  0  0  0  0  0  0  0  0  0  0
   -2.5830   -0.3600    0.1130 N   0  0  0  0  0  0  0  0  0  0  0  0
   -3.2120    0.8820   -0.3270 C   0  0  2  0  0  0  0  0  0  0  0  0
   -4.2070    0.4930   -1.4290 C   0  0  0  0  0  0  0  0  0  0  0  0
   -2.1910    1.7740   -0.9510 C   0  0  0  0  0  0  0  0  0  0  0  0
   -2.3580    3.2330   -0.6630 C   0  0  0  0  0  0  0  0  0  0  0  0
   -3.7660    3.6240   -0.3930 C   0  0  0  0  0  0  0  0  0  0  0  0
   -4.3460    4.5830   -0.9610 O   0  0  0  0  0  0  0  0  0  0  0  0
   -4.4620    2.8310    0.5790 N   0  0  0  0  0  0  0  0  0  0  0  0
   -3.9970    1.4990    0.7510 C   0  0  0  0  0  0  0  0  0  0  0  0
   -4.2500    0.8760    1.7880 O   0  0  0  0  0  0  0  0  0  0  0  0
  1  2  1  0
  2  3  1  0
  3  4  1  0
  4  5  1  6
  4  6  1  0
  4 16  1  0
  6  7  1  0
  7  8  1  0
  8  9  2  0
  8 10  1  0
 10 11  1  0
 11 12  1  0
 12 13  1  1
 12 14  1  0
 14 15  1  0
 16 17  2  0
 16 18  1  0
 18 19  1  0
 19 20  1  6
 19 21  1  0
 19 26  1  0
 21 22  1  0
 22 23  1  0
 23 24  2  0
 23 25  1  0
 25 26  1  0
 26 27  2  0
M  END
