
     RDKit          3D

 21 23  0  0  0  0  0  0  0  0999 V2000
   -4.2690   -0.3990    2.0690 C   0  0  0  0  0  0  0  0  0  0  0  0
   -3.5170    0.5500    1.1930 C   0  0  0  0  0  0  0  0  0  0  0  0
   -3.9070    1.8460    1.0950 C   0  0  0  0  0  0  0  0  0  0  0  0
   -3.2320    2.7200    0.3020 C   0  0  0  0  0  0  0  0  0  0  0  0
   -2.1460    2.3270   -0.4140 C   0  0  0  0  0  0  0  0  0  0  0  0
   -1.7460    0.9830   -0.3060 C   0  0  0  0  0  0  0  0  0  0  0  0
   -0.6430    0.6330   -1.0440 O   0  0  0  0  0  0  0  0  0  0  0  0
    0.6030    0.3050   -0.5210 C   0  0  0  0  0  0  0  0  0  0  0  0
    0.8450    0.3870    0.8430 C   0  0  0  0  0  0  0  0  0  0  0  0
    2.0750    0.0610    1.3470 C   0  0  0  0  0  0  0  0  0  0  0  0
    3.0910   -0.3550    0.4870 C   0  0  0  0  0  0  0  0  0  0  0  0
    2.8240   -0.4270   -0.8590 C   0  0  0  0  0  0  0  0  0  0  0  0
    1.5730   -0.1000   -1.4070 C   0  0  0  0  0  0  0  0  0  0  0  0
    1.3410   -0.1900   -2.8070 N   0  0  0  0  0  0  0  0  0  0  0  0
    4.0400   -0.8830   -1.5230 C   0  0  1  0  0  0  0  0  0  0  0  0
    4.4820   -0.0150   -2.5190 O   0  0  0  0  0  0  0  0  0  0  0  0
    5.0300   -1.0680   -0.4520 C   0  0  0  0  0  0  0  0  0  0  0  0
    4.4720   -0.7620    0.6960 C   0  0  0  0  0  0  0  0  0  0  0  0
   -2.4090    0.0790    0.4810 C   0  0  0  0  0  0  0  0  0  0  0  0
   -2.0870   -1.3520    0.5990 C   0  0  0  0  0  0  0  0  0  0  0  0
   -1.0410   -1.8220   -0.1360 O   0  0  0  0  0  0  0  0  0  0  0  0
  1  2  1  0
  2  3  2  0
  2 19  1  0
  3  4  1  0
  4  5  2  0
  5  6  1  0
  6  7  1  0
  6 19  2  0
  7  8  1  0
  8  9  2  0
  8 13  1  0
  9 10  1  0
 10 11  2  0
 11 12  1  0
 11 18  1  0
 12 13  2  0
 12 15  1  0
 13 14  1  0
 15 16  1  6
 15 17  1  0
 17 18  2  0
 19 20  1  0
 20 21  1  0
M  END
