
     RDKit          3D

 21 23  0  0  0  0  0  0  0  0999 V2000
   -3.7750   -2.0890    1.3540 C   0  0  0  0  0  0  0  0  0  0  0  0
   -2.5800   -2.9750    1.1470 C   0  0  0  0  0  0  0  0  0  0  0  0
   -1.3380   -2.3240    0.7620 C   0  0  0  0  0  0  0  0  0  0  0  0
   -1.1960   -1.0100    0.6100 C   0  0  0  0  0  0  0  0  0  0  0  0
   -2.2860   -0.1700    0.8260 O   0  0  0  0  0  0  0  0  0  0  0  0
    0.0720   -0.4230    0.2380 C   0  0  0  0  0  0  0  0  0  0  0  0
    1.2600   -1.1520    0.3510 C   0  0  0  0  0  0  0  0  0  0  0  0
    2.4990   -0.6520    0.0180 C   0  0  0  0  0  0  0  0  0  0  0  0
    2.5930    0.6290   -0.4510 C   0  0  0  0  0  0  0  0  0  0  0  0
    1.4370    1.3670   -0.5740 C   0  0  0  0  0  0  0  0  0  0  0  0
    0.1760    0.8490   -0.2350 C   0  0  0  0  0  0  0  0  0  0  0  0
   -0.9610    1.7130   -0.5780 C   0  0  0  0  0  0  0  0  0  0  0  0
   -0.8590    3.1040   -0.7610 C   0  0  0  0  0  0  0  0  0  0  0  0
   -2.1040    3.6170   -1.0700 C   0  0  0  0  0  0  0  0  0  0  0  0
   -2.9260    2.5160   -1.0640 C   0  0  0  0  0  0  0  0  0  0  0  0
   -4.3350    2.5500   -1.3340 N   0  0  0  0  0  0  0  0  0  0  0  0
   -2.2220    1.4530   -0.7770 O   0  0  0  0  0  0  0  0  0  0  0  0
    3.8290    1.2020   -0.8070 O   0  0  0  0  0  0  0  0  0  0  0  0
    4.9160    0.3160   -0.9680 C   0  0  0  0  0  0  0  0  0  0  0  0
    4.9260   -0.5740    0.2760 C   0  0  0  0  0  0  0  0  0  0  0  0
    3.7320   -1.4870    0.1630 C   0  0  0  0  0  0  0  0  0  0  0  0
  1  2  1  0
  2  3  1  0
  3  4  2  3
  4  5  1  0
  4  6  1  0
  6  7  2  0
  6 11  1  0
  7  8  1  0
  8  9  2  0
  8 21  1  0
  9 10  1  0
  9 18  1  0
 10 11  2  0
 11 12  1  0
 12 13  2  0
 12 17  1  0
 13 14  1  0
 14 15  2  0
 15 16  1  0
 15 17  1  0
 18 19  1  0
 19 20  1  0
 20 21  1  0
M  END
