
     RDKit          3D

 21 23  0  0  0  0  0  0  0  0999 V2000
    6.9680   -0.9750   -0.5250 C   0  0  0  0  0  0  0  0  0  0  0  0
    5.6430   -0.5520   -0.8680 N   0  0  0  0  0  0  0  0  0  0  0  0
    4.7610   -0.5150    0.2850 C   0  0  0  0  0  0  0  0  0  0  0  0
    3.3950   -0.0700   -0.1050 C   0  0  0  0  0  0  0  0  0  0  0  0
    2.9090    0.1340   -1.3820 C   0  0  0  0  0  0  0  0  0  0  0  0
    1.6070    0.5370   -1.2050 C   0  0  0  0  0  0  0  0  0  0  0  0
    1.3350    0.5680    0.1540 C   0  0  0  0  0  0  0  0  0  0  0  0
    0.1080    0.9250    0.8480 C   0  0  0  0  0  0  0  0  0  0  0  0
   -1.1070    0.4900    0.5500 C   0  0  0  0  0  0  0  0  0  0  0  0
   -1.2770   -0.4250   -0.5520 C   0  0  0  0  0  0  0  0  0  0  0  0
   -2.4490   -0.8330   -0.9920 C   0  0  0  0  0  0  0  0  0  0  0  0
   -2.5590   -1.7200   -2.0700 O   0  0  0  0  0  0  0  0  0  0  0  0
   -3.6420   -0.3150   -0.2910 C   0  0  0  0  0  0  0  0  0  0  0  0
   -4.8640   -0.7540   -0.8270 C   0  0  0  0  0  0  0  0  0  0  0  0
   -6.0190   -0.2870   -0.2450 C   0  0  0  0  0  0  0  0  0  0  0  0
   -5.9140    0.5800    0.8240 C   0  0  0  0  0  0  0  0  0  0  0  0
   -4.7300    0.9940    1.3310 C   0  0  0  0  0  0  0  0  0  0  0  0
   -3.5380    0.5370    0.7610 C   0  0  0  0  0  0  0  0  0  0  0  0
   -2.2540    0.9550    1.3280 C   0  0  2  0  0  0  0  0  0  0  0  0
   -2.2150    2.3430    1.5470 O   0  0  0  0  0  0  0  0  0  0  0  0
    2.4670    0.1890    0.7500 O   0  0  0  0  0  0  0  0  0  0  0  0
  1  2  1  0
  2  3  1  0
  3  4  1  0
  4  5  2  0
  4 21  1  0
  5  6  1  0
  6  7  2  0
  7  8  1  0
  7 21  1  0
  8  9  2  3
  9 10  1  0
  9 19  1  0
 10 11  2  0
 11 12  1  0
 11 13  1  0
 13 14  2  0
 13 18  1  0
 14 15  1  0
 15 16  2  0
 16 17  1  0
 17 18  2  0
 18 19  1  0
 19 20  1  6
M  END
