
     RDKit          3D

 21 22  0  0  0  0  0  0  0  0999 V2000
   -4.4660   -1.3090   -1.6810 C   0  0  0  0  0  0  0  0  0  0  0  0
   -4.3990   -0.2010   -1.0000 C   0  0  0  0  0  0  0  0  0  0  0  0
   -4.6620    1.0130   -1.5970 O   0  0  0  0  0  0  0  0  0  0  0  0
   -4.0380   -0.2380    0.4280 C   0  0  1  0  0  0  0  0  0  0  0  0
   -3.8070   -1.5390    0.8600 O   0  0  0  0  0  0  0  0  0  0  0  0
   -2.8930    0.6860    0.7640 C   0  0  0  0  0  0  0  0  0  0  0  0
   -1.6270    0.2510    0.1410 N   0  0  0  0  0  0  0  0  0  0  0  0
   -0.4820    0.9740    0.4550 C   0  0  0  0  0  0  0  0  0  0  0  0
   -0.6690    2.3130    0.8700 C   0  0  0  0  0  0  0  0  0  0  0  0
    0.3640    3.1900    1.0790 C   0  0  0  0  0  0  0  0  0  0  0  0
    1.6540    2.7970    0.8900 C   0  0  0  0  0  0  0  0  0  0  0  0
    1.8610    1.4880    0.4870 C   0  0  0  0  0  0  0  0  0  0  0  0
    3.2030    1.1370    0.3340 C   0  0  0  0  0  0  0  0  0  0  0  0
    4.2080    2.0650    0.5520 O   0  0  0  0  0  0  0  0  0  0  0  0
    3.4810   -0.1480   -0.0360 C   0  0  0  0  0  0  0  0  0  0  0  0
    4.8950   -0.6330   -0.2190 C   0  0  0  0  0  0  0  0  0  0  0  0
    2.4600   -1.0210   -0.2380 C   0  0  0  0  0  0  0  0  0  0  0  0
    2.7800   -2.4230   -0.6620 C   0  0  0  0  0  0  0  0  0  0  0  0
    1.0990   -0.7100   -0.0940 C   0  0  0  0  0  0  0  0  0  0  0  0
    0.0710   -1.7640   -0.2440 C   0  0  0  0  0  0  0  0  0  0  0  0
    0.8270    0.5900    0.2740 C   0  0  0  0  0  0  0  0  0  0  0  0
  1  2  2  0
  2  3  1  0
  2  4  1  0
  4  5  1  6
  4  6  1  0
  6  7  1  0
  7  8  1  0
  8  9  2  0
  8 21  1  0
  9 10  1  0
 10 11  2  0
 11 12  1  0
 12 13  2  0
 12 21  1  0
 13 14  1  0
 13 15  1  0
 15 16  1  0
 15 17  2  0
 17 18  1  0
 17 19  1  0
 19 20  1  0
 19 21  2  0
M  END
