
     RDKit          3D

 21 22  0  0  0  0  0  0  0  0999 V2000
    6.6910    0.1220   -0.1010 C   0  0  0  0  0  0  0  0  0  0  0  0
    5.3020    0.7010   -0.1690 C   0  0  0  0  0  0  0  0  0  0  0  0
    4.2480   -0.0700    0.0280 C   0  0  0  0  0  0  0  0  0  0  0  0
    4.4250   -1.5120    0.3180 C   0  0  0  0  0  0  0  0  0  0  0  0
    2.9920    0.5080   -0.0450 O   0  0  0  0  0  0  0  0  0  0  0  0
    1.8070   -0.1470    0.1330 C   0  0  0  0  0  0  0  0  0  0  0  0
    1.8380   -1.3770    0.3840 O   0  0  0  0  0  0  0  0  0  0  0  0
    0.4960    0.5060    0.0470 C   0  0  0  0  0  0  0  0  0  0  0  0
    0.3840    1.8490   -0.2240 C   0  0  0  0  0  0  0  0  0  0  0  0
   -0.8290    2.4850   -0.3090 C   0  0  0  0  0  0  0  0  0  0  0  0
   -0.9770    3.8620   -0.5850 N   0  0  0  0  0  0  0  0  0  0  0  0
   -1.9770    1.7150   -0.1080 C   0  0  0  0  0  0  0  0  0  0  0  0
   -1.9190    0.3680    0.1660 C   0  0  0  0  0  0  0  0  0  0  0  0
   -3.1450   -0.3970    0.3700 C   0  0  0  0  0  0  0  0  0  0  0  0
   -4.2810    0.1520    0.9270 C   0  0  0  0  0  0  0  0  0  0  0  0
   -5.4300   -0.5890    1.1110 C   0  0  0  0  0  0  0  0  0  0  0  0
   -5.4920   -1.9250    0.7400 C   0  0  0  0  0  0  0  0  0  0  0  0
   -6.6670   -2.6430    0.9400 O   0  0  0  0  0  0  0  0  0  0  0  0
   -4.3550   -2.4720    0.1830 C   0  0  0  0  0  0  0  0  0  0  0  0
   -3.2080   -1.7250    0.0020 C   0  0  0  0  0  0  0  0  0  0  0  0
   -0.6630   -0.2010    0.2350 C   0  0  0  0  0  0  0  0  0  0  0  0
  1  2  1  0
  2  3  2  3
  3  4  1  0
  3  5  1  0
  5  6  1  0
  6  7  2  0
  6  8  1  0
  8  9  2  0
  8 21  1  0
  9 10  1  0
 10 11  1  0
 10 12  2  0
 12 13  1  0
 13 14  1  0
 13 21  2  0
 14 15  2  0
 14 20  1  0
 15 16  1  0
 16 17  2  0
 17 18  1  0
 17 19  1  0
 19 20  2  0
M  END
