
     RDKit          3D

 21 24  0  0  0  0  0  0  0  0999 V2000
   -3.0770   -2.6730    0.8930 O   0  0  0  0  0  0  0  0  0  0  0  0
   -3.2340   -1.3660    0.4370 C   0  0  0  0  0  0  0  0  0  0  0  0
   -4.4020   -0.8350    0.2240 C   0  0  0  0  0  0  0  0  0  0  0  0
   -4.6360    0.5240   -0.2520 C   0  0  0  0  0  0  0  0  0  0  0  0
   -3.4480    1.3430   -0.5050 C   0  0  0  0  0  0  0  0  0  0  0  0
   -2.1610    0.6770   -0.2420 C   0  0  0  0  0  0  0  0  0  0  0  0
   -2.0260   -0.5400    0.1820 C   0  0  0  0  0  0  0  0  0  0  0  0
   -0.7100   -1.2140    0.4490 C   0  0  1  0  0  0  0  0  0  0  0  0
   -0.7120   -2.4100   -0.2690 O   0  0  0  0  0  0  0  0  0  0  0  0
    0.4340   -0.3720    0.1860 C   0  0  0  0  0  0  0  0  0  0  0  0
    1.6940   -0.9650    0.4240 C   0  0  0  0  0  0  0  0  0  0  0  0
    2.8200   -0.2140    0.1920 C   0  0  0  0  0  0  0  0  0  0  0  0
    4.0560   -0.7480    0.4090 C   0  0  0  0  0  0  0  0  0  0  0  0
    4.2400   -2.0390    0.8600 O   0  0  0  0  0  0  0  0  0  0  0  0
    5.1740    0.0600    0.1570 C   0  0  0  0  0  0  0  0  0  0  0  0
    5.0510    1.3510   -0.2920 C   0  0  0  0  0  0  0  0  0  0  0  0
    3.8050    1.8800   -0.5070 C   0  0  0  0  0  0  0  0  0  0  0  0
    2.6950    1.1060   -0.2670 C   0  0  0  0  0  0  0  0  0  0  0  0
    1.4580    1.6570   -0.4890 C   0  0  0  0  0  0  0  0  0  0  0  0
    0.2940    0.9120   -0.2610 C   0  0  0  0  0  0  0  0  0  0  0  0
   -0.9640    1.4850   -0.4910 N   0  0  0  0  0  0  0  0  0  0  0  0
  1  2  1  0
  2  3  2  0
  2  7  1  0
  3  4  1  0
  4  5  1  0
  5  6  1  0
  6  7  2  0
  6 21  1  0
  7  8  1  0
  8  9  1  6
  8 10  1  0
 10 11  2  0
 10 20  1  0
 11 12  1  0
 12 13  2  0
 12 18  1  0
 13 14  1  0
 13 15  1  0
 15 16  2  0
 16 17  1  0
 17 18  2  0
 18 19  1  0
 19 20  2  0
 20 21  1  0
M  END
