
     RDKit          3D

 43 45  0  0  0  0  0  0  0  0999 V2000
   -5.9760    2.7880    0.7690 C   0  0  0  0  0  0  0  0  0  0  0  0
   -4.9330    1.8350    1.3400 C   0  0  0  0  0  0  0  0  0  0  0  0
   -5.3410    0.5900    1.4570 N   0  0  0  0  0  0  0  0  0  0  0  0
   -4.6440   -0.5250    1.9420 C   0  0  0  0  0  0  0  0  0  0  0  0
   -3.5540   -1.0840    1.4330 C   0  0  0  0  0  0  0  0  0  0  0  0
   -2.8520   -0.7310    0.3380 O   0  0  0  0  0  0  0  0  0  0  0  0
   -2.9050   -0.9300   -1.0100 C   0  0  2  0  0  0  0  0  0  0  0  0
   -3.7390    0.0630   -1.7410 C   0  0  0  0  0  0  0  0  0  0  0  0
   -3.2800   -2.3410   -1.4410 C   0  0  0  0  0  0  0  0  0  0  0  0
   -4.4430   -2.8230   -0.9250 O   0  0  0  0  0  0  0  0  0  0  0  0
   -5.7370   -2.5230   -1.0040 C   0  0  0  0  0  0  0  0  0  0  0  0
   -6.1430   -1.5810   -1.7030 O   0  0  0  0  0  0  0  0  0  0  0  0
   -1.5060   -0.7840   -1.5750 C   0  0  0  0  0  0  0  0  0  0  0  0
   -1.4750   -0.6410   -2.8460 O   0  0  0  0  0  0  0  0  0  0  0  0
   -0.2900   -0.7910   -0.8830 N   0  0  0  0  0  0  0  0  0  0  0  0
    0.9440   -1.2090   -1.5800 C   0  0  0  0  0  0  0  0  0  0  0  0
    1.7590   -1.8510   -0.9720 N   0  0  0  0  0  0  0  0  0  0  0  0
    2.4660   -2.5350   -0.0750 C   0  0  0  0  0  0  0  0  0  0  0  0
    1.8780   -3.5490    0.8080 O   0  0  0  0  0  0  0  0  0  0  0  0
    3.7660   -2.4140    0.1570 C   0  0  0  0  0  0  0  0  0  0  0  0
    4.7970   -1.5860   -0.4070 C   0  0  0  0  0  0  0  0  0  0  0  0
    5.2810   -0.3860   -0.0480 C   0  0  0  0  0  0  0  0  0  0  0  0
    6.3920    0.1280   -0.9430 C   0  0  0  0  0  0  0  0  0  0  0  0
    6.9730    1.2750   -0.7210 C   0  0  0  0  0  0  0  0  0  0  0  0
    7.9780    1.7370   -1.5320 O   0  0  0  0  0  0  0  0  0  0  0  0
    6.8300   -0.6110   -2.0340 O   0  0  0  0  0  0  0  0  0  0  0  0
    7.9090   -1.3900   -1.9590 O   0  0  0  0  0  0  0  0  0  0  0  0
    4.8970    0.4230    1.0870 C   0  0  0  0  0  0  0  0  0  0  0  0
    5.8280    0.4110    2.0250 O   0  0  0  0  0  0  0  0  0  0  0  0
    3.7830    1.2220    1.4480 N   0  0  0  0  0  0  0  0  0  0  0  0
    2.7870    1.8480    0.6530 C   0  0  0  0  0  0  0  0  0  0  0  0
    2.9860    3.1440    0.3950 O   0  0  0  0  0  0  0  0  0  0  0  0
    1.6040    1.3360    0.0780 N   0  0  0  0  0  0  0  0  0  0  0  0
    0.3040    1.0680    0.6470 C   0  0  1  0  0  0  0  0  0  0  0  0
    0.1060    1.3370    2.0760 C   0  0  0  0  0  0  0  0  0  0  0  0
   -0.3290    2.5390    2.5270 O   0  0  0  0  0  0  0  0  0  0  0  0
   -1.6990    2.6090    2.4700 O   0  0  0  0  0  0  0  0  0  0  0  0
   -2.5060    2.3600    1.2920 C   0  0  0  0  0  0  0  0  0  0  0  0
   -3.6620    2.1360    1.7280 N   0  0  0  0  0  0  0  0  0  0  0  0
   -1.9310    2.4040    0.0170 N   0  0  0  0  0  0  0  0  0  0  0  0
   -0.6600    1.7700   -0.2850 C   0  0  0  0  0  0  0  0  0  0  0  0
   -0.2470    1.7720   -1.4690 O   0  0  0  0  0  0  0  0  0  0  0  0
   -0.0730   -0.4210    0.5040 C   0  0  0  0  0  0  0  0  0  0  0  0
  1  2  1  0
  2  3  2  0
  2 39  1  0
  3  4  1  0
  4  5  2  0
  5  6  1  0
  6  7  1  0
  7  8  1  6
  7  9  1  0
  7 13  1  0
  9 10  1  0
 10 11  1  0
 11 12  2  0
 13 14  2  0
 13 15  1  0
 15 16  1  0
 15 43  1  0
 16 17  2  0
 17 18  1  0
 18 19  1  0
 18 20  2  0
 20 21  1  0
 21 22  2  0
 22 23  1  0
 22 28  1  0
 23 24  2  3
 23 26  1  0
 24 25  1  0
 26 27  1  0
 28 29  2  0
 28 30  1  0
 30 31  1  0
 31 32  2  0
 31 33  1  0
 33 34  1  0
 34 35  1  1
 34 41  1  0
 34 43  1  0
 35 36  1  0
 36 37  1  0
 37 38  1  0
 38 39  2  0
 38 40  1  0
 40 41  1  0
 41 42  2  0
M  END
