
     RDKit          3D

 44 48  0  0  0  0  0  0  0  0999 V2000
   10.7940   -1.4740    0.5900 N   0  0  0  0  0  0  0  0  0  0  0  0
   10.5970   -0.2820   -0.1360 C   0  0  0  0  0  0  0  0  0  0  0  0
   11.6020    0.4470   -0.3670 O   0  0  0  0  0  0  0  0  0  0  0  0
    9.2560    0.0710   -0.5910 C   0  0  0  0  0  0  0  0  0  0  0  0
    8.2470   -0.7180   -0.3250 C   0  0  0  0  0  0  0  0  0  0  0  0
    6.9110   -0.4330   -0.7410 N   0  0  0  0  0  0  0  0  0  0  0  0
    5.8250   -1.3390   -0.4210 C   0  0  2  0  0  0  0  0  0  0  0  0
    4.6180   -0.8590   -0.8380 O   0  0  0  0  0  0  0  0  0  0  0  0
    3.7350   -0.7770    0.2030 C   0  0  2  0  0  0  0  0  0  0  0  0
    2.7210    0.3300    0.0050 C   0  0  0  0  0  0  0  0  0  0  0  0
    1.8900    0.3050    1.1230 O   0  0  0  0  0  0  0  0  0  0  0  0
    0.6880    1.5030    1.0640 P   0  0  2  0  0  0  0  0  0  0  0  0
    1.2020    2.5940    0.1560 O   0  0  0  0  0  0  0  0  0  0  0  0
    0.4010    2.1320    2.6150 O   0  0  0  0  0  0  0  0  0  0  0  0
   -0.7690    0.8390    0.5400 O   0  0  0  0  0  0  0  0  0  0  0  0
   -0.8210    0.9120   -1.1400 P   0  0  1  0  0  0  0  0  0  0  0  0
    0.1460    1.9730   -1.6010 O   0  0  0  0  0  0  0  0  0  0  0  0
   -0.3590   -0.5870   -1.8100 O   0  0  0  0  0  0  0  0  0  0  0  0
   -2.3640    1.3310   -1.6950 O   0  0  0  0  0  0  0  0  0  0  0  0
   -3.2850    0.3630   -1.3000 C   0  0  0  0  0  0  0  0  0  0  0  0
   -4.6830    0.7000   -1.7740 C   0  0  1  0  0  0  0  0  0  0  0  0
   -5.5300   -0.2930   -1.3510 O   0  0  0  0  0  0  0  0  0  0  0  0
   -6.7120    0.3030   -0.9330 C   0  0  1  0  0  0  0  0  0  0  0  0
   -7.3900   -0.6250   -0.0560 N   0  0  0  0  0  0  0  0  0  0  0  0
   -6.8160   -1.5960    0.7080 C   0  0  0  0  0  0  0  0  0  0  0  0
   -7.7570   -2.2640    1.3940 N   0  0  0  0  0  0  0  0  0  0  0  0
   -8.9570   -1.7450    1.0940 C   0  0  0  0  0  0  0  0  0  0  0  0
  -10.2410   -2.0410    1.5020 C   0  0  0  0  0  0  0  0  0  0  0  0
  -10.5080   -3.0750    2.4200 N   0  0  0  0  0  0  0  0  0  0  0  0
  -11.2700   -1.3260    1.0130 N   0  0  0  0  0  0  0  0  0  0  0  0
  -11.0240   -0.3340    0.1320 C   0  0  0  0  0  0  0  0  0  0  0  0
   -9.7720   -0.0460   -0.2660 N   0  0  0  0  0  0  0  0  0  0  0  0
   -8.7090   -0.7300    0.1930 C   0  0  0  0  0  0  0  0  0  0  0  0
   -6.2180    1.5380   -0.1880 C   0  0  2  0  0  0  0  0  0  0  0  0
   -7.2110    2.4800   -0.0650 O   0  0  0  0  0  0  0  0  0  0  0  0
   -5.0890    1.9860   -1.0990 C   0  0  2  0  0  0  0  0  0  0  0  0
   -5.6160    2.9190   -1.9990 O   0  0  0  0  0  0  0  0  0  0  0  0
    4.6250   -0.4940    1.3960 C   0  0  1  0  0  0  0  0  0  0  0  0
    4.0010   -0.7860    2.6000 O   0  0  0  0  0  0  0  0  0  0  0  0
    5.7750   -1.4320    1.0990 C   0  0  1  0  0  0  0  0  0  0  0  0
    5.4330   -2.7110    1.4670 O   0  0  0  0  0  0  0  0  0  0  0  0
    6.7350    0.7720   -1.4710 C   0  0  0  0  0  0  0  0  0  0  0  0
    7.7220    1.5810   -1.7530 C   0  0  0  0  0  0  0  0  0  0  0  0
    9.0990    1.3210   -1.3430 C   0  0  0  0  0  0  0  0  0  0  0  0
  1  2  1  0
  2  3  2  0
  2  4  1  0
  4  5  2  0
  4 44  1  0
  5  6  1  0
  7  6  1  1
  6 42  1  0
  7  8  1  0
  7 40  1  0
  8  9  1  0
  9 10  1  6
  9 38  1  0
 10 11  1  0
 11 12  1  0
 12 13  2  0
 12 14  1  1
 12 15  1  0
 15 16  1  0
 16 17  2  0
 16 18  1  6
 16 19  1  0
 19 20  1  0
 21 20  1  1
 21 22  1  0
 21 36  1  0
 22 23  1  0
 23 24  1  1
 23 34  1  0
 24 25  1  0
 24 33  1  0
 25 26  2  0
 26 27  1  0
 27 28  2  0
 27 33  1  0
 28 29  1  0
 28 30  1  0
 30 31  2  0
 31 32  1  0
 32 33  2  0
 34 35  1  6
 34 36  1  0
 36 37  1  6
 38 39  1  1
 38 40  1  0
 40 41  1  6
 42 43  2  0
 43 44  1  0
M  END
