
     RDKit          3D

 43 46  0  0  0  0  0  0  0  0999 V2000
   -8.2730    2.1370   -0.3310 O   0  0  0  0  0  0  0  0  0  0  0  0
   -7.2440    2.7290    0.0280 C   0  0  0  0  0  0  0  0  0  0  0  0
   -7.3040    4.1000    0.3210 O   0  0  0  0  0  0  0  0  0  0  0  0
   -5.9790    2.0580    0.1560 N   0  0  0  0  0  0  0  0  0  0  0  0
   -5.9500    0.6650   -0.0580 C   0  0  0  0  0  0  0  0  0  0  0  0
   -7.1180   -0.0870   -0.0690 N   0  0  0  0  0  0  0  0  0  0  0  0
   -6.7630   -1.3540   -0.1120 C   0  0  0  0  0  0  0  0  0  0  0  0
   -7.6970   -2.4020   -0.1320 O   0  0  0  0  0  0  0  0  0  0  0  0
   -5.4720   -1.4220   -0.1310 O   0  0  0  0  0  0  0  0  0  0  0  0
   -4.9200   -0.2020   -0.1030 C   0  0  0  0  0  0  0  0  0  0  0  0
   -3.4930    0.0290   -0.1440 C   0  0  0  0  0  0  0  0  0  0  0  0
   -2.7090   -1.0100    0.0710 N   0  0  0  0  0  0  0  0  0  0  0  0
   -1.3170   -1.0330   -0.0090 C   0  0  0  0  0  0  0  0  0  0  0  0
   -0.6810    0.0450   -0.3220 N   0  0  0  0  0  0  0  0  0  0  0  0
   -1.3430    1.2330   -0.5870 C   0  0  0  0  0  0  0  0  0  0  0  0
   -0.6990    2.3310   -0.9110 C   0  0  0  0  0  0  0  0  0  0  0  0
    0.7560    2.4230   -1.0240 C   0  0  0  0  0  0  0  0  0  0  0  0
    1.2800    3.1990   -1.9500 C   0  0  0  0  0  0  0  0  0  0  0  0
    0.4970    3.9510   -2.8430 O   0  0  0  0  0  0  0  0  0  0  0  0
    1.6700    1.6710   -0.1330 C   0  0  2  0  0  0  0  0  0  0  0  0
    1.3110    1.8390    1.2170 O   0  0  0  0  0  0  0  0  0  0  0  0
    2.9790    2.0520   -0.3590 O   0  0  0  0  0  0  0  0  0  0  0  0
    3.4050    3.0850    0.4740 C   0  0  0  0  0  0  0  0  0  0  0  0
    4.3480    2.6020    1.5180 C   0  0  0  0  0  0  0  0  0  0  0  0
    4.3420    3.2580    2.6080 O   0  0  0  0  0  0  0  0  0  0  0  0
    5.2130    1.4870    1.3480 N   0  0  0  0  0  0  0  0  0  0  0  0
    5.9260    1.1680    0.1360 C   0  0  0  0  0  0  0  0  0  0  0  0
    6.0320   -0.3230   -0.1150 C   0  0  0  0  0  0  0  0  0  0  0  0
    4.7380   -0.9330   -0.2080 N   0  0  0  0  0  0  0  0  0  0  0  0
    4.1650   -1.3340   -1.4920 C   0  0  0  0  0  0  0  0  0  0  0  0
    4.6260   -1.2270   -2.6470 O   0  0  0  0  0  0  0  0  0  0  0  0
    2.9120   -1.9070   -1.2370 O   0  0  0  0  0  0  0  0  0  0  0  0
    3.1250   -2.5110    0.0610 C   0  0  2  0  0  0  0  0  0  0  0  0
    1.7750   -2.8270    0.5980 C   0  0  0  0  0  0  0  0  0  0  0  0
    0.6620   -2.5600   -0.3890 C   0  0  0  0  0  0  0  0  0  0  0  0
   -0.5840   -2.2480    0.2540 N   0  0  0  0  0  0  0  0  0  0  0  0
   -1.1370   -3.1760    1.1990 C   0  0  0  0  0  0  0  0  0  0  0  0
   -1.5610   -4.4200    0.4350 C   0  0  0  0  0  0  0  0  0  0  0  0
   -2.1080   -5.3590    1.3060 O   0  0  0  0  0  0  0  0  0  0  0  0
    3.7770   -1.2980    0.7200 C   0  0  0  0  0  0  0  0  0  0  0  0
    3.3040   -0.9710    1.8470 O   0  0  0  0  0  0  0  0  0  0  0  0
   -2.8310    1.2420   -0.5000 C   0  0  0  0  0  0  0  0  0  0  0  0
   -3.3800    2.3140   -0.7550 O   0  0  0  0  0  0  0  0  0  0  0  0
  1  2  2  0
  2  3  1  0
  2  4  1  0
  4  5  1  0
  5  6  1  0
  5 10  2  0
  6  7  2  0
  7  8  1  0
  7  9  1  0
  9 10  1  0
 10 11  1  0
 11 12  2  0
 11 42  1  0
 12 13  1  0
 13 14  2  0
 13 36  1  0
 14 15  1  0
 15 16  2  0
 15 42  1  0
 16 17  1  0
 17 18  2  3
 17 20  1  0
 18 19  1  0
 20 21  1  1
 20 22  1  0
 22 23  1  0
 23 24  1  0
 24 25  2  0
 24 26  1  0
 26 27  1  0
 27 28  1  0
 28 29  1  0
 29 30  1  0
 29 40  1  0
 30 31  2  0
 30 32  1  0
 32 33  1  0
 33 34  1  1
 33 40  1  0
 34 35  1  0
 35 36  1  0
 36 37  1  0
 37 38  1  0
 38 39  1  0
 40 41  2  0
 42 43  2  0
M  END
