
     RDKit          3D

 43 45  0  0  0  0  0  0  0  0999 V2000
    5.8590   -3.2430    0.0980 C   0  0  0  0  0  0  0  0  0  0  0  0
    6.0490   -2.0060   -0.7680 C   0  0  1  0  0  0  0  0  0  0  0  0
    7.4040   -1.3940   -0.3860 C   0  0  0  0  0  0  0  0  0  0  0  0
    6.0330   -2.2980   -2.2330 C   0  0  0  0  0  0  0  0  0  0  0  0
    5.0700   -1.0670   -0.3620 O   0  0  0  0  0  0  0  0  0  0  0  0
    3.7530   -1.4130   -0.4160 C   0  0  0  0  0  0  0  0  0  0  0  0
    3.4130   -2.5350   -0.8120 O   0  0  0  0  0  0  0  0  0  0  0  0
    2.7640   -0.4800   -0.0040 N   0  0  0  0  0  0  0  0  0  0  0  0
    3.1160    0.8620    0.3700 C   0  0  0  0  0  0  0  0  0  0  0  0
    4.2170    1.2990   -0.1410 O   0  0  0  0  0  0  0  0  0  0  0  0
    2.4200    1.7440    1.2130 N   0  0  0  0  0  0  0  0  0  0  0  0
    1.1210    2.3280    1.0450 C   0  0  0  0  0  0  0  0  0  0  0  0
    0.3290    2.0160    2.0470 O   0  0  0  0  0  0  0  0  0  0  0  0
    0.6280    3.1270    0.0230 N   0  0  0  0  0  0  0  0  0  0  0  0
    0.6610    4.5730   -0.1370 C   0  0  0  0  0  0  0  0  0  0  0  0
   -0.6240    5.2720    0.0810 C   0  0  0  0  0  0  0  0  0  0  0  0
   -1.7510    4.5100    0.1680 O   0  0  0  0  0  0  0  0  0  0  0  0
   -2.7920    4.9690   -0.6520 C   0  0  0  0  0  0  0  0  0  0  0  0
   -4.0580    4.3890   -0.0660 C   0  0  0  0  0  0  0  0  0  0  0  0
   -4.5440    5.2240    0.9920 O   0  0  0  0  0  0  0  0  0  0  0  0
   -4.6570    3.3660   -0.3800 N   0  0  0  0  0  0  0  0  0  0  0  0
   -4.7750    2.2650   -1.1520 C   0  0  0  0  0  0  0  0  0  0  0  0
   -5.1860    2.4010   -2.3830 O   0  0  0  0  0  0  0  0  0  0  0  0
   -4.5270    0.9170   -0.8730 O   0  0  0  0  0  0  0  0  0  0  0  0
   -3.4630    0.4640   -0.0520 C   0  0  2  0  0  0  0  0  0  0  0  0
   -2.2680    1.2680   -0.5160 C   0  0  0  0  0  0  0  0  0  0  0  0
   -1.6710    0.5210   -1.7180 C   0  0  0  0  0  0  0  0  0  0  0  0
   -0.7870   -0.4290   -1.1080 N   0  0  0  0  0  0  0  0  0  0  0  0
    0.5970   -0.6730   -1.2300 C   0  0  0  0  0  0  0  0  0  0  0  0
    1.3560   -0.7710   -2.2000 O   0  0  0  0  0  0  0  0  0  0  0  0
    1.4310   -0.8770    0.0260 C   0  0  1  0  0  0  0  0  0  0  0  0
    1.1470   -2.3380    0.3320 C   0  0  0  0  0  0  0  0  0  0  0  0
   -0.0530   -2.5460    0.9970 O   0  0  0  0  0  0  0  0  0  0  0  0
   -1.1730   -2.5590    0.1450 C   0  0  0  0  0  0  0  0  0  0  0  0
   -1.6180   -1.1660   -0.1580 C   0  0  2  0  0  0  0  0  0  0  0  0
   -3.1050   -0.9770   -0.1900 C   0  0  1  0  0  0  0  0  0  0  0  0
   -3.4830   -1.6280    1.0390 N   0  0  0  0  0  0  0  0  0  0  0  0
   -4.3630   -2.8070    1.1050 C   0  0  0  0  0  0  0  0  0  0  0  0
   -4.9250   -3.2260    0.1980 O   0  0  0  0  0  0  0  0  0  0  0  0
   -4.2850   -3.2510    2.5420 N   0  0  0  0  0  0  0  0  0  0  0  0
   -5.2900   -4.6330    2.3370 C   0  0  0  0  0  0  0  0  0  0  0  0
   -5.7070   -4.8080    1.2700 O   0  0  0  0  0  0  0  0  0  0  0  0
   -5.4420   -5.3310    3.4930 O   0  0  0  0  0  0  0  0  0  0  0  0
  2  1  1  1
  2  3  1  0
  2  4  1  0
  2  5  1  0
  5  6  1  0
  6  7  2  0
  6  8  1  0
  8  9  1  0
  8 31  1  0
  9 10  2  0
  9 11  1  0
 11 12  1  0
 12 13  2  0
 12 14  1  0
 14 15  1  0
 15 16  1  0
 16 17  1  0
 17 18  1  0
 18 19  1  0
 19 20  1  0
 19 21  2  0
 21 22  1  0
 22 23  2  0
 22 24  1  0
 25 24  1  6
 25 26  1  0
 25 36  1  0
 26 27  1  0
 27 28  1  0
 28 29  1  0
 28 35  1  0
 29 30  2  0
 29 31  1  0
 31 32  1  6
 32 33  1  0
 33 34  1  0
 35 34  1  6
 35 36  1  0
 36 37  1  1
 37 38  1  0
 38 39  2  0
 38 40  1  0
 40 41  1  0
 41 42  2  0
 41 43  1  0
M  END
