
     RDKit          3D

 43 46  0  0  0  0  0  0  0  0999 V2000
   -2.2850   -4.5010   -0.6540 C   0  0  0  0  0  0  0  0  0  0  0  0
   -1.8910   -3.5550   -1.6550 O   0  0  0  0  0  0  0  0  0  0  0  0
   -1.8860   -2.2470   -1.2860 N   0  0  0  0  0  0  0  0  0  0  0  0
   -0.9150   -1.5450   -0.9050 C   0  0  0  0  0  0  0  0  0  0  0  0
   -0.9480   -0.1590   -0.5220 C   0  0  0  0  0  0  0  0  0  0  0  0
   -1.8040    0.8600   -0.4480 C   0  0  0  0  0  0  0  0  0  0  0  0
   -3.1460    0.6420   -0.8700 C   0  0  0  0  0  0  0  0  0  0  0  0
   -4.0450    1.6200   -0.9220 C   0  0  0  0  0  0  0  0  0  0  0  0
   -3.7660    2.9730   -0.5610 C   0  0  0  0  0  0  0  0  0  0  0  0
   -4.7550    3.9020   -0.6460 C   0  0  0  0  0  0  0  0  0  0  0  0
   -6.0400    3.5510   -1.0810 N   0  0  0  0  0  0  0  0  0  0  0  0
   -3.7360   -0.5700   -1.2690 O   0  0  0  0  0  0  0  0  0  0  0  0
   -4.5800   -1.3380   -0.4570 C   0  0  0  0  0  0  0  0  0  0  0  0
   -5.8040   -0.7240    0.0930 C   0  0  0  0  0  0  0  0  0  0  0  0
   -5.6340    0.3570    0.9320 O   0  0  0  0  0  0  0  0  0  0  0  0
   -6.7770    0.8040    1.3480 O   0  0  0  0  0  0  0  0  0  0  0  0
   -1.2190    2.0630    0.0940 O   0  0  0  0  0  0  0  0  0  0  0  0
   -0.8780    2.0560    1.5040 C   0  0  0  0  0  0  0  0  0  0  0  0
    0.4660    2.4000    1.8880 C   0  0  0  0  0  0  0  0  0  0  0  0
    1.0280    3.4050    1.3590 O   0  0  0  0  0  0  0  0  0  0  0  0
    1.2120    1.6520    2.8580 N   0  0  0  0  0  0  0  0  0  0  0  0
    1.4640    0.2360    2.7770 C   0  0  0  0  0  0  0  0  0  0  0  0
    1.2320   -0.7920    3.5940 N   0  0  0  0  0  0  0  0  0  0  0  0
    1.6780   -1.9120    3.0030 N   0  0  0  0  0  0  0  0  0  0  0  0
    2.1800   -1.5830    1.8350 C   0  0  0  0  0  0  0  0  0  0  0  0
    2.0300   -0.2730    1.7400 O   0  0  0  0  0  0  0  0  0  0  0  0
    2.8370   -2.2340    0.6390 C   0  0  1  0  0  0  0  0  0  0  0  0
    2.2200   -3.4780    0.1290 C   0  0  0  0  0  0  0  0  0  0  0  0
    1.1430   -3.1900   -0.9060 C   0  0  0  0  0  0  0  0  0  0  0  0
    0.8780   -3.9820   -1.7910 O   0  0  0  0  0  0  0  0  0  0  0  0
    0.4270   -1.9800   -0.8390 N   0  0  0  0  0  0  0  0  0  0  0  0
    1.1740   -0.8280   -0.4360 C   0  0  0  0  0  0  0  0  0  0  0  0
    0.4660    0.1550   -0.2520 N   0  0  0  0  0  0  0  0  0  0  0  0
    2.6320   -1.0850   -0.4030 C   0  0  1  0  0  0  0  0  0  0  0  0
    3.3120    0.0230    0.0480 O   0  0  0  0  0  0  0  0  0  0  0  0
    4.3630    0.6630   -0.6110 C   0  0  0  0  0  0  0  0  0  0  0  0
    4.7290    0.2150   -1.6920 O   0  0  0  0  0  0  0  0  0  0  0  0
    4.9270    1.7320   -0.0460 O   0  0  0  0  0  0  0  0  0  0  0  0
    5.9520    2.5450   -0.4230 C   0  0  0  0  0  0  0  0  0  0  0  0
    7.2920    1.8870   -0.4410 C   0  0  0  0  0  0  0  0  0  0  0  0
    7.4190    0.7850   -1.3850 C   0  0  0  0  0  0  0  0  0  0  0  0
    7.4240    1.0870   -2.6250 O   0  0  0  0  0  0  0  0  0  0  0  0
    7.5380   -0.5600   -0.9940 O   0  0  0  0  0  0  0  0  0  0  0  0
  1  2  1  0
  2  3  1  0
  3  4  2  3
  4  5  1  0
  4 31  1  0
  5  6  2  0
  5 33  1  0
  6  7  1  0
  6 17  1  0
  7  8  2  3
  7 12  1  0
  8  9  1  0
  9 10  2  3
 10 11  1  0
 12 13  1  0
 13 14  1  0
 14 15  1  0
 15 16  1  0
 17 18  1  0
 18 19  1  0
 19 20  2  0
 19 21  1  0
 21 22  1  0
 22 23  2  0
 22 26  1  0
 23 24  1  0
 24 25  2  0
 25 26  1  0
 25 27  1  0
 27 28  1  6
 27 34  1  0
 28 29  1  0
 29 30  2  0
 29 31  1  0
 31 32  1  0
 32 33  2  0
 32 34  1  0
 34 35  1  1
 35 36  1  0
 36 37  2  0
 36 38  1  0
 38 39  1  0
 39 40  1  0
 40 41  1  0
 41 42  2  0
 41 43  1  0
M  END
