
     RDKit          3D

 16 16  0  0  0  0  0  0  0  0999 V2000
    0.6250    1.1140   -1.0030 O   0  0  0  0  0  0  0  0  0  0  0  0
    0.7910    0.0190   -0.3960 C   0  0  0  0  0  0  0  0  0  0  0  0
   -0.3300   -0.7320   -0.0110 N   0  0  0  0  0  0  0  0  0  0  0  0
   -1.6800   -0.3850   -0.2490 C   0  0  0  0  0  0  0  0  0  0  0  0
   -2.5150   -0.1370    0.7420 C   0  0  0  0  0  0  0  0  0  0  0  0
   -2.0380   -0.2200    2.1460 C   0  0  0  0  0  0  0  0  0  0  0  0
   -2.1930    1.1050    2.8610 C   0  0  0  0  0  0  0  0  0  0  0  0
   -1.7280    0.9500    4.1640 O   0  0  0  0  0  0  0  0  0  0  0  0
   -2.1600   -0.3060   -1.6150 C   0  0  0  0  0  0  0  0  0  0  0  0
   -3.5150    0.0480   -1.8190 O   0  0  0  0  0  0  0  0  0  0  0  0
   -1.4330   -0.5400   -2.6760 C   0  0  0  0  0  0  0  0  0  0  0  0
   -1.9860   -0.4370   -3.9340 O   0  0  0  0  0  0  0  0  0  0  0  0
    2.1350   -0.3730   -0.1480 N   0  0  0  0  0  0  0  0  0  0  0  0
    3.2280    0.4530   -0.5760 C   0  0  1  0  0  0  0  0  0  0  0  0
    4.5670    0.3920    0.0110 C   0  0  0  0  0  0  0  0  0  0  0  0
    4.3380   -0.3590   -1.2730 C   0  0  0  0  0  0  0  0  0  0  0  0
  1  2  2  0
  2  3  1  0
  2 13  1  0
  3  4  1  0
  4  5  2  3
  4  9  1  0
  5  6  1  0
  6  7  1  0
  7  8  1  0
  9 10  1  0
  9 11  2  3
 11 12  1  0
 14 13  1  1
 14 15  1  0
 14 16  1  0
 15 16  1  0
M  END
