
     RDKit          3D

 25 27  0  0  0  0  0  0  0  0999 V2000
    2.0490   -4.0740    0.1420 C   0  0  0  0  0  0  0  0  0  0  0  0
    3.0000   -2.9220    0.1350 C   0  0  0  0  0  0  0  0  0  0  0  0
    4.3340   -3.0900    0.2160 O   0  0  0  0  0  0  0  0  0  0  0  0
    4.8850   -1.9290    0.1840 N   0  0  0  0  0  0  0  0  0  0  0  0
    3.9620   -0.9610    0.0830 C   0  0  0  0  0  0  0  0  0  0  0  0
    4.1420    0.4780    0.0120 C   0  0  0  0  0  0  0  0  0  0  0  0
    3.5900    1.3540    0.9300 C   0  0  0  0  0  0  0  0  0  0  0  0
    3.7970    2.7200    0.8480 C   0  0  0  0  0  0  0  0  0  0  0  0
    4.5790    3.2380   -0.1810 C   0  0  0  0  0  0  0  0  0  0  0  0
    5.1270    2.3510   -1.0960 C   0  0  0  0  0  0  0  0  0  0  0  0
    4.9170    0.9830   -1.0100 C   0  0  0  0  0  0  0  0  0  0  0  0
    5.6700   -0.0260   -2.2290 Cl  0  0  0  0  0  0  0  0  0  0  0  0
    2.7140   -1.5890    0.0490 C   0  0  0  0  0  0  0  0  0  0  0  0
    1.4440   -0.8810   -0.0420 C   0  0  0  0  0  0  0  0  0  0  0  0
    1.4230    0.3390   -0.3830 O   0  0  0  0  0  0  0  0  0  0  0  0
    0.1830   -1.4330    0.2250 N   0  0  0  0  0  0  0  0  0  0  0  0
   -1.0830   -0.8380    0.1540 C   0  0  0  0  0  0  0  0  0  0  0  0
   -1.4060    0.3610   -0.3850 C   0  0  0  0  0  0  0  0  0  0  0  0
   -2.7170    0.8420   -0.3720 C   0  0  0  0  0  0  0  0  0  0  0  0
   -3.7440    0.1300    0.1860 C   0  0  0  0  0  0  0  0  0  0  0  0
   -5.1300    0.6670    0.1870 C   0  0  2  0  0  0  0  0  0  0  0  0
   -5.5860    0.7760   -1.2640 C   0  0  0  0  0  0  0  0  0  0  0  0
   -5.1360    2.0580    0.7690 C   0  0  0  0  0  0  0  0  0  0  0  0
   -3.4420   -1.0790    0.7340 C   0  0  0  0  0  0  0  0  0  0  0  0
   -2.1640   -1.5490    0.7220 C   0  0  0  0  0  0  0  0  0  0  0  0
  1  2  1  0
  2  3  1  0
  2 13  2  0
  3  4  1  0
  4  5  2  0
  5  6  1  0
  5 13  1  0
  6  7  2  0
  6 11  1  0
  7  8  1  0
  8  9  2  0
  9 10  1  0
 10 11  2  0
 11 12  1  0
 13 14  1  0
 14 15  2  0
 14 16  1  0
 16 17  1  0
 17 18  2  0
 17 25  1  0
 18 19  1  0
 19 20  2  0
 20 21  1  0
 20 24  1  0
 21 22  1  6
 21 23  1  0
 24 25  2  0
M  END
