
     RDKit          3D

 10 10  0  0  0  0  0  0  0  0999 V2000
   -0.1420   -0.2800    1.6050 N   0  0  0  0  0  0  0  0  0  0  0  0
   -0.4540   -0.0300    0.2290 C   0  0  2  0  0  0  0  0  0  0  0  0
   -1.3000    1.1970    0.0340 C   0  0  0  0  0  0  0  0  0  0  0  0
   -1.5850    1.4140   -1.3030 O   0  0  0  0  0  0  0  0  0  0  0  0
   -1.1130   -1.2760   -0.3240 C   0  0  0  0  0  0  0  0  0  0  0  0
    0.0530   -1.9620   -1.0030 C   0  0  0  0  0  0  0  0  0  0  0  0
    1.2120   -1.2830   -0.5790 O   0  0  0  0  0  0  0  0  0  0  0  0
    0.7970    0.0270   -0.6250 C   0  0  2  0  0  0  0  0  0  0  0  0
    1.8070    1.0120   -0.1000 C   0  0  0  0  0  0  0  0  0  0  0  0
    2.1460    0.7910    1.2190 O   0  0  0  0  0  0  0  0  0  0  0  0
  2  1  1  1
  2  3  1  0
  2  5  1  0
  2  8  1  0
  3  4  1  0
  5  6  1  0
  6  7  1  0
  7  8  1  0
  8  9  1  1
  9 10  1  0
M  CHG  1   1   1
M  END
