
     RDKit          3D

 10 10  0  0  0  0  0  0  0  0999 V2000
   -1.6570   -1.7650    0.2960 N   0  0  0  0  0  0  0  0  0  0  0  0
   -1.3790   -0.4000    0.6470 C   0  0  2  0  0  0  0  0  0  0  0  0
   -2.5640    0.5050    0.5890 C   0  0  0  0  0  0  0  0  0  0  0  0
   -2.4850    1.1790   -0.6230 O   0  0  0  0  0  0  0  0  0  0  0  0
   -1.1200    1.4080   -0.8250 C   0  0  0  0  0  0  0  0  0  0  0  0
   -0.3920    0.1910   -0.3380 C   0  0  1  0  0  0  0  0  0  0  0  0
    0.8310    0.4610    0.2400 O   0  0  0  0  0  0  0  0  0  0  0  0
    1.8110   -0.2330   -0.4450 C   0  0  0  0  0  0  0  0  0  0  0  0
    3.1950   -0.0010    0.1150 C   0  0  0  0  0  0  0  0  0  0  0  0
    3.5030    1.3610    0.0400 O   0  0  0  0  0  0  0  0  0  0  0  0
  2  1  1  6
  2  3  1  0
  2  6  1  0
  3  4  1  0
  4  5  1  0
  5  6  1  0
  6  7  1  1
  7  8  1  0
  8  9  1  0
  9 10  1  0
M  CHG  1   1   1
M  END
