
     RDKit          3D

 10 10  0  0  0  0  0  0  0  0999 V2000
    2.7930    0.6430    1.7180 O   0  0  0  0  0  0  0  0  0  0  0  0
    2.6500    0.3120    0.3720 C   0  0  0  0  0  0  0  0  0  0  0  0
    1.5400   -0.6750    0.1390 C   0  0  2  0  0  0  0  0  0  0  0  0
    1.4930   -0.9290   -1.2350 O   0  0  0  0  0  0  0  0  0  0  0  0
    0.1890   -0.1160    0.5530 C   0  0  2  0  0  0  0  0  0  0  0  0
   -0.8260   -1.1990    0.3880 C   0  0  0  0  0  0  0  0  0  0  0  0
   -2.1250   -0.6720    0.6880 N   0  0  0  0  0  0  0  0  0  0  0  0
   -2.4120    0.5810    0.0870 C   0  0  0  0  0  0  0  0  0  0  0  0
   -1.2860    1.2270   -0.6290 C   0  0  0  0  0  0  0  0  0  0  0  0
   -0.0460    1.0280   -0.1310 O   0  0  0  0  0  0  0  0  0  0  0  0
  1  2  1  0
  2  3  1  0
  3  4  1  6
  3  5  1  0
  5  6  1  6
  5 10  1  0
  6  7  1  0
  7  8  1  0
  8  9  1  0
  9 10  1  0
M  CHG  1   7   1
M  END
