
     RDKit          3D

 23 23  0  0  0  0  0  0  0  0999 V2000
    6.7440   -0.6440    2.2100 C   0  0  0  0  0  0  0  0  0  0  0  0
    6.5770    0.5240    1.4440 O   0  0  0  0  0  0  0  0  0  0  0  0
    5.8040    0.2710    0.3270 C   0  0  0  0  0  0  0  0  0  0  0  0
    5.6800    1.5860   -0.4340 C   0  0  0  0  0  0  0  0  0  0  0  0
    4.8930    1.4250   -1.6120 O   0  0  0  0  0  0  0  0  0  0  0  0
    3.5390    0.9800   -1.4520 C   0  0  0  0  0  0  0  0  0  0  0  0
    3.2640   -0.2130   -2.1230 N   0  0  0  0  0  0  0  0  0  0  0  0
    2.7000    1.6580   -0.7450 C   0  0  0  0  0  0  0  0  0  0  0  0
    1.3240    1.4950   -0.3990 C   0  0  0  0  0  0  0  0  0  0  0  0
    0.8180    2.4300    0.3640 O   0  0  0  0  0  0  0  0  0  0  0  0
    0.4700    0.4250   -0.8020 C   0  0  0  0  0  0  0  0  0  0  0  0
    0.8200   -0.5090   -1.5120 O   0  0  0  0  0  0  0  0  0  0  0  0
   -0.9140    0.3650   -0.3870 N   0  0  0  0  0  0  0  0  0  0  0  0
   -1.7630   -0.6940   -0.7850 C   0  0  2  0  0  0  0  0  0  0  0  0
   -2.9650   -0.2750   -1.5920 C   0  0  0  0  0  0  0  0  0  0  0  0
   -3.9070    0.6230   -0.8250 C   0  0  0  0  0  0  0  0  0  0  0  0
   -4.0250    0.2080    0.5390 N   0  0  1  0  0  0  0  0  0  0  0  0
   -5.3720    0.5060    0.9920 C   0  0  0  0  0  0  0  0  0  0  0  0
   -5.5970    1.8610    0.7430 O   0  0  0  0  0  0  0  0  0  0  0  0
   -6.7990    2.2410    1.1190 O   0  0  0  0  0  0  0  0  0  0  0  0
   -3.7570   -1.1920    0.6440 C   0  0  0  0  0  0  0  0  0  0  0  0
   -2.2760   -1.4720    0.4060 C   0  0  1  0  0  0  0  0  0  0  0  0
   -2.1720   -2.8970    0.1650 N   0  0  0  0  0  0  0  0  0  0  0  0
  1  2  1  0
  2  3  1  0
  3  4  1  0
  4  5  1  0
  5  6  1  0
  6  7  1  0
  6  8  2  3
  8  9  1  0
  9 10  2  0
  9 11  1  0
 11 12  2  0
 11 13  1  0
 14 13  1  1
 14 15  1  0
 14 22  1  0
 15 16  1  0
 16 17  1  0
 17 18  1  6
 17 21  1  0
 18 19  1  0
 19 20  1  0
 21 22  1  0
 22 23  1  6
M  CHG  2  17   1  23   1
M  END
