
     RDKit          3D

  8  8  0  0  0  0  0  0  0  0999 V2000
   -2.2610   -0.6140   -0.0360 C   0  0  0  0  0  0  0  0  0  0  0  0
   -0.8990   -0.0610    0.0430 C   0  0  0  0  0  0  0  0  0  0  0  0
   -0.6650    1.2860    0.1610 C   0  0  0  0  0  0  0  0  0  0  0  0
    0.6170    1.7880    0.2330 C   0  0  0  0  0  0  0  0  0  0  0  0
    1.6730    0.8880    0.1850 C   0  0  0  0  0  0  0  0  0  0  0  0
    1.4830   -0.4700    0.0680 C   0  0  0  0  0  0  0  0  0  0  0  0
    2.8450   -1.6150    0.0060 S   0  0  0  0  0  0  0  0  0  0  0  0
    0.1780   -0.9130   -0.0010 C   0  0  0  0  0  0  0  0  0  0  0  0
  1  2  1  0
  2  3  2  0
  2  8  1  0
  3  4  1  0
  4  5  2  0
  5  6  1  0
  6  7  1  0
  6  8  2  0
M  END
