
     RDKit          3D

 23 23  0  0  0  0  0  0  0  0999 V2000
    5.2230    2.1440   -0.3450 N   0  0  0  0  0  0  0  0  0  0  0  0
    5.0870    1.1940    0.7190 C   0  0  0  0  0  0  0  0  0  0  0  0
    5.3290   -0.2230    0.3070 C   0  0  0  0  0  0  0  0  0  0  0  0
    4.4530   -0.7090   -0.7050 N   0  0  0  0  0  0  0  0  0  0  0  0
    3.3530   -1.5060   -0.1750 C   0  0  0  0  0  0  0  0  0  0  0  0
    2.1050   -0.6820   -0.2920 C   0  0  0  0  0  0  0  0  0  0  0  0
    0.8810   -1.3880    0.2220 C   0  0  2  0  0  0  0  0  0  0  0  0
   -0.2920   -0.4190    0.0310 C   0  0  0  0  0  0  0  0  0  0  0  0
   -1.5740   -1.0400    0.5210 C   0  0  0  0  0  0  0  0  0  0  0  0
   -2.6150   -0.1750    0.3680 O   0  0  0  0  0  0  0  0  0  0  0  0
   -2.8820    0.2140   -0.9170 C   0  0  0  0  0  0  0  0  0  0  0  0
   -4.0740    1.1420   -0.8890 C   0  0  0  0  0  0  0  0  0  0  0  0
   -4.4840    1.6130   -1.9700 O   0  0  0  0  0  0  0  0  0  0  0  0
   -4.6570    1.4250    0.3570 N   0  0  0  0  0  0  0  0  0  0  0  0
   -5.7920    2.2710    0.5270 C   0  0  0  0  0  0  0  0  0  0  0  0
   -7.0120    1.7220   -0.1270 C   0  0  0  0  0  0  0  0  0  0  0  0
   -6.8790    1.5580   -1.4650 O   0  0  0  0  0  0  0  0  0  0  0  0
    0.9910   -1.8220    1.5780 N   0  0  0  0  0  0  0  0  0  0  0  0
    0.2880   -3.0580    1.6710 C   0  0  0  0  0  0  0  0  0  0  0  0
   -0.0820   -3.6770    2.6910 O   0  0  0  0  0  0  0  0  0  0  0  0
    0.0470   -3.5230    0.3810 O   0  0  0  0  0  0  0  0  0  0  0  0
    0.5730   -2.6240   -0.5160 C   0  0  0  0  0  0  0  0  0  0  0  0
    0.7560   -2.8170   -1.7290 O   0  0  0  0  0  0  0  0  0  0  0  0
  1  2  1  0
  2  3  1  0
  3  4  1  0
  4  5  1  0
  5  6  1  0
  7  6  1  6
  7  8  1  0
  7 18  1  0
  7 22  1  0
  8  9  1  0
  9 10  1  0
 10 11  1  0
 11 12  1  0
 12 13  2  0
 12 14  1  0
 14 15  1  0
 15 16  1  0
 16 17  1  0
 18 19  1  0
 19 20  2  0
 19 21  1  0
 21 22  1  0
 22 23  2  0
M  CHG  2   1   1   4   1
M  END
