
     RDKit          3D

 18 19  0  0  0  0  0  0  0  0999 V2000
    2.6980   -2.9510    0.1370 N   0  0  0  0  0  0  0  0  0  0  0  0
    1.5080   -2.1990    0.3140 C   0  0  0  0  0  0  0  0  0  0  0  0
    0.5460   -2.8500    0.7650 O   0  0  0  0  0  0  0  0  0  0  0  0
    1.5180   -0.7890   -0.0330 C   0  0  0  0  0  0  0  0  0  0  0  0
    2.6240   -0.2300   -0.5120 C   0  0  0  0  0  0  0  0  0  0  0  0
    2.7240    1.1330   -0.8770 N   0  0  0  0  0  0  0  0  0  0  0  0
    1.7350    1.9490   -0.7720 C   0  0  0  0  0  0  0  0  0  0  0  0
    0.4450    1.4380   -0.2480 C   0  0  0  0  0  0  0  0  0  0  0  0
   -0.5680    2.2590   -0.1490 C   0  0  0  0  0  0  0  0  0  0  0  0
   -0.4690    3.6440   -0.5310 N   0  0  0  0  0  0  0  0  0  0  0  0
   -1.8410    1.7690    0.3480 C   0  0  0  0  0  0  0  0  0  0  0  0
   -2.9320    2.3970    0.0960 O   0  0  0  0  0  0  0  0  0  0  0  0
   -1.8180    0.5350    1.1440 C   0  0  0  0  0  0  0  0  0  0  0  0
   -0.8300   -0.5010    0.6510 C   0  0  1  0  0  0  0  0  0  0  0  0
   -1.4410   -1.3350   -0.4290 C   0  0  0  0  0  0  0  0  0  0  0  0
   -2.6640   -2.0530   -0.1980 N   0  0  0  0  0  0  0  0  0  0  0  0
   -0.9190   -1.4450   -1.5760 O   0  0  0  0  0  0  0  0  0  0  0  0
    0.3760    0.0780    0.1090 N   0  0  0  0  0  0  0  0  0  0  0  0
  1  2  1  0
  2  3  2  0
  2  4  1  0
  4  5  2  0
  4 18  1  0
  5  6  1  0
  6  7  2  0
  7  8  1  0
  8  9  2  0
  8 18  1  0
  9 10  1  0
  9 11  1  0
 11 12  2  0
 11 13  1  0
 13 14  1  0
 14 15  1  6
 14 18  1  0
 15 16  1  0
 15 17  2  0
M  END
