
     RDKit          3D

 18 19  0  0  0  0  0  0  0  0999 V2000
   -2.2320    2.6120   -0.2800 C   0  0  0  0  0  0  0  0  0  0  0  0
   -1.3430    1.4320   -0.7090 C   0  0  2  0  0  0  0  0  0  0  0  0
   -0.9290    1.6120   -1.9970 O   0  0  0  0  0  0  0  0  0  0  0  0
   -2.2470    0.2260   -0.6970 C   0  0  0  0  0  0  0  0  0  0  0  0
   -3.4540    0.2070   -1.3120 N   0  0  0  0  0  0  0  0  0  0  0  0
   -4.0360   -0.9720   -1.1590 N   0  0  0  0  0  0  0  0  0  0  0  0
   -3.1920   -1.7560   -0.4350 C   0  0  0  0  0  0  0  0  0  0  0  0
   -3.4110   -2.9470   -0.0960 O   0  0  0  0  0  0  0  0  0  0  0  0
   -2.1090   -0.9740   -0.1760 N   0  0  0  0  0  0  0  0  0  0  0  0
   -0.2960    1.2960    0.3230 C   0  0  1  0  0  0  0  0  0  0  0  0
   -0.8670    1.0970    1.6390 N   0  0  0  0  0  0  0  0  0  0  0  0
    0.7510    0.2700    0.0900 C   0  0  0  0  0  0  0  0  0  0  0  0
    1.3370    0.0620   -1.0650 C   0  0  0  0  0  0  0  0  0  0  0  0
    2.3770   -0.9920   -1.2150 C   0  0  0  0  0  0  0  0  0  0  0  0
    3.2240   -0.8820    0.0630 C   0  0  2  0  0  0  0  0  0  0  0  0
    4.4510   -1.6020   -0.0600 N   0  0  0  0  0  0  0  0  0  0  0  0
    2.3330   -1.3080    1.1870 C   0  0  0  0  0  0  0  0  0  0  0  0
    1.1550   -0.5370    1.1650 O   0  0  0  0  0  0  0  0  0  0  0  0
  2  1  1  1
  2  3  1  0
  2  4  1  0
  2 10  1  0
  4  5  2  0
  4  9  1  0
  5  6  1  0
  6  7  1  0
  7  8  2  0
  7  9  1  0
 10 11  1  1
 10 12  1  0
 12 13  2  0
 12 18  1  0
 13 14  1  0
 14 15  1  0
 15 16  1  6
 15 17  1  0
 17 18  1  0
M  END
