
     RDKit          3D

 18 19  0  0  0  0  0  0  0  0999 V2000
    4.1040    1.6560    2.0830 N   0  0  0  0  0  0  0  0  0  0  0  0
    3.3850    0.9260    1.0960 C   0  0  0  0  0  0  0  0  0  0  0  0
    2.0990    0.5650    1.2440 N   0  0  0  0  0  0  0  0  0  0  0  0
    1.4060   -0.1120    0.3460 N   0  0  0  0  0  0  0  0  0  0  0  0
    0.0470   -0.4390    0.6130 C   0  0  2  0  0  0  0  0  0  0  0  0
   -0.2950   -1.8880    0.4510 C   0  0  0  0  0  0  0  0  0  0  0  0
   -1.5480   -1.9790   -0.3970 C   0  0  0  0  0  0  0  0  0  0  0  0
   -2.6050   -1.1470    0.3420 C   0  0  0  0  0  0  0  0  0  0  0  0
   -2.2910    0.2880    0.0770 C   0  0  2  0  0  0  0  0  0  0  0  0
   -2.6320    1.0590    1.1920 O   0  0  0  0  0  0  0  0  0  0  0  0
   -3.1130    0.8170   -1.0940 C   0  0  0  0  0  0  0  0  0  0  0  0
   -2.8200    2.1580   -1.3250 O   0  0  0  0  0  0  0  0  0  0  0  0
   -0.8220    0.4510   -0.2800 C   0  0  0  0  0  0  0  0  0  0  0  0
    1.9810   -0.4970   -0.8260 C   0  0  0  0  0  0  0  0  0  0  0  0
    1.3040   -1.1390   -1.6640 O   0  0  0  0  0  0  0  0  0  0  0  0
    3.2990   -0.1400   -1.0050 C   0  0  0  0  0  0  0  0  0  0  0  0
    3.8300   -0.4950   -2.0890 O   0  0  0  0  0  0  0  0  0  0  0  0
    3.9710    0.5530   -0.0610 N   0  0  0  0  0  0  0  0  0  0  0  0
  1  2  1  0
  2  3  2  0
  2 18  1  0
  3  4  1  0
  5  4  1  6
  4 14  1  0
  5  6  1  0
  5 13  1  0
  6  7  1  0
  7  8  1  0
  8  9  1  0
  9 10  1  1
  9 11  1  0
  9 13  1  0
 11 12  1  0
 14 15  2  0
 14 16  1  0
 16 17  2  0
 16 18  1  0
M  END
