
     RDKit          3D

 19 20  0  0  0  0  0  0  0  0999 V2000
   -1.8850   -3.3150    0.1380 N   0  0  0  0  0  0  0  0  0  0  0  0
   -0.7260   -2.5500   -0.1150 C   0  0  0  0  0  0  0  0  0  0  0  0
   -0.7040   -1.2640    0.1810 C   0  0  0  0  0  0  0  0  0  0  0  0
   -1.8060   -0.6460    0.7370 O   0  0  0  0  0  0  0  0  0  0  0  0
   -2.8080   -0.0010    0.0080 C   0  0  0  0  0  0  0  0  0  0  0  0
   -3.8390    0.5460    0.9710 C   0  0  0  0  0  0  0  0  0  0  0  0
   -4.9280    1.2470    0.1760 C   0  0  0  0  0  0  0  0  0  0  0  0
   -4.3260    2.2720   -0.5370 O   0  0  0  0  0  0  0  0  0  0  0  0
    0.4870   -0.5470   -0.0880 N   0  0  0  0  0  0  0  0  0  0  0  0
    0.9370    0.7720    0.1560 N   0  0  0  0  0  0  0  0  0  0  0  0
    2.3180    0.5810    0.5660 C   0  0  2  0  0  0  0  0  0  0  0  0
    3.2430    1.4960   -0.1840 C   0  0  1  0  0  0  0  0  0  0  0  0
    2.9430    2.8390    0.0180 O   0  0  0  0  0  0  0  0  0  0  0  0
    4.6640    1.1690    0.2370 C   0  0  0  0  0  0  0  0  0  0  0  0
    4.7890    1.4660    1.5890 O   0  0  0  0  0  0  0  0  0  0  0  0
    2.6820   -0.7910    0.1760 N   0  0  0  0  0  0  0  0  0  0  0  0
    1.6380   -1.1510   -0.7570 C   0  0  1  0  0  0  0  0  0  0  0  0
    1.4920   -2.5370   -1.0170 N   0  0  0  0  0  0  0  0  0  0  0  0
    0.4310   -3.2140   -0.7430 C   0  0  0  0  0  0  0  0  0  0  0  0
  1  2  1  0
  2  3  2  0
  2 19  1  0
  3  4  1  0
  3  9  1  0
  4  5  1  0
  5  6  1  0
  6  7  1  0
  7  8  1  0
  9 10  1  0
  9 17  1  0
 11 10  1  6
 11 12  1  0
 11 16  1  0
 12 13  1  1
 12 14  1  0
 14 15  1  0
 17 16  1  1
 17 18  1  0
 18 19  2  0
M  END
