
     RDKit          3D

 20 21  0  0  0  0  0  0  0  0999 V2000
    0.1640   -2.6970    1.5370 O   0  0  0  0  0  0  0  0  0  0  0  0
    0.9860   -2.2510    0.6590 C   0  0  0  0  0  0  0  0  0  0  0  0
    0.4280   -1.3620   -0.2860 N   0  0  0  0  0  0  0  0  0  0  0  0
   -0.9350   -1.0090   -0.2230 N   0  0  0  0  0  0  0  0  0  0  0  0
   -1.3490    0.2770    0.2440 C   0  0  0  0  0  0  0  0  0  0  0  0
   -0.4050    1.0440    0.5870 O   0  0  0  0  0  0  0  0  0  0  0  0
   -2.7220    0.7050    0.3330 C   0  0  0  0  0  0  0  0  0  0  0  0
   -3.8460    0.0010   -0.0100 C   0  0  0  0  0  0  0  0  0  0  0  0
   -4.9340    0.8320    0.2550 C   0  0  0  0  0  0  0  0  0  0  0  0
   -6.3070    0.5910    0.0800 N   0  0  0  0  0  0  0  0  0  0  0  0
   -6.8970    0.9220   -1.0840 O   0  0  0  0  0  0  0  0  0  0  0  0
   -4.4480    1.9830    0.7380 N   0  0  0  0  0  0  0  0  0  0  0  0
   -3.1370    1.8950    0.7790 N   0  0  0  0  0  0  0  0  0  0  0  0
    2.6880   -2.7270    0.6550 S   0  0  0  0  0  0  0  0  0  0  0  0
    3.7350   -1.8370   -0.4690 C   0  0  0  0  0  0  0  0  0  0  0  0
    3.9860   -0.4180   -0.1090 C   0  0  0  0  0  0  0  0  0  0  0  0
    3.3350    0.7110   -0.5260 C   0  0  0  0  0  0  0  0  0  0  0  0
    3.9650    1.7930    0.1140 C   0  0  0  0  0  0  0  0  0  0  0  0
    4.9500    1.2390    0.8690 C   0  0  0  0  0  0  0  0  0  0  0  0
    4.9620   -0.0610    0.7370 O   0  0  0  0  0  0  0  0  0  0  0  0
  1  2  2  0
  2  3  1  0
  2 14  1  0
  3  4  1  0
  4  5  1  0
  5  6  2  0
  5  7  1  0
  7  8  2  0
  7 13  1  0
  8  9  1  0
  9 10  1  0
  9 12  2  0
 10 11  1  0
 12 13  1  0
 14 15  1  0
 15 16  1  0
 16 17  2  0
 16 20  1  0
 17 18  1  0
 18 19  2  0
 19 20  1  0
M  CHG  1  11  -1
M  END
