
     RDKit          3D

 14 15  0  0  0  0  0  0  0  0999 V2000
    4.8830   -0.0220    1.0250 C   0  0  0  0  0  0  0  0  0  0  0  0
    3.7240    0.2900    0.4350 C   0  0  0  0  0  0  0  0  0  0  0  0
    3.2250   -0.6520   -0.5960 C   0  0  0  0  0  0  0  0  0  0  0  0
    2.0010   -1.2260   -0.3620 O   0  0  0  0  0  0  0  0  0  0  0  0
    0.7510   -0.7300   -0.2290 C   0  0  0  0  0  0  0  0  0  0  0  0
   -0.3250   -1.5890    0.0320 C   0  0  0  0  0  0  0  0  0  0  0  0
   -1.6080   -1.1070    0.1700 C   0  0  0  0  0  0  0  0  0  0  0  0
   -2.7690   -1.9890    0.4470 C   0  0  0  0  0  0  0  0  0  0  0  0
   -1.8640    0.2440    0.0540 C   0  0  0  0  0  0  0  0  0  0  0  0
   -0.8300    1.1060   -0.2020 C   0  0  0  0  0  0  0  0  0  0  0  0
    0.4670    0.5960   -0.3390 C   0  0  0  0  0  0  0  0  0  0  0  0
   -1.3230    2.4040   -0.2770 O   0  0  0  0  0  0  0  0  0  0  0  0
   -2.6520    2.4580    0.1490 C   0  0  0  0  0  0  0  0  0  0  0  0
   -3.1110    1.0300    0.1520 C   0  0  0  0  0  0  0  0  0  0  0  0
  1  2  2  0
  2  3  1  0
  3  4  1  0
  4  5  1  0
  5  6  2  0
  5 11  1  0
  6  7  1  0
  7  8  1  0
  7  9  2  0
  9 10  1  0
  9 14  1  0
 10 11  2  0
 10 12  1  0
 12 13  1  0
 13 14  1  0
M  END
