
     RDKit          3D

 14 15  0  0  0  0  0  0  0  0999 V2000
   -4.2630    0.6320    1.9160 O   0  0  0  0  0  0  0  0  0  0  0  0
   -3.5520    0.1630    0.8350 C   0  0  0  0  0  0  0  0  0  0  0  0
   -4.2140   -0.3760   -0.2550 C   0  0  0  0  0  0  0  0  0  0  0  0
   -3.4810   -0.8320   -1.3100 C   0  0  0  0  0  0  0  0  0  0  0  0
   -2.1120   -0.7610   -1.2990 C   0  0  0  0  0  0  0  0  0  0  0  0
   -1.4370   -0.2240   -0.2160 C   0  0  0  0  0  0  0  0  0  0  0  0
   -0.0520   -0.1980   -0.3020 O   0  0  0  0  0  0  0  0  0  0  0  0
    0.7630    0.3190    0.7240 C   0  0  0  0  0  0  0  0  0  0  0  0
    2.1940    0.1750    0.2660 C   0  0  0  0  0  0  0  0  0  0  0  0
    3.1290   -0.5140    0.8780 C   0  0  0  0  0  0  0  0  0  0  0  0
    4.3770   -0.4020    0.1150 C   0  0  0  0  0  0  0  0  0  0  0  0
    4.0420    0.4510   -1.0330 C   0  0  0  0  0  0  0  0  0  0  0  0
    2.7730    0.7740   -0.9260 C   0  0  0  0  0  0  0  0  0  0  0  0
   -2.1630    0.2320    0.8380 C   0  0  0  0  0  0  0  0  0  0  0  0
  1  2  1  0
  2  3  2  0
  2 14  1  0
  3  4  1  0
  4  5  2  0
  5  6  1  0
  6  7  1  0
  6 14  2  0
  7  8  1  0
  8  9  1  0
  9 10  2  0
  9 13  1  0
 10 11  1  0
 11 12  1  0
 12 13  2  0
M  END
