
     RDKit          3D

 17 18  0  0  0  0  0  0  0  0999 V2000
   -3.5940   -0.1650    1.1870 O   0  0  0  0  0  0  0  0  0  0  0  0
   -3.0620   -0.6250    0.1390 C   0  0  0  0  0  0  0  0  0  0  0  0
   -3.1600   -2.0070   -0.0340 O   0  0  0  0  0  0  0  0  0  0  0  0
   -2.3770    0.2650   -0.8350 C   0  0  0  0  0  0  0  0  0  0  0  0
   -1.1210    0.8210   -0.2220 C   0  0  0  0  0  0  0  0  0  0  0  0
   -1.1230    1.9940    0.4900 C   0  0  0  0  0  0  0  0  0  0  0  0
   -0.0090    2.4870    1.1240 C   0  0  0  0  0  0  0  0  0  0  0  0
   -0.1070    3.5740    1.7560 O   0  0  0  0  0  0  0  0  0  0  0  0
    1.0960    1.7940    1.0300 O   0  0  0  0  0  0  0  0  0  0  0  0
    1.1940    0.6620    0.3700 C   0  0  0  0  0  0  0  0  0  0  0  0
    2.3980   -0.0300    0.3010 C   0  0  0  0  0  0  0  0  0  0  0  0
    3.5290    0.4510    0.9330 O   0  0  0  0  0  0  0  0  0  0  0  0
    2.5360   -1.2250   -0.3960 C   0  0  0  0  0  0  0  0  0  0  0  0
    3.7420   -1.9160   -0.4670 O   0  0  0  0  0  0  0  0  0  0  0  0
    1.4230   -1.7180   -1.0300 C   0  0  0  0  0  0  0  0  0  0  0  0
    0.2070   -1.0580   -0.9830 C   0  0  0  0  0  0  0  0  0  0  0  0
    0.0820    0.1240   -0.2890 C   0  0  0  0  0  0  0  0  0  0  0  0
  1  2  2  0
  2  3  1  0
  2  4  1  0
  4  5  1  0
  5  6  2  0
  5 17  1  0
  6  7  1  0
  7  8  2  0
  7  9  1  0
  9 10  1  0
 10 11  2  0
 10 17  1  0
 11 12  1  0
 11 13  1  0
 13 14  1  0
 13 15  2  0
 15 16  1  0
 16 17  2  0
M  END
