
     RDKit          3D

 13 14  0  0  0  0  0  0  0  0999 V2000
    4.1630    0.0560   -0.1430 C   0  0  0  0  0  0  0  0  0  0  0  0
    3.0100    0.7790   -0.5270 O   0  0  0  0  0  0  0  0  0  0  0  0
    1.7400    0.2690   -0.2980 C   0  0  0  0  0  0  0  0  0  0  0  0
    1.6160   -0.9620    0.3120 C   0  0  0  0  0  0  0  0  0  0  0  0
    0.3390   -1.4410    0.5250 C   0  0  0  0  0  0  0  0  0  0  0  0
   -0.7730   -0.7210    0.1440 C   0  0  0  0  0  0  0  0  0  0  0  0
   -2.0450   -1.2010    0.3580 C   0  0  0  0  0  0  0  0  0  0  0  0
   -3.1730   -0.4780   -0.0250 C   0  0  0  0  0  0  0  0  0  0  0  0
   -3.0430    0.7530   -0.6360 C   0  0  0  0  0  0  0  0  0  0  0  0
   -4.1930    1.4400   -1.0000 O   0  0  0  0  0  0  0  0  0  0  0  0
   -1.7700    1.2400   -0.8520 C   0  0  0  0  0  0  0  0  0  0  0  0
   -0.6450    0.5090   -0.4660 C   0  0  0  0  0  0  0  0  0  0  0  0
    0.6250    1.0010   -0.6850 C   0  0  0  0  0  0  0  0  0  0  0  0
  1  2  1  0
  2  3  1  0
  3  4  2  0
  3 13  1  0
  4  5  1  0
  5  6  2  0
  6  7  1  0
  6 12  1  0
  7  8  2  0
  8  9  1  0
  9 10  1  0
  9 11  2  0
 11 12  1  0
 12 13  2  0
M  END
