
     RDKit          3D

 14 15  0  0  0  0  0  0  0  0999 V2000
    4.6410   -0.6580    0.8470 O   0  0  0  0  0  0  0  0  0  0  0  0
    4.0720   -0.1520   -0.3190 C   0  0  0  0  0  0  0  0  0  0  0  0
    2.5900   -0.0950   -0.2380 C   0  0  0  0  0  0  0  0  0  0  0  0
    1.8440   -1.1720   -0.6470 C   0  0  0  0  0  0  0  0  0  0  0  0
    0.4430   -1.1360   -0.5780 C   0  0  0  0  0  0  0  0  0  0  0  0
   -0.1820   -0.0200   -0.0990 C   0  0  0  0  0  0  0  0  0  0  0  0
   -1.6240    0.0430   -0.0170 C   0  0  0  0  0  0  0  0  0  0  0  0
   -2.2890    1.0820    0.4320 C   0  0  0  0  0  0  0  0  0  0  0  0
   -3.7560    1.1160    0.5030 C   0  0  0  0  0  0  0  0  0  0  0  0
   -4.4180   -0.0220    0.0660 O   0  0  0  0  0  0  0  0  0  0  0  0
   -3.7460   -1.1310   -0.4120 C   0  0  0  0  0  0  0  0  0  0  0  0
   -2.4050   -1.1030   -0.4530 C   0  0  0  0  0  0  0  0  0  0  0  0
    0.5950    1.0410    0.3030 C   0  0  0  0  0  0  0  0  0  0  0  0
    1.9710    1.0310    0.2450 C   0  0  0  0  0  0  0  0  0  0  0  0
  1  2  1  0
  2  3  1  0
  3  4  2  0
  3 14  1  0
  4  5  1  0
  5  6  2  0
  6  7  1  0
  6 13  1  0
  7  8  2  0
  7 12  1  0
  8  9  1  0
  9 10  1  0
 10 11  1  0
 11 12  2  0
 13 14  2  0
M  END
