
     RDKit          3D

 18 19  0  0  0  0  0  0  0  0999 V2000
    5.8800    0.2110    1.5000 C   0  0  0  0  0  0  0  0  0  0  0  0
    4.8640   -0.1200    0.4650 C   0  0  2  0  0  0  0  0  0  0  0  0
    5.0890    0.6200   -0.8420 C   0  0  0  0  0  0  0  0  0  0  0  0
    3.4690    0.0400    0.9520 C   0  0  0  0  0  0  0  0  0  0  0  0
    3.1950    0.3220    2.1520 O   0  0  0  0  0  0  0  0  0  0  0  0
    2.3640   -0.1210    0.0700 N   0  0  0  0  0  0  0  0  0  0  0  0
    0.9870    0.0300    0.5440 C   0  0  0  0  0  0  0  0  0  0  0  0
    0.0810   -0.1820   -0.6350 C   0  0  0  0  0  0  0  0  0  0  0  0
   -1.3530   -0.0590   -0.2800 C   0  0  0  0  0  0  0  0  0  0  0  0
   -1.9440    0.0910    0.9060 N   0  0  0  0  0  0  0  0  0  0  0  0
   -3.2640    0.1580    0.7810 N   0  0  0  0  0  0  0  0  0  0  0  0
   -3.5630    0.0510   -0.5220 C   0  0  0  0  0  0  0  0  0  0  0  0
   -2.3640   -0.0870   -1.2130 C   0  0  0  0  0  0  0  0  0  0  0  0
   -2.3160   -0.2230   -2.6170 N   0  0  0  0  0  0  0  0  0  0  0  0
   -4.9930    0.1000   -0.9190 C   0  0  0  0  0  0  0  0  0  0  0  0
   -5.8940   -1.0260    0.2120 S   0  0  0  0  0  0  0  0  0  0  0  0
   -5.1340   -0.9180    1.8700 C   0  0  0  0  0  0  0  0  0  0  0  0
   -4.2580    0.3180    1.8310 C   0  0  0  0  0  0  0  0  0  0  0  0
  2  1  1  1
  2  3  1  0
  2  4  1  0
  4  5  2  0
  4  6  1  0
  6  7  1  0
  7  8  1  0
  8  9  1  0
  9 10  2  0
  9 13  1  0
 10 11  1  0
 11 12  1  0
 11 18  1  0
 12 13  2  0
 12 15  1  0
 13 14  1  0
 15 16  1  0
 16 17  1  0
 17 18  1  0
M  END
