
     RDKit          3D

 11 11  0  0  0  0  0  0  0  0999 V2000
    0.3080    2.3800    0.5280 N   0  0  0  0  0  0  0  0  0  0  0  0
   -0.4380    1.2060    0.2140 C   0  0  0  0  0  0  0  0  0  0  0  0
   -1.7570    1.4250    0.1910 C   0  0  0  0  0  0  0  0  0  0  0  0
   -2.7720    0.4400   -0.0940 N   0  0  0  0  0  0  0  0  0  0  0  0
   -2.7090   -0.7550   -0.5600 C   0  0  0  0  0  0  0  0  0  0  0  0
   -1.5180   -1.4910   -0.9550 C   0  0  0  0  0  0  0  0  0  0  0  0
   -0.2290   -1.1730   -0.7250 C   0  0  0  0  0  0  0  0  0  0  0  0
    0.3190   -0.0190   -0.0260 C   0  0  0  0  0  0  0  0  0  0  0  0
    1.5460   -0.0660    0.4100 C   0  0  0  0  0  0  0  0  0  0  0  0
    2.5250   -1.1390    0.3180 C   0  0  0  0  0  0  0  0  0  0  0  0
    2.8670   -1.4850    1.6360 F   0  0  0  0  0  0  0  0  0  0  0  0
  1  2  1  0
  2  3  2  0
  2  8  1  0
  3  4  1  0
  4  5  2  0
  5  6  1  0
  6  7  2  0
  7  8  1  0
  8  9  2  3
  9 10  1  0
 10 11  1  0
M  END
