
     RDKit          3D

 31 32  0  0  0  0  0  0  0  0999 V2000
   -3.8800    4.3220   -0.3790 O   0  0  0  0  0  0  0  0  0  0  0  0
   -2.7160    3.8460   -0.2550 C   0  0  0  0  0  0  0  0  0  0  0  0
   -2.6670    2.4710    0.3630 C   0  0  0  0  0  0  0  0  0  0  0  0
   -2.3870    1.4150   -0.6590 C   0  0  2  0  0  0  0  0  0  0  0  0
   -3.1330    1.7370   -1.8090 O   0  0  0  0  0  0  0  0  0  0  0  0
   -2.7150    0.0310   -0.2450 C   0  0  0  0  0  0  0  0  0  0  0  0
   -1.7420   -0.5970    0.5040 O   0  0  0  0  0  0  0  0  0  0  0  0
   -0.6450   -1.0390   -0.2450 C   0  0  2  0  0  0  0  0  0  0  0  0
   -0.7650   -2.5330   -0.4530 C   0  0  2  0  0  0  0  0  0  0  0  0
    0.3030   -3.0330   -1.1990 O   0  0  0  0  0  0  0  0  0  0  0  0
   -1.9060   -2.8540   -1.1700 O   0  0  0  0  0  0  0  0  0  0  0  0
   -2.8930   -3.2880   -0.3270 C   0  0  0  0  0  0  0  0  0  0  0  0
   -2.3230   -3.4020    1.0600 C   0  0  0  0  0  0  0  0  0  0  0  0
   -0.8530   -3.3530    0.7720 C   0  0  1  0  0  0  0  0  0  0  0  0
   -0.4780   -4.6740    0.4200 O   0  0  0  0  0  0  0  0  0  0  0  0
   -0.0050   -2.9670    1.9240 C   0  0  0  0  0  0  0  0  0  0  0  0
   -0.2640   -3.8910    2.9650 O   0  0  0  0  0  0  0  0  0  0  0  0
    0.4870   -0.6770    0.4320 O   0  0  0  0  0  0  0  0  0  0  0  0
    1.2820    0.2970   -0.2090 C   0  0  2  0  0  0  0  0  0  0  0  0
    2.6060   -0.3310   -0.4690 C   0  0  0  0  0  0  0  0  0  0  0  0
    3.6700    0.4500   -1.1380 C   0  0  1  0  0  0  0  0  0  0  0  0
    3.2520    0.9660   -2.3820 O   0  0  0  0  0  0  0  0  0  0  0  0
    4.5970    1.2760   -0.3660 C   0  0  0  0  0  0  0  0  0  0  0  0
    4.9840    0.5960    0.7900 O   0  0  0  0  0  0  0  0  0  0  0  0
    1.3240    1.5180    0.6030 C   0  0  1  0  0  0  0  0  0  0  0  0
    2.3300    1.5900    1.5420 O   0  0  0  0  0  0  0  0  0  0  0  0
    1.2730    2.8130   -0.1630 C   0  0  0  0  0  0  0  0  0  0  0  0
    0.4570    3.7790    0.6200 C   0  0  0  0  0  0  0  0  0  0  0  0
    0.6560    3.6640    1.8630 O   0  0  0  0  0  0  0  0  0  0  0  0
   -0.3790    4.6520    0.0210 O   0  0  0  0  0  0  0  0  0  0  0  0
   -1.5500    4.5420   -0.6610 N   0  0  0  0  0  0  0  0  0  0  0  0
  1  2  2  0
  2  3  1  0
  2 31  1  0
  3  4  1  0
  4  5  1  6
  4  6  1  0
  6  7  1  0
  8  7  1  1
  8  9  1  0
  8 18  1  0
  9 10  1  6
  9 11  1  0
  9 14  1  0
 11 12  1  0
 12 13  1  0
 13 14  1  0
 14 15  1  6
 14 16  1  0
 16 17  1  0
 18 19  1  0
 19 20  1  1
 19 25  1  0
 20 21  1  0
 21 22  1  6
 21 23  1  0
 23 24  1  0
 25 26  1  6
 25 27  1  0
 27 28  1  0
 28 29  2  0
 28 30  1  0
 30 31  1  0
M  END
