
     RDKit          3D

 32 36  0  0  0  0  0  0  0  0999 V2000
   -2.2510   -3.8240   -0.7900 C   0  0  0  0  0  0  0  0  0  0  0  0
   -2.7380   -2.4300   -1.0950 C   0  0  0  0  0  0  0  0  0  0  0  0
   -2.1640   -1.4670   -0.2450 O   0  0  0  0  0  0  0  0  0  0  0  0
   -2.4160   -0.1260   -0.2900 C   0  0  0  0  0  0  0  0  0  0  0  0
   -3.2810    0.4570   -1.1920 C   0  0  0  0  0  0  0  0  0  0  0  0
   -3.5140    1.8120   -1.2120 C   0  0  0  0  0  0  0  0  0  0  0  0
   -2.8500    2.6140   -0.2860 C   0  0  0  0  0  0  0  0  0  0  0  0
   -1.9850    2.0190    0.6140 C   0  0  0  0  0  0  0  0  0  0  0  0
   -1.7460    0.6660    0.6420 C   0  0  0  0  0  0  0  0  0  0  0  0
   -0.8080    0.1340    1.6410 C   0  0  1  0  0  0  0  0  0  0  0  0
   -1.3750   -0.8800    2.5530 C   0  0  0  0  0  0  0  0  0  0  0  0
   -0.2480   -1.3000    3.4660 C   0  0  0  0  0  0  0  0  0  0  0  0
   -0.3050   -1.2830    4.7070 O   0  0  0  0  0  0  0  0  0  0  0  0
    0.9790   -1.7510    2.8570 N   0  0  0  0  0  0  0  0  0  0  0  0
    1.2560   -1.2210    1.5510 C   0  0  0  0  0  0  0  0  0  0  0  0
    2.4000   -1.6180    0.8650 C   0  0  0  0  0  0  0  0  0  0  0  0
    2.6830   -1.1510   -0.4010 C   0  0  0  0  0  0  0  0  0  0  0  0
    3.8440   -1.5500   -1.1050 N   0  0  0  0  0  0  0  0  0  0  0  0
    4.9570   -0.9090   -0.9340 C   0  0  0  0  0  0  0  0  0  0  0  0
    6.1600   -1.3090   -1.6520 C   0  0  0  0  0  0  0  0  0  0  0  0
    7.2970   -0.6370   -1.4630 C   0  0  0  0  0  0  0  0  0  0  0  0
    7.3880    0.5030   -0.5490 C   0  0  0  0  0  0  0  0  0  0  0  0
    8.9270    1.3430   -0.3490 Cl  0  0  0  0  0  0  0  0  0  0  0  0
    6.3370    0.8820    0.1030 N   0  0  0  0  0  0  0  0  0  0  0  0
    5.0720    0.2310   -0.0280 C   0  0  0  0  0  0  0  0  0  0  0  0
    4.0560    0.5940    0.6000 O   0  0  0  0  0  0  0  0  0  0  0  0
    1.8020   -0.2700   -0.9890 C   0  0  0  0  0  0  0  0  0  0  0  0
    0.6700    0.1420   -0.3460 C   0  0  0  0  0  0  0  0  0  0  0  0
    0.4010   -0.3480    0.9510 C   0  0  0  0  0  0  0  0  0  0  0  0
   -3.2620    4.0260   -0.5050 C   0  0  0  0  0  0  0  0  0  0  0  0
   -4.4980    3.9610   -1.3470 C   0  0  0  0  0  0  0  0  0  0  0  0
   -4.3760    2.6530   -2.0640 C   0  0  0  0  0  0  0  0  0  0  0  0
  1  2  1  0
  2  3  1  0
  3  4  1  0
  4  5  2  0
  4  9  1  0
  5  6  1  0
  6  7  2  0
  6 32  1  0
  7  8  1  0
  7 30  1  0
  8  9  2  0
 10  9  1  6
 10 11  1  0
 10 29  1  0
 11 12  1  0
 12 13  2  0
 12 14  1  0
 14 15  1  0
 15 16  2  0
 15 29  1  0
 16 17  1  0
 17 18  1  0
 17 27  2  0
 18 19  2  3
 19 20  1  0
 19 25  1  0
 20 21  2  0
 21 22  1  0
 22 23  1  0
 22 24  2  0
 24 25  1  0
 25 26  2  0
 27 28  1  0
 28 29  2  0
 30 31  1  0
 31 32  1  0
M  END
