
     RDKit          3D

 32 32  0  0  0  0  0  0  0  0999 V2000
   -6.0690    0.1460    1.9420 C   0  0  0  0  0  0  0  0  0  0  0  0
   -4.9390    0.6130    1.0910 C   0  0  2  0  0  0  0  0  0  0  0  0
   -4.0410    1.3110    1.9360 O   0  0  0  0  0  0  0  0  0  0  0  0
   -5.2680    1.4710    0.0820 O   0  0  0  0  0  0  0  0  0  0  0  0
   -6.5540    1.4170   -0.3780 C   0  0  1  0  0  0  0  0  0  0  0  0
   -6.5650    2.0910   -1.7570 C   0  0  0  0  0  0  0  0  0  0  0  0
   -6.1420    3.4170   -1.6500 O   0  0  0  0  0  0  0  0  0  0  0  0
   -7.0020    0.0260   -0.5990 C   0  0  0  0  0  0  0  0  0  0  0  0
   -8.2170   -0.1320   -0.9010 O   0  0  0  0  0  0  0  0  0  0  0  0
   -6.2010   -1.1460   -0.5040 N   0  0  0  0  0  0  0  0  0  0  0  0
   -4.7580   -1.2620   -0.5850 C   0  0  0  0  0  0  0  0  0  0  0  0
   -4.1520   -0.5980    0.6060 C   0  0  1  0  0  0  0  0  0  0  0  0
   -2.8140   -0.1620    0.3430 O   0  0  0  0  0  0  0  0  0  0  0  0
   -1.7160   -0.6210    1.0300 C   0  0  0  0  0  0  0  0  0  0  0  0
   -1.8690   -1.4650    1.9370 O   0  0  0  0  0  0  0  0  0  0  0  0
   -0.3690   -0.1230    0.7020 C   0  0  2  0  0  0  0  0  0  0  0  0
   -0.4880    0.7970   -0.3360 O   0  0  0  0  0  0  0  0  0  0  0  0
    0.5760   -1.2590    0.3710 C   0  0  2  0  0  0  0  0  0  0  0  0
    0.5660   -2.0900    1.5190 O   0  0  0  0  0  0  0  0  0  0  0  0
    1.9910   -0.8480    0.1730 C   0  0  0  0  0  0  0  0  0  0  0  0
    2.2280    0.1330   -0.9320 C   0  0  2  0  0  0  0  0  0  0  0  0
    1.8180   -0.3720   -2.1640 O   0  0  0  0  0  0  0  0  0  0  0  0
    3.7490    0.3760   -1.1140 C   0  0  1  0  0  0  0  0  0  0  0  0
    3.8090    1.2960   -2.1680 O   0  0  0  0  0  0  0  0  0  0  0  0
    4.3270    0.8020    0.0220 O   0  0  0  0  0  0  0  0  0  0  0  0
    5.3200    0.1360    0.6250 C   0  0  0  0  0  0  0  0  0  0  0  0
    6.6630    0.0300    0.0410 C   0  0  1  0  0  0  0  0  0  0  0  0
    7.3260    1.2720   -0.1450 O   0  0  0  0  0  0  0  0  0  0  0  0
    7.6020   -0.6380    1.1210 C   0  0  0  0  0  0  0  0  0  0  0  0
    7.6240    0.1670    2.2570 O   0  0  0  0  0  0  0  0  0  0  0  0
    6.8790   -0.7880   -1.1810 C   0  0  0  0  0  0  0  0  0  0  0  0
    6.4980   -0.1680   -2.3510 O   0  0  0  0  0  0  0  0  0  0  0  0
  2  1  1  1
  2  3  1  0
  2  4  1  0
  2 12  1  0
  4  5  1  0
  5  6  1  6
  5  8  1  0
  6  7  1  0
  8  9  2  0
  8 10  1  0
 10 11  1  0
 11 12  1  0
 12 13  1  6
 13 14  1  0
 14 15  2  0
 14 16  1  0
 16 17  1  6
 16 18  1  0
 18 19  1  1
 18 20  1  0
 20 21  1  0
 21 22  1  6
 21 23  1  0
 23 24  1  6
 23 25  1  0
 25 26  1  0
 26 27  1  0
 27 28  1  6
 27 29  1  0
 27 31  1  0
 29 30  1  0
 31 32  1  0
M  END
