
     RDKit          3D

 32 36  0  0  0  0  0  0  0  0999 V2000
   -4.2960   -2.7280   -2.0820 O   0  0  0  0  0  0  0  0  0  0  0  0
   -4.3540   -1.6870   -1.4070 C   0  0  0  0  0  0  0  0  0  0  0  0
   -5.7140   -1.1160   -1.1990 C   0  0  0  0  0  0  0  0  0  0  0  0
   -5.6900    0.0920   -0.4060 N   0  0  0  0  0  0  0  0  0  0  0  0
   -5.5630    1.4330   -0.8560 C   0  0  0  0  0  0  0  0  0  0  0  0
   -5.3330    1.8270   -2.0250 O   0  0  0  0  0  0  0  0  0  0  0  0
   -5.7480    2.3400    0.3030 C   0  0  0  0  0  0  0  0  0  0  0  0
   -5.4700    1.4810    1.5220 C   0  0  0  0  0  0  0  0  0  0  0  0
   -5.7960    0.1210    1.0210 C   0  0  0  0  0  0  0  0  0  0  0  0
   -6.1150   -0.8410    1.7660 O   0  0  0  0  0  0  0  0  0  0  0  0
   -3.1840   -1.1130   -0.8900 N   0  0  0  0  0  0  0  0  0  0  0  0
   -1.8550   -1.5950   -1.0450 C   0  0  0  0  0  0  0  0  0  0  0  0
   -1.4970   -2.7190   -1.7380 C   0  0  0  0  0  0  0  0  0  0  0  0
   -0.1920   -3.1420   -1.8570 C   0  0  0  0  0  0  0  0  0  0  0  0
    0.8220   -2.4020   -1.2500 C   0  0  0  0  0  0  0  0  0  0  0  0
    0.4950   -1.2770   -0.5520 C   0  0  0  0  0  0  0  0  0  0  0  0
   -0.8060   -0.8810   -0.4500 C   0  0  0  0  0  0  0  0  0  0  0  0
   -1.1820    0.5590    0.4460 Cl  0  0  0  0  0  0  0  0  0  0  0  0
    1.5790   -0.5350    0.1050 C   0  0  0  0  0  0  0  0  0  0  0  0
    2.8430   -0.9000    0.0600 C   0  0  0  0  0  0  0  0  0  0  0  0
    3.9520   -0.2020    0.6730 C   0  0  0  0  0  0  0  0  0  0  0  0
    4.9820   -0.9540    1.2020 C   0  0  0  0  0  0  0  0  0  0  0  0
    6.0850   -0.3910    1.7800 C   0  0  0  0  0  0  0  0  0  0  0  0
    6.1520    0.9680    1.8270 C   0  0  0  0  0  0  0  0  0  0  0  0
    5.1550    1.7540    1.3100 C   0  0  0  0  0  0  0  0  0  0  0  0
    5.3230    3.1280    1.3480 C   0  0  0  0  0  0  0  0  0  0  0  0
    4.3680    3.9360    0.7850 C   0  0  0  0  0  0  0  0  0  0  0  0
    3.2610    3.3790    0.1930 C   0  0  0  0  0  0  0  0  0  0  0  0
    3.0930    1.9990    0.1570 C   0  0  0  0  0  0  0  0  0  0  0  0
    4.0340    1.1570    0.7200 C   0  0  0  0  0  0  0  0  0  0  0  0
    3.2350   -2.1640   -0.6730 C   0  0  0  0  0  0  0  0  0  0  0  0
    2.1790   -2.7840   -1.3740 N   0  0  0  0  0  0  0  0  0  0  0  0
  1  2  2  0
  2  3  1  0
  2 11  1  0
  3  4  1  0
  4  5  1  0
  4  9  1  0
  5  6  2  0
  5  7  1  0
  7  8  1  0
  8  9  1  0
  9 10  2  0
 11 12  1  0
 12 13  2  0
 12 17  1  0
 13 14  1  0
 14 15  2  0
 15 16  1  0
 15 32  1  0
 16 17  2  0
 16 19  1  0
 17 18  1  0
 19 20  2  0
 20 21  1  0
 20 31  1  0
 21 22  2  0
 21 30  1  0
 22 23  1  0
 23 24  2  0
 24 25  1  0
 25 26  2  0
 25 30  1  0
 26 27  1  0
 27 28  2  0
 28 29  1  0
 29 30  2  0
 31 32  1  0
M  END
