
     RDKit          3D

 31 32  0  0  0  0  0  0  0  0999 V2000
   -2.9550   -2.1800   -1.3090 N   0  0  0  0  0  0  0  0  0  0  0  0
   -2.5140   -2.4730    0.0210 C   0  0  2  0  0  0  0  0  0  0  0  0
   -3.0020   -3.7460    0.3540 O   0  0  0  0  0  0  0  0  0  0  0  0
   -2.9770   -1.5040    1.0480 C   0  0  2  0  0  0  0  0  0  0  0  0
   -4.3460   -1.4100    1.1710 O   0  0  0  0  0  0  0  0  0  0  0  0
   -2.4230   -0.0820    0.6690 C   0  0  1  0  0  0  0  0  0  0  0  0
   -2.8060    0.6770    1.7490 O   0  0  0  0  0  0  0  0  0  0  0  0
   -0.9670   -0.1090    0.4190 C   0  0  0  0  0  0  0  0  0  0  0  0
   -0.5230    0.4280   -0.7280 C   0  0  0  0  0  0  0  0  0  0  0  0
   -1.2530    1.0990   -1.8150 C   0  0  0  0  0  0  0  0  0  0  0  0
   -0.5720    1.3180   -2.9330 C   0  0  0  0  0  0  0  0  0  0  0  0
   -1.1680    1.9580   -4.1380 C   0  0  2  0  0  0  0  0  0  0  0  0
   -0.1840    2.4290   -4.9680 O   0  0  0  0  0  0  0  0  0  0  0  0
   -2.0580    2.9630   -3.7480 O   0  0  0  0  0  0  0  0  0  0  0  0
   -2.8320    2.8270   -2.6450 C   0  0  0  0  0  0  0  0  0  0  0  0
   -3.9820    3.5740   -2.4630 O   0  0  0  0  0  0  0  0  0  0  0  0
   -2.4470    1.9170   -1.6930 C   0  0  0  0  0  0  0  0  0  0  0  0
   -3.2920    1.9030   -0.6450 O   0  0  0  0  0  0  0  0  0  0  0  0
    0.8290    0.3600   -0.9420 O   0  0  0  0  0  0  0  0  0  0  0  0
    2.0740    0.1420   -0.6360 C   0  0  0  0  0  0  0  0  0  0  0  0
    2.8110    1.4490   -0.2510 C   0  0  1  0  0  0  0  0  0  0  0  0
    1.9770    2.3270    0.4210 O   0  0  0  0  0  0  0  0  0  0  0  0
    4.0420    1.0760    0.5760 C   0  0  0  0  0  0  0  0  0  0  0  0
    4.2370   -0.2790    0.4440 O   0  0  0  0  0  0  0  0  0  0  0  0
    4.7600   -0.8980    1.5590 C   0  0  0  0  0  0  0  0  0  0  0  0
    3.9220   -0.7420    2.6260 O   0  0  0  0  0  0  0  0  0  0  0  0
    2.9940   -1.7650    2.6640 C   0  0  0  0  0  0  0  0  0  0  0  0
    1.6210   -1.1750    2.8850 C   0  0  1  0  0  0  0  0  0  0  0  0
    1.7070    0.2150    2.9370 O   0  0  0  0  0  0  0  0  0  0  0  0
    0.6290   -1.6350    1.8150 C   0  0  0  0  0  0  0  0  0  0  0  0
   -0.1150   -0.6500    1.3230 O   0  0  0  0  0  0  0  0  0  0  0  0
  2  1  1  6
  2  3  1  0
  2  4  1  0
  4  5  1  6
  4  6  1  0
  6  7  1  1
  6  8  1  0
  8  9  2  0
  8 31  1  0
  9 10  1  0
  9 19  1  0
 10 11  2  0
 10 17  1  0
 11 12  1  0
 12 13  1  6
 12 14  1  0
 14 15  1  0
 15 16  1  0
 15 17  2  0
 17 18  1  0
 19 20  1  0
 20 21  1  0
 21 22  1  1
 21 23  1  0
 23 24  1  0
 24 25  1  0
 25 26  1  0
 26 27  1  0
 27 28  1  0
 28 29  1  6
 28 30  1  0
 30 31  1  0
M  END
