
     RDKit          3D

 35 39  0  0  0  0  0  0  0  0999 V2000
   -0.0050    2.1010   -2.9880 O   0  0  0  0  0  0  0  0  0  0  0  0
   -1.1650    1.9260   -2.0560 S   0  0  2  0  0  0  0  0  0  0  0  0
   -2.3860    1.6450   -2.8740 O   0  0  0  0  0  0  0  0  0  0  0  0
   -1.3310    3.3990   -1.1100 C   0  0  0  0  0  0  0  0  0  0  0  0
   -0.2240    4.1480   -0.8250 C   0  0  0  0  0  0  0  0  0  0  0  0
   -0.3400    5.3060   -0.0850 C   0  0  0  0  0  0  0  0  0  0  0  0
   -1.5530    5.7250    0.3750 C   0  0  0  0  0  0  0  0  0  0  0  0
   -2.6630    4.9620    0.0820 C   0  0  0  0  0  0  0  0  0  0  0  0
   -2.5570    3.8010   -0.6600 C   0  0  0  0  0  0  0  0  0  0  0  0
   -0.8830    0.6110   -0.9300 C   0  0  0  0  0  0  0  0  0  0  0  0
    0.4450    0.3300   -0.6100 C   0  0  0  0  0  0  0  0  0  0  0  0
    0.6930   -0.6930    0.2670 C   0  0  0  0  0  0  0  0  0  0  0  0
    1.9820   -1.0690    0.6670 N   0  0  0  0  0  0  0  0  0  0  0  0
    3.1990   -0.4720    0.2420 C   0  0  0  0  0  0  0  0  0  0  0  0
    4.4860   -0.8620    0.6550 C   0  0  0  0  0  0  0  0  0  0  0  0
    5.4210   -0.0680    0.0470 C   0  0  0  0  0  0  0  0  0  0  0  0
    6.8740   -0.0900    0.1610 C   0  0  0  0  0  0  0  0  0  0  0  0
    7.6820    0.7880   -0.5270 C   0  0  0  0  0  0  0  0  0  0  0  0
    9.0590    0.7710   -0.4210 C   0  0  0  0  0  0  0  0  0  0  0  0
    9.6760   -0.1540    0.4010 C   0  0  0  0  0  0  0  0  0  0  0  0
    8.8700   -1.0360    1.0930 C   0  0  0  0  0  0  0  0  0  0  0  0
    7.4800   -1.0110    0.9790 C   0  0  0  0  0  0  0  0  0  0  0  0
    4.7250    0.7840   -0.7180 N   0  0  0  0  0  0  0  0  0  0  0  0
    3.4320    0.5460   -0.6010 N   0  0  0  0  0  0  0  0  0  0  0  0
   -0.3370   -1.4040    0.8010 N   0  0  0  0  0  0  0  0  0  0  0  0
   -1.6140   -1.1490    0.5060 C   0  0  0  0  0  0  0  0  0  0  0  0
   -2.6300   -1.9350    1.1120 N   0  0  0  0  0  0  0  0  0  0  0  0
   -4.0470   -1.7600    0.8540 C   0  0  1  0  0  0  0  0  0  0  0  0
   -4.3130   -2.0520   -0.5850 C   0  0  0  0  0  0  0  0  0  0  0  0
   -5.2050   -3.2560   -0.7960 C   0  0  0  0  0  0  0  0  0  0  0  0
   -6.4320   -3.2450    0.0490 C   0  0  2  0  0  0  0  0  0  0  0  0
   -7.4620   -2.6250   -0.6950 O   0  0  0  0  0  0  0  0  0  0  0  0
   -6.3000   -2.5020    1.3370 C   0  0  0  0  0  0  0  0  0  0  0  0
   -4.8540   -2.6070    1.8060 C   0  0  0  0  0  0  0  0  0  0  0  0
   -1.8690   -0.1310   -0.3670 C   0  0  0  0  0  0  0  0  0  0  0  0
  1  2  2  0
  2  3  2  0
  2  4  1  1
  2 10  1  0
  4  5  2  0
  4  9  1  0
  5  6  1  0
  6  7  2  0
  7  8  1  0
  8  9  2  0
 10 11  2  0
 10 35  1  0
 11 12  1  0
 12 13  1  0
 12 25  2  0
 13 14  1  0
 14 15  1  0
 14 24  2  0
 15 16  2  0
 16 17  1  0
 16 23  1  0
 17 18  2  0
 17 22  1  0
 18 19  1  0
 19 20  2  0
 20 21  1  0
 21 22  2  0
 23 24  1  0
 25 26  1  0
 26 27  1  0
 26 35  2  0
 28 27  1  1
 28 29  1  0
 28 34  1  0
 29 30  1  0
 30 31  1  0
 31 32  1  6
 31 33  1  0
 33 34  1  0
M  END
