
     RDKit          3D

 35 38  0  0  0  0  0  0  0  0999 V2000
   -6.0000   -2.7360   -0.0230 C   0  0  0  0  0  0  0  0  0  0  0  0
   -4.9600   -1.9680    0.2170 C   0  0  0  0  0  0  0  0  0  0  0  0
   -5.2710   -0.6720    0.7330 O   0  0  0  0  0  0  0  0  0  0  0  0
   -4.4140    0.4550    0.6620 C   0  0  0  0  0  0  0  0  0  0  0  0
   -3.0690    0.3160    1.2900 C   0  0  0  0  0  0  0  0  0  0  0  0
   -2.1840   -0.7130    0.9340 N   0  0  0  0  0  0  0  0  0  0  0  0
   -0.8160   -0.3320    0.8480 C   0  0  0  0  0  0  0  0  0  0  0  0
    0.1800   -1.2280    0.7240 C   0  0  0  0  0  0  0  0  0  0  0  0
   -0.1530   -2.6450    0.6280 C   0  0  0  0  0  0  0  0  0  0  0  0
   -1.3700   -3.0070    0.6550 N   0  0  0  0  0  0  0  0  0  0  0  0
   -2.4490   -2.1350    0.7760 C   0  0  2  0  0  0  0  0  0  0  0  0
   -3.6240   -2.4590   -0.0430 C   0  0  0  0  0  0  0  0  0  0  0  0
   -3.4350   -3.1860   -1.0800 C   0  0  0  0  0  0  0  0  0  0  0  0
   -4.3290   -3.6590   -2.1400 C   0  0  0  0  0  0  0  0  0  0  0  0
    1.5440   -0.8330    1.0970 N   0  0  0  0  0  0  0  0  0  0  0  0
    2.5990   -1.7610    0.9640 C   0  0  0  0  0  0  0  0  0  0  0  0
    3.4090   -1.6430   -0.2380 C   0  0  0  0  0  0  0  0  0  0  0  0
    4.4620   -0.6490   -0.5170 C   0  0  0  0  0  0  0  0  0  0  0  0
    4.9340    0.3310    0.1170 C   0  0  0  0  0  0  0  0  0  0  0  0
    4.6380    0.8510    1.3440 O   0  0  0  0  0  0  0  0  0  0  0  0
    6.2860    1.2920   -0.7140 S   0  0  0  0  0  0  0  0  0  0  0  0
    3.3570   -2.5520   -1.2360 C   0  0  0  0  0  0  0  0  0  0  0  0
    2.5200   -3.7300   -1.2420 C   0  0  0  0  0  0  0  0  0  0  0  0
    1.5720    0.4890    1.5930 C   0  0  0  0  0  0  0  0  0  0  0  0
    2.2130    0.7220    2.6770 O   0  0  0  0  0  0  0  0  0  0  0  0
    0.8980    1.5670    0.9180 C   0  0  2  0  0  0  0  0  0  0  0  0
    1.5520    1.8500   -0.3520 C   0  0  0  0  0  0  0  0  0  0  0  0
    1.2130    2.9130   -1.2860 C   0  0  0  0  0  0  0  0  0  0  0  0
    1.4660    4.3260   -0.9240 C   0  0  0  0  0  0  0  0  0  0  0  0
    2.9540    4.5890   -0.6580 C   0  0  0  0  0  0  0  0  0  0  0  0
    0.3840    2.7100    1.7520 C   0  0  0  0  0  0  0  0  0  0  0  0
   -0.7490    3.1710    0.9120 N   0  0  0  0  0  0  0  0  0  0  0  0
   -1.2360    2.1410    0.2520 C   0  0  0  0  0  0  0  0  0  0  0  0
   -2.2880    2.1720   -0.6440 N   0  0  0  0  0  0  0  0  0  0  0  0
   -0.4960    1.0140    0.6760 N   0  0  0  0  0  0  0  0  0  0  0  0
  1  2  2  0
  2  3  1  0
  2 12  1  0
  3  4  1  0
  4  5  1  0
  5  6  1  0
  6  7  1  0
  6 11  1  0
  7  8  2  0
  7 35  1  0
  8  9  1  0
  8 15  1  0
  9 10  2  0
 11 10  1  6
 11 12  1  0
 12 13  2  3
 13 14  1  0
 15 16  1  0
 15 24  1  0
 16 17  1  0
 17 18  1  0
 17 22  2  3
 18 19  2  3
 19 20  1  0
 19 21  1  0
 22 23  1  0
 24 25  2  0
 24 26  1  0
 26 27  1  6
 26 31  1  0
 26 35  1  0
 27 28  1  0
 28 29  1  0
 29 30  1  0
 31 32  1  0
 32 33  2  0
 33 34  1  0
 33 35  1  0
M  CHG  1  32   1
M  END
