
     RDKit          3D

 35 38  0  0  0  0  0  0  0  0999 V2000
    2.5640   -2.0540    1.5990 C   0  0  0  0  0  0  0  0  0  0  0  0
    4.0270   -2.0050    1.8210 C   0  0  0  0  0  0  0  0  0  0  0  0
    4.6580   -0.6330    1.6240 C   0  0  2  0  0  0  0  0  0  0  0  0
    4.0800    0.3810    2.5740 C   0  0  0  0  0  0  0  0  0  0  0  0
    4.5800   -0.1960    0.1810 C   0  0  1  0  0  0  0  0  0  0  0  0
    5.2640   -1.2030   -0.6050 N   0  0  0  0  0  0  0  0  0  0  0  0
    6.5000   -0.9780   -1.2510 C   0  0  0  0  0  0  0  0  0  0  0  0
    7.0300    0.1490   -1.1390 O   0  0  0  0  0  0  0  0  0  0  0  0
    7.1730   -1.9260   -2.0060 O   0  0  0  0  0  0  0  0  0  0  0  0
    3.2690    0.1970   -0.3060 C   0  0  0  0  0  0  0  0  0  0  0  0
    2.5570   -0.5110   -1.0930 O   0  0  0  0  0  0  0  0  0  0  0  0
    2.6610    1.4400    0.0550 N   0  0  0  0  0  0  0  0  0  0  0  0
    1.3800    1.8460   -0.4370 C   0  0  0  0  0  0  0  0  0  0  0  0
    0.6230    1.0800   -1.2290 N   0  0  0  0  0  0  0  0  0  0  0  0
   -0.5900    1.4870   -1.7100 C   0  0  0  0  0  0  0  0  0  0  0  0
   -1.3890    0.6520   -2.6110 C   0  0  0  0  0  0  0  0  0  0  0  0
   -2.6750    0.1850   -2.0510 C   0  0  0  0  0  0  0  0  0  0  0  0
   -3.8020    0.3510   -2.7640 C   0  0  0  0  0  0  0  0  0  0  0  0
   -5.0530   -0.0940   -2.2780 N   0  0  0  0  0  0  0  0  0  0  0  0
   -5.2460   -0.6710   -1.1880 C   0  0  0  0  0  0  0  0  0  0  0  0
   -6.3250   -1.2570   -0.3800 C   0  0  0  0  0  0  0  0  0  0  0  0
   -5.6980   -2.6470   -0.0870 C   0  0  0  0  0  0  0  0  0  0  0  0
   -4.1790   -2.4830   -0.3880 C   0  0  0  0  0  0  0  0  0  0  0  0
   -4.0690   -0.9920   -0.3270 C   0  0  2  0  0  0  0  0  0  0  0  0
   -4.2240   -0.5780    1.1370 C   0  0  0  0  0  0  0  0  0  0  0  0
   -2.7330   -0.7980    1.4740 C   0  0  0  0  0  0  0  0  0  0  0  0
   -2.3140   -1.3800    2.5040 N   0  0  0  0  0  0  0  0  0  0  0  0
   -0.6270   -1.6370    2.9020 S   0  0  0  0  0  0  0  0  0  0  0  0
   -2.0910   -0.1850    0.3640 N   0  0  0  0  0  0  0  0  0  0  0  0
   -2.8740   -0.2960   -0.6890 C   0  0  0  0  0  0  0  0  0  0  0  0
   -1.0910    2.7380   -1.3840 C   0  0  0  0  0  0  0  0  0  0  0  0
   -2.3920    3.1970   -1.8970 C   0  0  0  0  0  0  0  0  0  0  0  0
   -0.3450    3.5580   -0.5690 C   0  0  0  0  0  0  0  0  0  0  0  0
    0.8710    3.0990   -0.1110 C   0  0  0  0  0  0  0  0  0  0  0  0
    1.6990    3.9770    0.7760 C   0  0  0  0  0  0  0  0  0  0  0  0
  1  2  1  0
  2  3  1  0
  3  4  1  1
  3  5  1  0
  5  6  1  6
  5 10  1  0
  6  7  1  0
  7  8  2  0
  7  9  1  0
 10 11  2  0
 10 12  1  0
 12 13  1  0
 13 14  2  0
 13 34  1  0
 14 15  1  0
 15 16  1  0
 15 31  2  0
 16 17  1  0
 17 18  2  0
 17 30  1  0
 18 19  1  0
 19 20  2  0
 20 21  1  0
 20 24  1  0
 21 22  1  0
 22 23  1  0
 24 23  1  1
 24 25  1  0
 24 30  1  0
 25 26  1  0
 26 27  2  3
 26 29  1  0
 27 28  1  0
 29 30  2  0
 31 32  1  0
 31 33  1  0
 33 34  2  0
 34 35  1  0
M  CHG  1  27   1
M  END
