
     RDKit          3D

 35 37  0  0  0  0  0  0  0  0999 V2000
   -8.8860    0.7020   -3.1290 C   0  0  0  0  0  0  0  0  0  0  0  0
   -9.2540   -0.4890   -2.2670 C   0  0  1  0  0  0  0  0  0  0  0  0
  -10.7510   -0.3990   -1.9860 C   0  0  0  0  0  0  0  0  0  0  0  0
   -8.9310   -1.7470   -3.0000 C   0  0  0  0  0  0  0  0  0  0  0  0
   -8.5790   -0.4180   -0.9640 N   0  0  0  0  0  0  0  0  0  0  0  0
   -7.1640   -0.4380   -0.8650 C   0  0  0  0  0  0  0  0  0  0  0  0
   -6.5320   -0.5510   -1.9780 O   0  0  0  0  0  0  0  0  0  0  0  0
   -6.4800   -0.3360    0.3850 C   0  0  0  0  0  0  0  0  0  0  0  0
   -7.0470   -0.2170    1.5450 C   0  0  0  0  0  0  0  0  0  0  0  0
   -6.3700   -0.0860    2.8430 C   0  0  0  0  0  0  0  0  0  0  0  0
   -5.1030   -0.0410    3.0210 N   0  0  0  0  0  0  0  0  0  0  0  0
   -4.1620   -0.0910    1.9720 C   0  0  0  0  0  0  0  0  0  0  0  0
   -2.9140    0.4310    2.1300 C   0  0  0  0  0  0  0  0  0  0  0  0
   -2.5790    1.0410    3.3740 C   0  0  0  0  0  0  0  0  0  0  0  0
   -1.5650    1.6190    3.8450 C   0  0  0  0  0  0  0  0  0  0  0  0
   -0.2570    1.9710    3.4670 C   0  0  0  0  0  0  0  0  0  0  0  0
    0.6070    2.6000    3.9270 O   0  0  0  0  0  0  0  0  0  0  0  0
    0.1870    1.2850    1.9400 N   0  0  0  0  0  0  0  0  0  0  0  0
    1.3680    1.9830    1.7470 C   0  0  0  0  0  0  0  0  0  0  0  0
    1.8580    2.9390    2.2380 O   0  0  0  0  0  0  0  0  0  0  0  0
    2.1350    1.3150    0.6760 N   0  0  0  0  0  0  0  0  0  0  0  0
    3.3780    1.7240    0.2090 C   0  0  1  0  0  0  0  0  0  0  0  0
    4.5200    1.4000    1.1670 C   0  0  0  0  0  0  0  0  0  0  0  0
    4.6710   -0.0440    1.4570 C   0  0  0  0  0  0  0  0  0  0  0  0
    4.4830   -0.9380    0.2830 C   0  0  0  0  0  0  0  0  0  0  0  0
    5.2610   -0.6280   -0.8620 N   0  0  2  0  0  0  0  0  0  0  0  0
    6.6920   -0.7110   -0.6420 C   0  0  2  0  0  0  0  0  0  0  0  0
    7.3150   -0.6140   -2.0280 C   0  0  0  0  0  0  0  0  0  0  0  0
    8.7460   -1.0390   -1.9410 C   0  0  0  0  0  0  0  0  0  0  0  0
    9.2830   -0.9100   -0.5940 N   0  0  0  0  0  0  0  0  0  0  0  0
    8.6420   -1.8110    0.3340 C   0  0  0  0  0  0  0  0  0  0  0  0
    7.1660   -1.9670   -0.0060 C   0  0  0  0  0  0  0  0  0  0  0  0
    4.9810    0.6670   -1.4310 C   0  0  0  0  0  0  0  0  0  0  0  0
    3.6350    1.2370   -1.1550 C   0  0  0  0  0  0  0  0  0  0  0  0
   -4.6830   -0.6290    0.3800 S   0  0  0  0  0  0  0  0  0  0  0  0
  2  1  1  6
  2  3  1  0
  2  4  1  0
  2  5  1  0
  5  6  1  0
  6  7  2  0
  6  8  1  0
  8  9  2  0
  8 35  1  0
  9 10  1  0
 10 11  2  0
 11 12  1  0
 12 13  2  3
 12 35  1  0
 13 14  1  0
 14 15  2  3
 15 16  1  0
 16 17  2  0
 16 18  1  0
 18 19  1  0
 19 20  2  0
 19 21  1  0
 22 21  1  1
 22 23  1  0
 22 34  1  0
 23 24  1  0
 24 25  1  0
 26 25  1  1
 26 27  1  0
 26 33  1  0
 27 28  1  6
 27 32  1  0
 28 29  1  0
 29 30  1  0
 30 31  1  0
 31 32  1  0
 33 34  1  0
M  CHG  1  26   1
M  END
