
     RDKit          3D

 35 38  0  0  0  0  0  0  0  0999 V2000
    9.1100    0.7500    1.8600 C   0  0  0  0  0  0  0  0  0  0  0  0
    8.6690   -0.0180    0.6370 C   0  0  0  0  0  0  0  0  0  0  0  0
    7.2340    0.3120    0.2650 C   0  0  2  0  0  0  0  0  0  0  0  0
    7.1220    1.8020   -0.0290 C   0  0  0  0  0  0  0  0  0  0  0  0
    6.3190   -0.0730    1.3140 N   0  0  0  0  0  0  0  0  0  0  0  0
    4.9220    0.0920    1.1900 C   0  0  0  0  0  0  0  0  0  0  0  0
    4.1080   -0.2190    2.2360 C   0  0  0  0  0  0  0  0  0  0  0  0
    2.7150   -0.0760    2.1580 C   0  0  0  0  0  0  0  0  0  0  0  0
    2.1170    0.3860    1.0170 C   0  0  0  0  0  0  0  0  0  0  0  0
    0.7350    0.5780    0.8640 N   0  0  0  0  0  0  0  0  0  0  0  0
   -0.4860   -0.4130    1.5420 S   0  0  2  0  0  0  0  0  0  0  0  0
   -1.6540    0.4050    2.0400 O   0  0  0  0  0  0  0  0  0  0  0  0
    0.0810   -1.1920    2.6830 O   0  0  0  0  0  0  0  0  0  0  0  0
   -1.0400   -1.5940    0.3870 N   0  0  0  0  0  0  0  0  0  0  0  0
    0.0450   -2.4480    0.0090 C   0  0  0  0  0  0  0  0  0  0  0  0
   -0.4270   -3.6370   -0.7670 C   0  0  0  0  0  0  0  0  0  0  0  0
   -1.7710   -3.3330   -1.4290 C   0  0  0  0  0  0  0  0  0  0  0  0
   -1.6790   -1.8850   -1.8850 C   0  0  1  0  0  0  0  0  0  0  0  0
   -2.6620   -1.5950   -2.9700 C   0  0  0  0  0  0  0  0  0  0  0  0
   -1.6730   -0.9240   -0.7380 C   0  0  1  0  0  0  0  0  0  0  0  0
   -3.0520   -0.5350   -0.2880 C   0  0  0  0  0  0  0  0  0  0  0  0
   -3.4700   -1.0080    0.7740 O   0  0  0  0  0  0  0  0  0  0  0  0
   -3.8720    0.3360   -1.0190 N   0  0  0  0  0  0  0  0  0  0  0  0
   -5.1650    0.7830   -0.7150 C   0  0  0  0  0  0  0  0  0  0  0  0
   -5.9810    0.5650    0.2800 C   0  0  0  0  0  0  0  0  0  0  0  0
   -6.2040   -0.1270    1.5730 C   0  0  0  0  0  0  0  0  0  0  0  0
   -7.0840    0.9150    2.3170 C   0  0  0  0  0  0  0  0  0  0  0  0
   -7.4380    1.9760    1.2790 C   0  0  0  0  0  0  0  0  0  0  0  0
   -7.2110    1.3060    0.0250 N   0  0  1  0  0  0  0  0  0  0  0  0
   -7.0300    1.9580   -1.1010 N   0  0  0  0  0  0  0  0  0  0  0  0
   -5.8930    1.7250   -1.6150 C   0  0  0  0  0  0  0  0  0  0  0  0
   -5.3950    2.2990   -2.8910 C   0  0  0  0  0  0  0  0  0  0  0  0
    2.9410    0.7030   -0.0470 C   0  0  0  0  0  0  0  0  0  0  0  0
    2.3540    1.2060   -1.3130 C   0  0  0  0  0  0  0  0  0  0  0  0
    4.3210    0.5640    0.0230 C   0  0  0  0  0  0  0  0  0  0  0  0
  1  2  1  0
  2  3  1  0
  3  4  1  1
  3  5  1  0
  5  6  1  0
  6  7  2  0
  6 35  1  0
  7  8  1  0
  8  9  2  0
  9 10  1  0
  9 33  1  0
 11 10  1  6
 11 12  2  0
 11 13  2  0
 11 14  1  0
 14 15  1  0
 14 20  1  0
 15 16  1  0
 16 17  1  0
 17 18  1  0
 18 19  1  6
 18 20  1  0
 20 21  1  1
 21 22  2  0
 21 23  1  0
 23 24  1  0
 24 25  2  0
 24 31  1  0
 25 26  1  0
 25 29  1  0
 26 27  1  0
 27 28  1  0
 29 28  1  1
 29 30  1  0
 30 31  2  0
 31 32  1  0
 33 34  1  0
 33 35  2  0
M  CHG  1  29   1
M  END
