
     RDKit          3D

 34 36  0  0  0  0  0  0  0  0999 V2000
    7.7960    1.6520   -0.8750 C   0  0  0  0  0  0  0  0  0  0  0  0
    6.5680    1.2190   -0.9420 C   0  0  0  0  0  0  0  0  0  0  0  0
    5.1800    2.3850   -0.7610 S   0  0  0  0  0  0  0  0  0  0  0  0
    3.9190    1.1170   -0.9550 C   0  0  0  0  0  0  0  0  0  0  0  0
    2.4210    1.3680   -0.9200 C   0  0  0  0  0  0  0  0  0  0  0  0
    1.9320    1.2400    0.5020 C   0  0  0  0  0  0  0  0  0  0  0  0
    0.4420    1.4770    0.6190 C   0  0  1  0  0  0  0  0  0  0  0  0
   -0.3650    0.5160   -0.1870 C   0  0  0  0  0  0  0  0  0  0  0  0
   -1.6800    0.2710    0.3280 N   0  0  0  0  0  0  0  0  0  0  0  0
   -2.5950   -0.5210   -0.3690 C   0  0  0  0  0  0  0  0  0  0  0  0
   -2.2830   -1.0390   -1.4700 O   0  0  0  0  0  0  0  0  0  0  0  0
   -3.9570   -0.7980    0.1250 C   0  0  0  0  0  0  0  0  0  0  0  0
   -4.2330   -1.8800    0.9250 C   0  0  0  0  0  0  0  0  0  0  0  0
   -5.5330   -2.0650    1.3420 C   0  0  0  0  0  0  0  0  0  0  0  0
   -6.5480   -1.2030    0.9830 C   0  0  0  0  0  0  0  0  0  0  0  0
   -7.9130   -1.4190    1.4360 C   0  0  0  0  0  0  0  0  0  0  0  0
   -8.1920   -2.5400    2.2640 N   0  0  0  0  0  0  0  0  0  0  0  0
   -8.8400   -0.6430    1.1140 O   0  0  0  0  0  0  0  0  0  0  0  0
   -6.2570   -0.1100    0.1710 C   0  0  0  0  0  0  0  0  0  0  0  0
   -7.2390    0.7710   -0.2090 F   0  0  0  0  0  0  0  0  0  0  0  0
   -4.9540    0.0670   -0.2420 C   0  0  0  0  0  0  0  0  0  0  0  0
   -4.6240    1.2160   -1.0990 C   0  0  0  0  0  0  0  0  0  0  0  0
   -5.5230    2.0220   -1.4470 O   0  0  0  0  0  0  0  0  0  0  0  0
   -3.3400    1.4640   -1.5560 O   0  0  0  0  0  0  0  0  0  0  0  0
   -3.0340    2.5820   -2.3870 C   0  0  0  0  0  0  0  0  0  0  0  0
   -2.0410    0.8650    1.5920 C   0  0  0  0  0  0  0  0  0  0  0  0
   -0.7840    0.7370    2.4490 C   0  0  1  0  0  0  0  0  0  0  0  0
   -0.3730   -0.6910    2.5940 C   0  0  0  0  0  0  0  0  0  0  0  0
    0.1440    1.5760    1.9370 O   0  0  0  0  0  0  0  0  0  0  0  0
    4.6180   -0.0290   -1.1320 C   0  0  0  0  0  0  0  0  0  0  0  0
    5.9610   -0.0010   -1.1300 C   0  0  0  0  0  0  0  0  0  0  0  0
    6.6500   -1.1320   -1.3140 C   0  0  0  0  0  0  0  0  0  0  0  0
    5.9240   -2.4420   -1.5140 C   0  0  0  0  0  0  0  0  0  0  0  0
    8.1050   -1.2170   -1.3510 C   0  0  0  0  0  0  0  0  0  0  0  0
  1  2  2  0
  2  3  1  0
  2 31  1  0
  3  4  1  0
  4  5  1  0
  4 30  2  0
  5  6  1  0
  7  6  1  1
  7  8  1  0
  7 29  1  0
  8  9  1  0
  9 10  1  0
  9 26  1  0
 10 11  2  0
 10 12  1  0
 12 13  2  0
 12 21  1  0
 13 14  1  0
 14 15  2  0
 15 16  1  0
 15 19  1  0
 16 17  1  0
 16 18  2  0
 19 20  1  0
 19 21  2  0
 21 22  1  0
 22 23  2  0
 22 24  1  0
 24 25  1  0
 26 27  1  0
 27 28  1  6
 27 29  1  0
 30 31  1  0
 31 32  2  3
 32 33  1  0
 32 34  1  0
M  END
