
     RDKit          3D

 26 27  0  0  0  0  0  0  0  0999 V2000
    7.8490    1.2410    1.2590 C   0  0  0  0  0  0  0  0  0  0  0  0
    6.5790    0.4560    1.4820 C   0  0  1  0  0  0  0  0  0  0  0  0
    6.1880    0.6650    2.8060 O   0  0  0  0  0  0  0  0  0  0  0  0
    5.4780    0.8550    0.5730 C   0  0  0  0  0  0  0  0  0  0  0  0
    5.7490    1.6000   -0.5440 C   0  0  0  0  0  0  0  0  0  0  0  0
    4.7370    1.9680   -1.3880 C   0  0  0  0  0  0  0  0  0  0  0  0
    3.4280    1.6020   -1.1370 C   0  0  0  0  0  0  0  0  0  0  0  0
    2.4070    1.9950   -2.0250 N   0  0  0  0  0  0  0  0  0  0  0  0
    1.0510    1.6920   -1.8710 N   0  0  0  0  0  0  0  0  0  0  0  0
    0.5150    0.3770   -1.9000 C   0  0  0  0  0  0  0  0  0  0  0  0
    1.2850   -0.5810   -2.0720 O   0  0  0  0  0  0  0  0  0  0  0  0
   -0.9230    0.2200   -1.7230 C   0  0  0  0  0  0  0  0  0  0  0  0
   -1.6750    1.2230   -1.5810 O   0  0  0  0  0  0  0  0  0  0  0  0
   -1.5780   -1.0390   -1.6940 N   0  0  0  0  0  0  0  0  0  0  0  0
   -3.0160   -1.1900   -1.5200 C   0  0  1  0  0  0  0  0  0  0  0  0
   -3.6060   -2.3790   -2.2510 C   0  0  0  0  0  0  0  0  0  0  0  0
   -3.5100   -2.3280   -0.7070 C   0  0  2  0  0  0  0  0  0  0  0  0
   -5.0340   -2.3540    0.1500 S   0  0  0  0  0  0  0  0  0  0  0  0
   -5.5360   -3.7290    0.5020 O   0  0  0  0  0  0  0  0  0  0  0  0
   -5.3130   -1.1530    1.3940 C   0  0  2  0  0  0  0  0  0  0  0  0
   -5.2540    0.2650    0.8730 C   0  0  0  0  0  0  0  0  0  0  0  0
   -6.2400    0.4630   -0.1590 N   0  0  0  0  0  0  0  0  0  0  0  0
   -4.3370   -1.2150    2.5550 C   0  0  0  0  0  0  0  0  0  0  0  0
   -4.7300   -0.1780    3.4340 O   0  0  0  0  0  0  0  0  0  0  0  0
    3.2220    0.8750   -0.0320 N   0  0  0  0  0  0  0  0  0  0  0  0
    4.2020    0.5050    0.8060 N   0  0  0  0  0  0  0  0  0  0  0  0
  2  1  1  6
  2  3  1  0
  2  4  1  0
  4  5  2  0
  4 26  1  0
  5  6  1  0
  6  7  2  0
  7  8  1  0
  7 25  1  0
  8  9  1  0
  9 10  1  0
 10 11  2  0
 10 12  1  0
 12 13  2  0
 12 14  1  0
 15 14  1  6
 15 16  1  0
 15 17  1  0
 17 16  1  6
 17 18  1  0
 18 19  2  0
 18 20  1  1
 20 21  1  6
 20 23  1  0
 21 22  1  0
 23 24  1  0
 25 26  2  0
M  CHG  1  25   1
M  END
