
     RDKit          3D

 26 28  0  0  0  0  0  0  0  0999 V2000
   -0.7120   -2.7670   -1.7730 C   0  0  0  0  0  0  0  0  0  0  0  0
    0.0410   -1.7470   -1.0020 C   0  0  2  0  0  0  0  0  0  0  0  0
   -0.6010   -1.0990    0.1520 C   0  0  0  0  0  0  0  0  0  0  0  0
   -1.8250   -0.3230   -0.1550 C   0  0  1  0  0  0  0  0  0  0  0  0
   -2.9810   -1.0730   -0.7180 C   0  0  0  0  0  0  0  0  0  0  0  0
   -3.4290   -2.0780    0.1570 O   0  0  0  0  0  0  0  0  0  0  0  0
   -2.2670    0.4910    1.0860 C   0  0  0  0  0  0  0  0  0  0  0  0
   -3.4480    1.2260    0.7550 O   0  0  0  0  0  0  0  0  0  0  0  0
   -4.0710    2.0440    1.6710 C   0  0  0  0  0  0  0  0  0  0  0  0
   -3.6790    2.0750    2.8980 N   0  0  0  0  0  0  0  0  0  0  0  0
   -5.1600    2.8610    1.2460 N   0  0  0  0  0  0  0  0  0  0  0  0
    0.3770   -0.6860   -1.9850 N   0  0  0  0  0  0  0  0  0  0  0  0
    1.0650    0.3600   -1.4270 N   0  0  0  0  0  0  0  0  0  0  0  0
    2.2120    0.0830   -0.5760 C   0  0  0  0  0  0  0  0  0  0  0  0
    2.2900   -1.2170   -0.2530 C   0  0  0  0  0  0  0  0  0  0  0  0
    3.7610   -1.3010    0.7930 S   0  0  0  0  0  0  0  0  0  0  0  0
    4.1070    0.3930    0.6840 C   0  0  0  0  0  0  0  0  0  0  0  0
    5.1650    1.1390    1.2680 C   0  0  0  0  0  0  0  0  0  0  0  0
    6.0140    0.5590    1.9810 O   0  0  0  0  0  0  0  0  0  0  0  0
    5.2340    2.4600    1.0440 N   0  0  0  0  0  0  0  0  0  0  0  0
    4.2730    2.9730    0.2660 C   0  0  0  0  0  0  0  0  0  0  0  0
    4.3550    4.2310    0.0640 O   0  0  0  0  0  0  0  0  0  0  0  0
    3.2750    2.2720   -0.2860 N   0  0  0  0  0  0  0  0  0  0  0  0
    3.1530    0.9180   -0.0910 C   0  0  0  0  0  0  0  0  0  0  0  0
    1.4070   -2.3270   -0.6480 C   0  0  1  0  0  0  0  0  0  0  0  0
    1.3190   -3.2410    0.3840 O   0  0  0  0  0  0  0  0  0  0  0  0
  2  1  1  6
  2  3  1  0
  2 12  1  0
  2 25  1  0
  4  3  1  1
  4  5  1  0
  4  7  1  0
  5  6  1  0
  7  8  1  0
  8  9  1  0
  9 10  2  0
  9 11  1  0
 12 13  1  0
 13 14  1  0
 14 15  2  0
 14 24  1  0
 15 16  1  0
 15 25  1  0
 16 17  1  0
 17 18  1  0
 17 24  2  0
 18 19  2  0
 18 20  1  0
 20 21  1  0
 21 22  2  0
 21 23  1  0
 23 24  1  0
 25 26  1  1
M  CHG  1  12   1
M  END
