
     RDKit          3D

 21 24  0  0  0  0  0  0  0  0999 V2000
   -3.8500   -1.7820   -0.0620 C   0  0  0  0  0  0  0  0  0  0  0  0
   -2.3920   -1.7650    0.2960 C   0  0  2  0  0  0  0  0  0  0  0  0
   -2.3360   -1.3960    1.6560 O   0  0  0  0  0  0  0  0  0  0  0  0
   -1.0350   -1.6850    2.0810 C   0  0  0  0  0  0  0  0  0  0  0  0
   -0.0040   -0.8940    1.3010 C   0  0  1  0  0  0  0  0  0  0  0  0
    0.8910   -1.8850    0.6290 C   0  0  0  0  0  0  0  0  0  0  0  0
    2.0660   -1.3140   -0.0300 C   0  0  0  0  0  0  0  0  0  0  0  0
    3.3090   -1.7410    0.1180 C   0  0  0  0  0  0  0  0  0  0  0  0
    4.2030   -0.9170   -0.7030 C   0  0  0  0  0  0  0  0  0  0  0  0
    3.3140    0.0700   -1.3670 C   0  0  0  0  0  0  0  0  0  0  0  0
    2.0740   -0.1730   -0.9660 C   0  0  0  0  0  0  0  0  0  0  0  0
    0.9070    0.6220   -1.4280 C   0  0  0  0  0  0  0  0  0  0  0  0
    0.0760    1.0750   -0.2590 C   0  0  2  0  0  0  0  0  0  0  0  0
   -0.6620    2.3120   -0.6500 C   0  0  0  0  0  0  0  0  0  0  0  0
    0.0580    3.4930   -0.0320 C   0  0  0  0  0  0  0  0  0  0  0  0
    1.4300    2.9840    0.3470 C   0  0  0  0  0  0  0  0  0  0  0  0
    1.0670    1.5660    0.8070 C   0  0  0  0  0  0  0  0  0  0  0  0
   -0.7450    0.0160    0.3700 C   0  0  2  0  0  0  0  0  0  0  0  0
   -1.6850    0.6960    1.1920 O   0  0  0  0  0  0  0  0  0  0  0  0
   -1.5730   -0.8180   -0.5550 C   0  0  2  0  0  0  0  0  0  0  0  0
   -2.4970   -0.0560   -1.4360 C   0  0  0  0  0  0  0  0  0  0  0  0
  2  1  1  6
  2  3  1  0
  2 20  1  0
  3  4  1  0
  5  4  1  6
  5  6  1  0
  5 18  1  0
  6  7  1  0
  7  8  2  0
  7 11  1  0
  8  9  1  0
  9 10  1  0
 10 11  2  0
 11 12  1  0
 13 12  1  6
 13 14  1  0
 13 17  1  0
 13 18  1  0
 14 15  1  0
 15 16  1  0
 16 17  1  0
 18 19  1  1
 18 20  1  0
 20 21  1  1
M  END
