
     RDKit          3D

 26 27  0  0  0  0  0  0  0  0999 V2000
   -3.9080   -2.3850   -0.2550 C   0  0  0  0  0  0  0  0  0  0  0  0
   -2.9730   -1.4320   -0.9630 C   0  0  2  0  0  0  0  0  0  0  0  0
   -3.6940   -0.1240   -1.0950 C   0  0  0  0  0  0  0  0  0  0  0  0
   -2.8820   -1.9450   -2.2850 O   0  0  0  0  0  0  0  0  0  0  0  0
   -1.5320   -1.7050   -2.5640 C   0  0  0  0  0  0  0  0  0  0  0  0
   -0.9360   -2.2140   -1.4120 O   0  0  0  0  0  0  0  0  0  0  0  0
   -1.6140   -1.4330   -0.4510 C   0  0  2  0  0  0  0  0  0  0  0  0
   -1.3710   -2.1470    0.8680 C   0  0  0  0  0  0  0  0  0  0  0  0
   -1.9490   -1.5040    2.0070 N   0  0  0  0  0  0  0  0  0  0  0  0
   -0.8940   -0.1450   -0.4000 C   0  0  0  0  0  0  0  0  0  0  0  0
    0.3410   -0.0700    0.1280 N   0  0  0  0  0  0  0  0  0  0  0  0
    0.7600    1.2070    0.0640 C   0  0  0  0  0  0  0  0  0  0  0  0
    2.1030    1.6900    0.5760 C   0  0  2  0  0  0  0  0  0  0  0  0
    2.7210    2.4250   -0.4180 O   0  0  0  0  0  0  0  0  0  0  0  0
    2.9300    0.4220    0.8200 C   0  0  0  0  0  0  0  0  0  0  0  0
    3.1710   -0.5050   -0.7150 S   0  0  0  0  0  0  0  0  0  0  0  0
    4.9020   -0.7820   -1.1080 C   0  0  0  0  0  0  0  0  0  0  0  0
    5.4710   -1.8450   -0.2230 C   0  0  0  0  0  0  0  0  0  0  0  0
    4.7180   -2.5050    0.7370 N   0  0  0  0  0  0  0  0  0  0  0  0
    6.7000   -2.1400   -0.3700 O   0  0  0  0  0  0  0  0  0  0  0  0
   -0.2090    1.9200   -0.5040 N   0  0  0  0  0  0  0  0  0  0  0  0
   -0.2390    3.3480   -0.7400 C   0  0  0  0  0  0  0  0  0  0  0  0
   -0.9020    4.0720    0.4050 C   0  0  0  0  0  0  0  0  0  0  0  0
   -1.0360    5.4740    0.2850 N   0  0  0  0  0  0  0  0  0  0  0  0
   -1.3100    3.4650    1.4050 O   0  0  0  0  0  0  0  0  0  0  0  0
   -1.2220    1.0710   -0.7810 N   0  0  0  0  0  0  0  0  0  0  0  0
  2  1  1  1
  2  3  1  0
  2  4  1  0
  2  7  1  0
  4  5  1  0
  5  6  1  0
  6  7  1  0
  7  8  1  1
  7 10  1  0
  8  9  1  0
 10 11  1  0
 10 26  2  0
 11 12  2  0
 12 13  1  0
 12 21  1  0
 13 14  1  6
 13 15  1  0
 15 16  1  0
 16 17  1  0
 17 18  1  0
 18 19  1  0
 18 20  2  0
 21 22  1  0
 21 26  1  0
 22 23  1  0
 23 24  1  0
 23 25  2  0
M  CHG  1   9   1
M  END
