
     RDKit          3D

 26 28  0  0  0  0  0  0  0  0999 V2000
   -3.6750    0.8490   -1.1920 C   0  0  0  0  0  0  0  0  0  0  0  0
   -4.3870    0.5180    0.1010 C   0  0  1  0  0  0  0  0  0  0  0  0
   -4.3940    1.7690    0.9030 C   0  0  0  0  0  0  0  0  0  0  0  0
   -3.1570    2.3070    1.3730 N   0  0  0  0  0  0  0  0  0  0  0  0
   -5.4770    2.3540    1.1690 O   0  0  0  0  0  0  0  0  0  0  0  0
   -5.7600    0.2020   -0.2490 N   0  0  0  0  0  0  0  0  0  0  0  0
   -6.0000   -1.1180   -0.7210 C   0  0  0  0  0  0  0  0  0  0  0  0
   -7.0250   -1.3350   -1.3960 O   0  0  0  0  0  0  0  0  0  0  0  0
   -4.9790   -2.1330   -0.3530 C   0  0  0  0  0  0  0  0  0  0  0  0
   -4.2790   -1.8250    0.7680 O   0  0  0  0  0  0  0  0  0  0  0  0
   -3.7120   -0.5820    0.8660 C   0  0  1  0  0  0  0  0  0  0  0  0
   -2.3200   -0.6460    0.5200 C   0  0  0  0  0  0  0  0  0  0  0  0
   -1.5530   -1.1810   -0.4240 C   0  0  0  0  0  0  0  0  0  0  0  0
   -0.2140   -1.0380   -0.4450 C   0  0  0  0  0  0  0  0  0  0  0  0
    0.4050   -0.3300    0.5180 C   0  0  0  0  0  0  0  0  0  0  0  0
    1.7200    0.0450    0.8520 N   0  0  0  0  0  0  0  0  0  0  0  0
    2.8170   -0.3580    0.0500 C   0  0  0  0  0  0  0  0  0  0  0  0
    2.6660   -1.0600   -0.9850 O   0  0  0  0  0  0  0  0  0  0  0  0
    4.1490    0.0140    0.3770 N   0  0  0  0  0  0  0  0  0  0  0  0
    5.2920   -0.3740   -0.4120 C   0  0  1  0  0  0  0  0  0  0  0  0
    6.0630    0.8580   -0.8010 C   0  0  0  0  0  0  0  0  0  0  0  0
    7.1850    0.9570    0.0790 N   0  0  0  0  0  0  0  0  0  0  0  0
    7.0500   -0.0840    1.0380 C   0  0  0  0  0  0  0  0  0  0  0  0
    7.5970   -0.1000    2.1910 O   0  0  0  0  0  0  0  0  0  0  0  0
    6.2100   -1.0630    0.4630 N   0  0  0  0  0  0  0  0  0  0  0  0
   -1.0300    0.1950    1.5650 S   0  0  0  0  0  0  0  0  0  0  0  0
  2  1  1  6
  2  3  1  0
  2  6  1  0
  2 11  1  0
  3  4  1  0
  3  5  2  0
  6  7  1  0
  7  8  2  0
  7  9  1  0
  9 10  1  0
 10 11  1  0
 11 12  1  6
 12 13  2  0
 12 26  1  0
 13 14  1  0
 14 15  2  0
 15 16  1  0
 15 26  1  0
 16 17  1  0
 17 18  2  0
 17 19  1  0
 20 19  1  1
 20 21  1  0
 20 25  1  0
 21 22  1  0
 22 23  1  0
 23 24  2  0
 23 25  1  0
M  CHG  1  22   1
M  END
