
     RDKit          3D

 26 28  0  0  0  0  0  0  0  0999 V2000
    6.6580    0.8210   -2.3630 N   0  0  0  0  0  0  0  0  0  0  0  0
    5.8400    0.5610   -1.2390 C   0  0  0  0  0  0  0  0  0  0  0  0
    6.0940    1.1270   -0.0540 N   0  0  0  0  0  0  0  0  0  0  0  0
    5.3130    0.8840    1.0370 C   0  0  0  0  0  0  0  0  0  0  0  0
    4.2630    0.0550    0.9140 N   0  0  0  0  0  0  0  0  0  0  0  0
    3.9640   -0.5340   -0.2330 C   0  0  0  0  0  0  0  0  0  0  0  0
    4.7650   -0.2850   -1.3520 C   0  0  0  0  0  0  0  0  0  0  0  0
    4.2080   -1.0140   -2.3320 N   0  0  0  0  0  0  0  0  0  0  0  0
    3.1380   -1.6690   -1.8550 C   0  0  0  0  0  0  0  0  0  0  0  0
    2.9800   -1.3720   -0.5400 N   0  0  0  0  0  0  0  0  0  0  0  0
    1.9170   -1.9260    0.2330 C   0  0  2  0  0  0  0  0  0  0  0  0
    0.7290   -1.6430   -0.4370 O   0  0  0  0  0  0  0  0  0  0  0  0
    0.0560   -0.6560    0.2300 C   0  0  2  0  0  0  0  0  0  0  0  0
   -0.4060    0.4630   -0.6790 C   0  0  0  0  0  0  0  0  0  0  0  0
   -1.2880    1.7370    0.2400 S   0  0  0  0  0  0  0  0  0  0  0  0
   -2.8610    1.0990    0.9030 C   0  0  0  0  0  0  0  0  0  0  0  0
   -3.8150    0.7660   -0.2110 C   0  0  0  0  0  0  0  0  0  0  0  0
   -5.1380    0.2280    0.2640 C   0  0  2  0  0  0  0  0  0  0  0  0
   -5.9310   -0.0390   -0.9320 N   0  0  0  0  0  0  0  0  0  0  0  0
   -5.8790    1.1350    1.1510 C   0  0  0  0  0  0  0  0  0  0  0  0
   -5.4590    1.5280    2.2650 O   0  0  0  0  0  0  0  0  0  0  0  0
   -7.1450    1.6170    0.7640 O   0  0  0  0  0  0  0  0  0  0  0  0
    0.9360   -0.1350    1.3470 C   0  0  1  0  0  0  0  0  0  0  0  0
    0.1950    0.2100    2.4750 O   0  0  0  0  0  0  0  0  0  0  0  0
    1.7630   -1.3800    1.5950 C   0  0  1  0  0  0  0  0  0  0  0  0
    0.9140   -2.2590    2.3120 O   0  0  0  0  0  0  0  0  0  0  0  0
  1  2  1  0
  2  3  2  0
  2  7  1  0
  3  4  1  0
  4  5  2  0
  5  6  1  0
  6  7  2  0
  6 10  1  0
  7  8  1  0
  8  9  2  0
  9 10  1  0
 11 10  1  6
 11 12  1  0
 11 25  1  0
 12 13  1  0
 13 14  1  6
 13 23  1  0
 14 15  1  0
 15 16  1  0
 16 17  1  0
 17 18  1  0
 18 19  1  6
 18 20  1  0
 20 21  2  0
 20 22  1  0
 23 24  1  1
 23 25  1  0
 25 26  1  1
M  CHG  1  19   1
M  END
