
     RDKit          3D

 14 15  0  0  0  0  0  0  0  0999 V2000
    3.9930    0.5630   -0.1660 O   0  0  0  0  0  0  0  0  0  0  0  0
    2.6200    0.3960   -0.1270 C   0  0  0  0  0  0  0  0  0  0  0  0
    1.8590    1.2360   -0.8970 C   0  0  0  0  0  0  0  0  0  0  0  0
    0.4710    1.1500   -0.9290 C   0  0  0  0  0  0  0  0  0  0  0  0
   -0.1960    0.1930   -0.1660 C   0  0  0  0  0  0  0  0  0  0  0  0
   -1.6020    0.0860   -0.1810 N   0  0  0  0  0  0  0  0  0  0  0  0
   -2.4410    1.1150   -0.3130 N   0  0  0  0  0  0  0  0  0  0  0  0
   -3.7010    0.7270   -0.2940 C   0  0  0  0  0  0  0  0  0  0  0  0
   -3.6890   -0.6170   -0.1420 N   0  0  0  0  0  0  0  0  0  0  0  0
   -2.3980   -0.9890   -0.0750 C   0  0  0  0  0  0  0  0  0  0  0  0
   -1.8970   -2.5100    0.1060 S   0  0  0  0  0  0  0  0  0  0  0  0
    0.6170   -0.6250    0.5880 C   0  0  0  0  0  0  0  0  0  0  0  0
    1.9780   -0.5560    0.6320 C   0  0  0  0  0  0  0  0  0  0  0  0
    2.7380   -1.4310    1.4320 O   0  0  0  0  0  0  0  0  0  0  0  0
  1  2  1  0
  2  3  2  0
  2 13  1  0
  3  4  1  0
  4  5  2  0
  5  6  1  0
  5 12  1  0
  6  7  1  0
  6 10  1  0
  7  8  2  0
  8  9  1  0
  9 10  1  0
 10 11  2  0
 12 13  2  0
 13 14  1  0
M  END
