
     RDKit          3D

 14 14  0  0  0  0  0  0  0  0999 V2000
    2.1860    1.7510    0.5270 C   0  0  0  0  0  0  0  0  0  0  0  0
    1.5410    0.4260    0.4200 C   0  0  0  0  0  0  0  0  0  0  0  0
    1.8090   -0.4510   -0.5150 C   0  0  0  0  0  0  0  0  0  0  0  0
    2.8260   -0.1080   -1.5440 C   0  0  0  0  0  0  0  0  0  0  0  0
    1.1580   -1.7840   -0.6170 C   0  0  0  0  0  0  0  0  0  0  0  0
   -0.0500   -2.0680    0.6870 S   0  0  0  0  0  0  0  0  0  0  0  0
   -1.4470   -0.9620    0.5320 C   0  0  0  0  0  0  0  0  0  0  0  0
   -1.5350   -0.0520   -0.4520 N   0  0  0  0  0  0  0  0  0  0  0  0
   -2.5760    0.7660   -0.5610 N   0  0  0  0  0  0  0  0  0  0  0  0
   -3.5950    0.7140    0.3230 C   0  0  0  0  0  0  0  0  0  0  0  0
   -4.6010    1.4700    0.2590 O   0  0  0  0  0  0  0  0  0  0  0  0
   -3.5350   -0.2110    1.3470 C   0  0  0  0  0  0  0  0  0  0  0  0
   -4.4870   -0.2730    2.1880 O   0  0  0  0  0  0  0  0  0  0  0  0
   -2.4610   -1.0130    1.4090 N   0  0  0  0  0  0  0  0  0  0  0  0
  1  2  1  0
  2  3  2  3
  3  4  1  0
  3  5  1  0
  5  6  1  0
  6  7  1  0
  7  8  2  0
  7 14  1  0
  8  9  1  0
  9 10  1  0
 10 11  2  0
 10 12  1  0
 12 13  2  0
 12 14  1  0
M  END
