
     RDKit          3D

 14 15  0  0  0  0  0  0  0  0999 V2000
    2.8350    1.3900   -2.7690 C   0  0  0  0  0  0  0  0  0  0  0  0
    2.1290    0.8170   -1.5820 C   0  0  0  0  0  0  0  0  0  0  0  0
    1.2500    1.4040   -0.7130 C   0  0  0  0  0  0  0  0  0  0  0  0
    0.7640    0.6420    0.2770 C   0  0  0  0  0  0  0  0  0  0  0  0
    1.1340   -0.6310    0.3900 C   0  0  0  0  0  0  0  0  0  0  0  0
    0.7980   -1.7190    1.3320 C   0  0  0  0  0  0  0  0  0  0  0  0
   -0.2290   -1.2680    2.1650 O   0  0  0  0  0  0  0  0  0  0  0  0
   -1.4470   -0.8880    1.6220 C   0  0  0  0  0  0  0  0  0  0  0  0
   -1.8180   -0.8850    0.3340 N   0  0  0  0  0  0  0  0  0  0  0  0
   -3.0800   -0.4460    0.2200 C   0  0  0  0  0  0  0  0  0  0  0  0
   -3.7740   -0.3040   -0.8350 O   0  0  0  0  0  0  0  0  0  0  0  0
   -3.5010   -0.1690    1.4650 N   0  0  0  0  0  0  0  0  0  0  0  0
   -2.5290   -0.4300    2.3170 N   0  0  0  0  0  0  0  0  0  0  0  0
    2.2650   -0.8550   -0.9760 S   0  0  0  0  0  0  0  0  0  0  0  0
  1  2  1  0
  2  3  2  0
  2 14  1  0
  3  4  1  0
  4  5  2  0
  5  6  1  0
  5 14  1  0
  6  7  1  0
  7  8  1  0
  8  9  2  0
  8 13  1  0
  9 10  1  0
 10 11  2  0
 10 12  1  0
 12 13  1  0
M  END
