
     RDKit          3D

 14 15  0  0  0  0  0  0  0  0999 V2000
   -2.7570    0.9560    2.7100 O   0  0  0  0  0  0  0  0  0  0  0  0
   -2.9810    0.4480    1.5810 C   0  0  0  0  0  0  0  0  0  0  0  0
   -4.1600    0.1600    0.9880 N   0  0  0  0  0  0  0  0  0  0  0  0
   -3.9590   -0.3600   -0.1840 O   0  0  0  0  0  0  0  0  0  0  0  0
   -2.6690   -0.4500   -0.4400 C   0  0  0  0  0  0  0  0  0  0  0  0
   -1.9700   -0.9310   -1.5460 C   0  0  0  0  0  0  0  0  0  0  0  0
   -0.6390   -0.8800   -1.4890 N   0  0  0  0  0  0  0  0  0  0  0  0
    0.0670   -0.4060   -0.4570 C   0  0  0  0  0  0  0  0  0  0  0  0
    1.4840   -0.4050   -0.5140 N   0  0  0  0  0  0  0  0  0  0  0  0
    2.2950    0.0980    0.5770 C   0  0  0  0  0  0  0  0  0  0  0  0
    3.7480   -0.0410    0.2060 C   0  0  0  0  0  0  0  0  0  0  0  0
    4.1050    0.9120   -1.3030 S   0  0  0  0  0  0  0  0  0  0  0  0
   -0.6340    0.0670    0.6310 C   0  0  0  0  0  0  0  0  0  0  0  0
   -2.0210    0.0590    0.6710 C   0  0  0  0  0  0  0  0  0  0  0  0
  1  2  2  0
  2  3  1  0
  2 14  1  0
  3  4  1  0
  4  5  1  0
  5  6  2  0
  5 14  1  0
  6  7  1  0
  7  8  2  0
  8  9  1  0
  8 13  1  0
  9 10  1  0
 10 11  1  0
 11 12  1  0
 13 14  2  0
M  END
