
     RDKit          3D

 14 15  0  0  0  0  0  0  0  0999 V2000
   -4.1110   -0.8270    1.5610 N   0  0  0  0  0  0  0  0  0  0  0  0
   -3.4630   -0.7050    0.4830 C   0  0  0  0  0  0  0  0  0  0  0  0
   -4.3360   -0.4430   -1.0460 S   0  0  0  0  0  0  0  0  0  0  0  0
   -1.9850   -0.7740    0.4650 C   0  0  0  0  0  0  0  0  0  0  0  0
   -1.4340    0.4760   -0.0520 N   0  0  0  0  0  0  0  0  0  0  0  0
   -0.0310    0.5990   -0.1450 C   0  0  0  0  0  0  0  0  0  0  0  0
    0.4900    1.7880   -0.6380 C   0  0  0  0  0  0  0  0  0  0  0  0
    1.8270    1.8750   -0.7140 N   0  0  0  0  0  0  0  0  0  0  0  0
    2.6470    0.8640   -0.3350 C   0  0  0  0  0  0  0  0  0  0  0  0
    2.1600   -0.3260    0.1570 C   0  0  0  0  0  0  0  0  0  0  0  0
    0.7850   -0.4410    0.2450 C   0  0  0  0  0  0  0  0  0  0  0  0
    3.2040   -1.1820    0.4670 O   0  0  0  0  0  0  0  0  0  0  0  0
    4.3790   -0.3960    0.4370 C   0  0  0  0  0  0  0  0  0  0  0  0
    4.0400    0.7460   -0.3310 O   0  0  0  0  0  0  0  0  0  0  0  0
  1  2  2  0
  2  3  1  0
  2  4  1  0
  4  5  1  0
  5  6  1  0
  6  7  2  0
  6 11  1  0
  7  8  1  0
  8  9  2  0
  9 10  1  0
  9 14  1  0
 10 11  2  0
 10 12  1  0
 12 13  1  0
 13 14  1  0
M  END
