
     RDKit          3D

 25 27  0  0  0  0  0  0  0  0999 V2000
    6.5210    2.1450   -1.7650 C   0  0  0  0  0  0  0  0  0  0  0  0
    5.3570    1.5910   -1.0210 C   0  0  0  0  0  0  0  0  0  0  0  0
    4.1420    2.2420   -1.0040 C   0  0  0  0  0  0  0  0  0  0  0  0
    3.0620    1.7060   -0.3000 C   0  0  0  0  0  0  0  0  0  0  0  0
    3.1770    0.5250    0.3910 C   0  0  0  0  0  0  0  0  0  0  0  0
    2.0370   -0.0600    1.1460 C   0  0  0  0  0  0  0  0  0  0  0  0
    1.2790   -0.9310    0.2860 N   0  0  0  0  0  0  0  0  0  0  0  0
    0.1430   -1.6020    0.7940 C   0  0  0  0  0  0  0  0  0  0  0  0
    0.2900   -2.8450    1.3620 C   0  0  0  0  0  0  0  0  0  0  0  0
    1.6440   -3.4470    1.4250 C   0  0  0  0  0  0  0  0  0  0  0  0
   -0.8280   -3.4710    1.8460 C   0  0  0  0  0  0  0  0  0  0  0  0
   -2.0710   -2.8700    1.7650 C   0  0  0  0  0  0  0  0  0  0  0  0
   -2.2090   -1.6190    1.1920 C   0  0  0  0  0  0  0  0  0  0  0  0
   -1.0890   -0.9930    0.7070 C   0  0  0  0  0  0  0  0  0  0  0  0
   -1.4600    0.3410    0.1310 C   0  0  0  0  0  0  0  0  0  0  0  0
   -2.9100    0.1430   -0.1240 C   0  0  0  0  0  0  0  0  0  0  0  0
   -3.5970    0.6670   -1.1330 C   0  0  0  0  0  0  0  0  0  0  0  0
   -5.0460    0.4170   -1.3150 C   0  0  0  0  0  0  0  0  0  0  0  0
   -5.8160    1.6460   -1.2820 N   0  0  0  0  0  0  0  0  0  0  0  0
   -7.2190    1.4230   -1.4560 C   0  0  0  0  0  0  0  0  0  0  0  0
   -5.4930    2.4780   -0.1680 C   0  0  0  0  0  0  0  0  0  0  0  0
   -3.3850   -0.7410    0.9690 C   0  0  0  0  0  0  0  0  0  0  0  0
    4.3890   -0.1190    0.3710 C   0  0  0  0  0  0  0  0  0  0  0  0
    5.4710    0.4060   -0.3280 C   0  0  0  0  0  0  0  0  0  0  0  0
    6.7610   -0.3110   -0.3300 C   0  0  0  0  0  0  0  0  0  0  0  0
  1  2  1  0
  2  3  2  0
  2 24  1  0
  3  4  1  0
  4  5  2  0
  5  6  1  0
  5 23  1  0
  6  7  1  0
  7  8  1  0
  8  9  2  0
  8 14  1  0
  9 10  1  0
  9 11  1  0
 11 12  2  0
 12 13  1  0
 13 14  2  0
 13 22  1  0
 14 15  1  0
 15 16  1  0
 16 17  2  3
 16 22  1  0
 17 18  1  0
 18 19  1  0
 19 20  1  0
 19 21  1  0
 23 24  2  0
 24 25  1  0
M  END
