
     RDKit          3D

 25 28  0  0  0  0  0  0  0  0999 V2000
   -2.3900   -0.3110   -0.5870 C   0  0  0  0  0  0  0  0  0  0  0  0
   -3.5740    0.3300   -0.5760 C   0  0  0  0  0  0  0  0  0  0  0  0
   -4.9120   -0.1280   -0.1800 C   0  0  0  0  0  0  0  0  0  0  0  0
   -5.5130    1.1020    0.4750 C   0  0  0  0  0  0  0  0  0  0  0  0
   -4.6720    2.2820    0.0460 C   0  0  0  0  0  0  0  0  0  0  0  0
   -3.7480    1.7380   -1.0160 C   0  0  0  0  0  0  0  0  0  0  0  0
   -2.3520   -1.6880   -0.1500 C   0  0  0  0  0  0  0  0  0  0  0  0
   -3.3490   -2.5620   -0.6010 C   0  0  0  0  0  0  0  0  0  0  0  0
   -3.3190   -3.8400   -0.1370 N   0  0  0  0  0  0  0  0  0  0  0  0
   -2.3820   -4.2760    0.7190 C   0  0  0  0  0  0  0  0  0  0  0  0
   -1.4000   -3.4200    1.1630 C   0  0  0  0  0  0  0  0  0  0  0  0
   -1.3820   -2.0960    0.7200 C   0  0  0  0  0  0  0  0  0  0  0  0
   -0.3100   -1.2370    1.1870 C   0  0  0  0  0  0  0  0  0  0  0  0
    0.7950   -1.1650    0.1590 C   0  0  0  0  0  0  0  0  0  0  0  0
    1.8880   -0.2940    0.5870 N   0  0  0  0  0  0  0  0  0  0  0  0
    3.0220   -0.0970   -0.2270 C   0  0  0  0  0  0  0  0  0  0  0  0
    3.1040   -0.7490   -1.4500 C   0  0  0  0  0  0  0  0  0  0  0  0
    4.2020   -0.5760   -2.2640 C   0  0  0  0  0  0  0  0  0  0  0  0
    5.2480    0.2370   -1.9080 C   0  0  0  0  0  0  0  0  0  0  0  0
    5.1730    0.8860   -0.6970 C   0  0  0  0  0  0  0  0  0  0  0  0
    6.2130    1.7100   -0.3180 C   0  0  0  0  0  0  0  0  0  0  0  0
    6.1760    2.3730    0.8730 C   0  0  0  0  0  0  0  0  0  0  0  0
    5.0910    2.2260    1.7200 C   0  0  0  0  0  0  0  0  0  0  0  0
    4.0480    1.3990    1.3370 C   0  0  0  0  0  0  0  0  0  0  0  0
    4.0590    0.7160    0.1380 C   0  0  0  0  0  0  0  0  0  0  0  0
  1  2  2  3
  1  7  1  0
  2  3  1  0
  2  6  1  0
  3  4  1  0
  4  5  1  0
  5  6  1  0
  7  8  2  0
  7 12  1  0
  8  9  1  0
  9 10  2  0
 10 11  1  0
 11 12  2  0
 12 13  1  0
 13 14  1  0
 14 15  1  0
 15 16  1  0
 16 17  2  0
 16 25  1  0
 17 18  1  0
 18 19  2  0
 19 20  1  0
 20 21  2  0
 20 25  1  0
 21 22  1  0
 22 23  2  0
 23 24  1  0
 24 25  2  0
M  END
