
     RDKit          3D

 25 28  0  0  0  0  0  0  0  0999 V2000
    0.3600    4.5270   -1.2800 C   0  0  0  0  0  0  0  0  0  0  0  0
    1.1970    3.8230   -0.2230 C   0  0  0  0  0  0  0  0  0  0  0  0
    0.7640    2.4220   -0.0310 C   0  0  0  0  0  0  0  0  0  0  0  0
    1.5460    1.3860   -0.1720 C   0  0  0  0  0  0  0  0  0  0  0  0
    2.9520    1.5420   -0.5420 C   0  0  0  0  0  0  0  0  0  0  0  0
    3.6630    0.2730   -0.5050 N   0  0  0  0  0  0  0  0  0  0  0  0
    4.1610   -0.0750    0.7820 C   0  0  0  0  0  0  0  0  0  0  0  0
    2.8640   -0.7040   -1.1580 C   0  0  0  0  0  0  0  0  0  0  0  0
    1.5730   -0.9890   -0.3950 C   0  0  0  0  0  0  0  0  0  0  0  0
    1.3000   -2.4080   -0.2230 C   0  0  0  0  0  0  0  0  0  0  0  0
    0.2270   -2.8830    0.6590 C   0  0  0  0  0  0  0  0  0  0  0  0
    0.3410   -4.4450    0.6170 C   0  0  0  0  0  0  0  0  0  0  0  0
    0.9520    0.0460    0.0650 C   0  0  0  0  0  0  0  0  0  0  0  0
   -0.3300   -0.0210    0.6920 C   0  0  0  0  0  0  0  0  0  0  0  0
   -0.5200    0.1850    2.0300 C   0  0  0  0  0  0  0  0  0  0  0  0
   -1.8140    0.2110    2.5770 C   0  0  0  0  0  0  0  0  0  0  0  0
   -2.9280    0.0280    1.7650 C   0  0  0  0  0  0  0  0  0  0  0  0
   -2.7130   -0.1740    0.4430 C   0  0  0  0  0  0  0  0  0  0  0  0
   -3.8510   -0.3400   -0.2890 C   0  0  0  0  0  0  0  0  0  0  0  0
   -3.7620   -0.5500   -1.6530 C   0  0  0  0  0  0  0  0  0  0  0  0
   -2.5000   -0.5850   -2.2370 C   0  0  0  0  0  0  0  0  0  0  0  0
   -1.3530   -0.4110   -1.4640 C   0  0  0  0  0  0  0  0  0  0  0  0
   -1.4420   -0.2020   -0.1050 C   0  0  0  0  0  0  0  0  0  0  0  0
   -4.9140   -0.2370    0.6510 N   0  0  0  0  0  0  0  0  0  0  0  0
   -4.3910   -0.0110    1.9840 C   0  0  0  0  0  0  0  0  0  0  0  0
  1  2  1  0
  2  3  1  0
  3  4  2  3
  4  5  1  0
  4 13  1  0
  5  6  1  0
  6  7  1  0
  6  8  1  0
  8  9  1  0
  9 10  1  0
  9 13  2  0
 10 11  1  0
 11 12  1  0
 13 14  1  0
 14 15  2  0
 14 23  1  0
 15 16  1  0
 16 17  2  0
 17 18  1  0
 17 25  1  0
 18 19  2  0
 18 23  1  0
 19 20  1  0
 19 24  1  0
 20 21  2  0
 21 22  1  0
 22 23  2  0
 24 25  1  0
M  END
