
     RDKit          3D

 25 28  0  0  0  0  0  0  0  0999 V2000
    2.3950   -0.8660    1.6580 C   0  0  0  0  0  0  0  0  0  0  0  0
    1.9580   -1.1650    0.2490 C   0  0  1  0  0  0  0  0  0  0  0  0
    0.4660   -1.0180    0.2000 C   0  0  0  0  0  0  0  0  0  0  0  0
   -0.2150   -0.4730    1.2560 C   0  0  0  0  0  0  0  0  0  0  0  0
   -1.5990   -0.3020    1.2400 C   0  0  0  0  0  0  0  0  0  0  0  0
   -2.2720    0.2350    2.3640 N   0  0  0  0  0  0  0  0  0  0  0  0
   -3.4800    0.9490    2.1930 C   0  0  0  0  0  0  0  0  0  0  0  0
   -4.4150    0.9610    3.2230 C   0  0  0  0  0  0  0  0  0  0  0  0
   -5.5600    1.6890    3.0420 C   0  0  0  0  0  0  0  0  0  0  0  0
   -5.7790    2.3930    1.8680 C   0  0  0  0  0  0  0  0  0  0  0  0
   -4.8540    2.3720    0.8700 C   0  0  0  0  0  0  0  0  0  0  0  0
   -3.6880    1.6460    1.0250 C   0  0  0  0  0  0  0  0  0  0  0  0
   -2.3370   -0.6830    0.1440 C   0  0  0  0  0  0  0  0  0  0  0  0
   -1.6280   -1.2380   -0.9280 C   0  0  0  0  0  0  0  0  0  0  0  0
   -0.2720   -1.4130   -0.9290 C   0  0  0  0  0  0  0  0  0  0  0  0
    0.4280   -2.0160   -2.0470 C   0  0  0  0  0  0  0  0  0  0  0  0
   -0.4240   -2.3280   -3.2180 C   0  0  0  0  0  0  0  0  0  0  0  0
   -1.8570   -2.1070   -3.1170 C   0  0  0  0  0  0  0  0  0  0  0  0
   -2.4590   -1.6090   -2.0880 C   0  0  0  0  0  0  0  0  0  0  0  0
    2.5300   -0.2940   -0.7290 N   0  0  0  0  0  0  0  0  0  0  0  0
    2.2110    1.0730   -0.6380 C   0  0  0  0  0  0  0  0  0  0  0  0
    3.2700    1.9890   -0.1110 C   0  0  0  0  0  0  0  0  0  0  0  0
    4.6490    1.6660   -0.6090 C   0  0  0  0  0  0  0  0  0  0  0  0
    4.9510    0.1960   -0.5710 C   0  0  0  0  0  0  0  0  0  0  0  0
    3.8330   -0.5760   -1.1790 C   0  0  0  0  0  0  0  0  0  0  0  0
  2  1  1  1
  2  3  1  0
  2 20  1  0
  3  4  2  0
  3 15  1  0
  4  5  1  0
  5  6  1  0
  5 13  2  0
  6  7  1  0
  7  8  2  0
  7 12  1  0
  8  9  1  0
  9 10  2  0
 10 11  1  0
 11 12  2  0
 13 14  1  0
 14 15  2  0
 14 19  1  0
 15 16  1  0
 16 17  1  0
 17 18  1  0
 18 19  2  0
 20 21  1  0
 20 25  1  0
 21 22  1  0
 22 23  1  0
 23 24  1  0
 24 25  1  0
M  END
