
     RDKit          3D

 17 18  0  0  0  0  0  0  0  0999 V2000
    6.0630    0.2250    0.3900 O   0  0  0  0  0  0  0  0  0  0  0  0
    4.6910    0.2900    0.3340 C   0  0  0  0  0  0  0  0  0  0  0  0
    3.9790   -0.8480    0.1360 C   0  0  0  0  0  0  0  0  0  0  0  0
    2.5950   -0.8070    0.0760 C   0  0  0  0  0  0  0  0  0  0  0  0
    1.9060    0.3470    0.2120 C   0  0  0  0  0  0  0  0  0  0  0  0
    0.4670    0.5290    0.1700 C   0  0  0  0  0  0  0  0  0  0  0  0
   -0.3320   -0.4970   -0.0160 C   0  0  0  0  0  0  0  0  0  0  0  0
   -1.8010   -0.4000   -0.0710 C   0  0  0  0  0  0  0  0  0  0  0  0
   -2.4600    0.7760    0.0680 C   0  0  0  0  0  0  0  0  0  0  0  0
   -3.8560    0.8340    0.0110 C   0  0  0  0  0  0  0  0  0  0  0  0
   -4.5530    2.0100    0.1490 O   0  0  0  0  0  0  0  0  0  0  0  0
   -4.5560   -0.3230   -0.1900 C   0  0  0  0  0  0  0  0  0  0  0  0
   -3.8870   -1.5230   -0.3330 C   0  0  0  0  0  0  0  0  0  0  0  0
   -4.6450   -2.6770   -0.5360 O   0  0  0  0  0  0  0  0  0  0  0  0
   -2.5190   -1.5460   -0.2720 C   0  0  0  0  0  0  0  0  0  0  0  0
    2.6610    1.5130    0.4160 C   0  0  0  0  0  0  0  0  0  0  0  0
    4.0370    1.4890    0.4780 C   0  0  0  0  0  0  0  0  0  0  0  0
  1  2  1  0
  2  3  2  0
  2 17  1  0
  3  4  1  0
  4  5  2  0
  5  6  1  0
  5 16  1  0
  6  7  2  3
  7  8  1  0
  8  9  2  0
  8 15  1  0
  9 10  1  0
 10 11  1  0
 10 12  2  0
 12 13  1  0
 13 14  1  0
 13 15  2  0
 16 17  2  0
M  END
