
     RDKit          3D

 31 34  0  0  0  0  0  0  0  0999 V2000
    7.1550   -2.8410    0.2790 C   0  0  0  0  0  0  0  0  0  0  0  0
    5.9720   -3.3290    0.0390 C   0  0  0  0  0  0  0  0  0  0  0  0
    4.7450   -2.5340   -0.0020 C   0  0  0  0  0  0  0  0  0  0  0  0
    3.5430   -3.1200   -0.1680 N   0  0  0  0  0  0  0  0  0  0  0  0
    2.3800   -2.4670   -0.2200 C   0  0  0  0  0  0  0  0  0  0  0  0
    2.3690   -1.0900   -0.0970 C   0  0  0  0  0  0  0  0  0  0  0  0
    1.1380   -0.3150   -0.1380 C   0  0  0  0  0  0  0  0  0  0  0  0
    1.2240    1.0210   -0.0420 N   0  0  0  0  0  0  0  0  0  0  0  0
    0.1360    1.8050   -0.0680 C   0  0  0  0  0  0  0  0  0  0  0  0
   -1.1210    1.2050   -0.1980 C   0  0  0  0  0  0  0  0  0  0  0  0
   -1.2100   -0.1540   -0.2940 C   0  0  0  0  0  0  0  0  0  0  0  0
   -2.4710   -0.8780   -0.3920 C   0  0  1  0  0  0  0  0  0  0  0  0
   -2.2200   -2.3020   -0.8810 C   0  0  0  0  0  0  0  0  0  0  0  0
   -3.5400   -2.9660   -1.1720 C   0  0  0  0  0  0  0  0  0  0  0  0
   -4.5060   -2.9080   -0.0280 C   0  0  0  0  0  0  0  0  0  0  0  0
   -4.5120   -1.6020    0.7080 C   0  0  0  0  0  0  0  0  0  0  0  0
   -3.1130   -1.1040    0.9910 C   0  0  0  0  0  0  0  0  0  0  0  0
   -0.0680   -0.8930   -0.2620 N   0  0  0  0  0  0  0  0  0  0  0  0
   -2.3060    2.0590   -0.2600 C   0  0  0  0  0  0  0  0  0  0  0  0
   -2.0830    3.4780    0.2050 C   0  0  0  0  0  0  0  0  0  0  0  0
   -0.8410    4.0720   -0.4550 C   0  0  2  0  0  0  0  0  0  0  0  0
   -0.7650    5.3960   -0.1580 F   0  0  0  0  0  0  0  0  0  0  0  0
   -0.9270    3.8530   -1.8260 F   0  0  0  0  0  0  0  0  0  0  0  0
    0.2980    3.2590    0.0370 C   0  0  0  0  0  0  0  0  0  0  0  0
    1.4090    3.7270    0.5470 C   0  0  0  0  0  0  0  0  0  0  0  0
    1.6890    5.1760    0.7050 C   0  0  1  0  0  0  0  0  0  0  0  0
    0.9150    5.7260    1.7170 F   0  0  0  0  0  0  0  0  0  0  0  0
    3.0280    5.3480    1.0340 F   0  0  0  0  0  0  0  0  0  0  0  0
    3.5820   -0.4670    0.0730 C   0  0  0  0  0  0  0  0  0  0  0  0
    3.6120    0.8030    0.1900 O   0  0  0  0  0  0  0  0  0  0  0  0
    4.7360   -1.1960    0.1170 N   0  0  0  0  0  0  0  0  0  0  0  0
  1  2  2  0
  2  3  1  0
  3  4  2  0
  3 31  1  0
  4  5  1  0
  5  6  2  0
  6  7  1  0
  6 29  1  0
  7  8  2  0
  7 18  1  0
  8  9  1  0
  9 10  2  0
  9 24  1  0
 10 11  1  0
 10 19  1  0
 12 11  1  1
 11 18  2  0
 12 13  1  0
 12 17  1  0
 13 14  1  0
 14 15  1  0
 15 16  1  0
 16 17  1  0
 19 20  1  0
 20 21  1  0
 21 22  1  6
 21 23  1  0
 21 24  1  0
 24 25  2  3
 25 26  1  0
 26 27  1  1
 26 28  1  0
 29 30  2  0
 29 31  1  0
M  END
