
     RDKit          3D

 31 34  0  0  0  0  0  0  0  0999 V2000
   -4.0050    2.6020    2.7220 C   0  0  0  0  0  0  0  0  0  0  0  0
   -3.5960    1.5460    1.7400 C   0  0  0  0  0  0  0  0  0  0  0  0
   -4.5460    0.8870    1.1250 C   0  0  0  0  0  0  0  0  0  0  0  0
   -4.0900   -0.1350    0.1750 C   0  0  0  0  0  0  0  0  0  0  0  0
   -5.0700   -0.7340   -0.4820 C   0  0  0  0  0  0  0  0  0  0  0  0
   -4.9480   -1.7490   -1.4660 N   0  0  0  0  0  0  0  0  0  0  0  0
   -3.9520   -2.4480   -1.8920 C   0  0  0  0  0  0  0  0  0  0  0  0
   -2.5960   -2.3180   -1.3830 C   0  0  0  0  0  0  0  0  0  0  0  0
   -2.0510   -1.4350   -0.5840 C   0  0  0  0  0  0  0  0  0  0  0  0
   -2.6710   -0.3030    0.0270 N   0  0  0  0  0  0  0  0  0  0  0  0
   -1.7080    0.4530    0.7100 C   0  0  0  0  0  0  0  0  0  0  0  0
   -0.2800    0.4330    0.6070 C   0  0  0  0  0  0  0  0  0  0  0  0
    0.3220    1.1720    1.5010 O   0  0  0  0  0  0  0  0  0  0  0  0
    0.6290   -0.1830   -0.2410 N   0  0  0  0  0  0  0  0  0  0  0  0
    2.0370   -0.0750   -0.1440 C   0  0  0  0  0  0  0  0  0  0  0  0
    2.7760   -0.9220    0.6210 C   0  0  0  0  0  0  0  0  0  0  0  0
    2.1870   -2.0300    1.3570 C   0  0  0  0  0  0  0  0  0  0  0  0
    1.9020   -3.2730    0.5680 C   0  0  2  0  0  0  0  0  0  0  0  0
    1.3440   -4.1890    1.4640 F   0  0  0  0  0  0  0  0  0  0  0  0
    3.1170   -3.8190    0.1550 F   0  0  0  0  0  0  0  0  0  0  0  0
    1.0820   -3.1480   -0.4930 F   0  0  0  0  0  0  0  0  0  0  0  0
    4.1700   -0.7420    0.6890 C   0  0  0  0  0  0  0  0  0  0  0  0
    4.8050    0.2690    0.0020 C   0  0  0  0  0  0  0  0  0  0  0  0
    6.1530    0.3520    0.1390 F   0  0  0  0  0  0  0  0  0  0  0  0
    4.0500    1.1060   -0.7580 C   0  0  0  0  0  0  0  0  0  0  0  0
    4.6760    2.1210   -1.4500 C   0  0  0  0  0  0  0  0  0  0  0  0
    3.9660    3.0120   -2.2450 C   0  0  0  0  0  0  0  0  0  0  0  0
    2.6100    2.8550   -2.3260 C   0  0  0  0  0  0  0  0  0  0  0  0
    1.9780    1.8400   -1.6340 C   0  0  0  0  0  0  0  0  0  0  0  0
    2.6770    0.9440   -0.8370 C   0  0  0  0  0  0  0  0  0  0  0  0
   -2.2350    1.3430    1.5430 N   0  0  0  0  0  0  0  0  0  0  0  0
  1  2  1  0
  2  3  2  0
  2 31  1  0
  3  4  1  0
  4  5  2  0
  4 10  1  0
  5  6  1  0
  6  7  2  0
  7  8  1  0
  8  9  2  0
  9 10  1  0
 10 11  1  0
 11 12  1  0
 11 31  2  0
 12 13  2  0
 12 14  1  0
 14 15  1  0
 15 16  2  0
 15 30  1  0
 16 17  1  0
 16 22  1  0
 17 18  1  0
 18 19  1  1
 18 20  1  0
 18 21  1  0
 22 23  2  0
 23 24  1  0
 23 25  1  0
 25 26  2  0
 25 30  1  0
 26 27  1  0
 27 28  2  0
 28 29  1  0
 29 30  2  0
M  END
