
     RDKit          3D

 30 34  0  0  0  0  0  0  0  0999 V2000
   -2.6040   -1.4500   -2.6160 O   0  0  0  0  0  0  0  0  0  0  0  0
   -2.6380   -0.9730   -1.4560 C   0  0  0  0  0  0  0  0  0  0  0  0
   -1.4720   -0.8150   -0.6620 N   0  0  0  0  0  0  0  0  0  0  0  0
   -1.6320   -0.2520    0.6310 C   0  0  0  0  0  0  0  0  0  0  0  0
   -0.5790    0.1600    1.3420 C   0  0  0  0  0  0  0  0  0  0  0  0
    0.7910    0.0920    0.8990 C   0  0  0  0  0  0  0  0  0  0  0  0
    1.7900   -0.4210    1.6780 C   0  0  0  0  0  0  0  0  0  0  0  0
    3.1170   -0.4520    1.2300 C   0  0  0  0  0  0  0  0  0  0  0  0
    3.4630    0.0350   -0.0170 C   0  0  0  0  0  0  0  0  0  0  0  0
    4.7980   -0.0190   -0.4820 N   0  0  0  0  0  0  0  0  0  0  0  0
    5.7990   -0.7530    0.2410 C   0  0  0  0  0  0  0  0  0  0  0  0
    7.0620   -0.8290   -0.1220 C   0  0  0  0  0  0  0  0  0  0  0  0
    7.5640   -0.1560   -1.3220 C   0  0  2  0  0  0  0  0  0  0  0  0
    8.0670   -1.1080   -2.2320 F   0  0  0  0  0  0  0  0  0  0  0  0
    8.6290    0.6970   -0.9830 F   0  0  0  0  0  0  0  0  0  0  0  0
    6.5370    0.5780   -2.0370 C   0  0  0  0  0  0  0  0  0  0  0  0
    5.2770    0.6360   -1.6460 C   0  0  0  0  0  0  0  0  0  0  0  0
    2.4600    0.5530   -0.8030 C   0  0  0  0  0  0  0  0  0  0  0  0
    2.6190    1.0550   -2.0500 F   0  0  0  0  0  0  0  0  0  0  0  0
    1.1290    0.5790   -0.3380 C   0  0  0  0  0  0  0  0  0  0  0  0
   -2.9650   -0.0560    1.2130 C   0  0  0  0  0  0  0  0  0  0  0  0
   -4.0690   -0.0690    0.3060 N   0  0  0  0  0  0  0  0  0  0  0  0
   -3.9400   -0.5710   -0.9230 C   0  0  0  0  0  0  0  0  0  0  0  0
   -5.2110   -0.5040   -1.4950 C   0  0  0  0  0  0  0  0  0  0  0  0
   -6.0980    0.0440   -0.6020 C   0  0  0  0  0  0  0  0  0  0  0  0
   -7.4570    0.3550   -0.6090 C   0  0  0  0  0  0  0  0  0  0  0  0
   -8.0470    0.9160    0.4840 N   0  0  0  0  0  0  0  0  0  0  0  0
   -7.3480    1.1920    1.6060 C   0  0  0  0  0  0  0  0  0  0  0  0
   -6.0090    0.8860    1.6160 C   0  0  0  0  0  0  0  0  0  0  0  0
   -5.3700    0.3150    0.5290 C   0  0  0  0  0  0  0  0  0  0  0  0
  1  2  2  0
  2  3  1  0
  2 23  1  0
  3  4  1  0
  4  5  2  3
  4 21  1  0
  5  6  1  0
  6  7  2  0
  6 20  1  0
  7  8  1  0
  8  9  2  0
  9 10  1  0
  9 18  1  0
 10 11  1  0
 10 17  1  0
 11 12  2  0
 12 13  1  0
 13 14  1  6
 13 15  1  0
 13 16  1  0
 16 17  2  0
 18 19  1  0
 18 20  2  0
 21 22  1  0
 22 23  1  0
 22 30  1  0
 23 24  2  0
 24 25  1  0
 25 26  2  0
 25 30  1  0
 26 27  1  0
 27 28  2  0
 28 29  1  0
 29 30  2  0
M  END
