
     RDKit          3D

 29 30  0  0  0  0  0  0  0  0999 V2000
   -3.3060   -0.4400    3.2820 C   0  0  0  0  0  0  0  0  0  0  0  0
   -3.2280    1.3060    2.8660 S   0  0  0  0  0  0  0  0  0  0  0  0
   -1.7380    1.7340    1.9250 C   0  0  0  0  0  0  0  0  0  0  0  0
   -1.8400    1.0350    0.5660 C   0  0  2  0  0  0  0  0  0  0  0  0
   -0.6930    1.3170   -0.2570 N   0  0  0  0  0  0  0  0  0  0  0  0
    0.2550    0.2940   -0.6410 C   0  0  0  0  0  0  0  0  0  0  0  0
   -0.0100   -0.8410   -0.1980 O   0  0  0  0  0  0  0  0  0  0  0  0
    1.3640    0.5610   -1.4370 N   0  0  0  0  0  0  0  0  0  0  0  0
    2.3310   -0.4140   -1.8270 C   0  0  0  0  0  0  0  0  0  0  0  0
    3.1140   -1.0680   -0.7480 C   0  0  1  0  0  0  0  0  0  0  0  0
    2.3150   -1.7520    0.1270 O   0  0  0  0  0  0  0  0  0  0  0  0
    3.9910   -2.1220   -1.4490 C   0  0  0  0  0  0  0  0  0  0  0  0
    4.7870   -3.0480   -0.1030 S   0  0  0  0  0  0  0  0  0  0  0  0
    5.5900   -1.7780    0.9440 C   0  0  1  0  0  0  0  0  0  0  0  0
    7.0300   -1.9320    0.6940 N   0  0  0  0  0  0  0  0  0  0  0  0
    7.1870   -1.7100   -0.6520 O   0  0  0  0  0  0  0  0  0  0  0  0
    5.2310   -0.4510    0.4730 N   0  0  0  0  0  0  0  0  0  0  0  0
    3.9540   -0.1020    0.0180 C   0  0  0  0  0  0  0  0  0  0  0  0
    3.4590    1.0340    0.2320 O   0  0  0  0  0  0  0  0  0  0  0  0
   -3.0870    1.3170   -0.0790 N   0  0  0  0  0  0  0  0  0  0  0  0
   -3.3250    2.6030   -0.4700 C   0  0  0  0  0  0  0  0  0  0  0  0
   -2.4800    3.5200   -0.2750 O   0  0  0  0  0  0  0  0  0  0  0  0
   -4.5070    2.8250   -1.0710 N   0  0  0  0  0  0  0  0  0  0  0  0
   -5.4160    1.8570   -1.2850 C   0  0  0  0  0  0  0  0  0  0  0  0
   -6.5160    2.0880   -1.8490 O   0  0  0  0  0  0  0  0  0  0  0  0
   -5.1480    0.5870   -0.8830 N   0  0  0  0  0  0  0  0  0  0  0  0
   -6.0990   -0.4910   -1.0920 C   0  0  0  0  0  0  0  0  0  0  0  0
   -3.9820    0.3360   -0.2840 C   0  0  0  0  0  0  0  0  0  0  0  0
   -3.7580   -0.8650    0.0830 O   0  0  0  0  0  0  0  0  0  0  0  0
  1  2  1  0
  2  3  1  0
  4  3  1  1
  4  5  1  0
  4 20  1  0
  5  6  1  0
  6  7  2  0
  6  8  1  0
  8  9  1  0
  9 10  1  0
 10 11  1  1
 10 12  1  0
 10 18  1  0
 12 13  1  0
 13 14  1  0
 14 15  1  6
 14 17  1  0
 15 16  1  0
 17 18  1  0
 18 19  2  0
 20 21  1  0
 20 28  1  0
 21 22  2  0
 21 23  1  0
 23 24  1  0
 24 25  2  0
 24 26  1  0
 26 27  1  0
 26 28  1  0
 28 29  2  0
M  END
