
     RDKit          3D

 30 34  0  0  0  0  0  0  0  0999 V2000
    0.7630   -1.6580   -0.5660 O   0  0  0  0  0  0  0  0  0  0  0  0
    0.6250   -0.4510   -0.2340 C   0  0  0  0  0  0  0  0  0  0  0  0
    1.7650    0.2970    0.0680 N   0  0  0  0  0  0  0  0  0  0  0  0
    3.1160   -0.1470    0.0490 C   0  0  0  0  0  0  0  0  0  0  0  0
    3.5320   -1.4390   -0.1310 C   0  0  0  0  0  0  0  0  0  0  0  0
    4.8990   -1.7660   -0.1440 C   0  0  0  0  0  0  0  0  0  0  0  0
    5.8660   -0.8020    0.0220 C   0  0  0  0  0  0  0  0  0  0  0  0
    7.1780   -1.0920    0.0130 N   0  0  0  0  0  0  0  0  0  0  0  0
    8.0980   -0.1420    0.1760 C   0  0  0  0  0  0  0  0  0  0  0  0
    7.7420    1.1690    0.3600 C   0  0  0  0  0  0  0  0  0  0  0  0
    6.4230    1.5140    0.3780 C   0  0  0  0  0  0  0  0  0  0  0  0
    5.4700    0.5180    0.2070 C   0  0  0  0  0  0  0  0  0  0  0  0
    4.1280    0.8060    0.2150 C   0  0  0  0  0  0  0  0  0  0  0  0
   -0.7290    0.1300   -0.1750 C   0  0  0  0  0  0  0  0  0  0  0  0
   -0.9630    1.4740   -0.1190 C   0  0  0  0  0  0  0  0  0  0  0  0
   -2.2160    2.0270   -0.0570 C   0  0  0  0  0  0  0  0  0  0  0  0
   -3.3200    1.1450   -0.0520 C   0  0  0  0  0  0  0  0  0  0  0  0
   -3.1420   -0.2060   -0.1060 C   0  0  0  0  0  0  0  0  0  0  0  0
   -1.8430   -0.6990   -0.1670 C   0  0  0  0  0  0  0  0  0  0  0  0
   -4.2770   -1.1150   -0.0810 C   0  0  0  0  0  0  0  0  0  0  0  0
   -4.1270   -2.4370   -0.1490 N   0  0  0  0  0  0  0  0  0  0  0  0
   -5.2040   -3.2340   -0.1380 N   0  0  0  0  0  0  0  0  0  0  0  0
   -6.4620   -2.7750   -0.0600 C   0  0  0  0  0  0  0  0  0  0  0  0
   -7.5210   -3.6520   -0.0540 F   0  0  0  0  0  0  0  0  0  0  0  0
   -6.6600   -1.4140    0.0130 C   0  0  0  0  0  0  0  0  0  0  0  0
   -5.5350   -0.5790    0.0010 C   0  0  0  0  0  0  0  0  0  0  0  0
   -5.7910    0.8710    0.0980 C   0  0  2  0  0  0  0  0  0  0  0  0
   -6.3740    1.0440    1.3740 F   0  0  0  0  0  0  0  0  0  0  0  0
   -6.8040    1.2460   -0.8090 F   0  0  0  0  0  0  0  0  0  0  0  0
   -4.6420    1.7650   -0.0070 C   0  0  0  0  0  0  0  0  0  0  0  0
  1  2  2  0
  2  3  1  0
  2 14  1  0
  3  4  1  0
  4  5  2  0
  4 13  1  0
  5  6  1  0
  6  7  2  0
  7  8  1  0
  7 12  1  0
  8  9  2  0
  9 10  1  0
 10 11  2  0
 11 12  1  0
 12 13  2  0
 14 15  2  0
 14 19  1  0
 15 16  1  0
 16 17  2  0
 17 18  1  0
 17 30  1  0
 18 19  2  0
 18 20  1  0
 20 21  2  0
 20 26  1  0
 21 22  1  0
 22 23  2  0
 23 24  1  0
 23 25  1  0
 25 26  2  0
 26 27  1  0
 27 28  1  1
 27 29  1  0
 27 30  1  0
M  END
