
     RDKit          3D

 29 33  0  0  0  0  0  0  0  0999 V2000
    8.1510    1.7550   -1.3890 C   0  0  0  0  0  0  0  0  0  0  0  0
    7.1240    0.7560   -0.9630 C   0  0  0  0  0  0  0  0  0  0  0  0
    6.7860    0.5770    0.3610 C   0  0  0  0  0  0  0  0  0  0  0  0
    5.8370   -0.3480    0.7420 C   0  0  0  0  0  0  0  0  0  0  0  0
    5.1730   -1.1460   -0.1860 C   0  0  0  0  0  0  0  0  0  0  0  0
    4.2180   -2.0740    0.2170 O   0  0  0  0  0  0  0  0  0  0  0  0
    2.8820   -1.6950    0.3320 C   0  0  0  0  0  0  0  0  0  0  0  0
    2.4220   -1.3190    1.5470 N   0  0  0  0  0  0  0  0  0  0  0  0
    1.1770   -0.9410    1.7680 N   0  0  0  0  0  0  0  0  0  0  0  0
    0.2630   -0.9090    0.7560 C   0  0  0  0  0  0  0  0  0  0  0  0
   -1.1020   -0.4870    1.0450 C   0  0  0  0  0  0  0  0  0  0  0  0
   -1.4890   -0.1170    2.3250 C   0  0  0  0  0  0  0  0  0  0  0  0
   -2.7660    0.2880    2.6460 C   0  0  0  0  0  0  0  0  0  0  0  0
   -3.0840    0.6550    4.0000 C   0  0  0  0  0  0  0  0  0  0  0  0
   -3.7080    0.3260    1.6300 C   0  0  0  0  0  0  0  0  0  0  0  0
   -4.9830    0.7320    1.9580 C   0  0  0  0  0  0  0  0  0  0  0  0
   -5.9330    0.7720    0.9460 C   0  0  0  0  0  0  0  0  0  0  0  0
   -5.5950    0.4130   -0.3420 C   0  0  0  0  0  0  0  0  0  0  0  0
   -4.3080    0.0070   -0.6580 C   0  0  0  0  0  0  0  0  0  0  0  0
   -3.3660   -0.0330    0.3430 C   0  0  0  0  0  0  0  0  0  0  0  0
   -2.0590   -0.4360    0.0720 C   0  0  0  0  0  0  0  0  0  0  0  0
   -4.2130   -0.3170   -2.0910 C   0  0  0  0  0  0  0  0  0  0  0  0
   -5.3580    0.5330   -2.6590 C   0  0  0  0  0  0  0  0  0  0  0  0
   -6.4050    0.3670   -1.5850 C   0  0  0  0  0  0  0  0  0  0  0  0
    0.7040   -1.2790   -0.4520 N   0  0  0  0  0  0  0  0  0  0  0  0
    1.9880   -1.6720   -0.6970 C   0  0  0  0  0  0  0  0  0  0  0  0
    2.3610   -2.0090   -1.8380 O   0  0  0  0  0  0  0  0  0  0  0  0
    5.5220   -0.9540   -1.5070 C   0  0  0  0  0  0  0  0  0  0  0  0
    6.4720   -0.0290   -1.8880 C   0  0  0  0  0  0  0  0  0  0  0  0
  1  2  1  0
  2  3  2  0
  2 29  1  0
  3  4  1  0
  4  5  2  0
  5  6  1  0
  5 28  1  0
  6  7  1  0
  7  8  2  0
  7 26  1  0
  8  9  1  0
  9 10  2  0
 10 11  1  0
 10 25  1  0
 11 12  2  0
 11 21  1  0
 12 13  1  0
 13 14  1  0
 13 15  2  0
 15 16  1  0
 15 20  1  0
 16 17  2  0
 17 18  1  0
 18 19  2  0
 18 24  1  0
 19 20  1  0
 19 22  1  0
 20 21  2  0
 22 23  1  0
 23 24  1  0
 25 26  1  0
 26 27  2  0
 28 29  2  0
M  END
