
     RDKit          3D

 29 29  0  0  0  0  0  0  0  0999 V2000
   -5.6690   -1.1110   -2.3810 C   0  0  0  0  0  0  0  0  0  0  0  0
   -5.7600    0.0060   -1.3940 C   0  0  1  0  0  0  0  0  0  0  0  0
   -6.6200    1.1050   -2.0250 C   0  0  0  0  0  0  0  0  0  0  0  0
   -6.4450   -0.3840   -0.1090 C   0  0  0  0  0  0  0  0  0  0  0  0
   -4.5110    0.6060   -1.1060 O   0  0  0  0  0  0  0  0  0  0  0  0
   -3.4640   -0.1350   -0.5640 C   0  0  0  0  0  0  0  0  0  0  0  0
   -3.6560   -1.3320   -0.3420 O   0  0  0  0  0  0  0  0  0  0  0  0
   -2.1980    0.4330   -0.2630 N   0  0  0  0  0  0  0  0  0  0  0  0
   -1.0810   -0.2370    0.2880 C   0  0  1  0  0  0  0  0  0  0  0  0
   -1.2720   -0.8490    1.6470 C   0  0  1  0  0  0  0  0  0  0  0  0
   -0.0380   -1.4410    1.9670 F   0  0  0  0  0  0  0  0  0  0  0  0
   -1.5180    0.0720    2.6280 F   0  0  0  0  0  0  0  0  0  0  0  0
   -2.1670   -1.9000    1.6650 F   0  0  0  0  0  0  0  0  0  0  0  0
   -0.5230   -1.3200   -0.6140 C   0  0  0  0  0  0  0  0  0  0  0  0
    0.9890   -1.2460   -0.4810 C   0  0  0  0  0  0  0  0  0  0  0  0
    1.2650   -0.0440    0.2450 N   0  0  0  0  0  0  0  0  0  0  0  0
    2.5530    0.3340    0.7720 C   0  0  0  0  0  0  0  0  0  0  0  0
    2.6640    1.4150    1.3910 O   0  0  0  0  0  0  0  0  0  0  0  0
    3.6540   -0.4720    0.6040 N   0  0  0  0  0  0  0  0  0  0  0  0
    5.0130   -0.3760    1.0080 C   0  0  0  0  0  0  0  0  0  0  0  0
    5.7040    0.8180    0.5690 C   0  0  0  0  0  0  0  0  0  0  0  0
    5.8270    2.0690    1.2930 C   0  0  0  0  0  0  0  0  0  0  0  0
    5.3510    2.4070    2.4560 C   0  0  0  0  0  0  0  0  0  0  0  0
    5.6190    3.6950    2.9140 F   0  0  0  0  0  0  0  0  0  0  0  0
    4.6670    1.5870    3.3000 F   0  0  0  0  0  0  0  0  0  0  0  0
    6.3890    0.7620   -0.5810 C   0  0  0  0  0  0  0  0  0  0  0  0
    6.4540   -0.4460   -1.3910 C   0  0  0  0  0  0  0  0  0  0  0  0
    7.7480   -0.9290   -1.5370 F   0  0  0  0  0  0  0  0  0  0  0  0
    0.0840    0.7290    0.3760 C   0  0  0  0  0  0  0  0  0  0  0  0
  2  1  1  6
  2  3  1  0
  2  4  1  0
  2  5  1  0
  5  6  1  0
  6  7  2  0
  6  8  1  0
  9  8  1  6
  9 10  1  0
  9 14  1  0
  9 29  1  0
 10 11  1  1
 10 12  1  0
 10 13  1  0
 14 15  1  0
 15 16  1  0
 16 17  1  0
 16 29  1  0
 17 18  2  0
 17 19  1  0
 19 20  1  0
 20 21  1  0
 21 22  1  0
 21 26  2  3
 22 23  2  3
 23 24  1  0
 23 25  1  0
 26 27  1  0
 27 28  1  0
M  END
