
     RDKit          3D

 31 34  0  0  0  0  0  0  0  0999 V2000
    4.4240   -2.1980   -0.7920 C   0  0  0  0  0  0  0  0  0  0  0  0
    4.1230   -0.7540   -0.9790 C   0  0  0  0  0  0  0  0  0  0  0  0
    3.0360   -0.1000   -0.2670 C   0  0  1  0  0  0  0  0  0  0  0  0
    3.0920    1.3850   -0.7010 C   0  0  0  0  0  0  0  0  0  0  0  0
    2.1560    1.9310   -1.2850 O   0  0  0  0  0  0  0  0  0  0  0  0
    4.2410    2.0910   -0.4100 O   0  0  0  0  0  0  0  0  0  0  0  0
    4.4200    3.4510   -0.7510 C   0  0  0  0  0  0  0  0  0  0  0  0
    1.6200   -0.4770   -0.4340 C   0  0  2  0  0  0  0  0  0  0  0  0
    0.8780    0.5130    0.4060 N   0  0  0  0  0  0  0  0  0  0  0  0
   -0.3920    0.6340    0.6000 C   0  0  0  0  0  0  0  0  0  0  0  0
   -0.9150    1.6600    1.4590 C   0  0  0  0  0  0  0  0  0  0  0  0
   -2.2050    1.8050    1.8720 C   0  0  0  0  0  0  0  0  0  0  0  0
   -2.6470    2.8660    2.6270 C   0  0  0  0  0  0  0  0  0  0  0  0
   -1.7510    3.8440    3.0000 C   0  0  0  0  0  0  0  0  0  0  0  0
   -2.2370    5.2150    3.9560 Cl  0  0  0  0  0  0  0  0  0  0  0  0
   -0.4270    3.7280    2.6010 C   0  0  0  0  0  0  0  0  0  0  0  0
   -0.0130    2.6740    1.8540 C   0  0  0  0  0  0  0  0  0  0  0  0
   -1.3550   -0.1760   -0.1140 C   0  0  0  0  0  0  0  0  0  0  0  0
   -2.4890    0.4720   -0.5360 C   0  0  0  0  0  0  0  0  0  0  0  0
   -3.4740   -0.2040   -1.2230 C   0  0  0  0  0  0  0  0  0  0  0  0
   -4.5960    0.5090   -1.6160 O   0  0  0  0  0  0  0  0  0  0  0  0
   -5.6710   -0.0370   -2.3140 C   0  0  0  0  0  0  0  0  0  0  0  0
   -3.3130   -1.5690   -1.4980 C   0  0  0  0  0  0  0  0  0  0  0  0
   -2.1750   -2.2680   -1.0940 C   0  0  0  0  0  0  0  0  0  0  0  0
   -1.2460   -1.5360   -0.4170 C   0  0  0  0  0  0  0  0  0  0  0  0
   -0.1090   -2.3130   -0.0890 N   0  0  0  0  0  0  0  0  0  0  0  0
   -0.1600   -3.5740    0.2760 C   0  0  0  0  0  0  0  0  0  0  0  0
   -1.3640   -4.4100    0.4680 C   0  0  0  0  0  0  0  0  0  0  0  0
    1.1390   -3.9230    0.4980 N   0  0  0  0  0  0  0  0  0  0  0  0
    1.9090   -2.8480    0.2550 N   0  0  0  0  0  0  0  0  0  0  0  0
    1.1820   -1.8250   -0.1110 C   0  0  0  0  0  0  0  0  0  0  0  0
  1  2  1  0
  3  2  1  6
  3  4  1  0
  3  8  1  0
  4  5  2  0
  4  6  1  0
  6  7  1  0
  8  9  1  1
  8 31  1  0
  9 10  2  0
 10 11  1  0
 10 18  1  0
 11 12  2  0
 11 17  1  0
 12 13  1  0
 13 14  2  0
 14 15  1  0
 14 16  1  0
 16 17  2  0
 18 19  2  0
 18 25  1  0
 19 20  1  0
 20 21  1  0
 20 23  2  0
 21 22  1  0
 23 24  1  0
 24 25  2  0
 25 26  1  0
 26 27  1  0
 26 31  1  0
 27 28  1  0
 27 29  2  0
 29 30  1  0
 30 31  2  0
M  END
