
     RDKit          3D

 25 28  0  0  0  0  0  0  0  0999 V2000
    5.9000    2.7920    0.5430 C   0  0  0  0  0  0  0  0  0  0  0  0
    5.2140    1.5780    0.2910 O   0  0  0  0  0  0  0  0  0  0  0  0
    4.4600    1.3360   -0.8220 C   0  0  0  0  0  0  0  0  0  0  0  0
    4.3950    2.2930   -1.6680 O   0  0  0  0  0  0  0  0  0  0  0  0
    3.7250    0.0970   -1.1400 C   0  0  1  0  0  0  0  0  0  0  0  0
    4.6890   -1.0590   -1.1880 C   0  0  0  0  0  0  0  0  0  0  0  0
    4.9240   -1.3700    0.2750 C   0  0  0  0  0  0  0  0  0  0  0  0
    3.7730   -0.8030    1.0240 C   0  0  0  0  0  0  0  0  0  0  0  0
    2.8430   -0.2550    0.0300 C   0  0  2  0  0  0  0  0  0  0  0  0
    1.7510   -1.1690   -0.4310 C   0  0  2  0  0  0  0  0  0  0  0  0
    0.9580   -0.4290   -1.4850 C   0  0  0  0  0  0  0  0  0  0  0  0
   -0.4880   -0.8500   -1.5160 C   0  0  0  0  0  0  0  0  0  0  0  0
   -1.2190   -0.6310   -0.2080 C   0  0  1  0  0  0  0  0  0  0  0  0
   -1.9920    0.6620   -0.3360 C   0  0  0  0  0  0  0  0  0  0  0  0
   -3.4760    0.3990   -0.4510 C   0  0  2  0  0  0  0  0  0  0  0  0
   -4.2690    1.6610   -0.3810 C   0  0  0  0  0  0  0  0  0  0  0  0
   -5.5000    1.5540    0.4640 C   0  0  0  0  0  0  0  0  0  0  0  0
   -6.2360    0.2590    0.3120 C   0  0  0  0  0  0  0  0  0  0  0  0
   -5.3460   -0.9510    0.3280 C   0  0  0  0  0  0  0  0  0  0  0  0
   -3.9530   -0.4920    0.7040 C   0  0  1  0  0  0  0  0  0  0  0  0
   -3.0000   -1.6330    0.9250 C   0  0  0  0  0  0  0  0  0  0  0  0
   -1.9980   -1.7340    0.0050 O   0  0  0  0  0  0  0  0  0  0  0  0
   -0.1660   -0.4840    0.8720 C   0  0  1  0  0  0  0  0  0  0  0  0
   -0.6750   -0.4480    2.1430 O   0  0  0  0  0  0  0  0  0  0  0  0
    0.8270   -1.6200    0.6630 C   0  0  0  0  0  0  0  0  0  0  0  0
  1  2  1  0
  2  3  1  0
  3  4  2  0
  5  3  1  1
  5  6  1  0
  5  9  1  0
  6  7  1  0
  7  8  1  0
  9  8  1  1
  9 10  1  0
 10 11  1  6
 10 25  1  0
 11 12  1  0
 13 12  1  6
 13 14  1  0
 13 22  1  0
 13 23  1  0
 15 14  1  1
 15 16  1  0
 15 20  1  0
 16 17  1  0
 17 18  1  0
 18 19  1  0
 20 19  1  6
 20 21  1  0
 21 22  1  0
 23 24  1  1
 23 25  1  0
M  END
