
     RDKit          3D

 25 28  0  0  0  0  0  0  0  0999 V2000
   -4.8640    2.6670    0.8310 C   0  0  0  0  0  0  0  0  0  0  0  0
   -4.2840    1.3810    1.3390 C   0  0  1  0  0  0  0  0  0  0  0  0
   -3.8710    1.5930    2.6500 O   0  0  0  0  0  0  0  0  0  0  0  0
   -5.3450    0.3330    1.2830 C   0  0  0  0  0  0  0  0  0  0  0  0
   -5.7060   -0.1860    2.3230 O   0  0  0  0  0  0  0  0  0  0  0  0
   -3.1020    1.0100    0.4890 C   0  0  2  0  0  0  0  0  0  0  0  0
   -3.5440    0.8390   -0.9330 C   0  0  0  0  0  0  0  0  0  0  0  0
   -2.3090    0.5230   -1.7570 C   0  0  0  0  0  0  0  0  0  0  0  0
   -1.2100    0.2630   -0.9490 O   0  0  0  0  0  0  0  0  0  0  0  0
   -1.4270   -0.7260   -0.0150 C   0  0  1  0  0  0  0  0  0  0  0  0
   -1.8910   -1.9850   -0.6950 C   0  0  0  0  0  0  0  0  0  0  0  0
   -0.7750   -2.3510   -1.6820 C   0  0  0  0  0  0  0  0  0  0  0  0
    0.3760   -2.7920   -0.8460 C   0  0  0  0  0  0  0  0  0  0  0  0
    0.8280   -1.8320    0.1820 C   0  0  1  0  0  0  0  0  0  0  0  0
    1.9990   -1.0340   -0.4050 C   0  0  1  0  0  0  0  0  0  0  0  0
    2.5250   -0.0280    0.5780 C   0  0  0  0  0  0  0  0  0  0  0  0
    4.0280   -0.1220    0.2850 C   0  0  2  0  0  0  0  0  0  0  0  0
    4.8620    0.3260    1.4270 C   0  0  0  0  0  0  0  0  0  0  0  0
    5.0730    1.8100    1.1960 C   0  0  0  0  0  0  0  0  0  0  0  0
    4.5550    2.1170   -0.1800 C   0  0  0  0  0  0  0  0  0  0  0  0
    4.3970    0.7670   -0.8780 C   0  0  0  0  0  0  0  0  0  0  0  0
    4.1380   -1.5800   -0.0400 C   0  0  0  0  0  0  0  0  0  0  0  0
    3.0130   -1.8790   -0.7550 O   0  0  0  0  0  0  0  0  0  0  0  0
   -0.1910   -0.9440    0.7720 C   0  0  0  0  0  0  0  0  0  0  0  0
   -2.5340   -0.3150    0.9530 C   0  0  0  0  0  0  0  0  0  0  0  0
  2  1  1  6
  2  3  1  0
  2  4  1  0
  2  6  1  0
  4  5  2  0
  6  7  1  6
  6 25  1  0
  7  8  1  0
  8  9  1  0
  9 10  1  0
 10 11  1  6
 10 24  1  0
 10 25  1  0
 11 12  1  0
 12 13  1  0
 14 13  1  6
 14 15  1  0
 14 24  1  0
 15 16  1  1
 15 23  1  0
 17 16  1  1
 17 18  1  0
 17 21  1  0
 17 22  1  0
 18 19  1  0
 19 20  1  0
 20 21  1  0
 22 23  1  0
M  END
