
     RDKit          3D

 10 10  0  0  0  0  0  0  0  0999 V2000
   -3.2450    0.0550   -0.2530 N   0  0  0  0  0  0  0  0  0  0  0  0
   -2.4130    0.5770    0.7790 C   0  0  0  0  0  0  0  0  0  0  0  0
   -0.9730    0.7790    0.4520 C   0  0  0  0  0  0  0  0  0  0  0  0
   -0.2090   -0.4420    0.0920 C   0  0  1  0  0  0  0  0  0  0  0  0
   -0.7140   -1.1160   -1.0800 N   0  0  0  0  0  0  0  0  0  0  0  0
    1.2620   -0.1450   -0.0530 C   0  0  0  0  0  0  0  0  0  0  0  0
    2.2230   -0.7010    0.6550 C   0  0  0  0  0  0  0  0  0  0  0  0
    3.5270   -0.1450    0.2130 C   0  0  0  0  0  0  0  0  0  0  0  0
    3.1330    0.7910   -0.8360 C   0  0  0  0  0  0  0  0  0  0  0  0
    1.8600    0.7680   -0.9610 N   0  0  0  0  0  0  0  0  0  0  0  0
  1  2  1  0
  2  3  1  0
  3  4  1  0
  4  5  1  6
  4  6  1  0
  6  7  2  0
  6 10  1  0
  7  8  1  0
  8  9  1  0
  9 10  2  0
M  CHG  3   1   1   5   1  10   1
M  END
