
     RDKit          3D

 10  9  0  0  0  0  0  0  0  0999 V2000
    4.3870    1.2090   -0.6620 N   0  0  0  0  0  0  0  0  0  0  0  0
    2.9680    0.8630   -0.6310 C   0  0  0  0  0  0  0  0  0  0  0  0
    2.8060   -0.5250   -0.0280 C   0  0  0  0  0  0  0  0  0  0  0  0
    1.3510   -0.9320    0.0240 C   0  0  0  0  0  0  0  0  0  0  0  0
    0.5490    0.0220    0.8590 C   0  0  0  0  0  0  0  0  0  0  0  0
   -0.8470   -0.3470    0.9260 N   0  0  0  0  0  0  0  0  0  0  0  0
   -1.3580   -0.8500   -0.3130 C   0  0  0  0  0  0  0  0  0  0  0  0
   -2.8150   -1.1910   -0.1360 C   0  0  0  0  0  0  0  0  0  0  0  0
   -3.6480   -0.0110    0.2640 C   0  0  0  0  0  0  0  0  0  0  0  0
   -3.6090    1.0620   -0.7090 N   0  0  0  0  0  0  0  0  0  0  0  0
  1  2  1  0
  2  3  1  0
  3  4  1  0
  4  5  1  0
  5  6  1  0
  6  7  1  0
  7  8  1  0
  8  9  1  0
  9 10  1  0
M  CHG  3   1   1   6   1  10   1
M  END
