
     RDKit          3D

 10  9  0  0  0  0  0  0  0  0999 V2000
   -1.4200   -2.4710    0.4150 C   0  0  0  0  0  0  0  0  0  0  0  0
   -2.2220   -1.4300    0.4020 C   0  0  0  0  0  0  0  0  0  0  0  0
   -1.7930   -0.1760   -0.1650 C   0  0  0  0  0  0  0  0  0  0  0  0
   -2.6480    0.8300   -0.1550 C   0  0  0  0  0  0  0  0  0  0  0  0
   -2.3570    2.1090   -0.6780 N   0  0  0  0  0  0  0  0  0  0  0  0
   -0.4640    0.0550   -0.7600 C   0  0  0  0  0  0  0  0  0  0  0  0
    0.6410   -0.1080    0.1310 N   0  0  0  0  0  0  0  0  0  0  0  0
    1.8050   -0.7160   -0.4380 C   0  0  0  0  0  0  0  0  0  0  0  0
    3.0190   -0.2200    0.3600 C   0  0  0  0  0  0  0  0  0  0  0  0
    3.0790    1.2180    0.2490 N   0  0  0  0  0  0  0  0  0  0  0  0
  1  2  2  0
  2  3  1  0
  3  4  2  3
  3  6  1  0
  4  5  1  0
  6  7  1  0
  7  8  1  0
  8  9  1  0
  9 10  1  0
M  CHG  2   5   1   7   1
M  END
