
     RDKit          3D

 23 23  0  0  0  0  0  0  0  0999 V2000
    4.7200   -0.4250   -2.9430 C   0  0  0  0  0  0  0  0  0  0  0  0
    4.7190   -1.4400   -1.9800 O   0  0  0  0  0  0  0  0  0  0  0  0
    4.2730   -0.9300   -0.7460 C   0  0  2  0  0  0  0  0  0  0  0  0
    5.2980   -1.2180    0.3110 C   0  0  0  0  0  0  0  0  0  0  0  0
    4.8220   -0.6970    1.5220 O   0  0  0  0  0  0  0  0  0  0  0  0
    3.0920   -1.6380   -0.4240 O   0  0  0  0  0  0  0  0  0  0  0  0
    1.8580   -1.0100   -0.2490 C   0  0  0  0  0  0  0  0  0  0  0  0
    1.8530    0.2440   -0.3960 O   0  0  0  0  0  0  0  0  0  0  0  0
    0.6430   -1.7950    0.0880 C   0  0  0  0  0  0  0  0  0  0  0  0
   -0.4500   -0.9160    0.2050 O   0  0  0  0  0  0  0  0  0  0  0  0
   -0.5050    0.1100    1.1070 C   0  0  0  0  0  0  0  0  0  0  0  0
    0.5010    0.2490    1.8650 O   0  0  0  0  0  0  0  0  0  0  0  0
   -1.6580    0.9800    1.1800 C   0  0  0  0  0  0  0  0  0  0  0  0
   -2.7890    1.0630    0.5440 C   0  0  0  0  0  0  0  0  0  0  0  0
   -3.1500    0.1000   -0.5640 C   0  0  0  0  0  0  0  0  0  0  0  0
   -4.6150   -0.8130   -0.2010 S   0  0  2  0  0  0  0  0  0  0  0  0
   -5.8270    0.0770   -0.0750 O   0  0  0  0  0  0  0  0  0  0  0  0
   -4.4550   -1.6780    1.0160 O   0  0  0  0  0  0  0  0  0  0  0  0
   -4.9000   -1.8350   -1.5040 O   0  0  0  0  0  0  0  0  0  0  0  0
   -3.6690    2.0800    0.9090 N   0  0  0  0  0  0  0  0  0  0  0  0
   -3.5320    2.5480    2.2700 C   0  0  2  0  0  0  0  0  0  0  0  0
   -3.8730    3.9380    2.3170 N   0  0  0  0  0  0  0  0  0  0  0  0
   -1.7050    2.3260    2.4050 S   0  0  0  0  0  0  0  0  0  0  0  0
  1  2  1  0
  2  3  1  0
  3  4  1  1
  3  6  1  0
  4  5  1  0
  6  7  1  0
  7  8  2  0
  7  9  1  0
  9 10  1  0
 10 11  1  0
 11 12  2  0
 11 13  1  0
 13 14  2  0
 13 23  1  0
 14 15  1  0
 14 20  1  0
 15 16  1  0
 16 17  2  0
 16 18  2  0
 16 19  1  6
 20 21  1  0
 21 22  1  6
 21 23  1  0
M  END
