
     RDKit          3D

  6  5  0  0  0  0  0  0  0  0999 V2000
   -1.5510    0.8250    0.4200 C   0  0  0  0  0  0  0  0  0  0  0  0
   -0.5970   -0.3020    0.1970 C   0  0  2  0  0  0  0  0  0  0  0  0
   -0.9530   -1.3740    0.9970 O   0  0  0  0  0  0  0  0  0  0  0  0
    0.7310    0.0550    0.3340 O   0  0  0  0  0  0  0  0  0  0  0  0
    1.4680   -0.0870   -0.8310 C   0  0  0  0  0  0  0  0  0  0  0  0
    2.7830    0.3170   -0.5130 O   0  0  0  0  0  0  0  0  0  0  0  0
  2  1  1  1
  2  3  1  0
  2  4  1  0
  4  5  1  0
  5  6  1  0
M  END
