
     RDKit          3D

 19 20  0  0  0  0  0  0  0  0999 V2000
    3.8510   -0.7970    0.4560 N   0  0  0  0  0  0  0  0  0  0  0  0
    3.2990   -0.1720   -0.7170 C   0  0  1  0  0  0  0  0  0  0  0  0
    1.8670    0.2330   -0.3720 C   0  0  0  0  0  0  0  0  0  0  0  0
    1.0760   -1.0020    0.0050 C   0  0  0  0  0  0  0  0  0  0  0  0
   -0.2980   -0.6020    0.3350 C   0  0  0  0  0  0  0  0  0  0  0  0
   -0.6130   -0.2730    1.6330 C   0  0  0  0  0  0  0  0  0  0  0  0
   -1.9220    0.1080    1.9490 C   0  0  0  0  0  0  0  0  0  0  0  0
   -2.8560    0.1370    0.9280 C   0  0  0  0  0  0  0  0  0  0  0  0
   -4.1230    0.4980    1.1980 N   0  0  0  0  0  0  0  0  0  0  0  0
   -5.0450    0.5310    0.2160 C   0  0  0  0  0  0  0  0  0  0  0  0
   -6.2410    0.8690    0.4540 O   0  0  0  0  0  0  0  0  0  0  0  0
   -4.7300    0.2030   -1.0750 C   0  0  0  0  0  0  0  0  0  0  0  0
   -5.5740    0.2280   -2.0030 O   0  0  0  0  0  0  0  0  0  0  0  0
   -3.4660   -0.1580   -1.3490 N   0  0  0  0  0  0  0  0  0  0  0  0
   -2.5550   -0.1910   -0.3780 C   0  0  0  0  0  0  0  0  0  0  0  0
   -1.2490   -0.5630   -0.6520 C   0  0  0  0  0  0  0  0  0  0  0  0
    4.0680    1.0240   -1.1370 C   0  0  0  0  0  0  0  0  0  0  0  0
    3.6770    1.6520   -2.1530 O   0  0  0  0  0  0  0  0  0  0  0  0
    5.1870    1.4900   -0.4830 O   0  0  0  0  0  0  0  0  0  0  0  0
  2  1  1  1
  2  3  1  0
  2 17  1  0
  3  4  1  0
  4  5  1  0
  5  6  2  0
  5 16  1  0
  6  7  1  0
  7  8  2  0
  8  9  1  0
  8 15  1  0
  9 10  1  0
 10 11  2  0
 10 12  1  0
 12 13  2  0
 12 14  1  0
 14 15  1  0
 15 16  2  0
 17 18  2  0
 17 19  1  0
M  CHG  1   1   1
M  END
