
     RDKit          3D

 23 23  0  0  0  0  0  0  0  0999 V2000
   -2.0470    3.8590   -0.1230 N   0  0  0  0  0  0  0  0  0  0  0  0
   -1.4720    2.8910   -0.9700 C   0  0  0  0  0  0  0  0  0  0  0  0
   -1.4390    3.1630   -2.2070 O   0  0  0  0  0  0  0  0  0  0  0  0
   -0.9130    1.5780   -0.4610 C   0  0  1  0  0  0  0  0  0  0  0  0
    0.5050    1.5530   -0.8880 C   0  0  0  0  0  0  0  0  0  0  0  0
    1.2480    0.2510   -0.6760 C   0  0  1  0  0  0  0  0  0  0  0  0
    2.5030    0.4310   -1.2950 O   0  0  0  0  0  0  0  0  0  0  0  0
    1.5460    0.0250    0.7890 C   0  0  0  0  0  0  0  0  0  0  0  0
    2.4200   -1.3720    1.2150 S   0  0  0  0  0  0  0  0  0  0  0  0
    4.3700   -1.5050    0.6570 S   0  0  1  0  0  0  0  0  0  0  0  0
    4.4130   -2.7140   -0.2040 O   0  0  0  0  0  0  0  0  0  0  0  0
    5.0710   -0.4320   -0.0570 O   0  0  0  0  0  0  0  0  0  0  0  0
    0.5760   -0.8970   -1.3590 C   0  0  0  0  0  0  0  0  0  0  0  0
    0.8580   -2.1240   -0.6680 N   0  0  0  0  0  0  0  0  0  0  0  0
    0.0240   -2.7910    0.2740 C   0  0  0  0  0  0  0  0  0  0  0  0
    0.3630   -4.0370    0.3890 O   0  0  0  0  0  0  0  0  0  0  0  0
   -0.9800   -2.3100    0.9900 O   0  0  0  0  0  0  0  0  0  0  0  0
   -2.2900   -2.0040    1.0060 C   0  0  0  0  0  0  0  0  0  0  0  0
   -2.8310   -1.0240    0.0680 C   0  0  0  0  0  0  0  0  0  0  0  0
   -3.1820   -1.3870   -1.0900 O   0  0  0  0  0  0  0  0  0  0  0  0
   -2.9950    0.3200    0.3580 O   0  0  0  0  0  0  0  0  0  0  0  0
   -2.3140    1.0560    1.3190 C   0  0  0  0  0  0  0  0  0  0  0  0
   -1.1120    1.6050    0.9090 O   0  0  0  0  0  0  0  0  0  0  0  0
  1  2  1  0
  2  3  2  0
  4  2  1  6
  4  5  1  0
  4 23  1  0
  5  6  1  0
  6  7  1  6
  6  8  1  0
  6 13  1  0
  8  9  1  0
 10  9  1  6
 10 11  2  0
 10 12  2  0
 13 14  1  0
 14 15  1  0
 15 16  2  0
 15 17  1  0
 17 18  1  0
 18 19  1  0
 19 20  2  0
 19 21  1  0
 21 22  1  0
 22 23  1  0
M  END
