
     RDKit          3D

 17 18  0  0  0  0  0  0  0  0999 V2000
   -4.6210    1.6800   -0.0940 C   0  0  0  0  0  0  0  0  0  0  0  0
   -3.8910    0.6220   -0.3160 C   0  0  0  0  0  0  0  0  0  0  0  0
   -3.6660    0.0380   -1.6640 C   0  0  0  0  0  0  0  0  0  0  0  0
   -2.1840   -0.0180   -1.8880 C   0  0  0  0  0  0  0  0  0  0  0  0
   -1.4350   -0.4330   -0.7870 N   0  0  0  0  0  0  0  0  0  0  0  0
   -0.0700   -0.0470   -0.7560 C   0  0  0  0  0  0  0  0  0  0  0  0
    0.6870   -0.5320    0.4040 C   0  0  1  0  0  0  0  0  0  0  0  0
    0.6610   -1.9860    0.4140 N   0  0  0  0  0  0  0  0  0  0  0  0
    2.1390   -0.1460    0.4490 C   0  0  2  0  0  0  0  0  0  0  0  0
    2.4040    1.3070    0.5850 C   0  0  0  0  0  0  0  0  0  0  0  0
    3.8460    1.5920    0.2400 C   0  0  0  0  0  0  0  0  0  0  0  0
    4.7340    0.3880    0.3830 C   0  0  0  0  0  0  0  0  0  0  0  0
    4.1750   -0.8420   -0.2690 C   0  0  0  0  0  0  0  0  0  0  0  0
    2.8490   -0.6420   -0.6430 O   0  0  0  0  0  0  0  0  0  0  0  0
   -2.0550   -0.9450    0.3440 C   0  0  0  0  0  0  0  0  0  0  0  0
   -3.2260   -0.0770    0.7680 C   0  0  0  0  0  0  0  0  0  0  0  0
   -3.6180    0.0380    1.9970 C   0  0  0  0  0  0  0  0  0  0  0  0
  1  2  2  0
  2  3  1  0
  2 16  1  0
  3  4  1  0
  4  5  1  0
  5  6  1  0
  5 15  1  0
  6  7  1  0
  7  8  1  6
  7  9  1  0
  9 10  1  6
  9 14  1  0
 10 11  1  0
 11 12  1  0
 12 13  1  0
 13 14  1  0
 15 16  1  0
 16 17  2  0
M  CHG  1   8   1
M  END
