
     RDKit          3D

 17 18  0  0  0  0  0  0  0  0999 V2000
    5.0560    1.1190   -1.1580 C   0  0  0  0  0  0  0  0  0  0  0  0
    3.9270    0.6420   -0.6390 C   0  0  0  0  0  0  0  0  0  0  0  0
    2.7020    0.6070   -1.1960 N   0  0  0  0  0  0  0  0  0  0  0  0
    1.8260    0.0400   -0.3600 C   0  0  0  0  0  0  0  0  0  0  0  0
    0.3880    0.0380   -0.3590 C   0  0  0  0  0  0  0  0  0  0  0  0
   -0.4320   -0.9200   -0.9730 N   0  0  0  0  0  0  0  0  0  0  0  0
   -1.8130   -0.4560   -1.2190 C   0  0  1  0  0  0  0  0  0  0  0  0
   -2.7600   -1.2550   -0.3390 C   0  0  0  0  0  0  0  0  0  0  0  0
   -4.1240   -0.7010   -0.2610 C   0  0  0  0  0  0  0  0  0  0  0  0
   -4.3470    0.3390    0.8210 C   0  0  0  0  0  0  0  0  0  0  0  0
   -3.7570    1.5850    0.5020 O   0  0  0  0  0  0  0  0  0  0  0  0
   -2.3750    1.3320    0.3970 C   0  0  0  0  0  0  0  0  0  0  0  0
   -2.1320    0.9760   -1.0550 C   0  0  0  0  0  0  0  0  0  0  0  0
    2.5720   -0.3040    0.8100 C   0  0  0  0  0  0  0  0  0  0  0  0
    1.9390   -0.9700    1.9920 C   0  0  0  0  0  0  0  0  0  0  0  0
    3.8600    0.0680    0.6500 C   0  0  0  0  0  0  0  0  0  0  0  0
    4.8700   -0.0700    1.5310 C   0  0  0  0  0  0  0  0  0  0  0  0
  1  2  2  0
  2  3  1  0
  2 16  1  0
  3  4  1  0
  4  5  1  0
  4 14  2  0
  5  6  1  0
  7  6  1  1
  7  8  1  0
  7 13  1  0
  8  9  1  0
  9 10  1  0
 10 11  1  0
 11 12  1  0
 12 13  1  0
 14 15  1  0
 14 16  1  0
 16 17  2  0
M  CHG  1   6   1
M  END
