
     RDKit          3D

 17 17  0  0  0  0  0  0  0  0999 V2000
   -2.1100    2.3710    0.6270 C   0  0  0  0  0  0  0  0  0  0  0  0
   -3.2530    1.8560    0.3850 C   0  0  0  0  0  0  0  0  0  0  0  0
   -3.6250    0.4810   -0.0410 C   0  0  0  0  0  0  0  0  0  0  0  0
   -4.9390    0.3280   -0.1320 C   0  0  0  0  0  0  0  0  0  0  0  0
   -2.6640   -0.5130   -0.4720 C   0  0  0  0  0  0  0  0  0  0  0  0
   -1.2570   -0.1450   -0.5820 N   0  0  0  0  0  0  0  0  0  0  0  0
   -0.2610   -0.9540    0.0050 C   0  0  0  0  0  0  0  0  0  0  0  0
    1.1060   -0.3880   -0.2030 C   0  0  0  0  0  0  0  0  0  0  0  0
    1.4770    0.7450   -0.8470 C   0  0  0  0  0  0  0  0  0  0  0  0
    2.8770    0.8080   -0.7510 C   0  0  0  0  0  0  0  0  0  0  0  0
    3.2640   -0.2980   -0.0510 C   0  0  0  0  0  0  0  0  0  0  0  0
    4.5960   -0.7220    0.3300 C   0  0  0  0  0  0  0  0  0  0  0  0
    5.6920   -0.1200    0.0730 C   0  0  0  0  0  0  0  0  0  0  0  0
    5.8810    1.1330   -0.6610 C   0  0  0  0  0  0  0  0  0  0  0  0
    2.1610   -0.9860    0.2560 O   0  0  0  0  0  0  0  0  0  0  0  0
   -2.9220   -1.7440   -0.6960 N   0  0  0  0  0  0  0  0  0  0  0  0
   -4.1390   -2.4680   -0.5950 C   0  0  0  0  0  0  0  0  0  0  0  0
  1  2  2  0
  2  3  1  0
  3  4  2  0
  3  5  1  0
  5  6  1  0
  5 16  2  3
  6  7  1  0
  7  8  1  0
  8  9  2  0
  8 15  1  0
  9 10  1  0
 10 11  2  0
 11 12  1  0
 11 15  1  0
 12 13  2  3
 13 14  1  0
 16 17  1  0
M  CHG  1  16   1
M  END
