
     RDKit          3D

 29 31  0  0  0  0  0  0  0  0999 V2000
   -6.5310   -1.5030   -0.4990 C   0  0  0  0  0  0  0  0  0  0  0  0
   -6.1910   -0.4150   -1.4160 C   0  0  0  0  0  0  0  0  0  0  0  0
   -5.2700    0.5090   -1.0690 C   0  0  0  0  0  0  0  0  0  0  0  0
   -5.0310    1.5420   -2.0850 C   0  0  0  0  0  0  0  0  0  0  0  0
   -5.4980    3.1760   -1.6850 Cl  0  0  0  0  0  0  0  0  0  0  0  0
   -4.5900    0.3170    0.1950 C   0  0  2  0  0  0  0  0  0  0  0  0
   -4.5750    1.3550    1.2440 C   0  0  0  0  0  0  0  0  0  0  0  0
   -3.9080    2.6510    0.9470 C   0  0  0  0  0  0  0  0  0  0  0  0
   -3.1910   -0.0240   -0.0860 O   0  0  0  0  0  0  0  0  0  0  0  0
   -2.6240   -1.2150    0.2790 C   0  0  0  0  0  0  0  0  0  0  0  0
   -3.3140   -2.0670    0.8840 O   0  0  0  0  0  0  0  0  0  0  0  0
   -1.2120   -1.5330   -0.0210 C   0  0  2  0  0  0  0  0  0  0  0  0
   -0.8410   -2.9220    0.5050 C   0  0  0  0  0  0  0  0  0  0  0  0
    0.3150   -3.3460   -0.3480 C   0  0  0  0  0  0  0  0  0  0  0  0
    1.2990   -2.1960   -0.3610 C   0  0  0  0  0  0  0  0  0  0  0  0
    3.0140   -2.2620   -0.8570 S   0  0  0  0  0  0  0  0  0  0  0  0
    3.3560   -0.5490   -0.5710 C   0  0  0  0  0  0  0  0  0  0  0  0
    4.6540    0.1130   -0.7880 C   0  0  0  0  0  0  0  0  0  0  0  0
    5.6430   -0.5540   -1.2150 O   0  0  0  0  0  0  0  0  0  0  0  0
    4.8410    1.4830   -0.5350 N   0  0  0  0  0  0  0  0  0  0  0  0
    6.1230    2.1210   -0.7520 C   0  0  0  0  0  0  0  0  0  0  0  0
    7.2020    1.5300    0.0750 C   0  0  0  0  0  0  0  0  0  0  0  0
    8.1560    0.6100   -0.2950 C   0  0  0  0  0  0  0  0  0  0  0  0
    8.9520    0.3500    0.8070 C   0  0  0  0  0  0  0  0  0  0  0  0
    8.4320    1.1410    1.8130 C   0  0  0  0  0  0  0  0  0  0  0  0
    7.4240    1.8020    1.3430 O   0  0  0  0  0  0  0  0  0  0  0  0
    2.1640   -0.0610   -0.1270 C   0  0  0  0  0  0  0  0  0  0  0  0
    1.1300   -0.9440   -0.0340 C   0  0  0  0  0  0  0  0  0  0  0  0
   -0.2620   -0.5030    0.4550 C   0  0  0  0  0  0  0  0  0  0  0  0
  1  2  1  0
  2  3  2  3
  3  4  1  0
  3  6  1  0
  4  5  1  0
  6  7  1  1
  6  9  1  0
  7  8  1  0
  9 10  1  0
 10 11  2  0
 12 10  1  1
 12 13  1  0
 12 29  1  0
 13 14  1  0
 14 15  1  0
 15 16  1  0
 15 28  2  0
 16 17  1  0
 17 18  1  0
 17 27  2  0
 18 19  2  0
 18 20  1  0
 20 21  1  0
 21 22  1  0
 22 23  2  0
 22 26  1  0
 23 24  1  0
 24 25  2  0
 25 26  1  0
 27 28  1  0
 28 29  1  0
M  END
