
     RDKit          3D

 29 32  0  0  0  0  0  0  0  0999 V2000
    8.3620    2.5730   -0.4870 C   0  0  0  0  0  0  0  0  0  0  0  0
    8.2300    1.5430    0.4940 O   0  0  0  0  0  0  0  0  0  0  0  0
    7.0480    0.8370    0.4500 C   0  0  0  0  0  0  0  0  0  0  0  0
    6.0600    1.0780   -0.4620 C   0  0  0  0  0  0  0  0  0  0  0  0
    4.9110    0.3660   -0.4790 C   0  0  0  0  0  0  0  0  0  0  0  0
    4.6410   -0.6670    0.4230 C   0  0  0  0  0  0  0  0  0  0  0  0
    3.3270   -1.2570    0.2700 N   0  0  0  0  0  0  0  0  0  0  0  0
    2.2200   -0.3240    0.2650 C   0  0  0  0  0  0  0  0  0  0  0  0
    2.5610    0.8940    0.5240 O   0  0  0  0  0  0  0  0  0  0  0  0
    0.8270   -0.6080    0.0140 C   0  0  1  0  0  0  0  0  0  0  0  0
    0.6120   -0.3710   -1.5150 C   0  0  0  0  0  0  0  0  0  0  0  0
    0.3080   -1.9020    0.2700 N   0  0  0  0  0  0  0  0  0  0  0  0
   -1.0870   -2.0790    0.2960 C   0  0  0  0  0  0  0  0  0  0  0  0
   -1.9340   -1.0700    0.2050 N   0  0  0  0  0  0  0  0  0  0  0  0
   -3.2810   -1.1820   -0.0110 C   0  0  0  0  0  0  0  0  0  0  0  0
   -3.7600   -2.4910   -0.1500 C   0  0  0  0  0  0  0  0  0  0  0  0
   -5.1150   -2.3720   -0.3430 C   0  0  0  0  0  0  0  0  0  0  0  0
   -5.3870   -1.0510   -0.3020 N   0  0  0  0  0  0  0  0  0  0  0  0
   -4.3110   -0.3370   -0.0980 N   0  0  0  0  0  0  0  0  0  0  0  0
   -4.2860    1.0770    0.1720 C   0  0  2  0  0  0  0  0  0  0  0  0
   -5.1710    1.2080    1.4530 C   0  0  0  0  0  0  0  0  0  0  0  0
   -6.5170    1.5110    0.8270 C   0  0  0  0  0  0  0  0  0  0  0  0
   -6.1220    2.6350   -0.1160 C   0  0  0  0  0  0  0  0  0  0  0  0
   -4.9060    1.9850   -0.8130 C   0  0  0  0  0  0  0  0  0  0  0  0
   -2.8810   -3.5410   -0.0580 C   0  0  0  0  0  0  0  0  0  0  0  0
   -3.3900   -4.7040   -0.1900 O   0  0  0  0  0  0  0  0  0  0  0  0
   -1.5720   -3.3480    0.1650 N   0  0  0  0  0  0  0  0  0  0  0  0
    5.5980   -0.9330    1.3340 C   0  0  0  0  0  0  0  0  0  0  0  0
    6.7980   -0.2170    1.3810 C   0  0  0  0  0  0  0  0  0  0  0  0
  1  2  1  0
  2  3  1  0
  3  4  2  0
  3 29  1  0
  4  5  1  0
  5  6  2  0
  6  7  1  0
  6 28  1  0
  7  8  1  0
  8  9  2  0
  8 10  1  0
 10 11  1  6
 10 12  1  0
 12 13  1  0
 13 14  2  0
 13 27  1  0
 14 15  1  0
 15 16  2  0
 15 19  1  0
 16 17  1  0
 16 25  1  0
 17 18  2  0
 18 19  1  0
 20 19  1  6
 20 21  1  0
 20 24  1  0
 21 22  1  0
 22 23  1  0
 23 24  1  0
 25 26  2  0
 25 27  1  0
 28 29  2  0
M  END
