
     RDKit          3D

 43 48  0  0  0  0  0  0  0  0999 V2000
    8.7580    4.7340   -0.9810 C   0  0  0  0  0  0  0  0  0  0  0  0
    9.6980    3.7940   -1.0040 C   0  0  0  0  0  0  0  0  0  0  0  0
    9.4280    2.5480   -1.5790 N   0  0  0  0  0  0  0  0  0  0  0  0
    9.0310    1.3860   -0.9010 C   0  0  0  0  0  0  0  0  0  0  0  0
    9.1690    0.1180   -1.2570 C   0  0  0  0  0  0  0  0  0  0  0  0
    8.5720   -0.7940   -0.2160 C   0  0  0  0  0  0  0  0  0  0  0  0
    9.3310   -1.5950    0.5230 C   0  0  0  0  0  0  0  0  0  0  0  0
   10.6830   -1.7090    0.2950 F   0  0  0  0  0  0  0  0  0  0  0  0
    8.8070   -2.3690    1.5690 C   0  0  0  0  0  0  0  0  0  0  0  0
    7.4420   -2.2930    1.8340 C   0  0  0  0  0  0  0  0  0  0  0  0
    6.8850   -2.7930    3.0040 C   0  0  0  0  0  0  0  0  0  0  0  0
    6.3550   -3.2490    4.0750 N   0  0  0  0  0  0  0  0  0  0  0  0
    6.6280   -1.4450    1.0280 C   0  0  0  0  0  0  0  0  0  0  0  0
    7.1840   -0.7030    0.0110 C   0  0  0  0  0  0  0  0  0  0  0  0
    6.4220    0.1270   -0.8540 N   0  0  0  0  0  0  0  0  0  0  0  0
    5.0380   -0.2350   -1.1390 C   0  0  0  0  0  0  0  0  0  0  0  0
    4.4620   -1.2150   -0.6850 O   0  0  0  0  0  0  0  0  0  0  0  0
    4.3310    0.6480   -2.0560 N   0  0  0  0  0  0  0  0  0  0  0  0
    3.0170    0.3790   -2.5080 C   0  0  0  0  0  0  0  0  0  0  0  0
    1.8450    0.3350   -1.7340 C   0  0  0  0  0  0  0  0  0  0  0  0
    1.3230    0.5100   -0.5630 C   0  0  0  0  0  0  0  0  0  0  0  0
   -0.1590    0.2130   -0.5410 C   0  0  0  0  0  0  0  0  0  0  0  0
   -1.1120    0.3760    0.4120 C   0  0  0  0  0  0  0  0  0  0  0  0
   -2.3180   -0.0500   -0.0680 C   0  0  0  0  0  0  0  0  0  0  0  0
   -2.0570   -0.4930   -1.3650 C   0  0  0  0  0  0  0  0  0  0  0  0
   -0.7900   -0.3080   -1.5630 O   0  0  0  0  0  0  0  0  0  0  0  0
   -3.2560   -0.9860   -2.0140 C   0  0  0  0  0  0  0  0  0  0  0  0
   -3.4760   -1.5530   -3.2790 C   0  0  0  0  0  0  0  0  0  0  0  0
   -4.7260   -1.9480   -3.5820 C   0  0  0  0  0  0  0  0  0  0  0  0
   -5.7770   -1.8290   -2.7300 C   0  0  0  0  0  0  0  0  0  0  0  0
   -5.5810   -1.2660   -1.4570 C   0  0  0  0  0  0  0  0  0  0  0  0
   -6.7410   -1.1690   -0.5920 C   0  0  0  0  0  0  0  0  0  0  0  0
   -6.8790   -0.5690    0.6480 C   0  0  0  0  0  0  0  0  0  0  0  0
   -8.2080   -0.7360    1.0680 C   0  0  0  0  0  0  0  0  0  0  0  0
   -8.7100   -0.2420    2.2850 N   0  0  0  0  0  0  0  0  0  0  0  0
   -7.9920    0.5520    3.2500 C   0  0  0  0  0  0  0  0  0  0  0  0
   -8.9640    1.6930    3.4700 C   0  0  0  0  0  0  0  0  0  0  0  0
  -10.3190    0.9600    3.4540 C   0  0  0  0  0  0  0  0  0  0  0  0
  -10.0310   -0.4030    2.8260 C   0  0  0  0  0  0  0  0  0  0  0  0
   -8.8120   -1.4160    0.0930 N   0  0  0  0  0  0  0  0  0  0  0  0
   -7.9760   -1.6790   -0.8830 N   0  0  0  0  0  0  0  0  0  0  0  0
   -4.2940   -0.8480   -1.1270 C   0  0  0  0  0  0  0  0  0  0  0  0
   -3.7910   -0.2470    0.1470 C   0  0  0  0  0  0  0  0  0  0  0  0
  1  2  2  0
  2  3  1  0
  3  4  1  0
  4  5  2  3
  5  6  1  0
  6  7  2  0
  6 14  1  0
  7  8  1  0
  7  9  1  0
  9 10  2  0
 10 11  1  0
 10 13  1  0
 11 12  3  0
 13 14  2  0
 14 15  1  0
 15 16  1  0
 16 17  2  0
 16 18  1  0
 18 19  1  0
 19 20  1  0
 20 21  2  3
 21 22  1  0
 22 23  2  0
 22 26  1  0
 23 24  1  0
 24 25  2  0
 24 43  1  0
 25 26  1  0
 25 27  1  0
 27 28  2  0
 27 42  1  0
 28 29  1  0
 29 30  2  0
 30 31  1  0
 31 32  1  0
 31 42  2  0
 32 33  2  0
 32 41  1  0
 33 34  1  0
 34 35  1  0
 34 40  2  0
 35 36  1  0
 35 39  1  0
 36 37  1  0
 37 38  1  0
 38 39  1  0
 40 41  1  0
 42 43  1  0
M  END
