
     RDKit          3D

 27 28  0  0  0  0  0  0  0  0999 V2000
    2.9790   -2.2420    0.3870 O   0  0  0  0  0  0  0  0  0  0  0  0
    3.2030   -1.9520   -0.7930 C   0  0  0  0  0  0  0  0  0  0  0  0
    4.0760   -2.7650   -1.5350 O   0  0  0  0  0  0  0  0  0  0  0  0
    2.6120   -0.8610   -1.3540 O   0  0  0  0  0  0  0  0  0  0  0  0
    1.7100    0.0150   -0.6580 C   0  0  2  0  0  0  0  0  0  0  0  0
    2.4070    0.6250    0.5220 C   0  0  0  0  0  0  0  0  0  0  0  0
    1.9200    1.8420    0.9180 O   0  0  0  0  0  0  0  0  0  0  0  0
    1.9870    2.7140   -0.1670 C   0  0  0  0  0  0  0  0  0  0  0  0
    1.0220    2.1770   -1.2040 C   0  0  2  0  0  0  0  0  0  0  0  0
   -0.3660    2.4650   -0.7140 C   0  0  0  0  0  0  0  0  0  0  0  0
   -1.3470    1.9990   -1.5870 O   0  0  0  0  0  0  0  0  0  0  0  0
   -2.5260    2.4890   -1.3170 O   0  0  0  0  0  0  0  0  0  0  0  0
   -2.9030    2.2260   -0.0780 O   0  0  0  0  0  0  0  0  0  0  0  0
   -3.1200    0.9330   -0.0110 O   0  0  0  0  0  0  0  0  0  0  0  0
   -4.2090    0.6140    0.6480 O   0  0  0  0  0  0  0  0  0  0  0  0
   -4.4780   -0.5570    1.2940 C   0  0  0  0  0  0  0  0  0  0  0  0
   -5.6720   -0.7120    1.7270 O   0  0  0  0  0  0  0  0  0  0  0  0
   -3.6000   -1.5860    1.5280 O   0  0  0  0  0  0  0  0  0  0  0  0
   -2.2370   -1.4260    1.8850 C   0  0  0  0  0  0  0  0  0  0  0  0
   -1.3780   -2.4790    1.3060 C   0  0  0  0  0  0  0  0  0  0  0  0
   -1.9400   -3.4990    0.8490 O   0  0  0  0  0  0  0  0  0  0  0  0
   -0.0130   -2.3650    1.2600 O   0  0  0  0  0  0  0  0  0  0  0  0
    0.6730   -1.2220    1.1420 O   0  0  0  0  0  0  0  0  0  0  0  0
    0.5580   -0.8110   -0.1790 C   0  0  2  0  0  0  0  0  0  0  0  0
    0.4560   -1.9400   -0.9640 O   0  0  0  0  0  0  0  0  0  0  0  0
   -0.6950   -1.9570   -1.5650 O   0  0  0  0  0  0  0  0  0  0  0  0
    1.2540    0.9020   -1.5880 O   0  0  0  0  0  0  0  0  0  0  0  0
  1  2  2  0
  2  3  1  0
  2  4  1  0
  5  4  1  6
  5  6  1  0
  5 24  1  0
  5 27  1  0
  6  7  1  0
  7  8  1  0
  9  8  1  1
  9 10  1  0
  9 27  1  0
 10 11  1  0
 11 12  1  0
 12 13  1  0
 13 14  1  0
 14 15  1  0
 15 16  1  0
 16 17  2  0
 16 18  1  0
 18 19  1  0
 19 20  1  0
 20 21  2  0
 20 22  1  0
 22 23  1  0
 23 24  1  0
 24 25  1  6
 25 26  1  0
M  END
