
     RDKit          3D

 12 12  0  0  0  0  0  0  0  0999 V2000
   -1.6430    0.7430   -1.4570 C   0  0  0  0  0  0  0  0  0  0  0  0
   -1.3810    0.1020   -0.1320 C   0  0  1  0  0  0  0  0  0  0  0  0
   -2.6370   -0.0220    0.6980 C   0  0  0  0  0  0  0  0  0  0  0  0
   -2.2930   -0.6340    1.8990 O   0  0  0  0  0  0  0  0  0  0  0  0
   -0.8680   -1.1750   -0.3590 O   0  0  0  0  0  0  0  0  0  0  0  0
    0.4850   -0.9940   -0.6470 C   0  0  0  0  0  0  0  0  0  0  0  0
    0.8380    0.3200    0.0150 C   0  0  2  0  0  0  0  0  0  0  0  0
    1.7540    0.0920    1.0110 O   0  0  0  0  0  0  0  0  0  0  0  0
    2.8370    0.7720    0.7590 O   0  0  0  0  0  0  0  0  0  0  0  0
    3.9190    0.1590    1.1940 O   0  0  0  0  0  0  0  0  0  0  0  0
    4.9140    0.2240    0.3340 O   0  0  0  0  0  0  0  0  0  0  0  0
   -0.3750    0.7640    0.5430 O   0  0  0  0  0  0  0  0  0  0  0  0
  2  1  1  6
  2  3  1  0
  2  5  1  0
  2 12  1  0
  3  4  1  0
  5  6  1  0
  6  7  1  0
  7  8  1  1
  7 12  1  0
  8  9  1  0
  9 10  1  0
 10 11  1  0
M  END
