
     RDKit          3D

 27 27  0  0  0  0  0  0  0  0999 V2000
    6.5000   -0.6430   -0.1940 O   0  0  0  0  0  0  0  0  0  0  0  0
    5.2990   -0.3300   -0.3700 C   0  0  0  0  0  0  0  0  0  0  0  0
    4.2040   -1.1920    0.1150 C   0  0  0  0  0  0  0  0  0  0  0  0
    2.9800   -0.6070   -0.2130 O   0  0  0  0  0  0  0  0  0  0  0  0
    1.7900   -1.2130    0.1280 C   0  0  0  0  0  0  0  0  0  0  0  0
    1.8510   -2.3080    0.7440 O   0  0  0  0  0  0  0  0  0  0  0  0
    0.5460   -0.7050   -0.1570 O   0  0  0  0  0  0  0  0  0  0  0  0
   -0.6360   -1.4050    0.2370 C   0  0  1  0  0  0  0  0  0  0  0  0
   -1.3640   -0.5350    1.2060 C   0  0  0  0  0  0  0  0  0  0  0  0
   -1.9000    0.5760    0.5690 O   0  0  0  0  0  0  0  0  0  0  0  0
   -1.9220    1.6980    1.3630 C   0  0  0  0  0  0  0  0  0  0  0  0
   -2.8400    2.5960    0.7870 O   0  0  0  0  0  0  0  0  0  0  0  0
   -4.1490    2.2180    1.0250 C   0  0  0  0  0  0  0  0  0  0  0  0
   -4.8680    2.4450   -0.1500 O   0  0  0  0  0  0  0  0  0  0  0  0
   -4.7860    1.3520   -0.8970 O   0  0  0  0  0  0  0  0  0  0  0  0
   -5.2980    0.3720   -0.1860 O   0  0  0  0  0  0  0  0  0  0  0  0
   -4.7540   -0.8640   -0.5250 C   0  0  0  0  0  0  0  0  0  0  0  0
   -4.3150   -0.9370   -1.8400 O   0  0  0  0  0  0  0  0  0  0  0  0
   -3.0970   -0.5500   -2.3470 C   0  0  0  0  0  0  0  0  0  0  0  0
   -3.0810    0.0200   -3.4700 O   0  0  0  0  0  0  0  0  0  0  0  0
   -1.8720   -0.7230   -1.7450 O   0  0  0  0  0  0  0  0  0  0  0  0
   -1.4640   -1.8030   -0.9570 C   0  0  0  0  0  0  0  0  0  0  0  0
    5.0030    0.8430   -1.0300 O   0  0  0  0  0  0  0  0  0  0  0  0
    5.9420    1.6840   -1.5030 O   0  0  0  0  0  0  0  0  0  0  0  0
    6.5920    2.2740   -0.5220 O   0  0  0  0  0  0  0  0  0  0  0  0
    7.7480    1.6730   -0.3520 O   0  0  0  0  0  0  0  0  0  0  0  0
    8.0720    1.8390    0.9160 O   0  0  0  0  0  0  0  0  0  0  0  0
  1  2  2  0
  2  3  1  0
  2 23  1  0
  3  4  1  0
  4  5  1  0
  5  6  2  0
  5  7  1  0
  8  7  1  6
  8  9  1  0
  8 22  1  0
  9 10  1  0
 10 11  1  0
 11 12  1  0
 12 13  1  0
 13 14  1  0
 14 15  1  0
 15 16  1  0
 16 17  1  0
 17 18  1  0
 18 19  1  0
 19 20  2  0
 19 21  1  0
 21 22  1  0
 23 24  1  0
 24 25  1  0
 25 26  1  0
 26 27  1  0
M  END
