
     RDKit          3D

 27 30  0  0  0  0  0  0  0  0999 V2000
    6.6020   -0.7920   -0.7670 O   0  0  0  0  0  0  0  0  0  0  0  0
    6.1050    0.4190   -0.8000 O   0  0  0  0  0  0  0  0  0  0  0  0
    5.6540    0.7150    0.4030 O   0  0  0  0  0  0  0  0  0  0  0  0
    4.3900    0.3440    0.4730 O   0  0  0  0  0  0  0  0  0  0  0  0
    3.7140    1.0530   -0.4110 O   0  0  0  0  0  0  0  0  0  0  0  0
    2.8480    0.2620   -1.1700 C   0  0  0  0  0  0  0  0  0  0  0  0
    1.4600    0.4850   -0.6360 C   0  0  1  0  0  0  0  0  0  0  0  0
    0.8820    1.8250   -1.0470 C   0  0  0  0  0  0  0  0  0  0  0  0
    0.3610    2.5290    0.0240 O   0  0  0  0  0  0  0  0  0  0  0  0
   -0.6610    3.2860   -0.2820 O   0  0  0  0  0  0  0  0  0  0  0  0
   -1.7750    2.8180    0.2670 O   0  0  0  0  0  0  0  0  0  0  0  0
   -2.8240    2.8030   -0.6260 C   0  0  0  0  0  0  0  0  0  0  0  0
   -3.6420    1.7020   -0.5540 O   0  0  0  0  0  0  0  0  0  0  0  0
   -3.5420    0.9670    0.6050 C   0  0  2  0  0  0  0  0  0  0  0  0
   -3.5590    1.8100    1.7180 O   0  0  0  0  0  0  0  0  0  0  0  0
   -2.3090    0.1580    0.5900 C   0  0  2  0  0  0  0  0  0  0  0  0
   -1.3870    0.4720    1.5880 O   0  0  0  0  0  0  0  0  0  0  0  0
   -0.2000    0.1060    1.1210 O   0  0  0  0  0  0  0  0  0  0  0  0
   -0.4650   -0.4850   -0.1070 C   0  0  2  0  0  0  0  0  0  0  0  0
    0.5890   -0.5710   -0.9540 O   0  0  0  0  0  0  0  0  0  0  0  0
   -1.5120    0.3410   -0.5550 O   0  0  0  0  0  0  0  0  0  0  0  0
   -1.2420   -1.7350    0.1460 C   0  0  2  0  0  0  0  0  0  0  0  0
   -0.6610   -2.5590    1.0910 O   0  0  0  0  0  0  0  0  0  0  0  0
   -0.8660   -3.8730    0.6760 C   0  0  0  0  0  0  0  0  0  0  0  0
   -1.9260   -3.6950   -0.4020 C   0  0  0  0  0  0  0  0  0  0  0  0
   -1.4970   -2.4900   -0.9820 O   0  0  0  0  0  0  0  0  0  0  0  0
   -2.4770   -1.2130    0.5710 O   0  0  0  0  0  0  0  0  0  0  0  0
  1  2  1  0
  2  3  1  0
  3  4  1  0
  4  5  1  0
  5  6  1  0
  7  6  1  6
  7  8  1  0
  7 20  1  0
  8  9  1  0
  9 10  1  0
 10 11  1  0
 11 12  1  0
 12 13  1  0
 13 14  1  0
 14 15  1  1
 14 16  1  0
 16 17  1  1
 16 21  1  0
 16 27  1  0
 17 18  1  0
 19 18  1  1
 19 20  1  0
 19 21  1  0
 19 22  1  0
 22 23  1  1
 22 26  1  0
 22 27  1  0
 23 24  1  0
 24 25  1  0
 25 26  1  0
M  END
