
     RDKit          3D

 34 38  0  0  0  0  0  0  0  0999 V2000
   -0.0210   -1.2660    0.6850 C   0  0  0  0  0  0  0  0  0  0  0  0
    0.3920    0.1230    0.3850 C   0  0  0  0  0  0  0  0  0  0  0  0
   -0.3940    1.1980    0.0740 C   0  0  0  0  0  0  0  0  0  0  0  0
   -1.8320    1.2910   -0.0290 C   0  0  0  0  0  0  0  0  0  0  0  0
   -2.2840    2.4180   -0.4620 O   0  0  0  0  0  0  0  0  0  0  0  0
   -2.7350    0.2880    0.2940 N   0  0  0  0  0  0  0  0  0  0  0  0
   -4.1770    0.5430    0.1230 C   0  0  1  0  0  0  0  0  0  0  0  0
   -4.7510   -0.4490   -0.8340 C   0  0  0  0  0  0  0  0  0  0  0  0
   -4.4490   -1.7840   -0.6940 C   0  0  0  0  0  0  0  0  0  0  0  0
   -4.9880   -2.6780   -1.5870 C   0  0  0  0  0  0  0  0  0  0  0  0
   -5.7910   -2.2640   -2.5740 N   0  0  0  0  0  0  0  0  0  0  0  0
   -6.1290   -0.9770   -2.7710 C   0  0  0  0  0  0  0  0  0  0  0  0
   -5.5810   -0.0760   -1.8630 C   0  0  0  0  0  0  0  0  0  0  0  0
   -4.8780    0.5340    1.4110 C   0  0  0  0  0  0  0  0  0  0  0  0
   -6.0780   -0.1210    1.5550 C   0  0  0  0  0  0  0  0  0  0  0  0
   -6.7680   -0.1500    2.7590 C   0  0  0  0  0  0  0  0  0  0  0  0
   -6.2330    0.5030    3.8570 C   0  0  0  0  0  0  0  0  0  0  0  0
   -5.0320    1.1510    3.6850 C   0  0  0  0  0  0  0  0  0  0  0  0
   -4.3980    1.1530    2.5020 N   0  0  0  0  0  0  0  0  0  0  0  0
    0.4670    2.2340   -0.1210 N   0  0  0  0  0  0  0  0  0  0  0  0
    1.7370    1.8590    0.0530 C   0  0  0  0  0  0  0  0  0  0  0  0
    2.9570    2.5080   -0.0260 C   0  0  0  0  0  0  0  0  0  0  0  0
    4.1380    1.8170    0.2180 C   0  0  0  0  0  0  0  0  0  0  0  0
    5.4460    2.5110    0.1430 C   0  0  0  0  0  0  0  0  0  0  0  0
    6.1360    2.8320    1.7470 Cl  0  0  0  0  0  0  0  0  0  0  0  0
    4.0710    0.4920    0.5340 C   0  0  0  0  0  0  0  0  0  0  0  0
    5.2740   -0.3280    0.7980 C   0  0  0  0  0  0  0  0  0  0  0  0
    5.9750   -0.7660   -0.4490 C   0  0  0  0  0  0  0  0  0  0  0  0
    7.2410   -0.5150   -0.7260 C   0  0  0  0  0  0  0  0  0  0  0  0
    7.5280   -1.1210   -2.0450 C   0  0  0  0  0  0  0  0  0  0  0  0
    6.2440   -1.7390   -2.4540 C   0  0  0  0  0  0  0  0  0  0  0  0
    5.3510   -1.5250   -1.5170 C   0  0  0  0  0  0  0  0  0  0  0  0
    2.8170   -0.1360    0.6060 C   0  0  0  0  0  0  0  0  0  0  0  0
    1.6880    0.5530    0.3660 N   0  0  0  0  0  0  0  0  0  0  0  0
  1  2  1  0
  2  3  2  0
  2 34  1  0
  3  4  1  0
  3 20  1  0
  4  5  2  0
  4  6  1  0
  7  6  1  1
  7  8  1  0
  7 14  1  0
  8  9  2  0
  8 13  1  0
  9 10  1  0
 10 11  2  0
 11 12  1  0
 12 13  2  0
 14 15  2  0
 14 19  1  0
 15 16  1  0
 16 17  2  0
 17 18  1  0
 18 19  2  0
 20 21  2  0
 21 22  1  0
 21 34  1  0
 22 23  2  0
 23 24  1  0
 23 26  1  0
 24 25  1  0
 26 27  1  0
 26 33  2  0
 27 28  1  0
 28 29  2  0
 28 32  1  0
 29 30  1  0
 30 31  1  0
 31 32  2  0
 33 34  1  0
M  END
