
     RDKit          3D

 34 38  0  0  0  0  0  0  0  0999 V2000
    2.4320    1.5340    1.8310 C   0  0  0  0  0  0  0  0  0  0  0  0
    3.0340    0.8630    0.6190 C   0  0  0  0  0  0  0  0  0  0  0  0
    2.4230   -0.0240   -0.2120 C   0  0  0  0  0  0  0  0  0  0  0  0
    1.0290   -0.5450   -0.1260 C   0  0  0  0  0  0  0  0  0  0  0  0
    0.6500   -1.3720   -1.0250 N   0  0  0  0  0  0  0  0  0  0  0  0
   -0.5780   -1.9860   -1.1540 N   0  0  0  0  0  0  0  0  0  0  0  0
   -0.8260   -2.9250   -2.2040 C   0  0  0  0  0  0  0  0  0  0  0  0
   -0.3140   -2.7320   -3.3220 O   0  0  0  0  0  0  0  0  0  0  0  0
   -1.6790   -4.0930   -1.9200 C   0  0  1  0  0  0  0  0  0  0  0  0
   -0.9890   -5.2020   -1.2960 C   0  0  0  0  0  0  0  0  0  0  0  0
   -0.3980   -6.1180   -0.7830 N   0  0  0  0  0  0  0  0  0  0  0  0
   -2.8070   -3.7000   -1.0050 C   0  0  0  0  0  0  0  0  0  0  0  0
   -2.7680   -2.6280   -0.2570 C   0  0  0  0  0  0  0  0  0  0  0  0
   -4.0450   -2.5430    0.5280 C   0  0  0  0  0  0  0  0  0  0  0  0
   -5.0370   -3.3620   -0.3030 C   0  0  0  0  0  0  0  0  0  0  0  0
   -4.0980   -4.4400   -0.8180 C   0  0  0  0  0  0  0  0  0  0  0  0
   -1.6310   -1.6610   -0.2120 C   0  0  2  0  0  0  0  0  0  0  0  0
   -2.1130   -0.2760   -0.5050 C   0  0  0  0  0  0  0  0  0  0  0  0
   -2.6680    0.4550    0.4520 C   0  0  0  0  0  0  0  0  0  0  0  0
   -3.1570    1.8000    0.2380 C   0  0  0  0  0  0  0  0  0  0  0  0
   -3.7240    2.5160    1.2360 C   0  0  0  0  0  0  0  0  0  0  0  0
   -4.1190    3.8290    0.7180 C   0  0  0  0  0  0  0  0  0  0  0  0
   -3.7060    3.8190   -0.7100 C   0  0  0  0  0  0  0  0  0  0  0  0
   -3.1720    2.6430   -0.9180 C   0  0  0  0  0  0  0  0  0  0  0  0
   -2.5510    2.2270   -2.5270 Cl  0  0  0  0  0  0  0  0  0  0  0  0
    3.3250   -0.4160   -1.2170 C   0  0  0  0  0  0  0  0  0  0  0  0
    4.4510    0.2650   -0.9370 N   0  0  0  0  0  0  0  0  0  0  0  0
    4.2850    1.0300    0.1570 N   0  0  0  0  0  0  0  0  0  0  0  0
    5.3130    1.8650    0.6730 C   0  0  0  0  0  0  0  0  0  0  0  0
    6.0710    2.6260   -0.1910 C   0  0  0  0  0  0  0  0  0  0  0  0
    7.0410    3.4240    0.3280 C   0  0  0  0  0  0  0  0  0  0  0  0
    7.3020    3.5030    1.6650 C   0  0  0  0  0  0  0  0  0  0  0  0
    6.5570    2.7450    2.5900 C   0  0  0  0  0  0  0  0  0  0  0  0
    5.5730    1.9420    2.0350 C   0  0  0  0  0  0  0  0  0  0  0  0
  1  2  1  0
  2  3  2  0
  2 28  1  0
  3  4  1  0
  3 26  1  0
  4  5  2  3
  5  6  1  0
  6  7  1  0
  6 17  1  0
  7  8  2  0
  7  9  1  0
  9 10  1  1
  9 12  1  0
 10 11  3  0
 12 13  2  0
 12 16  1  0
 13 14  1  0
 13 17  1  0
 14 15  1  0
 15 16  1  0
 17 18  1  6
 18 19  2  3
 19 20  1  0
 20 21  2  0
 20 24  1  0
 21 22  1  0
 22 23  1  0
 23 24  2  0
 24 25  1  0
 26 27  2  0
 27 28  1  0
 28 29  1  0
 29 30  2  0
 29 34  1  0
 30 31  1  0
 31 32  2  0
 32 33  1  0
 33 34  2  0
M  END
