
     RDKit          3D

 27 27  0  0  0  0  0  0  0  0999 V2000
   -2.1410    3.3740   -0.8840 C   0  0  0  0  0  0  0  0  0  0  0  0
   -1.9040    1.7340   -0.1880 S   0  0  0  0  0  0  0  0  0  0  0  0
   -3.4270    0.8310   -0.1020 C   0  0  0  0  0  0  0  0  0  0  0  0
   -4.5180    1.4980   -0.5220 C   0  0  0  0  0  0  0  0  0  0  0  0
   -5.8470    0.8940   -0.5140 C   0  0  0  0  0  0  0  0  0  0  0  0
   -5.8940   -0.4700   -0.0290 C   0  0  0  0  0  0  0  0  0  0  0  0
   -7.1200   -1.1230    0.0040 F   0  0  0  0  0  0  0  0  0  0  0  0
   -4.8510   -1.1300    0.3820 C   0  0  0  0  0  0  0  0  0  0  0  0
   -5.0310   -2.5480    0.8640 C   0  0  2  0  0  0  0  0  0  0  0  0
   -4.3910   -3.4350    0.0590 F   0  0  0  0  0  0  0  0  0  0  0  0
   -6.3780   -2.8480    0.9260 F   0  0  0  0  0  0  0  0  0  0  0  0
   -3.5020   -0.5300    0.3820 C   0  0  0  0  0  0  0  0  0  0  0  0
   -2.5090   -1.2300    0.8020 C   0  0  0  0  0  0  0  0  0  0  0  0
   -1.1210   -0.9280    0.9220 C   0  0  0  0  0  0  0  0  0  0  0  0
   -0.4600    0.0830    0.6620 O   0  0  0  0  0  0  0  0  0  0  0  0
   -0.2720   -2.0010    1.4540 N   0  0  0  0  0  0  0  0  0  0  0  0
    1.0980   -1.7790    1.6000 N   0  0  0  0  0  0  0  0  0  0  0  0
    1.8790   -1.5030    0.4440 C   0  0  0  0  0  0  0  0  0  0  0  0
    1.3200   -1.4670   -0.6700 O   0  0  0  0  0  0  0  0  0  0  0  0
    3.3480   -1.2580    0.5480 C   0  0  0  0  0  0  0  0  0  0  0  0
    3.6940    0.4770    0.7820 S   0  0  1  0  0  0  0  0  0  0  0  0
    3.0540    1.3430   -0.2320 O   0  0  0  0  0  0  0  0  0  0  0  0
    3.1130    0.9090    2.1350 O   0  0  0  0  0  0  0  0  0  0  0  0
    5.4200    0.7020    0.8960 C   0  0  0  0  0  0  0  0  0  0  0  0
    6.2620    0.2380   -0.2340 C   0  0  0  0  0  0  0  0  0  0  0  0
    5.9380    0.9050   -1.5240 C   0  0  0  0  0  0  0  0  0  0  0  0
    4.6530    0.6540   -1.9680 O   0  0  0  0  0  0  0  0  0  0  0  0
  1  2  1  0
  2  3  1  0
  3  4  2  0
  3 12  1  0
  4  5  1  0
  5  6  1  0
  6  7  1  0
  6  8  2  0
  8  9  1  0
  8 12  1  0
  9 10  1  6
  9 11  1  0
 12 13  2  3
 13 14  1  0
 14 15  2  0
 14 16  1  0
 16 17  1  0
 17 18  1  0
 18 19  2  0
 18 20  1  0
 21 20  1  6
 21 22  2  0
 21 23  2  0
 21 24  1  0
 24 25  1  0
 25 26  1  0
 26 27  1  0
M  END
