
     RDKit          3D

 27 28  0  0  0  0  0  0  0  0999 V2000
   -4.4290    1.9340    4.4460 C   0  0  0  0  0  0  0  0  0  0  0  0
   -4.2900    1.7200    3.0510 O   0  0  0  0  0  0  0  0  0  0  0  0
   -3.1030    1.1240    2.5940 C   0  0  0  0  0  0  0  0  0  0  0  0
   -2.2090    0.8020    3.4370 O   0  0  0  0  0  0  0  0  0  0  0  0
   -2.9480    0.9000    1.1680 C   0  0  0  0  0  0  0  0  0  0  0  0
   -1.9250    0.3560    0.5080 C   0  0  0  0  0  0  0  0  0  0  0  0
   -0.6950   -0.1480    1.1160 N   0  0  0  0  0  0  0  0  0  0  0  0
    0.3560   -0.7150    0.3530 C   0  0  0  0  0  0  0  0  0  0  0  0
    1.5950   -1.1940    0.9550 C   0  0  0  0  0  0  0  0  0  0  0  0
    1.6790   -1.1180    2.3140 C   0  0  0  0  0  0  0  0  0  0  0  0
    2.8990   -1.5790    3.0370 C   0  0  1  0  0  0  0  0  0  0  0  0
    3.8700   -0.6140    3.0990 F   0  0  0  0  0  0  0  0  0  0  0  0
    2.5160   -1.9380    4.3130 F   0  0  0  0  0  0  0  0  0  0  0  0
    3.3900   -2.7530    2.4570 F   0  0  0  0  0  0  0  0  0  0  0  0
    3.0260   -1.8010    0.1890 S   0  0  0  0  0  0  0  0  0  0  0  0
    3.3430   -1.7080   -1.5100 C   0  0  0  0  0  0  0  0  0  0  0  0
    3.5490   -0.3230   -2.1020 C   0  0  0  0  0  0  0  0  0  0  0  0
    3.7970   -0.4330   -3.5600 C   0  0  0  0  0  0  0  0  0  0  0  0
    4.0180    0.7280   -4.3610 N   0  0  0  0  0  0  0  0  0  0  0  0
    3.8270   -1.5450   -4.1690 O   0  0  0  0  0  0  0  0  0  0  0  0
    0.1460   -0.7590   -0.9720 C   0  0  0  0  0  0  0  0  0  0  0  0
   -1.0510   -0.2740   -1.6220 C   0  0  0  0  0  0  0  0  0  0  0  0
   -2.0520    0.2660   -0.8980 C   0  0  0  0  0  0  0  0  0  0  0  0
   -3.3340    0.7980   -1.4710 C   0  0  0  0  0  0  0  0  0  0  0  0
   -4.1500    1.3280   -0.0090 S   0  0  2  0  0  0  0  0  0  0  0  0
   -4.3590    2.8160   -0.0810 O   0  0  0  0  0  0  0  0  0  0  0  0
   -5.4470    0.6030    0.2180 O   0  0  0  0  0  0  0  0  0  0  0  0
  1  2  1  0
  2  3  1  0
  3  4  2  0
  3  5  1  0
  5  6  2  0
  5 25  1  0
  6  7  1  0
  6 23  1  0
  7  8  1  0
  8  9  1  0
  8 21  2  0
  9 10  2  3
  9 15  1  0
 10 11  1  0
 11 12  1  1
 11 13  1  0
 11 14  1  0
 15 16  1  0
 16 17  1  0
 17 18  1  0
 18 19  1  0
 18 20  2  0
 21 22  1  0
 22 23  2  0
 23 24  1  0
 25 24  1  6
 25 26  2  0
 25 27  2  0
M  END
