
     RDKit          3D

 27 28  0  0  0  0  0  0  0  0999 V2000
   -0.7070    5.7510   -0.7780 N   0  0  0  0  0  0  0  0  0  0  0  0
   -1.3390    4.8810    0.5710 S   0  0  2  0  0  0  0  0  0  0  0  0
   -2.6870    5.4570    0.8990 O   0  0  0  0  0  0  0  0  0  0  0  0
   -0.4010    5.0030    1.7530 O   0  0  0  0  0  0  0  0  0  0  0  0
   -1.5040    3.1780    0.2210 C   0  0  0  0  0  0  0  0  0  0  0  0
   -2.6490    2.6300   -0.3150 C   0  0  0  0  0  0  0  0  0  0  0  0
   -3.6960    3.4760   -0.5800 F   0  0  0  0  0  0  0  0  0  0  0  0
   -2.7360    1.2780   -0.5760 C   0  0  0  0  0  0  0  0  0  0  0  0
   -3.8690    0.7780   -1.0990 F   0  0  0  0  0  0  0  0  0  0  0  0
   -1.6570    0.4420   -0.2970 C   0  0  0  0  0  0  0  0  0  0  0  0
   -1.8100   -1.2440   -0.6010 S   0  0  2  0  0  0  0  0  0  0  0  0
   -0.5850   -1.9280   -1.0770 O   0  0  0  0  0  0  0  0  0  0  0  0
   -2.8490   -1.4170   -1.7060 O   0  0  0  0  0  0  0  0  0  0  0  0
   -2.4580   -2.1350    0.7930 C   0  0  0  0  0  0  0  0  0  0  0  0
   -2.5390   -3.5980    0.3860 C   0  0  0  0  0  0  0  0  0  0  0  0
   -3.3750   -3.7640   -0.7170 O   0  0  0  0  0  0  0  0  0  0  0  0
   -0.5130    0.9630    0.2330 C   0  0  0  0  0  0  0  0  0  0  0  0
    0.5790    0.1110    0.4800 N   0  0  0  0  0  0  0  0  0  0  0  0
    1.6250    0.0270   -0.5060 C   0  0  0  0  0  0  0  0  0  0  0  0
    2.7040   -0.9180   -0.2020 C   0  0  0  0  0  0  0  0  0  0  0  0
    3.4790   -1.3630   -1.2680 C   0  0  0  0  0  0  0  0  0  0  0  0
    4.5230   -2.2510   -1.0800 C   0  0  0  0  0  0  0  0  0  0  0  0
    4.8140   -2.7120    0.1830 C   0  0  0  0  0  0  0  0  0  0  0  0
    4.0700   -2.2910    1.2380 C   0  0  0  0  0  0  0  0  0  0  0  0
    3.0110   -1.3900    1.0450 C   0  0  0  0  0  0  0  0  0  0  0  0
   -0.4470    2.3330    0.4890 C   0  0  0  0  0  0  0  0  0  0  0  0
    0.7230    2.7840    1.0180 F   0  0  0  0  0  0  0  0  0  0  0  0
  2  1  1  6
  2  3  2  0
  2  4  2  0
  2  5  1  0
  5  6  2  0
  5 26  1  0
  6  7  1  0
  6  8  1  0
  8  9  1  0
  8 10  2  0
 10 11  1  0
 10 17  1  0
 11 12  2  0
 11 13  2  0
 11 14  1  1
 14 15  1  0
 15 16  1  0
 17 18  1  0
 17 26  2  0
 18 19  1  0
 19 20  1  0
 20 21  2  0
 20 25  1  0
 21 22  1  0
 22 23  2  0
 23 24  1  0
 24 25  2  0
 26 27  1  0
M  END
