
     RDKit          3D

 27 28  0  0  0  0  0  0  0  0999 V2000
   -4.7760   -1.1650    3.7320 C   0  0  0  0  0  0  0  0  0  0  0  0
   -4.6550   -1.3210    2.3310 O   0  0  0  0  0  0  0  0  0  0  0  0
   -3.5240   -0.8940    1.6360 C   0  0  0  0  0  0  0  0  0  0  0  0
   -2.6350   -0.3680    2.3470 O   0  0  0  0  0  0  0  0  0  0  0  0
   -3.3810   -1.0440    0.2050 C   0  0  0  0  0  0  0  0  0  0  0  0
   -2.3880   -0.6920   -0.5650 C   0  0  0  0  0  0  0  0  0  0  0  0
   -1.1550   -0.0490   -0.1640 N   0  0  0  0  0  0  0  0  0  0  0  0
   -0.1140    0.3080   -1.0460 C   0  0  0  0  0  0  0  0  0  0  0  0
    1.1350    0.9510   -0.7040 C   0  0  0  0  0  0  0  0  0  0  0  0
    1.5780    1.3310    0.4420 C   0  0  0  0  0  0  0  0  0  0  0  0
    1.0800    1.2970    1.8170 C   0  0  2  0  0  0  0  0  0  0  0  0
    0.9180    0.0260    2.3140 F   0  0  0  0  0  0  0  0  0  0  0  0
   -0.0380    2.0530    2.0530 F   0  0  0  0  0  0  0  0  0  0  0  0
    2.1220    1.8250    2.6760 F   0  0  0  0  0  0  0  0  0  0  0  0
    2.2540    1.3000   -2.1200 S   0  0  0  0  0  0  0  0  0  0  0  0
    3.8600    1.7990   -1.5360 C   0  0  0  0  0  0  0  0  0  0  0  0
    4.6410    0.6720   -0.8960 C   0  0  0  0  0  0  0  0  0  0  0  0
    5.9650    1.1610   -0.4170 C   0  0  0  0  0  0  0  0  0  0  0  0
    6.8940    0.3120    0.2220 N   0  0  0  0  0  0  0  0  0  0  0  0
    6.2360    2.3780   -0.6020 O   0  0  0  0  0  0  0  0  0  0  0  0
   -0.3550   -0.0030   -2.3430 C   0  0  0  0  0  0  0  0  0  0  0  0
   -1.5570   -0.6340   -2.7710 C   0  0  0  0  0  0  0  0  0  0  0  0
   -2.5570   -0.9800   -1.9410 C   0  0  0  0  0  0  0  0  0  0  0  0
   -3.8110   -1.6310   -2.3370 C   0  0  0  0  0  0  0  0  0  0  0  0
   -4.6350   -1.7870   -0.7830 S   0  0  1  0  0  0  0  0  0  0  0  0
   -4.8310   -3.2290   -0.3940 O   0  0  0  0  0  0  0  0  0  0  0  0
   -5.9070   -1.0150   -0.7290 O   0  0  0  0  0  0  0  0  0  0  0  0
  1  2  1  0
  2  3  1  0
  3  4  2  0
  3  5  1  0
  5  6  2  0
  5 25  1  0
  6  7  1  0
  6 23  1  0
  7  8  1  0
  8  9  1  0
  8 21  2  0
  9 10  2  3
  9 15  1  0
 10 11  1  0
 11 12  1  1
 11 13  1  0
 11 14  1  0
 15 16  1  0
 16 17  1  0
 17 18  1  0
 18 19  1  0
 18 20  2  0
 21 22  1  0
 22 23  2  0
 23 24  1  0
 25 24  1  6
 25 26  2  0
 25 27  2  0
M  END
