
     RDKit          3D

 27 27  0  0  0  0  0  0  0  0999 V2000
   -4.2220    0.9340    2.1140 C   0  0  0  0  0  0  0  0  0  0  0  0
   -3.3860   -0.3060    1.9480 C   0  0  2  0  0  0  0  0  0  0  0  0
   -2.1100    0.0220    1.2960 C   0  0  0  0  0  0  0  0  0  0  0  0
   -1.7370    0.0920    0.0390 C   0  0  0  0  0  0  0  0  0  0  0  0
   -0.3570    0.4470   -0.2390 C   0  0  0  0  0  0  0  0  0  0  0  0
    0.0820    0.5310   -1.3870 O   0  0  0  0  0  0  0  0  0  0  0  0
    0.6070    0.7270    0.7750 N   0  0  0  0  0  0  0  0  0  0  0  0
    2.0050    1.0770    0.4450 C   0  0  0  0  0  0  0  0  0  0  0  0
    2.6930   -0.0260   -0.2780 C   0  0  0  0  0  0  0  0  0  0  0  0
    4.3790    0.4620   -0.6300 S   0  0  2  0  0  0  0  0  0  0  0  0
    4.3710    1.7340   -1.4710 O   0  0  0  0  0  0  0  0  0  0  0  0
    5.0140   -0.5940   -1.4750 O   0  0  0  0  0  0  0  0  0  0  0  0
    5.2560    0.8020    0.8570 C   0  0  0  0  0  0  0  0  0  0  0  0
    5.3050   -0.3850    1.7710 C   0  0  0  0  0  0  0  0  0  0  0  0
    5.9770   -1.5950    1.1910 C   0  0  0  0  0  0  0  0  0  0  0  0
    7.2990   -1.2740    0.8540 O   0  0  0  0  0  0  0  0  0  0  0  0
   -2.6870   -0.0810   -1.0920 C   0  0  0  0  0  0  0  0  0  0  0  0
   -2.4160   -0.0240   -2.3510 C   0  0  0  0  0  0  0  0  0  0  0  0
   -1.1660    0.2330   -2.8890 F   0  0  0  0  0  0  0  0  0  0  0  0
   -3.3600   -0.3580   -3.4780 C   0  0  2  0  0  0  0  0  0  0  0  0
   -4.3250   -1.2510   -3.0780 O   0  0  0  0  0  0  0  0  0  0  0  0
   -2.5900   -1.0860   -4.4480 F   0  0  0  0  0  0  0  0  0  0  0  0
   -3.8170    0.7290   -4.1510 F   0  0  0  0  0  0  0  0  0  0  0  0
   -4.1080   -0.3200   -0.7480 C   0  0  0  0  0  0  0  0  0  0  0  0
   -5.1340    0.2420   -1.2690 C   0  0  0  0  0  0  0  0  0  0  0  0
   -6.4220   -0.1300   -0.8060 N   0  0  0  0  0  0  0  0  0  0  0  0
   -4.3500   -1.3730    0.7360 S   0  0  0  0  0  0  0  0  0  0  0  0
  2  1  1  6
  2  3  1  0
  2 27  1  0
  3  4  2  0
  4  5  1  0
  4 17  1  0
  5  6  2  0
  5  7  1  0
  7  8  1  0
  8  9  1  0
 10  9  1  1
 10 11  2  0
 10 12  2  0
 10 13  1  0
 13 14  1  0
 14 15  1  0
 15 16  1  0
 17 18  2  3
 17 24  1  0
 18 19  1  0
 18 20  1  0
 20 21  1  1
 20 22  1  0
 20 23  1  0
 24 25  2  3
 24 27  1  0
 25 26  1  0
M  END
