
     RDKit          3D

 27 28  0  0  0  0  0  0  0  0999 V2000
   -4.5920   -0.2690    1.5820 N   0  0  0  0  0  0  0  0  0  0  0  0
   -4.2210    0.6810    0.5620 C   0  0  1  0  0  0  0  0  0  0  0  0
   -5.0670    1.7770    0.7270 F   0  0  0  0  0  0  0  0  0  0  0  0
   -2.9090    1.0620    0.8080 F   0  0  0  0  0  0  0  0  0  0  0  0
   -4.3540    0.1780   -0.8120 C   0  0  0  0  0  0  0  0  0  0  0  0
   -3.6030   -0.8050   -1.3460 C   0  0  0  0  0  0  0  0  0  0  0  0
   -2.5550   -1.4690   -0.5490 C   0  0  0  0  0  0  0  0  0  0  0  0
   -1.2960   -1.4340   -0.8580 O   0  0  0  0  0  0  0  0  0  0  0  0
   -0.0780   -1.4320   -1.2340 C   0  0  0  0  0  0  0  0  0  0  0  0
    0.1480   -1.8860   -2.4090 O   0  0  0  0  0  0  0  0  0  0  0  0
    1.0980   -0.9780   -0.5030 C   0  0  0  0  0  0  0  0  0  0  0  0
    2.3880   -0.9530   -0.8650 C   0  0  0  0  0  0  0  0  0  0  0  0
    3.3330   -0.4850   -0.0410 C   0  0  0  0  0  0  0  0  0  0  0  0
    2.9200   -0.0280    1.1980 C   0  0  0  0  0  0  0  0  0  0  0  0
    3.6880    0.5640    2.3040 C   0  0  0  0  0  0  0  0  0  0  0  0
    4.5470    1.5160    2.0990 C   0  0  0  0  0  0  0  0  0  0  0  0
    5.5330    2.2860    3.4220 S   0  0  0  0  0  0  0  0  0  0  0  0
    6.8120    2.8600    2.2730 C   0  0  0  0  0  0  0  0  0  0  0  0
    7.9850    3.1040    2.6140 O   0  0  0  0  0  0  0  0  0  0  0  0
    6.1600    2.9350    1.0420 N   0  0  0  0  0  0  0  0  0  0  0  0
    4.9590    2.2310    0.9290 C   0  0  0  0  0  0  0  0  0  0  0  0
    4.2530    2.2150   -0.1420 O   0  0  0  0  0  0  0  0  0  0  0  0
    1.1780   -0.2880    1.1400 S   0  0  0  0  0  0  0  0  0  0  0  0
   -3.9220   -1.1630   -2.7070 C   0  0  0  0  0  0  0  0  0  0  0  0
   -4.9140   -0.4570   -3.4250 O   0  0  0  0  0  0  0  0  0  0  0  0
   -3.3440   -2.1340   -3.3740 C   0  0  0  0  0  0  0  0  0  0  0  0
   -2.3930   -2.9030   -2.8410 F   0  0  0  0  0  0  0  0  0  0  0  0
  2  1  1  1
  2  3  1  0
  2  4  1  0
  2  5  1  0
  5  6  2  3
  6  7  1  0
  6 24  1  0
  7  8  1  0
  8  9  1  0
  9 10  2  0
  9 11  1  0
 11 12  2  0
 11 23  1  0
 12 13  1  0
 13 14  2  0
 14 15  1  0
 14 23  1  0
 15 16  2  3
 16 17  1  0
 16 21  1  0
 17 18  1  0
 18 19  2  0
 18 20  1  0
 20 21  1  0
 21 22  2  0
 24 25  1  0
 24 26  2  3
 26 27  1  0
M  END
