
     RDKit          3D

 27 27  0  0  0  0  0  0  0  0999 V2000
    8.6570   -0.3860   -0.1130 C   0  0  0  0  0  0  0  0  0  0  0  0
    7.4730    0.0820    0.3240 C   0  0  0  0  0  0  0  0  0  0  0  0
    6.3570   -0.5080   -0.1800 N   0  0  0  0  0  0  0  0  0  0  0  0
    4.9660   -0.1250    0.1850 C   0  0  0  0  0  0  0  0  0  0  0  0
    4.8440    0.7360    0.9920 O   0  0  0  0  0  0  0  0  0  0  0  0
    4.0750   -0.9260   -0.5580 N   0  0  0  0  0  0  0  0  0  0  0  0
    2.5970   -0.3470    0.1510 C   0  0  0  0  0  0  0  0  0  0  0  0
    2.7180    0.5810    0.8140 O   0  0  0  0  0  0  0  0  0  0  0  0
    1.4860   -1.1810   -0.2320 C   0  0  0  0  0  0  0  0  0  0  0  0
   -0.1010   -0.6920    0.2860 S   0  0  2  0  0  0  0  0  0  0  0  0
   -0.0330   -0.5010    1.7880 O   0  0  0  0  0  0  0  0  0  0  0  0
   -1.1080   -1.8120    0.0040 O   0  0  0  0  0  0  0  0  0  0  0  0
   -0.6980    0.8130   -0.3830 C   0  0  0  0  0  0  0  0  0  0  0  0
   -2.0550    1.0420    0.2230 C   0  0  0  0  0  0  0  0  0  0  0  0
   -3.2220    1.0430   -0.3840 C   0  0  0  0  0  0  0  0  0  0  0  0
   -4.3720    1.2860    0.4420 C   0  0  0  0  0  0  0  0  0  0  0  0
   -5.6040    0.7650    0.3850 C   0  0  0  0  0  0  0  0  0  0  0  0
   -6.0030   -0.2150   -0.6090 C   0  0  0  0  0  0  0  0  0  0  0  0
   -5.0950   -0.6590   -1.5490 O   0  0  0  0  0  0  0  0  0  0  0  0
   -7.2310   -0.6900   -0.6270 C   0  0  0  0  0  0  0  0  0  0  0  0
   -7.6680   -1.6820   -1.6210 C   0  0  0  0  0  0  0  0  0  0  0  0
   -4.0390    2.2840    1.5470 C   0  0  0  0  0  0  0  0  0  0  0  0
   -2.4000    1.5020    1.9450 S   0  0  0  0  0  0  0  0  0  0  0  0
    7.5170    1.1920    1.2860 C   0  0  2  0  0  0  0  0  0  0  0  0
    8.8280    1.5660    1.5680 F   0  0  0  0  0  0  0  0  0  0  0  0
    6.8630    0.8050    2.4360 F   0  0  0  0  0  0  0  0  0  0  0  0
    6.8470    2.3160    0.8070 F   0  0  0  0  0  0  0  0  0  0  0  0
  1  2  2  0
  2  3  1  0
  2 24  1  0
  3  4  1  0
  4  5  2  0
  4  6  1  0
  6  7  1  0
  7  8  2  0
  7  9  1  0
 10  9  1  6
 10 11  2  0
 10 12  2  0
 10 13  1  0
 13 14  1  0
 14 15  2  0
 14 23  1  0
 15 16  1  0
 16 17  2  3
 16 22  1  0
 17 18  1  0
 18 19  1  0
 18 20  2  3
 20 21  1  0
 22 23  1  0
 24 25  1  1
 24 26  1  0
 24 27  1  0
M  END
