
     RDKit          3D

 36 39  0  0  0  0  0  0  0  0999 V2000
   -7.7740   -3.8380    1.8580 C   0  0  0  0  0  0  0  0  0  0  0  0
   -6.5700   -3.1430    1.9240 O   0  0  0  0  0  0  0  0  0  0  0  0
   -5.7040   -2.9800    0.8660 C   0  0  0  0  0  0  0  0  0  0  0  0
   -5.9430   -3.4950   -0.3760 C   0  0  0  0  0  0  0  0  0  0  0  0
   -5.0630   -3.3040   -1.3750 N   0  0  0  0  0  0  0  0  0  0  0  0
   -3.9490   -2.6230   -1.2060 C   0  0  0  0  0  0  0  0  0  0  0  0
   -2.8290   -2.3970   -2.5310 Cl  0  0  0  0  0  0  0  0  0  0  0  0
   -3.6200   -2.0540    0.0480 C   0  0  0  0  0  0  0  0  0  0  0  0
   -2.4160   -1.3390    0.1550 N   0  0  0  0  0  0  0  0  0  0  0  0
   -1.9600   -0.7200    1.3130 C   0  0  0  0  0  0  0  0  0  0  0  0
   -2.6230   -0.7680    2.3830 O   0  0  0  0  0  0  0  0  0  0  0  0
   -0.7100    0.0120    1.3570 C   0  0  0  0  0  0  0  0  0  0  0  0
   -0.3120    0.5630    2.4700 C   0  0  0  0  0  0  0  0  0  0  0  0
   -1.2640    0.4420    3.9440 Cl  0  0  0  0  0  0  0  0  0  0  0  0
    0.8750    1.2700    2.5570 O   0  0  0  0  0  0  0  0  0  0  0  0
    0.9220    2.5440    2.0200 C   0  0  0  0  0  0  0  0  0  0  0  0
   -0.1740    3.1160    1.4110 C   0  0  0  0  0  0  0  0  0  0  0  0
   -0.1020    4.3850    0.8850 C   0  0  0  0  0  0  0  0  0  0  0  0
    1.0880    5.0710    0.9800 C   0  0  0  0  0  0  0  0  0  0  0  0
    2.1530    4.4790    1.5880 N   0  0  0  0  0  0  0  0  0  0  0  0
    2.1100    3.2470    2.1080 C   0  0  0  0  0  0  0  0  0  0  0  0
    0.1960    0.1870    0.1800 C   0  0  0  0  0  0  0  0  0  0  0  0
    1.3740    0.1230   -0.0270 N   0  0  0  0  0  0  0  0  0  0  0  0
    1.9950    0.3440   -1.1520 C   0  0  0  0  0  0  0  0  0  0  0  0
    3.4820    0.2410   -1.3070 C   0  0  0  0  0  0  0  0  0  0  0  0
    4.0770    0.4610   -2.4520 C   0  0  0  0  0  0  0  0  0  0  0  0
    5.5120    0.3620   -2.6040 C   0  0  0  0  0  0  0  0  0  0  0  0
    6.0110    0.6040   -3.8180 C   0  0  0  0  0  0  0  0  0  0  0  0
    7.7420    0.4890   -4.0220 Cl  0  0  0  0  0  0  0  0  0  0  0  0
    6.3790    0.0120   -1.4680 C   0  0  1  0  0  0  0  0  0  0  0  0
    7.2920    1.0340   -1.1770 O   0  0  0  0  0  0  0  0  0  0  0  0
    5.6080   -0.2020   -0.2840 N   0  0  0  0  0  0  0  0  0  0  0  0
    4.3490   -0.1080   -0.1930 C   0  0  0  0  0  0  0  0  0  0  0  0
    1.2060    0.6880   -2.2170 C   0  0  0  0  0  0  0  0  0  0  0  0
   -0.4490    0.6570   -1.4460 S   0  0  0  0  0  0  0  0  0  0  0  0
   -4.5140   -2.2540    1.0430 C   0  0  0  0  0  0  0  0  0  0  0  0
  1  2  1  0
  2  3  1  0
  3  4  2  0
  3 36  1  0
  4  5  1  0
  5  6  2  0
  6  7  1  0
  6  8  1  0
  8  9  1  0
  8 36  2  0
  9 10  1  0
 10 11  2  0
 10 12  1  0
 12 13  2  3
 12 22  1  0
 13 14  1  0
 13 15  1  0
 15 16  1  0
 16 17  2  0
 16 21  1  0
 17 18  1  0
 18 19  2  0
 19 20  1  0
 20 21  2  0
 22 23  2  0
 22 35  1  0
 23 24  1  0
 24 25  1  0
 24 34  2  0
 25 26  2  0
 25 33  1  0
 26 27  1  0
 27 28  2  3
 27 30  1  0
 28 29  1  0
 30 31  1  1
 30 32  1  0
 32 33  2  0
 34 35  1  0
M  END
