
     RDKit          3D

 36 39  0  0  0  0  0  0  0  0999 V2000
    8.7120   -0.2250   -0.1190 C   0  0  0  0  0  0  0  0  0  0  0  0
    7.5650   -1.0300   -0.5490 N   0  0  0  0  0  0  0  0  0  0  0  0
    6.3830   -0.2880   -0.1660 C   0  0  0  0  0  0  0  0  0  0  0  0
    5.1460   -0.8280   -0.7670 C   0  0  0  0  0  0  0  0  0  0  0  0
    5.1530   -1.9270   -1.6140 C   0  0  0  0  0  0  0  0  0  0  0  0
    3.9500   -2.3450   -2.1160 C   0  0  0  0  0  0  0  0  0  0  0  0
    2.7670   -1.7040   -1.7970 C   0  0  0  0  0  0  0  0  0  0  0  0
    2.7550   -0.6090   -0.9540 C   0  0  0  0  0  0  0  0  0  0  0  0
    1.5150    0.0730   -0.6120 C   0  0  0  0  0  0  0  0  0  0  0  0
    1.5520    1.4230   -0.3570 C   0  0  0  0  0  0  0  0  0  0  0  0
    0.3970    2.0670   -0.0360 C   0  0  0  0  0  0  0  0  0  0  0  0
   -0.8260    1.4160    0.0460 C   0  0  0  0  0  0  0  0  0  0  0  0
   -2.0000    2.1010    0.3980 N   0  0  0  0  0  0  0  0  0  0  0  0
   -2.7440    1.8850    1.6150 C   0  0  0  0  0  0  0  0  0  0  0  0
   -2.7230    3.1700    2.4510 C   0  0  0  0  0  0  0  0  0  0  0  0
   -2.7550    4.3510    1.6470 N   0  0  2  0  0  0  0  0  0  0  0  0
   -3.5940    5.3950    2.2590 C   0  0  0  0  0  0  0  0  0  0  0  0
   -3.2920    4.1670    0.3130 C   0  0  0  0  0  0  0  0  0  0  0  0
   -2.5280    3.1220   -0.4860 C   0  0  0  0  0  0  0  0  0  0  0  0
   -0.8810    0.0370   -0.2130 C   0  0  0  0  0  0  0  0  0  0  0  0
   -2.1390   -0.5970   -0.1460 N   0  0  0  0  0  0  0  0  0  0  0  0
   -2.3680   -1.9780   -0.3230 C   0  0  0  0  0  0  0  0  0  0  0  0
   -1.4440   -2.7730   -0.5600 O   0  0  0  0  0  0  0  0  0  0  0  0
   -3.7590   -2.5450   -0.2340 C   0  0  1  0  0  0  0  0  0  0  0  0
   -4.5250   -2.1980   -1.4460 C   0  0  0  0  0  0  0  0  0  0  0  0
   -5.1120   -3.0560   -2.1980 N   0  0  0  0  0  0  0  0  0  0  0  0
   -5.0550   -4.4270   -1.8920 C   0  0  0  0  0  0  0  0  0  0  0  0
   -5.6380   -5.2820   -2.6440 O   0  0  0  0  0  0  0  0  0  0  0  0
   -4.3350   -4.8700   -0.7230 C   0  0  0  0  0  0  0  0  0  0  0  0
   -3.7160   -3.9780    0.0760 C   0  0  0  0  0  0  0  0  0  0  0  0
   -3.0570   -4.5640    1.2690 C   0  0  2  0  0  0  0  0  0  0  0  0
   -3.4780   -3.9270    2.4300 F   0  0  0  0  0  0  0  0  0  0  0  0
   -1.6990   -4.5330    1.1240 F   0  0  0  0  0  0  0  0  0  0  0  0
   -3.3840   -5.9300    1.3970 F   0  0  0  0  0  0  0  0  0  0  0  0
    0.3040   -0.5860   -0.5340 C   0  0  0  0  0  0  0  0  0  0  0  0
    3.9660   -0.1770   -0.4400 C   0  0  0  0  0  0  0  0  0  0  0  0
  1  2  1  0
  2  3  1  0
  3  4  1  0
  4  5  2  0
  4 36  1  0
  5  6  1  0
  6  7  2  0
  7  8  1  0
  8  9  1  0
  8 36  2  0
  9 10  2  0
  9 35  1  0
 10 11  1  0
 11 12  2  0
 12 13  1  0
 12 20  1  0
 13 14  1  0
 13 19  1  0
 14 15  1  0
 15 16  1  0
 16 17  1  1
 16 18  1  0
 18 19  1  0
 20 21  1  0
 20 35  2  0
 21 22  1  0
 22 23  2  0
 24 22  1  6
 24 25  1  0
 24 30  1  0
 25 26  2  0
 26 27  1  0
 27 28  2  0
 27 29  1  0
 29 30  2  0
 30 31  1  0
 31 32  1  1
 31 33  1  0
 31 34  1  0
M  CHG  2   2   1  16   1
M  END
