
     RDKit          3D

 35 38  0  0  0  0  0  0  0  0999 V2000
    9.4130    2.6020    0.2050 C   0  0  0  0  0  0  0  0  0  0  0  0
    8.3550    1.7510   -0.4330 C   0  0  0  0  0  0  0  0  0  0  0  0
    7.2150    1.3450    0.2260 C   0  0  0  0  0  0  0  0  0  0  0  0
    6.5090    0.5830   -0.7120 C   0  0  0  0  0  0  0  0  0  0  0  0
    5.2540   -0.0430   -0.4290 C   0  0  0  0  0  0  0  0  0  0  0  0
    4.6840    0.1900    0.7030 O   0  0  0  0  0  0  0  0  0  0  0  0
    4.5410   -0.9160   -1.2700 N   0  0  0  0  0  0  0  0  0  0  0  0
    3.2480   -1.5110   -0.8840 C   0  0  0  0  0  0  0  0  0  0  0  0
    2.4210   -2.2160   -1.2560 N   0  0  0  0  0  0  0  0  0  0  0  0
    1.2990   -2.5920   -0.6520 C   0  0  0  0  0  0  0  0  0  0  0  0
    0.2800   -3.5440   -1.2550 C   0  0  0  0  0  0  0  0  0  0  0  0
    1.0880   -2.0760    0.5820 C   0  0  0  0  0  0  0  0  0  0  0  0
    0.1070   -2.1140    1.6460 C   0  0  0  0  0  0  0  0  0  0  0  0
   -1.0730   -1.3420    1.4830 N   0  0  0  0  0  0  0  0  0  0  0  0
   -1.0980   -0.0690    1.8390 N   0  0  0  0  0  0  0  0  0  0  0  0
   -2.2000    0.7010    1.6850 C   0  0  0  0  0  0  0  0  0  0  0  0
   -3.3480    0.1860    1.1460 C   0  0  0  0  0  0  0  0  0  0  0  0
   -4.4810    0.9540    0.9780 C   0  0  0  0  0  0  0  0  0  0  0  0
   -4.4420    2.6180    1.4690 Cl  0  0  0  0  0  0  0  0  0  0  0  0
   -5.5990    0.3650    0.4260 C   0  0  0  0  0  0  0  0  0  0  0  0
   -6.7540    1.2020    0.2680 N   0  0  0  0  0  0  0  0  0  0  0  0
   -7.7290    1.3780    1.3210 C   0  0  0  0  0  0  0  0  0  0  0  0
   -8.8420    2.3040    0.8140 C   0  0  0  0  0  0  0  0  0  0  0  0
  -10.0590    2.5400    2.0850 Cl  0  0  0  0  0  0  0  0  0  0  0  0
   -5.6180   -0.9570    0.0410 C   0  0  0  0  0  0  0  0  0  0  0  0
   -6.8130   -1.5320   -0.5510 C   0  0  0  0  0  0  0  0  0  0  0  0
   -7.8340   -0.8390   -0.7250 O   0  0  0  0  0  0  0  0  0  0  0  0
   -4.4730   -1.7230    0.2130 C   0  0  0  0  0  0  0  0  0  0  0  0
   -3.3620   -1.1360    0.7620 C   0  0  0  0  0  0  0  0  0  0  0  0
   -2.1810   -1.8640    0.9560 C   0  0  0  0  0  0  0  0  0  0  0  0
   -2.2690   -3.0820    0.5810 O   0  0  0  0  0  0  0  0  0  0  0  0
    2.5370   -1.0660    0.8050 S   0  0  0  0  0  0  0  0  0  0  0  0
    7.2330    0.5620   -1.8670 C   0  0  0  0  0  0  0  0  0  0  0  0
    6.9550   -0.0950   -3.1800 C   0  0  0  0  0  0  0  0  0  0  0  0
    8.3320    1.2780   -1.6440 O   0  0  0  0  0  0  0  0  0  0  0  0
  1  2  1  0
  2  3  2  0
  2 35  1  0
  3  4  1  0
  4  5  1  0
  4 33  2  0
  5  6  2  0
  5  7  1  0
  7  8  1  0
  8  9  2  0
  8 32  1  0
  9 10  1  0
 10 11  1  0
 10 12  2  0
 12 13  1  0
 12 32  1  0
 13 14  1  0
 14 15  1  0
 14 30  1  0
 15 16  2  0
 16 17  1  0
 17 18  2  0
 17 29  1  0
 18 19  1  0
 18 20  1  0
 20 21  1  0
 20 25  2  0
 21 22  1  0
 22 23  1  0
 23 24  1  0
 25 26  1  0
 25 28  1  0
 26 27  2  0
 28 29  2  0
 29 30  1  0
 30 31  2  0
 33 34  1  0
 33 35  1  0
M  END
