
     RDKit          3D

 36 38  0  0  0  0  0  0  0  0999 V2000
    9.5800   -0.8930    0.0700 C   0  0  0  0  0  0  0  0  0  0  0  0
    8.7600   -1.7750    0.5150 C   0  0  0  0  0  0  0  0  0  0  0  0
    7.3890   -1.8930    0.8380 C   0  0  0  0  0  0  0  0  0  0  0  0
    7.1470   -3.1680    1.3470 O   0  0  0  0  0  0  0  0  0  0  0  0
    6.1700   -1.2050    0.8300 C   0  0  0  0  0  0  0  0  0  0  0  0
    5.0100   -2.0060    1.5450 C   0  0  0  0  0  0  0  0  0  0  0  0
    5.8250   -0.0440    0.3950 C   0  0  0  0  0  0  0  0  0  0  0  0
    6.6160    1.0150   -0.2750 C   0  0  0  0  0  0  0  0  0  0  0  0
    5.3910    0.8690   -1.7440 S   0  0  0  0  0  0  0  0  0  0  0  0
    3.9970    0.8580   -0.6320 C   0  0  0  0  0  0  0  0  0  0  0  0
    2.6640    1.2860   -0.5720 N   0  0  0  0  0  0  0  0  0  0  0  0
    1.9950    1.5280   -1.7430 C   0  0  0  0  0  0  0  0  0  0  0  0
    2.6320    1.2950   -2.7600 O   0  0  0  0  0  0  0  0  0  0  0  0
    0.6360    2.0170   -1.6790 C   0  0  0  0  0  0  0  0  0  0  0  0
   -0.1180    2.2090   -2.7540 N   0  0  0  0  0  0  0  0  0  0  0  0
   -1.2460    2.6360   -2.3410 O   0  0  0  0  0  0  0  0  0  0  0  0
   -1.3140    2.7500   -1.0400 C   0  0  0  0  0  0  0  0  0  0  0  0
   -2.4760    3.2140   -0.2660 C   0  0  0  0  0  0  0  0  0  0  0  0
   -3.2870    2.0930    0.2380 N   0  0  0  0  0  0  0  0  0  0  0  0
   -3.8690    1.2110   -0.7380 C   0  0  0  0  0  0  0  0  0  0  0  0
   -3.5700    1.5120   -1.9380 O   0  0  0  0  0  0  0  0  0  0  0  0
   -4.6980    0.1340   -0.3400 C   0  0  0  0  0  0  0  0  0  0  0  0
   -5.0390   -0.7080   -1.3080 C   0  0  0  0  0  0  0  0  0  0  0  0
   -4.5190   -0.3950   -2.6310 C   0  0  0  0  0  0  0  0  0  0  0  0
   -5.7970   -1.9970   -1.3410 C   0  0  0  0  0  0  0  0  0  0  0  0
   -6.5050   -2.3450   -2.8890 Cl  0  0  0  0  0  0  0  0  0  0  0  0
   -6.0360   -2.9380   -0.4480 C   0  0  0  0  0  0  0  0  0  0  0  0
   -5.6500   -3.1070    0.9620 C   0  0  0  0  0  0  0  0  0  0  0  0
   -5.3980   -2.2370    1.9450 C   0  0  0  0  0  0  0  0  0  0  0  0
   -4.9750   -2.9580    3.4550 Cl  0  0  0  0  0  0  0  0  0  0  0  0
   -5.4370   -0.7690    1.9630 C   0  0  0  0  0  0  0  0  0  0  0  0
   -5.9040   -0.1330    3.5000 Cl  0  0  0  0  0  0  0  0  0  0  0  0
   -5.1600    0.1600    1.0490 C   0  0  0  0  0  0  0  0  0  0  0  0
   -5.5450    1.4940    1.5470 C   0  0  0  0  0  0  0  0  0  0  0  0
   -0.1010    2.3510   -0.6070 N   0  0  0  0  0  0  0  0  0  0  0  0
    4.4600    0.3570    0.4170 N   0  0  0  0  0  0  0  0  0  0  0  0
  1  2  2  0
  2  3  1  0
  3  4  2  0
  3  5  1  0
  5  6  1  0
  5  7  2  3
  7  8  1  0
  7 36  1  0
  8  9  1  0
  9 10  1  0
 10 11  1  0
 10 36  2  0
 11 12  1  0
 12 13  2  0
 12 14  1  0
 14 15  2  0
 14 35  1  0
 15 16  1  0
 16 17  1  0
 17 18  1  0
 17 35  2  0
 18 19  1  0
 19 20  1  0
 20 21  2  0
 20 22  1  0
 22 23  2  0
 22 33  1  0
 23 24  1  0
 23 25  1  0
 25 26  1  0
 25 27  2  0
 27 28  1  0
 28 29  2  0
 29 30  1  0
 29 31  1  0
 31 32  1  0
 31 33  2  0
 33 34  1  0
M  END
