
     RDKit          3D

 36 39  0  0  0  0  0  0  0  0999 V2000
    7.2590    1.0480   -0.4430 C   0  0  0  0  0  0  0  0  0  0  0  0
    6.4440    1.0340    0.7560 N   0  0  0  0  0  0  0  0  0  0  0  0
    5.1200    0.5400    0.3640 C   0  0  0  0  0  0  0  0  0  0  0  0
    4.2420    0.4980    1.5300 C   0  0  0  0  0  0  0  0  0  0  0  0
    4.7030    0.8540    2.6560 O   0  0  0  0  0  0  0  0  0  0  0  0
    2.8870    0.0830    1.4920 N   0  0  0  0  0  0  0  0  0  0  0  0
    2.0280    0.0230    2.5220 N   0  0  0  0  0  0  0  0  0  0  0  0
    0.8390   -0.4000    2.1410 C   0  0  0  0  0  0  0  0  0  0  0  0
    0.8920   -0.6410    0.7850 C   0  0  0  0  0  0  0  0  0  0  0  0
   -0.1580   -1.1180   -0.0970 C   0  0  0  0  0  0  0  0  0  0  0  0
   -0.2510   -2.3540   -0.2380 O   0  0  0  0  0  0  0  0  0  0  0  0
   -1.0240   -0.2090   -0.7560 N   0  0  0  0  0  0  0  0  0  0  0  0
   -0.8090    1.2170   -0.5100 C   0  0  0  0  0  0  0  0  0  0  0  0
   -1.9680    2.0580   -0.7770 C   0  0  0  0  0  0  0  0  0  0  0  0
   -1.9380    3.3620   -0.3300 C   0  0  0  0  0  0  0  0  0  0  0  0
   -3.0000    4.2290   -0.5410 C   0  0  0  0  0  0  0  0  0  0  0  0
   -2.9520    5.8700    0.0250 Cl  0  0  0  0  0  0  0  0  0  0  0  0
   -4.0930    3.7350   -1.2190 C   0  0  0  0  0  0  0  0  0  0  0  0
   -4.1590    2.4450   -1.6770 C   0  0  0  0  0  0  0  0  0  0  0  0
   -3.0830    1.6160   -1.4470 C   0  0  0  0  0  0  0  0  0  0  0  0
   -3.1010    0.2730   -1.9000 N   0  0  0  0  0  0  0  0  0  0  0  0
   -2.0710   -0.6780   -1.6360 C   0  0  2  0  0  0  0  0  0  0  0  0
   -2.7780   -1.7950   -0.8260 C   0  0  0  0  0  0  0  0  0  0  0  0
   -2.6800   -2.9830   -1.2750 C   0  0  0  0  0  0  0  0  0  0  0  0
   -3.2590   -4.1710   -0.7240 C   0  0  0  0  0  0  0  0  0  0  0  0
   -4.0090   -4.1680    0.2630 O   0  0  0  0  0  0  0  0  0  0  0  0
   -2.8760   -5.7370   -1.5030 Cl  0  0  0  0  0  0  0  0  0  0  0  0
   -3.2450   -1.2950    0.4490 C   0  0  0  0  0  0  0  0  0  0  0  0
   -3.9340   -0.1380    0.5510 O   0  0  0  0  0  0  0  0  0  0  0  0
   -4.2480    0.1350    1.7620 C   0  0  0  0  0  0  0  0  0  0  0  0
   -3.7750   -0.8490    2.5800 C   0  0  0  0  0  0  0  0  0  0  0  0
   -3.1380   -1.7450    1.7230 C   0  0  0  0  0  0  0  0  0  0  0  0
   -2.2440   -3.1210    2.3400 Cl  0  0  0  0  0  0  0  0  0  0  0  0
    2.1850   -0.3290    0.4110 C   0  0  0  0  0  0  0  0  0  0  0  0
    2.7650   -0.4870   -1.2740 S   0  0  0  0  0  0  0  0  0  0  0  0
    3.4320   -2.1620   -1.5830 C   0  0  0  0  0  0  0  0  0  0  0  0
  1  2  1  0
  2  3  1  0
  3  4  1  0
  4  5  2  0
  4  6  1  0
  6  7  1  0
  6 34  1  0
  7  8  2  0
  8  9  1  0
  9 10  1  0
  9 34  2  0
 10 11  2  0
 10 12  1  0
 12 13  1  0
 12 22  1  0
 13 14  1  0
 14 15  2  0
 14 20  1  0
 15 16  1  0
 16 17  1  0
 16 18  2  0
 18 19  1  0
 19 20  2  0
 20 21  1  0
 21 22  1  0
 22 23  1  1
 23 24  2  3
 23 28  1  0
 24 25  1  0
 25 26  2  0
 25 27  1  0
 28 29  1  0
 28 32  2  0
 29 30  1  0
 30 31  2  0
 31 32  1  0
 32 33  1  0
 34 35  1  0
 35 36  1  0
M  END
