
     RDKit          3D

 36 39  0  0  0  0  0  0  0  0999 V2000
   -2.4460    4.5800   -2.7510 C   0  0  0  0  0  0  0  0  0  0  0  0
   -2.0730    3.8670   -1.4920 C   0  0  0  0  0  0  0  0  0  0  0  0
   -3.0720    2.8830   -1.0950 N   0  0  0  0  0  0  0  0  0  0  0  0
   -2.5470    2.1170    0.3700 S   0  0  1  0  0  0  0  0  0  0  0  0
   -2.3110    3.2580    1.3550 O   0  0  0  0  0  0  0  0  0  0  0  0
   -3.6240    1.2850    0.9460 O   0  0  0  0  0  0  0  0  0  0  0  0
   -1.0330    1.2710    0.1410 C   0  0  0  0  0  0  0  0  0  0  0  0
    0.0700    2.0110    0.2110 C   0  0  0  0  0  0  0  0  0  0  0  0
    1.3920    1.3280    0.0430 C   0  0  0  0  0  0  0  0  0  0  0  0
    2.4220    1.8260    0.6800 C   0  0  0  0  0  0  0  0  0  0  0  0
    2.3270    2.9860    1.5210 N   0  0  0  0  0  0  0  0  0  0  0  0
    3.4820    3.4810    2.1870 C   0  0  0  0  0  0  0  0  0  0  0  0
    3.3500    4.6840    3.0510 C   0  0  0  0  0  0  0  0  0  0  0  0
    4.6000    2.8850    2.0300 O   0  0  0  0  0  0  0  0  0  0  0  0
    1.3910    0.1680   -0.7890 C   0  0  1  0  0  0  0  0  0  0  0  0
    2.5810   -0.6120   -1.0540 C   0  0  0  0  0  0  0  0  0  0  0  0
    2.5250   -1.9210   -1.3690 C   0  0  0  0  0  0  0  0  0  0  0  0
    3.9050   -2.4460   -1.6000 C   0  0  0  0  0  0  0  0  0  0  0  0
    4.5550   -1.1740   -2.1620 C   0  0  0  0  0  0  0  0  0  0  0  0
    4.0120   -0.2030   -1.0800 C   0  0  0  0  0  0  0  0  0  0  0  0
    1.3340   -2.6840   -1.3760 N   0  0  0  0  0  0  0  0  0  0  0  0
    1.3150   -4.0960   -1.7450 C   0  0  0  0  0  0  0  0  0  0  0  0
    1.5310   -4.9460   -0.5090 C   0  0  0  0  0  0  0  0  0  0  0  0
    0.1040   -2.0780   -1.0170 C   0  0  0  0  0  0  0  0  0  0  0  0
   -0.9920   -2.7040   -1.0180 O   0  0  0  0  0  0  0  0  0  0  0  0
    0.1470   -0.6790   -0.6370 C   0  0  0  0  0  0  0  0  0  0  0  0
   -1.0000   -0.1190   -0.2790 C   0  0  0  0  0  0  0  0  0  0  0  0
   -2.2280   -0.8720   -0.2970 N   0  0  0  0  0  0  0  0  0  0  0  0
   -2.7330   -1.4920    0.8760 C   0  0  0  0  0  0  0  0  0  0  0  0
   -1.9180   -1.6920    1.9150 C   0  0  0  0  0  0  0  0  0  0  0  0
   -2.3720   -2.3180    3.1330 C   0  0  0  0  0  0  0  0  0  0  0  0
   -3.6360   -2.7250    3.2640 C   0  0  0  0  0  0  0  0  0  0  0  0
   -4.6460   -2.5750    2.2060 C   0  0  0  0  0  0  0  0  0  0  0  0
   -4.1220   -1.9070    0.9740 C   0  0  0  0  0  0  0  0  0  0  0  0
   -4.9940   -1.7170    0.0040 C   0  0  0  0  0  0  0  0  0  0  0  0
   -6.2920   -2.1070    0.1010 F   0  0  0  0  0  0  0  0  0  0  0  0
  1  2  1  0
  2  3  1  0
  4  3  1  6
  4  5  2  0
  4  6  2  0
  4  7  1  0
  7  8  2  0
  7 27  1  0
  8  9  1  0
  9 10  2  3
 15  9  1  1
 10 11  1  0
 11 12  1  0
 12 13  1  0
 12 14  2  0
 15 16  1  0
 15 26  1  0
 16 17  2  0
 16 20  1  0
 17 18  1  0
 17 21  1  0
 18 19  1  0
 19 20  1  0
 21 22  1  0
 21 24  1  0
 22 23  1  0
 24 25  2  0
 24 26  1  0
 26 27  2  0
 27 28  1  0
 28 29  1  0
 29 30  2  0
 29 34  1  0
 30 31  1  0
 31 32  2  0
 32 33  1  0
 33 34  1  0
 34 35  2  3
 35 36  1  0
M  END
