
     RDKit          3D

 36 39  0  0  0  0  0  0  0  0999 V2000
   10.4310   -2.8940    3.0080 C   0  0  0  0  0  0  0  0  0  0  0  0
    8.8060   -2.2130    2.7190 S   0  0  1  0  0  0  0  0  0  0  0  0
    8.2420   -1.4680    3.9300 N   0  0  0  0  0  0  0  0  0  0  0  0
    9.0210   -1.1770    1.6220 O   0  0  0  0  0  0  0  0  0  0  0  0
    7.6980   -3.4570    2.1020 C   0  0  0  0  0  0  0  0  0  0  0  0
    6.3550   -2.8690    1.8970 C   0  0  2  0  0  0  0  0  0  0  0  0
    5.3790   -3.8110    1.3950 N   0  0  0  0  0  0  0  0  0  0  0  0
    4.0570   -3.3530    1.1610 C   0  0  0  0  0  0  0  0  0  0  0  0
    3.7580   -2.0670    0.8640 C   0  0  0  0  0  0  0  0  0  0  0  0
    2.3880   -1.6450    0.6330 C   0  0  0  0  0  0  0  0  0  0  0  0
    1.3290   -2.5160    0.5750 C   0  0  0  0  0  0  0  0  0  0  0  0
    0.0490   -2.0380    0.3960 C   0  0  0  0  0  0  0  0  0  0  0  0
   -0.2300   -0.6990    0.2680 C   0  0  0  0  0  0  0  0  0  0  0  0
   -1.5790   -0.1810    0.0100 C   0  0  0  0  0  0  0  0  0  0  0  0
   -2.2820    0.5990    0.7670 C   0  0  0  0  0  0  0  0  0  0  0  0
   -1.7320    1.0720    2.0890 C   0  0  0  0  0  0  0  0  0  0  0  0
   -0.5330    0.5910    2.4420 F   0  0  0  0  0  0  0  0  0  0  0  0
   -3.5960    1.0720    0.4470 C   0  0  0  0  0  0  0  0  0  0  0  0
   -4.0870    1.8840    1.3760 O   0  0  0  0  0  0  0  0  0  0  0  0
   -4.4010    0.8390   -0.6210 N   0  0  0  0  0  0  0  0  0  0  0  0
   -4.2260   -0.0230   -1.7410 C   0  0  0  0  0  0  0  0  0  0  0  0
   -5.5410   -0.0930   -2.5520 C   0  0  0  0  0  0  0  0  0  0  0  0
   -5.9940    1.1110   -2.9840 O   0  0  0  0  0  0  0  0  0  0  0  0
   -5.6520    2.1420   -2.1460 C   0  0  1  0  0  0  0  0  0  0  0  0
   -6.4790    3.3420   -2.3910 C   0  0  0  0  0  0  0  0  0  0  0  0
   -7.0040    4.1320   -1.3970 C   0  0  0  0  0  0  0  0  0  0  0  0
   -7.7690    5.2630   -1.7270 C   0  0  0  0  0  0  0  0  0  0  0  0
   -8.0220    5.6190   -3.0320 C   0  0  0  0  0  0  0  0  0  0  0  0
   -7.4940    4.8220   -4.0230 C   0  0  0  0  0  0  0  0  0  0  0  0
   -6.7450    3.7150   -3.7120 C   0  0  0  0  0  0  0  0  0  0  0  0
   -5.7060    1.6200   -0.7330 C   0  0  0  0  0  0  0  0  0  0  0  0
    0.8130    0.1870    0.3210 C   0  0  0  0  0  0  0  0  0  0  0  0
    2.1010   -0.3100    0.5040 C   0  0  0  0  0  0  0  0  0  0  0  0
    4.9320   -1.2140    0.7800 C   0  0  0  0  0  0  0  0  0  0  0  0
    4.8120    0.0060    0.5060 O   0  0  0  0  0  0  0  0  0  0  0  0
    6.2770   -1.7400    1.0060 N   0  0  0  0  0  0  0  0  0  0  0  0
  2  1  1  1
  2  3  2  0
  2  4  2  0
  2  5  1  0
  6  5  1  6
  6  7  1  0
  6 36  1  0
  7  8  1  0
  8  9  2  0
  9 10  1  0
  9 34  1  0
 10 11  2  0
 10 33  1  0
 11 12  1  0
 12 13  2  0
 13 14  1  0
 13 32  1  0
 14 15  2  3
 15 16  1  0
 15 18  1  0
 16 17  1  0
 18 19  2  0
 18 20  1  0
 20 21  1  0
 20 31  1  0
 21 22  1  0
 22 23  1  0
 23 24  1  0
 24 25  1  1
 24 31  1  0
 25 26  2  0
 25 30  1  0
 26 27  1  0
 27 28  2  0
 28 29  1  0
 29 30  2  0
 32 33  2  0
 34 35  2  0
 34 36  1  0
M  END
