
     RDKit          3D

 36 40  0  0  0  0  0  0  0  0999 V2000
   -4.8000   -1.7170    1.1720 C   0  0  0  0  0  0  0  0  0  0  0  0
   -3.8250   -2.8090    0.9910 C   0  0  0  0  0  0  0  0  0  0  0  0
   -4.0600   -4.1160    1.1820 N   0  0  0  0  0  0  0  0  0  0  0  0
   -2.9500   -4.7910    0.9230 N   0  0  0  0  0  0  0  0  0  0  0  0
   -1.9900   -3.9270    0.5620 C   0  0  0  0  0  0  0  0  0  0  0  0
   -0.5980   -4.2940    0.1910 C   0  0  0  0  0  0  0  0  0  0  0  0
   -2.5220   -2.6370    0.5950 C   0  0  0  0  0  0  0  0  0  0  0  0
   -1.7870   -1.4790    0.2720 N   0  0  0  0  0  0  0  0  0  0  0  0
   -1.6990   -0.9300   -1.0320 C   0  0  0  0  0  0  0  0  0  0  0  0
   -2.3310   -1.5420   -1.9380 O   0  0  0  0  0  0  0  0  0  0  0  0
   -0.9360    0.2800   -1.3970 C   0  0  2  0  0  0  0  0  0  0  0  0
   -0.0190   -0.0570   -2.5650 C   0  0  0  0  0  0  0  0  0  0  0  0
    1.6430    0.1220   -1.8640 S   0  0  0  0  0  0  0  0  0  0  0  0
    1.0690    0.2340   -0.1300 C   0  0  1  0  0  0  0  0  0  0  0  0
    2.1060    1.0260    0.6000 C   0  0  0  0  0  0  0  0  0  0  0  0
    3.4460    0.3150    0.4960 C   0  0  0  0  0  0  0  0  0  0  0  0
    3.8170   -0.6100    1.4420 C   0  0  0  0  0  0  0  0  0  0  0  0
    5.0570   -1.2510    1.3230 C   0  0  0  0  0  0  0  0  0  0  0  0
    5.9040   -0.9790    0.2920 C   0  0  0  0  0  0  0  0  0  0  0  0
    7.2110   -1.6890    0.2130 C   0  0  2  0  0  0  0  0  0  0  0  0
    8.3790   -0.7590    0.1830 C   0  0  0  0  0  0  0  0  0  0  0  0
    7.2100   -2.5080   -1.0670 C   0  0  0  0  0  0  0  0  0  0  0  0
    5.5300   -0.0510   -0.6560 C   0  0  0  0  0  0  0  0  0  0  0  0
    4.3040    0.5860   -0.5430 C   0  0  0  0  0  0  0  0  0  0  0  0
   -0.2120    0.9040   -0.3420 N   0  0  0  0  0  0  0  0  0  0  0  0
   -0.5620    2.0420    0.4010 C   0  0  0  0  0  0  0  0  0  0  0  0
    0.3160    2.5310    1.2290 O   0  0  0  0  0  0  0  0  0  0  0  0
   -1.8090    2.7790    0.3720 C   0  0  0  0  0  0  0  0  0  0  0  0
   -1.8350    4.0860    0.9200 C   0  0  0  0  0  0  0  0  0  0  0  0
   -2.9690    4.8430    1.0040 C   0  0  0  0  0  0  0  0  0  0  0  0
   -4.1750    4.3450    0.5420 C   0  0  0  0  0  0  0  0  0  0  0  0
   -4.1980    3.0850    0.0050 C   0  0  0  0  0  0  0  0  0  0  0  0
   -3.0140    2.3280   -0.0670 C   0  0  0  0  0  0  0  0  0  0  0  0
   -5.5630    2.7240   -0.4330 C   0  0  0  0  0  0  0  0  0  0  0  0
   -6.4320    3.8070    0.1540 C   0  0  0  0  0  0  0  0  0  0  0  0
   -5.5280    4.9440    0.5120 C   0  0  0  0  0  0  0  0  0  0  0  0
  1  2  1  0
  2  3  1  0
  2  7  2  0
  3  4  1  0
  4  5  2  0
  5  6  1  0
  5  7  1  0
  7  8  1  0
  8  9  1  0
  9 10  2  0
 11  9  1  1
 11 12  1  0
 11 25  1  0
 12 13  1  0
 13 14  1  0
 14 15  1  1
 14 25  1  0
 15 16  1  0
 16 17  2  0
 16 24  1  0
 17 18  1  0
 18 19  2  0
 19 20  1  0
 19 23  1  0
 20 21  1  6
 20 22  1  0
 23 24  2  0
 25 26  1  0
 26 27  2  0
 26 28  1  0
 28 29  2  0
 28 33  1  0
 29 30  1  0
 30 31  2  0
 31 32  1  0
 31 36  1  0
 32 33  2  0
 32 34  1  0
 34 35  1  0
 35 36  1  0
M  CHG  1   4   1
M  END
