
     RDKit          3D

 36 39  0  0  0  0  0  0  0  0999 V2000
   -9.3020   -2.3030    0.0490 C   0  0  0  0  0  0  0  0  0  0  0  0
   -9.1750   -1.0180    0.8740 C   0  0  0  0  0  0  0  0  0  0  0  0
   -7.8290   -0.0910    0.1310 S   0  0  0  0  0  0  0  0  0  0  0  0
   -8.0590    1.3780   -0.5220 C   0  0  0  0  0  0  0  0  0  0  0  0
   -9.3990    2.0150   -0.5300 C   0  0  0  0  0  0  0  0  0  0  0  0
   -6.9160    2.0660   -1.1050 C   0  0  0  0  0  0  0  0  0  0  0  0
   -7.0250    3.2160   -1.6330 O   0  0  0  0  0  0  0  0  0  0  0  0
   -5.6510    1.4260   -1.0790 N   0  0  0  0  0  0  0  0  0  0  0  0
   -5.3030    0.5980    0.0580 C   0  0  2  0  0  0  0  0  0  0  0  0
   -3.8330    0.4190    0.0380 C   0  0  0  0  0  0  0  0  0  0  0  0
   -3.0730    1.5570   -0.1500 C   0  0  0  0  0  0  0  0  0  0  0  0
   -1.7080    1.5280   -0.1930 C   0  0  0  0  0  0  0  0  0  0  0  0
   -1.0040    0.3200   -0.0440 C   0  0  0  0  0  0  0  0  0  0  0  0
    0.4090    0.3390   -0.0780 N   0  0  0  0  0  0  0  0  0  0  0  0
    1.2700   -0.7660   -0.1900 C   0  0  0  0  0  0  0  0  0  0  0  0
    0.8040   -1.9170   -0.2790 O   0  0  0  0  0  0  0  0  0  0  0  0
    2.7610   -0.6330   -0.2080 C   0  0  0  0  0  0  0  0  0  0  0  0
    3.4120   -1.8990   -0.3390 N   0  0  0  0  0  0  0  0  0  0  0  0
    3.2500   -2.7360    0.8110 C   0  0  0  0  0  0  0  0  0  0  0  0
    4.4950   -3.5860    1.0060 C   0  0  0  0  0  0  0  0  0  0  0  0
    5.6030   -2.8090    1.3400 O   0  0  0  0  0  0  0  0  0  0  0  0
    5.4350   -1.5040    0.8800 C   0  0  1  0  0  0  0  0  0  0  0  0
    6.7230   -0.7540    0.9070 C   0  0  0  0  0  0  0  0  0  0  0  0
    7.7270   -1.3680    1.3140 O   0  0  0  0  0  0  0  0  0  0  0  0
    6.8340    0.5840    0.4990 N   0  0  0  0  0  0  0  0  0  0  0  0
    7.9990    1.3800    0.4870 C   0  0  0  0  0  0  0  0  0  0  0  0
    9.2520    0.9920    0.8720 C   0  0  0  0  0  0  0  0  0  0  0  0
   10.3440    1.8790    0.8170 C   0  0  0  0  0  0  0  0  0  0  0  0
   10.1770    3.1710    0.3710 C   0  0  0  0  0  0  0  0  0  0  0  0
    8.9110    3.5680   -0.0200 C   0  0  0  0  0  0  0  0  0  0  0  0
    7.8640    2.6990    0.0380 C   0  0  0  0  0  0  0  0  0  0  0  0
    6.6490    3.1700   -0.3660 F   0  0  0  0  0  0  0  0  0  0  0  0
    4.8460   -1.6090   -0.5060 C   0  0  0  0  0  0  0  0  0  0  0  0
   -1.7750   -0.7910    0.1400 C   0  0  0  0  0  0  0  0  0  0  0  0
   -3.1690   -0.7540    0.1820 C   0  0  0  0  0  0  0  0  0  0  0  0
   -6.0800   -0.6790   -0.0280 C   0  0  0  0  0  0  0  0  0  0  0  0
  1  2  1  0
  3  2  1  6
  3  4  2  0
  3 36  1  0
  4  5  1  0
  4  6  1  0
  6  7  2  0
  6  8  1  0
  8  9  1  0
  9 10  1  6
  9 36  1  0
 10 11  2  0
 10 35  1  0
 11 12  1  0
 12 13  2  0
 13 14  1  0
 13 34  1  0
 14 15  1  0
 15 16  2  0
 15 17  1  0
 17 18  1  0
 18 19  1  0
 18 33  1  0
 19 20  1  0
 20 21  1  0
 21 22  1  0
 22 23  1  6
 22 33  1  0
 23 24  2  0
 23 25  1  0
 25 26  1  0
 26 27  2  0
 26 31  1  0
 27 28  1  0
 28 29  2  0
 29 30  1  0
 30 31  2  0
 31 32  1  0
 34 35  2  0
M  END
