
     RDKit          3D

 36 39  0  0  0  0  0  0  0  0999 V2000
   -1.7070    3.5780   -3.0380 C   0  0  0  0  0  0  0  0  0  0  0  0
   -3.2370    2.6540   -3.1610 S   0  0  0  0  0  0  0  0  0  0  0  0
   -3.0840    1.0290   -2.3060 C   0  0  2  0  0  0  0  0  0  0  0  0
   -4.3330    0.2880   -2.4150 C   0  0  0  0  0  0  0  0  0  0  0  0
   -4.9380   -0.4210   -1.2810 C   0  0  0  0  0  0  0  0  0  0  0  0
   -5.3190    0.3450   -0.0810 C   0  0  0  0  0  0  0  0  0  0  0  0
   -5.0920   -0.3070    1.2190 C   0  0  0  0  0  0  0  0  0  0  0  0
   -5.5340    0.3380    2.2370 O   0  0  0  0  0  0  0  0  0  0  0  0
   -4.4620   -1.5360    1.5300 N   0  0  0  0  0  0  0  0  0  0  0  0
   -5.1410   -2.5000    2.4280 C   0  0  0  0  0  0  0  0  0  0  0  0
   -4.7420   -2.2640    3.8660 C   0  0  0  0  0  0  0  0  0  0  0  0
   -5.3810   -3.1670    4.6900 F   0  0  0  0  0  0  0  0  0  0  0  0
   -3.1890   -1.9620    1.0670 C   0  0  0  0  0  0  0  0  0  0  0  0
   -3.0750   -3.1120    0.5400 O   0  0  0  0  0  0  0  0  0  0  0  0
   -1.9050   -1.1810    1.1300 C   0  0  0  0  0  0  0  0  0  0  0  0
   -1.3760   -1.0720   -0.2430 C   0  0  0  0  0  0  0  0  0  0  0  0
   -0.4060    0.0460   -0.4420 N   0  0  0  0  0  0  0  0  0  0  0  0
    0.8950   -0.2420   -0.0870 C   0  0  0  0  0  0  0  0  0  0  0  0
    0.9260   -1.5010    0.4440 O   0  0  0  0  0  0  0  0  0  0  0  0
    2.1870    0.3730   -0.1130 C   0  0  0  0  0  0  0  0  0  0  0  0
    2.6690    1.5110   -0.5160 C   0  0  0  0  0  0  0  0  0  0  0  0
    1.9570    2.6440   -1.1400 C   0  0  0  0  0  0  0  0  0  0  0  0
    4.1190    1.5970   -0.3070 N   0  0  0  0  0  0  0  0  0  0  0  0
    4.5400    0.2280   -0.3540 C   0  0  1  0  0  0  0  0  0  0  0  0
    5.8470   -0.1530    0.1170 C   0  0  0  0  0  0  0  0  0  0  0  0
    6.9680    0.3790   -0.3760 C   0  0  0  0  0  0  0  0  0  0  0  0
    8.3280    0.0740    0.0210 C   0  0  0  0  0  0  0  0  0  0  0  0
    8.4830   -1.0430    0.9770 C   0  0  0  0  0  0  0  0  0  0  0  0
    9.6510   -1.4720    1.2920 O   0  0  0  0  0  0  0  0  0  0  0  0
    7.3350   -1.6350    1.5410 N   0  0  0  0  0  0  0  0  0  0  0  0
    6.0450   -1.1950    1.1150 C   0  0  0  0  0  0  0  0  0  0  0  0
    4.9620   -1.7130    1.6970 C   0  0  0  0  0  0  0  0  0  0  0  0
    3.6390   -1.2420    1.3400 C   0  0  0  0  0  0  0  0  0  0  0  0
    3.3970   -0.3270    0.4600 C   0  0  0  0  0  0  0  0  0  0  0  0
   -0.9400    1.2810   -0.9570 C   0  0  0  0  0  0  0  0  0  0  0  0
   -2.4750    1.2610   -0.9850 C   0  0  0  0  0  0  0  0  0  0  0  0
  1  2  1  0
  3  2  1  1
  3  4  1  0
  3 36  1  0
  4  5  1  0
  5  6  1  0
  6  7  1  0
  7  8  2  0
  7  9  1  0
  9 10  1  0
  9 13  1  0
 10 11  1  0
 11 12  1  0
 13 14  2  0
 13 15  1  0
 15 16  1  0
 16 17  1  0
 17 18  1  0
 17 35  1  0
 18 19  2  0
 18 20  1  0
 20 21  2  0
 20 34  1  0
 21 22  1  0
 21 23  1  0
 24 23  1  1
 24 25  1  0
 24 34  1  0
 25 26  2  0
 25 31  1  0
 26 27  1  0
 27 28  1  0
 28 29  2  0
 28 30  1  0
 30 31  1  0
 31 32  2  0
 32 33  1  0
 33 34  2  0
 35 36  1  0
M  END
