
     RDKit          3D

 36 39  0  0  0  0  0  0  0  0999 V2000
    9.6890    1.5330    0.2890 C   0  0  0  0  0  0  0  0  0  0  0  0
    8.5500    0.7830    0.1740 O   0  0  0  0  0  0  0  0  0  0  0  0
    7.6530    0.1660    0.1090 C   0  0  0  0  0  0  0  0  0  0  0  0
    6.4110   -0.7420    0.0850 C   0  0  0  0  0  0  0  0  0  0  0  0
    5.3340   -0.7430   -0.8820 C   0  0  0  0  0  0  0  0  0  0  0  0
    4.3260   -1.7800   -0.6040 N   0  0  0  0  0  0  0  0  0  0  0  0
    3.4530   -1.6700    0.5590 C   0  0  0  0  0  0  0  0  0  0  0  0
    3.9170   -2.0110    1.8370 C   0  0  0  0  0  0  0  0  0  0  0  0
    5.0920   -2.3390    2.2500 C   0  0  0  0  0  0  0  0  0  0  0  0
    6.3720   -2.6710    2.7070 N   0  0  0  0  0  0  0  0  0  0  0  0
    2.9480   -1.5590    2.8760 C   0  0  0  0  0  0  0  0  0  0  0  0
    1.8310   -0.9290    2.7190 N   0  0  0  0  0  0  0  0  0  0  0  0
    1.3960   -0.6210    1.4220 C   0  0  0  0  0  0  0  0  0  0  0  0
    0.1420   -0.0950    1.2200 C   0  0  0  0  0  0  0  0  0  0  0  0
   -0.4050    0.0260   -0.0100 C   0  0  0  0  0  0  0  0  0  0  0  0
   -1.4560    0.5540   -0.5820 O   0  0  0  0  0  0  0  0  0  0  0  0
   -2.4910    1.1400   -0.9630 C   0  0  0  0  0  0  0  0  0  0  0  0
   -3.8290    0.8020   -0.3280 C   0  0  0  0  0  0  0  0  0  0  0  0
   -3.8270    1.0880    1.1030 C   0  0  0  0  0  0  0  0  0  0  0  0
   -5.1390    0.8650    1.7270 N   0  0  0  0  0  0  0  0  0  0  0  0
   -5.4830   -0.5460    1.5840 C   0  0  0  0  0  0  0  0  0  0  0  0
   -6.5340   -0.7590    0.4960 C   0  0  0  0  0  0  0  0  0  0  0  0
   -7.7270   -0.0230    0.8590 N   0  0  0  0  0  0  0  0  0  0  0  0
   -8.6590   -0.2350   -0.2380 C   0  0  0  0  0  0  0  0  0  0  0  0
   -7.4890    1.3580    1.1030 C   0  0  0  0  0  0  0  0  0  0  0  0
   -6.0710    1.7930    1.2340 C   0  0  0  0  0  0  0  0  0  0  0  0
    0.4980   -0.5170   -1.0720 C   0  0  0  0  0  0  0  0  0  0  0  0
   -0.0920   -0.4930   -2.2770 O   0  0  0  0  0  0  0  0  0  0  0  0
    0.4060   -1.0270   -3.4560 C   0  0  0  0  0  0  0  0  0  0  0  0
    1.7060   -0.9930   -0.8350 C   0  0  0  0  0  0  0  0  0  0  0  0
    2.2770   -1.0580    0.4730 C   0  0  0  0  0  0  0  0  0  0  0  0
    5.2040   -0.0040   -1.9240 C   0  0  0  0  0  0  0  0  0  0  0  0
    3.9650    0.0350   -3.1620 Cl  0  0  0  0  0  0  0  0  0  0  0  0
    6.2700    0.9210   -2.0830 C   0  0  0  0  0  0  0  0  0  0  0  0
    7.2300    0.9750   -1.2720 C   0  0  0  0  0  0  0  0  0  0  0  0
    8.4570    2.2630   -1.5810 Cl  0  0  0  0  0  0  0  0  0  0  0  0
  1  2  1  0
  2  3  1  0
  3  4  2  0
  3 35  1  0
  4  5  1  0
  5  6  1  0
  5 32  2  0
  6  7  1  0
  7  8  2  0
  7 31  1  0
  8  9  1  0
  8 11  1  0
  9 10  3  0
 11 12  2  0
 12 13  1  0
 13 14  2  0
 13 31  1  0
 14 15  1  0
 15 16  1  0
 15 27  2  0
 16 17  1  0
 17 18  1  0
 18 19  1  0
 19 20  1  0
 20 21  1  0
 20 26  1  0
 21 22  1  0
 22 23  1  0
 23 24  1  0
 23 25  1  0
 25 26  1  0
 27 28  1  0
 27 30  1  0
 28 29  1  0
 30 31  2  0
 32 33  1  0
 32 34  1  0
 34 35  2  0
 35 36  1  0
M  END
