
     RDKit          3D

 36 39  0  0  0  0  0  0  0  0999 V2000
   -7.3830    2.1370   -0.2380 C   0  0  0  0  0  0  0  0  0  0  0  0
   -6.7290    0.9810    0.3940 C   0  0  0  0  0  0  0  0  0  0  0  0
   -5.5590    1.0890    0.9690 C   0  0  0  0  0  0  0  0  0  0  0  0
   -4.7680    2.3200    1.0620 C   0  0  0  0  0  0  0  0  0  0  0  0
   -3.4570    2.1390    0.3810 N   0  0  0  0  0  0  0  0  0  0  0  0
   -3.3880    2.4770   -1.0110 C   0  0  0  0  0  0  0  0  0  0  0  0
   -2.4080    1.6580    1.1510 C   0  0  0  0  0  0  0  0  0  0  0  0
   -2.6600    1.4010    2.4160 O   0  0  0  0  0  0  0  0  0  0  0  0
   -1.0650    1.4050    0.7160 C   0  0  0  0  0  0  0  0  0  0  0  0
   -0.5060    1.5530   -0.4510 C   0  0  0  0  0  0  0  0  0  0  0  0
    0.9370    1.2040   -0.6120 C   0  0  0  0  0  0  0  0  0  0  0  0
    1.6920    1.2910   -1.7490 C   0  0  0  0  0  0  0  0  0  0  0  0
    2.9640    0.8700   -1.4520 C   0  0  0  0  0  0  0  0  0  0  0  0
    2.9200    0.5370   -0.1070 C   0  0  0  0  0  0  0  0  0  0  0  0
    4.0680    0.0260    0.6730 C   0  0  2  0  0  0  0  0  0  0  0  0
    4.9860    1.1540    1.0180 C   0  0  0  0  0  0  0  0  0  0  0  0
    4.7150   -0.9950   -0.1470 N   0  0  0  0  0  0  0  0  0  0  0  0
    5.6570   -1.7700    0.6030 C   0  0  1  0  0  0  0  0  0  0  0  0
    5.6320   -3.1900    0.0980 C   0  0  0  0  0  0  0  0  0  0  0  0
    5.5920   -3.2260   -1.3990 C   0  0  0  0  0  0  0  0  0  0  0  0
    6.7940   -2.0760   -2.1010 S   0  0  0  0  0  0  0  0  0  0  0  0
    7.6260   -1.2320   -0.7410 C   0  0  0  0  0  0  0  0  0  0  0  0
    8.8730   -0.6790   -0.9290 C   0  0  0  0  0  0  0  0  0  0  0  0
    9.4800   -0.0460    0.1180 C   0  0  0  0  0  0  0  0  0  0  0  0
   10.8140    0.5720    0.0000 C   0  0  0  0  0  0  0  0  0  0  0  0
    8.8100    0.0100    1.3240 C   0  0  0  0  0  0  0  0  0  0  0  0
    7.5930   -0.5270    1.5170 N   0  0  0  0  0  0  0  0  0  0  0  0
    7.0030   -1.1480    0.4790 C   0  0  0  0  0  0  0  0  0  0  0  0
    1.7020    0.7540    0.3350 O   0  0  0  0  0  0  0  0  0  0  0  0
   -7.3940   -0.3270    0.3820 C   0  0  0  0  0  0  0  0  0  0  0  0
   -6.8620   -1.5170    0.8930 C   0  0  0  0  0  0  0  0  0  0  0  0
   -7.7170   -2.5330    0.7440 N   0  0  0  0  0  0  0  0  0  0  0  0
   -8.7880   -2.0410    0.1530 C   0  0  0  0  0  0  0  0  0  0  0  0
  -10.0080   -2.8110   -0.2170 C   0  0  0  0  0  0  0  0  0  0  0  0
   -8.6380   -0.6650   -0.0960 C   0  0  0  0  0  0  0  0  0  0  0  0
   -9.6350    0.2120   -0.7300 C   0  0  0  0  0  0  0  0  0  0  0  0
  1  2  1  0
  2  3  2  3
  2 30  1  0
  3  4  1  0
  4  5  1  0
  5  6  1  0
  5  7  1  0
  7  8  2  0
  7  9  1  0
  9 10  2  3
 10 11  1  0
 11 12  2  0
 11 29  1  0
 12 13  1  0
 13 14  2  0
 14 15  1  0
 14 29  1  0
 15 16  1  6
 15 17  1  0
 18 17  1  6
 18 19  1  0
 18 28  1  0
 19 20  1  0
 20 21  1  0
 21 22  1  0
 22 23  2  0
 22 28  1  0
 23 24  1  0
 24 25  1  0
 24 26  2  0
 26 27  1  0
 27 28  2  0
 30 31  2  0
 30 35  1  0
 31 32  1  0
 32 33  1  0
 33 34  1  0
 33 35  2  0
 35 36  1  0
M  CHG  1  17   1
M  END
