
     RDKit          3D

 25 26  0  0  0  0  0  0  0  0999 V2000
   -3.2310    3.0090   -0.3900 C   0  0  0  0  0  0  0  0  0  0  0  0
   -2.2550    3.0560    0.6460 O   0  0  0  0  0  0  0  0  0  0  0  0
   -1.1090    2.2420    0.4210 C   0  0  0  0  0  0  0  0  0  0  0  0
   -0.2580    2.6460   -0.4810 C   0  0  0  0  0  0  0  0  0  0  0  0
    0.9990    1.9320   -0.8540 C   0  0  0  0  0  0  0  0  0  0  0  0
    1.2600    1.9740   -2.2840 N   0  0  0  0  0  0  0  0  0  0  0  0
    1.7410    1.3720   -0.1000 N   0  0  0  0  0  0  0  0  0  0  0  0
    2.4730    0.7900    0.8400 C   0  0  0  0  0  0  0  0  0  0  0  0
    3.0860    1.5330    2.0050 C   0  0  0  0  0  0  0  0  0  0  0  0
    2.7640   -0.5460    0.8800 C   0  0  0  0  0  0  0  0  0  0  0  0
    2.2180   -1.4190   -0.2140 C   0  0  1  0  0  0  0  0  0  0  0  0
    2.9200   -2.7160   -0.1710 C   0  0  0  0  0  0  0  0  0  0  0  0
    4.1570   -2.8480   -0.4130 O   0  0  0  0  0  0  0  0  0  0  0  0
    2.2130   -3.8560    0.1480 O   0  0  0  0  0  0  0  0  0  0  0  0
    0.8890   -1.6140    0.0960 O   0  0  0  0  0  0  0  0  0  0  0  0
    0.0140   -1.3720   -0.9610 C   0  0  0  0  0  0  0  0  0  0  0  0
   -1.2500   -0.7290   -0.5110 C   0  0  1  0  0  0  0  0  0  0  0  0
   -1.6560    0.2520   -1.3810 O   0  0  0  0  0  0  0  0  0  0  0  0
   -2.4010   -1.7280   -0.4250 C   0  0  0  0  0  0  0  0  0  0  0  0
   -2.7260   -2.3170   -1.6880 N   0  0  0  0  0  0  0  0  0  0  0  0
   -1.0800   -0.2040    0.8720 C   0  0  0  0  0  0  0  0  0  0  0  0
   -1.0250    1.0310    1.2450 C   0  0  0  0  0  0  0  0  0  0  0  0
   -0.8670    1.0350    2.6510 O   0  0  0  0  0  0  0  0  0  0  0  0
   -0.3790   -0.2240    3.0490 C   0  0  0  0  0  0  0  0  0  0  0  0
   -0.9510   -1.0230    2.0100 O   0  0  0  0  0  0  0  0  0  0  0  0
  1  2  1  0
  2  3  1  0
  3  4  2  0
  3 22  1  0
  4  5  1  0
  5  6  1  0
  5  7  2  0
  7  8  1  0
  8  9  1  0
  8 10  2  0
 10 11  1  0
 11 12  1  1
 11 15  1  0
 12 13  2  0
 12 14  1  0
 15 16  1  0
 16 17  1  0
 17 18  1  6
 17 19  1  0
 17 21  1  0
 19 20  1  0
 21 22  2  0
 21 25  1  0
 22 23  1  0
 23 24  1  0
 24 25  1  0
M  CHG  1  20   1
M  END
