
     RDKit          3D

 15 14  0  0  0  0  0  0  0  0999 V2000
   -1.9800    1.2000   -0.1080 C   0  0  0  0  0  0  0  0  0  0  0  0
   -2.3830   -0.0060    0.1720 C   0  0  0  0  0  0  0  0  0  0  0  0
   -1.6410   -1.2210   -0.0760 C   0  0  0  0  0  0  0  0  0  0  0  0
   -2.1600   -2.3780    0.2520 C   0  0  0  0  0  0  0  0  0  0  0  0
   -3.5240   -2.4340    0.8830 C   0  0  0  0  0  0  0  0  0  0  0  0
   -0.3100   -1.1750   -0.6850 C   0  0  2  0  0  0  0  0  0  0  0  0
    0.6930   -0.4120    0.1320 C   0  0  0  0  0  0  0  0  0  0  0  0
    0.7440   -0.6840    1.3550 O   0  0  0  0  0  0  0  0  0  0  0  0
    1.5350    0.5370   -0.3720 O   0  0  0  0  0  0  0  0  0  0  0  0
    2.4750    1.2460    0.4080 C   0  0  2  0  0  0  0  0  0  0  0  0
    2.2030    2.7220    0.4660 C   0  0  0  0  0  0  0  0  0  0  0  0
    3.8900    0.9440   -0.0350 C   0  0  0  0  0  0  0  0  0  0  0  0
   -0.3340   -0.6880   -2.0630 N   0  0  0  0  0  0  0  0  0  0  0  0
   -1.3890   -0.3720   -2.6290 O   0  0  0  0  0  0  0  0  0  0  0  0
    0.8390   -0.5810   -2.7480 O   0  0  0  0  0  0  0  0  0  0  0  0
  1  2  2  0
  2  3  1  0
  3  4  2  3
  6  3  1  1
  4  5  1  0
  6  7  1  0
  6 13  1  0
  7  8  2  0
  7  9  1  0
  9 10  1  0
 10 11  1  6
 10 12  1  0
 13 14  2  0
 13 15  1  0
M  CHG  2  13   1  15  -1
M  END
