
     RDKit          3D

 15 15  0  0  0  0  0  0  0  0999 V2000
    4.6070    0.8380   -0.0840 C   0  0  0  0  0  0  0  0  0  0  0  0
    3.3080    1.0910    0.6520 C   0  0  0  0  0  0  0  0  0  0  0  0
    2.5100   -0.1900    0.5420 C   0  0  0  0  0  0  0  0  0  0  0  0
    2.8190   -1.1580    1.2760 O   0  0  0  0  0  0  0  0  0  0  0  0
    1.4800   -0.2530   -0.3530 O   0  0  0  0  0  0  0  0  0  0  0  0
    0.6920   -1.4130   -0.5070 C   0  0  0  0  0  0  0  0  0  0  0  0
   -0.0550   -1.7990    0.7520 C   0  0  0  0  0  0  0  0  0  0  0  0
   -0.8990   -0.8200    1.1640 O   0  0  0  0  0  0  0  0  0  0  0  0
   -1.9930   -0.2000    0.6880 C   0  0  0  0  0  0  0  0  0  0  0  0
   -2.6140    0.8290    1.4130 C   0  0  0  0  0  0  0  0  0  0  0  0
   -3.7350    1.4760    0.9480 C   0  0  0  0  0  0  0  0  0  0  0  0
   -4.2640    1.1240   -0.2350 N   0  0  0  0  0  0  0  0  0  0  0  0
   -3.7140    0.1540   -0.9640 C   0  0  0  0  0  0  0  0  0  0  0  0
   -4.3010   -0.1690   -2.1780 O   0  0  0  0  0  0  0  0  0  0  0  0
   -2.5680   -0.5240   -0.5110 C   0  0  0  0  0  0  0  0  0  0  0  0
  1  2  1  0
  2  3  1  0
  3  4  2  0
  3  5  1  0
  5  6  1  0
  6  7  1  0
  7  8  1  0
  8  9  1  0
  9 10  2  0
  9 15  1  0
 10 11  1  0
 11 12  2  0
 12 13  1  0
 13 14  1  0
 13 15  2  0
M  CHG  2  12   1  14  -1
M  END
