
     RDKit          3D

 32 34  0  0  0  0  0  0  0  0999 V2000
    4.0520   -0.5770   -2.6780 C   0  0  0  0  0  0  0  0  0  0  0  0
    3.4300   -0.9330   -1.5000 O   0  0  0  0  0  0  0  0  0  0  0  0
    2.7080    0.1120   -0.9600 N   0  0  0  0  0  0  0  0  0  0  0  0
    2.8040    1.2900   -1.6380 N   0  0  0  0  0  0  0  0  0  0  0  0
    2.8250    2.4880   -1.2560 C   0  0  0  0  0  0  0  0  0  0  0  0
    2.7510    3.0140    0.0500 N   0  0  0  0  0  0  0  0  0  0  0  0
    2.0390    2.2110    1.4290 S   0  0  0  0  0  0  0  0  0  0  0  0
    1.2010    0.6590    0.9480 C   0  0  1  0  0  0  0  0  0  0  0  0
    0.8530    0.1000    2.1860 O   0  0  0  0  0  0  0  0  0  0  0  0
    1.8150   -0.1280    3.0380 N   0  0  0  0  0  0  0  0  0  0  0  0
   -0.0750    1.0130    0.1680 C   0  0  2  0  0  0  0  0  0  0  0  0
    0.2910    1.6050   -0.9980 F   0  0  0  0  0  0  0  0  0  0  0  0
   -0.6500    1.9710    1.0350 F   0  0  0  0  0  0  0  0  0  0  0  0
   -0.9700   -0.1390   -0.0640 C   0  0  2  0  0  0  0  0  0  0  0  0
   -0.2700   -1.4670    0.0000 C   0  0  0  0  0  0  0  0  0  0  0  0
    1.1850   -1.5340   -0.0300 C   0  0  0  0  0  0  0  0  0  0  0  0
    2.0110   -0.2940    0.2090 C   0  0  1  0  0  0  0  0  0  0  0  0
    3.1740   -0.7620    1.1490 C   0  0  0  0  0  0  0  0  0  0  0  0
   -1.8590   -0.1020   -1.2500 C   0  0  0  0  0  0  0  0  0  0  0  0
   -1.4340   -0.1670   -2.4470 C   0  0  0  0  0  0  0  0  0  0  0  0
   -0.1510   -0.2900   -3.0240 C   0  0  0  0  0  0  0  0  0  0  0  0
   -0.0530   -0.3070   -4.3160 O   0  0  0  0  0  0  0  0  0  0  0  0
   -3.3630   -0.0680   -1.2160 C   0  0  0  0  0  0  0  0  0  0  0  0
   -4.1950   -0.6400   -0.3460 C   0  0  0  0  0  0  0  0  0  0  0  0
   -5.5560   -0.4460   -0.5500 O   0  0  0  0  0  0  0  0  0  0  0  0
   -3.8570   -1.4690    0.8310 C   0  0  0  0  0  0  0  0  0  0  0  0
   -2.4840   -1.4700    1.1090 O   0  0  0  0  0  0  0  0  0  0  0  0
   -1.9860   -0.1290    1.1190 C   0  0  1  0  0  0  0  0  0  0  0  0
   -1.4720    0.0860    2.3350 O   0  0  0  0  0  0  0  0  0  0  0  0
   -2.3160    0.0990    3.3550 N   0  0  0  0  0  0  0  0  0  0  0  0
   -3.0690    0.6520    0.9110 O   0  0  0  0  0  0  0  0  0  0  0  0
   -3.0300    1.8850    0.6980 O   0  0  0  0  0  0  0  0  0  0  0  0
  1  2  1  0
  2  3  1  0
  3  4  1  0
  3 17  1  0
  4  5  2  0
  5  6  1  0
  6  7  1  0
  7  8  1  0
  8  9  1  1
  8 11  1  0
  8 17  1  0
  9 10  1  0
 11 12  1  6
 11 13  1  0
 11 14  1  0
 14 15  1  6
 14 19  1  0
 14 28  1  0
 15 16  1  0
 16 17  1  0
 17 18  1  1
 19 20  2  3
 19 23  1  0
 20 21  1  0
 21 22  2  0
 23 24  2  0
 24 25  1  0
 24 26  1  0
 26 27  1  0
 27 28  1  0
 28 29  1  1
 28 31  1  0
 29 30  1  0
 31 32  1  0
M  END
