
     RDKit          3D

 33 33  0  0  0  0  0  0  0  0999 V2000
   -7.1900   -1.8840   -1.5420 C   0  0  0  0  0  0  0  0  0  0  0  0
   -6.2590   -2.1990   -0.4170 C   0  0  0  0  0  0  0  0  0  0  0  0
   -5.5890   -0.9410    0.1440 C   0  0  0  0  0  0  0  0  0  0  0  0
   -6.6270    0.0150    0.6560 C   0  0  0  0  0  0  0  0  0  0  0  0
   -6.1290    1.2990    1.1990 C   0  0  1  0  0  0  0  0  0  0  0  0
   -7.4860    2.0030    1.6840 C   0  0  0  0  0  0  0  0  0  0  0  0
   -5.3330    1.2370    2.4460 C   0  0  0  0  0  0  0  0  0  0  0  0
   -4.1530    0.4540    2.4820 N   0  0  0  0  0  0  0  0  0  0  0  0
   -2.9820    0.5820    1.7120 C   0  0  0  0  0  0  0  0  0  0  0  0
   -2.9020    1.4850    0.8610 O   0  0  0  0  0  0  0  0  0  0  0  0
   -1.8210   -0.3780    1.9190 C   0  0  0  0  0  0  0  0  0  0  0  0
   -0.7180    0.0210    0.9960 C   0  0  0  0  0  0  0  0  0  0  0  0
    0.4780   -0.8700    1.1300 C   0  0  0  0  0  0  0  0  0  0  0  0
    0.3570   -1.8020    1.9530 O   0  0  0  0  0  0  0  0  0  0  0  0
    1.6460   -0.6920    0.4040 N   0  0  0  0  0  0  0  0  0  0  0  0
    2.7900   -1.5050    0.4910 C   0  0  0  0  0  0  0  0  0  0  0  0
    2.8030   -2.7610    1.0230 C   0  0  0  0  0  0  0  0  0  0  0  0
    3.9900   -3.4990    1.0980 C   0  0  0  0  0  0  0  0  0  0  0  0
    5.1810   -3.0090    0.6490 C   0  0  0  0  0  0  0  0  0  0  0  0
    6.4350   -3.8390    0.7490 C   0  0  0  0  0  0  0  0  0  0  0  0
    5.2040   -1.7240    0.0960 C   0  0  0  0  0  0  0  0  0  0  0  0
    6.4440   -1.2390   -0.3460 N   0  0  0  0  0  0  0  0  0  0  0  0
    6.7450    0.0110   -1.0050 C   0  0  1  0  0  0  0  0  0  0  0  0
    6.1240    0.1770   -2.3340 C   0  0  0  0  0  0  0  0  0  0  0  0
    6.5880   -0.9310   -3.2140 N   0  0  0  0  0  0  0  0  0  0  0  0
    6.6450    1.0950   -0.0080 C   0  0  0  0  0  0  0  0  0  0  0  0
    6.8870    2.4930   -0.4340 C   0  0  0  0  0  0  0  0  0  0  0  0
    5.9830    3.0310   -1.4080 N   0  0  0  0  0  0  0  0  0  0  0  0
    4.0370   -1.0150    0.0300 C   0  0  0  0  0  0  0  0  0  0  0  0
   -5.5970    2.2480    0.2070 C   0  0  0  0  0  0  0  0  0  0  0  0
   -5.1070    3.3540    0.6430 O   0  0  0  0  0  0  0  0  0  0  0  0
   -5.5790    2.0550   -1.1950 N   0  0  0  0  0  0  0  0  0  0  0  0
   -5.0260    3.0530   -2.1060 C   0  0  0  0  0  0  0  0  0  0  0  0
  1  2  1  0
  2  3  1  0
  3  4  1  0
  4  5  1  0
  5  6  1  1
  5  7  1  0
  5 30  1  0
  7  8  1  0
  8  9  1  0
  9 10  2  0
  9 11  1  0
 11 12  1  0
 12 13  1  0
 13 14  2  0
 13 15  1  0
 15 16  1  0
 16 17  2  0
 16 29  1  0
 17 18  1  0
 18 19  2  0
 19 20  1  0
 19 21  1  0
 21 22  1  0
 21 29  2  0
 22 23  1  0
 23 24  1  6
 23 26  1  0
 24 25  1  0
 26 27  1  0
 27 28  1  0
 30 31  2  0
 30 32  1  0
 32 33  1  0
M  CHG  2  25   1  28   1
M  END
