
     RDKit          3D

 32 33  0  0  0  0  0  0  0  0999 V2000
    7.5650    1.4400   -1.0870 C   0  0  0  0  0  0  0  0  0  0  0  0
    6.4050    0.6790   -0.7390 O   0  0  0  0  0  0  0  0  0  0  0  0
    5.9690    0.5770    0.5710 C   0  0  0  0  0  0  0  0  0  0  0  0
    6.6310    1.1810    1.4430 O   0  0  0  0  0  0  0  0  0  0  0  0
    4.7730   -0.2030    0.9780 C   0  0  2  0  0  0  0  0  0  0  0  0
    4.6060   -0.1190    2.4140 N   0  0  0  0  0  0  0  0  0  0  0  0
    4.9570   -1.6640    0.6230 C   0  0  0  0  0  0  0  0  0  0  0  0
    4.8500   -1.8570   -0.7530 O   0  0  0  0  0  0  0  0  0  0  0  0
    3.5420   -1.6740   -1.1990 C   0  0  0  0  0  0  0  0  0  0  0  0
    2.7480   -0.7580   -0.3340 C   0  0  0  0  0  0  0  0  0  0  0  0
    1.4020   -0.9180   -0.1910 C   0  0  0  0  0  0  0  0  0  0  0  0
    0.7860   -2.0200   -0.9230 C   0  0  0  0  0  0  0  0  0  0  0  0
    0.7360    0.0280    0.6530 C   0  0  0  0  0  0  0  0  0  0  0  0
   -0.7430    0.0820    0.7720 C   0  0  1  0  0  0  0  0  0  0  0  0
   -0.9330    1.1910    1.7080 F   0  0  0  0  0  0  0  0  0  0  0  0
   -1.4570    0.5170   -0.4650 C   0  0  0  0  0  0  0  0  0  0  0  0
   -2.8130    0.5320   -0.2710 O   0  0  0  0  0  0  0  0  0  0  0  0
   -3.5270    0.9190   -1.3230 N   0  0  0  0  0  0  0  0  0  0  0  0
   -4.7660   -0.3250   -1.5900 S   0  0  0  0  0  0  0  0  0  0  0  0
   -6.1820    0.6890   -0.9730 C   0  0  1  0  0  0  0  0  0  0  0  0
   -6.8600    1.3160   -2.0660 N   0  0  0  0  0  0  0  0  0  0  0  0
   -7.0530   -0.0960   -0.1530 N   0  0  0  0  0  0  0  0  0  0  0  0
   -6.9330   -1.5020    0.0390 C   0  0  0  0  0  0  0  0  0  0  0  0
   -5.9890   -2.0820   -0.5610 O   0  0  0  0  0  0  0  0  0  0  0  0
   -5.4230    1.6190   -0.2190 O   0  0  0  0  0  0  0  0  0  0  0  0
   -4.4220    2.0340   -1.0750 C   0  0  1  0  0  0  0  0  0  0  0  0
   -3.8030    3.1900   -0.6880 O   0  0  0  0  0  0  0  0  0  0  0  0
   -1.3360   -1.0410    1.5640 C   0  0  2  0  0  0  0  0  0  0  0  0
   -2.8400   -0.9670    1.6870 C   0  0  0  0  0  0  0  0  0  0  0  0
   -0.8650   -0.8910    2.8970 O   0  0  0  0  0  0  0  0  0  0  0  0
   -1.0120   -2.3030    1.1850 F   0  0  0  0  0  0  0  0  0  0  0  0
    3.5020    0.3230    0.3470 C   0  0  0  0  0  0  0  0  0  0  0  0
  1  2  1  0
  2  3  1  0
  3  4  2  0
  3  5  1  0
  5  6  1  1
  5  7  1  0
  5 32  1  0
  7  8  1  0
  8  9  1  0
  9 10  1  0
 10 11  2  3
 10 32  1  0
 11 12  1  0
 11 13  1  0
 13 14  1  0
 14 15  1  1
 14 16  1  0
 14 28  1  0
 16 17  1  0
 17 18  1  0
 18 19  1  0
 18 26  1  0
 19 20  1  0
 20 21  1  6
 20 22  1  0
 20 25  1  0
 22 23  1  0
 23 24  2  0
 25 26  1  0
 26 27  1  1
 28 29  1  1
 28 30  1  0
 28 31  1  0
M  CHG  1  30  -1
M  END
