
     RDKit          3D

 11 12  0  0  0  0  0  0  0  0999 V2000
    3.5690    0.0350   -0.0300 N   0  0  0  0  0  0  0  0  0  0  0  0
    2.1270    0.0170   -0.0250 C   0  0  0  0  0  0  0  0  0  0  0  0
    1.3230   -0.5790   -0.9240 N   0  0  0  0  0  0  0  0  0  0  0  0
    0.0420   -0.3680   -0.5690 C   0  0  0  0  0  0  0  0  0  0  0  0
   -1.1900   -0.7320   -1.1020 C   0  0  0  0  0  0  0  0  0  0  0  0
   -2.3890   -0.3760   -0.5230 C   0  0  0  0  0  0  0  0  0  0  0  0
   -3.9440   -0.8320   -1.1900 Cl  0  0  0  0  0  0  0  0  0  0  0  0
   -2.3480    0.3740    0.6330 C   0  0  0  0  0  0  0  0  0  0  0  0
   -1.1330    0.7430    1.1730 C   0  0  0  0  0  0  0  0  0  0  0  0
    0.0670    0.3740    0.5760 C   0  0  0  0  0  0  0  0  0  0  0  0
    1.3330    0.5750    0.8550 O   0  0  0  0  0  0  0  0  0  0  0  0
  1  2  1  0
  2  3  2  0
  2 11  1  0
  3  4  1  0
  4  5  2  0
  4 10  1  0
  5  6  1  0
  6  7  1  0
  6  8  2  0
  8  9  1  0
  9 10  2  0
 10 11  1  0
M  END
