
     RDKit          3D

 23 26  0  0  0  0  0  0  0  0999 V2000
   -5.9510    1.3830    0.6710 C   0  0  0  0  0  0  0  0  0  0  0  0
   -4.5540    1.3450    0.8630 O   0  0  0  0  0  0  0  0  0  0  0  0
   -3.7690    0.4910    0.1140 C   0  0  0  0  0  0  0  0  0  0  0  0
   -4.3670   -0.3190   -0.8190 C   0  0  0  0  0  0  0  0  0  0  0  0
   -3.6510   -1.1980   -1.6060 C   0  0  0  0  0  0  0  0  0  0  0  0
   -2.2840   -1.2540   -1.4360 C   0  0  0  0  0  0  0  0  0  0  0  0
   -1.6390   -0.4610   -0.5130 C   0  0  0  0  0  0  0  0  0  0  0  0
   -2.4010    0.4180    0.2660 C   0  0  0  0  0  0  0  0  0  0  0  0
   -1.5950    1.0570    1.0580 O   0  0  0  0  0  0  0  0  0  0  0  0
   -0.3470    0.7000    0.8970 C   0  0  0  0  0  0  0  0  0  0  0  0
    0.8630    1.0720    1.4810 C   0  0  0  0  0  0  0  0  0  0  0  0
    0.8170    2.3040    2.7410 Cl  0  0  0  0  0  0  0  0  0  0  0  0
    2.0510    0.4930    1.0820 C   0  0  0  0  0  0  0  0  0  0  0  0
    3.5760    1.0130    1.8710 S   0  0  0  0  0  0  0  0  0  0  0  0
    4.9320    0.0570    1.1130 C   0  0  0  0  0  0  0  0  0  0  0  0
    5.5390   -0.9190    1.2000 N   0  0  0  0  0  0  0  0  0  0  0  0
    6.5070   -1.2920    0.4190 N   0  0  0  0  0  0  0  0  0  0  0  0
    6.9200   -0.7020   -0.4970 C   0  0  0  0  0  0  0  0  0  0  0  0
    8.1620   -0.8340   -1.7680 S   0  0  0  0  0  0  0  0  0  0  0  0
    5.7850    0.8250   -0.4270 S   0  0  0  0  0  0  0  0  0  0  0  0
    2.0300   -0.4640    0.0920 C   0  0  0  0  0  0  0  0  0  0  0  0
    0.8400   -0.8500   -0.5030 C   0  0  0  0  0  0  0  0  0  0  0  0
   -0.3480   -0.2610   -0.0930 C   0  0  0  0  0  0  0  0  0  0  0  0
  1  2  1  0
  2  3  1  0
  3  4  2  0
  3  8  1  0
  4  5  1  0
  5  6  2  0
  6  7  1  0
  7  8  2  0
  7 23  1  0
  8  9  1  0
  9 10  1  0
 10 11  2  0
 10 23  1  0
 11 12  1  0
 11 13  1  0
 13 14  1  0
 13 21  2  0
 14 15  1  0
 15 16  2  0
 15 20  1  0
 16 17  1  0
 17 18  2  0
 18 19  1  0
 18 20  1  0
 21 22  1  0
 22 23  2  0
M  END
