
     RDKit          3D

 23 26  0  0  0  0  0  0  0  0999 V2000
    2.3310    1.2080   -0.6910 O   0  0  0  0  0  0  0  0  0  0  0  0
    2.8590    0.0940   -0.4260 C   0  0  0  0  0  0  0  0  0  0  0  0
    2.1150   -1.0110   -0.7290 O   0  0  0  0  0  0  0  0  0  0  0  0
    0.9070   -1.2350   -1.2770 C   0  0  0  0  0  0  0  0  0  0  0  0
   -0.2980   -0.7290   -0.6330 C   0  0  0  0  0  0  0  0  0  0  0  0
   -1.4350   -0.6450   -0.9110 N   0  0  0  0  0  0  0  0  0  0  0  0
   -2.4500   -0.2060   -0.2490 C   0  0  0  0  0  0  0  0  0  0  0  0
   -2.1400    0.2670    1.0680 C   0  0  0  0  0  0  0  0  0  0  0  0
   -0.3520   -0.0260    1.1000 S   0  0  0  0  0  0  0  0  0  0  0  0
   -3.3420    0.9110    2.1390 S   0  0  0  0  0  0  0  0  0  0  0  0
   -4.9610    0.7230    1.5050 C   0  0  0  0  0  0  0  0  0  0  0  0
   -4.9260    0.2300    0.0400 C   0  0  0  0  0  0  0  0  0  0  0  0
   -6.1380    0.1660   -0.6180 C   0  0  0  0  0  0  0  0  0  0  0  0
   -6.1850   -0.2890   -1.8960 C   0  0  0  0  0  0  0  0  0  0  0  0
   -4.5430   -0.6520   -2.2480 S   0  0  0  0  0  0  0  0  0  0  0  0
   -3.8740   -0.1470   -0.5840 C   0  0  0  0  0  0  0  0  0  0  0  0
    4.1850   -0.0050    0.1630 C   0  0  0  0  0  0  0  0  0  0  0  0
    4.6660   -1.2230    0.6020 C   0  0  0  0  0  0  0  0  0  0  0  0
    5.9120   -1.3390    1.1270 N   0  0  0  0  0  0  0  0  0  0  0  0
    6.7470   -0.3000    1.2550 C   0  0  0  0  0  0  0  0  0  0  0  0
    6.3070    0.9320    0.8310 C   0  0  0  0  0  0  0  0  0  0  0  0
    5.0270    1.0630    0.2900 C   0  0  0  0  0  0  0  0  0  0  0  0
    4.5170    2.6540   -0.2470 Cl  0  0  0  0  0  0  0  0  0  0  0  0
  1  2  2  0
  2  3  1  0
  2 17  1  0
  3  4  1  0
  4  5  1  0
  5  6  2  0
  5  9  1  0
  6  7  1  0
  7  8  2  0
  7 16  1  0
  8  9  1  0
  8 10  1  0
 10 11  1  0
 11 12  1  0
 12 13  1  0
 12 16  2  0
 13 14  2  0
 14 15  1  0
 15 16  1  0
 17 18  2  0
 17 22  1  0
 18 19  1  0
 19 20  2  0
 20 21  1  0
 21 22  2  0
 22 23  1  0
M  END
