
     RDKit          3D

 33 35  0  0  0  0  0  0  0  0999 V2000
   -3.5130    3.6940   -1.7850 C   0  0  0  0  0  0  0  0  0  0  0  0
   -4.4510    2.9350   -0.8930 C   0  0  0  0  0  0  0  0  0  0  0  0
   -4.0210    1.7410   -0.3050 C   0  0  0  0  0  0  0  0  0  0  0  0
   -4.8530    1.0210    0.5160 C   0  0  0  0  0  0  0  0  0  0  0  0
   -4.4680   -0.2320    1.1610 C   0  0  0  0  0  0  0  0  0  0  0  0
   -5.3160   -0.7910    1.8880 O   0  0  0  0  0  0  0  0  0  0  0  0
   -3.2060   -0.8420    1.0130 N   0  0  0  0  0  0  0  0  0  0  0  0
   -2.7380   -2.0390    1.5780 C   0  0  0  0  0  0  0  0  0  0  0  0
   -3.5940   -2.9500    2.1790 C   0  0  0  0  0  0  0  0  0  0  0  0
   -3.0770   -4.1600    2.6600 C   0  0  0  0  0  0  0  0  0  0  0  0
   -1.7620   -4.4910    2.5650 C   0  0  0  0  0  0  0  0  0  0  0  0
   -0.9190   -3.5500    1.9530 C   0  0  0  0  0  0  0  0  0  0  0  0
   -1.3760   -2.3470    1.4650 C   0  0  0  0  0  0  0  0  0  0  0  0
   -0.5330   -1.3570    0.9170 N   0  0  0  0  0  0  0  0  0  0  0  0
    0.8120   -1.5920    0.5310 C   0  0  0  0  0  0  0  0  0  0  0  0
    1.3440   -2.7140    0.6390 O   0  0  0  0  0  0  0  0  0  0  0  0
    1.6220   -0.5060   -0.0140 N   0  0  0  0  0  0  0  0  0  0  0  0
    2.9620   -0.8630   -0.3670 C   0  0  0  0  0  0  0  0  0  0  0  0
    3.8390    0.1930   -0.9120 C   0  0  2  0  0  0  0  0  0  0  0  0
    3.4280    0.8330   -2.0500 O   0  0  0  0  0  0  0  0  0  0  0  0
    3.6620    2.1630   -2.1540 C   0  0  0  0  0  0  0  0  0  0  0  0
    3.1290    3.0750   -1.1610 C   0  0  0  0  0  0  0  0  0  0  0  0
    2.3760    2.7840   -0.0070 N   0  0  0  0  0  0  0  0  0  0  0  0
    3.3790    4.3240   -1.3610 O   0  0  0  0  0  0  0  0  0  0  0  0
    5.1240   -0.5810   -1.2970 C   0  0  0  0  0  0  0  0  0  0  0  0
    5.2910   -1.3100   -2.4020 N   0  0  0  0  0  0  0  0  0  0  0  0
    6.5310   -1.8450   -2.4160 C   0  0  0  0  0  0  0  0  0  0  0  0
    7.1470   -1.4230   -1.2690 C   0  0  0  0  0  0  0  0  0  0  0  0
    6.2550   -0.6380   -0.5880 N   0  0  0  0  0  0  0  0  0  0  0  0
   -6.0820    1.5310    0.7110 N   0  0  0  0  0  0  0  0  0  0  0  0
   -6.5000    2.6740    0.1510 C   0  0  0  0  0  0  0  0  0  0  0  0
   -7.6590    3.1410    0.3440 O   0  0  0  0  0  0  0  0  0  0  0  0
   -5.6890    3.3670   -0.6440 N   0  0  0  0  0  0  0  0  0  0  0  0
  1  2  1  0
  2  3  1  0
  2 33  2  0
  3  4  2  0
  4  5  1  0
  4 30  1  0
  5  6  2  0
  5  7  1  0
  7  8  1  0
  8  9  2  0
  8 13  1  0
  9 10  1  0
 10 11  2  0
 11 12  1  0
 12 13  2  0
 13 14  1  0
 14 15  1  0
 15 16  2  0
 15 17  1  0
 17 18  1  0
 19 18  1  6
 19 20  1  0
 19 25  1  0
 20 21  1  0
 21 22  1  0
 22 23  1  0
 22 24  2  0
 25 26  2  0
 25 29  1  0
 26 27  1  0
 27 28  2  0
 28 29  1  0
 30 31  1  0
 31 32  2  0
 31 33  1  0
M  END
