
     RDKit          3D

 33 35  0  0  0  0  0  0  0  0999 V2000
    7.1860    1.1240    2.2670 C   0  0  0  0  0  0  0  0  0  0  0  0
    6.8490    2.3850    1.5960 C   0  0  0  0  0  0  0  0  0  0  0  0
    5.5140    2.4980    0.8960 C   0  0  0  0  0  0  0  0  0  0  0  0
    5.3140    1.4970   -0.1450 C   0  0  0  0  0  0  0  0  0  0  0  0
    5.9330    1.5990   -1.3520 N   0  0  0  0  0  0  0  0  0  0  0  0
    5.7410    0.5540   -2.0810 N   0  0  0  0  0  0  0  0  0  0  0  0
    4.9590   -0.3270   -1.3720 C   0  0  0  0  0  0  0  0  0  0  0  0
    4.7540   -1.6850   -1.8780 C   0  0  0  0  0  0  0  0  0  0  0  0
    4.6750    0.2430   -0.1740 C   0  0  0  0  0  0  0  0  0  0  0  0
    3.9240   -0.2370    1.0310 C   0  0  0  0  0  0  0  0  0  0  0  0
    2.5060   -0.3190    0.9040 N   0  0  0  0  0  0  0  0  0  0  0  0
    1.6720   -0.7480   -0.1070 C   0  0  0  0  0  0  0  0  0  0  0  0
    2.1970   -1.1750   -1.1480 O   0  0  0  0  0  0  0  0  0  0  0  0
    0.2500   -0.7650   -0.1490 N   0  0  0  0  0  0  0  0  0  0  0  0
   -0.4540   -1.1150   -1.3620 C   0  0  0  0  0  0  0  0  0  0  0  0
   -1.7660   -1.3920   -1.5070 C   0  0  0  0  0  0  0  0  0  0  0  0
   -2.8410   -1.4850   -0.6040 N   0  0  0  0  0  0  0  0  0  0  0  0
   -3.1300   -2.6460   -0.0050 C   0  0  0  0  0  0  0  0  0  0  0  0
   -4.2960   -2.7700    0.7470 C   0  0  0  0  0  0  0  0  0  0  0  0
   -5.1740   -1.6820    0.8790 C   0  0  0  0  0  0  0  0  0  0  0  0
   -4.8650   -0.5020    0.2650 C   0  0  0  0  0  0  0  0  0  0  0  0
   -5.6430    0.6100    0.3150 O   0  0  0  0  0  0  0  0  0  0  0  0
   -6.8750    0.8220    0.9160 C   0  0  2  0  0  0  0  0  0  0  0  0
   -8.0090    0.6920   -0.1210 C   0  0  0  0  0  0  0  0  0  0  0  0
   -7.0320    2.1650    1.5060 C   0  0  0  0  0  0  0  0  0  0  0  0
   -8.2480    2.5710    2.1010 N   0  0  0  0  0  0  0  0  0  0  0  0
   -6.0700    2.9990    1.4870 O   0  0  0  0  0  0  0  0  0  0  0  0
   -3.6710   -0.4280   -0.4830 C   0  0  0  0  0  0  0  0  0  0  0  0
   -3.3480    0.6360   -1.0550 O   0  0  0  0  0  0  0  0  0  0  0  0
   -1.9790   -1.6040   -2.8720 N   0  0  0  0  0  0  0  0  0  0  0  0
   -0.8970   -1.4740   -3.5400 N   0  0  0  0  0  0  0  0  0  0  0  0
    0.0810   -1.1680   -2.6360 C   0  0  0  0  0  0  0  0  0  0  0  0
    1.2600   -0.9740   -3.0040 O   0  0  0  0  0  0  0  0  0  0  0  0
  1  2  1  0
  2  3  1  0
  3  4  1  0
  4  5  2  0
  4  9  1  0
  5  6  1  0
  6  7  1  0
  7  8  1  0
  7  9  2  0
  9 10  1  0
 10 11  1  0
 11 12  1  0
 12 13  2  0
 12 14  1  0
 14 15  1  0
 15 16  2  0
 15 32  1  0
 16 17  1  0
 16 30  1  0
 17 18  1  0
 17 28  1  0
 18 19  2  0
 19 20  1  0
 20 21  2  0
 21 22  1  0
 21 28  1  0
 22 23  1  0
 23 24  1  6
 23 25  1  0
 25 26  1  0
 25 27  2  0
 28 29  2  0
 30 31  1  0
 31 32  1  0
 32 33  2  0
M  END
