
     RDKit          3D

 33 34  0  0  0  0  0  0  0  0999 V2000
   -1.4500    3.2640   -1.8280 N   0  0  0  0  0  0  0  0  0  0  0  0
   -1.6640    4.3000   -0.8910 C   0  0  0  0  0  0  0  0  0  0  0  0
   -1.7370    5.5110   -1.1650 O   0  0  0  0  0  0  0  0  0  0  0  0
   -1.8150    3.9240    0.5400 C   0  0  0  0  0  0  0  0  0  0  0  0
   -1.7150    2.4920    0.7460 N   0  0  0  0  0  0  0  0  0  0  0  0
   -0.5630    1.7460    0.4050 C   0  0  0  0  0  0  0  0  0  0  0  0
    0.4140    2.3600   -0.0920 O   0  0  0  0  0  0  0  0  0  0  0  0
   -0.4250    0.3090    0.5890 C   0  0  0  0  0  0  0  0  0  0  0  0
    0.6600   -0.3490    0.2710 C   0  0  0  0  0  0  0  0  0  0  0  0
    0.7310   -1.7820    0.4790 C   0  0  0  0  0  0  0  0  0  0  0  0
    1.8110   -2.4960    0.1740 C   0  0  0  0  0  0  0  0  0  0  0  0
    2.9200   -1.7810   -0.3770 N   0  0  0  0  0  0  0  0  0  0  0  0
    4.1920   -1.7720    0.2480 C   0  0  0  0  0  0  0  0  0  0  0  0
    4.3260   -2.4190    1.3130 O   0  0  0  0  0  0  0  0  0  0  0  0
    5.3250   -1.0190   -0.3450 C   0  0  0  0  0  0  0  0  0  0  0  0
    6.5390   -1.2370    0.5310 C   0  0  0  0  0  0  0  0  0  0  0  0
    7.7410   -0.5220    0.0300 C   0  0  0  0  0  0  0  0  0  0  0  0
    8.8830   -1.0790   -0.3300 C   0  0  0  0  0  0  0  0  0  0  0  0
    9.8410   -0.0410   -0.7730 C   0  0  0  0  0  0  0  0  0  0  0  0
    9.0870    1.1820   -0.6130 N   0  0  0  0  0  0  0  0  0  0  0  0
    7.9200    0.9060   -0.1660 C   0  0  0  0  0  0  0  0  0  0  0  0
   -1.5380   -0.3950    1.1470 N   0  0  0  0  0  0  0  0  0  0  0  0
   -2.7760   -0.4530    0.4350 C   0  0  0  0  0  0  0  0  0  0  0  0
   -2.9570    0.0860   -0.6880 O   0  0  0  0  0  0  0  0  0  0  0  0
   -3.8920   -1.1460    0.9880 N   0  0  0  0  0  0  0  0  0  0  0  0
   -5.1310   -1.2270    0.3170 N   0  0  0  0  0  0  0  0  0  0  0  0
   -6.2710   -0.4920    0.7230 C   0  0  0  0  0  0  0  0  0  0  0  0
   -6.1620    0.2460    1.7090 O   0  0  0  0  0  0  0  0  0  0  0  0
   -7.5330   -0.6290   -0.0330 C   0  0  0  0  0  0  0  0  0  0  0  0
   -7.7640   -1.3760   -1.0850 C   0  0  0  0  0  0  0  0  0  0  0  0
   -9.1770   -1.1890   -1.5020 C   0  0  0  0  0  0  0  0  0  0  0  0
   -9.6710   -0.2150   -0.4980 C   0  0  0  0  0  0  0  0  0  0  0  0
   -8.7060    0.0630    0.3010 N   0  0  0  0  0  0  0  0  0  0  0  0
  1  2  1  0
  2  3  2  0
  2  4  1  0
  4  5  1  0
  5  6  1  0
  6  7  2  0
  6  8  1  0
  8  9  2  3
  8 22  1  0
  9 10  1  0
 10 11  2  3
 11 12  1  0
 12 13  1  0
 13 14  2  0
 13 15  1  0
 15 16  1  0
 16 17  1  0
 17 18  2  0
 17 21  1  0
 18 19  1  0
 19 20  1  0
 20 21  2  0
 22 23  1  0
 23 24  2  0
 23 25  1  0
 25 26  1  0
 26 27  1  0
 27 28  2  0
 27 29  1  0
 29 30  2  0
 29 33  1  0
 30 31  1  0
 31 32  1  0
 32 33  2  0
M  END
