
     RDKit          3D

 33 35  0  0  0  0  0  0  0  0999 V2000
   -8.3720    1.1150    0.1470 C   0  0  0  0  0  0  0  0  0  0  0  0
   -7.3490    0.3030    0.9110 C   0  0  2  0  0  0  0  0  0  0  0  0
   -6.3240   -0.1050   -0.0200 N   0  0  0  0  0  0  0  0  0  0  0  0
   -4.9910    0.3440    0.2040 C   0  0  0  0  0  0  0  0  0  0  0  0
   -4.7890    1.0740    1.2050 O   0  0  0  0  0  0  0  0  0  0  0  0
   -3.9000   -0.0220   -0.6840 C   0  0  0  0  0  0  0  0  0  0  0  0
   -3.9530   -0.7940   -1.7960 N   0  0  0  0  0  0  0  0  0  0  0  0
   -2.7150   -0.8720   -2.3060 C   0  0  0  0  0  0  0  0  0  0  0  0
   -2.4410   -1.5230   -3.3460 O   0  0  0  0  0  0  0  0  0  0  0  0
   -1.8690   -0.1520   -1.5240 N   0  0  0  0  0  0  0  0  0  0  0  0
   -2.5920    0.3720   -0.5270 C   0  0  0  0  0  0  0  0  0  0  0  0
   -2.0000    1.2290    0.5380 C   0  0  0  0  0  0  0  0  0  0  0  0
   -0.5100    0.8440    0.5060 C   0  0  0  0  0  0  0  0  0  0  0  0
   -0.0290    0.3740    1.5890 C   0  0  0  0  0  0  0  0  0  0  0  0
    1.2700   -0.1030    1.9870 C   0  0  0  0  0  0  0  0  0  0  0  0
    1.4400   -0.5020    3.2220 O   0  0  0  0  0  0  0  0  0  0  0  0
    2.4300   -0.2090    1.2090 N   0  0  0  0  0  0  0  0  0  0  0  0
    3.6790   -0.6990    1.7250 C   0  0  0  0  0  0  0  0  0  0  0  0
    4.0320   -1.1470    2.9600 C   0  0  0  0  0  0  0  0  0  0  0  0
    5.3240   -1.5120    2.9820 N   0  0  0  0  0  0  0  0  0  0  0  0
    5.8000   -1.2940    1.7450 N   0  0  0  0  0  0  0  0  0  0  0  0
    4.8430   -0.8020    0.9460 C   0  0  0  0  0  0  0  0  0  0  0  0
    4.9640   -0.4380   -0.4470 C   0  0  0  0  0  0  0  0  0  0  0  0
    6.0110   -0.5150   -1.1980 C   0  0  0  0  0  0  0  0  0  0  0  0
    7.2520   -0.9970   -0.7170 N   0  0  0  0  0  0  0  0  0  0  0  0
    8.2630   -0.0120   -0.3570 C   0  0  0  0  0  0  0  0  0  0  0  0
    8.7480    0.6870   -1.6060 C   0  0  0  0  0  0  0  0  0  0  0  0
    7.7110    1.3280   -2.2420 O   0  0  0  0  0  0  0  0  0  0  0  0
    0.0760    1.1060   -0.7940 C   0  0  0  0  0  0  0  0  0  0  0  0
   -0.4430    0.0170   -1.7320 C   0  0  0  0  0  0  0  0  0  0  0  0
   -8.0320   -0.8970    1.4570 C   0  0  0  0  0  0  0  0  0  0  0  0
   -9.0930   -0.7990    2.4030 N   0  0  0  0  0  0  0  0  0  0  0  0
   -7.6770   -2.0470    1.0840 O   0  0  0  0  0  0  0  0  0  0  0  0
  2  1  1  6
  2  3  1  0
  2 31  1  0
  3  4  1  0
  4  5  2  0
  4  6  1  0
  6  7  1  0
  6 11  2  0
  7  8  1  0
  8  9  2  0
  8 10  1  0
 10 11  1  0
 10 30  1  0
 11 12  1  0
 12 13  1  0
 13 14  2  3
 13 29  1  0
 14 15  1  0
 15 16  2  0
 15 17  1  0
 17 18  1  0
 18 19  1  0
 18 22  2  0
 19 20  2  0
 20 21  1  0
 21 22  1  0
 22 23  1  0
 23 24  2  3
 24 25  1  0
 25 26  1  0
 26 27  1  0
 27 28  1  0
 29 30  1  0
 31 32  1  0
 31 33  2  0
M  END
