
     RDKit          3D

 32 34  0  0  0  0  0  0  0  0999 V2000
    9.3610   -0.9360    2.5120 N   0  0  0  0  0  0  0  0  0  0  0  0
    8.1820   -1.0250    1.7190 C   0  0  0  0  0  0  0  0  0  0  0  0
    7.6400   -2.1530    1.4200 N   0  0  0  0  0  0  0  0  0  0  0  0
    6.4670   -2.2420    0.6360 C   0  0  0  0  0  0  0  0  0  0  0  0
    5.9660   -3.4100    0.5580 O   0  0  0  0  0  0  0  0  0  0  0  0
    5.8910   -1.0920   -0.0210 C   0  0  1  0  0  0  0  0  0  0  0  0
    4.4380   -0.9640    0.0690 N   0  0  0  0  0  0  0  0  0  0  0  0
    4.1060    0.1350   -0.8220 C   0  0  1  0  0  0  0  0  0  0  0  0
    2.6580    0.1100   -1.2320 C   0  0  0  0  0  0  0  0  0  0  0  0
    1.7700    0.2070   -0.0880 N   0  0  0  0  0  0  0  0  0  0  0  0
    0.3730    0.1930   -0.3440 C   0  0  0  0  0  0  0  0  0  0  0  0
   -0.4760    0.2830    0.7430 C   0  0  0  0  0  0  0  0  0  0  0  0
   -1.8530    0.2700    0.5270 C   0  0  0  0  0  0  0  0  0  0  0  0
   -2.3870    0.1720   -0.7310 C   0  0  0  0  0  0  0  0  0  0  0  0
   -3.8140    0.1590   -0.9630 C   0  0  0  0  0  0  0  0  0  0  0  0
   -4.2690   -0.0950   -2.1300 O   0  0  0  0  0  0  0  0  0  0  0  0
   -4.7920    0.4120    0.0230 N   0  0  0  0  0  0  0  0  0  0  0  0
   -6.2320    0.3890   -0.2440 C   0  0  1  0  0  0  0  0  0  0  0  0
   -6.7960   -0.6280    0.7170 C   0  0  0  0  0  0  0  0  0  0  0  0
   -8.2690   -0.8340    0.6280 C   0  0  0  0  0  0  0  0  0  0  0  0
   -8.7490   -1.3120   -0.6720 C   0  0  0  0  0  0  0  0  0  0  0  0
  -10.0060   -1.4030   -0.8330 O   0  0  0  0  0  0  0  0  0  0  0  0
   -7.8650   -1.6490   -1.6780 O   0  0  0  0  0  0  0  0  0  0  0  0
   -6.8400    1.7030    0.0720 C   0  0  0  0  0  0  0  0  0  0  0  0
   -6.1090    2.6070    0.5270 O   0  0  0  0  0  0  0  0  0  0  0  0
   -8.1760    1.9480   -0.1240 O   0  0  0  0  0  0  0  0  0  0  0  0
   -1.5360    0.0840   -1.8010 C   0  0  0  0  0  0  0  0  0  0  0  0
   -0.1480    0.0940   -1.6150 C   0  0  0  0  0  0  0  0  0  0  0  0
    4.5430    1.4200   -0.2230 C   0  0  0  0  0  0  0  0  0  0  0  0
    5.9830    1.4120   -0.0600 N   0  0  0  0  0  0  0  0  0  0  0  0
    6.5380    0.1630    0.4290 C   0  0  0  0  0  0  0  0  0  0  0  0
    7.5580    0.1300    1.1760 N   0  0  0  0  0  0  0  0  0  0  0  0
  1  2  1  0
  2  3  2  0
  2 32  1  0
  3  4  1  0
  4  5  2  0
  4  6  1  0
  6  7  1  1
  6 31  1  0
  7  8  1  0
  8  9  1  1
  8 29  1  0
  9 10  1  0
 10 11  1  0
 11 12  2  0
 11 28  1  0
 12 13  1  0
 13 14  2  0
 14 15  1  0
 14 27  1  0
 15 16  2  0
 15 17  1  0
 17 18  1  0
 18 19  1  1
 18 24  1  0
 19 20  1  0
 20 21  1  0
 21 22  2  0
 21 23  1  0
 24 25  2  0
 24 26  1  0
 27 28  2  0
 29 30  1  0
 30 31  1  0
 31 32  2  0
M  CHG  2   3   1   7   1
M  END
