
     RDKit          3D

 38 40  0  0  0  0  0  0  0  0999 V2000
   -4.0130   -2.3940    1.2670 C   0  0  0  0  0  0  0  0  0  0  0  0
   -2.9350   -2.5940    0.3740 O   0  0  0  0  0  0  0  0  0  0  0  0
   -3.0530   -1.7230   -0.7250 C   0  0  2  0  0  0  0  0  0  0  0  0
   -3.3540   -2.5660   -1.9400 C   0  0  0  0  0  0  0  0  0  0  0  0
   -3.5320   -1.9960   -3.0230 O   0  0  0  0  0  0  0  0  0  0  0  0
   -3.4260   -3.9350   -1.8360 O   0  0  0  0  0  0  0  0  0  0  0  0
   -1.7630   -0.9890   -0.8780 C   0  0  1  0  0  0  0  0  0  0  0  0
   -0.7330   -1.8900   -1.1710 O   0  0  0  0  0  0  0  0  0  0  0  0
   -1.8120    0.1740   -1.8370 C   0  0  0  0  0  0  0  0  0  0  0  0
   -0.4680    0.5620   -2.1950 N   0  0  0  0  0  0  0  0  0  0  0  0
    0.0100    1.7110   -1.4560 C   0  0  1  0  0  0  0  0  0  0  0  0
    1.3840    1.6130   -1.2720 O   0  0  0  0  0  0  0  0  0  0  0  0
    2.1700    0.7070   -0.6670 C   0  0  0  0  0  0  0  0  0  0  0  0
    1.6370   -0.2900   -0.1310 O   0  0  0  0  0  0  0  0  0  0  0  0
    3.6510    0.8610   -0.6200 C   0  0  0  0  0  0  0  0  0  0  0  0
    4.2450    1.9510   -1.2050 C   0  0  0  0  0  0  0  0  0  0  0  0
    5.6170    2.0390   -1.1290 C   0  0  0  0  0  0  0  0  0  0  0  0
    6.1460    3.0520   -1.6750 O   0  0  0  0  0  0  0  0  0  0  0  0
    6.3260    1.1230   -0.5260 O   0  0  0  0  0  0  0  0  0  0  0  0
    5.7940    0.0700    0.0430 C   0  0  0  0  0  0  0  0  0  0  0  0
    4.4320   -0.0750    0.0020 C   0  0  0  0  0  0  0  0  0  0  0  0
    3.7950   -1.1620    0.5810 O   0  0  0  0  0  0  0  0  0  0  0  0
    4.6110   -2.4510    1.4140 P   0  0  0  0  0  0  0  0  0  0  0  0
    5.8780   -1.9190    2.4390 O   0  0  0  0  0  0  0  0  0  0  0  0
    5.0440   -3.7640    0.3990 O   0  0  0  0  0  0  0  0  0  0  0  0
   -0.1450    2.9520   -2.1120 O   0  0  0  0  0  0  0  0  0  0  0  0
   -0.8190    3.8110   -1.2880 C   0  0  0  0  0  0  0  0  0  0  0  0
   -1.1190    5.0380   -1.4840 O   0  0  0  0  0  0  0  0  0  0  0  0
   -1.1480    3.0820   -0.1210 N   0  0  0  0  0  0  0  0  0  0  0  0
   -0.7080    1.8820   -0.1940 C   0  0  0  0  0  0  0  0  0  0  0  0
   -1.0230    0.9030    0.8290 N   0  0  0  0  0  0  0  0  0  0  0  0
   -0.9740    1.3170    2.1940 C   0  0  0  0  0  0  0  0  0  0  0  0
   -2.2590    1.8910    2.7300 C   0  0  0  0  0  0  0  0  0  0  0  0
   -3.3290    1.0330    2.6910 O   0  0  0  0  0  0  0  0  0  0  0  0
   -4.7350    1.8160    3.3340 P   0  0  0  0  0  0  0  0  0  0  0  0
   -5.5010    2.8260    2.4350 O   0  0  0  0  0  0  0  0  0  0  0  0
   -1.3960   -0.4540    0.4950 C   0  0  0  0  0  0  0  0  0  0  0  0
   -1.4090   -1.2430    1.4400 O   0  0  0  0  0  0  0  0  0  0  0  0
  1  2  1  0
  3  2  1  1
  3  4  1  0
  3  7  1  0
  4  5  2  0
  4  6  1  0
  7  8  1  6
  7  9  1  0
  7 37  1  0
  9 10  1  0
 10 11  1  0
 11 12  1  1
 11 26  1  0
 11 30  1  0
 12 13  1  0
 13 14  2  0
 13 15  1  0
 15 16  2  0
 15 21  1  0
 16 17  1  0
 17 18  2  0
 17 19  1  0
 19 20  1  0
 20 21  2  0
 21 22  1  0
 22 23  1  0
 23 24  1  0
 23 25  1  0
 26 27  1  0
 27 28  2  0
 27 29  1  0
 29 30  2  0
 30 31  1  0
 31 32  1  0
 31 37  1  0
 32 33  1  0
 33 34  1  0
 34 35  1  0
 35 36  2  0
 37 38  2  0
M  END
