
     RDKit          3D

 38 40  0  0  0  0  0  0  0  0999 V2000
    2.8800    1.9240    1.1290 O   0  0  0  0  0  0  0  0  0  0  0  0
    1.8490    1.2770    0.7750 C   0  0  0  0  0  0  0  0  0  0  0  0
    0.6950    2.0890    0.3420 C   0  0  0  0  0  0  0  0  0  0  0  0
   -0.4520    1.3600    0.0560 O   0  0  0  0  0  0  0  0  0  0  0  0
   -1.1540    0.5870    0.9990 C   0  0  0  0  0  0  0  0  0  0  0  0
   -0.6800    0.5900    2.1730 O   0  0  0  0  0  0  0  0  0  0  0  0
   -2.3150   -0.1370    0.6230 N   0  0  0  0  0  0  0  0  0  0  0  0
   -2.9730   -0.9070    1.5960 C   0  0  0  0  0  0  0  0  0  0  0  0
   -3.9830   -1.5720    1.2810 O   0  0  0  0  0  0  0  0  0  0  0  0
   -2.5010   -0.9540    2.9920 C   0  0  0  0  0  0  0  0  0  0  0  0
   -3.3430   -1.8270    3.7580 O   0  0  0  0  0  0  0  0  0  0  0  0
   -3.4940   -3.1690    3.4570 C   0  0  0  0  0  0  0  0  0  0  0  0
   -2.8610   -3.6240    2.4730 O   0  0  0  0  0  0  0  0  0  0  0  0
   -4.2960   -4.0470    4.1680 O   0  0  0  0  0  0  0  0  0  0  0  0
   -2.7470   -0.0530   -0.7560 C   0  0  1  0  0  0  0  0  0  0  0  0
   -2.9320   -1.3820   -1.3950 C   0  0  0  0  0  0  0  0  0  0  0  0
   -4.2170   -1.4990   -1.8810 O   0  0  0  0  0  0  0  0  0  0  0  0
   -4.7030   -0.2070   -2.0380 C   0  0  0  0  0  0  0  0  0  0  0  0
   -4.0860    0.6120   -0.9310 C   0  0  1  0  0  0  0  0  0  0  0  0
   -4.8760    0.6090    0.2080 O   0  0  0  0  0  0  0  0  0  0  0  0
   -5.8290    1.5890   -0.0940 C   0  0  0  0  0  0  0  0  0  0  0  0
   -5.2660    2.3840   -1.2550 C   0  0  1  0  0  0  0  0  0  0  0  0
   -5.3570    3.8310   -0.9430 C   0  0  0  0  0  0  0  0  0  0  0  0
   -4.2950    4.4730   -0.7640 O   0  0  0  0  0  0  0  0  0  0  0  0
   -6.5540    4.5160   -0.8360 O   0  0  0  0  0  0  0  0  0  0  0  0
   -3.9540    1.9550   -1.3010 O   0  0  0  0  0  0  0  0  0  0  0  0
    1.8990   -0.1290    0.8260 N   0  0  0  0  0  0  0  0  0  0  0  0
    3.0840   -0.8490    1.2700 C   0  0  0  0  0  0  0  0  0  0  0  0
    4.2910   -0.5670    0.4070 C   0  0  0  0  0  0  0  0  0  0  0  0
    3.8680   -1.0930   -1.3240 P   0  0  0  0  0  0  0  0  0  0  0  0
    3.4620   -2.7600   -1.3370 O   0  0  0  0  0  0  0  0  0  0  0  0
    5.5180   -0.6530   -2.7110 P   0  0  0  0  0  0  0  0  0  0  0  0
    6.0810    0.9550   -2.5580 O   0  0  0  0  0  0  0  0  0  0  0  0
    7.0600    1.1280   -1.6060 C   0  0  0  0  0  0  0  0  0  0  0  0
    8.0400   -0.0230   -1.5570 C   0  0  0  0  0  0  0  0  0  0  0  0
    7.3970   -1.2630   -1.1890 N   0  0  0  0  0  0  0  0  0  0  0  0
    8.3000   -2.1380   -0.6970 O   0  0  0  0  0  0  0  0  0  0  0  0
    6.8220   -1.7590   -2.3150 O   0  0  0  0  0  0  0  0  0  0  0  0
  1  2  2  0
  2  3  1  0
  2 27  1  0
  3  4  1  0
  4  5  1  0
  5  6  2  0
  5  7  1  0
  7  8  1  0
 15  7  1  1
  8  9  2  0
  8 10  1  0
 10 11  1  0
 11 12  1  0
 12 13  2  0
 12 14  1  0
 15 16  1  0
 15 19  1  0
 16 17  1  0
 17 18  1  0
 19 18  1  6
 19 20  1  0
 19 26  1  0
 20 21  1  0
 21 22  1  0
 22 23  1  1
 22 26  1  0
 23 24  2  0
 23 25  1  0
 27 28  1  0
 28 29  1  0
 29 30  1  0
 30 31  1  0
 30 32  1  0
 32 33  1  0
 32 38  1  0
 33 34  1  0
 34 35  1  0
 35 36  1  0
 36 37  1  0
 36 38  1  0
M  END
