
     RDKit          3D

 10 10  0  0  0  0  0  0  0  0999 V2000
   -2.4970    0.6300    1.5700 N   0  0  0  0  0  0  0  0  0  0  0  0
   -1.5030    0.1890    0.6540 C   0  0  0  0  0  0  0  0  0  0  0  0
   -1.8150   -0.6420   -0.4030 C   0  0  0  0  0  0  0  0  0  0  0  0
   -0.8560   -1.0780   -1.3010 C   0  0  0  0  0  0  0  0  0  0  0  0
    0.4640   -0.7000   -1.1830 C   0  0  0  0  0  0  0  0  0  0  0  0
    1.4470   -1.1220   -2.0700 O   0  0  0  0  0  0  0  0  0  0  0  0
    0.7780    0.1300   -0.1290 C   0  0  0  0  0  0  0  0  0  0  0  0
    2.2130    0.5390   -0.0040 C   0  0  0  0  0  0  0  0  0  0  0  0
    2.4090    1.3720    1.0910 O   0  0  0  0  0  0  0  0  0  0  0  0
   -0.1780    0.5640    0.7660 C   0  0  0  0  0  0  0  0  0  0  0  0
  1  2  1  0
  2  3  2  0
  2 10  1  0
  3  4  1  0
  4  5  2  0
  5  6  1  0
  5  7  1  0
  7  8  1  0
  7 10  2  0
  8  9  1  0
M  END
