
     RDKit          3D

 10 10  0  0  0  0  0  0  0  0999 V2000
   -2.2460   -1.0450   -0.4480 C   0  0  0  0  0  0  0  0  0  0  0  0
   -0.9210   -0.4330   -0.1880 C   0  0  0  0  0  0  0  0  0  0  0  0
    0.2450   -1.1820   -0.0680 C   0  0  0  0  0  0  0  0  0  0  0  0
    1.4630   -0.5870    0.1740 C   0  0  0  0  0  0  0  0  0  0  0  0
    2.6480   -1.3640    0.2950 N   0  0  0  0  0  0  0  0  0  0  0  0
    1.5150    0.7830    0.3000 C   0  0  0  0  0  0  0  0  0  0  0  0
    0.3690    1.5740    0.1870 C   0  0  0  0  0  0  0  0  0  0  0  0
    0.4070    2.9560    0.3110 O   0  0  0  0  0  0  0  0  0  0  0  0
   -0.8380    0.9450   -0.0570 C   0  0  0  0  0  0  0  0  0  0  0  0
   -2.0210    1.6900   -0.1790 O   0  0  0  0  0  0  0  0  0  0  0  0
  1  2  1  0
  2  3  2  0
  2  9  1  0
  3  4  1  0
  4  5  1  0
  4  6  2  0
  6  7  1  0
  7  8  1  0
  7  9  2  0
  9 10  1  0
M  END
