
     RDKit          3D

 10 10  0  0  0  0  0  0  0  0999 V2000
    2.5160   -0.5060    0.2460 C   0  0  0  0  0  0  0  0  0  0  0  0
    1.0660   -0.1780    0.1080 C   0  0  0  0  0  0  0  0  0  0  0  0
    0.1080   -1.1490    0.0450 C   0  0  0  0  0  0  0  0  0  0  0  0
   -1.2150   -0.7720   -0.0830 C   0  0  0  0  0  0  0  0  0  0  0  0
   -2.2110   -1.7890   -0.1480 N   0  0  0  0  0  0  0  0  0  0  0  0
   -1.5670    0.5600   -0.1470 C   0  0  0  0  0  0  0  0  0  0  0  0
   -2.9050    0.8820   -0.2760 O   0  0  0  0  0  0  0  0  0  0  0  0
   -0.6170    1.5590   -0.0860 C   0  0  0  0  0  0  0  0  0  0  0  0
    0.7130    1.1540    0.0430 C   0  0  0  0  0  0  0  0  0  0  0  0
    1.6810    2.1490    0.1060 O   0  0  0  0  0  0  0  0  0  0  0  0
  1  2  1  0
  2  3  2  0
  2  9  1  0
  3  4  1  0
  4  5  1  0
  4  6  2  0
  6  7  1  0
  6  8  1  0
  8  9  2  0
  9 10  1  0
M  END
