
     RDKit          3D

  9  9  0  0  0  0  0  0  0  0999 V2000
    2.8390    0.8530    0.6320 O   0  0  0  0  0  0  0  0  0  0  0  0
    1.8680   -0.0650    0.9850 C   0  0  0  0  0  0  0  0  0  0  0  0
    0.8370   -0.2610   -0.1320 C   0  0  1  0  0  0  0  0  0  0  0  0
    1.5440   -0.7210   -1.2430 O   0  0  0  0  0  0  0  0  0  0  0  0
   -0.1080   -1.3160    0.3460 C   0  0  0  0  0  0  0  0  0  0  0  0
   -1.4800   -1.2290   -0.2270 C   0  0  0  0  0  0  0  0  0  0  0  0
   -2.1050    0.1310   -0.1330 C   0  0  0  0  0  0  0  0  0  0  0  0
   -1.1610    1.2530    0.0380 C   0  0  0  0  0  0  0  0  0  0  0  0
    0.2130    1.0370   -0.4840 C   0  0  0  0  0  0  0  0  0  0  0  0
  1  2  1  0
  2  3  1  0
  3  4  1  6
  3  5  1  0
  3  9  1  0
  5  6  1  0
  6  7  1  0
  7  8  1  0
  8  9  1  0
M  END
