
     RDKit          3D

 10 10  0  0  0  0  0  0  0  0999 V2000
   -1.6340    1.6900   -0.1360 N   0  0  0  0  0  0  0  0  0  0  0  0
   -0.3950    0.9420   -0.0670 C   0  0  0  0  0  0  0  0  0  0  0  0
    0.8030    1.5910    0.0480 C   0  0  0  0  0  0  0  0  0  0  0  0
    2.0110    0.9100    0.1170 C   0  0  0  0  0  0  0  0  0  0  0  0
    1.8870   -0.4570    0.0760 C   0  0  0  0  0  0  0  0  0  0  0  0
    3.0790   -1.2210    0.1540 O   0  0  0  0  0  0  0  0  0  0  0  0
    0.6540   -1.1280   -0.0420 C   0  0  0  0  0  0  0  0  0  0  0  0
   -0.5040   -0.4490   -0.1230 C   0  0  0  0  0  0  0  0  0  0  0  0
   -1.8190   -1.0290   -0.4100 C   0  0  0  0  0  0  0  0  0  0  0  0
   -2.5300   -1.3840    0.7600 O   0  0  0  0  0  0  0  0  0  0  0  0
  1  2  1  0
  2  3  2  0
  2  8  1  0
  3  4  1  0
  4  5  2  0
  5  6  1  0
  5  7  1  0
  7  8  2  0
  8  9  1  0
  9 10  1  0
M  END
