
     RDKit          3D

  9  9  0  0  0  0  0  0  0  0999 V2000
    3.6690   -0.1880   -0.0690 N   0  0  0  0  0  0  0  0  0  0  0  0
    2.2740   -0.4500   -0.1150 C   0  0  0  0  0  0  0  0  0  0  0  0
    1.9240   -1.6340   -0.2830 O   0  0  0  0  0  0  0  0  0  0  0  0
    1.2670    0.5810    0.0220 C   0  0  0  0  0  0  0  0  0  0  0  0
   -0.0250    0.3170   -0.0250 C   0  0  0  0  0  0  0  0  0  0  0  0
   -0.5900   -1.0390   -0.2210 C   0  0  0  0  0  0  0  0  0  0  0  0
   -2.0730   -0.7600   -0.3240 C   0  0  0  0  0  0  0  0  0  0  0  0
   -2.2360    0.3720    0.6430 C   0  0  0  0  0  0  0  0  0  0  0  0
   -1.1450    1.3120    0.1130 C   0  0  0  0  0  0  0  0  0  0  0  0
  1  2  1  0
  2  3  2  0
  2  4  1  0
  4  5  2  3
  5  6  1  0
  5  9  1  0
  6  7  1  0
  7  8  1  0
  8  9  1  0
M  END
