
     RDKit          3D

  7  6  0  0  0  0  0  0  0  0999 V2000
   -2.0350   -0.7060   -0.1260 C   0  0  0  0  0  0  0  0  0  0  0  0
   -0.9100    0.0350   -0.8180 C   0  0  0  0  0  0  0  0  0  0  0  0
    0.1900    0.3610   -0.0200 N   0  0  0  0  0  0  0  0  0  0  0  0
    1.0370   -0.6790    0.4260 C   0  0  0  0  0  0  0  0  0  0  0  0
    1.8790   -1.2410   -0.7130 C   0  0  0  0  0  0  0  0  0  0  0  0
    0.0140    1.4490    0.8880 C   0  0  0  0  0  0  0  0  0  0  0  0
   -0.3100    2.6160    0.1990 O   0  0  0  0  0  0  0  0  0  0  0  0
  1  2  1  0
  2  3  1  0
  3  4  1  0
  3  6  1  0
  4  5  1  0
  6  7  1  0
M  END
