
     RDKit          3D

 21 24  0  0  0  0  0  0  0  0999 V2000
   -3.3690   -2.1430    0.9640 C   0  0  0  0  0  0  0  0  0  0  0  0
   -3.0280   -0.9950    0.0830 C   0  0  1  0  0  0  0  0  0  0  0  0
   -3.7240    0.2900    0.5300 C   0  0  0  0  0  0  0  0  0  0  0  0
   -3.6070    1.3070   -0.5700 C   0  0  0  0  0  0  0  0  0  0  0  0
   -2.2800    1.1610   -1.3270 C   0  0  0  0  0  0  0  0  0  0  0  0
   -1.2610    0.6860   -0.3690 C   0  0  1  0  0  0  0  0  0  0  0  0
   -1.5310   -0.7720   -0.0650 C   0  0  1  0  0  0  0  0  0  0  0  0
   -0.7690   -1.1320    1.1590 C   0  0  0  0  0  0  0  0  0  0  0  0
    0.4860   -0.3520    1.3700 C   0  0  0  0  0  0  0  0  0  0  0  0
    1.1030    0.2230    0.1400 C   0  0  1  0  0  0  0  0  0  0  0  0
    2.1410    1.2260    0.6340 C   0  0  0  0  0  0  0  0  0  0  0  0
    3.0350    0.5440    1.6800 C   0  0  2  0  0  0  0  0  0  0  0  0
    3.9680    1.5420    2.0510 O   0  0  0  0  0  0  0  0  0  0  0  0
    3.7150   -0.6340    1.0720 C   0  0  0  0  0  0  0  0  0  0  0  0
    3.3200   -0.8380   -0.3700 C   0  0  0  0  0  0  0  0  0  0  0  0
    1.8400   -0.8890   -0.5740 C   0  0  1  0  0  0  0  0  0  0  0  0
    1.3560   -2.1570   -0.1830 O   0  0  0  0  0  0  0  0  0  0  0  0
    1.5520   -0.7400   -2.0380 C   0  0  0  0  0  0  0  0  0  0  0  0
    0.3590    0.1660   -2.1670 C   0  0  0  0  0  0  0  0  0  0  0  0
    0.1660    0.8400   -0.8250 C   0  0  1  0  0  0  0  0  0  0  0  0
    0.5040    2.3040   -1.0310 C   0  0  0  0  0  0  0  0  0  0  0  0
  2  1  1  1
  2  3  1  0
  2  7  1  0
  3  4  1  0
  4  5  1  0
  6  5  1  6
  6  7  1  0
  6 20  1  0
  7  8  1  1
  8  9  1  0
 10  9  1  1
 10 11  1  0
 10 16  1  0
 10 20  1  0
 11 12  1  0
 12 13  1  6
 12 14  1  0
 14 15  1  0
 15 16  1  0
 16 17  1  1
 16 18  1  0
 18 19  1  0
 19 20  1  0
 20 21  1  6
M  END
