
     RDKit          3D

 17 18  0  0  0  0  0  0  0  0999 V2000
    4.2900    0.9550   -0.1680 C   0  0  0  0  0  0  0  0  0  0  0  0
    3.1650   -0.0120   -0.2970 C   0  0  0  0  0  0  0  0  0  0  0  0
    1.8600    0.3100    0.0320 C   0  0  0  0  0  0  0  0  0  0  0  0
    0.8460   -0.5570   -0.0840 N   0  0  0  0  0  0  0  0  0  0  0  0
   -0.4770   -0.2120    0.2570 C   0  0  1  0  0  0  0  0  0  0  0  0
   -0.7400    1.2880    0.2740 C   0  0  0  0  0  0  0  0  0  0  0  0
   -2.2500    1.2250    0.5350 C   0  0  2  0  0  0  0  0  0  0  0  0
   -2.3850    1.1060    1.9220 O   0  0  0  0  0  0  0  0  0  0  0  0
   -2.6050   -0.0920   -0.0720 C   0  0  1  0  0  0  0  0  0  0  0  0
   -3.7250    0.0320   -1.0800 C   0  0  0  0  0  0  0  0  0  0  0  0
   -4.0340   -1.2200   -1.6010 O   0  0  0  0  0  0  0  0  0  0  0  0
   -1.4490   -0.6190   -0.6470 O   0  0  0  0  0  0  0  0  0  0  0  0
    1.1200   -1.7880   -0.5390 C   0  0  0  0  0  0  0  0  0  0  0  0
    0.2370   -2.6720   -0.6820 O   0  0  0  0  0  0  0  0  0  0  0  0
    2.3890   -2.1550   -0.8770 N   0  0  0  0  0  0  0  0  0  0  0  0
    3.4200   -1.2920   -0.7660 C   0  0  0  0  0  0  0  0  0  0  0  0
    4.5910   -1.6040   -1.0700 O   0  0  0  0  0  0  0  0  0  0  0  0
  1  2  1  0
  2  3  2  0
  2 16  1  0
  3  4  1  0
  5  4  1  6
  4 13  1  0
  5  6  1  0
  5 12  1  0
  6  7  1  0
  7  8  1  1
  7  9  1  0
  9 10  1  6
  9 12  1  0
 10 11  1  0
 13 14  2  0
 13 15  1  0
 15 16  1  0
 16 17  2  0
M  END
