
     RDKit          3D

 27 27  0  0  0  0  0  0  0  0999 V2000
   -3.0110   -4.1270    1.7580 C   0  0  0  0  0  0  0  0  0  0  0  0
   -3.0740   -2.8730    0.9280 C   0  0  2  0  0  0  0  0  0  0  0  0
   -1.8320   -2.1080    0.9860 C   0  0  0  0  0  0  0  0  0  0  0  0
   -1.6320   -0.7960    1.0380 C   0  0  0  0  0  0  0  0  0  0  0  0
   -0.2200   -0.3960    1.0930 C   0  0  0  0  0  0  0  0  0  0  0  0
    0.6160   -1.3170    1.3980 O   0  0  0  0  0  0  0  0  0  0  0  0
    0.3380    0.8430    0.8340 N   0  0  0  0  0  0  0  0  0  0  0  0
    1.6720    1.3050    0.8590 C   0  0  0  0  0  0  0  0  0  0  0  0
    2.5870    0.9560   -0.2260 C   0  0  0  0  0  0  0  0  0  0  0  0
    2.9370   -0.6710   -0.6120 S   0  0  2  0  0  0  0  0  0  0  0  0
    1.6650   -1.3650   -1.1430 O   0  0  0  0  0  0  0  0  0  0  0  0
    3.4180   -1.4710    0.5520 O   0  0  0  0  0  0  0  0  0  0  0  0
    4.1560   -0.8550   -1.9060 C   0  0  0  0  0  0  0  0  0  0  0  0
    5.5010   -0.3940   -1.6220 C   0  0  0  0  0  0  0  0  0  0  0  0
    5.8070    1.0040   -1.2610 C   0  0  0  0  0  0  0  0  0  0  0  0
    5.3790    1.9290   -2.1950 O   0  0  0  0  0  0  0  0  0  0  0  0
   -2.6700    0.2130    0.9020 C   0  0  0  0  0  0  0  0  0  0  0  0
   -2.5890    1.4600    1.4020 C   0  0  0  0  0  0  0  0  0  0  0  0
   -1.4530    1.7710    2.0950 F   0  0  0  0  0  0  0  0  0  0  0  0
   -3.5730    2.5320    1.3570 C   0  0  1  0  0  0  0  0  0  0  0  0
   -3.2560    3.4370    0.3650 O   0  0  0  0  0  0  0  0  0  0  0  0
   -4.8620    2.1640    1.4950 F   0  0  0  0  0  0  0  0  0  0  0  0
   -3.3630    3.3450    2.5550 F   0  0  0  0  0  0  0  0  0  0  0  0
   -4.0350   -0.2730    0.6230 C   0  0  0  0  0  0  0  0  0  0  0  0
   -4.8140    0.1920   -0.2570 C   0  0  0  0  0  0  0  0  0  0  0  0
   -4.6360    1.2430   -1.1950 N   0  0  0  0  0  0  0  0  0  0  0  0
   -4.4380   -1.7840    1.5450 S   0  0  0  0  0  0  0  0  0  0  0  0
  2  1  1  1
  2  3  1  0
  2 27  1  0
  3  4  2  0
  4  5  1  0
  4 17  1  0
  5  6  2  0
  5  7  1  0
  7  8  1  0
  8  9  1  0
 10  9  1  1
 10 11  2  0
 10 12  2  0
 10 13  1  0
 13 14  1  0
 14 15  1  0
 15 16  1  0
 17 18  2  3
 17 24  1  0
 18 19  1  0
 18 20  1  0
 20 21  1  6
 20 22  1  0
 20 23  1  0
 24 25  2  3
 24 27  1  0
 25 26  1  0
M  END
