
     RDKit          3D

 27 28  0  0  0  0  0  0  0  0999 V2000
   -5.0720    1.0650   -1.7130 N   0  0  0  0  0  0  0  0  0  0  0  0
   -5.4510   -0.1950   -1.0970 C   0  0  2  0  0  0  0  0  0  0  0  0
   -5.9340   -1.0220   -2.1260 F   0  0  0  0  0  0  0  0  0  0  0  0
   -6.5120    0.0190   -0.2550 F   0  0  0  0  0  0  0  0  0  0  0  0
   -4.3350   -0.8860   -0.4470 C   0  0  0  0  0  0  0  0  0  0  0  0
   -3.6340   -0.4810    0.5980 C   0  0  0  0  0  0  0  0  0  0  0  0
   -2.5320   -1.3680    1.0830 C   0  0  0  0  0  0  0  0  0  0  0  0
   -1.3030   -0.9850    1.0960 O   0  0  0  0  0  0  0  0  0  0  0  0
   -0.1400   -0.4500    1.2340 C   0  0  0  0  0  0  0  0  0  0  0  0
   -0.0860    0.5910    1.9740 O   0  0  0  0  0  0  0  0  0  0  0  0
    1.1440   -0.8610    0.6630 C   0  0  0  0  0  0  0  0  0  0  0  0
    1.4900   -1.8890   -0.1460 C   0  0  0  0  0  0  0  0  0  0  0  0
    2.7690   -2.0280   -0.5270 C   0  0  0  0  0  0  0  0  0  0  0  0
    3.6740   -1.1320   -0.0880 C   0  0  0  0  0  0  0  0  0  0  0  0
    5.1130   -1.0480   -0.3280 C   0  0  0  0  0  0  0  0  0  0  0  0
    5.7810    0.0460   -0.5680 C   0  0  0  0  0  0  0  0  0  0  0  0
    7.5760    0.0210   -0.8490 S   0  0  0  0  0  0  0  0  0  0  0  0
    7.7190    1.7680   -1.1550 C   0  0  0  0  0  0  0  0  0  0  0  0
    8.7770    2.3450   -1.4500 O   0  0  0  0  0  0  0  0  0  0  0  0
    6.4560    2.3210   -0.9990 N   0  0  0  0  0  0  0  0  0  0  0  0
    5.4270    1.4320   -0.6910 C   0  0  0  0  0  0  0  0  0  0  0  0
    4.2170    1.8200   -0.5240 O   0  0  0  0  0  0  0  0  0  0  0  0
    2.6960   -0.0200    0.9190 S   0  0  0  0  0  0  0  0  0  0  0  0
   -3.9340    0.7610    1.2480 C   0  0  0  0  0  0  0  0  0  0  0  0
   -4.9250    1.6420    0.8240 O   0  0  0  0  0  0  0  0  0  0  0  0
   -3.2550    1.1300    2.3170 C   0  0  0  0  0  0  0  0  0  0  0  0
   -3.5300    2.3000    2.9300 F   0  0  0  0  0  0  0  0  0  0  0  0
  2  1  1  6
  2  3  1  0
  2  4  1  0
  2  5  1  0
  5  6  2  3
  6  7  1  0
  6 24  1  0
  7  8  1  0
  8  9  1  0
  9 10  2  0
  9 11  1  0
 11 12  2  0
 11 23  1  0
 12 13  1  0
 13 14  2  0
 14 15  1  0
 14 23  1  0
 15 16  2  3
 16 17  1  0
 16 21  1  0
 17 18  1  0
 18 19  2  0
 18 20  1  0
 20 21  1  0
 21 22  2  0
 24 25  1  0
 24 26  2  3
 26 27  1  0
M  END
