
     RDKit          3D

 27 27  0  0  0  0  0  0  0  0999 V2000
   -3.3420    3.6490    0.7600 C   0  0  0  0  0  0  0  0  0  0  0  0
   -2.7690    1.9910    0.4630 S   0  0  0  0  0  0  0  0  0  0  0  0
   -4.0960    0.8290    0.2100 C   0  0  0  0  0  0  0  0  0  0  0  0
   -5.3540    1.2850    0.2620 C   0  0  0  0  0  0  0  0  0  0  0  0
   -6.5480    0.4800    0.0790 C   0  0  0  0  0  0  0  0  0  0  0  0
   -6.2110   -0.9290   -0.1640 C   0  0  0  0  0  0  0  0  0  0  0  0
   -7.2520   -1.8390   -0.3480 F   0  0  0  0  0  0  0  0  0  0  0  0
   -5.0170   -1.4320   -0.2260 C   0  0  0  0  0  0  0  0  0  0  0  0
   -4.8120   -2.8940   -0.4800 C   0  0  2  0  0  0  0  0  0  0  0  0
   -4.1550   -3.4790    0.5590 F   0  0  0  0  0  0  0  0  0  0  0  0
   -4.1270   -3.0570   -1.6520 F   0  0  0  0  0  0  0  0  0  0  0  0
   -3.8150   -0.5640   -0.0380 C   0  0  0  0  0  0  0  0  0  0  0  0
   -2.6320   -1.1300   -0.1170 C   0  0  0  0  0  0  0  0  0  0  0  0
   -1.3260   -0.5830    0.0090 C   0  0  0  0  0  0  0  0  0  0  0  0
   -0.9690    0.5930    0.2300 O   0  0  0  0  0  0  0  0  0  0  0  0
   -0.1660   -1.4800   -0.1310 N   0  0  0  0  0  0  0  0  0  0  0  0
    1.1320   -0.9480   -0.0080 N   0  0  0  0  0  0  0  0  0  0  0  0
    2.2260   -1.8100    0.2530 C   0  0  0  0  0  0  0  0  0  0  0  0
    2.0260   -3.0580    0.3740 O   0  0  0  0  0  0  0  0  0  0  0  0
    3.5980   -1.3120    0.3910 C   0  0  0  0  0  0  0  0  0  0  0  0
    3.6790    0.4440    0.2160 S   0  0  1  0  0  0  0  0  0  0  0  0
    3.2440    0.9150   -1.1290 O   0  0  0  0  0  0  0  0  0  0  0  0
    2.8640    1.0510    1.3320 O   0  0  0  0  0  0  0  0  0  0  0  0
    5.4040    0.9220    0.3980 C   0  0  0  0  0  0  0  0  0  0  0  0
    6.1720    0.2210   -0.6910 C   0  0  0  0  0  0  0  0  0  0  0  0
    7.6420    0.5900   -0.5820 C   0  0  0  0  0  0  0  0  0  0  0  0
    7.7280    1.9720   -0.7270 O   0  0  0  0  0  0  0  0  0  0  0  0
  1  2  1  0
  2  3  1  0
  3  4  2  0
  3 12  1  0
  4  5  1  0
  5  6  1  0
  6  7  1  0
  6  8  2  0
  8  9  1  0
  8 12  1  0
  9 10  1  1
  9 11  1  0
 12 13  2  3
 13 14  1  0
 14 15  2  0
 14 16  1  0
 16 17  1  0
 17 18  1  0
 18 19  2  0
 18 20  1  0
 21 20  1  6
 21 22  2  0
 21 23  2  0
 21 24  1  0
 24 25  1  0
 25 26  1  0
 26 27  1  0
M  END
