
     RDKit          3D

 26 27  0  0  0  0  0  0  0  0999 V2000
   -2.0930    1.7530    2.1150 C   0  0  0  0  0  0  0  0  0  0  0  0
   -0.9350    1.2310    1.2890 C   0  0  0  0  0  0  0  0  0  0  0  0
    0.2350    1.1560    1.8740 C   0  0  0  0  0  0  0  0  0  0  0  0
    1.6350    0.5600    0.9890 S   0  0  0  0  0  0  0  0  0  0  0  0
    1.0260    0.2160   -0.6770 C   0  0  0  0  0  0  0  0  0  0  0  0
    1.9240   -0.2170   -1.5540 C   0  0  0  0  0  0  0  0  0  0  0  0
    1.5360   -0.5170   -2.9000 C   0  0  0  0  0  0  0  0  0  0  0  0
    2.2300   -0.9300   -3.8530 O   0  0  0  0  0  0  0  0  0  0  0  0
    3.2480   -0.3560   -1.0780 N   0  0  0  0  0  0  0  0  0  0  0  0
    4.4020   -0.7780   -1.7290 C   0  0  0  0  0  0  0  0  0  0  0  0
    4.3020   -1.0940   -2.9240 O   0  0  0  0  0  0  0  0  0  0  0  0
    5.7210   -0.8650   -1.0680 C   0  0  0  0  0  0  0  0  0  0  0  0
    5.8920   -0.5490    0.1790 C   0  0  0  0  0  0  0  0  0  0  0  0
    7.2860   -0.6780    0.7470 C   0  0  2  0  0  0  0  0  0  0  0  0
    7.6590   -1.9920    0.8640 F   0  0  0  0  0  0  0  0  0  0  0  0
    7.4050   -0.0270    1.9500 F   0  0  0  0  0  0  0  0  0  0  0  0
   -0.3560    0.4310   -0.9390 C   0  0  0  0  0  0  0  0  0  0  0  0
   -1.2570    0.8900   -0.0630 C   0  0  0  0  0  0  0  0  0  0  0  0
   -2.9070    1.0290   -0.7030 S   0  0  2  0  0  0  0  0  0  0  0  0
   -2.7790    1.4730   -2.1310 O   0  0  0  0  0  0  0  0  0  0  0  0
   -3.6100    2.1460    0.0200 O   0  0  0  0  0  0  0  0  0  0  0  0
   -3.7930   -0.4150   -0.5520 N   0  0  0  0  0  0  0  0  0  0  0  0
   -4.8630   -0.2180    0.3990 C   0  0  1  0  0  0  0  0  0  0  0  0
   -6.1770   -0.8370   -0.0600 C   0  0  0  0  0  0  0  0  0  0  0  0
   -6.4230   -1.3440    1.2150 O   0  0  0  0  0  0  0  0  0  0  0  0
   -5.0230   -1.3300    1.4100 C   0  0  0  0  0  0  0  0  0  0  0  0
  1  2  1  0
  2  3  2  0
  2 18  1  0
  3  4  1  0
  4  5  1  0
  5  6  2  3
  5 17  1  0
  6  7  1  0
  6  9  1  0
  7  8  2  0
  9 10  1  0
 10 11  2  0
 10 12  1  0
 12 13  2  3
 13 14  1  0
 14 15  1  1
 14 16  1  0
 17 18  2  0
 18 19  1  0
 19 20  2  0
 19 21  2  0
 19 22  1  6
 23 22  1  6
 23 24  1  0
 23 26  1  0
 24 25  1  0
 25 26  1  0
M  END
