
     RDKit          3D

 45 50  0  0  0  0  0  0  0  0999 V2000
   -9.5230   -1.7890    2.8760 C   0  0  0  0  0  0  0  0  0  0  0  0
   -9.3110   -0.3870    2.3690 C   0  0  0  0  0  0  0  0  0  0  0  0
   -8.2040   -0.4210    1.4770 O   0  0  0  0  0  0  0  0  0  0  0  0
   -7.7990    0.7830    0.8650 C   0  0  0  0  0  0  0  0  0  0  0  0
   -8.4450    1.9770    1.0820 C   0  0  0  0  0  0  0  0  0  0  0  0
   -8.0330    3.1450    0.4770 C   0  0  0  0  0  0  0  0  0  0  0  0
   -8.7730    4.4170    0.7550 C   0  0  0  0  0  0  0  0  0  0  0  0
   -6.9520    3.0590   -0.3490 C   0  0  0  0  0  0  0  0  0  0  0  0
   -6.4960    4.2990   -1.0240 C   0  0  0  0  0  0  0  0  0  0  0  0
   -6.2850    1.8440   -0.5790 C   0  0  0  0  0  0  0  0  0  0  0  0
   -6.6990    0.6850    0.0260 C   0  0  0  0  0  0  0  0  0  0  0  0
   -6.0970   -0.5910   -0.2260 N   0  0  0  0  0  0  0  0  0  0  0  0
   -4.7560   -0.7620   -0.5500 C   0  0  0  0  0  0  0  0  0  0  0  0
   -4.0110    0.2970   -0.5910 O   0  0  0  0  0  0  0  0  0  0  0  0
   -4.0770   -2.0870   -0.8540 C   0  0  0  0  0  0  0  0  0  0  0  0
   -2.6940   -1.8970   -0.8140 O   0  0  0  0  0  0  0  0  0  0  0  0
   -2.0290   -1.0540   -1.6700 C   0  0  0  0  0  0  0  0  0  0  0  0
   -2.6300   -0.4320   -2.5770 O   0  0  0  0  0  0  0  0  0  0  0  0
   -0.5560   -0.8810   -1.4880 C   0  0  0  0  0  0  0  0  0  0  0  0
    0.4950    0.1400   -2.4230 S   0  0  0  0  0  0  0  0  0  0  0  0
    2.0430   -0.3010   -1.3760 C   0  0  0  0  0  0  0  0  0  0  0  0
    3.2830    0.4060   -1.7440 C   0  0  0  0  0  0  0  0  0  0  0  0
    4.3590   -0.3900   -2.3680 C   0  0  0  0  0  0  0  0  0  0  0  0
    5.0110   -1.2470   -1.5860 O   0  0  0  0  0  0  0  0  0  0  0  0
    4.9730   -2.3400   -0.8590 C   0  0  0  0  0  0  0  0  0  0  0  0
    3.8840   -2.9770   -0.7960 O   0  0  0  0  0  0  0  0  0  0  0  0
    6.1900   -2.8690   -0.0930 C   0  0  0  0  0  0  0  0  0  0  0  0
    7.0440   -1.6810    0.1550 C   0  0  1  0  0  0  0  0  0  0  0  0
    8.2490   -1.9040    0.8400 O   0  0  0  0  0  0  0  0  0  0  0  0
    9.0430   -0.7620    0.6220 C   0  0  0  0  0  0  0  0  0  0  0  0
   10.0870   -0.1500    1.3120 C   0  0  0  0  0  0  0  0  0  0  0  0
   10.6990    0.9990    0.8510 C   0  0  0  0  0  0  0  0  0  0  0  0
   11.7180    1.7990    1.3230 C   0  0  0  0  0  0  0  0  0  0  0  0
   11.8580    2.8250    0.3900 C   0  0  0  0  0  0  0  0  0  0  0  0
   10.9670    2.6260   -0.5720 N   0  0  0  0  0  0  0  0  0  0  0  0
   10.2270    1.5290   -0.3520 C   0  0  0  0  0  0  0  0  0  0  0  0
    9.1900    0.9070   -1.0250 C   0  0  0  0  0  0  0  0  0  0  0  0
    8.7650    1.4560   -2.1870 F   0  0  0  0  0  0  0  0  0  0  0  0
    8.5730   -0.2300   -0.5800 C   0  0  0  0  0  0  0  0  0  0  0  0
    7.5340   -1.0600   -1.0290 O   0  0  0  0  0  0  0  0  0  0  0  0
    1.5290   -1.0680   -0.5930 N   0  0  0  0  0  0  0  0  0  0  0  0
    0.2720   -1.4330   -0.5480 C   0  0  0  0  0  0  0  0  0  0  0  0
   -0.3820   -2.2800    0.5350 C   0  0  1  0  0  0  0  0  0  0  0  0
   -0.3010   -3.7420    0.5990 C   0  0  0  0  0  0  0  0  0  0  0  0
    0.7630   -3.0110    1.3230 C   0  0  0  0  0  0  0  0  0  0  0  0
  1  2  1  0
  2  3  1  0
  3  4  1  0
  4  5  2  0
  4 11  1  0
  5  6  1  0
  6  7  1  0
  6  8  2  0
  8  9  1  0
  8 10  1  0
 10 11  2  0
 11 12  1  0
 12 13  1  0
 13 14  2  0
 13 15  1  0
 15 16  1  0
 16 17  1  0
 17 18  2  0
 17 19  1  0
 19 20  1  0
 19 42  2  0
 20 21  1  0
 21 22  1  0
 21 41  2  0
 22 23  1  0
 23 24  1  0
 24 25  1  0
 25 26  2  0
 25 27  1  0
 28 27  1  6
 28 29  1  0
 28 40  1  0
 29 30  1  0
 30 31  2  0
 30 39  1  0
 31 32  1  0
 32 33  1  0
 32 36  2  0
 33 34  2  0
 34 35  1  0
 35 36  1  0
 36 37  1  0
 37 38  1  0
 37 39  2  0
 39 40  1  0
 41 42  1  0
 43 42  1  6
 43 44  1  0
 43 45  1  0
 44 45  1  0
M  END
