
     RDKit          3D

 47 53  0  0  0  0  0  0  0  0999 V2000
   -0.7850    1.2950    4.5470 C   0  0  0  0  0  0  0  0  0  0  0  0
    0.5170    1.7470    3.8670 C   0  0  1  0  0  0  0  0  0  0  0  0
    1.2950    0.5060    3.5920 C   0  0  0  0  0  0  0  0  0  0  0  0
    2.5170    0.8310    2.7850 C   0  0  0  0  0  0  0  0  0  0  0  0
    2.2260    1.6240    1.5250 C   0  0  1  0  0  0  0  0  0  0  0  0
    3.0240    1.0520    0.4360 C   0  0  0  0  0  0  0  0  0  0  0  0
    4.3030    0.7460    0.9280 C   0  0  0  0  0  0  0  0  0  0  0  0
    5.2940    0.1940    0.1490 C   0  0  0  0  0  0  0  0  0  0  0  0
    6.6500   -0.1270    0.6310 C   0  0  0  0  0  0  0  0  0  0  0  0
    7.7130    0.2930   -0.1770 C   0  0  0  0  0  0  0  0  0  0  0  0
    9.0170    0.0620    0.1560 C   0  0  0  0  0  0  0  0  0  0  0  0
    9.2960   -0.6080    1.3310 C   0  0  0  0  0  0  0  0  0  0  0  0
    8.2570   -1.0190    2.1230 C   0  0  0  0  0  0  0  0  0  0  0  0
    6.9310   -0.7820    1.7790 C   0  0  0  0  0  0  0  0  0  0  0  0
    5.6290   -1.3320    2.8120 Cl  0  0  0  0  0  0  0  0  0  0  0  0
    4.9870   -0.0590   -1.1720 C   0  0  0  0  0  0  0  0  0  0  0  0
    3.7370    0.2300   -1.6910 C   0  0  0  0  0  0  0  0  0  0  0  0
    2.7560    0.7830   -0.8990 C   0  0  0  0  0  0  0  0  0  0  0  0
    1.5080    1.0430   -1.6110 C   0  0  0  0  0  0  0  0  0  0  0  0
    1.3720    0.4750   -2.7440 O   0  0  0  0  0  0  0  0  0  0  0  0
    0.4040    1.8630   -1.1920 N   0  0  0  0  0  0  0  0  0  0  0  0
   -0.5620    2.2340   -2.1610 C   0  0  0  0  0  0  0  0  0  0  0  0
   -0.1320    3.0560   -3.1890 C   0  0  0  0  0  0  0  0  0  0  0  0
   -0.9790    3.4780   -4.2020 C   0  0  0  0  0  0  0  0  0  0  0  0
   -2.2970    3.0730   -4.1980 C   0  0  0  0  0  0  0  0  0  0  0  0
   -2.7130    2.2600   -3.1780 C   0  0  0  0  0  0  0  0  0  0  0  0
   -1.8680    1.8270   -2.1500 C   0  0  0  0  0  0  0  0  0  0  0  0
   -2.3370    0.9790   -1.0820 C   0  0  0  0  0  0  0  0  0  0  0  0
   -2.8200    1.4910   -0.0510 O   0  0  0  0  0  0  0  0  0  0  0  0
   -2.2570   -0.4230   -1.1880 N   0  0  0  0  0  0  0  0  0  0  0  0
   -1.7130   -1.0860   -2.3300 C   0  0  0  0  0  0  0  0  0  0  0  0
   -2.6570   -2.0760   -2.9120 C   0  0  0  0  0  0  0  0  0  0  0  0
   -3.6500   -2.5390   -1.9230 C   0  0  0  0  0  0  0  0  0  0  0  0
   -3.7260   -2.1650   -0.6060 C   0  0  0  0  0  0  0  0  0  0  0  0
   -4.7920   -2.8270   -0.0450 C   0  0  0  0  0  0  0  0  0  0  0  0
   -5.2470   -2.7270    1.3510 C   0  0  0  0  0  0  0  0  0  0  0  0
   -5.9960   -1.4620    1.6680 C   0  0  0  0  0  0  0  0  0  0  0  0
   -7.2230   -1.2850    0.8710 C   0  0  0  0  0  0  0  0  0  0  0  0
   -7.5750   -2.0970    0.0570 O   0  0  0  0  0  0  0  0  0  0  0  0
   -5.3510   -3.5890   -1.0050 N   0  0  0  0  0  0  0  0  0  0  0  0
   -4.6780   -3.4240   -2.1270 N   0  0  0  0  0  0  0  0  0  0  0  0
   -4.9690   -4.0730   -3.3850 C   0  0  0  0  0  0  0  0  0  0  0  0
   -2.7590   -1.2200   -0.0590 C   0  0  0  0  0  0  0  0  0  0  0  0
    0.2370    2.3280    0.1530 C   0  0  0  0  0  0  0  0  0  0  0  0
   -0.4430    3.4130    0.2720 O   0  0  0  0  0  0  0  0  0  0  0  0
    0.7640    1.6870    1.3760 C   0  0  2  0  0  0  0  0  0  0  0  0
    0.2020    2.4340    2.5690 C   0  0  0  0  0  0  0  0  0  0  0  0
  2  1  1  6
  2  3  1  0
  2 47  1  0
  3  4  1  0
  5  4  1  1
  5  6  1  0
  5 46  1  0
  6  7  2  0
  6 18  1  0
  7  8  1  0
  8  9  1  0
  8 16  2  0
  9 10  2  0
  9 14  1  0
 10 11  1  0
 11 12  2  0
 12 13  1  0
 13 14  2  0
 14 15  1  0
 16 17  1  0
 17 18  2  0
 18 19  1  0
 19 20  2  0
 19 21  1  0
 21 22  1  0
 21 44  1  0
 22 23  2  0
 22 27  1  0
 23 24  1  0
 24 25  2  0
 25 26  1  0
 26 27  2  0
 27 28  1  0
 28 29  2  0
 28 30  1  0
 30 31  1  0
 30 43  1  0
 31 32  1  0
 32 33  1  0
 33 34  2  0
 33 41  1  0
 34 35  1  0
 34 43  1  0
 35 36  1  0
 35 40  2  0
 36 37  1  0
 37 38  1  0
 38 39  2  0
 40 41  1  0
 41 42  1  0
 44 45  2  0
 44 46  1  0
 46 47  1  1
M  CHG  1  40   1
M  END
