
     RDKit          3D

 47 52  0  0  0  0  0  0  0  0999 V2000
   12.1870    0.5380    0.8950 C   0  0  0  0  0  0  0  0  0  0  0  0
   12.5700    1.5000   -0.1640 N   0  0  0  0  0  0  0  0  0  0  0  0
   12.3500    0.8780   -1.4650 C   0  0  0  0  0  0  0  0  0  0  0  0
   11.6180    2.6230   -0.0060 C   0  0  0  0  0  0  0  0  0  0  0  0
   10.2710    2.1220   -0.3060 C   0  0  0  0  0  0  0  0  0  0  0  0
    9.0940    1.6820   -0.5460 C   0  0  0  0  0  0  0  0  0  0  0  0
    7.7920    1.2200   -0.8140 C   0  0  0  0  0  0  0  0  0  0  0  0
    7.5510    0.3910   -1.8740 C   0  0  0  0  0  0  0  0  0  0  0  0
    6.3230   -0.1110   -2.1620 C   0  0  0  0  0  0  0  0  0  0  0  0
    5.1940    0.2230   -1.3320 C   0  0  0  0  0  0  0  0  0  0  0  0
    4.0670   -0.2920   -1.6480 O   0  0  0  0  0  0  0  0  0  0  0  0
    3.1040   -0.9440   -2.2360 C   0  0  0  0  0  0  0  0  0  0  0  0
    1.7100   -0.9280   -1.5950 C   0  0  0  0  0  0  0  0  0  0  0  0
    1.7600   -1.5930   -0.2540 C   0  0  0  0  0  0  0  0  0  0  0  0
    0.3540   -1.5260    0.2760 C   0  0  0  0  0  0  0  0  0  0  0  0
   -0.2390   -0.3320    1.5120 S   0  0  0  0  0  0  0  0  0  0  0  0
   -2.0080   -1.0250    1.4210 C   0  0  0  0  0  0  0  0  0  0  0  0
   -3.0030   -0.4230    2.3020 N   0  0  0  0  0  0  0  0  0  0  0  0
   -2.5280    0.3820    3.4360 C   0  0  0  0  0  0  0  0  0  0  0  0
   -3.3380   -0.1470    4.6360 C   0  0  0  0  0  0  0  0  0  0  0  0
   -4.7340    0.3680    4.3300 C   0  0  0  0  0  0  0  0  0  0  0  0
   -5.4500    1.0220    5.2810 C   0  0  0  0  0  0  0  0  0  0  0  0
   -6.7250    1.4590    4.9160 C   0  0  0  0  0  0  0  0  0  0  0  0
   -7.2090    1.2280    3.6610 C   0  0  0  0  0  0  0  0  0  0  0  0
   -6.4780    0.5540    2.6700 C   0  0  0  0  0  0  0  0  0  0  0  0
   -7.0890    0.3540    1.3850 C   0  0  0  0  0  0  0  0  0  0  0  0
   -7.2690   -0.8290    0.9360 O   0  0  0  0  0  0  0  0  0  0  0  0
   -7.5530    1.3870    0.5150 N   0  0  0  0  0  0  0  0  0  0  0  0
   -8.2520    1.0160   -0.7180 C   0  0  0  0  0  0  0  0  0  0  0  0
   -8.6400    0.2120   -1.4020 N   0  0  0  0  0  0  0  0  0  0  0  0
   -9.3120    0.1820   -2.4930 C   0  0  0  0  0  0  0  0  0  0  0  0
   -9.7950   -0.8220   -3.3240 C   0  0  0  0  0  0  0  0  0  0  0  0
  -10.5040   -0.6520   -4.4390 C   0  0  0  0  0  0  0  0  0  0  0  0
  -10.8510    0.6400   -4.9170 C   0  0  0  0  0  0  0  0  0  0  0  0
  -10.3850    1.6540   -4.1170 C   0  0  0  0  0  0  0  0  0  0  0  0
   -9.6570    1.4750   -2.9680 C   0  0  0  0  0  0  0  0  0  0  0  0
   -8.9330    2.5120   -1.7290 S   0  0  0  0  0  0  0  0  0  0  0  0
   -5.2040    0.1270    3.0580 C   0  0  0  0  0  0  0  0  0  0  0  0
   -4.4040   -0.6070    2.0420 C   0  0  0  0  0  0  0  0  0  0  0  0
   -1.8420   -1.8540    0.6390 N   0  0  0  0  0  0  0  0  0  0  0  0
   -0.7840   -2.2490   -0.0220 C   0  0  0  0  0  0  0  0  0  0  0  0
   -0.7510   -3.4080   -0.9520 C   0  0  0  0  0  0  0  0  0  0  0  0
   -1.8230   -4.0280   -1.2430 O   0  0  0  0  0  0  0  0  0  0  0  0
    0.4180   -3.8580   -1.5240 O   0  0  0  0  0  0  0  0  0  0  0  0
    5.4740    1.0670   -0.2660 C   0  0  0  0  0  0  0  0  0  0  0  0
    4.4670    1.4340    0.5610 F   0  0  0  0  0  0  0  0  0  0  0  0
    6.7150    1.5620    0.0060 C   0  0  0  0  0  0  0  0  0  0  0  0
  1  2  1  0
  2  3  1  0
  2  4  1  0
  4  5  1  0
  5  6  3  0
  6  7  1  0
  7  8  2  0
  7 47  1  0
  8  9  1  0
  9 10  2  0
 10 11  1  0
 10 45  1  0
 11 12  1  0
 12 13  1  0
 13 14  1  0
 14 15  1  0
 15 16  1  0
 15 41  2  0
 16 17  1  0
 17 18  1  0
 17 40  2  0
 18 19  1  0
 18 39  1  0
 19 20  1  0
 20 21  1  0
 21 22  2  0
 21 38  1  0
 22 23  1  0
 23 24  2  0
 24 25  1  0
 25 26  1  0
 25 38  2  0
 26 27  2  0
 26 28  1  0
 28 29  1  0
 29 30  2  0
 29 37  1  0
 30 31  1  0
 31 32  2  0
 31 36  1  0
 32 33  1  0
 33 34  2  0
 34 35  1  0
 35 36  2  0
 36 37  1  0
 38 39  1  0
 40 41  1  0
 41 42  1  0
 42 43  2  0
 42 44  1  0
 45 46  1  0
 45 47  2  0
M  END
