
     RDKit          3D

 21 23  0  0  0  0  0  0  0  0999 V2000
   -0.1830    1.7160    0.9250 O   0  0  0  0  0  0  0  0  0  0  0  0
    0.4230    0.8710    0.2200 C   0  0  0  0  0  0  0  0  0  0  0  0
   -0.3310    0.1230   -0.6520 O   0  0  0  0  0  0  0  0  0  0  0  0
   -1.7130    0.2530   -0.7930 C   0  0  0  0  0  0  0  0  0  0  0  0
   -2.2640    1.1260   -1.6970 C   0  0  0  0  0  0  0  0  0  0  0  0
   -3.6250    1.2400   -1.8210 C   0  0  0  0  0  0  0  0  0  0  0  0
   -4.4820    0.4680   -1.0280 C   0  0  0  0  0  0  0  0  0  0  0  0
   -3.9500   -0.4150   -0.1150 C   0  0  0  0  0  0  0  0  0  0  0  0
   -4.7980   -1.1790    0.6700 C   0  0  0  0  0  0  0  0  0  0  0  0
   -4.2370   -2.0550    1.5760 C   0  0  0  0  0  0  0  0  0  0  0  0
   -2.8680   -2.1580    1.6890 C   0  0  0  0  0  0  0  0  0  0  0  0
   -2.0430   -1.3930    0.9050 C   0  0  0  0  0  0  0  0  0  0  0  0
   -2.5700   -0.5030   -0.0170 C   0  0  0  0  0  0  0  0  0  0  0  0
    1.8550    0.7620    0.3910 C   0  0  0  0  0  0  0  0  0  0  0  0
    2.5400   -0.1130   -0.3280 C   0  0  0  0  0  0  0  0  0  0  0  0
    3.9750   -0.1520   -0.0880 C   0  0  0  0  0  0  0  0  0  0  0  0
    4.8120   -0.4620   -1.0720 C   0  0  0  0  0  0  0  0  0  0  0  0
    6.1640   -0.4740   -0.7520 O   0  0  0  0  0  0  0  0  0  0  0  0
    4.4220    0.1650    1.2820 C   0  0  0  0  0  0  0  0  0  0  0  0
    3.6180    1.0040    1.9900 O   0  0  0  0  0  0  0  0  0  0  0  0
    2.5830    1.5980    1.3400 C   0  0  0  0  0  0  0  0  0  0  0  0
  1  2  2  0
  2  3  1  0
  2 14  1  0
  3  4  1  0
  4  5  2  0
  4 13  1  0
  5  6  1  0
  6  7  2  0
  7  8  1  0
  8  9  2  0
  8 13  1  0
  9 10  1  0
 10 11  2  0
 11 12  1  0
 12 13  2  0
 14 15  2  0
 14 21  1  0
 15 16  1  0
 16 17  2  3
 16 19  1  0
 17 18  1  0
 19 20  1  0
 20 21  1  0
M  END
