
     RDKit          3D

 21 22  0  0  0  0  0  0  0  0999 V2000
    4.2490   -2.2710    0.3540 C   0  0  0  0  0  0  0  0  0  0  0  0
    2.8540   -2.7690    0.4120 C   0  0  0  0  0  0  0  0  0  0  0  0
    1.8070   -1.9320    0.3180 C   0  0  0  0  0  0  0  0  0  0  0  0
    1.9870   -0.5390    0.1590 C   0  0  0  0  0  0  0  0  0  0  0  0
    1.2250    0.4860    0.0630 C   0  0  0  0  0  0  0  0  0  0  0  0
    1.8000    1.8480   -0.1250 C   0  0  0  0  0  0  0  0  0  0  0  0
    1.1630    2.8640   -0.7390 C   0  0  0  0  0  0  0  0  0  0  0  0
    1.9720    4.0700   -0.7730 C   0  0  0  0  0  0  0  0  0  0  0  0
    1.5140    5.0990   -1.3110 O   0  0  0  0  0  0  0  0  0  0  0  0
    3.2300    4.1000   -0.2240 O   0  0  0  0  0  0  0  0  0  0  0  0
   -0.1440    2.9790   -1.3590 C   0  0  0  0  0  0  0  0  0  0  0  0
   -1.0260    1.9160   -1.3210 O   0  0  0  0  0  0  0  0  0  0  0  0
   -1.2210    0.9000   -0.3820 C   0  0  0  0  0  0  0  0  0  0  0  0
   -0.2120    0.2730    0.2270 C   0  0  0  0  0  0  0  0  0  0  0  0
   -0.5100   -0.7160    1.2500 C   0  0  0  0  0  0  0  0  0  0  0  0
    0.3720   -0.7910    2.1690 O   0  0  0  0  0  0  0  0  0  0  0  0
   -1.7290   -1.5080    1.1600 C   0  0  0  0  0  0  0  0  0  0  0  0
   -2.7650   -0.9500    0.2400 C   0  0  1  0  0  0  0  0  0  0  0  0
   -2.7750   -1.6680   -1.1080 C   0  0  0  0  0  0  0  0  0  0  0  0
   -4.1240   -1.2100    0.8850 C   0  0  0  0  0  0  0  0  0  0  0  0
   -2.5860    0.5210   -0.0650 C   0  0  0  0  0  0  0  0  0  0  0  0
  1  2  1  0
  2  3  2  3
  3  4  1  0
  4  5  2  3
  5  6  1  0
  5 14  1  0
  6  7  2  0
  7  8  1  0
  7 11  1  0
  8  9  2  0
  8 10  1  0
 11 12  1  0
 12 13  1  0
 13 14  2  0
 13 21  1  0
 14 15  1  0
 15 16  2  0
 15 17  1  0
 17 18  1  0
 18 19  1  6
 18 20  1  0
 18 21  1  0
M  END
