
     RDKit          3D

 21 23  0  0  0  0  0  0  0  0999 V2000
    4.3000    1.7430   -0.2590 C   0  0  0  0  0  0  0  0  0  0  0  0
    2.8980    1.8210   -0.5730 C   0  0  0  0  0  0  0  0  0  0  0  0
    1.8650    1.0640   -0.4310 C   0  0  0  0  0  0  0  0  0  0  0  0
    1.8020   -0.2540    0.1650 C   0  0  0  0  0  0  0  0  0  0  0  0
    3.0680   -0.7290    0.7750 C   0  0  0  0  0  0  0  0  0  0  0  0
    2.9820   -1.9410    1.4500 O   0  0  0  0  0  0  0  0  0  0  0  0
    0.7320   -1.0060    0.3120 C   0  0  0  0  0  0  0  0  0  0  0  0
    0.7040   -2.3760    0.9010 C   0  0  0  0  0  0  0  0  0  0  0  0
   -0.5470   -3.1250    0.4620 C   0  0  0  0  0  0  0  0  0  0  0  0
   -1.0250   -2.5960   -0.8970 C   0  0  0  0  0  0  0  0  0  0  0  0
   -1.4890   -1.1930   -0.6880 C   0  0  0  0  0  0  0  0  0  0  0  0
   -2.7010   -0.6860   -1.0220 C   0  0  0  0  0  0  0  0  0  0  0  0
   -3.0320    0.6260   -0.6650 C   0  0  0  0  0  0  0  0  0  0  0  0
   -2.1240    1.3980    0.0260 C   0  0  0  0  0  0  0  0  0  0  0  0
   -0.8880    0.8830    0.3660 C   0  0  0  0  0  0  0  0  0  0  0  0
   -0.5870   -0.4080   -0.0000 C   0  0  0  0  0  0  0  0  0  0  0  0
   -2.4490    2.6930    0.3810 O   0  0  0  0  0  0  0  0  0  0  0  0
   -3.7070    3.2340    0.0410 C   0  0  0  0  0  0  0  0  0  0  0  0
   -3.8930    4.4730   -0.0410 O   0  0  0  0  0  0  0  0  0  0  0  0
   -4.8020    2.2720   -0.2150 C   0  0  0  0  0  0  0  0  0  0  0  0
   -4.2630    1.1890   -0.9860 O   0  0  0  0  0  0  0  0  0  0  0  0
  1  2  1  0
  2  3  2  3
  3  4  1  0
  4  5  1  0
  4  7  2  3
  5  6  1  0
  7  8  1  0
  7 16  1  0
  8  9  1  0
  9 10  1  0
 10 11  1  0
 11 12  2  0
 11 16  1  0
 12 13  1  0
 13 14  2  0
 13 21  1  0
 14 15  1  0
 14 17  1  0
 15 16  2  0
 17 18  1  0
 18 19  2  0
 18 20  1  0
 20 21  1  0
M  END
