
     RDKit          3D

 21 23  0  0  0  0  0  0  0  0999 V2000
   -5.5370   -1.0370   -0.6790 C   0  0  0  0  0  0  0  0  0  0  0  0
   -4.7990   -0.9530    0.6390 C   0  0  0  0  0  0  0  0  0  0  0  0
   -3.4160   -0.4460    0.4780 C   0  0  0  0  0  0  0  0  0  0  0  0
   -2.3130   -1.2920    0.5360 C   0  0  0  0  0  0  0  0  0  0  0  0
   -1.0190   -0.7910    0.3810 C   0  0  0  0  0  0  0  0  0  0  0  0
   -0.8140    0.5500    0.1690 C   0  0  0  0  0  0  0  0  0  0  0  0
   -1.8970    1.3910    0.1110 C   0  0  0  0  0  0  0  0  0  0  0  0
   -3.1820    0.8960    0.2640 C   0  0  0  0  0  0  0  0  0  0  0  0
   -4.3440    1.8360    0.1950 C   0  0  0  0  0  0  0  0  0  0  0  0
    0.4840    0.9960    0.0220 O   0  0  0  0  0  0  0  0  0  0  0  0
    1.5820    0.1660    0.0780 C   0  0  0  0  0  0  0  0  0  0  0  0
    2.8260    0.6360    0.0130 C   0  0  0  0  0  0  0  0  0  0  0  0
    3.9740   -0.2380    0.0710 C   0  0  0  0  0  0  0  0  0  0  0  0
    5.2010    0.2150    0.0100 C   0  0  0  0  0  0  0  0  0  0  0  0
    6.4230   -0.6150    0.0630 C   0  0  0  0  0  0  0  0  0  0  0  0
    7.4900    0.1560   -0.0240 C   0  0  0  0  0  0  0  0  0  0  0  0
    7.0940    1.4770   -0.1340 O   0  0  0  0  0  0  0  0  0  0  0  0
    5.6910    1.5750   -0.1180 C   0  0  0  0  0  0  0  0  0  0  0  0
    5.0160    2.6340   -0.2000 O   0  0  0  0  0  0  0  0  0  0  0  0
    1.3910   -1.2860    0.2120 C   0  0  0  0  0  0  0  0  0  0  0  0
    0.0560   -1.6460    0.4420 O   0  0  0  0  0  0  0  0  0  0  0  0
  1  2  1  0
  2  3  1  0
  3  4  2  0
  3  8  1  0
  4  5  1  0
  5  6  2  0
  5 21  1  0
  6  7  1  0
  6 10  1  0
  7  8  2  0
  8  9  1  0
 10 11  1  0
 11 12  2  3
 11 20  1  0
 12 13  1  0
 13 14  2  3
 14 15  1  0
 14 18  1  0
 15 16  2  0
 16 17  1  0
 17 18  1  0
 18 19  2  0
 20 21  1  0
M  END
