
     RDKit          3D

 21 23  0  0  0  0  0  0  0  0999 V2000
   -2.6250   -3.2610   -0.1360 C   0  0  0  0  0  0  0  0  0  0  0  0
   -3.2010   -2.0030   -0.4310 O   0  0  0  0  0  0  0  0  0  0  0  0
   -2.3700   -0.8880   -0.4390 C   0  0  0  0  0  0  0  0  0  0  0  0
   -1.0170   -0.9600   -0.1720 C   0  0  0  0  0  0  0  0  0  0  0  0
   -0.1960    0.1500   -0.1810 C   0  0  0  0  0  0  0  0  0  0  0  0
    1.2460    0.0380    0.1090 C   0  0  0  0  0  0  0  0  0  0  0  0
    2.1970    0.6820   -0.6590 C   0  0  0  0  0  0  0  0  0  0  0  0
    3.5500    0.5860   -0.3990 C   0  0  0  0  0  0  0  0  0  0  0  0
    4.4810    1.3140   -1.2810 C   0  0  0  0  0  0  0  0  0  0  0  0
    3.9950   -0.1720    0.6570 C   0  0  0  0  0  0  0  0  0  0  0  0
    3.0700   -0.8190    1.4310 C   0  0  0  0  0  0  0  0  0  0  0  0
    3.5260   -1.6490    2.5850 C   0  0  0  0  0  0  0  0  0  0  0  0
    1.7020   -0.7190    1.1650 C   0  0  0  0  0  0  0  0  0  0  0  0
    0.7630   -1.3710    1.9450 O   0  0  0  0  0  0  0  0  0  0  0  0
   -0.7170    1.3960   -0.4630 C   0  0  0  0  0  0  0  0  0  0  0  0
   -2.0680    1.4850   -0.7320 C   0  0  0  0  0  0  0  0  0  0  0  0
   -2.8800    0.3700   -0.7210 C   0  0  0  0  0  0  0  0  0  0  0  0
   -4.2250    0.5580   -1.0030 O   0  0  0  0  0  0  0  0  0  0  0  0
   -4.6720    1.7640   -1.6050 C   0  0  0  0  0  0  0  0  0  0  0  0
   -4.0160    2.9090   -0.8500 C   0  0  0  0  0  0  0  0  0  0  0  0
   -2.6140    2.7440   -1.0220 O   0  0  0  0  0  0  0  0  0  0  0  0
  1  2  1  0
  2  3  1  0
  3  4  2  0
  3 17  1  0
  4  5  1  0
  5  6  1  0
  5 15  2  0
  6  7  2  0
  6 13  1  0
  7  8  1  0
  8  9  1  0
  8 10  2  0
 10 11  1  0
 11 12  1  0
 11 13  2  0
 13 14  1  0
 15 16  1  0
 16 17  2  0
 16 21  1  0
 17 18  1  0
 18 19  1  0
 19 20  1  0
 20 21  1  0
M  END
