
     RDKit          3D

 35 39  0  0  0  0  0  0  0  0999 V2000
   -1.8580    3.5730   -0.6780 C   0  0  0  0  0  0  0  0  0  0  0  0
   -3.1740    2.9060   -0.8910 C   0  0  1  0  0  0  0  0  0  0  0  0
   -4.0170    3.8280   -1.7820 C   0  0  0  0  0  0  0  0  0  0  0  0
   -3.1410    1.5750   -1.5510 C   0  0  0  0  0  0  0  0  0  0  0  0
   -2.4330    0.5390   -0.9150 N   0  0  0  0  0  0  0  0  0  0  0  0
   -1.0660    0.4560   -0.6290 C   0  0  0  0  0  0  0  0  0  0  0  0
   -0.1320    0.1990   -1.5860 C   0  0  0  0  0  0  0  0  0  0  0  0
    1.2380    0.0900   -1.2810 C   0  0  0  0  0  0  0  0  0  0  0  0
    2.1410   -0.1020   -2.3650 C   0  0  0  0  0  0  0  0  0  0  0  0
    2.8680   -0.2740   -3.2540 N   0  0  0  0  0  0  0  0  0  0  0  0
    1.6210    0.2470    0.0140 C   0  0  0  0  0  0  0  0  0  0  0  0
    2.9300    0.1660    0.4110 C   0  0  0  0  0  0  0  0  0  0  0  0
    3.9970   -0.1890   -0.4350 N   0  0  0  0  0  0  0  0  0  0  0  0
    5.3660   -0.1630    0.1420 C   0  0  2  0  0  0  0  0  0  0  0  0
    5.7260    1.1800    0.6520 C   0  0  0  0  0  0  0  0  0  0  0  0
    7.2500    1.1600    0.5980 C   0  0  0  0  0  0  0  0  0  0  0  0
    7.6150    0.0320   -0.2080 N   0  0  0  0  0  0  0  0  0  0  0  0
    6.4190   -0.4080   -0.9130 C   0  0  0  0  0  0  0  0  0  0  0  0
    3.2200    0.3550    1.7380 N   0  0  0  0  0  0  0  0  0  0  0  0
    2.3160    0.6090    2.6650 C   0  0  0  0  0  0  0  0  0  0  0  0
    2.4120    0.8250    4.0210 N   0  0  0  0  0  0  0  0  0  0  0  0
    1.2040    1.0380    4.5060 N   0  0  0  0  0  0  0  0  0  0  0  0
    0.3090    0.9640    3.4760 C   0  0  0  0  0  0  0  0  0  0  0  0
    0.9990    0.6950    2.3150 C   0  0  0  0  0  0  0  0  0  0  0  0
    0.6490    0.5150    0.9990 C   0  0  0  0  0  0  0  0  0  0  0  0
   -0.6430    0.6040    0.6220 N   0  0  0  0  0  0  0  0  0  0  0  0
   -3.3820   -0.8530   -0.3930 S   0  0  0  0  0  0  0  0  0  0  0  0
   -5.0260   -0.7690   -0.5420 C   0  0  0  0  0  0  0  0  0  0  0  0
   -3.1810   -1.3130   -1.9940 C   0  0  0  0  0  0  0  0  0  0  0  0
   -3.3310   -0.1210    0.8340 O   0  0  0  0  0  0  0  0  0  0  0  0
   -2.5740   -2.1650    0.1760 C   0  0  2  0  0  0  0  0  0  0  0  0
   -3.4160   -3.3950   -0.0870 C   0  0  0  0  0  0  0  0  0  0  0  0
   -3.7050   -4.0250    1.2820 C   0  0  0  0  0  0  0  0  0  0  0  0
   -2.4470   -3.7160    2.0270 C   0  0  0  0  0  0  0  0  0  0  0  0
   -2.2090   -2.2980    1.6440 C   0  0  0  0  0  0  0  0  0  0  0  0
  2  1  1  6
  2  3  1  0
  2  4  1  0
  4  5  1  0
  5  6  1  0
  5 27  1  0
  6  7  2  0
  6 26  1  0
  7  8  1  0
  8  9  1  0
  8 11  2  0
  9 10  3  0
 11 12  1  0
 11 25  1  0
 12 13  1  0
 12 19  2  0
 14 13  1  6
 14 15  1  0
 14 18  1  0
 15 16  1  0
 16 17  1  0
 17 18  1  0
 19 20  1  0
 20 21  1  0
 20 24  2  0
 21 22  1  0
 22 23  2  0
 23 24  1  0
 24 25  1  0
 25 26  2  0
 27 28  1  0
 27 29  1  0
 27 30  2  0
 31 27  1  1
 31 32  1  0
 31 35  1  0
 32 33  1  0
 33 34  1  0
 34 35  1  0
M  CHG  1  17   1
M  END
