
     RDKit          3D

 34 37  0  0  0  0  0  0  0  0999 V2000
    6.7740   -2.6420    0.8630 C   0  0  0  0  0  0  0  0  0  0  0  0
    6.2100   -1.2580    0.8530 C   0  0  0  0  0  0  0  0  0  0  0  0
    5.1650   -0.7940    1.4540 O   0  0  0  0  0  0  0  0  0  0  0  0
    4.9690    0.4700    1.2200 C   0  0  0  0  0  0  0  0  0  0  0  0
    3.8720    1.3050    1.7470 C   0  0  0  0  0  0  0  0  0  0  0  0
    2.8100    1.4030    0.8070 N   0  0  0  0  0  0  0  0  0  0  0  0
    1.7080    2.1870    1.2200 C   0  0  0  0  0  0  0  0  0  0  0  0
    0.4310    1.9430    0.4740 C   0  0  0  0  0  0  0  0  0  0  0  0
    0.2320    0.5450    0.1600 N   0  0  0  0  0  0  0  0  0  0  0  0
   -0.9620    0.1320   -0.4360 C   0  0  0  0  0  0  0  0  0  0  0  0
   -1.9200    0.9870   -0.8130 N   0  0  0  0  0  0  0  0  0  0  0  0
   -3.0740    0.6450   -1.3860 C   0  0  0  0  0  0  0  0  0  0  0  0
   -4.0610    1.5400   -1.7740 O   0  0  0  0  0  0  0  0  0  0  0  0
   -5.1370    1.8280   -0.9530 C   0  0  0  0  0  0  0  0  0  0  0  0
   -6.2950    1.0790   -0.9830 C   0  0  0  0  0  0  0  0  0  0  0  0
   -7.3480    1.4110   -0.1360 C   0  0  0  0  0  0  0  0  0  0  0  0
   -7.2210    2.4790    0.7170 C   0  0  0  0  0  0  0  0  0  0  0  0
   -8.2580    2.8210    1.5640 O   0  0  0  0  0  0  0  0  0  0  0  0
   -6.0620    3.2360    0.7540 C   0  0  0  0  0  0  0  0  0  0  0  0
   -5.9400    4.3630    1.6560 C   0  0  0  0  0  0  0  0  0  0  0  0
   -5.8220    5.2720    2.3910 N   0  0  0  0  0  0  0  0  0  0  0  0
   -5.0410    2.8890   -0.0890 C   0  0  0  0  0  0  0  0  0  0  0  0
   -3.2580   -0.7300   -1.5920 C   0  0  0  0  0  0  0  0  0  0  0  0
   -2.3140   -1.6490   -1.2260 C   0  0  0  0  0  0  0  0  0  0  0  0
   -2.5100   -3.1050   -1.4470 C   0  0  2  0  0  0  0  0  0  0  0  0
   -2.7290   -3.8130   -0.1230 C   0  0  0  0  0  0  0  0  0  0  0  0
   -1.3950   -3.7390   -2.2120 C   0  0  0  0  0  0  0  0  0  0  0  0
   -1.1920   -1.1950   -0.6590 N   0  0  0  0  0  0  0  0  0  0  0  0
    1.2950   -0.4120    0.4700 C   0  0  0  0  0  0  0  0  0  0  0  0
    2.5670    0.2820   -0.0210 C   0  0  0  0  0  0  0  0  0  0  0  0
    5.9880    0.8810    0.3790 C   0  0  0  0  0  0  0  0  0  0  0  0
    6.7720   -0.2050    0.1460 C   0  0  0  0  0  0  0  0  0  0  0  0
    7.9890   -0.2940   -0.6870 C   0  0  0  0  0  0  0  0  0  0  0  0
    7.7240   -0.9220   -1.8920 F   0  0  0  0  0  0  0  0  0  0  0  0
  1  2  1  0
  2  3  1  0
  2 32  2  0
  3  4  1  0
  4  5  1  0
  4 31  2  0
  5  6  1  0
  6  7  1  0
  6 30  1  0
  7  8  1  0
  8  9  1  0
  9 10  1  0
  9 29  1  0
 10 11  2  0
 10 28  1  0
 11 12  1  0
 12 13  1  0
 12 23  2  0
 13 14  1  0
 14 15  2  0
 14 22  1  0
 15 16  1  0
 16 17  2  0
 17 18  1  0
 17 19  1  0
 19 20  1  0
 19 22  2  0
 20 21  3  0
 23 24  1  0
 24 25  1  0
 24 28  2  0
 25 26  1  1
 25 27  1  0
 29 30  1  0
 31 32  1  0
 32 33  1  0
 33 34  1  0
M  END
