
     RDKit          3D

 34 37  0  0  0  0  0  0  0  0999 V2000
    9.0960    0.1480    1.8760 C   0  0  0  0  0  0  0  0  0  0  0  0
    8.4770   -1.2140    1.5310 C   0  0  0  0  0  0  0  0  0  0  0  0
    7.6010   -1.0920    0.3330 C   0  0  0  0  0  0  0  0  0  0  0  0
    6.4260   -0.2300    0.4510 C   0  0  0  0  0  0  0  0  0  0  0  0
    5.7610   -0.2690    1.5450 O   0  0  0  0  0  0  0  0  0  0  0  0
    5.9640    0.6120   -0.5150 N   0  0  0  0  0  0  0  0  0  0  0  0
    4.8710    1.4950   -0.7080 C   0  0  0  0  0  0  0  0  0  0  0  0
    3.5300    0.8350   -0.7570 C   0  0  0  0  0  0  0  0  0  0  0  0
    2.7860    0.3980    0.2800 C   0  0  0  0  0  0  0  0  0  0  0  0
    1.4350   -0.0060    0.1520 C   0  0  0  0  0  0  0  0  0  0  0  0
    0.8610    0.0460   -1.0960 C   0  0  0  0  0  0  0  0  0  0  0  0
    1.6370    0.4980   -2.1680 C   0  0  0  0  0  0  0  0  0  0  0  0
    2.9250    0.8870   -2.0430 C   0  0  0  0  0  0  0  0  0  0  0  0
    3.7170    1.3420   -3.1150 O   0  0  0  0  0  0  0  0  0  0  0  0
    3.0680    1.3370   -4.3960 C   0  0  0  0  0  0  0  0  0  0  0  0
    3.9430    1.8290   -5.3460 F   0  0  0  0  0  0  0  0  0  0  0  0
   -0.5430   -0.3270   -1.3950 C   0  0  0  0  0  0  0  0  0  0  0  0
   -1.2390   -0.5640   -0.1770 N   0  0  0  0  0  0  0  0  0  0  0  0
   -2.6420   -0.8300   -0.3350 C   0  0  0  0  0  0  0  0  0  0  0  0
   -3.4270   -1.1020    0.7370 C   0  0  0  0  0  0  0  0  0  0  0  0
   -4.8050   -1.3410    0.4100 N   0  0  0  0  0  0  0  0  0  0  0  0
   -5.7100   -0.3170    0.8040 C   0  0  0  0  0  0  0  0  0  0  0  0
   -5.1480    0.6420    1.4930 O   0  0  0  0  0  0  0  0  0  0  0  0
   -7.0990   -0.1440    0.5800 C   0  0  0  0  0  0  0  0  0  0  0  0
   -7.5980   -0.1880   -0.7340 C   0  0  0  0  0  0  0  0  0  0  0  0
   -8.8500    0.0940   -1.0280 C   0  0  0  0  0  0  0  0  0  0  0  0
   -9.8120    0.4720   -0.0660 C   0  0  0  0  0  0  0  0  0  0  0  0
   -9.2970    0.5070    1.2340 C   0  0  0  0  0  0  0  0  0  0  0  0
   -8.0140    0.2190    1.5660 C   0  0  0  0  0  0  0  0  0  0  0  0
   -7.5420    0.2480    3.0010 C   0  0  0  0  0  0  0  0  0  0  0  0
   -2.8130   -1.1260    2.0090 C   0  0  0  0  0  0  0  0  0  0  0  0
   -1.5270   -0.8900    2.1880 N   0  0  0  0  0  0  0  0  0  0  0  0
   -0.6340   -0.5850    1.1110 C   0  0  0  0  0  0  0  0  0  0  0  0
    0.6140   -0.3290    1.2620 N   0  0  0  0  0  0  0  0  0  0  0  0
  1  2  1  0
  2  3  1  0
  3  4  1  0
  4  5  2  0
  4  6  1  0
  6  7  1  0
  7  8  1  0
  8  9  2  0
  8 13  1  0
  9 10  1  0
 10 11  2  0
 10 34  1  0
 11 12  1  0
 11 17  1  0
 12 13  2  0
 13 14  1  0
 14 15  1  0
 15 16  1  0
 17 18  1  0
 18 19  1  0
 18 33  1  0
 19 20  2  0
 20 21  1  0
 20 31  1  0
 21 22  1  0
 22 23  2  0
 22 24  1  0
 24 25  2  0
 24 29  1  0
 25 26  1  0
 26 27  2  0
 27 28  1  0
 28 29  2  0
 29 30  1  0
 31 32  2  0
 32 33  1  0
 33 34  2  0
M  END
