
     RDKit          3D

 35 39  0  0  0  0  0  0  0  0999 V2000
   -1.6580    7.3150   -1.4780 C   0  0  0  0  0  0  0  0  0  0  0  0
   -1.4610    6.1370   -0.6950 N   0  0  1  0  0  0  0  0  0  0  0  0
   -2.6350    5.2600   -0.6770 C   0  0  0  0  0  0  0  0  0  0  0  0
   -1.9970    4.0000   -0.1530 C   0  0  0  0  0  0  0  0  0  0  0  0
   -0.7260    3.9760   -0.5180 C   0  0  0  0  0  0  0  0  0  0  0  0
    0.2810    3.0120   -0.2720 N   0  0  0  0  0  0  0  0  0  0  0  0
    0.0130    1.6230   -0.1410 C   0  0  0  0  0  0  0  0  0  0  0  0
    0.9750    0.7170    0.0930 N   0  0  0  0  0  0  0  0  0  0  0  0
    0.7220   -0.6020    0.2170 C   0  0  0  0  0  0  0  0  0  0  0  0
    1.7930   -1.5590    0.4700 C   0  0  0  0  0  0  0  0  0  0  0  0
    1.4960   -2.9070    0.5960 C   0  0  0  0  0  0  0  0  0  0  0  0
    2.4900   -3.8310    0.8330 C   0  0  0  0  0  0  0  0  0  0  0  0
    3.8070   -3.3930    0.9470 C   0  0  0  0  0  0  0  0  0  0  0  0
    4.1420   -2.0770    0.8300 C   0  0  0  0  0  0  0  0  0  0  0  0
    5.4580   -1.5830    0.9530 N   0  0  0  0  0  0  0  0  0  0  0  0
    6.5910   -2.2870    1.4110 C   0  0  0  0  0  0  0  0  0  0  0  0
    6.4990   -3.4660    1.7650 O   0  0  0  0  0  0  0  0  0  0  0  0
    7.9380   -1.6450    1.4880 C   0  0  0  0  0  0  0  0  0  0  0  0
    8.9010   -2.5990    1.9900 N   0  0  0  0  0  0  0  0  0  0  0  0
    3.0980   -1.1710    0.5880 C   0  0  0  0  0  0  0  0  0  0  0  0
   -0.5650   -0.9760    0.0950 N   0  0  0  0  0  0  0  0  0  0  0  0
   -1.5760   -0.1200   -0.1390 C   0  0  0  0  0  0  0  0  0  0  0  0
   -2.9520   -0.5700   -0.2640 C   0  0  0  0  0  0  0  0  0  0  0  0
   -3.9290    0.3600   -0.5030 C   0  0  0  0  0  0  0  0  0  0  0  0
   -5.2070   -0.0320   -0.6220 N   0  0  0  0  0  0  0  0  0  0  0  0
   -5.5580   -1.3320   -0.5120 C   0  0  0  0  0  0  0  0  0  0  0  0
   -4.5830   -2.2660   -0.2740 C   0  0  0  0  0  0  0  0  0  0  0  0
   -4.9880   -3.7120   -0.1540 C   0  0  0  0  0  0  0  0  0  0  0  0
   -4.3350   -4.5650    0.6240 C   0  0  0  0  0  0  0  0  0  0  0  0
   -4.6920   -5.8730    0.7410 C   0  0  0  0  0  0  0  0  0  0  0  0
   -6.1400   -5.9090   -0.3980 S   0  0  0  0  0  0  0  0  0  0  0  0
   -6.0950   -4.1940   -0.8860 C   0  0  0  0  0  0  0  0  0  0  0  0
   -3.2660   -1.8980   -0.1470 C   0  0  0  0  0  0  0  0  0  0  0  0
   -1.2410    1.1890   -0.2520 N   0  0  0  0  0  0  0  0  0  0  0  0
   -0.4790    5.2210   -1.2950 C   0  0  0  0  0  0  0  0  0  0  0  0
  2  1  1  6
  2  3  1  0
  2 35  1  0
  3  4  1  0
  4  5  2  0
  5  6  1  0
  5 35  1  0
  6  7  1  0
  7  8  2  0
  7 34  1  0
  8  9  1  0
  9 10  1  0
  9 21  2  0
 10 11  2  0
 10 20  1  0
 11 12  1  0
 12 13  2  0
 13 14  1  0
 14 15  1  0
 14 20  2  0
 15 16  1  0
 16 17  2  0
 16 18  1  0
 18 19  1  0
 21 22  1  0
 22 23  1  0
 22 34  2  0
 23 24  2  0
 23 33  1  0
 24 25  1  0
 25 26  2  0
 26 27  1  0
 27 28  1  0
 27 33  2  0
 28 29  1  0
 28 32  2  0
 29 30  2  0
 30 31  1  0
 31 32  1  0
M  CHG  1   2   1
M  END
