
     RDKit          3D

 34 37  0  0  0  0  0  0  0  0999 V2000
   -6.9970    3.5600   -1.3370 C   0  0  0  0  0  0  0  0  0  0  0  0
   -7.4540    2.4360   -0.8210 C   0  0  0  0  0  0  0  0  0  0  0  0
   -6.8230    1.1040   -1.0760 C   0  0  0  0  0  0  0  0  0  0  0  0
   -6.4070    0.5610    0.1520 N   0  0  0  0  0  0  0  0  0  0  0  0
   -7.3560    0.1640    1.1020 C   0  0  0  0  0  0  0  0  0  0  0  0
   -8.1890   -0.9880    0.7710 C   0  0  0  0  0  0  0  0  0  0  0  0
   -9.5090   -0.9090    0.6970 C   0  0  0  0  0  0  0  0  0  0  0  0
   -7.5660   -2.3060    0.5000 C   0  0  0  0  0  0  0  0  0  0  0  0
   -5.0500    0.6840    0.5250 C   0  0  0  0  0  0  0  0  0  0  0  0
   -4.1120   -0.1460   -0.3340 C   0  0  1  0  0  0  0  0  0  0  0  0
   -2.7170    0.0150    0.2220 C   0  0  0  0  0  0  0  0  0  0  0  0
   -1.8310   -0.9660   -0.3250 N   0  0  0  0  0  0  0  0  0  0  0  0
   -0.3950   -0.8890   -0.2140 C   0  0  0  0  0  0  0  0  0  0  0  0
    0.5580   -1.5480   -0.5350 N   0  0  0  0  0  0  0  0  0  0  0  0
    1.7700   -1.1900   -0.2890 N   0  0  0  0  0  0  0  0  0  0  0  0
    2.1220   -0.2040    0.2660 C   0  0  0  0  0  0  0  0  0  0  0  0
    3.3270    0.4840    0.6880 N   0  0  0  0  0  0  0  0  0  0  0  0
    3.3660    1.2980    1.7120 N   0  0  0  0  0  0  0  0  0  0  0  0
    4.4900    1.9280    2.1100 C   0  0  0  0  0  0  0  0  0  0  0  0
    5.6090    1.6850    1.3960 N   0  0  0  0  0  0  0  0  0  0  0  0
    5.6210    0.8610    0.3400 C   0  0  0  0  0  0  0  0  0  0  0  0
    6.7510    0.5650   -0.4520 N   0  0  0  0  0  0  0  0  0  0  0  0
    8.0320    1.1540   -0.1340 C   0  0  2  0  0  0  0  0  0  0  0  0
    9.0630    0.7570   -1.1900 C   0  0  0  0  0  0  0  0  0  0  0  0
   10.1200   -0.1460   -0.5890 C   0  0  0  0  0  0  0  0  0  0  0  0
    9.3950   -1.2750    0.1070 C   0  0  0  0  0  0  0  0  0  0  0  0
    8.7480   -0.7300    1.3460 C   0  0  0  0  0  0  0  0  0  0  0  0
    8.5290    0.7630    1.2430 C   0  0  0  0  0  0  0  0  0  0  0  0
    4.4350    0.2370   -0.0280 C   0  0  0  0  0  0  0  0  0  0  0  0
    4.3800   -0.5460   -1.0070 O   0  0  0  0  0  0  0  0  0  0  0  0
    0.4370    0.5670    0.6170 S   0  0  0  0  0  0  0  0  0  0  0  0
   -2.3060   -2.1200   -1.0480 C   0  0  0  0  0  0  0  0  0  0  0  0
   -3.7550   -2.3820   -0.8850 C   0  0  0  0  0  0  0  0  0  0  0  0
   -4.4810   -1.4610   -0.1900 O   0  0  0  0  0  0  0  0  0  0  0  0
  1  2  2  0
  2  3  1  0
  3  4  1  0
  4  5  1  0
  4  9  1  0
  5  6  1  0
  6  7  2  0
  6  8  1  0
 10  9  1  1
 10 11  1  0
 10 34  1  0
 11 12  1  0
 12 13  1  0
 12 32  1  0
 13 14  2  0
 13 31  1  0
 14 15  1  0
 15 16  2  0
 16 17  1  0
 16 31  1  0
 17 18  1  0
 17 29  1  0
 18 19  2  0
 19 20  1  0
 20 21  2  0
 21 22  1  0
 21 29  1  0
 23 22  1  6
 23 24  1  0
 23 28  1  0
 24 25  1  0
 25 26  1  0
 26 27  1  0
 27 28  1  0
 29 30  2  0
 32 33  1  0
 33 34  1  0
M  END
