
     RDKit          3D

 34 37  0  0  0  0  0  0  0  0999 V2000
   -7.8290    1.1150   -0.2560 C   0  0  0  0  0  0  0  0  0  0  0  0
   -7.2560   -0.2590   -0.3670 C   0  0  0  0  0  0  0  0  0  0  0  0
   -5.7610   -0.3130   -0.1610 C   0  0  1  0  0  0  0  0  0  0  0  0
   -5.0570    0.4970   -1.1410 N   0  0  0  0  0  0  0  0  0  0  0  0
   -4.1860   -0.0670   -2.1080 C   0  0  0  0  0  0  0  0  0  0  0  0
   -3.9850   -1.3050   -2.1570 O   0  0  0  0  0  0  0  0  0  0  0  0
   -3.5120    0.8150   -3.0630 C   0  0  0  0  0  0  0  0  0  0  0  0
   -2.6120    0.1260   -4.0330 C   0  0  0  0  0  0  0  0  0  0  0  0
   -1.5140   -0.6110   -3.3540 C   0  0  0  0  0  0  0  0  0  0  0  0
   -1.4960   -1.8840   -2.9220 N   0  0  0  0  0  0  0  0  0  0  0  0
   -0.3280   -2.1630   -2.3690 N   0  0  0  0  0  0  0  0  0  0  0  0
    0.4580   -1.0690   -2.4240 C   0  0  0  0  0  0  0  0  0  0  0  0
    1.8620   -0.9340   -1.9160 C   0  0  0  0  0  0  0  0  0  0  0  0
    1.8290   -0.3670   -0.1720 S   0  0  0  0  0  0  0  0  0  0  0  0
    3.5330   -0.2100    0.4120 C   0  0  0  0  0  0  0  0  0  0  0  0
    4.6350   -0.4540   -0.2750 C   0  0  0  0  0  0  0  0  0  0  0  0
    5.8130   -0.2100    0.5480 C   0  0  0  0  0  0  0  0  0  0  0  0
    7.1900   -0.2130    0.6200 C   0  0  0  0  0  0  0  0  0  0  0  0
    7.5780    0.1890    1.8790 C   0  0  0  0  0  0  0  0  0  0  0  0
    8.9910    0.3290    2.3920 C   0  0  2  0  0  0  0  0  0  0  0  0
    9.1630   -0.6370    3.5210 C   0  0  0  0  0  0  0  0  0  0  0  0
    9.2910    1.7520    2.7820 C   0  0  0  0  0  0  0  0  0  0  0  0
    6.4450    0.4300    2.5540 N   0  0  0  0  0  0  0  0  0  0  0  0
    5.4090    0.1930    1.7650 N   0  0  0  0  0  0  0  0  0  0  0  0
    3.9660    0.2110    1.7350 C   0  0  0  0  0  0  0  0  0  0  0  0
    3.2070    0.5320    2.6810 O   0  0  0  0  0  0  0  0  0  0  0  0
   -0.2830   -0.1250   -3.0310 N   0  0  0  0  0  0  0  0  0  0  0  0
    0.1430    1.2230   -3.3120 C   0  0  0  0  0  0  0  0  0  0  0  0
   -5.4480    0.0820    1.2330 C   0  0  0  0  0  0  0  0  0  0  0  0
   -5.3830    1.3550    1.7560 C   0  0  0  0  0  0  0  0  0  0  0  0
   -5.0600    1.2770    3.1020 C   0  0  0  0  0  0  0  0  0  0  0  0
   -4.9410   -0.0390    3.3500 N   0  0  0  0  0  0  0  0  0  0  0  0
   -5.1690   -0.7520    2.2470 N   0  0  0  0  0  0  0  0  0  0  0  0
   -5.1060   -2.2070    2.2320 C   0  0  0  0  0  0  0  0  0  0  0  0
  1  2  1  0
  3  2  1  6
  3  4  1  0
  3 29  1  0
  4  5  1  0
  5  6  2  0
  5  7  1  0
  7  8  1  0
  8  9  1  0
  9 10  2  0
  9 27  1  0
 10 11  1  0
 11 12  2  0
 12 13  1  0
 12 27  1  0
 13 14  1  0
 14 15  1  0
 15 16  2  0
 15 25  1  0
 16 17  1  0
 17 18  2  0
 17 24  1  0
 18 19  1  0
 19 20  1  0
 19 23  2  0
 20 21  1  1
 20 22  1  0
 23 24  1  0
 24 25  1  0
 25 26  2  0
 27 28  1  0
 29 30  2  0
 29 33  1  0
 30 31  1  0
 31 32  2  0
 32 33  1  0
 33 34  1  0
M  END
