
     RDKit          3D

 17 18  0  0  0  0  0  0  0  0999 V2000
   -5.2080   -0.2840    1.1990 O   0  0  0  0  0  0  0  0  0  0  0  0
   -4.0260   -0.0650    0.8330 C   0  0  0  0  0  0  0  0  0  0  0  0
   -3.1060   -1.1150    0.7580 C   0  0  0  0  0  0  0  0  0  0  0  0
   -1.8040   -0.8620    0.3530 C   0  0  0  0  0  0  0  0  0  0  0  0
   -1.4360    0.3920    0.0350 N   0  0  0  0  0  0  0  0  0  0  0  0
   -0.0780    0.6440   -0.3860 C   0  0  2  0  0  0  0  0  0  0  0  0
    0.5210   -0.4510   -0.9540 O   0  0  0  0  0  0  0  0  0  0  0  0
    1.8280   -0.4510   -0.5320 C   0  0  2  0  0  0  0  0  0  0  0  0
    2.5540   -1.7340   -0.7700 C   0  0  0  0  0  0  0  0  0  0  0  0
    3.8560   -1.5780   -0.2910 O   0  0  0  0  0  0  0  0  0  0  0  0
    1.6740   -0.1400    0.9460 C   0  0  1  0  0  0  0  0  0  0  0  0
    2.8800    0.2340    1.5230 O   0  0  0  0  0  0  0  0  0  0  0  0
    0.7190    1.0460    0.8230 C   0  0  1  0  0  0  0  0  0  0  0  0
    1.5040    2.1530    0.5150 O   0  0  0  0  0  0  0  0  0  0  0  0
   -2.3390    1.3630    0.1180 C   0  0  0  0  0  0  0  0  0  0  0  0
   -2.0250    2.5510   -0.1740 O   0  0  0  0  0  0  0  0  0  0  0  0
   -3.6240    1.1640    0.5090 N   0  0  0  0  0  0  0  0  0  0  0  0
  1  2  2  0
  2  3  1  0
  2 17  1  0
  3  4  2  0
  4  5  1  0
  6  5  1  1
  5 15  1  0
  6  7  1  0
  6 13  1  0
  7  8  1  0
  8  9  1  1
  8 11  1  0
  9 10  1  0
 11 12  1  6
 11 13  1  0
 13 14  1  6
 15 16  2  0
 15 17  1  0
M  END
