
     RDKit          3D

 17 17  0  0  0  0  0  0  0  0999 V2000
   -4.6290   -0.2550   -0.1270 C   0  0  0  0  0  0  0  0  0  0  0  0
   -3.2410   -0.4840   -0.4570 N   0  0  0  0  0  0  0  0  0  0  0  0
   -2.1710   -0.3360    0.4630 C   0  0  0  0  0  0  0  0  0  0  0  0
   -2.5120    0.0170    1.6250 O   0  0  0  0  0  0  0  0  0  0  0  0
   -0.7710   -0.5530    0.1800 C   0  0  2  0  0  0  0  0  0  0  0  0
   -0.3920   -1.8630   -0.3970 C   0  0  0  0  0  0  0  0  0  0  0  0
    0.8450   -2.2590    0.1120 O   0  0  0  0  0  0  0  0  0  0  0  0
    1.7000   -1.1490   -0.0870 C   0  0  2  0  0  0  0  0  0  0  0  0
    3.0790   -1.6490    0.1000 C   0  0  0  0  0  0  0  0  0  0  0  0
    4.1470   -0.7270   -0.0460 N   0  0  0  0  0  0  0  0  0  0  0  0
    3.3670   -2.8370    0.3780 O   0  0  0  0  0  0  0  0  0  0  0  0
    1.3030   -0.1240    0.9420 C   0  0  1  0  0  0  0  0  0  0  0  0
    1.4960    1.2540    0.5090 C   0  0  0  0  0  0  0  0  0  0  0  0
    2.5810    1.7360    0.1030 O   0  0  0  0  0  0  0  0  0  0  0  0
    0.4180    2.1250    0.5350 O   0  0  0  0  0  0  0  0  0  0  0  0
    0.4960    3.4680    0.1400 C   0  0  0  0  0  0  0  0  0  0  0  0
   -0.0180   -0.3120    1.3250 O   0  0  0  0  0  0  0  0  0  0  0  0
  1  2  1  0
  2  3  1  0
  3  4  2  0
  5  3  1  1
  5  6  1  0
  5 17  1  0
  6  7  1  0
  7  8  1  0
  8  9  1  1
  8 12  1  0
  9 10  1  0
  9 11  2  0
 12 13  1  6
 12 17  1  0
 13 14  2  0
 13 15  1  0
 15 16  1  0
M  END
