
     RDKit          3D

 17 17  0  0  0  0  0  0  0  0999 V2000
    5.1800    1.6070   -0.4660 N   0  0  0  0  0  0  0  0  0  0  0  0
    4.0910    0.8710   -0.1050 O   0  0  0  0  0  0  0  0  0  0  0  0
    4.1220   -0.5100   -0.2220 C   0  0  0  0  0  0  0  0  0  0  0  0
    5.1760   -1.0320   -0.6660 O   0  0  0  0  0  0  0  0  0  0  0  0
    3.0090   -1.3940    0.1370 C   0  0  0  0  0  0  0  0  0  0  0  0
    1.8970   -0.6510    0.6190 O   0  0  0  0  0  0  0  0  0  0  0  0
    0.7480   -1.3300    1.0080 C   0  0  0  0  0  0  0  0  0  0  0  0
    0.7510   -2.5870    0.9100 O   0  0  0  0  0  0  0  0  0  0  0  0
   -0.4430   -0.6140    1.5190 C   0  0  2  0  0  0  0  0  0  0  0  0
   -1.4730   -1.5750    1.8400 N   0  0  0  0  0  0  0  0  0  0  0  0
   -1.0270    0.3350    0.4800 C   0  0  1  0  0  0  0  0  0  0  0  0
   -1.4200   -0.4700   -0.7120 C   0  0  0  0  0  0  0  0  0  0  0  0
   -2.3880    0.1980   -1.6280 C   0  0  0  0  0  0  0  0  0  0  0  0
   -3.3940    0.8930   -1.0060 O   0  0  0  0  0  0  0  0  0  0  0  0
   -2.9780    1.7140    0.0130 C   0  0  1  0  0  0  0  0  0  0  0  0
   -4.1260    2.2790    0.5970 O   0  0  0  0  0  0  0  0  0  0  0  0
   -2.2480    0.9670    1.1030 C   0  0  0  0  0  0  0  0  0  0  0  0
  1  2  1  0
  2  3  1  0
  3  4  2  0
  3  5  1  0
  5  6  1  0
  6  7  1  0
  7  8  2  0
  7  9  1  0
  9 10  1  6
  9 11  1  0
 11 12  1  6
 11 17  1  0
 12 13  1  0
 13 14  1  0
 14 15  1  0
 15 16  1  1
 15 17  1  0
M  END
