
     RDKit          3D

 20 21  0  0  0  0  0  0  0  0999 V2000
    1.0990    1.3150   -2.6980 O   0  0  0  0  0  0  0  0  0  0  0  0
    0.2260    0.8270   -1.9410 C   0  0  0  0  0  0  0  0  0  0  0  0
   -1.0200    1.4220   -1.7510 O   0  0  0  0  0  0  0  0  0  0  0  0
   -2.1450    0.5590   -1.5590 C   0  0  0  0  0  0  0  0  0  0  0  0
   -1.8420   -0.1840   -0.2500 C   0  0  2  0  0  0  0  0  0  0  0  0
   -2.7890   -1.1620   -0.0170 O   0  0  0  0  0  0  0  0  0  0  0  0
   -3.3530   -1.1080    1.2550 C   0  0  0  0  0  0  0  0  0  0  0  0
   -4.0750    0.2450    1.3290 C   0  0  0  0  0  0  0  0  0  0  0  0
   -2.9980    1.2320    1.4210 N   0  0  0  0  0  0  0  0  0  0  0  0
   -1.7800    0.8570    0.8010 C   0  0  0  0  0  0  0  0  0  0  0  0
   -0.7060    1.3770    1.1210 O   0  0  0  0  0  0  0  0  0  0  0  0
   -0.5280   -0.8870   -0.3960 C   0  0  0  0  0  0  0  0  0  0  0  0
   -0.3120   -1.9490    0.2340 O   0  0  0  0  0  0  0  0  0  0  0  0
    0.5080   -0.3800   -1.2450 N   0  0  0  0  0  0  0  0  0  0  0  0
    1.7820   -1.0650   -1.3860 C   0  0  0  0  0  0  0  0  0  0  0  0
    2.8050   -0.6230   -0.3920 C   0  0  0  0  0  0  0  0  0  0  0  0
    3.0760    0.7870   -0.5270 N   0  0  0  0  0  0  0  0  0  0  0  0
    4.3030    1.3330    0.6670 P   0  0  0  0  0  0  0  0  0  0  0  0
    3.5840    1.9930    2.0790 O   0  0  0  0  0  0  0  0  0  0  0  0
    5.4750    0.1250    1.0030 O   0  0  0  0  0  0  0  0  0  0  0  0
  1  2  2  0
  2  3  1  0
  2 14  1  0
  3  4  1  0
  5  4  1  6
  5  6  1  0
  5 10  1  0
  5 12  1  0
  6  7  1  0
  7  8  1  0
  8  9  1  0
  9 10  1  0
 10 11  2  0
 12 13  2  0
 12 14  1  0
 14 15  1  0
 15 16  1  0
 16 17  1  0
 17 18  1  0
 18 19  1  0
 18 20  1  0
M  END
