
     RDKit          3D

 20 20  0  0  0  0  0  0  0  0999 V2000
   -6.0400   -0.4820   -0.6550 C   0  0  0  0  0  0  0  0  0  0  0  0
   -5.1700    0.3630    0.0220 O   0  0  0  0  0  0  0  0  0  0  0  0
   -4.3510   -0.3120    0.9400 C   0  0  2  0  0  0  0  0  0  0  0  0
   -4.8760    0.0430    2.2440 O   0  0  0  0  0  0  0  0  0  0  0  0
   -2.9990    0.2130    0.8750 C   0  0  0  0  0  0  0  0  0  0  0  0
   -2.6150    0.9040    1.9040 O   0  0  0  0  0  0  0  0  0  0  0  0
   -2.0930    0.0390   -0.1820 N   0  0  0  0  0  0  0  0  0  0  0  0
   -0.7200    0.6010   -0.1700 C   0  0  0  0  0  0  0  0  0  0  0  0
    0.0050   -0.6670   -0.6380 C   0  0  2  0  0  0  0  0  0  0  0  0
    1.4100   -0.4270   -0.9280 C   0  0  0  0  0  0  0  0  0  0  0  0
    1.8260   -0.5200   -2.1160 O   0  0  0  0  0  0  0  0  0  0  0  0
    2.3070   -0.0930    0.0960 N   0  0  0  0  0  0  0  0  0  0  0  0
    3.7260    0.1600   -0.1250 C   0  0  0  0  0  0  0  0  0  0  0  0
    4.3880    0.4900    1.1960 C   0  0  0  0  0  0  0  0  0  0  0  0
    6.1830    0.8180    0.9620 P   0  0  0  0  0  0  0  0  0  0  0  0
    6.4470    2.3850    0.2310 O   0  0  0  0  0  0  0  0  0  0  0  0
    6.8330   -0.3550   -0.1640 O   0  0  0  0  0  0  0  0  0  0  0  0
   -0.7870   -1.0020   -1.8040 N   0  0  0  0  0  0  0  0  0  0  0  0
   -2.1320   -0.6180   -1.4280 C   0  0  0  0  0  0  0  0  0  0  0  0
   -3.1800   -0.8210   -2.0820 O   0  0  0  0  0  0  0  0  0  0  0  0
  1  2  1  0
  2  3  1  0
  3  4  1  1
  3  5  1  0
  5  6  2  0
  5  7  1  0
  7  8  1  0
  7 19  1  0
  8  9  1  0
  9 10  1  6
  9 18  1  0
 10 11  2  0
 10 12  1  0
 12 13  1  0
 13 14  1  0
 14 15  1  0
 15 16  1  0
 15 17  1  0
 18 19  1  0
 19 20  2  0
M  END
