
     RDKit          3D

 20 20  0  0  0  0  0  0  0  0999 V2000
   -4.7410    1.9460   -0.0890 N   0  0  0  0  0  0  0  0  0  0  0  0
   -3.8190    0.8330    0.1260 C   0  0  1  0  0  0  0  0  0  0  0  0
   -4.2100   -0.2520   -0.8530 C   0  0  0  0  0  0  0  0  0  0  0  0
   -5.5230   -0.6420   -0.6020 O   0  0  0  0  0  0  0  0  0  0  0  0
   -2.4230    1.2430    0.0070 C   0  0  0  0  0  0  0  0  0  0  0  0
   -2.2090    2.4300   -0.4150 O   0  0  0  0  0  0  0  0  0  0  0  0
   -1.2810    0.4630    0.3100 N   0  0  0  0  0  0  0  0  0  0  0  0
    0.0620    0.9760    0.1250 C   0  0  0  0  0  0  0  0  0  0  0  0
    1.0010   -0.0500   -0.4000 C   0  0  1  0  0  0  0  0  0  0  0  0
    2.2620   -0.1760    0.4390 C   0  0  0  0  0  0  0  0  0  0  0  0
    3.0510   -1.1490   -0.1400 O   0  0  0  0  0  0  0  0  0  0  0  0
    4.2430   -1.3620    0.5360 C   0  0  0  0  0  0  0  0  0  0  0  0
    5.2840    0.1770    0.6060 P   0  0  0  0  0  0  0  0  0  0  0  0
    6.9650   -0.2270    0.3350 O   0  0  0  0  0  0  0  0  0  0  0  0
    4.7590    1.2370   -0.6810 O   0  0  0  0  0  0  0  0  0  0  0  0
    0.4510   -1.4110   -0.5410 C   0  0  0  0  0  0  0  0  0  0  0  0
    0.8540   -2.1600   -1.4500 O   0  0  0  0  0  0  0  0  0  0  0  0
   -0.5410   -1.8520    0.3720 N   0  0  0  0  0  0  0  0  0  0  0  0
   -1.4670   -0.8570    0.8280 C   0  0  0  0  0  0  0  0  0  0  0  0
   -2.3830   -1.1350    1.6360 O   0  0  0  0  0  0  0  0  0  0  0  0
  2  1  1  6
  2  3  1  0
  2  5  1  0
  3  4  1  0
  5  6  2  0
  5  7  1  0
  7  8  1  0
  7 19  1  0
  8  9  1  0
  9 10  1  1
  9 16  1  0
 10 11  1  0
 11 12  1  0
 12 13  1  0
 13 14  1  0
 13 15  1  0
 16 17  2  0
 16 18  1  0
 18 19  1  0
 19 20  2  0
M  END
