
     RDKit          3D

 20 20  0  0  0  0  0  0  0  0999 V2000
   -3.0020    0.1980    1.4910 C   0  0  0  0  0  0  0  0  0  0  0  0
   -3.0240   -0.6880    0.2580 C   0  0  1  0  0  0  0  0  0  0  0  0
   -4.3700   -0.5270   -0.3840 C   0  0  0  0  0  0  0  0  0  0  0  0
   -4.6050    1.2540   -0.8490 P   0  0  0  0  0  0  0  0  0  0  0  0
   -4.7800    2.3320    0.2440 O   0  0  0  0  0  0  0  0  0  0  0  0
   -1.9310   -0.2390   -0.6420 C   0  0  0  0  0  0  0  0  0  0  0  0
   -2.1160    0.1740   -1.8040 O   0  0  0  0  0  0  0  0  0  0  0  0
   -0.5940   -0.2850   -0.1400 N   0  0  0  0  0  0  0  0  0  0  0  0
    0.5190    0.1190   -0.9130 C   0  0  0  0  0  0  0  0  0  0  0  0
    0.3740    0.5330   -2.0730 O   0  0  0  0  0  0  0  0  0  0  0  0
    1.9120    0.0570   -0.3480 C   0  0  1  0  0  0  0  0  0  0  0  0
    2.8300    0.4990   -1.3430 N   0  0  0  0  0  0  0  0  0  0  0  0
    4.2060    0.5430   -1.1240 C   0  0  0  0  0  0  0  0  0  0  0  0
    4.6610    0.1890   -0.0310 O   0  0  0  0  0  0  0  0  0  0  0  0
    5.1350    0.9720   -2.0790 O   0  0  0  0  0  0  0  0  0  0  0  0
    1.9880    0.7510    0.9520 C   0  0  0  0  0  0  0  0  0  0  0  0
    2.8100    0.0050    1.7670 O   0  0  0  0  0  0  0  0  0  0  0  0
    2.7060   -1.3030    1.3170 C   0  0  0  0  0  0  0  0  0  0  0  0
    2.9680   -2.3610    1.9870 O   0  0  0  0  0  0  0  0  0  0  0  0
    2.2570   -1.3080   -0.0260 N   0  0  0  0  0  0  0  0  0  0  0  0
  2  1  1  1
  2  3  1  0
  2  6  1  0
  3  4  1  0
  4  5  2  0
  6  7  2  0
  6  8  1  0
  8  9  1  0
  9 10  2  0
  9 11  1  0
 11 12  1  6
 11 16  1  0
 11 20  1  0
 12 13  1  0
 13 14  2  0
 13 15  1  0
 16 17  1  0
 17 18  1  0
 18 19  2  0
 18 20  1  0
M  END
