
     RDKit          3D

 20 20  0  0  0  0  0  0  0  0999 V2000
   -3.0230    1.9220    0.9550 C   0  0  0  0  0  0  0  0  0  0  0  0
   -2.9610    0.4350    0.9120 C   0  0  1  0  0  0  0  0  0  0  0  0
   -2.7670   -0.0470    2.2100 O   0  0  0  0  0  0  0  0  0  0  0  0
   -4.2660    0.0090    0.5890 O   0  0  0  0  0  0  0  0  0  0  0  0
   -1.9430   -0.1150   -0.0230 C   0  0  2  0  0  0  0  0  0  0  0  0
   -2.0650   -1.5210   -0.1080 O   0  0  0  0  0  0  0  0  0  0  0  0
   -2.2750   -2.1110   -1.6810 P   0  0  0  0  0  0  0  0  0  0  0  0
   -2.6610   -0.9020   -2.8490 O   0  0  0  0  0  0  0  0  0  0  0  0
   -0.5790    0.0740    0.5410 C   0  0  1  0  0  0  0  0  0  0  0  0
    0.3820   -0.6510   -0.2600 O   0  0  0  0  0  0  0  0  0  0  0  0
    1.5380   -0.2960    0.4760 C   0  0  1  0  0  0  0  0  0  0  0  0
    2.7720   -0.3990   -0.3790 C   0  0  1  0  0  0  0  0  0  0  0  0
    2.9550   -1.7940   -0.8830 C   0  0  0  0  0  0  0  0  0  0  0  0
    2.6360    0.7420   -1.7770 S   0  0  0  0  0  0  0  0  0  0  0  0
    3.9600   -0.0240    0.4970 C   0  0  0  0  0  0  0  0  0  0  0  0
    5.4800   -0.1460   -0.5390 P   0  0  0  0  0  0  0  0  0  0  0  0
    6.5730    0.9610   -0.4520 O   0  0  0  0  0  0  0  0  0  0  0  0
    1.3760    1.0960    0.8020 O   0  0  0  0  0  0  0  0  0  0  0  0
    0.0540    1.3970    0.3500 C   0  0  0  0  0  0  0  0  0  0  0  0
   -0.3080    2.5080   -0.0630 O   0  0  0  0  0  0  0  0  0  0  0  0
  2  1  1  1
  2  3  1  0
  2  4  1  0
  2  5  1  0
  5  6  1  1
  5  9  1  0
  6  7  1  0
  7  8  1  0
  9 10  1  6
  9 19  1  0
 11 10  1  6
 11 12  1  0
 11 18  1  0
 12 13  1  6
 12 14  1  0
 12 15  1  0
 15 16  1  0
 16 17  2  0
 18 19  1  0
 19 20  2  0
M  END
