
     RDKit          3D

 20 21  0  0  0  0  0  0  0  0999 V2000
   -3.9610    1.4190    0.0340 C   0  0  0  0  0  0  0  0  0  0  0  0
   -3.3610    0.7040    1.0940 O   0  0  0  0  0  0  0  0  0  0  0  0
   -2.1670    0.0120    0.7820 C   0  0  0  0  0  0  0  0  0  0  0  0
   -2.2670   -1.3030    0.7010 C   0  0  0  0  0  0  0  0  0  0  0  0
   -3.6010   -1.9650    0.9390 C   0  0  0  0  0  0  0  0  0  0  0  0
   -4.5590   -1.0100    1.2220 O   0  0  0  0  0  0  0  0  0  0  0  0
   -1.1720   -2.0980    0.4020 O   0  0  0  0  0  0  0  0  0  0  0  0
    0.1000   -1.4210   -0.6050 P   0  0  0  0  0  0  0  0  0  0  0  0
    1.6750   -1.5730    0.2060 O   0  0  0  0  0  0  0  0  0  0  0  0
    2.2660   -0.3200    0.1050 C   0  0  0  0  0  0  0  0  0  0  0  0
    3.5880   -0.1820    0.1370 C   0  0  0  0  0  0  0  0  0  0  0  0
    4.3870    1.4340    0.0080 S   0  0  0  0  0  0  0  0  0  0  0  0
    4.5280   -1.3250    0.2790 C   0  0  0  0  0  0  0  0  0  0  0  0
    5.3220   -1.2100    1.4230 O   0  0  0  0  0  0  0  0  0  0  0  0
    1.3640    0.7960   -0.0330 C   0  0  0  0  0  0  0  0  0  0  0  0
   -0.0090    0.4360   -0.3730 C   0  0  1  0  0  0  0  0  0  0  0  0
   -0.5150    1.2660   -1.9680 P   0  0  0  0  0  0  0  0  0  0  0  0
    0.9200    1.3040   -2.9750 O   0  0  0  0  0  0  0  0  0  0  0  0
   -0.8810    2.9230   -1.5780 O   0  0  0  0  0  0  0  0  0  0  0  0
   -0.9810    0.6810    0.5800 O   0  0  0  0  0  0  0  0  0  0  0  0
  1  2  1  0
  2  3  1  0
  3  4  2  0
  3 20  1  0
  4  5  1  0
  4  7  1  0
  5  6  1  0
  7  8  1  0
  8  9  1  0
  8 16  1  0
  9 10  1  0
 10 11  2  3
 10 15  1  0
 11 12  1  0
 11 13  1  0
 13 14  1  0
 15 16  1  0
 16 17  1  6
 16 20  1  0
 17 18  1  0
 17 19  1  0
M  END
