
     RDKit          3D

 20 19  0  0  0  0  0  0  0  0999 V2000
    5.2610   -1.9530   -0.2060 C   0  0  0  0  0  0  0  0  0  0  0  0
    4.4110   -1.8250    1.0330 C   0  0  0  0  0  0  0  0  0  0  0  0
    2.6680   -1.6090    0.6320 S   0  0  0  0  0  0  0  0  0  0  0  0
    2.4300   -0.0430   -0.1880 C   0  0  0  0  0  0  0  0  0  0  0  0
    1.0080    0.2610   -0.5790 C   0  0  2  0  0  0  0  0  0  0  0  0
    1.0840    1.6510   -1.2570 C   0  0  0  0  0  0  0  0  0  0  0  0
    1.7610    2.8200    0.0240 P   0  0  0  0  0  0  0  0  0  0  0  0
    0.1380    0.4380    0.4550 O   0  0  0  0  0  0  0  0  0  0  0  0
   -1.0940   -0.2020    0.3380 C   0  0  2  0  0  0  0  0  0  0  0  0
   -1.0060   -1.5500    0.2290 O   0  0  0  0  0  0  0  0  0  0  0  0
   -1.7970    0.4340   -0.6300 O   0  0  0  0  0  0  0  0  0  0  0  0
   -3.0380    0.0390   -0.9690 C   0  0  0  0  0  0  0  0  0  0  0  0
   -3.2330   -1.2760   -1.5780 C   0  0  0  0  0  0  0  0  0  0  0  0
   -2.3160   -1.9940   -1.8640 O   0  0  0  0  0  0  0  0  0  0  0  0
   -4.9350   -1.8610   -1.9230 P   0  0  0  0  0  0  0  0  0  0  0  0
   -5.8180   -2.1870   -0.4870 O   0  0  0  0  0  0  0  0  0  0  0  0
   -1.7460    0.1230    1.5680 O   0  0  0  0  0  0  0  0  0  0  0  0
   -1.8560    1.5160    1.6460 C   0  0  2  0  0  0  0  0  0  0  0  0
   -1.0860    1.9950    2.7280 O   0  0  0  0  0  0  0  0  0  0  0  0
   -3.1570    1.9400    1.8630 O   0  0  0  0  0  0  0  0  0  0  0  0
  1  2  1  0
  2  3  1  0
  3  4  1  0
  5  4  1  1
  5  6  1  0
  5  8  1  0
  6  7  1  0
  8  9  1  0
  9 10  1  6
  9 11  1  0
  9 17  1  0
 11 12  1  0
 12 13  1  0
 13 14  2  0
 13 15  1  0
 15 16  1  0
 17 18  1  0
 18 19  1  1
 18 20  1  0
M  END
