
     RDKit          3D

 20 21  0  0  0  0  0  0  0  0999 V2000
   -2.6030   -0.8290    1.0270 C   0  0  0  0  0  0  0  0  0  0  0  0
   -1.6580   -1.2150    0.1900 C   0  0  0  0  0  0  0  0  0  0  0  0
   -1.6540   -2.5480   -0.2100 O   0  0  0  0  0  0  0  0  0  0  0  0
   -0.6140   -0.2570   -0.3170 C   0  0  2  0  0  0  0  0  0  0  0  0
   -1.0530    1.0460   -0.2200 O   0  0  0  0  0  0  0  0  0  0  0  0
   -2.1570    1.3250   -0.9910 C   0  0  0  0  0  0  0  0  0  0  0  0
   -2.6040    2.7540   -0.7970 C   0  0  0  0  0  0  0  0  0  0  0  0
   -1.9740    3.4480   -0.0280 O   0  0  0  0  0  0  0  0  0  0  0  0
   -0.2960   -0.7090   -1.7240 C   0  0  0  0  0  0  0  0  0  0  0  0
   -0.0970   -2.1070   -1.6440 O   0  0  0  0  0  0  0  0  0  0  0  0
    1.0130   -2.4410   -0.9140 C   0  0  0  0  0  0  0  0  0  0  0  0
    0.9610   -1.9410    0.5120 C   0  0  0  0  0  0  0  0  0  0  0  0
    0.6200   -0.5020    0.5070 C   0  0  2  0  0  0  0  0  0  0  0  0
    0.5220    0.2280    2.1580 S   0  0  0  0  0  0  0  0  0  0  0  0
    1.6140    1.5700    1.9870 O   0  0  0  0  0  0  0  0  0  0  0  0
    2.6640    1.1100    1.3660 O   0  0  0  0  0  0  0  0  0  0  0  0
    2.0850    0.4600   -0.1640 P   0  0  0  0  0  0  0  0  0  0  0  0
    1.5280    1.8150   -1.0940 O   0  0  0  0  0  0  0  0  0  0  0  0
    2.9550    2.7310   -1.5390 P   0  0  0  0  0  0  0  0  0  0  0  0
    4.1940    1.5360   -1.8850 O   0  0  0  0  0  0  0  0  0  0  0  0
  1  2  2  0
  2  3  1  0
  2  4  1  0
  4  5  1  6
  4  9  1  0
  4 13  1  0
  5  6  1  0
  6  7  1  0
  7  8  2  0
  9 10  1  0
 10 11  1  0
 11 12  1  0
 13 12  1  1
 13 14  1  0
 13 17  1  0
 14 15  1  0
 15 16  1  0
 16 17  1  0
 17 18  1  0
 18 19  1  0
 19 20  1  0
M  END
