
     RDKit          3D

 36 38  0  0  0  0  0  0  0  0999 V2000
   -7.7430   -2.0300    0.1230 C   0  0  0  0  0  0  0  0  0  0  0  0
   -6.2710   -1.9730    0.2320 C   0  0  0  0  0  0  0  0  0  0  0  0
   -5.6320   -2.8880    0.9120 C   0  0  0  0  0  0  0  0  0  0  0  0
   -4.1460   -2.8980    1.0670 C   0  0  0  0  0  0  0  0  0  0  0  0
   -3.5300   -1.7850    0.3750 N   0  0  0  0  0  0  0  0  0  0  0  0
   -2.0930   -1.9530    0.4410 C   0  0  0  0  0  0  0  0  0  0  0  0
   -1.4180   -1.4960   -0.8350 C   0  0  1  0  0  0  0  0  0  0  0  0
   -1.6630   -0.0870   -1.1260 C   0  0  0  0  0  0  0  0  0  0  0  0
   -0.7040    0.7880   -1.2940 C   0  0  0  0  0  0  0  0  0  0  0  0
   -0.9450    2.1350   -1.5730 O   0  0  0  0  0  0  0  0  0  0  0  0
   -1.6530    2.9940   -0.7110 C   0  0  2  0  0  0  0  0  0  0  0  0
   -1.7100    4.3480   -1.3390 C   0  0  0  0  0  0  0  0  0  0  0  0
   -1.7000    5.4850   -0.3690 C   0  0  0  0  0  0  0  0  0  0  0  0
   -0.4200    5.6680    0.3660 C   0  0  0  0  0  0  0  0  0  0  0  0
    0.6390    4.6630    0.0490 C   0  0  0  0  0  0  0  0  0  0  0  0
    0.3280    3.3880    0.7860 C   0  0  0  0  0  0  0  0  0  0  0  0
   -1.1190    2.9970    0.6960 C   0  0  0  0  0  0  0  0  0  0  0  0
    0.6530    0.3320   -1.1860 N   0  0  0  0  0  0  0  0  0  0  0  0
    0.9640   -0.8880   -0.9320 C   0  0  0  0  0  0  0  0  0  0  0  0
    2.4030   -1.2150   -0.8490 C   0  0  0  0  0  0  0  0  0  0  0  0
    3.3830   -0.1930   -1.0180 C   0  0  0  0  0  0  0  0  0  0  0  0
    4.7240   -0.6650   -0.7870 N   0  0  0  0  0  0  0  0  0  0  0  0
    5.0820   -1.1130    0.5050 C   0  0  0  0  0  0  0  0  0  0  0  0
    4.1760   -1.0730    1.4080 O   0  0  0  0  0  0  0  0  0  0  0  0
    6.3930   -1.6230    0.9010 C   0  0  0  0  0  0  0  0  0  0  0  0
    7.4100   -1.4430    0.0160 O   0  0  0  0  0  0  0  0  0  0  0  0
    7.8130   -0.1520   -0.2170 C   0  0  0  0  0  0  0  0  0  0  0  0
    8.3160    0.4700    1.0810 C   0  0  0  0  0  0  0  0  0  0  0  0
    2.7350   -2.4610   -0.5930 C   0  0  0  0  0  0  0  0  0  0  0  0
    1.6980   -3.4980   -0.3920 C   0  0  0  0  0  0  0  0  0  0  0  0
    0.4000   -3.1990   -0.4670 C   0  0  0  0  0  0  0  0  0  0  0  0
   -0.0360   -1.8760   -0.7420 N   0  0  0  0  0  0  0  0  0  0  0  0
   -6.3410   -3.9260    1.5400 N   0  0  0  0  0  0  0  0  0  0  0  0
   -6.3210   -5.1510    1.1620 C   0  0  0  0  0  0  0  0  0  0  0  0
   -7.2450   -6.3600    2.0210 Cl  0  0  0  0  0  0  0  0  0  0  0  0
   -5.3740   -5.6570   -0.2210 Cl  0  0  0  0  0  0  0  0  0  0  0  0
  1  2  1  0
  2  3  2  3
  3  4  1  0
  3 33  1  0
  4  5  1  0
  5  6  1  0
  7  6  1  1
  7  8  1  0
  7 32  1  0
  8  9  2  0
  9 10  1  0
  9 18  1  0
 11 10  1  6
 11 12  1  0
 11 17  1  0
 12 13  1  0
 13 14  1  0
 14 15  1  0
 15 16  1  0
 16 17  1  0
 18 19  2  0
 19 20  1  0
 19 32  1  0
 20 21  1  0
 20 29  2  0
 21 22  1  0
 22 23  1  0
 23 24  2  0
 23 25  1  0
 25 26  1  0
 26 27  1  0
 27 28  1  0
 29 30  1  0
 30 31  2  0
 31 32  1  0
 33 34  2  3
 34 35  1  0
 34 36  1  0
M  CHG  2   5   1  18   1
M  END
