
     RDKit          3D

 36 38  0  0  0  0  0  0  0  0999 V2000
   -6.5280    1.1110    3.2380 C   0  0  0  0  0  0  0  0  0  0  0  0
   -6.7510    0.5890    2.0450 C   0  0  0  0  0  0  0  0  0  0  0  0
   -5.9690   -0.5880    1.5500 C   0  0  0  0  0  0  0  0  0  0  0  0
   -5.2830   -0.1620    0.3280 N   0  0  0  0  0  0  0  0  0  0  0  0
   -5.7820   -0.2560   -0.9220 C   0  0  0  0  0  0  0  0  0  0  0  0
   -4.8770    0.2340   -1.8010 N   0  0  0  0  0  0  0  0  0  0  0  0
   -3.7850    0.6510   -1.1370 C   0  0  0  0  0  0  0  0  0  0  0  0
   -2.5350    1.2690   -1.6700 C   0  0  0  0  0  0  0  0  0  0  0  0
   -1.7520    0.3750   -2.4580 N   0  0  0  0  0  0  0  0  0  0  0  0
   -0.7370   -0.4360   -1.8180 C   0  0  0  0  0  0  0  0  0  0  0  0
   -1.3790   -1.7520   -1.4130 C   0  0  0  0  0  0  0  0  0  0  0  0
   -0.4480   -2.6420   -0.7670 N   0  0  0  0  0  0  0  0  0  0  0  0
    0.6960   -1.9320   -0.1790 C   0  0  0  0  0  0  0  0  0  0  0  0
    0.2710   -1.2540    1.0290 C   0  0  0  0  0  0  0  0  0  0  0  0
   -0.9840   -1.3740    1.3480 O   0  0  0  0  0  0  0  0  0  0  0  0
    0.9900   -0.4760    1.9530 N   0  0  0  0  0  0  0  0  0  0  0  0
    0.4640   -0.1340    3.2890 C   0  0  0  0  0  0  0  0  0  0  0  0
    1.4360   -0.6780    4.3030 C   0  0  0  0  0  0  0  0  0  0  0  0
    2.7800   -0.6460    3.8920 O   0  0  0  0  0  0  0  0  0  0  0  0
    3.2660   -0.1280    2.7140 C   0  0  0  0  0  0  0  0  0  0  0  0
    4.5450    0.2850    2.4800 C   0  0  0  0  0  0  0  0  0  0  0  0
    4.8900    0.7870    1.2440 C   0  0  0  0  0  0  0  0  0  0  0  0
    6.2580    1.2390    1.0680 C   0  0  0  0  0  0  0  0  0  0  0  0
    7.1170    0.8190    0.1820 C   0  0  0  0  0  0  0  0  0  0  0  0
    8.7350    1.5420    0.1680 Cl  0  0  0  0  0  0  0  0  0  0  0  0
    6.9020   -0.2520   -0.7810 C   0  0  0  0  0  0  0  0  0  0  0  0
    7.8160   -0.6150   -1.6520 C   0  0  0  0  0  0  0  0  0  0  0  0
    9.3960    0.1160   -1.7880 Cl  0  0  0  0  0  0  0  0  0  0  0  0
    3.9560    0.8790    0.2370 C   0  0  0  0  0  0  0  0  0  0  0  0
    4.2530    1.4550   -1.0920 C   0  0  0  0  0  0  0  0  0  0  0  0
    2.6400    0.4640    0.4480 C   0  0  0  0  0  0  0  0  0  0  0  0
    2.3070   -0.0380    1.6850 C   0  0  0  0  0  0  0  0  0  0  0  0
   -1.9340    0.2620   -3.8520 C   0  0  0  0  0  0  0  0  0  0  0  0
   -2.9240    1.0410   -4.6300 C   0  0  0  0  0  0  0  0  0  0  0  0
   -1.2210   -0.5440   -4.4980 O   0  0  0  0  0  0  0  0  0  0  0  0
   -4.0720    0.3880    0.2090 C   0  0  0  0  0  0  0  0  0  0  0  0
  1  2  2  0
  2  3  1  0
  3  4  1  0
  4  5  1  0
  4 36  1  0
  5  6  2  0
  6  7  1  0
  7  8  1  0
  7 36  2  0
  8  9  1  0
  9 10  1  0
  9 33  1  0
 10 11  1  0
 11 12  1  0
 12 13  1  0
 13 14  1  0
 14 15  2  0
 14 16  1  0
 16 17  1  0
 16 32  1  0
 17 18  1  0
 18 19  1  0
 19 20  1  0
 20 21  2  0
 20 32  1  0
 21 22  1  0
 22 23  1  0
 22 29  2  0
 23 24  2  3
 24 25  1  0
 24 26  1  0
 26 27  2  3
 27 28  1  0
 29 30  1  0
 29 31  1  0
 31 32  2  0
 33 34  1  0
 33 35  2  0
M  CHG  2   6   1  12   1
M  END
