
     RDKit          3D

 37 41  0  0  0  0  0  0  0  0999 V2000
    7.1220   -1.2130   -1.9240 C   0  0  0  0  0  0  0  0  0  0  0  0
    6.6430   -0.9780   -0.5430 C   0  0  0  0  0  0  0  0  0  0  0  0
    7.3480   -1.0300    0.6400 C   0  0  0  0  0  0  0  0  0  0  0  0
    6.4990   -0.7480    1.6540 N   0  0  0  0  0  0  0  0  0  0  0  0
    5.2920   -0.5190    1.1700 N   0  0  0  0  0  0  0  0  0  0  0  0
    4.1290   -0.1950    1.9550 C   0  0  0  0  0  0  0  0  0  0  0  0
    3.9550    1.2490    2.1740 C   0  0  0  0  0  0  0  0  0  0  0  0
    4.5010    1.9240    3.2170 N   0  0  0  0  0  0  0  0  0  0  0  0
    4.1560    3.2100    3.1310 N   0  0  0  0  0  0  0  0  0  0  0  0
    3.3880    3.3100    2.0160 C   0  0  0  0  0  0  0  0  0  0  0  0
    3.2680    2.1110    1.4360 N   0  0  0  0  0  0  0  0  0  0  0  0
    2.5470    1.8060    0.2530 C   0  0  0  0  0  0  0  0  0  0  0  0
    3.1370    2.0030   -0.9800 C   0  0  0  0  0  0  0  0  0  0  0  0
    2.4360    1.7130   -2.1260 C   0  0  0  0  0  0  0  0  0  0  0  0
    1.1590    1.2320   -2.0250 C   0  0  0  0  0  0  0  0  0  0  0  0
    0.4530    0.9400   -3.1380 F   0  0  0  0  0  0  0  0  0  0  0  0
    0.5300    1.0200   -0.7850 C   0  0  0  0  0  0  0  0  0  0  0  0
   -0.7710    0.5330   -0.7740 N   0  0  0  0  0  0  0  0  0  0  0  0
   -1.5470    0.2350    0.3580 C   0  0  0  0  0  0  0  0  0  0  0  0
   -1.0820    0.3990    1.4900 O   0  0  0  0  0  0  0  0  0  0  0  0
   -2.8830   -0.2630    0.2650 N   0  0  0  0  0  0  0  0  0  0  0  0
   -3.7480   -0.5990    1.3080 C   0  0  0  0  0  0  0  0  0  0  0  0
   -3.4240   -0.6420    2.6360 C   0  0  0  0  0  0  0  0  0  0  0  0
   -4.3390   -1.0340    3.6270 C   0  0  0  0  0  0  0  0  0  0  0  0
   -3.9530   -1.0530    4.9150 F   0  0  0  0  0  0  0  0  0  0  0  0
   -5.6120   -1.3960    3.2960 C   0  0  0  0  0  0  0  0  0  0  0  0
   -5.9650   -1.3620    1.9710 C   0  0  0  0  0  0  0  0  0  0  0  0
   -5.0520   -0.9700    0.9830 C   0  0  0  0  0  0  0  0  0  0  0  0
   -5.5420   -0.9300   -0.3840 C   0  0  0  0  0  0  0  0  0  0  0  0
   -6.1220   -2.0220   -0.9950 C   0  0  0  0  0  0  0  0  0  0  0  0
   -6.6270   -1.9830   -2.2880 C   0  0  0  0  0  0  0  0  0  0  0  0
   -6.5410   -0.8050   -2.9810 C   0  0  0  0  0  0  0  0  0  0  0  0
   -7.0290   -0.7310   -4.2610 F   0  0  0  0  0  0  0  0  0  0  0  0
   -5.9680    0.2960   -2.3960 C   0  0  0  0  0  0  0  0  0  0  0  0
   -5.4710    0.2300   -1.1010 C   0  0  0  0  0  0  0  0  0  0  0  0
    1.2460    1.3140    0.3140 C   0  0  0  0  0  0  0  0  0  0  0  0
    5.3360   -0.6490   -0.1640 C   0  0  0  0  0  0  0  0  0  0  0  0
  1  2  1  0
  2  3  1  0
  2 37  2  0
  3  4  2  0
  4  5  1  0
  5  6  1  0
  5 37  1  0
  6  7  1  0
  7  8  2  0
  7 11  1  0
  8  9  1  0
  9 10  2  0
 10 11  1  0
 11 12  1  0
 12 13  2  0
 12 36  1  0
 13 14  1  0
 14 15  2  0
 15 16  1  0
 15 17  1  0
 17 18  1  0
 17 36  2  0
 18 19  1  0
 19 20  2  0
 19 21  1  0
 21 22  1  0
 22 23  2  0
 22 28  1  0
 23 24  1  0
 24 25  1  0
 24 26  2  0
 26 27  1  0
 27 28  2  0
 28 29  1  0
 29 30  2  0
 29 35  1  0
 30 31  1  0
 31 32  2  0
 32 33  1  0
 32 34  1  0
 34 35  2  0
M  END
