
     RDKit          3D

 36 39  0  0  0  0  0  0  0  0999 V2000
   -7.4980    2.6370   -2.9540 C   0  0  0  0  0  0  0  0  0  0  0  0
   -6.6050    1.9530   -2.1260 O   0  0  0  0  0  0  0  0  0  0  0  0
   -6.9030    1.5740   -0.8340 C   0  0  0  0  0  0  0  0  0  0  0  0
   -8.1070    1.8550   -0.2960 C   0  0  0  0  0  0  0  0  0  0  0  0
   -8.4660    1.4990    1.0000 C   0  0  0  0  0  0  0  0  0  0  0  0
   -7.5210    0.8370    1.7190 C   0  0  0  0  0  0  0  0  0  0  0  0
   -7.8560    0.4340    3.1150 C   0  0  0  0  0  0  0  0  0  0  0  0
   -6.2610    0.5310    1.1860 C   0  0  0  0  0  0  0  0  0  0  0  0
   -5.1620   -0.3360    2.2620 Cl  0  0  0  0  0  0  0  0  0  0  0  0
   -5.9180    0.8820   -0.0800 C   0  0  0  0  0  0  0  0  0  0  0  0
   -4.6500    0.6410   -0.7880 C   0  0  0  0  0  0  0  0  0  0  0  0
   -3.5840   -0.0270   -0.1690 N   0  0  1  0  0  0  0  0  0  0  0  0
   -3.6040   -1.4260   -0.5220 C   0  0  0  0  0  0  0  0  0  0  0  0
   -2.3720   -2.1580   -0.1240 C   0  0  0  0  0  0  0  0  0  0  0  0
   -1.1080   -1.5030   -0.6880 C   0  0  2  0  0  0  0  0  0  0  0  0
    0.0570   -2.2460   -0.0570 C   0  0  0  0  0  0  0  0  0  0  0  0
    1.3610   -1.6970   -0.5220 C   0  0  0  0  0  0  0  0  0  0  0  0
    1.6750   -1.6380   -1.7330 O   0  0  0  0  0  0  0  0  0  0  0  0
    2.2720   -1.2240    0.4500 N   0  0  0  0  0  0  0  0  0  0  0  0
    1.8970   -1.2900    1.8530 C   0  0  0  0  0  0  0  0  0  0  0  0
    3.5490   -0.6920    0.0250 C   0  0  0  0  0  0  0  0  0  0  0  0
    4.6210   -1.7590   -0.0250 C   0  0  0  0  0  0  0  0  0  0  0  0
    5.9140   -1.1760   -0.4560 C   0  0  0  0  0  0  0  0  0  0  0  0
    6.8930   -0.6250    0.2930 N   0  0  0  0  0  0  0  0  0  0  0  0
    7.8980   -0.2210   -0.5100 C   0  0  0  0  0  0  0  0  0  0  0  0
    9.1410    0.4320   -0.0910 C   0  0  0  0  0  0  0  0  0  0  0  0
    9.3780    0.7020    1.2400 C   0  0  0  0  0  0  0  0  0  0  0  0
   10.5400    1.3170    1.6690 C   0  0  0  0  0  0  0  0  0  0  0  0
   11.4620    1.6560    0.7390 N   0  0  0  0  0  0  0  0  0  0  0  0
   11.2420    1.3970   -0.5680 C   0  0  0  0  0  0  0  0  0  0  0  0
   12.4960    1.8730   -1.6990 Cl  0  0  0  0  0  0  0  0  0  0  0  0
   10.0780    0.7800   -1.0130 C   0  0  0  0  0  0  0  0  0  0  0  0
    7.5000   -0.5410   -1.7510 N   0  0  0  0  0  0  0  0  0  0  0  0
    6.3210   -1.1060   -1.6980 O   0  0  0  0  0  0  0  0  0  0  0  0
   -1.1320   -0.0750   -0.1810 C   0  0  0  0  0  0  0  0  0  0  0  0
   -2.3460    0.5890   -0.7130 C   0  0  0  0  0  0  0  0  0  0  0  0
  1  2  1  0
  2  3  1  0
  3  4  2  0
  3 10  1  0
  4  5  1  0
  5  6  2  0
  6  7  1  0
  6  8  1  0
  8  9  1  0
  8 10  2  0
 10 11  1  0
 12 11  1  6
 12 13  1  0
 12 36  1  0
 13 14  1  0
 14 15  1  0
 15 16  1  1
 15 35  1  0
 16 17  1  0
 17 18  2  0
 17 19  1  0
 19 20  1  0
 19 21  1  0
 21 22  1  0
 22 23  1  0
 23 24  2  0
 23 34  1  0
 24 25  1  0
 25 26  1  0
 25 33  2  0
 26 27  2  0
 26 32  1  0
 27 28  1  0
 28 29  2  0
 29 30  1  0
 30 31  1  0
 30 32  2  0
 33 34  1  0
 35 36  1  0
M  CHG  2  12   1  29   1
M  END
