
     RDKit          3D

 41 45  0  0  0  0  0  0  0  0999 V2000
   -4.6180    3.5290   -3.7210 O   0  0  0  0  0  0  0  0  0  0  0  0
   -5.5510    3.0290   -3.0570 C   0  0  0  0  0  0  0  0  0  0  0  0
   -6.8530    3.3230   -3.4070 O   0  0  0  0  0  0  0  0  0  0  0  0
   -5.3060    2.1360   -1.9130 C   0  0  0  0  0  0  0  0  0  0  0  0
   -4.0750    1.7440   -1.4350 C   0  0  0  0  0  0  0  0  0  0  0  0
   -4.3030    0.9000   -0.3430 C   0  0  0  0  0  0  0  0  0  0  0  0
   -3.1740    0.2990    0.4060 C   0  0  0  0  0  0  0  0  0  0  0  0
   -3.3300   -0.5370    1.4830 C   0  0  0  0  0  0  0  0  0  0  0  0
   -2.2290   -1.0870    2.1690 C   0  0  0  0  0  0  0  0  0  0  0  0
   -0.9440   -0.8090    1.7900 C   0  0  0  0  0  0  0  0  0  0  0  0
    0.2110   -1.3750    2.4970 C   0  0  0  0  0  0  0  0  0  0  0  0
    1.4760   -0.9480    1.9360 N   0  0  0  0  0  0  0  0  0  0  0  0
    2.0050   -1.4710    0.7290 C   0  0  0  0  0  0  0  0  0  0  0  0
    1.3390   -2.3500    0.1230 O   0  0  0  0  0  0  0  0  0  0  0  0
    3.2950   -1.0160    0.1820 C   0  0  0  0  0  0  0  0  0  0  0  0
    3.3550    0.0560   -0.6980 C   0  0  0  0  0  0  0  0  0  0  0  0
    4.5770    0.4830   -1.2120 C   0  0  0  0  0  0  0  0  0  0  0  0
    5.7410   -0.1490   -0.8570 C   0  0  0  0  0  0  0  0  0  0  0  0
    7.0410    0.3030   -1.4020 C   0  0  0  0  0  0  0  0  0  0  0  0
    7.2260    1.3460   -2.2770 C   0  0  0  0  0  0  0  0  0  0  0  0
    8.5720    1.4270   -2.5260 C   0  0  0  0  0  0  0  0  0  0  0  0
    9.1840    0.4120   -1.7820 C   0  0  0  0  0  0  0  0  0  0  0  0
   10.6060    0.1210   -1.7380 C   0  0  0  0  0  0  0  0  0  0  0  0
   11.3920    0.8140   -2.4100 O   0  0  0  0  0  0  0  0  0  0  0  0
   11.0940   -0.9070   -0.9670 O   0  0  0  0  0  0  0  0  0  0  0  0
    8.2030   -0.1950   -1.1540 O   0  0  0  0  0  0  0  0  0  0  0  0
    5.6690   -1.2110    0.0170 C   0  0  0  0  0  0  0  0  0  0  0  0
    4.4800   -1.6340    0.5230 C   0  0  0  0  0  0  0  0  0  0  0  0
    4.3550   -2.9910    1.6440 Cl  0  0  0  0  0  0  0  0  0  0  0  0
   -0.7790    0.0250    0.7160 C   0  0  0  0  0  0  0  0  0  0  0  0
   -1.8720    0.5670    0.0400 C   0  0  0  0  0  0  0  0  0  0  0  0
   -5.6000    0.7960   -0.1810 N   0  0  0  0  0  0  0  0  0  0  0  0
   -6.3400    0.0600    0.7830 C   0  0  0  0  0  0  0  0  0  0  0  0
   -6.7250    0.5950    2.0050 C   0  0  0  0  0  0  0  0  0  0  0  0
   -7.4680   -0.1470    2.8900 C   0  0  0  0  0  0  0  0  0  0  0  0
   -7.8560   -1.4340    2.6030 C   0  0  0  0  0  0  0  0  0  0  0  0
   -8.8100   -2.4080    3.7180 Cl  0  0  0  0  0  0  0  0  0  0  0  0
   -7.4850   -1.9950    1.3880 C   0  0  0  0  0  0  0  0  0  0  0  0
   -7.9600   -3.6260    0.9910 Cl  0  0  0  0  0  0  0  0  0  0  0  0
   -6.7320   -1.2280    0.5040 C   0  0  0  0  0  0  0  0  0  0  0  0
   -6.1960    1.5420   -1.1280 N   0  0  0  0  0  0  0  0  0  0  0  0
  1  2  2  0
  2  3  1  0
  2  4  1  0
  4  5  1  0
  4 41  2  0
  5  6  2  0
  6  7  1  0
  6 32  1  0
  7  8  2  0
  7 31  1  0
  8  9  1  0
  9 10  2  0
 10 11  1  0
 10 30  1  0
 11 12  1  0
 12 13  1  0
 13 14  2  0
 13 15  1  0
 15 16  2  0
 15 28  1  0
 16 17  1  0
 17 18  2  0
 18 19  1  0
 18 27  1  0
 19 20  2  0
 19 26  1  0
 20 21  1  0
 21 22  2  0
 22 23  1  0
 22 26  1  0
 23 24  2  0
 23 25  1  0
 27 28  2  0
 28 29  1  0
 30 31  2  0
 32 33  1  0
 32 41  1  0
 33 34  2  0
 33 40  1  0
 34 35  1  0
 35 36  2  0
 36 37  1  0
 36 38  1  0
 38 39  1  0
 38 40  2  0
M  END
