
     RDKit          3D

 41 44  0  0  0  0  0  0  0  0999 V2000
   -2.5030    5.8520   -1.8340 C   0  0  0  0  0  0  0  0  0  0  0  0
   -2.8700    4.9240   -0.9760 C   0  0  0  0  0  0  0  0  0  0  0  0
   -2.3250    3.5690   -1.2100 C   0  0  0  0  0  0  0  0  0  0  0  0
   -2.2570    3.1270   -2.5270 C   0  0  0  0  0  0  0  0  0  0  0  0
   -1.7910    1.8560   -2.7790 C   0  0  0  0  0  0  0  0  0  0  0  0
   -1.6940    1.3580   -4.0440 O   0  0  0  0  0  0  0  0  0  0  0  0
   -1.4000    1.0330   -1.7660 C   0  0  0  0  0  0  0  0  0  0  0  0
   -0.9230   -0.3030   -2.0070 N   0  0  0  0  0  0  0  0  0  0  0  0
    0.2400   -0.6620   -2.6900 C   0  0  0  0  0  0  0  0  0  0  0  0
    1.5450   -0.7800   -2.0120 C   0  0  0  0  0  0  0  0  0  0  0  0
    1.6860   -1.7100   -0.8640 C   0  0  0  0  0  0  0  0  0  0  0  0
    3.0000   -1.6660   -0.4200 O   0  0  0  0  0  0  0  0  0  0  0  0
    3.5980   -0.5820    0.1550 C   0  0  0  0  0  0  0  0  0  0  0  0
    2.8790    0.5570    0.4260 C   0  0  0  0  0  0  0  0  0  0  0  0
    3.5320    1.6440    0.9970 C   0  0  0  0  0  0  0  0  0  0  0  0
    4.8710    1.5790    1.2850 C   0  0  0  0  0  0  0  0  0  0  0  0
    5.6100    0.4240    1.0150 C   0  0  0  0  0  0  0  0  0  0  0  0
    7.0320    0.3860    1.3110 C   0  0  0  0  0  0  0  0  0  0  0  0
    7.7380    1.5570    1.8930 C   0  0  0  0  0  0  0  0  0  0  0  0
    7.6990   -0.6580    1.0720 O   0  0  0  0  0  0  0  0  0  0  0  0
    4.9730   -0.6370    0.4590 C   0  0  0  0  0  0  0  0  0  0  0  0
    5.6320   -1.8070    0.1670 O   0  0  0  0  0  0  0  0  0  0  0  0
    5.7190   -2.8850    1.1040 C   0  0  0  0  0  0  0  0  0  0  0  0
   -1.7890   -1.3350   -1.4830 C   0  0  0  0  0  0  0  0  0  0  0  0
   -2.9360   -1.0010   -1.0060 O   0  0  0  0  0  0  0  0  0  0  0  0
   -1.5100   -2.7600   -1.4340 C   0  0  0  0  0  0  0  0  0  0  0  0
   -2.7620   -3.5170   -1.1990 C   0  0  0  0  0  0  0  0  0  0  0  0
   -3.4590   -4.2290   -2.1370 C   0  0  0  0  0  0  0  0  0  0  0  0
   -4.5290   -4.7740   -1.5810 N   0  0  0  0  0  0  0  0  0  0  0  0
   -4.5500   -4.4220   -0.2450 C   0  0  0  0  0  0  0  0  0  0  0  0
   -5.5140   -4.8360    0.5410 C   0  0  0  0  0  0  0  0  0  0  0  0
   -3.4530   -3.6380    0.0030 C   0  0  0  0  0  0  0  0  0  0  0  0
   -3.0920   -3.0990    1.1330 C   0  0  0  0  0  0  0  0  0  0  0  0
   -3.7630   -3.1850    2.4150 C   0  0  0  0  0  0  0  0  0  0  0  0
   -1.4810    1.5040   -0.4810 C   0  0  0  0  0  0  0  0  0  0  0  0
   -1.9500    2.8050   -0.1520 C   0  0  0  0  0  0  0  0  0  0  0  0
   -1.8810    3.2020    1.2470 C   0  0  0  0  0  0  0  0  0  0  0  0
   -1.7030    2.3710    2.2640 C   0  0  0  0  0  0  0  0  0  0  0  0
   -1.6780    3.1040    3.5350 C   0  0  0  0  0  0  0  0  0  0  0  0
   -1.8380    4.4920    3.1260 C   0  0  0  0  0  0  0  0  0  0  0  0
   -1.9580    4.5310    1.7900 C   0  0  0  0  0  0  0  0  0  0  0  0
  1  2  2  0
  2  3  1  0
  3  4  2  0
  3 36  1  0
  4  5  1  0
  5  6  1  0
  5  7  2  0
  7  8  1  0
  7 35  1  0
  8  9  1  0
  8 24  1  0
  9 10  1  0
 10 11  1  0
 11 12  1  0
 12 13  1  0
 13 14  2  0
 13 21  1  0
 14 15  1  0
 15 16  2  0
 16 17  1  0
 17 18  1  0
 17 21  2  0
 18 19  1  0
 18 20  2  0
 21 22  1  0
 22 23  1  0
 24 25  2  0
 24 26  1  0
 26 27  1  0
 27 28  2  0
 27 32  1  0
 28 29  1  0
 29 30  1  0
 30 31  2  0
 30 32  1  0
 32 33  2  3
 33 34  1  0
 35 36  2  0
 36 37  1  0
 37 38  2  0
 37 41  1  0
 38 39  1  0
 39 40  1  0
 40 41  2  0
M  END
