
     RDKit          3D

 42 47  0  0  0  0  0  0  0  0999 V2000
   -7.5930    4.8600    0.2480 O   0  0  0  0  0  0  0  0  0  0  0  0
   -6.6130    4.5030   -0.4190 C   0  0  0  0  0  0  0  0  0  0  0  0
   -6.1120    5.3650   -1.3840 O   0  0  0  0  0  0  0  0  0  0  0  0
   -5.9840    3.1910   -0.2030 C   0  0  0  0  0  0  0  0  0  0  0  0
   -4.8970    2.6860   -0.8790 C   0  0  0  0  0  0  0  0  0  0  0  0
   -4.5790    1.4020   -0.4000 C   0  0  0  0  0  0  0  0  0  0  0  0
   -3.4890    0.5860   -0.8940 C   0  0  0  0  0  0  0  0  0  0  0  0
   -3.1820   -0.6520   -0.4310 C   0  0  0  0  0  0  0  0  0  0  0  0
   -2.1090   -1.3520   -0.9780 C   0  0  0  0  0  0  0  0  0  0  0  0
   -1.3180   -0.8580   -1.9830 C   0  0  0  0  0  0  0  0  0  0  0  0
   -0.2080   -1.6640   -2.4890 C   0  0  0  0  0  0  0  0  0  0  0  0
    1.0830   -1.3660   -1.9630 N   0  0  0  0  0  0  0  0  0  0  0  0
    1.8020   -0.3990   -2.6040 C   0  0  0  0  0  0  0  0  0  0  0  0
    3.0560   -0.0210   -2.1800 C   0  0  0  0  0  0  0  0  0  0  0  0
    3.6120   -0.6240   -1.0860 C   0  0  0  0  0  0  0  0  0  0  0  0
    4.8870   -0.2540   -0.6380 C   0  0  0  0  0  0  0  0  0  0  0  0
    5.4520   -0.8580    0.4650 C   0  0  0  0  0  0  0  0  0  0  0  0
    6.7780   -0.4590    0.9150 C   0  0  0  0  0  0  0  0  0  0  0  0
    7.4690   -0.9670    1.9910 C   0  0  0  0  0  0  0  0  0  0  0  0
    8.6710   -0.3150    2.0570 C   0  0  0  0  0  0  0  0  0  0  0  0
    8.6810    0.5910    0.9970 C   0  0  0  0  0  0  0  0  0  0  0  0
    9.7720    1.5090    0.6730 C   0  0  0  0  0  0  0  0  0  0  0  0
   10.8250    1.5560    1.3480 O   0  0  0  0  0  0  0  0  0  0  0  0
    9.6470    2.3570   -0.4120 O   0  0  0  0  0  0  0  0  0  0  0  0
    7.5500    0.4410    0.3900 O   0  0  0  0  0  0  0  0  0  0  0  0
    4.7160   -1.8320    1.1020 C   0  0  0  0  0  0  0  0  0  0  0  0
    3.4600   -2.2100    0.6760 C   0  0  0  0  0  0  0  0  0  0  0  0
    2.9130   -1.5900   -0.4320 C   0  0  0  0  0  0  0  0  0  0  0  0
    1.6490   -1.9360   -0.9010 C   0  0  0  0  0  0  0  0  0  0  0  0
    0.8560   -3.1020   -0.1000 S   0  0  0  0  0  0  0  0  0  0  0  0
   -1.6350    0.4010   -2.4490 C   0  0  0  0  0  0  0  0  0  0  0  0
   -2.6900    1.1120   -1.9240 C   0  0  0  0  0  0  0  0  0  0  0  0
   -5.4900    1.1860    0.5490 N   0  0  0  0  0  0  0  0  0  0  0  0
   -5.6560    0.0370    1.3850 C   0  0  0  0  0  0  0  0  0  0  0  0
   -5.0370   -0.0620    2.6070 C   0  0  0  0  0  0  0  0  0  0  0  0
   -5.2280   -1.1530    3.4080 C   0  0  0  0  0  0  0  0  0  0  0  0
   -6.0600   -2.1770    2.9810 C   0  0  0  0  0  0  0  0  0  0  0  0
   -6.3370   -3.6030    3.9790 Cl  0  0  0  0  0  0  0  0  0  0  0  0
   -6.6920   -2.0890    1.7480 C   0  0  0  0  0  0  0  0  0  0  0  0
   -7.7550   -3.3940    1.2010 Cl  0  0  0  0  0  0  0  0  0  0  0  0
   -6.4820   -0.9820    0.9630 C   0  0  0  0  0  0  0  0  0  0  0  0
   -6.3220    2.2400    0.6690 N   0  0  0  0  0  0  0  0  0  0  0  0
  1  2  2  0
  2  3  1  0
  2  4  1  0
  4  5  1  0
  4 42  2  0
  5  6  2  0
  6  7  1  0
  6 33  1  0
  7  8  2  0
  7 32  1  0
  8  9  1  0
  9 10  2  0
 10 11  1  0
 10 31  1  0
 11 12  1  0
 12 13  1  0
 12 29  1  0
 13 14  2  0
 14 15  1  0
 15 16  2  0
 15 28  1  0
 16 17  1  0
 17 18  1  0
 17 26  2  0
 18 19  2  0
 18 25  1  0
 19 20  1  0
 20 21  2  0
 21 22  1  0
 21 25  1  0
 22 23  2  0
 22 24  1  0
 26 27  1  0
 27 28  2  0
 28 29  1  0
 29 30  2  0
 31 32  2  0
 33 34  1  0
 33 42  1  0
 34 35  2  0
 34 41  1  0
 35 36  1  0
 36 37  2  0
 37 38  1  0
 37 39  1  0
 39 40  1  0
 39 41  2  0
M  END
