
     RDKit          3D

 41 45  0  0  0  0  0  0  0  0999 V2000
    7.3950   -5.0490    0.9340 C   0  0  0  0  0  0  0  0  0  0  0  0
    7.0680   -3.8480    1.8150 C   0  0  0  0  0  0  0  0  0  0  0  0
    5.9270   -3.1360    1.1870 C   0  0  0  0  0  0  0  0  0  0  0  0
    6.1750   -2.1490    0.2400 C   0  0  0  0  0  0  0  0  0  0  0  0
    5.1370   -1.4670   -0.3620 C   0  0  0  0  0  0  0  0  0  0  0  0
    3.8290   -1.7820   -0.0070 C   0  0  0  0  0  0  0  0  0  0  0  0
    2.6900   -1.0670   -0.6470 C   0  0  0  0  0  0  0  0  0  0  0  0
    2.5160    0.2040    0.0870 C   0  0  0  0  0  0  0  0  0  0  0  0
    3.2190    0.5520    1.0670 O   0  0  0  0  0  0  0  0  0  0  0  0
    1.5090    1.1090   -0.3100 O   0  0  0  0  0  0  0  0  0  0  0  0
    1.3500    2.3110    0.3720 C   0  0  0  0  0  0  0  0  0  0  0  0
    0.2840    3.1460   -0.1690 C   0  0  0  0  0  0  0  0  0  0  0  0
    0.1640    4.3180    0.3830 O   0  0  0  0  0  0  0  0  0  0  0  0
   -0.5960    2.8120   -1.1980 N   0  0  0  0  0  0  0  0  0  0  0  0
   -1.5830    3.8600   -1.6000 C   0  0  0  0  0  0  0  0  0  0  0  0
   -2.8050    3.7440   -0.8070 C   0  0  0  0  0  0  0  0  0  0  0  0
   -3.7810    2.8040   -0.9760 C   0  0  0  0  0  0  0  0  0  0  0  0
   -4.9050    2.8100   -0.1760 C   0  0  0  0  0  0  0  0  0  0  0  0
   -5.0810    3.7490    0.8080 C   0  0  0  0  0  0  0  0  0  0  0  0
   -6.2520    3.7420    1.6290 N   0  0  0  0  0  0  0  0  0  0  0  0
   -7.2800    2.7510    1.4360 C   0  0  0  0  0  0  0  0  0  0  0  0
   -4.1080    4.6950    0.9840 C   0  0  0  0  0  0  0  0  0  0  0  0
   -4.2630    5.6580    1.9750 O   0  0  0  0  0  0  0  0  0  0  0  0
   -3.2700    6.6430    2.1720 C   0  0  0  0  0  0  0  0  0  0  0  0
   -2.9980    4.6960    0.2000 C   0  0  0  0  0  0  0  0  0  0  0  0
   -0.6850    1.6150   -1.9620 C   0  0  1  0  0  0  0  0  0  0  0  0
    0.5100    1.4180   -2.8690 C   0  0  0  0  0  0  0  0  0  0  0  0
   -0.9660    0.3770   -1.2030 C   0  0  0  0  0  0  0  0  0  0  0  0
   -1.5690    0.4370    0.0590 C   0  0  0  0  0  0  0  0  0  0  0  0
   -1.8840   -0.6990    0.7780 C   0  0  0  0  0  0  0  0  0  0  0  0
   -1.6190   -1.9590    0.2870 C   0  0  0  0  0  0  0  0  0  0  0  0
   -1.8070   -3.1810    0.7450 O   0  0  0  0  0  0  0  0  0  0  0  0
   -1.3810   -4.0900   -0.1020 C   0  0  0  0  0  0  0  0  0  0  0  0
   -0.8830   -3.3950   -1.1820 C   0  0  0  0  0  0  0  0  0  0  0  0
   -1.0280   -2.0460   -0.9480 C   0  0  0  0  0  0  0  0  0  0  0  0
   -0.7110   -0.8920   -1.6710 C   0  0  0  0  0  0  0  0  0  0  0  0
   -0.3860   -4.3780   -2.1720 C   0  0  0  0  0  0  0  0  0  0  0  0
   -0.1900   -5.6400   -1.3830 C   0  0  0  0  0  0  0  0  0  0  0  0
   -1.2390   -5.5740   -0.3230 C   0  0  0  0  0  0  0  0  0  0  0  0
    3.5550   -2.7500    0.9230 C   0  0  0  0  0  0  0  0  0  0  0  0
    4.6300   -3.4150    1.5080 C   0  0  0  0  0  0  0  0  0  0  0  0
  1  2  1  0
  2  3  1  0
  3  4  2  0
  3 41  1  0
  4  5  1  0
  5  6  2  0
  6  7  1  0
  6 40  1  0
  7  8  1  0
  8  9  2  0
  8 10  1  0
 10 11  1  0
 11 12  1  0
 12 13  2  0
 12 14  1  0
 14 15  1  0
 14 26  1  0
 15 16  1  0
 16 17  2  0
 16 25  1  0
 17 18  1  0
 18 19  2  0
 19 20  1  0
 19 22  1  0
 20 21  1  0
 22 23  1  0
 22 25  2  0
 23 24  1  0
 26 27  1  1
 26 28  1  0
 28 29  2  0
 28 36  1  0
 29 30  1  0
 30 31  2  0
 31 32  1  0
 31 35  1  0
 32 33  1  0
 33 34  2  0
 33 39  1  0
 34 35  1  0
 34 37  1  0
 35 36  2  0
 37 38  1  0
 38 39  1  0
 40 41  2  0
M  END
