
     RDKit          3D

 41 45  0  0  0  0  0  0  0  0999 V2000
    8.2110   -0.6760   -1.9350 C   0  0  0  0  0  0  0  0  0  0  0  0
    7.2040    0.3460   -1.7450 O   0  0  0  0  0  0  0  0  0  0  0  0
    5.8990    0.0750   -1.6920 C   0  0  0  0  0  0  0  0  0  0  0  0
    5.6370   -1.1980   -1.8850 O   0  0  0  0  0  0  0  0  0  0  0  0
    4.7140    0.8720   -1.4370 C   0  0  0  0  0  0  0  0  0  0  0  0
    4.7730    2.1290   -1.2900 C   0  0  0  0  0  0  0  0  0  0  0  0
    6.0270    2.9750   -1.3690 C   0  0  0  0  0  0  0  0  0  0  0  0
    3.6180    2.8330   -0.8540 N   0  0  0  0  0  0  0  0  0  0  0  0
    2.4260    2.1130   -0.6060 C   0  0  0  0  0  0  0  0  0  0  0  0
    1.3220    2.8270   -0.1900 C   0  0  0  0  0  0  0  0  0  0  0  0
    0.1420    2.2670    0.0600 C   0  0  0  0  0  0  0  0  0  0  0  0
   -1.0120    2.9390    0.4830 O   0  0  0  0  0  0  0  0  0  0  0  0
   -1.1730    4.2700    0.7190 C   0  0  0  0  0  0  0  0  0  0  0  0
   -0.0140    0.8290   -0.1170 C   0  0  0  0  0  0  0  0  0  0  0  0
   -1.3250    0.4480    0.3440 C   0  0  0  0  0  0  0  0  0  0  0  0
   -2.3540   -0.1510   -0.4420 N   0  0  0  0  0  0  0  0  0  0  0  0
   -3.5530   -0.1160    0.4660 C   0  0  0  0  0  0  0  0  0  0  0  0
   -3.9210    1.2740    0.8010 C   0  0  0  0  0  0  0  0  0  0  0  0
   -4.4810    2.1380   -0.3480 C   0  0  0  0  0  0  0  0  0  0  0  0
   -5.7740    1.4010   -0.6390 C   0  0  0  0  0  0  0  0  0  0  0  0
   -5.9030    0.5230   -1.6390 C   0  0  0  0  0  0  0  0  0  0  0  0
   -7.0150   -0.3650   -1.6500 C   0  0  0  0  0  0  0  0  0  0  0  0
   -7.9220   -0.2930   -0.6220 C   0  0  0  0  0  0  0  0  0  0  0  0
   -8.9550   -1.4010   -0.4990 C   0  0  1  0  0  0  0  0  0  0  0  0
   -8.2120   -2.7050   -0.8410 C   0  0  0  0  0  0  0  0  0  0  0  0
   -9.3140   -1.5100    0.9850 C   0  0  0  0  0  0  0  0  0  0  0  0
   -7.7970    0.6140    0.3910 C   0  0  0  0  0  0  0  0  0  0  0  0
   -6.7260    1.4700    0.3940 C   0  0  0  0  0  0  0  0  0  0  0  0
    1.0800    0.1500   -0.5250 C   0  0  0  0  0  0  0  0  0  0  0  0
    2.3170    0.7310   -0.7800 C   0  0  0  0  0  0  0  0  0  0  0  0
    3.4650   -0.0190   -1.1470 C   0  0  2  0  0  0  0  0  0  0  0  0
    4.1180   -0.8740   -0.0440 C   0  0  0  0  0  0  0  0  0  0  0  0
    4.9140   -0.1790    0.8510 C   0  0  0  0  0  0  0  0  0  0  0  0
    5.7950   -0.8440    1.7310 C   0  0  0  0  0  0  0  0  0  0  0  0
    5.8470   -2.2140    1.6720 C   0  0  0  0  0  0  0  0  0  0  0  0
    5.0590   -2.9120    0.8020 C   0  0  0  0  0  0  0  0  0  0  0  0
    4.1740   -2.2230   -0.0720 C   0  0  0  0  0  0  0  0  0  0  0  0
    5.1530   -4.2940    0.7950 O   0  0  0  0  0  0  0  0  0  0  0  0
    6.0660   -4.9650    1.6310 C   0  0  0  0  0  0  0  0  0  0  0  0
    7.3120   -4.0840    1.8050 C   0  0  0  0  0  0  0  0  0  0  0  0
    6.7480   -2.9310    2.5190 O   0  0  0  0  0  0  0  0  0  0  0  0
  1  2  1  0
  2  3  1  0
  3  4  2  0
  3  5  1  0
  5  6  2  0
  5 31  1  0
  6  7  1  0
  6  8  1  0
  8  9  1  0
  9 10  2  0
  9 30  1  0
 10 11  1  0
 11 12  1  0
 11 14  2  0
 12 13  1  0
 14 15  1  0
 14 29  1  0
 15 16  1  0
 16 17  1  0
 17 18  1  0
 18 19  1  0
 19 20  1  0
 20 21  2  0
 20 28  1  0
 21 22  1  0
 22 23  2  0
 23 24  1  0
 23 27  1  0
 24 25  1  1
 24 26  1  0
 27 28  2  0
 29 30  2  0
 30 31  1  0
 31 32  1  1
 32 33  2  0
 32 37  1  0
 33 34  1  0
 34 35  2  0
 35 36  1  0
 35 41  1  0
 36 37  2  0
 36 38  1  0
 38 39  1  0
 39 40  1  0
 40 41  1  0
M  END
