
     RDKit          3D

 41 44  0  0  0  0  0  0  0  0999 V2000
    8.3670    1.2790   -2.2680 C   0  0  0  0  0  0  0  0  0  0  0  0
    8.6360    2.3150   -1.5270 C   0  0  0  0  0  0  0  0  0  0  0  0
    8.1970    2.4930   -0.1520 C   0  0  0  0  0  0  0  0  0  0  0  0
    8.9120    3.3270    0.6940 C   0  0  0  0  0  0  0  0  0  0  0  0
   10.1250    3.9860    0.2220 C   0  0  0  0  0  0  0  0  0  0  0  0
   10.7740    4.7570    1.0050 O   0  0  0  0  0  0  0  0  0  0  0  0
    8.5170    3.5550    2.0070 C   0  0  0  0  0  0  0  0  0  0  0  0
    7.3910    2.9360    2.4690 C   0  0  0  0  0  0  0  0  0  0  0  0
    6.6490    2.0990    1.6660 C   0  0  0  0  0  0  0  0  0  0  0  0
    7.0520    1.8850    0.3710 C   0  0  0  0  0  0  0  0  0  0  0  0
    6.3440    1.0690   -0.4430 O   0  0  0  0  0  0  0  0  0  0  0  0
    5.2100    0.3220   -0.3650 C   0  0  0  0  0  0  0  0  0  0  0  0
    3.9110    1.0190   -0.1530 C   0  0  0  0  0  0  0  0  0  0  0  0
    2.7830    0.1140   -0.0730 N   0  0  0  0  0  0  0  0  0  0  0  0
    1.5600    0.7870    0.0990 C   0  0  0  0  0  0  0  0  0  0  0  0
    0.4130    0.2790   -0.7900 C   0  0  0  0  0  0  0  0  0  0  0  0
    0.3880   -1.1640   -0.6810 C   0  0  0  0  0  0  0  0  0  0  0  0
    1.5900   -1.7990   -0.7560 C   0  0  0  0  0  0  0  0  0  0  0  0
    1.6200   -3.1820   -0.6270 C   0  0  0  0  0  0  0  0  0  0  0  0
    0.4480   -3.8700   -0.4280 C   0  0  0  0  0  0  0  0  0  0  0  0
    0.4960   -5.2440   -0.3030 O   0  0  0  0  0  0  0  0  0  0  0  0
    1.6840   -5.9870   -0.3660 C   0  0  0  0  0  0  0  0  0  0  0  0
   -0.7860   -3.1760   -0.3550 C   0  0  0  0  0  0  0  0  0  0  0  0
   -1.8560   -4.0170   -0.1450 O   0  0  0  0  0  0  0  0  0  0  0  0
   -2.2310   -4.4270    1.1780 C   0  0  0  0  0  0  0  0  0  0  0  0
   -0.8520   -1.8290   -0.4790 C   0  0  0  0  0  0  0  0  0  0  0  0
   -2.0090   -1.0140   -0.4460 C   0  0  0  0  0  0  0  0  0  0  0  0
   -3.2800   -1.6210   -0.3230 N   0  0  0  0  0  0  0  0  0  0  0  0
   -4.4800   -0.7830   -0.1690 C   0  0  0  0  0  0  0  0  0  0  0  0
   -4.2270    0.4170   -0.1660 O   0  0  0  0  0  0  0  0  0  0  0  0
   -5.7320   -1.4250   -0.0410 C   0  0  0  0  0  0  0  0  0  0  0  0
   -6.9180   -0.9760    0.0680 C   0  0  0  0  0  0  0  0  0  0  0  0
   -7.5040    0.3200    0.0990 C   0  0  0  0  0  0  0  0  0  0  0  0
   -6.9800    1.4780   -0.3750 C   0  0  0  0  0  0  0  0  0  0  0  0
   -7.5680    2.7260   -0.2230 C   0  0  0  0  0  0  0  0  0  0  0  0
   -8.7490    2.8420    0.4340 C   0  0  0  0  0  0  0  0  0  0  0  0
   -9.3660    4.1810    0.5890 C   0  0  0  0  0  0  0  0  0  0  0  0
   -9.3180    1.6930    0.9280 C   0  0  0  0  0  0  0  0  0  0  0  0
   -8.7380    0.4650    0.7790 C   0  0  0  0  0  0  0  0  0  0  0  0
   -9.4000   -0.7270    1.3370 C   0  0  0  0  0  0  0  0  0  0  0  0
    2.8050   -0.9750   -0.9900 C   0  0  0  0  0  0  0  0  0  0  0  0
  1  2  2  0
  2  3  1  0
  3  4  2  0
  3 10  1  0
  4  5  1  0
  4  7  1  0
  5  6  2  0
  7  8  2  0
  8  9  1  0
  9 10  2  0
 10 11  1  0
 11 12  1  0
 12 13  1  0
 13 14  1  0
 14 15  1  0
 14 41  1  0
 15 16  1  0
 16 17  1  0
 17 18  2  0
 17 26  1  0
 18 19  1  0
 18 41  1  0
 19 20  2  0
 20 21  1  0
 20 23  1  0
 21 22  1  0
 23 24  1  0
 23 26  2  0
 24 25  1  0
 26 27  1  0
 27 28  1  0
 28 29  1  0
 29 30  2  0
 29 31  1  0
 31 32  2  3
 32 33  1  0
 33 34  2  0
 33 39  1  0
 34 35  1  0
 35 36  2  0
 36 37  1  0
 36 38  1  0
 38 39  2  0
 39 40  1  0
M  END
