
     RDKit          3D

 41 44  0  0  0  0  0  0  0  0999 V2000
   -6.0250    4.8730    1.5520 C   0  0  0  0  0  0  0  0  0  0  0  0
   -4.8420    4.4040    1.1900 C   0  0  0  0  0  0  0  0  0  0  0  0
   -4.6180    3.4120    0.1010 C   0  0  0  0  0  0  0  0  0  0  0  0
   -3.9700    2.2090    0.7610 C   0  0  0  0  0  0  0  0  0  0  0  0
   -3.6780    1.1140   -0.0380 N   0  0  0  0  0  0  0  0  0  0  0  0
   -4.6170    0.2970   -0.6600 C   0  0  1  0  0  0  0  0  0  0  0  0
   -4.3170    0.0140   -2.0810 C   0  0  0  0  0  0  0  0  0  0  0  0
   -2.9970   -0.5710   -2.4130 C   0  0  0  0  0  0  0  0  0  0  0  0
   -1.9200    0.3000   -2.0580 O   0  0  0  0  0  0  0  0  0  0  0  0
   -0.6060   -0.0620   -2.2650 C   0  0  0  0  0  0  0  0  0  0  0  0
   -0.1860   -1.2470   -2.7860 C   0  0  0  0  0  0  0  0  0  0  0  0
    1.1550   -1.5540   -2.9790 C   0  0  0  0  0  0  0  0  0  0  0  0
    2.1410   -0.6300   -2.6350 C   0  0  0  0  0  0  0  0  0  0  0  0
    3.5460   -0.9700   -2.8320 C   0  0  0  0  0  0  0  0  0  0  0  0
    4.4800   -0.1880   -2.5510 O   0  0  0  0  0  0  0  0  0  0  0  0
    1.7450    0.5760   -2.1080 C   0  0  0  0  0  0  0  0  0  0  0  0
    2.7890    1.5580   -1.7940 C   0  0  0  0  0  0  0  0  0  0  0  0
    3.0510    2.4030   -2.7280 O   0  0  0  0  0  0  0  0  0  0  0  0
    3.4820    1.6180   -0.5840 N   0  0  0  0  0  0  0  0  0  0  0  0
    4.4870    2.6300   -0.3650 C   0  0  0  0  0  0  0  0  0  0  0  0
    5.6350    2.1400    0.4550 C   0  0  0  0  0  0  0  0  0  0  0  0
    5.6570    0.7060    0.7460 C   0  0  0  0  0  0  0  0  0  0  0  0
    6.8590    0.0770    0.9940 C   0  0  0  0  0  0  0  0  0  0  0  0
    6.9460   -1.2530    1.2780 C   0  0  0  0  0  0  0  0  0  0  0  0
    8.1290   -1.8920    1.5220 O   0  0  0  0  0  0  0  0  0  0  0  0
    9.3910   -1.3170    1.5410 C   0  0  0  0  0  0  0  0  0  0  0  0
    9.5620   -0.2900    2.6090 C   0  0  0  0  0  0  0  0  0  0  0  0
    5.7670   -1.9940    1.3160 C   0  0  0  0  0  0  0  0  0  0  0  0
    5.8100   -3.3270    1.5970 O   0  0  0  0  0  0  0  0  0  0  0  0
    4.5260   -1.3870    1.0660 C   0  0  0  0  0  0  0  0  0  0  0  0
    4.5110   -0.0520    0.7870 C   0  0  0  0  0  0  0  0  0  0  0  0
    3.2220    0.6430    0.4780 C   0  0  0  0  0  0  0  0  0  0  0  0
    0.3850    0.8580   -1.9220 C   0  0  0  0  0  0  0  0  0  0  0  0
   -5.1810   -0.7920    0.1600 C   0  0  0  0  0  0  0  0  0  0  0  0
   -5.0680   -2.1370   -0.1060 C   0  0  0  0  0  0  0  0  0  0  0  0
   -5.6620   -3.0940    0.7020 C   0  0  0  0  0  0  0  0  0  0  0  0
   -5.5310   -4.5430    0.3790 C   0  0  0  0  0  0  0  0  0  0  0  0
   -6.3920   -2.7210    1.8130 C   0  0  0  0  0  0  0  0  0  0  0  0
   -6.5170   -1.3870    2.0980 C   0  0  0  0  0  0  0  0  0  0  0  0
   -7.3130   -1.0120    3.3230 C   0  0  0  0  0  0  0  0  0  0  0  0
   -5.9340   -0.4730    1.3000 C   0  0  0  0  0  0  0  0  0  0  0  0
  1  2  2  0
  2  3  1  0
  3  4  1  0
  4  5  1  0
  5  6  1  0
  6  7  1  6
  6 34  1  0
  7  8  1  0
  8  9  1  0
  9 10  1  0
 10 11  2  0
 10 33  1  0
 11 12  1  0
 12 13  2  0
 13 14  1  0
 13 16  1  0
 14 15  2  0
 16 17  1  0
 16 33  2  0
 17 18  2  0
 17 19  1  0
 19 20  1  0
 19 32  1  0
 20 21  1  0
 21 22  1  0
 22 23  2  0
 22 31  1  0
 23 24  1  0
 24 25  1  0
 24 28  2  0
 25 26  1  0
 26 27  1  0
 28 29  1  0
 28 30  1  0
 30 31  2  0
 31 32  1  0
 34 35  2  0
 34 41  1  0
 35 36  1  0
 36 37  1  0
 36 38  2  0
 38 39  1  0
 39 40  1  0
 39 41  2  0
M  END
