
     RDKit          3D

 40 41  0  0  0  0  0  0  0  0999 V2000
    2.1710   -4.1460    1.3200 C   0  0  0  0  0  0  0  0  0  0  0  0
    1.6820   -2.9320    2.0560 C   0  0  0  0  0  0  0  0  0  0  0  0
    1.9450   -1.6320    1.2750 C   0  0  2  0  0  0  0  0  0  0  0  0
    1.2400   -1.7580    0.0300 N   0  0  0  0  0  0  0  0  0  0  0  0
    0.0430   -0.9800   -0.2290 C   0  0  0  0  0  0  0  0  0  0  0  0
   -0.2890   -0.2260    0.7040 O   0  0  0  0  0  0  0  0  0  0  0  0
   -0.6580   -1.0880   -1.4280 N   0  0  0  0  0  0  0  0  0  0  0  0
   -1.8270   -0.3890   -1.7610 C   0  0  0  0  0  0  0  0  0  0  0  0
   -2.3930   -0.6100   -3.0220 C   0  0  0  0  0  0  0  0  0  0  0  0
   -3.5340    0.0340   -3.4030 C   0  0  0  0  0  0  0  0  0  0  0  0
   -4.2010    0.9320   -2.5910 C   0  0  0  0  0  0  0  0  0  0  0  0
   -5.4210    1.6600   -2.9640 C   0  0  0  0  0  0  0  0  0  0  0  0
   -6.7130    0.9850   -2.6940 C   0  0  0  0  0  0  0  0  0  0  0  0
   -6.9540    0.6530   -1.2760 C   0  0  0  0  0  0  0  0  0  0  0  0
   -7.7470    1.5100   -0.5080 C   0  0  0  0  0  0  0  0  0  0  0  0
   -8.0220    1.3140    0.8150 C   0  0  0  0  0  0  0  0  0  0  0  0
   -8.8520    2.2190    1.5960 C   0  0  0  0  0  0  0  0  0  0  0  0
   -9.3390    3.2250    1.0420 O   0  0  0  0  0  0  0  0  0  0  0  0
   -9.0880    1.9600    2.9150 O   0  0  0  0  0  0  0  0  0  0  0  0
   -9.8870    2.8020    3.7360 C   0  0  0  0  0  0  0  0  0  0  0  0
   -7.4820    0.2030    1.4200 C   0  0  0  0  0  0  0  0  0  0  0  0
   -6.6910   -0.6620    0.6740 C   0  0  0  0  0  0  0  0  0  0  0  0
   -6.4280   -0.4490   -0.6460 C   0  0  0  0  0  0  0  0  0  0  0  0
   -5.6450   -1.3240   -1.3620 O   0  0  0  0  0  0  0  0  0  0  0  0
   -5.0580   -2.4830   -0.8240 C   0  0  0  0  0  0  0  0  0  0  0  0
   -3.6340    1.1390   -1.3550 C   0  0  0  0  0  0  0  0  0  0  0  0
   -2.4640    0.4930   -0.9350 C   0  0  0  0  0  0  0  0  0  0  0  0
    3.4320   -1.4340    1.1270 C   0  0  2  0  0  0  0  0  0  0  0  0
    4.0040   -1.3240    2.4240 O   0  0  0  0  0  0  0  0  0  0  0  0
    3.8080   -0.2070    0.3810 C   0  0  0  0  0  0  0  0  0  0  0  0
    5.3140   -0.1760    0.3500 N   0  0  0  0  0  0  0  0  0  0  0  0
    5.7740   -1.1800   -0.5090 C   0  0  0  0  0  0  0  0  0  0  0  0
    7.0080   -1.8600    0.0240 C   0  0  0  0  0  0  0  0  0  0  0  0
    6.7150   -2.4590    1.2660 O   0  0  0  0  0  0  0  0  0  0  0  0
    5.6980    1.1690    0.2200 C   0  0  0  0  0  0  0  0  0  0  0  0
    7.0770    1.6250   -0.0200 C   0  0  2  0  0  0  0  0  0  0  0  0
    7.7350    1.2150   -1.2880 C   0  0  0  0  0  0  0  0  0  0  0  0
    7.9680    1.3290    1.1020 N   0  0  0  0  0  0  0  0  0  0  0  0
    7.0330    3.1840   -0.0810 C   0  0  0  0  0  0  0  0  0  0  0  0
    6.5510    3.7150    1.0890 O   0  0  0  0  0  0  0  0  0  0  0  0
  1  2  1  0
  3  2  1  1
  3  4  1  0
  3 28  1  0
  4  5  1  0
  5  6  2  0
  5  7  1  0
  7  8  1  0
  8  9  2  0
  8 27  1  0
  9 10  1  0
 10 11  2  0
 11 12  1  0
 11 26  1  0
 12 13  1  0
 13 14  1  0
 14 15  2  0
 14 23  1  0
 15 16  1  0
 16 17  1  0
 16 21  2  0
 17 18  2  0
 17 19  1  0
 19 20  1  0
 21 22  1  0
 22 23  2  0
 23 24  1  0
 24 25  1  0
 26 27  2  0
 28 29  1  1
 28 30  1  0
 30 31  1  0
 31 32  1  0
 31 35  1  0
 32 33  1  0
 33 34  1  0
 35 36  1  0
 36 37  1  6
 36 38  1  0
 36 39  1  0
 39 40  1  0
M  CHG  1  38   1
M  END
