
     RDKit          3D

 40 41  0  0  0  0  0  0  0  0999 V2000
   -1.9570   -2.7790    2.2670 C   0  0  0  0  0  0  0  0  0  0  0  0
   -1.3480   -1.4910    1.8470 C   0  0  0  0  0  0  0  0  0  0  0  0
   -1.8310   -0.8700    0.5830 C   0  0  2  0  0  0  0  0  0  0  0  0
   -1.6750   -1.6360   -0.6590 C   0  0  0  0  0  0  0  0  0  0  0  0
   -2.3030   -2.9490   -0.8530 C   0  0  0  0  0  0  0  0  0  0  0  0
   -3.8120   -2.9670   -0.8560 C   0  0  0  0  0  0  0  0  0  0  0  0
   -4.3680   -4.2040   -1.0280 O   0  0  0  0  0  0  0  0  0  0  0  0
   -4.1250   -5.1410   -0.0740 C   0  0  0  0  0  0  0  0  0  0  0  0
   -1.0430    0.4150    0.4410 N   0  0  0  0  0  0  0  0  0  0  0  0
    0.3400    0.2370    0.6310 C   0  0  0  0  0  0  0  0  0  0  0  0
    1.0340    1.4640    0.0110 C   0  0  2  0  0  0  0  0  0  0  0  0
    0.5450    2.7170    0.6990 C   0  0  0  0  0  0  0  0  0  0  0  0
    0.6510    1.6180   -1.4540 C   0  0  0  0  0  0  0  0  0  0  0  0
    2.4930    1.3670    0.1080 C   0  0  0  0  0  0  0  0  0  0  0  0
    3.2350    2.4340    0.5390 C   0  0  0  0  0  0  0  0  0  0  0  0
    4.6160    2.3840    0.6250 C   0  0  0  0  0  0  0  0  0  0  0  0
    5.2820    1.2450    0.2760 C   0  0  0  0  0  0  0  0  0  0  0  0
    6.7260    1.1840    0.3400 C   0  0  0  0  0  0  0  0  0  0  0  0
    7.4130    0.0960    0.0380 C   0  0  0  0  0  0  0  0  0  0  0  0
    8.8720    0.1510    0.1360 C   0  0  0  0  0  0  0  0  0  0  0  0
    9.6430   -0.9810   -0.1670 O   0  0  0  0  0  0  0  0  0  0  0  0
    9.2220   -2.1660    0.5170 C   0  0  0  0  0  0  0  0  0  0  0  0
    9.4890    1.2540    0.5070 C   0  0  0  0  0  0  0  0  0  0  0  0
   10.8930    1.2310    0.5800 O   0  0  0  0  0  0  0  0  0  0  0  0
    8.7770    2.5000    0.8460 C   0  0  0  0  0  0  0  0  0  0  0  0
    7.3980    2.3180    0.7380 O   0  0  0  0  0  0  0  0  0  0  0  0
    4.5520    0.1740   -0.1540 C   0  0  0  0  0  0  0  0  0  0  0  0
    3.1500    0.2070   -0.2480 C   0  0  0  0  0  0  0  0  0  0  0  0
   -3.1880   -0.3430    0.7720 C   0  0  0  0  0  0  0  0  0  0  0  0
   -3.7680   -0.5040    1.8700 O   0  0  0  0  0  0  0  0  0  0  0  0
   -3.8460    0.3510   -0.2570 N   0  0  0  0  0  0  0  0  0  0  0  0
   -5.1660    0.9280   -0.0320 C   0  0  2  0  0  0  0  0  0  0  0  0
   -6.2200   -0.0550   -0.4260 C   0  0  0  0  0  0  0  0  0  0  0  0
   -6.1550   -0.4460   -1.8470 C   0  0  0  0  0  0  0  0  0  0  0  0
   -7.1040   -1.3640   -2.3710 N   0  0  0  0  0  0  0  0  0  0  0  0
   -5.2560    0.0360   -2.5880 O   0  0  0  0  0  0  0  0  0  0  0  0
   -5.2840    2.2270   -0.6890 C   0  0  0  0  0  0  0  0  0  0  0  0
   -4.3060    2.6930   -1.3280 O   0  0  0  0  0  0  0  0  0  0  0  0
   -6.4670    2.9730   -0.6270 N   0  0  0  0  0  0  0  0  0  0  0  0
   -6.5940    4.2840   -1.2900 C   0  0  0  0  0  0  0  0  0  0  0  0
  1  2  1  0
  3  2  1  1
  3  4  1  0
  3  9  1  0
  3 29  1  0
  4  5  1  0
  5  6  1  0
  6  7  1  0
  7  8  1  0
  9 10  1  0
 10 11  1  0
 11 12  1  1
 11 13  1  0
 11 14  1  0
 14 15  2  0
 14 28  1  0
 15 16  1  0
 16 17  2  0
 17 18  1  0
 17 27  1  0
 18 19  2  0
 18 26  1  0
 19 20  1  0
 20 21  1  0
 20 23  2  0
 21 22  1  0
 23 24  1  0
 23 25  1  0
 25 26  1  0
 27 28  2  0
 29 30  2  0
 29 31  1  0
 31 32  1  0
 32 33  1  6
 32 37  1  0
 33 34  1  0
 34 35  1  0
 34 36  2  0
 37 38  2  0
 37 39  1  0
 39 40  1  0
M  CHG  1   9   1
M  END
