
     RDKit          3D

 40 41  0  0  0  0  0  0  0  0999 V2000
   -6.9020    4.3170    1.2220 C   0  0  0  0  0  0  0  0  0  0  0  0
   -6.9430    3.7550   -0.2120 C   0  0  0  0  0  0  0  0  0  0  0  0
   -5.7320    3.1680   -0.4380 O   0  0  0  0  0  0  0  0  0  0  0  0
   -5.5920    1.9400    0.2390 C   0  0  0  0  0  0  0  0  0  0  0  0
   -4.1980    1.5050    0.0980 C   0  0  2  0  0  0  0  0  0  0  0  0
   -3.7720    1.5590   -1.2420 O   0  0  0  0  0  0  0  0  0  0  0  0
   -3.7250    0.2510    0.7450 C   0  0  0  0  0  0  0  0  0  0  0  0
   -4.0420   -0.9170   -0.1080 N   0  0  0  0  0  0  0  0  0  0  0  0
   -2.9730   -1.1680   -1.0710 C   0  0  0  0  0  0  0  0  0  0  0  0
   -3.3250   -1.6100   -2.1590 O   0  0  0  0  0  0  0  0  0  0  0  0
   -1.6160   -0.8950   -0.6950 C   0  0  2  0  0  0  0  0  0  0  0  0
   -1.1920   -1.8630    0.4320 C   0  0  0  0  0  0  0  0  0  0  0  0
   -0.9630    0.3250   -0.6930 N   0  0  0  0  0  0  0  0  0  0  0  0
    0.4840    0.4330   -0.8190 C   0  0  0  0  0  0  0  0  0  0  0  0
    1.1700   -0.5700   -0.9850 O   0  0  0  0  0  0  0  0  0  0  0  0
    1.0940    1.7980   -0.6990 C   0  0  0  0  0  0  0  0  0  0  0  0
    2.5610    1.5950   -0.6580 N   0  0  0  0  0  0  0  0  0  0  0  0
    3.0060    0.7630    0.4370 C   0  0  0  0  0  0  0  0  0  0  0  0
    2.1610    0.3120    1.2330 O   0  0  0  0  0  0  0  0  0  0  0  0
    4.4800    0.4340    0.6340 C   0  0  1  0  0  0  0  0  0  0  0  0
    4.4440   -1.0930    0.8240 C   0  0  0  0  0  0  0  0  0  0  0  0
    5.2950    0.9700   -0.7990 S   0  0  0  0  0  0  0  0  0  0  0  0
    7.0020    1.1430   -0.9400 C   0  0  0  0  0  0  0  0  0  0  0  0
    7.4610    1.7090   -2.1640 C   0  0  0  0  0  0  0  0  0  0  0  0
    8.7650    1.9570   -2.4010 C   0  0  0  0  0  0  0  0  0  0  0  0
    9.7060    1.6490   -1.4090 C   0  0  0  0  0  0  0  0  0  0  0  0
    9.3080    1.1030   -0.2150 C   0  0  0  0  0  0  0  0  0  0  0  0
   10.2690    0.8000    0.7690 O   0  0  0  0  0  0  0  0  0  0  0  0
   11.6300    1.0630    0.6040 C   0  0  0  0  0  0  0  0  0  0  0  0
    7.9480    0.8630   -0.0140 C   0  0  0  0  0  0  0  0  0  0  0  0
    7.6350    0.3050    1.2030 O   0  0  0  0  0  0  0  0  0  0  0  0
    7.7310   -1.1160    1.2760 C   0  0  0  0  0  0  0  0  0  0  0  0
   -5.1040   -1.7810    0.1710 C   0  0  1  0  0  0  0  0  0  0  0  0
   -5.8980   -2.3820   -0.9520 C   0  0  0  0  0  0  0  0  0  0  0  0
   -7.0710   -3.1280   -0.3170 C   0  0  0  0  0  0  0  0  0  0  0  0
   -6.7120   -4.1800    0.6610 C   0  0  1  0  0  0  0  0  0  0  0  0
   -8.1400   -4.4920    1.6900 Cl  0  0  0  0  0  0  0  0  0  0  0  0
   -6.3320   -5.7050   -0.1780 Cl  0  0  0  0  0  0  0  0  0  0  0  0
   -5.6110   -3.7400    1.6010 C   0  0  0  0  0  0  0  0  0  0  0  0
   -4.5080   -3.0430    0.9100 C   0  0  0  0  0  0  0  0  0  0  0  0
  1  2  1  0
  2  3  1  0
  3  4  1  0
  4  5  1  0
  5  6  1  6
  5  7  1  0
  7  8  1  0
  8  9  1  0
 33  8  1  6
  9 10  2  0
  9 11  1  0
 11 12  1  1
 11 13  1  0
 13 14  1  0
 14 15  2  0
 14 16  1  0
 16 17  1  0
 17 18  1  0
 18 19  2  0
 18 20  1  0
 20 21  1  6
 20 22  1  0
 22 23  1  0
 23 24  2  0
 23 30  1  0
 24 25  1  0
 25 26  2  0
 26 27  1  0
 27 28  1  0
 27 30  2  0
 28 29  1  0
 30 31  1  0
 31 32  1  0
 33 34  1  0
 33 40  1  0
 34 35  1  0
 35 36  1  0
 36 37  1  1
 36 38  1  0
 36 39  1  0
 39 40  1  0
M  END
