
     RDKit          3D

 40 44  0  0  0  0  0  0  0  0999 V2000
    7.3520    4.1180    2.5470 O   0  0  0  0  0  0  0  0  0  0  0  0
    7.6940    2.9490    2.2410 C   0  0  0  0  0  0  0  0  0  0  0  0
    9.0110    2.5940    2.4650 O   0  0  0  0  0  0  0  0  0  0  0  0
    6.7320    1.9860    1.6640 C   0  0  0  0  0  0  0  0  0  0  0  0
    5.4240    2.2980    1.4250 C   0  0  0  0  0  0  0  0  0  0  0  0
    4.8590    1.1260    0.8800 C   0  0  0  0  0  0  0  0  0  0  0  0
    3.4680    1.0900    0.5120 C   0  0  0  0  0  0  0  0  0  0  0  0
    2.8850   -0.0020   -0.0720 C   0  0  0  0  0  0  0  0  0  0  0  0
    1.5160   -0.0340   -0.4180 C   0  0  0  0  0  0  0  0  0  0  0  0
    0.6990    1.0440   -0.1810 C   0  0  0  0  0  0  0  0  0  0  0  0
   -0.7420    1.0280   -0.5430 C   0  0  0  0  0  0  0  0  0  0  0  0
   -0.9940    1.8290   -1.7230 N   0  0  0  0  0  0  0  0  0  0  0  0
   -2.2810    1.9450   -2.2800 C   0  0  0  0  0  0  0  0  0  0  0  0
   -2.5050    2.8760   -3.6240 S   0  0  0  0  0  0  0  0  0  0  0  0
   -3.4650    1.2830   -1.7370 C   0  0  0  0  0  0  0  0  0  0  0  0
   -3.9760    1.6170   -0.5030 C   0  0  0  0  0  0  0  0  0  0  0  0
   -5.1060    0.9740    0.0000 C   0  0  0  0  0  0  0  0  0  0  0  0
   -5.7550   -0.0130   -0.7090 C   0  0  0  0  0  0  0  0  0  0  0  0
   -6.9470   -0.6840   -0.1650 C   0  0  0  0  0  0  0  0  0  0  0  0
   -7.5030   -0.3940    1.0680 C   0  0  0  0  0  0  0  0  0  0  0  0
   -8.5890   -1.2180    1.2180 C   0  0  0  0  0  0  0  0  0  0  0  0
   -8.6690   -1.9980    0.0620 C   0  0  0  0  0  0  0  0  0  0  0  0
   -9.6750   -3.0140   -0.2070 C   0  0  0  0  0  0  0  0  0  0  0  0
   -9.6440   -3.6500   -1.2870 O   0  0  0  0  0  0  0  0  0  0  0  0
  -10.6750   -3.3070    0.6970 O   0  0  0  0  0  0  0  0  0  0  0  0
   -7.6720   -1.6160   -0.6820 O   0  0  0  0  0  0  0  0  0  0  0  0
   -5.2440   -0.3490   -1.9460 C   0  0  0  0  0  0  0  0  0  0  0  0
   -4.1250    0.2870   -2.4440 C   0  0  0  0  0  0  0  0  0  0  0  0
    1.2830    2.1440    0.4060 C   0  0  0  0  0  0  0  0  0  0  0  0
    2.6180    2.1700    0.7420 C   0  0  0  0  0  0  0  0  0  0  0  0
    5.7790    0.1940    0.8080 N   0  0  0  0  0  0  0  0  0  0  0  0
    5.7520   -1.1390    0.3570 C   0  0  0  0  0  0  0  0  0  0  0  0
    5.4150   -2.1790    1.2060 C   0  0  0  0  0  0  0  0  0  0  0  0
    5.4230   -3.4760    0.7530 C   0  0  0  0  0  0  0  0  0  0  0  0
    5.7630   -3.7900   -0.5460 C   0  0  0  0  0  0  0  0  0  0  0  0
    5.7620   -5.4650   -1.0850 Cl  0  0  0  0  0  0  0  0  0  0  0  0
    6.1040   -2.7670   -1.4140 C   0  0  0  0  0  0  0  0  0  0  0  0
    6.5330   -3.1960   -3.0570 Cl  0  0  0  0  0  0  0  0  0  0  0  0
    6.0950   -1.4690   -0.9600 C   0  0  0  0  0  0  0  0  0  0  0  0
    6.9170    0.7390    1.2920 N   0  0  0  0  0  0  0  0  0  0  0  0
  1  2  2  0
  2  3  1  0
  2  4  1  0
  4  5  1  0
  4 40  2  0
  5  6  2  0
  6  7  1  0
  6 31  1  0
  7  8  2  0
  7 30  1  0
  8  9  1  0
  9 10  2  0
 10 11  1  0
 10 29  1  0
 11 12  1  0
 12 13  1  0
 13 14  2  0
 13 15  1  0
 15 16  2  0
 15 28  1  0
 16 17  1  0
 17 18  2  0
 18 19  1  0
 18 27  1  0
 19 20  2  0
 19 26  1  0
 20 21  1  0
 21 22  2  0
 22 23  1  0
 22 26  1  0
 23 24  2  0
 23 25  1  0
 27 28  2  0
 29 30  2  0
 31 32  1  0
 31 40  1  0
 32 33  2  0
 32 39  1  0
 33 34  1  0
 34 35  2  0
 35 36  1  0
 35 37  1  0
 37 38  1  0
 37 39  2  0
M  END
