
     RDKit          3D

 40 41  0  0  0  0  0  0  0  0999 V2000
    5.9240    2.3160    2.5160 C   0  0  0  0  0  0  0  0  0  0  0  0
    5.9070    1.0570    1.8810 O   0  0  0  0  0  0  0  0  0  0  0  0
    6.8610    0.8340    0.8800 C   0  0  0  0  0  0  0  0  0  0  0  0
    7.7760    1.7810    0.5230 C   0  0  0  0  0  0  0  0  0  0  0  0
    8.7100    1.5190   -0.4800 C   0  0  0  0  0  0  0  0  0  0  0  0
    8.7320    0.3090   -1.1260 C   0  0  0  0  0  0  0  0  0  0  0  0
    7.7850   -0.6470   -0.7420 C   0  0  0  0  0  0  0  0  0  0  0  0
    6.8520   -0.4260    0.2360 C   0  0  0  0  0  0  0  0  0  0  0  0
    5.9320   -1.3370    0.6140 O   0  0  0  0  0  0  0  0  0  0  0  0
    5.5810   -2.6020    0.2430 C   0  0  0  0  0  0  0  0  0  0  0  0
    5.0800   -2.7940   -1.1490 C   0  0  1  0  0  0  0  0  0  0  0  0
    4.6490   -4.1180   -1.3600 O   0  0  0  0  0  0  0  0  0  0  0  0
    4.0910   -1.8010   -1.6210 C   0  0  0  0  0  0  0  0  0  0  0  0
    2.5550   -1.6150   -0.8320 S   0  0  0  0  0  0  0  0  0  0  0  0
    2.3920   -0.9330    0.7710 C   0  0  2  0  0  0  0  0  0  0  0  0
    2.8200   -1.7720    1.9350 C   0  0  0  0  0  0  0  0  0  0  0  0
    1.0450   -0.3350    1.0310 C   0  0  0  0  0  0  0  0  0  0  0  0
    0.9340    0.8770    1.4320 O   0  0  0  0  0  0  0  0  0  0  0  0
   -0.1510   -1.0530    0.8540 N   0  0  0  0  0  0  0  0  0  0  0  0
   -0.1160   -2.4210    0.3990 C   0  0  0  0  0  0  0  0  0  0  0  0
   -1.4350   -0.4450    1.1240 C   0  0  0  0  0  0  0  0  0  0  0  0
   -1.9250    0.2160   -0.1440 C   0  0  0  0  0  0  0  0  0  0  0  0
   -1.2160    0.1550   -1.1680 O   0  0  0  0  0  0  0  0  0  0  0  0
   -3.1740    0.8830   -0.1200 N   0  0  0  0  0  0  0  0  0  0  0  0
   -3.7390    1.5400   -1.2280 C   0  0  0  0  0  0  0  0  0  0  0  0
   -3.1620    1.6500   -2.4730 C   0  0  0  0  0  0  0  0  0  0  0  0
   -3.8290    2.3430   -3.5020 C   0  0  0  0  0  0  0  0  0  0  0  0
   -5.0580    2.9200   -3.2920 C   0  0  0  0  0  0  0  0  0  0  0  0
   -5.9210    3.7910   -4.5420 Cl  0  0  0  0  0  0  0  0  0  0  0  0
   -5.6330    2.8050   -2.0330 C   0  0  0  0  0  0  0  0  0  0  0  0
   -7.2060    3.5340   -1.7360 Cl  0  0  0  0  0  0  0  0  0  0  0  0
   -4.9930    2.1310   -1.0210 C   0  0  0  0  0  0  0  0  0  0  0  0
   -5.5960    2.0220    0.2440 N   0  0  0  0  0  0  0  0  0  0  0  0
   -6.4740    0.9440    0.6020 C   0  0  0  0  0  0  0  0  0  0  0  0
   -6.6620    0.1040   -0.3030 O   0  0  0  0  0  0  0  0  0  0  0  0
   -7.1010    0.8270    1.9110 C   0  0  0  0  0  0  0  0  0  0  0  0
   -8.1560   -0.1930    2.0950 C   0  0  0  0  0  0  0  0  0  0  0  0
   -9.4120   -0.0690    1.3270 C   0  0  0  0  0  0  0  0  0  0  0  0
   -9.3370   -0.1070   -0.1410 C   0  0  0  0  0  0  0  0  0  0  0  0
   -9.3760   -1.1670   -0.7580 O   0  0  0  0  0  0  0  0  0  0  0  0
  1  2  1  0
  2  3  1  0
  3  4  2  0
  3  8  1  0
  4  5  1  0
  5  6  2  0
  6  7  1  0
  7  8  2  0
  8  9  1  0
  9 10  1  0
 10 11  1  0
 11 12  1  1
 11 13  1  0
 13 14  1  0
 14 15  1  0
 15 16  1  1
 15 17  1  0
 17 18  2  0
 17 19  1  0
 19 20  1  0
 19 21  1  0
 21 22  1  0
 22 23  2  0
 22 24  1  0
 24 25  1  0
 25 26  2  0
 25 32  1  0
 26 27  1  0
 27 28  2  0
 28 29  1  0
 28 30  1  0
 30 31  1  0
 30 32  2  0
 32 33  1  0
 33 34  1  0
 34 35  2  0
 34 36  1  0
 36 37  1  0
 37 38  1  0
 38 39  1  0
 39 40  2  0
M  END
