
     RDKit          3D

 22 22  0  0  0  0  0  0  0  0999 V2000
   -4.8480   -1.9320   -1.0560 O   0  0  0  0  0  0  0  0  0  0  0  0
   -4.5780   -1.6970    0.1380 C   0  0  0  0  0  0  0  0  0  0  0  0
   -4.8780   -2.6070    1.1380 O   0  0  0  0  0  0  0  0  0  0  0  0
   -3.9190   -0.3980    0.4730 C   0  0  1  0  0  0  0  0  0  0  0  0
   -3.6910   -0.2920    1.8170 O   0  0  0  0  0  0  0  0  0  0  0  0
   -2.3720   -0.0190    2.0420 C   0  0  0  0  0  0  0  0  0  0  0  0
   -1.7760    0.4730    0.7410 C   0  0  1  0  0  0  0  0  0  0  0  0
   -2.0400    1.9610    0.6320 C   0  0  0  0  0  0  0  0  0  0  0  0
   -3.3770    2.2660    0.7020 O   0  0  0  0  0  0  0  0  0  0  0  0
   -0.3680    0.1920    0.6650 N   0  0  0  0  0  0  0  0  0  0  0  0
    0.0760   -0.3060   -0.5900 C   0  0  0  0  0  0  0  0  0  0  0  0
    1.3180    0.4300   -1.1120 C   0  0  2  0  0  0  0  0  0  0  0  0
    1.0530    1.7680   -1.2760 O   0  0  0  0  0  0  0  0  0  0  0  0
    1.6480   -0.2190   -2.4540 C   0  0  0  0  0  0  0  0  0  0  0  0
    1.9100   -1.5720   -2.2430 O   0  0  0  0  0  0  0  0  0  0  0  0
    2.4210    0.1480   -0.1140 C   0  0  0  0  0  0  0  0  0  0  0  0
    3.5890    0.7510   -0.5390 O   0  0  0  0  0  0  0  0  0  0  0  0
    4.6560    0.5620    0.2890 C   0  0  0  0  0  0  0  0  0  0  0  0
    5.0430   -0.8780    0.4910 C   0  0  0  0  0  0  0  0  0  0  0  0
    6.1390   -0.9400    1.3510 O   0  0  0  0  0  0  0  0  0  0  0  0
   -2.6030   -0.2550   -0.2610 C   0  0  2  0  0  0  0  0  0  0  0  0
   -2.8490    0.4840   -1.4130 O   0  0  0  0  0  0  0  0  0  0  0  0
  1  2  2  0
  2  3  1  0
  4  2  1  1
  4  5  1  0
  4 21  1  0
  5  6  1  0
  6  7  1  0
  7  8  1  6
  7 10  1  0
  7 21  1  0
  8  9  1  0
 10 11  1  0
 11 12  1  0
 12 13  1  6
 12 14  1  0
 12 16  1  0
 14 15  1  0
 16 17  1  0
 17 18  1  0
 18 19  1  0
 19 20  1  0
 21 22  1  6
M  CHG  1  10   1
M  END
