
     RDKit          3D

 22 22  0  0  0  0  0  0  0  0999 V2000
    2.4460   -1.0540    0.2330 N   0  0  0  0  0  0  0  0  0  0  0  0
    2.2820    0.1360   -0.5580 C   0  0  1  0  0  0  0  0  0  0  0  0
    1.0780    0.0940   -1.4100 C   0  0  2  0  0  0  0  0  0  0  0  0
    0.9160    1.3060   -2.1330 O   0  0  0  0  0  0  0  0  0  0  0  0
   -0.1320   -0.5440   -1.0110 C   0  0  0  0  0  0  0  0  0  0  0  0
   -1.0460   -0.3060    0.1000 C   0  0  1  0  0  0  0  0  0  0  0  0
   -0.6550   -0.4490    1.5090 C   0  0  0  0  0  0  0  0  0  0  0  0
    0.3030    0.2970    2.0720 O   0  0  0  0  0  0  0  0  0  0  0  0
   -1.6130    1.1320   -0.0370 C   0  0  0  0  0  0  0  0  0  0  0  0
   -2.4620    1.6280    0.7920 O   0  0  0  0  0  0  0  0  0  0  0  0
   -3.7330    1.3820    1.0390 C   0  0  1  0  0  0  0  0  0  0  0  0
   -3.9230    0.9500    2.3780 O   0  0  0  0  0  0  0  0  0  0  0  0
   -4.5480    2.5550    0.9890 O   0  0  0  0  0  0  0  0  0  0  0  0
   -2.2360   -1.2290   -0.0770 C   0  0  1  0  0  0  0  0  0  0  0  0
   -2.8880   -0.9740   -1.2560 O   0  0  0  0  0  0  0  0  0  0  0  0
   -1.8570   -2.7010   -0.0990 C   0  0  0  0  0  0  0  0  0  0  0  0
   -3.0830   -3.4250   -0.1610 O   0  0  0  0  0  0  0  0  0  0  0  0
    2.5040    1.3580    0.2710 C   0  0  0  0  0  0  0  0  0  0  0  0
    3.6090    2.1000   -0.1930 O   0  0  0  0  0  0  0  0  0  0  0  0
    4.7340    1.3130    0.0660 C   0  0  0  0  0  0  0  0  0  0  0  0
    4.6230    0.0730   -0.5900 O   0  0  0  0  0  0  0  0  0  0  0  0
    3.5590    0.1350   -1.4850 C   0  0  0  0  0  0  0  0  0  0  0  0
  2  1  1  1
  2  3  1  0
  2 18  1  0
  2 22  1  0
  3  4  1  1
  3  5  1  0
  6  5  1  6
  6  7  1  0
  6  9  1  0
  6 14  1  0
  7  8  1  0
  9 10  1  0
 10 11  1  0
 11 12  1  1
 11 13  1  0
 14 15  1  6
 14 16  1  0
 16 17  1  0
 18 19  1  0
 19 20  1  0
 20 21  1  0
 21 22  1  0
M  CHG  1   1   1
M  END
