
     RDKit          3D

 21 22  0  0  0  0  0  0  0  0999 V2000
   -4.3270    1.9970   -0.1870 N   0  0  0  0  0  0  0  0  0  0  0  0
   -2.9660    1.6300   -0.4220 C   0  0  0  0  0  0  0  0  0  0  0  0
   -2.6850    0.1770   -0.1690 C   0  0  1  0  0  0  0  0  0  0  0  0
   -2.9800   -0.2140    1.2510 C   0  0  0  0  0  0  0  0  0  0  0  0
   -4.3310    0.0380    1.4890 O   0  0  0  0  0  0  0  0  0  0  0  0
   -3.5670   -0.7190   -1.0530 C   0  0  0  0  0  0  0  0  0  0  0  0
   -2.9080   -1.9220   -1.0690 O   0  0  0  0  0  0  0  0  0  0  0  0
   -1.5610   -1.7030   -0.9430 C   0  0  0  0  0  0  0  0  0  0  0  0
   -1.3360   -0.2570   -0.6500 C   0  0  1  0  0  0  0  0  0  0  0  0
   -1.0650    0.4090   -1.8380 O   0  0  0  0  0  0  0  0  0  0  0  0
   -0.2300    0.0050    0.3220 C   0  0  0  0  0  0  0  0  0  0  0  0
    0.9540   -0.4620   -0.2310 O   0  0  0  0  0  0  0  0  0  0  0  0
    2.0510   -0.2600    0.6110 C   0  0  2  0  0  0  0  0  0  0  0  0
    3.1210    0.5500   -0.1290 C   0  0  0  0  0  0  0  0  0  0  0  0
    3.8280   -0.2590   -1.0180 O   0  0  0  0  0  0  0  0  0  0  0  0
    4.7040   -1.0300   -0.2510 C   0  0  1  0  0  0  0  0  0  0  0  0
    5.8970   -0.1850    0.0150 C   0  0  0  0  0  0  0  0  0  0  0  0
    6.8200   -0.7150    0.7070 O   0  0  0  0  0  0  0  0  0  0  0  0
    6.0430    1.1050   -0.4400 O   0  0  0  0  0  0  0  0  0  0  0  0
    3.9910   -1.3960    1.0460 C   0  0  0  0  0  0  0  0  0  0  0  0
    2.6170   -1.5110    0.8470 O   0  0  0  0  0  0  0  0  0  0  0  0
  1  2  1  0
  3  2  1  1
  3  4  1  0
  3  6  1  0
  3  9  1  0
  4  5  1  0
  6  7  1  0
  7  8  1  0
  8  9  1  0
  9 10  1  6
  9 11  1  0
 11 12  1  0
 13 12  1  6
 13 14  1  0
 13 21  1  0
 14 15  1  0
 15 16  1  0
 16 17  1  1
 16 20  1  0
 17 18  2  0
 17 19  1  0
 20 21  1  0
M  CHG  1   1   1
M  END
