
     RDKit          3D

 22 22  0  0  0  0  0  0  0  0999 V2000
   -0.0320    1.9670    1.7820 O   0  0  0  0  0  0  0  0  0  0  0  0
    0.2200    1.1460    0.8660 C   0  0  0  0  0  0  0  0  0  0  0  0
   -0.5360    1.2740   -0.3960 C   0  0  0  0  0  0  0  0  0  0  0  0
   -2.0360    1.2000   -0.1670 C   0  0  2  0  0  0  0  0  0  0  0  0
   -2.6790    0.8340   -1.3300 O   0  0  0  0  0  0  0  0  0  0  0  0
   -2.4980    2.5940    0.2040 C   0  0  0  0  0  0  0  0  0  0  0  0
   -2.1650    3.4510   -0.8330 O   0  0  0  0  0  0  0  0  0  0  0  0
   -2.3810    0.2040    0.9210 C   0  0  0  0  0  0  0  0  0  0  0  0
   -3.1140   -0.9930    0.3900 C   0  0  2  0  0  0  0  0  0  0  0  0
   -3.9170   -1.4890    1.4230 O   0  0  0  0  0  0  0  0  0  0  0  0
   -2.1980   -2.0910   -0.0630 C   0  0  1  0  0  0  0  0  0  0  0  0
   -1.9020   -1.8680   -1.4090 O   0  0  0  0  0  0  0  0  0  0  0  0
   -1.0630   -2.1290    0.7420 O   0  0  0  0  0  0  0  0  0  0  0  0
    0.1980   -1.8640    0.4260 N   0  0  0  0  0  0  0  0  0  0  0  0
    1.2420   -2.4500    0.1070 C   0  0  0  0  0  0  0  0  0  0  0  0
    2.4570   -1.5810   -0.1560 C   0  0  0  0  0  0  0  0  0  0  0  0
    2.1490   -0.1280   -0.0070 C   0  0  2  0  0  0  0  0  0  0  0  0
    3.3800    0.6750    0.3570 C   0  0  1  0  0  0  0  0  0  0  0  0
    3.8510    0.3040    1.6110 O   0  0  0  0  0  0  0  0  0  0  0  0
    4.4980    0.4990   -0.6360 C   0  0  0  0  0  0  0  0  0  0  0  0
    4.9290   -0.8050   -0.6860 O   0  0  0  0  0  0  0  0  0  0  0  0
    1.1640    0.1330    0.9720 O   0  0  0  0  0  0  0  0  0  0  0  0
  1  2  2  0
  2  3  1  0
  2 22  1  0
  3  4  1  0
  4  5  1  6
  4  6  1  0
  4  8  1  0
  6  7  1  0
  8  9  1  0
  9 10  1  1
  9 11  1  0
 11 12  1  6
 11 13  1  0
 13 14  1  0
 14 15  2  0
 15 16  1  0
 17 16  1  1
 17 18  1  0
 17 22  1  0
 18 19  1  1
 18 20  1  0
 20 21  1  0
M  END
