
     RDKit          3D

 21 22  0  0  0  0  0  0  0  0999 V2000
    5.4960   -0.5300   -1.3650 O   0  0  0  0  0  0  0  0  0  0  0  0
    5.4190   -0.5840    0.0370 C   0  0  0  0  0  0  0  0  0  0  0  0
    4.1320    0.0930    0.4500 C   0  0  1  0  0  0  0  0  0  0  0  0
    3.9580    0.0950    1.8120 O   0  0  0  0  0  0  0  0  0  0  0  0
    4.2570    1.4440    0.0540 O   0  0  0  0  0  0  0  0  0  0  0  0
    2.9440   -0.4600   -0.2990 C   0  0  1  0  0  0  0  0  0  0  0  0
    2.6460   -1.7540    0.0310 O   0  0  0  0  0  0  0  0  0  0  0  0
    1.3390   -2.0110   -0.2720 C   0  0  0  0  0  0  0  0  0  0  0  0
    0.6360   -0.7000   -0.5200 C   0  0  1  0  0  0  0  0  0  0  0  0
   -0.5190   -0.5880    0.2470 O   0  0  0  0  0  0  0  0  0  0  0  0
   -1.6050   -0.2430   -0.5570 C   0  0  0  0  0  0  0  0  0  0  0  0
   -2.8110   -0.1450    0.3680 C   0  0  1  0  0  0  0  0  0  0  0  0
   -2.5380    0.8220    1.3020 O   0  0  0  0  0  0  0  0  0  0  0  0
   -3.0170    2.0250    0.8650 C   0  0  0  0  0  0  0  0  0  0  0  0
   -3.9170    1.8040   -0.3020 C   0  0  0  0  0  0  0  0  0  0  0  0
   -4.0490    0.3020   -0.3490 C   0  0  2  0  0  0  0  0  0  0  0  0
   -5.1680   -0.0810    0.3860 O   0  0  0  0  0  0  0  0  0  0  0  0
   -4.1280   -0.2170   -1.7630 C   0  0  0  0  0  0  0  0  0  0  0  0
   -4.1940   -1.6070   -1.7090 O   0  0  0  0  0  0  0  0  0  0  0  0
    1.6720    0.2860    0.0380 C   0  0  1  0  0  0  0  0  0  0  0  0
    1.4460    0.3200    1.4170 O   0  0  0  0  0  0  0  0  0  0  0  0
  1  2  1  0
  2  3  1  0
  3  4  1  1
  3  5  1  0
  3  6  1  0
  6  7  1  1
  6 20  1  0
  7  8  1  0
  8  9  1  0
  9 10  1  1
  9 20  1  0
 10 11  1  0
 12 11  1  6
 12 13  1  0
 12 16  1  0
 13 14  1  0
 14 15  1  0
 15 16  1  0
 16 17  1  1
 16 18  1  0
 18 19  1  0
 20 21  1  1
M  END
