
     RDKit          3D

 23 23  0  0  0  0  0  0  0  0999 V2000
    0.2160   -0.2350   -2.1090 C   0  0  0  0  0  0  0  0  0  0  0  0
    0.4570    0.3650   -0.7320 C   0  0  2  0  0  0  0  0  0  0  0  0
   -0.7400    1.6770   -0.4190 S   0  0  0  0  0  0  0  0  0  0  0  0
   -2.4220    1.1120   -0.3820 C   0  0  0  0  0  0  0  0  0  0  0  0
   -3.3930    1.9450   -0.1030 N   0  0  0  0  0  0  0  0  0  0  0  0
   -4.6650    1.2640   -0.1310 C   0  0  2  0  0  0  0  0  0  0  0  0
   -4.9460    0.8160    1.3060 C   0  0  0  0  0  0  0  0  0  0  0  0
   -4.9850    1.9550    2.0990 O   0  0  0  0  0  0  0  0  0  0  0  0
   -4.3380    0.0360   -0.9850 C   0  0  0  0  0  0  0  0  0  0  0  0
   -2.9620   -0.1330   -0.6070 O   0  0  0  0  0  0  0  0  0  0  0  0
    1.8020    1.0090   -0.6830 C   0  0  0  0  0  0  0  0  0  0  0  0
    1.8930    2.1970   -0.3040 O   0  0  0  0  0  0  0  0  0  0  0  0
    2.9650    0.3790   -1.0290 O   0  0  0  0  0  0  0  0  0  0  0  0
    4.2580    0.8870   -1.0160 C   0  0  0  0  0  0  0  0  0  0  0  0
    4.8530    1.4270    0.5420 S   0  0  1  0  0  0  0  0  0  0  0  0
    6.2880    1.8940    0.3280 O   0  0  0  0  0  0  0  0  0  0  0  0
    4.1080    2.6360    1.0200 O   0  0  0  0  0  0  0  0  0  0  0  0
    4.8850    0.2240    1.6880 O   0  0  0  0  0  0  0  0  0  0  0  0
    0.3330   -0.7380    0.2800 C   0  0  1  0  0  0  0  0  0  0  0  0
   -0.9140   -1.3530    0.2750 O   0  0  0  0  0  0  0  0  0  0  0  0
    1.4170   -1.7900    0.1760 C   0  0  0  0  0  0  0  0  0  0  0  0
    1.2260   -2.6350    1.3020 O   0  0  0  0  0  0  0  0  0  0  0  0
    2.1460   -3.6280    1.3220 N   0  0  0  0  0  0  0  0  0  0  0  0
  2  1  1  6
  2  3  1  0
  2 11  1  0
  2 19  1  0
  3  4  1  0
  4  5  2  0
  4 10  1  0
  5  6  1  0
  6  7  1  1
  6  9  1  0
  7  8  1  0
  9 10  1  0
 11 12  2  0
 11 13  1  0
 13 14  1  0
 14 15  1  0
 15 16  2  0
 15 17  2  0
 15 18  1  1
 19 20  1  6
 19 21  1  0
 21 22  1  0
 22 23  1  0
M  END
