
     RDKit          3D

 23 24  0  0  0  0  0  0  0  0999 V2000
    4.0440   -1.3610   -0.2150 O   0  0  0  0  0  0  0  0  0  0  0  0
    3.7070   -0.2260   -0.6380 C   0  0  0  0  0  0  0  0  0  0  0  0
    4.6780    0.7210   -0.8260 O   0  0  0  0  0  0  0  0  0  0  0  0
    6.0420    0.5470   -0.5880 C   0  0  0  0  0  0  0  0  0  0  0  0
    6.3620    0.1960    0.8510 C   0  0  0  0  0  0  0  0  0  0  0  0
    7.7630    0.0580    0.9130 O   0  0  0  0  0  0  0  0  0  0  0  0
    2.2880    0.0620   -0.9220 C   0  0  2  0  0  0  0  0  0  0  0  0
    1.9260    1.3310   -0.1810 C   0  0  0  0  0  0  0  0  0  0  0  0
    0.2220    1.7300   -0.7530 S   0  0  0  0  0  0  0  0  0  0  0  0
   -0.6020    0.0890   -0.6510 C   0  0  2  0  0  0  0  0  0  0  0  0
   -1.7850    0.2460    0.1340 N   0  0  0  0  0  0  0  0  0  0  0  0
   -3.0950   -0.1300   -0.2930 C   0  0  0  0  0  0  0  0  0  0  0  0
   -3.1800   -0.6310   -1.4430 O   0  0  0  0  0  0  0  0  0  0  0  0
   -4.2950    0.0500    0.5520 C   0  0  2  0  0  0  0  0  0  0  0  0
   -4.0250    0.6080    1.7720 O   0  0  0  0  0  0  0  0  0  0  0  0
   -4.9620   -1.2990    0.7320 C   0  0  0  0  0  0  0  0  0  0  0  0
   -5.9420   -1.4330   -0.4110 C   0  0  0  0  0  0  0  0  0  0  0  0
   -6.7470   -0.3190   -0.4230 O   0  0  0  0  0  0  0  0  0  0  0  0
   -5.5930    0.9280   -0.3310 S   0  0  1  0  0  0  0  0  0  0  0  0
   -6.1640    2.0170    0.5000 O   0  0  0  0  0  0  0  0  0  0  0  0
   -5.1370    1.3570   -1.6730 O   0  0  0  0  0  0  0  0  0  0  0  0
    0.3850   -0.7450    0.0490 N   0  0  0  0  0  0  0  0  0  0  0  0
    1.4550   -0.9850   -0.6820 O   0  0  0  0  0  0  0  0  0  0  0  0
  1  2  2  0
  2  3  1  0
  7  2  1  1
  3  4  1  0
  4  5  1  0
  5  6  1  0
  7  8  1  0
  7 23  1  0
  8  9  1  0
  9 10  1  0
 10 11  1  1
 10 22  1  0
 11 12  1  0
 12 13  2  0
 12 14  1  0
 14 15  1  1
 14 16  1  0
 14 19  1  0
 16 17  1  0
 17 18  1  0
 19 18  1  6
 19 20  2  0
 19 21  2  0
 22 23  1  0
M  END
