
     RDKit          3D

 24 25  0  0  0  0  0  0  0  0999 V2000
    6.4830   -0.4850   -0.6740 N   0  0  0  0  0  0  0  0  0  0  0  0
    5.4170   -1.7630   -0.2300 S   0  0  1  0  0  0  0  0  0  0  0  0
    5.3910   -2.7670   -1.3670 O   0  0  0  0  0  0  0  0  0  0  0  0
    5.9800   -2.5120    0.9660 O   0  0  0  0  0  0  0  0  0  0  0  0
    3.8610   -1.2550    0.0300 O   0  0  0  0  0  0  0  0  0  0  0  0
    3.7110    0.1210    0.0360 C   0  0  2  0  0  0  0  0  0  0  0  0
    2.9760    0.6090    1.2680 C   0  0  0  0  0  0  0  0  0  0  0  0
    1.5450    0.1450    0.9540 C   0  0  0  0  0  0  0  0  0  0  0  0
    1.4660    0.0200   -0.4550 N   0  0  0  0  0  0  0  0  0  0  0  0
    0.0650    0.5870   -1.2120 S   0  0  1  0  0  0  0  0  0  0  0  0
   -0.1430    2.0670   -1.0470 O   0  0  0  0  0  0  0  0  0  0  0  0
    0.1650    0.3440   -2.7130 O   0  0  0  0  0  0  0  0  0  0  0  0
   -1.3890   -0.2720   -0.6770 C   0  0  2  0  0  0  0  0  0  0  0  0
   -2.4600    0.1500   -1.4680 O   0  0  0  0  0  0  0  0  0  0  0  0
   -3.4670    0.7810   -0.7880 C   0  0  1  0  0  0  0  0  0  0  0  0
   -4.6120    0.9760   -1.7920 C   0  0  0  0  0  0  0  0  0  0  0  0
   -5.6720    1.6170   -1.1550 O   0  0  0  0  0  0  0  0  0  0  0  0
   -4.0210    0.0060    0.3830 C   0  0  1  0  0  0  0  0  0  0  0  0
   -5.0470   -0.8170   -0.0750 O   0  0  0  0  0  0  0  0  0  0  0  0
   -2.9910   -0.8730    1.0470 C   0  0  2  0  0  0  0  0  0  0  0  0
   -3.2070   -1.0450    2.3990 O   0  0  0  0  0  0  0  0  0  0  0  0
   -1.6430   -0.1800    0.7850 C   0  0  2  0  0  0  0  0  0  0  0  0
   -1.8140    1.1190    1.2410 O   0  0  0  0  0  0  0  0  0  0  0  0
    2.6870    0.4490   -1.0530 C   0  0  0  0  0  0  0  0  0  0  0  0
  2  1  1  6
  2  3  2  0
  2  4  2  0
  2  5  1  0
  6  5  1  1
  6  7  1  0
  6 24  1  0
  7  8  1  0
  8  9  1  0
 10  9  1  1
  9 24  1  0
 10 11  2  0
 10 12  2  0
 10 13  1  0
 13 14  1  6
 13 22  1  0
 14 15  1  0
 15 16  1  6
 15 18  1  0
 16 17  1  0
 18 19  1  6
 18 20  1  0
 20 21  1  1
 20 22  1  0
 22 23  1  6
M  END
