
     RDKit          3D

 23 23  0  0  0  0  0  0  0  0999 V2000
   -6.1270    2.6050   -0.3150 C   0  0  0  0  0  0  0  0  0  0  0  0
   -5.1160    1.6430   -0.9380 C   0  0  0  0  0  0  0  0  0  0  0  0
   -4.2140    1.2800    0.0980 O   0  0  0  0  0  0  0  0  0  0  0  0
   -3.1500    0.4030   -0.1410 C   0  0  0  0  0  0  0  0  0  0  0  0
   -3.0530   -0.0300   -1.3080 O   0  0  0  0  0  0  0  0  0  0  0  0
   -2.2360    0.0190    0.8500 N   0  0  0  0  0  0  0  0  0  0  0  0
   -1.1750   -0.8540    0.6090 N   0  0  0  0  0  0  0  0  0  0  0  0
   -0.2890   -0.7220   -0.4810 C   0  0  0  0  0  0  0  0  0  0  0  0
   -0.4300    0.2160   -1.2990 O   0  0  0  0  0  0  0  0  0  0  0  0
    0.8300   -1.6700   -0.7030 C   0  0  1  0  0  0  0  0  0  0  0  0
    2.1260   -0.9770   -0.9310 C   0  0  2  0  0  0  0  0  0  0  0  0
    3.1280   -1.8600   -1.2540 O   0  0  0  0  0  0  0  0  0  0  0  0
    2.5080   -0.0270    0.1460 C   0  0  0  0  0  0  0  0  0  0  0  0
    1.6830    0.8390    0.5650 O   0  0  0  0  0  0  0  0  0  0  0  0
    3.7450   -0.0210    0.7470 O   0  0  0  0  0  0  0  0  0  0  0  0
    4.2300    0.7930    1.7410 C   0  0  0  0  0  0  0  0  0  0  0  0
    4.3260    2.2510    1.4950 C   0  0  0  0  0  0  0  0  0  0  0  0
    3.1310    2.8690    1.2110 O   0  0  0  0  0  0  0  0  0  0  0  0
    0.8090   -2.5980    0.2890 O   0  0  0  0  0  0  0  0  0  0  0  0
    1.2040   -3.8150   -0.1590 C   0  0  0  0  0  0  0  0  0  0  0  0
    0.4070   -4.1930   -1.2640 O   0  0  0  0  0  0  0  0  0  0  0  0
    0.5050   -2.7180   -2.1560 S   0  0  0  0  0  0  0  0  0  0  0  0
   -0.8230   -2.3720   -2.7780 O   0  0  0  0  0  0  0  0  0  0  0  0
  1  2  1  0
  2  3  1  0
  3  4  1  0
  4  5  2  0
  4  6  1  0
  6  7  1  0
  7  8  1  0
  8  9  2  0
 10  8  1  1
 10 11  1  0
 10 19  1  0
 10 22  1  0
 11 12  1  1
 11 13  1  0
 13 14  2  0
 13 15  1  0
 15 16  1  0
 16 17  1  0
 17 18  1  0
 19 20  1  0
 20 21  1  0
 22 21  1  1
 22 23  2  0
M  END
