
     RDKit          3D

 23 23  0  0  0  0  0  0  0  0999 V2000
   -0.0800    0.1370    1.4490 C   0  0  0  0  0  0  0  0  0  0  0  0
   -0.6220    0.1640    0.0420 C   0  0  2  0  0  0  0  0  0  0  0  0
    0.3990    1.2920   -0.9080 S   0  0  0  0  0  0  0  0  0  0  0  0
    2.1000    0.7960   -1.0480 C   0  0  0  0  0  0  0  0  0  0  0  0
    2.7480   -0.1940   -0.5450 N   0  0  0  0  0  0  0  0  0  0  0  0
    4.1340   -0.2010   -0.9340 C   0  0  2  0  0  0  0  0  0  0  0  0
    5.0550   -0.3500    0.2640 C   0  0  0  0  0  0  0  0  0  0  0  0
    4.8120   -1.5410    0.9520 O   0  0  0  0  0  0  0  0  0  0  0  0
    4.3200    1.2090   -1.4520 C   0  0  0  0  0  0  0  0  0  0  0  0
    3.0060    1.5540   -1.8280 O   0  0  0  0  0  0  0  0  0  0  0  0
   -2.0520    0.6080    0.0220 C   0  0  0  0  0  0  0  0  0  0  0  0
   -2.9330   -0.0130   -0.6200 O   0  0  0  0  0  0  0  0  0  0  0  0
   -2.4770    1.7310    0.7100 O   0  0  0  0  0  0  0  0  0  0  0  0
   -3.7590    2.2510    0.7710 C   0  0  0  0  0  0  0  0  0  0  0  0
   -4.4770    2.7530   -0.7410 S   0  0  2  0  0  0  0  0  0  0  0  0
   -4.6850    1.6000   -1.6720 O   0  0  0  0  0  0  0  0  0  0  0  0
   -3.7040    3.8170   -1.4460 O   0  0  0  0  0  0  0  0  0  0  0  0
   -6.0340    3.3520   -0.4050 O   0  0  0  0  0  0  0  0  0  0  0  0
   -0.5900   -1.2300   -0.5370 C   0  0  1  0  0  0  0  0  0  0  0  0
    0.7030   -1.7600   -0.6110 O   0  0  0  0  0  0  0  0  0  0  0  0
   -1.3490   -2.1820    0.3840 C   0  0  0  0  0  0  0  0  0  0  0  0
   -1.3270   -3.4540   -0.1960 O   0  0  0  0  0  0  0  0  0  0  0  0
   -2.0070   -4.2730    0.6390 N   0  0  0  0  0  0  0  0  0  0  0  0
  2  1  1  1
  2  3  1  0
  2 11  1  0
  2 19  1  0
  3  4  1  0
  4  5  2  0
  4 10  1  0
  5  6  1  0
  6  7  1  1
  6  9  1  0
  7  8  1  0
  9 10  1  0
 11 12  2  0
 11 13  1  0
 13 14  1  0
 14 15  1  0
 15 16  2  0
 15 17  2  0
 15 18  1  1
 19 20  1  1
 19 21  1  0
 21 22  1  0
 22 23  1  0
M  END
