
     RDKit          3D

 24 24  0  0  0  0  0  0  0  0999 V2000
    4.9540   -0.5790    0.5610 N   0  0  0  0  0  0  0  0  0  0  0  0
    3.8420   -0.9530   -0.2340 C   0  0  0  0  0  0  0  0  0  0  0  0
    4.0570   -1.2910   -1.4230 O   0  0  0  0  0  0  0  0  0  0  0  0
    2.4580   -0.9540    0.3050 C   0  0  1  0  0  0  0  0  0  0  0  0
    2.5290   -0.5430    1.6230 O   0  0  0  0  0  0  0  0  0  0  0  0
    1.6880    0.1000   -0.4570 C   0  0  0  0  0  0  0  0  0  0  0  0
    1.1250    1.1040    0.4480 N   0  0  0  0  0  0  0  0  0  0  0  0
    0.3720    2.3270   -0.4870 S   0  0  1  0  0  0  0  0  0  0  0  0
    1.2520    3.5440   -0.6310 O   0  0  0  0  0  0  0  0  0  0  0  0
    0.0370    1.8230   -1.8630 O   0  0  0  0  0  0  0  0  0  0  0  0
   -1.1310    2.8600    0.2880 C   0  0  1  0  0  0  0  0  0  0  0  0
   -1.4800    4.1380   -0.1450 O   0  0  0  0  0  0  0  0  0  0  0  0
   -2.2700    1.8770   -0.0030 C   0  0  0  0  0  0  0  0  0  0  0  0
   -2.1030    1.2420   -1.2320 O   0  0  0  0  0  0  0  0  0  0  0  0
   -2.4860   -0.0380   -1.5490 C   0  0  0  0  0  0  0  0  0  0  0  0
   -3.1290   -0.3280   -2.6030 O   0  0  0  0  0  0  0  0  0  0  0  0
   -2.1670   -1.1910   -0.6630 C   0  0  2  0  0  0  0  0  0  0  0  0
   -3.4550   -1.8920   -0.2200 C   0  0  0  0  0  0  0  0  0  0  0  0
   -4.5480   -0.8020    0.6850 S   0  0  0  0  0  0  0  0  0  0  0  0
   -1.3510   -0.8410    0.4060 O   0  0  0  0  0  0  0  0  0  0  0  0
   -0.2300   -1.5190    0.8380 C   0  0  0  0  0  0  0  0  0  0  0  0
    0.0740   -1.3920    2.0560 O   0  0  0  0  0  0  0  0  0  0  0  0
    0.6290   -2.3650    0.0050 C   0  0  0  0  0  0  0  0  0  0  0  0
    1.9600   -2.2220    0.1570 O   0  0  0  0  0  0  0  0  0  0  0  0
  1  2  1  0
  2  3  2  0
  2  4  1  0
  4  5  1  1
  4  6  1  0
  4 24  1  0
  6  7  1  0
  8  7  1  1
  8  9  2  0
  8 10  2  0
  8 11  1  0
 11 12  1  6
 11 13  1  0
 13 14  1  0
 14 15  1  0
 15 16  2  0
 15 17  1  0
 17 18  1  1
 17 20  1  0
 18 19  1  0
 20 21  1  0
 21 22  2  0
 21 23  1  0
 23 24  1  0
M  END
