
     RDKit          3D

 23 24  0  0  0  0  0  0  0  0999 V2000
    4.0810    1.1920   -1.3980 O   0  0  0  0  0  0  0  0  0  0  0  0
    3.8110    0.2450   -0.6140 C   0  0  0  0  0  0  0  0  0  0  0  0
    4.8370   -0.4800   -0.0660 O   0  0  0  0  0  0  0  0  0  0  0  0
    6.2080   -0.2630   -0.2980 C   0  0  0  0  0  0  0  0  0  0  0  0
    6.5700    1.1240    0.1720 C   0  0  0  0  0  0  0  0  0  0  0  0
    6.2680    1.1630    1.5490 O   0  0  0  0  0  0  0  0  0  0  0  0
    2.3710   -0.0770   -0.2910 C   0  0  2  0  0  0  0  0  0  0  0  0
    2.1160   -1.5510   -0.5040 C   0  0  0  0  0  0  0  0  0  0  0  0
    0.4280   -1.8610    0.1580 S   0  0  0  0  0  0  0  0  0  0  0  0
   -0.3830   -0.2190   -0.0180 C   0  0  2  0  0  0  0  0  0  0  0  0
   -1.7610   -0.4400   -0.3210 N   0  0  0  0  0  0  0  0  0  0  0  0
   -2.8010    0.1130    0.4710 C   0  0  0  0  0  0  0  0  0  0  0  0
   -2.5160    0.8180    1.4700 O   0  0  0  0  0  0  0  0  0  0  0  0
   -4.2020   -0.1340    0.1310 C   0  0  2  0  0  0  0  0  0  0  0  0
   -4.3850   -0.9180   -0.9810 O   0  0  0  0  0  0  0  0  0  0  0  0
   -4.9450    1.1890   -0.0670 C   0  0  0  0  0  0  0  0  0  0  0  0
   -6.3530    0.9470    0.3750 C   0  0  0  0  0  0  0  0  0  0  0  0
   -6.2980    0.4330    1.6710 O   0  0  0  0  0  0  0  0  0  0  0  0
   -5.1150   -0.7830    1.5390 S   0  0  2  0  0  0  0  0  0  0  0  0
   -4.2910   -0.7720    2.7720 O   0  0  0  0  0  0  0  0  0  0  0  0
   -5.7170   -2.1020    1.2200 O   0  0  0  0  0  0  0  0  0  0  0  0
    0.2960    0.3610   -1.1900 N   0  0  0  0  0  0  0  0  0  0  0  0
    1.5270    0.7680   -0.9410 O   0  0  0  0  0  0  0  0  0  0  0  0
  1  2  2  0
  2  3  1  0
  7  2  1  6
  3  4  1  0
  4  5  1  0
  5  6  1  0
  7  8  1  0
  7 23  1  0
  8  9  1  0
  9 10  1  0
 10 11  1  6
 10 22  1  0
 11 12  1  0
 12 13  2  0
 12 14  1  0
 14 15  1  6
 14 16  1  0
 14 19  1  0
 16 17  1  0
 17 18  1  0
 19 18  1  1
 19 20  2  0
 19 21  2  0
 22 23  1  0
M  END
