
     RDKit          3D

 24 24  0  0  0  0  0  0  0  0999 V2000
    6.8320   -1.9530   -0.1540 C   0  0  0  0  0  0  0  0  0  0  0  0
    5.6190   -1.4360    0.1910 C   0  0  0  0  0  0  0  0  0  0  0  0
    4.6360   -1.3250   -0.8100 C   0  0  0  0  0  0  0  0  0  0  0  0
    3.4410   -0.8970   -0.8800 C   0  0  0  0  0  0  0  0  0  0  0  0
    2.7690   -1.0200   -2.2830 C   0  0  0  0  0  0  0  0  0  0  0  0
    2.6140   -0.2130    0.0830 C   0  0  0  0  0  0  0  0  0  0  0  0
    2.8660    0.4030    1.2720 C   0  0  0  0  0  0  0  0  0  0  0  0
    1.6440    0.8880    1.7740 C   0  0  0  0  0  0  0  0  0  0  0  0
    0.6980    0.5390    0.8510 C   0  0  0  0  0  0  0  0  0  0  0  0
   -0.7510    0.8320    0.9350 C   0  0  0  0  0  0  0  0  0  0  0  0
   -1.2000    1.4550    1.9250 O   0  0  0  0  0  0  0  0  0  0  0  0
   -1.6820    0.4050   -0.1250 C   0  0  2  0  0  0  0  0  0  0  0  0
   -1.2770    0.9160   -1.4890 C   0  0  0  0  0  0  0  0  0  0  0  0
   -2.9630    0.8090    0.2210 O   0  0  0  0  0  0  0  0  0  0  0  0
   -3.7360   -0.3290    0.3880 C   0  0  0  0  0  0  0  0  0  0  0  0
   -5.1600    0.0190    0.7690 C   0  0  0  0  0  0  0  0  0  0  0  0
   -5.7450    0.8680   -0.3540 C   0  0  0  0  0  0  0  0  0  0  0  0
   -7.0680    1.1990   -0.0150 O   0  0  0  0  0  0  0  0  0  0  0  0
   -7.8060    1.9720   -0.8980 C   0  0  0  0  0  0  0  0  0  0  0  0
   -7.2700    2.3490   -1.9670 O   0  0  0  0  0  0  0  0  0  0  0  0
   -9.1260    2.3440   -0.6360 O   0  0  0  0  0  0  0  0  0  0  0  0
    1.2850   -0.0850   -0.0960 O   0  0  0  0  0  0  0  0  0  0  0  0
    5.4640   -1.0690    1.5030 O   0  0  0  0  0  0  0  0  0  0  0  0
    6.4690   -1.2040    2.4730 C   0  0  0  0  0  0  0  0  0  0  0  0
  1  2  2  0
  2  3  1  0
  2 23  1  0
  3  4  2  3
  4  5  1  0
  4  6  1  0
  6  7  2  0
  6 22  1  0
  7  8  1  0
  8  9  2  0
  9 10  1  0
  9 22  1  0
 10 11  2  0
 10 12  1  0
 12 13  1  6
 12 14  1  0
 14 15  1  0
 15 16  1  0
 16 17  1  0
 17 18  1  0
 18 19  1  0
 19 20  2  0
 19 21  1  0
 23 24  1  0
M  END
