
     RDKit          3D

 21 20  0  0  0  0  0  0  0  0999 V2000
   -7.2990   -0.0940    0.6250 C   0  0  0  0  0  0  0  0  0  0  0  0
   -6.1150   -0.7000    0.1260 O   0  0  0  0  0  0  0  0  0  0  0  0
   -4.8990    0.0410    0.0400 C   0  0  0  0  0  0  0  0  0  0  0  0
   -5.0110    1.2010    0.4310 O   0  0  0  0  0  0  0  0  0  0  0  0
   -3.7010   -0.5430   -0.4550 C   0  0  0  0  0  0  0  0  0  0  0  0
   -2.5000   -0.2550   -0.6780 C   0  0  0  0  0  0  0  0  0  0  0  0
   -1.6070    0.8400   -0.5660 C   0  0  0  0  0  0  0  0  0  0  0  0
   -0.2910    0.5990   -0.9860 C   0  0  0  0  0  0  0  0  0  0  0  0
    0.1060   -0.5950   -1.4650 O   0  0  0  0  0  0  0  0  0  0  0  0
    0.4130   -1.7650   -0.8460 C   0  0  0  0  0  0  0  0  0  0  0  0
    1.0450   -1.9660    0.2700 C   0  0  0  0  0  0  0  0  0  0  0  0
    1.6060   -0.9350    1.1730 C   0  0  0  0  0  0  0  0  0  0  0  0
    3.1140   -1.0920    1.3150 C   0  0  0  0  0  0  0  0  0  0  0  0
    3.7860   -0.9460   -0.0430 C   0  0  0  0  0  0  0  0  0  0  0  0
    5.2780   -1.1080    0.1420 C   0  0  0  0  0  0  0  0  0  0  0  0
    5.9600   -0.9620   -1.2210 C   0  0  0  0  0  0  0  0  0  0  0  0
    7.3260   -1.1160   -1.0010 O   0  0  0  0  0  0  0  0  0  0  0  0
   -1.7490    2.1920   -0.1050 C   0  0  0  0  0  0  0  0  0  0  0  0
   -0.6920    2.9600   -0.1380 O   0  0  0  0  0  0  0  0  0  0  0  0
   -2.8480    2.8060    0.3730 O   0  0  0  0  0  0  0  0  0  0  0  0
   -2.8280    4.1490    0.7890 C   0  0  0  0  0  0  0  0  0  0  0  0
  1  2  1  0
  2  3  1  0
  3  4  2  0
  3  5  1  0
  5  6  2  3
  6  7  1  0
  7  8  2  3
  7 18  1  0
  8  9  1  0
  9 10  1  0
 10 11  2  3
 11 12  1  0
 12 13  1  0
 13 14  1  0
 14 15  1  0
 15 16  1  0
 16 17  1  0
 18 19  2  0
 18 20  1  0
 20 21  1  0
M  END
