
     RDKit          3D

 23 23  0  0  0  0  0  0  0  0999 V2000
   -1.7040   -3.1170    1.7950 C   0  0  0  0  0  0  0  0  0  0  0  0
   -1.3090   -1.8790    1.2690 O   0  0  0  0  0  0  0  0  0  0  0  0
   -0.9750   -2.0080   -0.0270 C   0  0  1  0  0  0  0  0  0  0  0  0
    0.2220   -2.9120   -0.1920 C   0  0  0  0  0  0  0  0  0  0  0  0
   -2.1100   -2.7480   -0.7980 C   0  0  0  0  0  0  0  0  0  0  0  0
   -0.7220   -0.6930   -0.7940 C   0  0  2  0  0  0  0  0  0  0  0  0
    0.5810   -0.0590   -0.7180 C   0  0  0  0  0  0  0  0  0  0  0  0
    0.8500    0.5540    0.6620 C   0  0  0  0  0  0  0  0  0  0  0  0
    1.7410    1.6530    0.5270 O   0  0  0  0  0  0  0  0  0  0  0  0
    2.8740    1.3810   -0.1420 C   0  0  0  0  0  0  0  0  0  0  0  0
    3.6990    0.3100    0.6100 C   0  0  0  0  0  0  0  0  0  0  0  0
    4.8020   -0.0310   -0.2680 C   0  0  0  0  0  0  0  0  0  0  0  0
    6.1320    0.6650    0.1750 C   0  0  0  0  0  0  0  0  0  0  0  0
    6.6630    0.9780   -1.0860 O   0  0  0  0  0  0  0  0  0  0  0  0
    7.8790    0.6580   -1.3410 O   0  0  0  0  0  0  0  0  0  0  0  0
    8.3330   -0.2910   -0.5300 O   0  0  0  0  0  0  0  0  0  0  0  0
   -1.5460    0.2700   -0.1220 O   0  0  0  0  0  0  0  0  0  0  0  0
   -2.8350    0.1360   -0.0250 C   0  0  0  0  0  0  0  0  0  0  0  0
   -3.4280    1.4830    0.3710 C   0  0  1  0  0  0  0  0  0  0  0  0
   -3.2540    2.4230   -0.7830 C   0  0  0  0  0  0  0  0  0  0  0  0
   -4.7060    2.8320   -1.1100 C   0  0  0  0  0  0  0  0  0  0  0  0
   -5.3510    2.7740    0.2640 C   0  0  0  0  0  0  0  0  0  0  0  0
   -4.8250    1.4470    0.8360 C   0  0  0  0  0  0  0  0  0  0  0  0
  1  2  1  0
  2  3  1  0
  3  4  1  1
  3  5  1  0
  3  6  1  0
  6  7  1  1
  6 17  1  0
  7  8  1  0
  8  9  1  0
  9 10  1  0
 10 11  1  0
 11 12  1  0
 12 13  1  0
 13 14  1  0
 14 15  1  0
 15 16  1  0
 17 18  1  0
 19 18  1  6
 19 20  1  0
 19 23  1  0
 20 21  1  0
 21 22  1  0
 22 23  1  0
M  END
