
     RDKit          3D

 23 24  0  0  0  0  0  0  0  0999 V2000
   -1.5480   -2.0210    1.2820 C   0  0  0  0  0  0  0  0  0  0  0  0
   -1.2560   -0.6570    0.9190 O   0  0  0  0  0  0  0  0  0  0  0  0
   -0.9490   -0.4170   -0.4070 C   0  0  0  0  0  0  0  0  0  0  0  0
   -1.8710    0.1770   -1.3470 C   0  0  0  0  0  0  0  0  0  0  0  0
   -3.2880   -0.2640   -1.2660 C   0  0  0  0  0  0  0  0  0  0  0  0
   -4.0210    0.1960   -0.0670 C   0  0  0  0  0  0  0  0  0  0  0  0
   -5.1530    0.9260   -0.1080 C   0  0  0  0  0  0  0  0  0  0  0  0
   -5.7950    1.3540   -1.3640 C   0  0  0  0  0  0  0  0  0  0  0  0
   -5.6270    1.2180    1.1400 O   0  0  0  0  0  0  0  0  0  0  0  0
   -4.9010    0.3950    2.0440 C   0  0  0  0  0  0  0  0  0  0  0  0
   -3.7650    0.0180    1.2620 O   0  0  0  0  0  0  0  0  0  0  0  0
    0.2740   -0.7590   -0.8380 C   0  0  0  0  0  0  0  0  0  0  0  0
    0.6290   -0.5260   -2.2530 C   0  0  0  0  0  0  0  0  0  0  0  0
    1.2740   -1.2670    0.0990 C   0  0  0  0  0  0  0  0  0  0  0  0
    2.4470   -0.4020    0.0910 O   0  0  0  0  0  0  0  0  0  0  0  0
    3.5240   -0.6940    0.9060 C   0  0  0  0  0  0  0  0  0  0  0  0
    3.5070   -1.6890    1.6520 O   0  0  0  0  0  0  0  0  0  0  0  0
    4.7340    0.1540    0.9320 C   0  0  0  0  0  0  0  0  0  0  0  0
    4.8280    1.2270    0.1690 C   0  0  0  0  0  0  0  0  0  0  0  0
    6.0120    2.1080    0.1540 C   0  0  0  0  0  0  0  0  0  0  0  0
    7.0020    1.6720    1.0310 O   0  0  0  0  0  0  0  0  0  0  0  0
    6.9490    0.5660    1.8410 C   0  0  0  0  0  0  0  0  0  0  0  0
    5.8580   -0.1740    1.8000 C   0  0  0  0  0  0  0  0  0  0  0  0
  1  2  1  0
  2  3  1  0
  3  4  1  0
  3 12  2  3
  4  5  1  0
  5  6  1  0
  6  7  2  0
  6 11  1  0
  7  8  1  0
  7  9  1  0
  9 10  1  0
 10 11  1  0
 12 13  1  0
 12 14  1  0
 14 15  1  0
 15 16  1  0
 16 17  2  0
 16 18  1  0
 18 19  2  0
 18 23  1  0
 19 20  1  0
 20 21  1  0
 21 22  1  0
 22 23  2  0
M  END
