
     RDKit          3D

 22 22  0  0  0  0  0  0  0  0999 V2000
    5.6660    1.3150    0.1540 C   0  0  0  0  0  0  0  0  0  0  0  0
    5.8440   -0.1490    0.0490 C   0  0  1  0  0  0  0  0  0  0  0  0
    7.2810   -0.4490   -0.3370 C   0  0  0  0  0  0  0  0  0  0  0  0
    5.5250   -0.8370    1.3980 C   0  0  0  0  0  0  0  0  0  0  0  0
    4.9090   -0.7810   -0.8490 O   0  0  0  0  0  0  0  0  0  0  0  0
    3.5500   -0.6550   -0.5350 C   0  0  0  0  0  0  0  0  0  0  0  0
    3.2250   -0.0110    0.4940 O   0  0  0  0  0  0  0  0  0  0  0  0
    2.5370   -1.2220   -1.3060 O   0  0  0  0  0  0  0  0  0  0  0  0
    1.1510   -1.0940   -0.9440 C   0  0  0  0  0  0  0  0  0  0  0  0
    0.7870    0.3330   -0.8080 C   0  0  0  0  0  0  0  0  0  0  0  0
   -0.6400    0.7030   -0.6460 C   0  0  0  0  0  0  0  0  0  0  0  0
   -1.4560    0.0160    0.4150 C   0  0  0  0  0  0  0  0  0  0  0  0
   -2.6900    0.7770    0.6340 C   0  0  2  0  0  0  0  0  0  0  0  0
   -3.6970   -0.1170    1.4510 C   0  0  0  0  0  0  0  0  0  0  0  0
   -3.9490   -1.1910    0.4790 C   0  0  0  0  0  0  0  0  0  0  0  0
   -5.3700   -1.7560    0.5560 C   0  0  0  0  0  0  0  0  0  0  0  0
   -5.3780   -2.5050   -0.6560 O   0  0  0  0  0  0  0  0  0  0  0  0
   -5.7130   -3.7840   -0.3490 O   0  0  0  0  0  0  0  0  0  0  0  0
   -3.4450    1.1500   -0.6020 C   0  0  0  0  0  0  0  0  0  0  0  0
   -4.3090    2.3040   -0.0340 C   0  0  0  0  0  0  0  0  0  0  0  0
   -3.2890    2.8900    0.9310 C   0  0  0  0  0  0  0  0  0  0  0  0
   -2.5380    1.8670    1.4380 O   0  0  0  0  0  0  0  0  0  0  0  0
  2  1  1  1
  2  3  1  0
  2  4  1  0
  2  5  1  0
  5  6  1  0
  6  7  2  0
  6  8  1  0
  8  9  1  0
  9 10  1  0
 10 11  1  0
 11 12  1  0
 13 12  1  6
 13 14  1  0
 13 19  1  0
 13 22  1  0
 14 15  1  0
 15 16  1  0
 16 17  1  0
 17 18  1  0
 19 20  1  0
 20 21  1  0
 21 22  1  0
M  END
