
     RDKit          3D

 16 16  0  0  0  0  0  0  0  0999 V2000
   -2.5810    0.6190   -1.0190 O   0  0  0  0  0  0  0  0  0  0  0  0
   -1.7170    1.3740   -0.5220 C   0  0  0  0  0  0  0  0  0  0  0  0
   -2.0350    2.7280   -0.3970 O   0  0  0  0  0  0  0  0  0  0  0  0
   -0.4280    0.8700   -0.0870 C   0  0  0  0  0  0  0  0  0  0  0  0
    0.5360    1.7130    0.4670 C   0  0  0  0  0  0  0  0  0  0  0  0
    1.7670    1.2550    0.8860 C   0  0  0  0  0  0  0  0  0  0  0  0
    2.1050   -0.0760    0.7750 C   0  0  0  0  0  0  0  0  0  0  0  0
    3.3820   -0.5670    1.2070 N   0  0  0  0  0  0  0  0  0  0  0  0
    4.2180    0.2110    1.6960 O   0  0  0  0  0  0  0  0  0  0  0  0
    3.7380   -1.8850    1.1050 O   0  0  0  0  0  0  0  0  0  0  0  0
    1.1610   -0.9110    0.2300 C   0  0  0  0  0  0  0  0  0  0  0  0
   -0.0940   -0.4530   -0.1990 C   0  0  0  0  0  0  0  0  0  0  0  0
   -1.2590   -1.5950   -0.8920 P   0  0  1  0  0  0  0  0  0  0  0  0
   -0.6180   -2.9930   -0.8520 O   0  0  0  0  0  0  0  0  0  0  0  0
   -2.6490   -1.7390    0.0650 O   0  0  0  0  0  0  0  0  0  0  0  0
   -1.6260   -1.2800   -2.5090 O   0  0  0  0  0  0  0  0  0  0  0  0
  1  2  2  0
  2  3  1  0
  2  4  1  0
  4  5  2  0
  4 12  1  0
  5  6  1  0
  6  7  2  0
  7  8  1  0
  7 11  1  0
  8  9  2  0
  8 10  1  0
 11 12  2  0
 12 13  1  0
 13 14  2  0
 13 15  1  1
 13 16  1  0
M  CHG  2   8   1  10  -1
M  END
