
     RDKit          3D

 24 25  0  0  0  0  0  0  0  0999 V2000
   -5.3700    0.2130   -0.3500 C   0  0  0  0  0  0  0  0  0  0  0  0
   -4.4340    1.3060    0.1150 C   0  0  1  0  0  0  0  0  0  0  0  0
   -4.1110    2.2930   -0.9700 C   0  0  0  0  0  0  0  0  0  0  0  0
   -5.1870    2.0760    1.2040 C   0  0  0  0  0  0  0  0  0  0  0  0
   -3.2750    0.7840    0.7420 O   0  0  0  0  0  0  0  0  0  0  0  0
   -2.3870   -0.0630    0.0780 C   0  0  0  0  0  0  0  0  0  0  0  0
   -2.6550   -0.3510   -1.1120 O   0  0  0  0  0  0  0  0  0  0  0  0
   -1.2280   -0.5780    0.7240 N   0  0  0  0  0  0  0  0  0  0  0  0
   -0.3000   -1.4630    0.0310 C   0  0  2  0  0  0  0  0  0  0  0  0
   -0.2190   -2.7620    0.7820 C   0  0  0  0  0  0  0  0  0  0  0  0
   -0.8930   -2.9170    1.8140 O   0  0  0  0  0  0  0  0  0  0  0  0
    0.6080   -3.8240    0.3470 N   0  0  0  0  0  0  0  0  0  0  0  0
    0.7140   -5.0110    0.9890 O   0  0  0  0  0  0  0  0  0  0  0  0
    1.0570   -0.9080   -0.0130 C   0  0  0  0  0  0  0  0  0  0  0  0
    1.6750   -0.3260    1.0850 C   0  0  0  0  0  0  0  0  0  0  0  0
    2.9500    0.1750    0.9770 C   0  0  0  0  0  0  0  0  0  0  0  0
    3.6680    0.1260   -0.2050 C   0  0  0  0  0  0  0  0  0  0  0  0
    4.9850    0.6440   -0.3160 N   0  0  0  0  0  0  0  0  0  0  0  0
    5.2860    1.7790   -0.9720 C   0  0  0  0  0  0  0  0  0  0  0  0
    6.6480    1.9480   -0.8600 C   0  0  0  0  0  0  0  0  0  0  0  0
    7.1260    0.8850   -0.1240 C   0  0  0  0  0  0  0  0  0  0  0  0
    6.0880    0.1210    0.1840 N   0  0  0  0  0  0  0  0  0  0  0  0
    3.0500   -0.4500   -1.2840 C   0  0  0  0  0  0  0  0  0  0  0  0
    1.7620   -0.9620   -1.1960 C   0  0  0  0  0  0  0  0  0  0  0  0
  2  1  1  6
  2  3  1  0
  2  4  1  0
  2  5  1  0
  5  6  1  0
  6  7  2  0
  6  8  1  0
  9  8  1  1
  9 10  1  0
  9 14  1  0
 10 11  2  0
 10 12  1  0
 12 13  1  0
 14 15  2  0
 14 24  1  0
 15 16  1  0
 16 17  2  0
 17 18  1  0
 17 23  1  0
 18 19  1  0
 18 22  1  0
 19 20  2  0
 20 21  1  0
 21 22  2  0
 23 24  2  0
M  END
