
     RDKit          3D

 24 25  0  0  0  0  0  0  0  0999 V2000
    0.6820   -2.7360    1.0120 C   0  0  0  0  0  0  0  0  0  0  0  0
   -0.5750   -1.9700    1.2780 C   0  0  0  0  0  0  0  0  0  0  0  0
   -0.7680   -0.7430    0.7350 C   0  0  0  0  0  0  0  0  0  0  0  0
    0.3110   -0.2540   -0.1030 C   0  0  0  0  0  0  0  0  0  0  0  0
    0.5330    0.7640   -0.8520 C   0  0  0  0  0  0  0  0  0  0  0  0
    1.7460    1.0400   -1.5940 C   0  0  0  0  0  0  0  0  0  0  0  0
    1.6240    2.1100   -2.3760 O   0  0  0  0  0  0  0  0  0  0  0  0
    2.9710    0.4160   -1.6440 N   0  0  0  0  0  0  0  0  0  0  0  0
    3.9340    0.8090   -2.7100 C   0  0  0  0  0  0  0  0  0  0  0  0
    4.1060   -0.4420   -3.5360 C   0  0  0  0  0  0  0  0  0  0  0  0
    4.4940   -1.5800   -2.7070 C   0  0  0  0  0  0  0  0  0  0  0  0
    4.9900   -2.6140   -3.2740 O   0  0  0  0  0  0  0  0  0  0  0  0
    4.3380   -1.5750   -1.3030 N   0  0  0  0  0  0  0  0  0  0  0  0
    3.5290   -0.5110   -0.7350 C   0  0  0  0  0  0  0  0  0  0  0  0
    3.3680   -0.4560    0.4970 O   0  0  0  0  0  0  0  0  0  0  0  0
   -2.0310   -0.0370    1.0040 C   0  0  0  0  0  0  0  0  0  0  0  0
   -2.1400    1.2260    0.7130 C   0  0  0  0  0  0  0  0  0  0  0  0
   -3.1500    2.2430    0.7900 C   0  0  2  0  0  0  0  0  0  0  0  0
   -4.4400    2.0320    1.4600 C   0  0  0  0  0  0  0  0  0  0  0  0
   -3.4000    2.7690   -0.6610 C   0  0  0  0  0  0  0  0  0  0  0  0
   -3.0170   -0.6660    1.8060 N   0  0  0  0  0  0  0  0  0  0  0  0
   -2.7960   -1.9490    2.3520 C   0  0  0  0  0  0  0  0  0  0  0  0
   -3.6830   -2.5020    3.0650 O   0  0  0  0  0  0  0  0  0  0  0  0
   -1.5710   -2.5740    2.0770 N   0  0  0  0  0  0  0  0  0  0  0  0
  1  2  1  0
  2  3  2  0
  2 24  1  0
  3  4  1  0
  3 16  1  0
  4  5  2  3
  5  6  1  0
  6  7  2  0
  6  8  1  0
  8  9  1  0
  8 14  1  0
  9 10  1  0
 10 11  1  0
 11 12  2  0
 11 13  1  0
 13 14  1  0
 14 15  2  0
 16 17  2  3
 16 21  1  0
 17 18  1  0
 18 19  1  6
 18 20  1  0
 21 22  1  0
 22 23  2  0
 22 24  1  0
M  END
