
     RDKit          3D

 23 24  0  0  0  0  0  0  0  0999 V2000
   -6.3910   -0.0150   -0.3710 C   0  0  0  0  0  0  0  0  0  0  0  0
   -4.9860    0.5130   -0.1270 C   0  0  1  0  0  0  0  0  0  0  0  0
   -4.4150    1.1430   -1.3820 C   0  0  0  0  0  0  0  0  0  0  0  0
   -5.1100    1.5690    0.9710 C   0  0  0  0  0  0  0  0  0  0  0  0
   -4.2140   -0.5900    0.3130 O   0  0  0  0  0  0  0  0  0  0  0  0
   -2.8490   -0.4550    0.6340 C   0  0  0  0  0  0  0  0  0  0  0  0
   -2.3980    0.7090    0.4940 O   0  0  0  0  0  0  0  0  0  0  0  0
   -2.0940   -1.5680    1.0720 N   0  0  0  0  0  0  0  0  0  0  0  0
   -0.6990   -1.4120    1.3910 C   0  0  0  0  0  0  0  0  0  0  0  0
    0.0360   -0.9540    0.1600 C   0  0  0  0  0  0  0  0  0  0  0  0
    1.5160   -0.7780    0.4380 C   0  0  1  0  0  0  0  0  0  0  0  0
    2.1780   -2.0340    0.8900 C   0  0  0  0  0  0  0  0  0  0  0  0
    3.4150   -2.4090    0.1530 C   0  0  0  0  0  0  0  0  0  0  0  0
    4.3040   -1.2620   -0.2080 C   0  0  0  0  0  0  0  0  0  0  0  0
    3.5930   -0.0420   -0.4600 N   0  0  0  0  0  0  0  0  0  0  0  0
    4.2270    1.2290   -0.4380 C   0  0  0  0  0  0  0  0  0  0  0  0
    3.6910    2.3940   -0.2420 N   0  0  0  0  0  0  0  0  0  0  0  0
    4.6450    3.4250   -0.2930 C   0  0  0  0  0  0  0  0  0  0  0  0
    4.4990    4.6700   -0.1510 O   0  0  0  0  0  0  0  0  0  0  0  0
    5.9230    2.7850   -0.5570 C   0  0  0  0  0  0  0  0  0  0  0  0
    7.0690    3.2690   -0.6910 O   0  0  0  0  0  0  0  0  0  0  0  0
    5.6370    1.3950   -0.6450 N   0  0  0  0  0  0  0  0  0  0  0  0
    2.1750   -0.1190   -0.7460 C   0  0  0  0  0  0  0  0  0  0  0  0
  2  1  1  6
  2  3  1  0
  2  4  1  0
  2  5  1  0
  5  6  1  0
  6  7  2  0
  6  8  1  0
  8  9  1  0
  9 10  1  0
 11 10  1  6
 11 12  1  0
 11 23  1  0
 12 13  1  0
 13 14  1  0
 14 15  1  0
 15 16  1  0
 15 23  1  0
 16 17  2  0
 16 22  1  0
 17 18  1  0
 18 19  2  0
 18 20  1  0
 20 21  2  0
 20 22  1  0
M  END
