
     RDKit          3D

 24 25  0  0  0  0  0  0  0  0999 V2000
    7.7140    2.5190    2.2670 C   0  0  0  0  0  0  0  0  0  0  0  0
    6.6740    1.8700    2.6280 N   0  0  0  0  0  0  0  0  0  0  0  0
    5.9150    1.1300    1.6680 C   0  0  0  0  0  0  0  0  0  0  0  0
    6.5950    0.5270    0.6420 C   0  0  0  0  0  0  0  0  0  0  0  0
    5.8840   -0.1860   -0.2880 C   0  0  0  0  0  0  0  0  0  0  0  0
    4.4990   -0.2790   -0.1670 C   0  0  0  0  0  0  0  0  0  0  0  0
    3.7820    0.3010    0.8340 C   0  0  0  0  0  0  0  0  0  0  0  0
    2.3900    0.2620    1.0360 N   0  0  0  0  0  0  0  0  0  0  0  0
    1.4460   -0.3990    0.2190 C   0  0  0  0  0  0  0  0  0  0  0  0
    1.8470   -1.0230   -0.7950 O   0  0  0  0  0  0  0  0  0  0  0  0
   -0.0040   -0.3690    0.5370 C   0  0  0  0  0  0  0  0  0  0  0  0
   -0.3500    0.2650    1.5570 O   0  0  0  0  0  0  0  0  0  0  0  0
   -0.9050   -1.0500   -0.3190 N   0  0  0  0  0  0  0  0  0  0  0  0
   -2.3140   -1.0150   -0.0010 C   0  0  0  0  0  0  0  0  0  0  0  0
   -3.1340   -1.7860   -1.0080 C   0  0  2  0  0  0  0  0  0  0  0  0
   -2.9860   -1.0930   -2.3460 C   0  0  0  0  0  0  0  0  0  0  0  0
   -3.2220    0.2820   -2.1210 O   0  0  0  0  0  0  0  0  0  0  0  0
   -4.4280    0.6020   -1.4750 C   0  0  0  0  0  0  0  0  0  0  0  0
   -4.9380    1.7850   -1.5670 N   0  0  0  0  0  0  0  0  0  0  0  0
   -5.0950   -0.4320   -0.6930 C   0  0  0  0  0  0  0  0  0  0  0  0
   -6.2210   -0.1930   -0.0690 C   0  0  0  0  0  0  0  0  0  0  0  0
   -6.9010    1.1160   -0.0980 C   0  0  0  0  0  0  0  0  0  0  0  0
   -4.4900   -1.7030   -0.6300 O   0  0  0  0  0  0  0  0  0  0  0  0
    4.5420    1.0230    1.7660 C   0  0  0  0  0  0  0  0  0  0  0  0
  1  2  2  0
  2  3  1  0
  3  4  2  0
  3 24  1  0
  4  5  1  0
  5  6  2  0
  6  7  1  0
  7  8  1  0
  7 24  2  0
  8  9  1  0
  9 10  2  0
  9 11  1  0
 11 12  2  0
 11 13  1  0
 13 14  1  0
 15 14  1  1
 15 16  1  0
 15 23  1  0
 16 17  1  0
 17 18  1  0
 18 19  2  0
 18 20  1  0
 20 21  2  3
 20 23  1  0
 21 22  1  0
M  END
