
     RDKit          3D

 13 12  0  0  0  0  0  0  0  0999 V2000
    4.5330    2.4520    0.9940 O   0  0  0  0  0  0  0  0  0  0  0  0
    5.0460    1.5250    0.3060 C   0  0  0  0  0  0  0  0  0  0  0  0
    4.2260    0.5030   -0.1500 O   0  0  0  0  0  0  0  0  0  0  0  0
    2.8690    0.4930    0.1400 C   0  0  0  0  0  0  0  0  0  0  0  0
    2.4370    1.4580    0.8350 O   0  0  0  0  0  0  0  0  0  0  0  0
    1.9530   -0.5760   -0.3240 C   0  0  0  0  0  0  0  0  0  0  0  0
    0.6770   -0.3110    0.1210 O   0  0  0  0  0  0  0  0  0  0  0  0
   -0.2210   -1.2900   -0.2920 C   0  0  0  0  0  0  0  0  0  0  0  0
   -1.8910   -0.8130    0.3700 P   0  0  0  0  0  0  0  0  0  0  0  0
   -2.8680   -2.2360    0.5460 O   0  0  0  0  0  0  0  0  0  0  0  0
   -2.6720    0.3440   -0.6500 O   0  0  0  0  0  0  0  0  0  0  0  0
   -3.8070    0.7990    0.0590 C   0  0  0  0  0  0  0  0  0  0  0  0
   -4.5120    1.7370   -0.6710 O   0  0  0  0  0  0  0  0  0  0  0  0
  1  2  2  0
  2  3  1  0
  3  4  1  0
  4  5  2  0
  4  6  1  0
  6  7  1  0
  7  8  1  0
  8  9  1  0
  9 10  1  0
  9 11  1  0
 11 12  1  0
 12 13  1  0
M  END
