
     RDKit          3D

 21 21  0  0  0  0  0  0  0  0999 V2000
    1.9840    1.1310   -2.5770 C   0  0  0  0  0  0  0  0  0  0  0  0
    1.8600   -0.0010   -1.5740 C   0  0  2  0  0  0  0  0  0  0  0  0
    0.7440    0.1880   -0.7240 O   0  0  0  0  0  0  0  0  0  0  0  0
   -0.3070   -0.7150   -0.6530 C   0  0  0  0  0  0  0  0  0  0  0  0
   -0.2780   -1.7450   -1.3680 O   0  0  0  0  0  0  0  0  0  0  0  0
   -1.4100   -0.5100    0.2010 N   0  0  0  0  0  0  0  0  0  0  0  0
   -1.4530    0.6750    1.0290 C   0  0  0  0  0  0  0  0  0  0  0  0
   -2.8590    1.0190    1.4620 C   0  0  0  0  0  0  0  0  0  0  0  0
   -3.4090   -0.1580    2.1300 N   0  0  0  0  0  0  0  0  0  0  0  0
   -3.0760   -1.4130    1.5810 C   0  0  0  0  0  0  0  0  0  0  0  0
   -3.2880   -2.4480    2.2390 O   0  0  0  0  0  0  0  0  0  0  0  0
   -2.4790   -1.4830    0.2350 C   0  0  1  0  0  0  0  0  0  0  0  0
   -3.4690   -1.2370   -0.8390 C   0  0  0  0  0  0  0  0  0  0  0  0
   -3.3150   -0.2790   -1.6320 O   0  0  0  0  0  0  0  0  0  0  0  0
   -4.5840   -2.0370   -1.0110 O   0  0  0  0  0  0  0  0  0  0  0  0
    3.0860   -0.1060   -0.7610 C   0  0  0  0  0  0  0  0  0  0  0  0
    4.2120   -0.2780   -1.2970 O   0  0  0  0  0  0  0  0  0  0  0  0
    3.0340   -0.0190    0.6060 O   0  0  0  0  0  0  0  0  0  0  0  0
    4.4050   -0.1270    1.6690 P   0  0  0  0  0  0  0  0  0  0  0  0
    5.8010   -0.7860    0.9070 O   0  0  0  0  0  0  0  0  0  0  0  0
    4.7320    1.3610    2.4810 O   0  0  0  0  0  0  0  0  0  0  0  0
  2  1  1  6
  2  3  1  0
  2 16  1  0
  3  4  1  0
  4  5  2  0
  4  6  1  0
  6  7  1  0
  6 12  1  0
  7  8  1  0
  8  9  1  0
  9 10  1  0
 10 11  2  0
 10 12  1  0
 12 13  1  6
 13 14  2  0
 13 15  1  0
 16 17  2  0
 16 18  1  0
 18 19  1  0
 19 20  1  0
 19 21  1  0
M  END
