
     RDKit          3D

 13 12  0  0  0  0  0  0  0  0999 V2000
   -3.7770   -0.5900   -0.6350 O   0  0  0  0  0  0  0  0  0  0  0  0
   -3.3090    0.5370   -0.3620 C   0  0  0  0  0  0  0  0  0  0  0  0
   -3.9470    1.6940   -0.7460 O   0  0  0  0  0  0  0  0  0  0  0  0
   -2.0380    0.6250    0.3920 C   0  0  0  0  0  0  0  0  0  0  0  0
   -1.5180   -0.7560    0.7070 C   0  0  0  0  0  0  0  0  0  0  0  0
   -1.3050   -1.4650   -0.4240 O   0  0  0  0  0  0  0  0  0  0  0  0
   -0.4040   -0.8710   -1.2640 C   0  0  0  0  0  0  0  0  0  0  0  0
    0.9080   -0.6870   -0.5870 C   0  0  0  0  0  0  0  0  0  0  0  0
    1.8610   -0.0770   -1.4440 O   0  0  0  0  0  0  0  0  0  0  0  0
    3.3000    0.0630   -0.5260 P   0  0  0  0  0  0  0  0  0  0  0  0
    3.9470   -1.4360   -0.0060 O   0  0  0  0  0  0  0  0  0  0  0  0
    3.2780    1.2790    0.6570 O   0  0  0  0  0  0  0  0  0  0  0  0
    4.4270    1.8860    0.8320 O   0  0  0  0  0  0  0  0  0  0  0  0
  1  2  2  0
  2  3  1  0
  2  4  1  0
  4  5  1  0
  5  6  1  0
  6  7  1  0
  7  8  1  0
  8  9  1  0
  9 10  1  0
 10 11  1  0
 10 12  1  0
 12 13  1  0
M  END
