
     RDKit          3D

 21 21  0  0  0  0  0  0  0  0999 V2000
    5.5900   -1.7610    0.8120 O   0  0  0  0  0  0  0  0  0  0  0  0
    5.8360   -0.7810    0.1700 C   0  0  0  0  0  0  0  0  0  0  0  0
    7.2050   -0.1440   -0.1530 C   0  0  0  0  0  0  0  0  0  0  0  0
    7.0350    1.0050    0.7660 O   0  0  0  0  0  0  0  0  0  0  0  0
    6.9720    2.0910    0.0270 O   0  0  0  0  0  0  0  0  0  0  0  0
    4.8050    0.0020   -0.4130 O   0  0  0  0  0  0  0  0  0  0  0  0
    3.4990   -0.1800   -0.1800 C   0  0  0  0  0  0  0  0  0  0  0  0
    3.0100   -1.0230    0.5800 O   0  0  0  0  0  0  0  0  0  0  0  0
    2.6410    0.7240   -0.8680 O   0  0  0  0  0  0  0  0  0  0  0  0
    1.3070    0.8620   -0.6360 C   0  0  0  0  0  0  0  0  0  0  0  0
    0.3730   -0.2030   -0.3680 C   0  0  0  0  0  0  0  0  0  0  0  0
    0.5320   -1.4380   -0.4500 O   0  0  0  0  0  0  0  0  0  0  0  0
   -0.8840    0.2760    0.0730 O   0  0  0  0  0  0  0  0  0  0  0  0
   -1.9590   -0.4860    0.4620 C   0  0  0  0  0  0  0  0  0  0  0  0
   -1.8740   -1.6860    0.4760 O   0  0  0  0  0  0  0  0  0  0  0  0
   -3.1800    0.3390    0.8390 C   0  0  1  0  0  0  0  0  0  0  0  0
   -3.7580    0.8060   -0.4890 C   0  0  0  0  0  0  0  0  0  0  0  0
   -4.3400   -0.3610   -1.1400 N   0  0  0  0  0  0  0  0  0  0  0  0
   -5.3480   -0.9760   -0.3460 C   0  0  0  0  0  0  0  0  0  0  0  0
   -5.4120   -0.3010    1.0280 C   0  0  0  0  0  0  0  0  0  0  0  0
   -4.1050   -0.4440    1.5840 N   0  0  0  0  0  0  0  0  0  0  0  0
  1  2  2  0
  2  3  1  0
  2  6  1  0
  3  4  1  0
  4  5  1  0
  6  7  1  0
  7  8  2  0
  7  9  1  0
  9 10  1  0
 10 11  1  0
 11 12  2  0
 11 13  1  0
 13 14  1  0
 14 15  2  0
 16 14  1  6
 16 17  1  0
 16 21  1  0
 17 18  1  0
 18 19  1  0
 19 20  1  0
 20 21  1  0
M  END
