
     RDKit          3D

 24 27  0  0  0  0  0  0  0  0999 V2000
    1.3640    2.8460    1.8130 O   0  0  0  0  0  0  0  0  0  0  0  0
    0.8550    2.0670    0.7570 C   0  0  2  0  0  0  0  0  0  0  0  0
   -0.2430    1.4060    1.2340 O   0  0  0  0  0  0  0  0  0  0  0  0
   -0.8040    0.5180    0.3270 C   0  0  2  0  0  0  0  0  0  0  0  0
   -1.4530    1.3520   -1.1860 P   0  0  0  0  0  0  0  0  0  0  0  0
   -2.7420    2.5880   -0.8870 C   0  0  0  0  0  0  0  0  0  0  0  0
   -3.5520    2.3780    0.1880 O   0  0  0  0  0  0  0  0  0  0  0  0
   -4.0340    0.7370    0.3830 P   0  0  0  0  0  0  0  0  0  0  0  0
   -5.3800    0.5490    1.4180 O   0  0  0  0  0  0  0  0  0  0  0  0
   -2.2370   -0.3070    1.1810 P   0  0  0  0  0  0  0  0  0  0  0  0
   -2.3850   -2.0870    0.6920 C   0  0  1  0  0  0  0  0  0  0  0  0
   -3.3710   -2.2790   -0.2490 O   0  0  0  0  0  0  0  0  0  0  0  0
   -1.0300   -2.6000    0.1880 C   0  0  0  0  0  0  0  0  0  0  0  0
    0.0030   -1.6510    0.8090 C   0  0  0  0  0  0  0  0  0  0  0  0
    0.1060   -0.5140   -0.0850 N   0  0  0  0  0  0  0  0  0  0  0  0
    1.4090   -0.1290   -0.2580 N   0  0  0  0  0  0  0  0  0  0  0  0
    1.8620    1.1100    0.2590 C   0  0  0  0  0  0  0  0  0  0  0  0
    3.1680    1.3540    0.2720 C   0  0  0  0  0  0  0  0  0  0  0  0
    4.0190    0.3360   -0.2410 N   0  0  0  0  0  0  0  0  0  0  0  0
    5.2360    0.6390   -0.6860 O   0  0  0  0  0  0  0  0  0  0  0  0
    3.5610   -0.9320   -0.2620 O   0  0  0  0  0  0  0  0  0  0  0  0
    2.3410   -0.9550   -0.9540 C   0  0  2  0  0  0  0  0  0  0  0  0
    2.6270   -0.4400   -2.2340 O   0  0  0  0  0  0  0  0  0  0  0  0
    1.9390   -2.2610   -1.1300 O   0  0  0  0  0  0  0  0  0  0  0  0
  2  1  1  1
  2  3  1  0
  2 17  1  0
  4  3  1  1
  4  5  1  0
  4 10  1  0
  4 15  1  0
  5  6  1  0
  6  7  1  0
  7  8  1  0
  8  9  1  0
  8 10  1  0
 10 11  1  0
 11 12  1  6
 11 13  1  0
 13 14  1  0
 14 15  1  0
 15 16  1  0
 16 17  1  0
 16 22  1  0
 17 18  2  0
 18 19  1  0
 19 20  1  0
 19 21  1  0
 21 22  1  0
 22 23  1  6
 22 24  1  0
M  END
