
     RDKit          3D

 23 26  0  0  0  0  0  0  0  0999 V2000
    0.5220    2.6060   -1.6130 C   0  0  0  0  0  0  0  0  0  0  0  0
    0.0130    1.3590   -2.0700 N   0  0  0  0  0  0  0  0  0  0  0  0
   -1.1510    0.8830   -1.4220 C   0  0  0  0  0  0  0  0  0  0  0  0
   -1.1640    0.7600    0.0290 C   0  0  1  0  0  0  0  0  0  0  0  0
   -2.1520    1.7250    0.6950 C   0  0  0  0  0  0  0  0  0  0  0  0
   -2.5560    0.7270    1.5580 O   0  0  0  0  0  0  0  0  0  0  0  0
   -2.0420   -0.2480    0.6770 C   0  0  1  0  0  0  0  0  0  0  0  0
   -3.1310   -0.8840   -0.1030 C   0  0  2  0  0  0  0  0  0  0  0  0
   -2.6600   -1.8540   -0.9800 O   0  0  0  0  0  0  0  0  0  0  0  0
   -3.9560    0.0170   -0.7600 O   0  0  0  0  0  0  0  0  0  0  0  0
   -4.0320   -1.6270    0.8940 C   0  0  0  0  0  0  0  0  0  0  0  0
   -3.2680   -2.5750    1.5370 O   0  0  0  0  0  0  0  0  0  0  0  0
    0.0420    0.8560    0.7020 O   0  0  0  0  0  0  0  0  0  0  0  0
    1.1460   -0.4310    0.2250 P   0  0  0  0  0  0  0  0  0  0  0  0
    2.9040    0.2460    0.4240 C   0  0  1  0  0  0  0  0  0  0  0  0
    3.7820   -0.7880    0.0070 N   0  0  0  0  0  0  0  0  0  0  0  0
    3.6170   -2.0080    0.8200 C   0  0  0  0  0  0  0  0  0  0  0  0
    4.8170   -2.6970    0.7340 O   0  0  0  0  0  0  0  0  0  0  0  0
    5.7360   -1.9600    1.3660 O   0  0  0  0  0  0  0  0  0  0  0  0
    5.5030   -0.4400    0.5000 P   0  0  0  0  0  0  0  0  0  0  0  0
    2.8700    1.2820   -0.5830 N   0  0  0  0  0  0  0  0  0  0  0  0
    2.8640    0.7480   -1.7990 O   0  0  0  0  0  0  0  0  0  0  0  0
    1.2550    0.0350   -1.9950 P   0  0  0  0  0  0  0  0  0  0  0  0
  1  2  1  0
  2  3  1  0
  2 23  1  0
  4  3  1  6
  4  5  1  0
  4  7  1  0
  4 13  1  0
  5  6  1  0
  7  6  1  1
  7  8  1  0
  8  9  1  6
  8 10  1  0
  8 11  1  0
 11 12  1  0
 13 14  1  0
 14 15  1  0
 14 23  1  0
 15 16  1  6
 15 21  1  0
 16 17  1  0
 16 20  1  0
 17 18  1  0
 18 19  1  0
 19 20  1  0
 21 22  1  0
 22 23  1  0
M  END
