
     RDKit          3D

 24 26  0  0  0  0  0  0  0  0999 V2000
    0.8920   -1.0660   -3.8110 O   0  0  0  0  0  0  0  0  0  0  0  0
    0.5960   -0.9170   -2.6190 C   0  0  0  0  0  0  0  0  0  0  0  0
    1.5940   -1.1480   -1.5490 C   0  0  0  0  0  0  0  0  0  0  0  0
    1.4220   -0.2720   -0.4210 N   0  0  0  0  0  0  0  0  0  0  0  0
    2.4600   -0.1090    0.4270 O   0  0  0  0  0  0  0  0  0  0  0  0
    2.9750   -1.6880    0.9730 P   0  0  0  0  0  0  0  0  0  0  0  0
    2.7080   -1.8290    2.6850 O   0  0  0  0  0  0  0  0  0  0  0  0
    4.6840   -1.8780    0.6850 O   0  0  0  0  0  0  0  0  0  0  0  0
    0.2050    0.4350   -0.1540 C   0  0  0  0  0  0  0  0  0  0  0  0
    0.1650    1.7330    0.8650 P   0  0  0  0  0  0  0  0  0  0  0  0
    1.6810    2.3680    1.7360 C   0  0  0  0  0  0  0  0  0  0  0  0
    2.5340    2.8800    0.7590 O   0  0  0  0  0  0  0  0  0  0  0  0
    2.0010    3.8540    0.0760 O   0  0  0  0  0  0  0  0  0  0  0  0
   -1.0110   -0.0460   -0.8310 C   0  0  2  0  0  0  0  0  0  0  0  0
   -1.9120    1.1100   -0.9730 N   0  0  0  0  0  0  0  0  0  0  0  0
   -2.5070    1.1900    0.7480 P   0  0  0  0  0  0  0  0  0  0  0  0
   -4.2110    1.4790    0.7810 O   0  0  0  0  0  0  0  0  0  0  0  0
   -2.1390   -0.6120    1.1420 C   0  0  1  0  0  0  0  0  0  0  0  0
   -3.3580   -1.4030    0.9600 C   0  0  0  0  0  0  0  0  0  0  0  0
   -4.1960   -1.9360    1.6560 O   0  0  0  0  0  0  0  0  0  0  0  0
   -3.0890   -1.2470   -0.5030 C   0  0  0  0  0  0  0  0  0  0  0  0
   -1.6940   -1.0770   -0.1470 N   0  0  0  0  0  0  0  0  0  0  0  0
   -0.7400   -0.5110   -2.2180 C   0  0  0  0  0  0  0  0  0  0  0  0
   -1.7070   -0.5400   -3.0280 O   0  0  0  0  0  0  0  0  0  0  0  0
  1  2  2  0
  2  3  1  0
  2 23  1  0
  3  4  1  0
  4  5  1  0
  4  9  1  0
  5  6  1  0
  6  7  1  0
  6  8  1  0
  9 10  2  3
  9 14  1  0
 10 11  1  0
 11 12  1  0
 12 13  1  0
 14 15  1  6
 14 22  1  0
 14 23  1  0
 15 16  1  0
 16 17  1  0
 18 16  1  6
 18 19  1  0
 18 22  1  0
 19 20  2  0
 19 21  1  0
 21 22  1  0
 23 24  2  0
M  END
