
     RDKit          3D

 10  9  0  0  0  0  0  0  0  0999 V2000
   -1.2050   -2.0370   -0.4010 C   0  0  0  0  0  0  0  0  0  0  0  0
   -0.9620   -0.9210    0.5550 C   0  0  0  0  0  0  0  0  0  0  0  0
   -1.1230   -1.1520    1.8330 C   0  0  0  0  0  0  0  0  0  0  0  0
   -1.5080   -2.3930    2.3160 O   0  0  0  0  0  0  0  0  0  0  0  0
   -0.5710    0.3290    0.0370 N   0  0  0  0  0  0  0  0  0  0  0  0
    0.6370    0.7190    0.0040 C   0  0  0  0  0  0  0  0  0  0  0  0
    1.0280    2.0000   -0.5280 C   0  0  0  0  0  0  0  0  0  0  0  0
    2.2440    2.3680   -0.5510 N   0  0  0  0  0  0  0  0  0  0  0  0
    2.7740    3.9480   -1.2010 P   0  0  0  0  0  0  0  0  0  0  0  0
    4.2390    4.2330   -1.5760 O   0  0  0  0  0  0  0  0  0  0  0  0
  1  2  1  0
  2  3  2  3
  2  5  1  0
  3  4  1  0
  5  6  2  3
  6  7  1  0
  7  8  2  3
  8  9  1  0
  9 10  2  0
M  END
