
     RDKit          3D

 10 10  0  0  0  0  0  0  0  0999 V2000
   -1.4240    2.2790    1.0420 C   0  0  0  0  0  0  0  0  0  0  0  0
   -1.3320    0.9840    0.8220 C   0  0  0  0  0  0  0  0  0  0  0  0
   -2.2400    0.0490    1.3360 O   0  0  0  0  0  0  0  0  0  0  0  0
   -1.7580   -1.2350    1.0810 C   0  0  0  0  0  0  0  0  0  0  0  0
   -0.6780   -1.0730    0.1310 N   0  0  0  0  0  0  0  0  0  0  0  0
   -1.0000   -1.6550   -1.1580 C   0  0  0  0  0  0  0  0  0  0  0  0
   -0.3710    0.2650    0.0700 N   0  0  0  0  0  0  0  0  0  0  0  0
    1.0210    0.9290   -0.8250 P   0  0  0  0  0  0  0  0  0  0  0  0
    2.4510    0.9260    0.1610 O   0  0  0  0  0  0  0  0  0  0  0  0
    3.4350    0.1010   -0.3810 C   0  0  0  0  0  0  0  0  0  0  0  0
  1  2  2  0
  2  3  1  0
  2  7  1  0
  3  4  1  0
  4  5  1  0
  5  6  1  0
  5  7  1  0
  7  8  1  0
  8  9  1  0
  9 10  1  0
M  END
