
     RDKit          3D

 22 23  0  0  0  0  0  0  0  0999 V2000
    1.9910   -1.5300   -2.3950 C   0  0  0  0  0  0  0  0  0  0  0  0
    2.1100   -0.8530   -1.0970 N   0  0  0  0  0  0  0  0  0  0  0  0
    0.9670   -0.8780   -0.1880 C   0  0  0  0  0  0  0  0  0  0  0  0
   -0.1470   -0.0840   -0.6860 C   0  0  0  0  0  0  0  0  0  0  0  0
    0.0060    0.5190   -1.7970 O   0  0  0  0  0  0  0  0  0  0  0  0
   -1.3880    0.0620   -0.0240 N   0  0  0  0  0  0  0  0  0  0  0  0
   -1.6950   -0.5750    1.2490 C   0  0  1  0  0  0  0  0  0  0  0  0
   -2.0180    0.5390    2.2220 C   0  0  0  0  0  0  0  0  0  0  0  0
   -3.3150    1.1660    1.7400 C   0  0  0  0  0  0  0  0  0  0  0  0
   -3.6650    0.6420    0.3550 C   0  0  2  0  0  0  0  0  0  0  0  0
   -3.9400   -0.7140    0.4270 O   0  0  0  0  0  0  0  0  0  0  0  0
   -2.9380   -1.4430    1.0260 C   0  0  0  0  0  0  0  0  0  0  0  0
   -2.4660    0.8770   -0.5740 C   0  0  2  0  0  0  0  0  0  0  0  0
   -2.8090    0.4260   -1.9260 C   0  0  0  0  0  0  0  0  0  0  0  0
   -2.2760   -0.5470   -2.5200 O   0  0  0  0  0  0  0  0  0  0  0  0
   -3.7990    1.1010   -2.6500 O   0  0  0  0  0  0  0  0  0  0  0  0
    3.3250   -0.2010   -0.7970 C   0  0  0  0  0  0  0  0  0  0  0  0
    3.8060    0.6040   -1.6890 N   0  0  0  0  0  0  0  0  0  0  0  0
    4.0050   -0.4030    0.4200 N   0  0  0  0  0  0  0  0  0  0  0  0
    5.3860    0.6670    0.9280 P   0  0  0  0  0  0  0  0  0  0  0  0
    4.7760    2.2990    0.8290 O   0  0  0  0  0  0  0  0  0  0  0  0
    5.7030    0.3520    2.6050 O   0  0  0  0  0  0  0  0  0  0  0  0
  1  2  1  0
  2  3  1  0
  2 17  1  0
  3  4  1  0
  4  5  2  0
  4  6  1  0
  6  7  1  0
  6 13  1  0
  7  8  1  1
  7 12  1  0
  8  9  1  0
 10  9  1  1
 10 11  1  0
 10 13  1  0
 11 12  1  0
 13 14  1  6
 14 15  2  0
 14 16  1  0
 17 18  2  0
 17 19  1  0
 19 20  1  0
 20 21  1  0
 20 22  1  0
M  END
