
     RDKit          3D

 22 24  0  0  0  0  0  0  0  0999 V2000
   -0.9370   -3.6320    0.6290 C   0  0  0  0  0  0  0  0  0  0  0  0
   -1.3880   -2.1970    0.3100 C   0  0  1  0  0  0  0  0  0  0  0  0
   -0.3890   -1.4690   -0.2630 O   0  0  0  0  0  0  0  0  0  0  0  0
    0.6280   -1.0420    0.5860 C   0  0  0  0  0  0  0  0  0  0  0  0
    1.6590   -0.4370   -0.2690 C   0  0  2  0  0  0  0  0  0  0  0  0
    2.9200   -1.1230   -0.2470 O   0  0  0  0  0  0  0  0  0  0  0  0
    3.7740   -0.2570   -0.9400 C   0  0  0  0  0  0  0  0  0  0  0  0
    4.8740   -0.1790   -1.6920 O   0  0  0  0  0  0  0  0  0  0  0  0
    5.1160    1.0380   -2.0200 N   0  0  0  0  0  0  0  0  0  0  0  0
    4.1800    1.8880   -1.5040 C   0  0  0  0  0  0  0  0  0  0  0  0
    3.3230    1.0390   -0.8110 C   0  0  0  0  0  0  0  0  0  0  0  0
    2.0930    0.9390    0.0320 C   0  0  0  0  0  0  0  0  0  0  0  0
    1.6160    1.8060    0.7630 N   0  0  0  0  0  0  0  0  0  0  0  0
    0.6310    2.1110    1.6110 N   0  0  0  0  0  0  0  0  0  0  0  0
   -0.5170    2.8680    1.2240 C   0  0  0  0  0  0  0  0  0  0  0  0
   -0.7890    3.9750    1.8550 O   0  0  0  0  0  0  0  0  0  0  0  0
   -1.4170    2.5090    0.1790 N   0  0  0  0  0  0  0  0  0  0  0  0
   -2.1460    1.2650    0.0870 C   0  0  0  0  0  0  0  0  0  0  0  0
   -2.0450    0.5650   -1.2250 C   0  0  0  0  0  0  0  0  0  0  0  0
   -3.1740   -0.9210   -1.1140 P   0  0  0  0  0  0  0  0  0  0  0  0
   -4.4160   -0.6310    0.0860 O   0  0  0  0  0  0  0  0  0  0  0  0
   -2.3680   -2.3640   -0.6970 O   0  0  0  0  0  0  0  0  0  0  0  0
  2  1  1  6
  2  3  1  0
  2 22  1  0
  3  4  1  0
  5  4  1  1
  5  6  1  0
  5 12  1  0
  6  7  1  0
  7  8  1  0
  7 11  2  0
  8  9  1  0
  9 10  2  0
 10 11  1  0
 11 12  1  0
 12 13  2  0
 13 14  1  0
 14 15  1  0
 15 16  2  0
 15 17  1  0
 17 18  1  0
 18 19  1  0
 19 20  1  0
 20 21  1  0
 20 22  1  0
M  END
