
     RDKit          3D

 18 18  0  0  0  0  0  0  0  0999 V2000
   -1.2950    1.9400    1.6610 O   0  0  0  0  0  0  0  0  0  0  0  0
   -2.2020    1.9570    0.6100 C   0  0  0  0  0  0  0  0  0  0  0  0
   -2.2210    0.6160   -0.0890 C   0  0  1  0  0  0  0  0  0  0  0  0
   -3.1280    0.6160   -1.1480 O   0  0  0  0  0  0  0  0  0  0  0  0
   -0.9810    0.3270   -0.5920 O   0  0  0  0  0  0  0  0  0  0  0  0
   -0.4600   -0.7580    0.0620 C   0  0  2  0  0  0  0  0  0  0  0  0
    0.5740   -1.5010   -0.7450 C   0  0  2  0  0  0  0  0  0  0  0  0
    1.0320   -2.5790    0.0200 O   0  0  0  0  0  0  0  0  0  0  0  0
    1.7200   -0.5660   -1.0110 C   0  0  0  0  0  0  0  0  0  0  0  0
    2.2360   -0.0950    0.2020 O   0  0  0  0  0  0  0  0  0  0  0  0
    3.4200    0.8840    0.1270 P   0  0  0  0  0  0  0  0  0  0  0  0
    4.2760   -0.1830   -0.7670 O   0  0  0  0  0  0  0  0  0  0  0  0
    2.3760    1.9150   -0.6770 O   0  0  0  0  0  0  0  0  0  0  0  0
    4.4730    1.9980    0.0850 O   0  0  0  0  0  0  0  0  0  0  0  0
   -1.6780   -1.6050    0.3640 C   0  0  1  0  0  0  0  0  0  0  0  0
   -1.4450   -2.5420    1.3500 O   0  0  0  0  0  0  0  0  0  0  0  0
   -2.6260   -0.4960    0.8430 C   0  0  2  0  0  0  0  0  0  0  0  0
   -3.9440   -0.8590    0.7410 O   0  0  0  0  0  0  0  0  0  0  0  0
  1  2  1  0
  2  3  1  0
  3  4  1  6
  3  5  1  0
  3 17  1  0
  6  5  1  6
  6  7  1  0
  6 15  1  0
  7  8  1  1
  7  9  1  0
  9 10  1  0
 10 11  1  0
 11 12  1  0
 11 13  1  0
 11 14  1  0
 15 16  1  1
 15 17  1  0
 17 18  1  6
M  END
