
     RDKit          3D

 22 24  0  0  0  0  0  0  0  0999 V2000
   -5.8290    1.5770    1.4850 O   0  0  0  0  0  0  0  0  0  0  0  0
   -6.1430    0.8080    0.3050 C   0  0  0  0  0  0  0  0  0  0  0  0
   -4.9600   -0.1450    0.0860 C   0  0  0  0  0  0  0  0  0  0  0  0
   -5.0210   -1.4620   -0.0190 N   0  0  0  0  0  0  0  0  0  0  0  0
   -3.7500   -1.9360   -0.2050 C   0  0  0  0  0  0  0  0  0  0  0  0
   -3.2180   -3.1480   -0.3650 N   0  0  0  0  0  0  0  0  0  0  0  0
   -1.8790   -3.2790   -0.5160 C   0  0  0  0  0  0  0  0  0  0  0  0
   -1.0400   -2.1640   -0.5070 C   0  0  0  0  0  0  0  0  0  0  0  0
   -1.5340   -0.9010   -0.3560 C   0  0  0  0  0  0  0  0  0  0  0  0
   -0.8290    0.2810   -0.3910 N   0  0  0  0  0  0  0  0  0  0  0  0
    0.3270    0.6250   -0.1400 C   0  0  0  0  0  0  0  0  0  0  0  0
    0.7880    2.0690   -0.2720 C   0  0  0  0  0  0  0  0  0  0  0  0
    2.0010    1.7750   -1.0020 O   0  0  0  0  0  0  0  0  0  0  0  0
    2.5880    0.7980   -0.2360 C   0  0  1  0  0  0  0  0  0  0  0  0
    3.6440    1.2930    0.6830 C   0  0  0  0  0  0  0  0  0  0  0  0
    4.2910    0.0610    1.0240 O   0  0  0  0  0  0  0  0  0  0  0  0
    5.9920    0.3060    0.6130 P   0  0  0  0  0  0  0  0  0  0  0  0
    6.2290    1.6300   -0.4320 O   0  0  0  0  0  0  0  0  0  0  0  0
    6.7350   -1.1700    0.1180 O   0  0  0  0  0  0  0  0  0  0  0  0
    1.5380   -0.0440    0.2550 N   0  0  0  0  0  0  0  0  0  0  0  0
   -2.9430   -0.8280   -0.1980 C   0  0  0  0  0  0  0  0  0  0  0  0
   -3.7060    0.2510   -0.0160 O   0  0  0  0  0  0  0  0  0  0  0  0
  1  2  1  0
  2  3  1  0
  3  4  2  0
  3 22  1  0
  4  5  1  0
  5  6  2  0
  5 21  1  0
  6  7  1  0
  7  8  2  0
  8  9  1  0
  9 10  1  0
  9 21  2  0
 10 11  2  3
 11 12  1  0
 11 20  1  0
 12 13  1  0
 13 14  1  0
 14 15  1  1
 14 20  1  0
 15 16  1  0
 16 17  1  0
 17 18  1  0
 17 19  1  0
 21 22  1  0
M  END
