
     RDKit          3D

 19 20  0  0  0  0  0  0  0  0999 V2000
   -0.8890   -1.3130   -1.9830 C   0  0  0  0  0  0  0  0  0  0  0  0
   -1.5070   -1.1950   -0.6400 C   0  0  1  0  0  0  0  0  0  0  0  0
   -2.3040   -2.4360   -0.2860 C   0  0  0  0  0  0  0  0  0  0  0  0
   -0.5510   -0.8360    0.4640 C   0  0  2  0  0  0  0  0  0  0  0  0
   -1.3740   -0.7640    1.7500 C   0  0  0  0  0  0  0  0  0  0  0  0
    0.2270    0.3750    0.2260 C   0  0  0  0  0  0  0  0  0  0  0  0
    1.5650    0.3690    0.1310 C   0  0  0  0  0  0  0  0  0  0  0  0
    2.6160    1.3360   -0.0890 C   0  0  0  0  0  0  0  0  0  0  0  0
    3.6050    0.4750   -0.0300 C   0  0  0  0  0  0  0  0  0  0  0  0
    2.6600   -0.6100    0.2000 C   0  0  2  0  0  0  0  0  0  0  0  0
    2.6750   -1.5430   -0.8450 O   0  0  0  0  0  0  0  0  0  0  0  0
    2.8320   -2.7590   -0.3940 O   0  0  0  0  0  0  0  0  0  0  0  0
   -0.4290    1.6400    0.0830 N   0  0  0  0  0  0  0  0  0  0  0  0
   -0.2920    2.6780    0.8320 C   0  0  0  0  0  0  0  0  0  0  0  0
    0.7450    2.8100    2.2360 Cl  0  0  0  0  0  0  0  0  0  0  0  0
   -1.1150    3.7230    0.3540 N   0  0  0  0  0  0  0  0  0  0  0  0
   -1.4560    4.8850    0.9740 O   0  0  0  0  0  0  0  0  0  0  0  0
   -1.5140    3.3260   -0.8920 O   0  0  0  0  0  0  0  0  0  0  0  0
   -1.3390    1.9980   -0.8860 O   0  0  0  0  0  0  0  0  0  0  0  0
  2  1  1  6
  2  3  1  0
  2  4  1  0
  4  5  1  1
  4  6  1  0
  6  7  2  3
  6 13  1  0
  7  8  1  0
  7 10  1  0
  8  9  2  0
  9 10  1  0
 10 11  1  6
 11 12  1  0
 13 14  2  0
 13 19  1  0
 14 15  1  0
 14 16  1  0
 16 17  1  0
 16 18  1  0
 18 19  1  0
M  CHG  1  13   1
M  END
