
     RDKit          3D

 21 22  0  0  0  0  0  0  0  0999 V2000
    4.4620   -0.0900   -1.0240 C   0  0  0  0  0  0  0  0  0  0  0  0
    3.3590   -0.8740   -1.3710 O   0  0  0  0  0  0  0  0  0  0  0  0
    2.2310   -0.3290   -0.9660 O   0  0  0  0  0  0  0  0  0  0  0  0
    1.8250   -1.0140    0.1870 C   0  0  2  0  0  0  0  0  0  0  0  0
    3.1720   -0.7770    1.3660 Cl  0  0  0  0  0  0  0  0  0  0  0  0
    1.8570   -2.7450   -0.2000 Cl  0  0  0  0  0  0  0  0  0  0  0  0
    0.5220   -0.5220    0.7210 C   0  0  2  0  0  0  0  0  0  0  0  0
    0.1460   -1.2470    1.8920 N   0  0  0  0  0  0  0  0  0  0  0  0
   -0.6310   -1.2010    0.9360 N   0  0  0  0  0  0  0  0  0  0  0  0
   -1.6630   -1.2740   -0.0440 C   0  0  2  0  0  0  0  0  0  0  0  0
   -2.9820   -1.7490    0.5260 C   0  0  0  0  0  0  0  0  0  0  0  0
   -1.2420   -2.2290   -1.0970 C   0  0  0  0  0  0  0  0  0  0  0  0
   -1.8420    0.0720   -0.7130 C   0  0  0  0  0  0  0  0  0  0  0  0
   -2.6530    0.2320   -1.6410 O   0  0  0  0  0  0  0  0  0  0  0  0
   -1.0110    1.1560   -0.2050 C   0  0  0  0  0  0  0  0  0  0  0  0
   -1.4280    2.4520   -0.4550 O   0  0  0  0  0  0  0  0  0  0  0  0
   -2.5800    3.0270    0.0910 C   0  0  0  0  0  0  0  0  0  0  0  0
    0.1210    0.8960    0.4820 C   0  0  0  0  0  0  0  0  0  0  0  0
    0.8890    2.0060    0.9560 C   0  0  0  0  0  0  0  0  0  0  0  0
    0.5540    3.2010    0.7570 O   0  0  0  0  0  0  0  0  0  0  0  0
    2.0560    1.7930    1.6670 O   0  0  0  0  0  0  0  0  0  0  0  0
  1  2  1  0
  2  3  1  0
  3  4  1  0
  4  5  1  1
  4  6  1  0
  4  7  1  0
  7  8  1  1
  7  9  1  0
  7 18  1  0
  8  9  2  0
  9 10  1  0
 10 11  1  1
 10 12  1  0
 10 13  1  0
 13 14  2  0
 13 15  1  0
 15 16  1  0
 15 18  2  0
 16 17  1  0
 18 19  1  0
 19 20  2  0
 19 21  1  0
M  CHG  1   9   1
M  END
