
     RDKit          3D

 20 20  0  0  0  0  0  0  0  0999 V2000
    3.2700    0.5460    2.2820 C   0  0  0  0  0  0  0  0  0  0  0  0
    3.3620    0.0950    0.8630 C   0  0  1  0  0  0  0  0  0  0  0  0
    2.8090    1.2050   -0.0220 C   0  0  0  0  0  0  0  0  0  0  0  0
    4.7040   -0.0490    0.5170 O   0  0  0  0  0  0  0  0  0  0  0  0
    2.6090   -1.1880    0.5990 C   0  0  0  0  0  0  0  0  0  0  0  0
    1.2420   -1.1170    0.9260 N   0  0  0  0  0  0  0  0  0  0  0  0
    0.3410   -1.0020    0.0310 C   0  0  0  0  0  0  0  0  0  0  0  0
    0.8660   -0.9330   -1.6390 Cl  0  0  0  0  0  0  0  0  0  0  0  0
   -1.1160   -0.9270    0.3680 C   0  0  1  0  0  0  0  0  0  0  0  0
   -1.3390   -1.0050    1.8600 C   0  0  0  0  0  0  0  0  0  0  0  0
   -1.7190    0.3340   -0.1490 C   0  0  0  0  0  0  0  0  0  0  0  0
   -1.2150    1.5320    0.3350 O   0  0  0  0  0  0  0  0  0  0  0  0
   -2.6930    0.3720   -1.0280 C   0  0  0  0  0  0  0  0  0  0  0  0
   -3.3030    1.6120   -1.5510 C   0  0  0  0  0  0  0  0  0  0  0  0
   -3.1560    1.6960   -2.9230 O   0  0  0  0  0  0  0  0  0  0  0  0
   -3.7110    2.8120   -3.3480 O   0  0  0  0  0  0  0  0  0  0  0  0
   -3.1960   -0.8450   -1.5110 O   0  0  0  0  0  0  0  0  0  0  0  0
   -2.3640   -2.0060   -1.5120 C   0  0  0  0  0  0  0  0  0  0  0  0
   -1.7510   -2.0740   -0.2180 N   0  0  0  0  0  0  0  0  0  0  0  0
   -1.7670   -3.1060    0.3890 O   0  0  0  0  0  0  0  0  0  0  0  0
  2  1  1  1
  2  3  1  0
  2  4  1  0
  2  5  1  0
  5  6  1  0
  6  7  2  3
  7  8  1  0
  7  9  1  0
  9 10  1  1
  9 11  1  0
  9 19  1  0
 11 12  1  0
 11 13  2  0
 13 14  1  0
 13 17  1  0
 14 15  1  0
 15 16  1  0
 17 18  1  0
 18 19  1  0
 19 20  2  0
M  CHG  1  19   1
M  END
