
     RDKit          3D

 21 21  0  0  0  0  0  0  0  0999 V2000
    3.4610   -1.5710   -0.5920 C   0  0  0  0  0  0  0  0  0  0  0  0
    2.1500   -1.7320   -0.6700 C   0  0  0  0  0  0  0  0  0  0  0  0
    1.6530   -2.8150   -1.3560 O   0  0  0  0  0  0  0  0  0  0  0  0
    1.2420   -0.7850   -0.0420 C   0  0  0  0  0  0  0  0  0  0  0  0
   -0.0710   -0.8360   -0.0540 C   0  0  0  0  0  0  0  0  0  0  0  0
   -0.9400   -1.8260   -0.6790 C   0  0  0  0  0  0  0  0  0  0  0  0
   -0.7730   -2.4930   -1.7100 O   0  0  0  0  0  0  0  0  0  0  0  0
   -2.0920   -1.8760    0.1840 N   0  0  0  0  0  0  0  0  0  0  0  0
   -3.3810   -3.0360    0.1420 Cl  0  0  0  0  0  0  0  0  0  0  0  0
   -1.9970   -0.8650    1.0430 O   0  0  0  0  0  0  0  0  0  0  0  0
   -1.0880    0.0720    0.5780 C   0  0  1  0  0  0  0  0  0  0  0  0
   -0.5310    0.7680    1.6510 O   0  0  0  0  0  0  0  0  0  0  0  0
   -1.4890    1.5310    2.1360 O   0  0  0  0  0  0  0  0  0  0  0  0
   -2.5250    0.8280    2.5350 O   0  0  0  0  0  0  0  0  0  0  0  0
   -1.7820    0.9870   -0.3520 C   0  0  2  0  0  0  0  0  0  0  0  0
   -2.5660    0.3290   -1.4640 C   0  0  0  0  0  0  0  0  0  0  0  0
   -0.9460    2.1290   -0.8850 C   0  0  0  0  0  0  0  0  0  0  0  0
    1.9070    0.2780    0.6670 N   0  0  0  0  0  0  0  0  0  0  0  0
    2.2720    1.4640   -0.0440 C   0  0  0  0  0  0  0  0  0  0  0  0
    2.1870    0.1700    1.9080 C   0  0  0  0  0  0  0  0  0  0  0  0
    1.8080   -1.2430    2.8730 Cl  0  0  0  0  0  0  0  0  0  0  0  0
  1  2  2  0
  2  3  1  0
  2  4  1  0
  4  5  2  3
  4 18  1  0
  5  6  1  0
  5 11  1  0
  6  7  2  0
  6  8  1  0
  8  9  1  0
  8 10  1  0
 10 11  1  0
 11 12  1  1
 11 15  1  0
 12 13  1  0
 13 14  1  0
 15 16  1  6
 15 17  1  0
 18 19  1  0
 18 20  2  3
 20 21  1  0
M  CHG  1  18   1
M  END
