
     RDKit          3D

 21 21  0  0  0  0  0  0  0  0999 V2000
    4.5210   -2.5880    0.2290 C   0  0  0  0  0  0  0  0  0  0  0  0
    3.8140   -1.8050    1.2180 N   0  0  0  0  0  0  0  0  0  0  0  0
    4.2340   -2.0270    2.8890 Cl  0  0  0  0  0  0  0  0  0  0  0  0
    2.8090   -0.8870    0.8200 C   0  0  0  0  0  0  0  0  0  0  0  0
    2.4830   -0.7030   -0.3740 O   0  0  0  0  0  0  0  0  0  0  0  0
    2.1340   -0.1350    1.7980 O   0  0  0  0  0  0  0  0  0  0  0  0
    1.1870    0.7710    1.3430 C   0  0  0  0  0  0  0  0  0  0  0  0
    0.1170    0.3100    0.8840 N   0  0  0  0  0  0  0  0  0  0  0  0
   -0.7880    1.2790    0.4270 O   0  0  0  0  0  0  0  0  0  0  0  0
   -0.4040    2.2630   -0.4510 C   0  0  0  0  0  0  0  0  0  0  0  0
    0.7930    2.2780   -0.8420 O   0  0  0  0  0  0  0  0  0  0  0  0
   -1.2420    3.2450   -0.9370 O   0  0  0  0  0  0  0  0  0  0  0  0
   -0.7290    4.2240   -1.8520 C   0  0  0  0  0  0  0  0  0  0  0  0
    0.3060    4.9550   -1.2980 O   0  0  0  0  0  0  0  0  0  0  0  0
   -0.3120   -1.0220    0.8040 C   0  0  1  0  0  0  0  0  0  0  0  0
    0.5550   -2.1750    1.8800 Cl  0  0  0  0  0  0  0  0  0  0  0  0
   -1.7800   -1.2680    1.1330 C   0  0  0  0  0  0  0  0  0  0  0  0
   -2.7400   -0.5920    0.2760 C   0  0  0  0  0  0  0  0  0  0  0  0
   -3.5660   -1.3340   -0.4410 C   0  0  0  0  0  0  0  0  0  0  0  0
   -4.6560   -1.4060   -1.4000 C   0  0  0  0  0  0  0  0  0  0  0  0
   -4.1600   -2.5560   -0.9460 C   0  0  0  0  0  0  0  0  0  0  0  0
  1  2  1  0
  2  3  1  0
  2  4  1  0
  4  5  2  0
  4  6  1  0
  6  7  1  0
  7  8  2  3
  8  9  1  0
  8 15  1  0
  9 10  1  0
 10 11  2  0
 10 12  1  0
 12 13  1  0
 13 14  1  0
 15 16  1  1
 15 17  1  0
 17 18  1  0
 18 19  2  3
 19 20  1  0
 19 21  1  0
 20 21  2  0
M  CHG  1   8   1
M  END
