
     RDKit          3D

 22 23  0  0  0  0  0  0  0  0999 V2000
    2.2220    3.8750    0.3880 C   0  0  0  0  0  0  0  0  0  0  0  0
    1.8810    2.4580    0.4180 N   0  0  0  0  0  0  0  0  0  0  0  0
    1.9270    1.7460   -0.8030 C   0  0  0  0  0  0  0  0  0  0  0  0
    2.2350    2.2180   -1.9150 O   0  0  0  0  0  0  0  0  0  0  0  0
    1.5570    0.2650   -0.7010 C   0  0  1  0  0  0  0  0  0  0  0  0
    2.5460   -0.3070    0.2660 C   0  0  0  0  0  0  0  0  0  0  0  0
    2.4680   -1.6740    0.5110 O   0  0  0  0  0  0  0  0  0  0  0  0
    2.6730   -2.5880   -0.5070 C   0  0  0  0  0  0  0  0  0  0  0  0
    2.9310   -2.1470   -1.6540 O   0  0  0  0  0  0  0  0  0  0  0  0
    2.6030   -3.9640   -0.3090 O   0  0  0  0  0  0  0  0  0  0  0  0
    0.1430    0.2970   -0.2550 C   0  0  0  0  0  0  0  0  0  0  0  0
   -0.5970   -0.9530   -0.0350 C   0  0  1  0  0  0  0  0  0  0  0  0
   -0.0090   -1.7290    0.9770 O   0  0  0  0  0  0  0  0  0  0  0  0
   -0.3900   -1.1450    2.1780 C   0  0  0  0  0  0  0  0  0  0  0  0
   -1.5100   -0.4500    2.0010 C   0  0  0  0  0  0  0  0  0  0  0  0
   -1.8630   -0.5930    0.6270 N   0  0  0  0  0  0  0  0  0  0  0  0
   -3.1360   -0.4270    0.0430 C   0  0  0  0  0  0  0  0  0  0  0  0
   -3.7450    0.6780   -0.2320 N   0  0  0  0  0  0  0  0  0  0  0  0
   -5.0020    0.4620   -0.8110 C   0  0  0  0  0  0  0  0  0  0  0  0
   -5.8680    1.3080   -1.2050 O   0  0  0  0  0  0  0  0  0  0  0  0
   -5.1980   -0.8900   -0.9050 O   0  0  0  0  0  0  0  0  0  0  0  0
   -4.0670   -1.5180   -0.3890 C   0  0  0  0  0  0  0  0  0  0  0  0
  1  2  1  0
  2  3  1  0
  3  4  2  0
  3  5  1  0
  5  6  1  1
  5 11  1  0
  6  7  1  0
  7  8  1  0
  8  9  2  0
  8 10  1  0
 12 11  1  1
 12 13  1  0
 12 16  1  0
 13 14  1  0
 14 15  2  0
 15 16  1  0
 16 17  1  0
 17 18  2  0
 17 22  1  0
 18 19  1  0
 19 20  2  0
 19 21  1  0
 21 22  1  0
M  END
