
     RDKit          3D

 22 23  0  0  0  0  0  0  0  0999 V2000
    3.3430   -1.0510   -1.1990 O   0  0  0  0  0  0  0  0  0  0  0  0
    4.0960   -0.1230   -0.8050 C   0  0  0  0  0  0  0  0  0  0  0  0
    4.9700    0.6240   -1.7520 C   0  0  0  0  0  0  0  0  0  0  0  0
    5.6930    1.5870   -1.0700 O   0  0  0  0  0  0  0  0  0  0  0  0
    6.4800    2.2760   -1.8540 O   0  0  0  0  0  0  0  0  0  0  0  0
    4.1120    0.2050    0.5210 O   0  0  0  0  0  0  0  0  0  0  0  0
    3.3340   -0.4260    1.5090 C   0  0  0  0  0  0  0  0  0  0  0  0
    1.9010   -0.3080    1.2500 C   0  0  0  0  0  0  0  0  0  0  0  0
    1.1490   -1.3640    0.7100 C   0  0  0  0  0  0  0  0  0  0  0  0
   -0.1840   -1.1930    0.4870 C   0  0  0  0  0  0  0  0  0  0  0  0
   -0.7350   -0.0420    0.7830 N   0  0  0  0  0  0  0  0  0  0  0  0
   -0.0920    0.9810    1.2870 C   0  0  0  0  0  0  0  0  0  0  0  0
    1.2200    0.8230    1.5100 N   0  0  0  0  0  0  0  0  0  0  0  0
   -0.8320    2.1470    1.5490 O   0  0  0  0  0  0  0  0  0  0  0  0
   -2.2440    2.1570    1.5880 C   0  0  0  0  0  0  0  0  0  0  0  0
   -2.9360    1.6110    0.3690 C   0  0  0  0  0  0  0  0  0  0  0  0
   -3.6990    0.4950    0.5760 O   0  0  0  0  0  0  0  0  0  0  0  0
   -4.3140   -0.1170   -0.4410 C   0  0  0  0  0  0  0  0  0  0  0  0
   -4.5570   -1.5770   -0.4440 C   0  0  0  0  0  0  0  0  0  0  0  0
   -3.4360   -2.4090   -0.6690 O   0  0  0  0  0  0  0  0  0  0  0  0
   -2.3930   -1.7490   -0.2420 C   0  0  0  0  0  0  0  0  0  0  0  0
   -1.0560   -2.2440   -0.0790 N   0  0  0  0  0  0  0  0  0  0  0  0
  1  2  2  0
  2  3  1  0
  2  6  1  0
  3  4  1  0
  4  5  1  0
  6  7  1  0
  7  8  1  0
  8  9  2  0
  8 13  1  0
  9 10  1  0
 10 11  2  0
 10 22  1  0
 11 12  1  0
 12 13  2  0
 12 14  1  0
 14 15  1  0
 15 16  1  0
 16 17  1  0
 17 18  1  0
 18 19  1  0
 19 20  1  0
 20 21  1  0
 21 22  1  0
M  END
