
     RDKit          3D

 22 23  0  0  0  0  0  0  0  0999 V2000
    4.9310    3.3040   -1.2650 O   0  0  0  0  0  0  0  0  0  0  0  0
    5.1880    3.5850   -2.4630 C   0  0  0  0  0  0  0  0  0  0  0  0
    6.2970    4.3900   -2.7910 O   0  0  0  0  0  0  0  0  0  0  0  0
    4.3530    3.0840   -3.4440 O   0  0  0  0  0  0  0  0  0  0  0  0
    3.2470    2.2840   -3.1730 C   0  0  0  0  0  0  0  0  0  0  0  0
    3.5570    0.9880   -2.4860 C   0  0  0  0  0  0  0  0  0  0  0  0
    2.3900    0.1940   -2.2260 N   0  0  0  0  0  0  0  0  0  0  0  0
    1.6120    0.3710   -1.2130 C   0  0  0  0  0  0  0  0  0  0  0  0
    1.7870    1.3590   -0.2180 N   0  0  0  0  0  0  0  0  0  0  0  0
    0.7570    1.2440    0.7390 C   0  0  0  0  0  0  0  0  0  0  0  0
   -0.0610    0.2470    0.4120 C   0  0  0  0  0  0  0  0  0  0  0  0
   -1.1900   -0.1250    1.1750 O   0  0  0  0  0  0  0  0  0  0  0  0
   -1.9230   -1.2150    0.7960 C   0  0  0  0  0  0  0  0  0  0  0  0
   -1.6210   -1.9120   -0.2170 O   0  0  0  0  0  0  0  0  0  0  0  0
   -3.0560   -1.5600    1.5770 N   0  0  0  0  0  0  0  0  0  0  0  0
   -3.8460   -2.7020    1.2030 C   0  0  0  0  0  0  0  0  0  0  0  0
   -4.0920   -3.5020    2.4840 C   0  0  0  0  0  0  0  0  0  0  0  0
   -4.8090   -2.6410    3.3300 O   0  0  0  0  0  0  0  0  0  0  0  0
   -3.9870   -1.6490    3.8260 C   0  0  0  0  0  0  0  0  0  0  0  0
   -3.4090   -0.7820    2.7250 C   0  0  0  0  0  0  0  0  0  0  0  0
    0.3920   -0.3740   -0.8390 C   0  0  1  0  0  0  0  0  0  0  0  0
   -0.5750   -0.2710   -1.8560 O   0  0  0  0  0  0  0  0  0  0  0  0
  1  2  2  0
  2  3  1  0
  2  4  1  0
  4  5  1  0
  5  6  1  0
  6  7  1  0
  7  8  2  3
  8  9  1  0
  8 21  1  0
  9 10  1  0
 10 11  2  0
 11 12  1  0
 11 21  1  0
 12 13  1  0
 13 14  2  0
 13 15  1  0
 15 16  1  0
 15 20  1  0
 16 17  1  0
 17 18  1  0
 18 19  1  0
 19 20  1  0
 21 22  1  6
M  END
