
     RDKit          3D

 22 24  0  0  0  0  0  0  0  0999 V2000
    6.3480    1.8470    0.8120 O   0  0  0  0  0  0  0  0  0  0  0  0
    5.5210    2.7510    0.4320 O   0  0  0  0  0  0  0  0  0  0  0  0
    4.7450    2.3390   -0.6380 C   0  0  0  0  0  0  0  0  0  0  0  0
    3.9860    1.2600   -0.3930 O   0  0  0  0  0  0  0  0  0  0  0  0
    4.0190   -0.0210   -0.0800 C   0  0  0  0  0  0  0  0  0  0  0  0
    5.0750   -0.8670    0.1350 C   0  0  0  0  0  0  0  0  0  0  0  0
    4.6250   -2.0890    0.4270 O   0  0  0  0  0  0  0  0  0  0  0  0
    3.3070   -2.0750    0.4120 C   0  0  0  0  0  0  0  0  0  0  0  0
    2.8700   -0.8110    0.1010 C   0  0  0  0  0  0  0  0  0  0  0  0
    1.5520   -0.3240   -0.0290 N   0  0  0  0  0  0  0  0  0  0  0  0
    0.4210   -1.1720    0.1670 C   0  0  0  0  0  0  0  0  0  0  0  0
   -0.8700   -0.8180    0.0690 N   0  0  0  0  0  0  0  0  0  0  0  0
   -1.6580   -1.8780    0.3190 C   0  0  0  0  0  0  0  0  0  0  0  0
   -2.9390   -1.9960    0.3360 N   0  0  0  0  0  0  0  0  0  0  0  0
   -3.8280   -0.9390    0.0710 C   0  0  0  0  0  0  0  0  0  0  0  0
   -4.9390   -0.8040    0.7840 C   0  0  0  0  0  0  0  0  0  0  0  0
   -5.8820    0.3190    0.5020 C   0  0  0  0  0  0  0  0  0  0  0  0
   -5.2250    1.4860   -0.1490 C   0  0  0  0  0  0  0  0  0  0  0  0
   -3.8900    1.3170   -0.4310 O   0  0  0  0  0  0  0  0  0  0  0  0
   -3.5940    0.0730   -0.9920 C   0  0  0  0  0  0  0  0  0  0  0  0
   -0.8310   -2.8650    0.5660 O   0  0  0  0  0  0  0  0  0  0  0  0
    0.3890   -2.4510    0.4770 O   0  0  0  0  0  0  0  0  0  0  0  0
  1  2  1  0
  2  3  1  0
  3  4  1  0
  4  5  1  0
  5  6  2  0
  5  9  1  0
  6  7  1  0
  7  8  1  0
  8  9  2  0
  9 10  1  0
 10 11  1  0
 11 12  2  0
 11 22  1  0
 12 13  1  0
 13 14  2  3
 13 21  1  0
 14 15  1  0
 15 16  2  0
 15 20  1  0
 16 17  1  0
 17 18  1  0
 18 19  1  0
 19 20  1  0
 21 22  1  0
M  END
