
     RDKit          3D

 34 37  0  0  0  0  0  0  0  0999 V2000
   -6.9300   -3.5820    1.3010 C   0  0  0  0  0  0  0  0  0  0  0  0
   -6.5800   -2.4010    0.5350 N   0  0  0  0  0  0  0  0  0  0  0  0
   -5.3110   -1.8260    0.7040 C   0  0  0  0  0  0  0  0  0  0  0  0
   -4.4610   -2.2820    1.6610 C   0  0  0  0  0  0  0  0  0  0  0  0
   -3.2200   -1.6860    1.7700 C   0  0  0  0  0  0  0  0  0  0  0  0
   -2.7950   -0.6630    0.9730 C   0  0  0  0  0  0  0  0  0  0  0  0
   -1.4980   -0.1190    1.1210 N   0  0  0  0  0  0  0  0  0  0  0  0
   -1.2700    1.2160    1.5970 C   0  0  0  0  0  0  0  0  0  0  0  0
   -0.3650   -0.9130    0.8100 C   0  0  0  0  0  0  0  0  0  0  0  0
   -0.5740   -2.1250    0.4620 O   0  0  0  0  0  0  0  0  0  0  0  0
    1.0280   -0.4260    0.8600 C   0  0  0  0  0  0  0  0  0  0  0  0
    2.0340   -1.5300    0.7390 C   0  0  0  0  0  0  0  0  0  0  0  0
    3.3540   -0.9400    0.7550 N   0  0  0  0  0  0  0  0  0  0  0  0
    4.1350   -0.6740    1.7970 C   0  0  0  0  0  0  0  0  0  0  0  0
    5.3340   -0.1090    1.3670 C   0  0  0  0  0  0  0  0  0  0  0  0
    5.2250   -0.0540    0.0040 C   0  0  0  0  0  0  0  0  0  0  0  0
    4.0230   -0.5620   -0.3190 N   0  0  0  0  0  0  0  0  0  0  0  0
    6.3400    0.4730   -0.7810 C   0  0  0  0  0  0  0  0  0  0  0  0
    6.1970    0.5590   -2.1180 N   0  0  0  0  0  0  0  0  0  0  0  0
    7.2040    1.0830   -2.8750 C   0  0  0  0  0  0  0  0  0  0  0  0
    8.3580    1.5210   -2.2900 C   0  0  0  0  0  0  0  0  0  0  0  0
    8.5050    1.4340   -0.9300 C   0  0  0  0  0  0  0  0  0  0  0  0
    7.4780    0.9010   -0.1750 C   0  0  0  0  0  0  0  0  0  0  0  0
    7.6280    0.7730    1.2310 N   0  0  0  0  0  0  0  0  0  0  0  0
    6.5230    0.3980    2.0570 C   0  0  0  0  0  0  0  0  0  0  0  0
   -3.6820   -0.1870   -0.0230 C   0  0  0  0  0  0  0  0  0  0  0  0
   -3.1980    0.9150   -0.8180 C   0  0  0  0  0  0  0  0  0  0  0  0
   -3.9060    1.5100   -1.8650 N   0  0  0  0  0  0  0  0  0  0  0  0
   -3.2510    2.6980   -2.4940 C   0  0  0  0  0  0  0  0  0  0  0  0
   -5.1320    1.1650   -2.4230 C   0  0  0  0  0  0  0  0  0  0  0  0
   -6.1900    1.9660   -2.1740 C   0  0  0  0  0  0  0  0  0  0  0  0
   -6.0270    3.0720   -1.3940 F   0  0  0  0  0  0  0  0  0  0  0  0
   -7.3850    1.6480   -2.7060 F   0  0  0  0  0  0  0  0  0  0  0  0
   -4.9070   -0.7640   -0.1430 C   0  0  0  0  0  0  0  0  0  0  0  0
  1  2  1  0
  2  3  1  0
  3  4  2  0
  3 34  1  0
  4  5  1  0
  5  6  2  0
  6  7  1  0
  6 26  1  0
  7  8  1  0
  7  9  1  0
  9 10  2  0
  9 11  1  0
 11 12  1  0
 12 13  1  0
 13 14  1  0
 13 17  1  0
 14 15  2  0
 15 16  1  0
 15 25  1  0
 16 17  2  0
 16 18  1  0
 18 19  2  0
 18 23  1  0
 19 20  1  0
 20 21  2  0
 21 22  1  0
 22 23  2  0
 23 24  1  0
 24 25  1  0
 26 27  1  0
 26 34  2  0
 27 28  1  0
 28 29  1  0
 28 30  1  0
 30 31  2  3
 31 32  1  0
 31 33  1  0
M  END
