
     RDKit          3D

 35 38  0  0  0  0  0  0  0  0999 V2000
   -5.0120   -0.8450    2.8690 C   0  0  0  0  0  0  0  0  0  0  0  0
   -5.1190    0.3510    1.9200 C   0  0  0  0  0  0  0  0  0  0  0  0
   -5.3580   -0.0920    0.5720 N   0  0  0  0  0  0  0  0  0  0  0  0
   -4.4680   -0.4100   -0.3680 C   0  0  0  0  0  0  0  0  0  0  0  0
   -2.9770   -0.4170   -0.3170 C   0  0  1  0  0  0  0  0  0  0  0  0
   -2.4220   -0.7040   -1.7090 C   0  0  0  0  0  0  0  0  0  0  0  0
   -0.9830   -0.7110   -1.6870 N   0  0  0  0  0  0  0  0  0  0  0  0
   -0.2120   -1.5990   -0.9010 C   0  0  0  0  0  0  0  0  0  0  0  0
   -0.7200   -2.4480   -0.1670 O   0  0  0  0  0  0  0  0  0  0  0  0
    1.2690   -1.5060   -0.9620 C   0  0  0  0  0  0  0  0  0  0  0  0
    1.7920   -0.6470   -1.7060 O   0  0  0  0  0  0  0  0  0  0  0  0
    2.0950   -2.3590   -0.2060 N   0  0  0  0  0  0  0  0  0  0  0  0
    3.5120   -2.4020   -0.1340 C   0  0  0  0  0  0  0  0  0  0  0  0
    4.2560   -1.2420    0.3980 C   0  0  2  0  0  0  0  0  0  0  0  0
    4.3250   -0.0740   -0.5490 C   0  0  0  0  0  0  0  0  0  0  0  0
    5.6570    0.5690   -0.1770 C   0  0  0  0  0  0  0  0  0  0  0  0
    6.1350    1.8610   -0.3290 C   0  0  0  0  0  0  0  0  0  0  0  0
    7.4090    2.1810    0.1000 C   0  0  0  0  0  0  0  0  0  0  0  0
    7.9200    3.5670   -0.0650 C   0  0  0  0  0  0  0  0  0  0  0  0
    8.1530    1.1690    0.6710 C   0  0  0  0  0  0  0  0  0  0  0  0
    7.6820   -0.1020    0.8210 C   0  0  0  0  0  0  0  0  0  0  0  0
    8.5140   -1.1570    1.4400 C   0  0  0  0  0  0  0  0  0  0  0  0
    6.3960   -0.4320    0.3900 C   0  0  0  0  0  0  0  0  0  0  0  0
    5.6760   -1.6200    0.4180 O   0  0  0  0  0  0  0  0  0  0  0  0
   -2.3590    0.7240    0.2430 N   0  0  0  0  0  0  0  0  0  0  0  0
   -1.9890    1.8610   -0.4780 C   0  0  0  0  0  0  0  0  0  0  0  0
   -1.3230    3.0460    0.1820 C   0  0  0  0  0  0  0  0  0  0  0  0
   -2.1820    1.9700   -1.6910 O   0  0  0  0  0  0  0  0  0  0  0  0
   -5.2230   -0.7710   -1.4940 C   0  0  0  0  0  0  0  0  0  0  0  0
   -6.5580   -0.6620   -1.2070 C   0  0  0  0  0  0  0  0  0  0  0  0
   -7.7210   -0.8930   -1.9500 C   0  0  0  0  0  0  0  0  0  0  0  0
   -8.9610   -0.6930   -1.3810 C   0  0  0  0  0  0  0  0  0  0  0  0
   -9.0260   -0.2630   -0.0710 C   0  0  0  0  0  0  0  0  0  0  0  0
   -7.8710   -0.0430    0.6380 C   0  0  0  0  0  0  0  0  0  0  0  0
   -6.6180   -0.2350    0.0930 C   0  0  0  0  0  0  0  0  0  0  0  0
  1  2  1  0
  2  3  1  0
  3  4  1  0
  3 35  1  0
  4  5  1  0
  4 29  2  0
  5  6  1  6
  5 25  1  0
  6  7  1  0
  7  8  1  0
  8  9  2  0
  8 10  1  0
 10 11  2  0
 10 12  1  0
 12 13  1  0
 14 13  1  6
 14 15  1  0
 14 24  1  0
 15 16  1  0
 16 17  2  0
 16 23  1  0
 17 18  1  0
 18 19  1  0
 18 20  2  0
 20 21  1  0
 21 22  1  0
 21 23  2  0
 23 24  1  0
 25 26  1  0
 26 27  1  0
 26 28  2  0
 29 30  1  0
 30 31  2  0
 30 35  1  0
 31 32  1  0
 32 33  2  0
 33 34  1  0
 34 35  2  0
M  END
