
     RDKit          3D

 35 38  0  0  0  0  0  0  0  0999 V2000
   -2.8200    4.3480   -2.1850 C   0  0  0  0  0  0  0  0  0  0  0  0
   -3.5850    3.9520   -0.9430 C   0  0  2  0  0  0  0  0  0  0  0  0
   -5.0320    3.8070   -1.2670 C   0  0  0  0  0  0  0  0  0  0  0  0
   -3.3040    4.9330    0.0210 O   0  0  0  0  0  0  0  0  0  0  0  0
   -3.0530    2.6440   -0.4150 C   0  0  0  0  0  0  0  0  0  0  0  0
   -1.7270    2.3490   -0.2610 C   0  0  0  0  0  0  0  0  0  0  0  0
   -1.5870    1.0660    0.2550 N   0  0  0  0  0  0  0  0  0  0  0  0
   -0.2980    0.5280    0.4830 C   0  0  0  0  0  0  0  0  0  0  0  0
    0.5130    0.2030   -0.5750 C   0  0  0  0  0  0  0  0  0  0  0  0
    1.8160   -0.2140   -0.4030 C   0  0  0  0  0  0  0  0  0  0  0  0
    2.3490   -0.3220    0.8570 C   0  0  0  0  0  0  0  0  0  0  0  0
    3.7640   -0.6000    1.0750 C   0  0  0  0  0  0  0  0  0  0  0  0
    4.4310   -0.1800    2.2100 C   0  0  0  0  0  0  0  0  0  0  0  0
    5.7880   -0.3260    2.3550 C   0  0  0  0  0  0  0  0  0  0  0  0
    6.5330   -0.9110    1.3370 C   0  0  0  0  0  0  0  0  0  0  0  0
    5.8950   -1.3360    0.1930 C   0  0  0  0  0  0  0  0  0  0  0  0
    6.8810   -1.9760   -1.1230 S   0  0  2  0  0  0  0  0  0  0  0  0
    7.2730   -0.5820   -2.1840 C   0  0  0  0  0  0  0  0  0  0  0  0
    6.0290   -2.9920   -1.8450 O   0  0  0  0  0  0  0  0  0  0  0  0
    8.1090   -2.6170   -0.5880 O   0  0  0  0  0  0  0  0  0  0  0  0
    4.5300   -1.1770    0.0800 C   0  0  0  0  0  0  0  0  0  0  0  0
    1.5510   -0.0090    1.9370 C   0  0  0  0  0  0  0  0  0  0  0  0
    0.2360    0.4140    1.7270 C   0  0  0  0  0  0  0  0  0  0  0  0
   -2.8120    0.5950    0.4090 C   0  0  0  0  0  0  0  0  0  0  0  0
   -3.1980   -0.7350    0.9280 C   0  0  1  0  0  0  0  0  0  0  0  0
   -3.0110   -0.9090    2.4140 C   0  0  0  0  0  0  0  0  0  0  0  0
   -4.7400   -0.8180    0.7690 C   0  0  0  0  0  0  0  0  0  0  0  0
   -2.6430   -1.8780    0.1640 C   0  0  0  0  0  0  0  0  0  0  0  0
   -1.8660   -2.7970    0.8410 C   0  0  0  0  0  0  0  0  0  0  0  0
   -1.3330   -3.9290    0.2060 C   0  0  0  0  0  0  0  0  0  0  0  0
   -1.5720   -4.1550   -1.1200 C   0  0  0  0  0  0  0  0  0  0  0  0
   -2.3440   -3.2460   -1.8110 C   0  0  0  0  0  0  0  0  0  0  0  0
   -2.8700   -2.1190   -1.1630 C   0  0  0  0  0  0  0  0  0  0  0  0
   -3.8360   -0.9850   -2.0750 Cl  0  0  0  0  0  0  0  0  0  0  0  0
   -3.7190    1.5650   -0.0040 N   0  0  0  0  0  0  0  0  0  0  0  0
  2  1  1  6
  2  3  1  0
  2  4  1  0
  2  5  1  0
  5  6  2  0
  5 35  1  0
  6  7  1  0
  7  8  1  0
  7 24  1  0
  8  9  2  0
  8 23  1  0
  9 10  1  0
 10 11  2  0
 11 12  1  0
 11 22  1  0
 12 13  2  0
 12 21  1  0
 13 14  1  0
 14 15  2  0
 15 16  1  0
 16 17  1  0
 16 21  2  0
 17 18  1  6
 17 19  2  0
 17 20  2  0
 22 23  2  0
 24 25  1  0
 24 35  2  0
 25 26  1  1
 25 27  1  0
 25 28  1  0
 28 29  2  0
 28 33  1  0
 29 30  1  0
 30 31  2  0
 31 32  1  0
 32 33  2  0
 33 34  1  0
M  END
