
     RDKit          3D

 34 37  0  0  0  0  0  0  0  0999 V2000
    9.2450   -0.1240    1.2580 C   0  0  0  0  0  0  0  0  0  0  0  0
    9.3710    0.2300   -0.1240 O   0  0  0  0  0  0  0  0  0  0  0  0
    8.2430    0.5810   -0.8550 C   0  0  0  0  0  0  0  0  0  0  0  0
    8.4000    0.9170   -2.1780 C   0  0  0  0  0  0  0  0  0  0  0  0
    7.2830    1.2600   -2.8870 C   0  0  0  0  0  0  0  0  0  0  0  0
    6.0290    1.2660   -2.2700 C   0  0  0  0  0  0  0  0  0  0  0  0
    5.8900    0.9310   -0.9610 C   0  0  0  0  0  0  0  0  0  0  0  0
    4.5460    0.8780   -0.3310 C   0  0  0  0  0  0  0  0  0  0  0  0
    4.5440    0.8860    1.1440 C   0  0  0  0  0  0  0  0  0  0  0  0
    3.4950    0.8990   -1.0610 C   0  0  0  0  0  0  0  0  0  0  0  0
    2.0830    0.8620   -0.8250 C   0  0  0  0  0  0  0  0  0  0  0  0
    1.2980    0.9410   -1.8710 O   0  0  0  0  0  0  0  0  0  0  0  0
    1.4610    0.7440    0.4250 N   0  0  0  0  0  0  0  0  0  0  0  0
    0.0350    0.6920    0.6830 C   0  0  0  0  0  0  0  0  0  0  0  0
   -0.5950   -0.5520    0.1000 C   0  0  1  0  0  0  0  0  0  0  0  0
   -0.4540   -0.6000   -1.2530 O   0  0  0  0  0  0  0  0  0  0  0  0
    0.1030   -1.7190    0.7650 C   0  0  0  0  0  0  0  0  0  0  0  0
   -0.7790   -2.9270    0.7450 C   0  0  0  0  0  0  0  0  0  0  0  0
   -1.8780   -2.6140    1.7900 C   0  0  0  0  0  0  0  0  0  0  0  0
   -2.6500   -1.5030    1.1470 C   0  0  0  0  0  0  0  0  0  0  0  0
   -2.0510   -0.5980    0.3960 C   0  0  0  0  0  0  0  0  0  0  0  0
   -2.9500    0.4290   -0.1870 C   0  0  0  0  0  0  0  0  0  0  0  0
   -4.2210    0.5280   -0.0170 N   0  0  0  0  0  0  0  0  0  0  0  0
   -4.7870    1.6140   -0.7070 C   0  0  0  0  0  0  0  0  0  0  0  0
   -6.0640    1.7770   -0.9450 C   0  0  0  0  0  0  0  0  0  0  0  0
   -7.0560    0.7970   -0.4930 C   0  0  0  0  0  0  0  0  0  0  0  0
   -8.3130    0.8430   -0.6630 N   0  0  0  0  0  0  0  0  0  0  0  0
   -8.9860   -0.2860   -0.0890 C   0  0  0  0  0  0  0  0  0  0  0  0
   -7.9250   -0.7810    0.8940 C   0  0  1  0  0  0  0  0  0  0  0  0
   -7.9070   -2.3130    0.9040 C   0  0  0  0  0  0  0  0  0  0  0  0
   -6.7530   -0.3760    0.2180 O   0  0  0  0  0  0  0  0  0  0  0  0
   -3.6500    2.4880   -1.0820 C   0  0  0  0  0  0  0  0  0  0  0  0
   -2.5780    1.4770   -1.0740 N   0  0  0  0  0  0  0  0  0  0  0  0
    6.9990    0.5810   -0.2270 C   0  0  0  0  0  0  0  0  0  0  0  0
  1  2  1  0
  2  3  1  0
  3  4  2  0
  3 34  1  0
  4  5  1  0
  5  6  2  0
  6  7  1  0
  7  8  1  0
  7 34  2  0
  8  9  1  0
  8 10  2  3
 10 11  1  0
 11 12  2  0
 11 13  1  0
 13 14  1  0
 14 15  1  0
 15 16  1  6
 15 17  1  0
 15 21  1  0
 17 18  1  0
 18 19  1  0
 19 20  1  0
 20 21  2  0
 21 22  1  0
 22 23  2  0
 22 33  1  0
 23 24  1  0
 24 25  2  3
 24 32  1  0
 25 26  1  0
 26 27  2  0
 26 31  1  0
 27 28  1  0
 28 29  1  0
 29 30  1  6
 29 31  1  0
 32 33  1  0
M  END
