
     RDKit          3D

 13 14  0  0  0  0  0  0  0  0999 V2000
   -2.0930   -1.4540    0.4750 C   0  0  0  0  0  0  0  0  0  0  0  0
   -1.3130   -0.2110    0.1810 C   0  0  0  0  0  0  0  0  0  0  0  0
   -1.8740    0.9330    0.5170 C   0  0  0  0  0  0  0  0  0  0  0  0
   -0.9420    2.4700    0.1690 P   0  0  0  0  0  0  0  0  0  0  0  0
   -0.9760    3.5530    1.5210 O   0  0  0  0  0  0  0  0  0  0  0  0
    0.7000    1.9380   -0.1510 O   0  0  0  0  0  0  0  0  0  0  0  0
    0.6130    0.8690   -1.0190 C   0  0  1  0  0  0  0  0  0  0  0  0
    1.9720    0.4060   -1.1680 O   0  0  0  0  0  0  0  0  0  0  0  0
    2.2090   -0.3640   -0.0140 C   0  0  0  0  0  0  0  0  0  0  0  0
    3.5290   -0.5390    0.5050 N   0  0  0  0  0  0  0  0  0  0  0  0
    1.0700   -0.8500    0.4520 C   0  0  0  0  0  0  0  0  0  0  0  0
   -0.0020   -0.3720   -0.4520 C   0  0  1  0  0  0  0  0  0  0  0  0
   -0.0940   -1.3380   -1.5330 N   0  0  0  0  0  0  0  0  0  0  0  0
  1  2  1  0
  2  3  2  0
  2 12  1  0
  3  4  1  0
  4  5  1  0
  4  6  1  0
  7  6  1  1
  7  8  1  0
  7 12  1  0
  8  9  1  0
  9 10  1  0
  9 11  2  0
 11 12  1  0
 12 13  1  6
M  END
