
     RDKit          3D

 11 10  0  0  0  0  0  0  0  0999 V2000
   -2.6660    0.0870   -1.6110 O   0  0  0  0  0  0  0  0  0  0  0  0
   -2.3690    0.6470   -0.5140 C   0  0  0  0  0  0  0  0  0  0  0  0
   -3.3330    1.3630    0.1660 O   0  0  0  0  0  0  0  0  0  0  0  0
   -1.0040    0.5510    0.0590 C   0  0  2  0  0  0  0  0  0  0  0  0
   -0.9450    1.2390    1.2420 O   0  0  0  0  0  0  0  0  0  0  0  0
   -0.6760    0.4960    2.2750 O   0  0  0  0  0  0  0  0  0  0  0  0
   -0.1210    1.0030   -0.9020 O   0  0  0  0  0  0  0  0  0  0  0  0
    0.7820    0.0710   -1.3370 C   0  0  0  0  0  0  0  0  0  0  0  0
    1.6770   -0.4830   -0.2620 C   0  0  0  0  0  0  0  0  0  0  0  0
    2.5290   -1.4170   -0.8950 O   0  0  0  0  0  0  0  0  0  0  0  0
    3.3480   -1.9510   -0.0220 O   0  0  0  0  0  0  0  0  0  0  0  0
  1  2  2  0
  2  3  1  0
  2  4  1  0
  4  5  1  1
  4  7  1  0
  5  6  1  0
  7  8  1  0
  8  9  1  0
  9 10  1  0
 10 11  1  0
M  END
