
     RDKit          3D

 13 14  0  0  0  0  0  0  0  0999 V2000
   -1.8830    1.3600    0.4390 C   0  0  0  0  0  0  0  0  0  0  0  0
   -1.0850    0.1450   -0.1510 C   0  0  2  0  0  0  0  0  0  0  0  0
   -2.1160   -0.9740   -0.3010 C   0  0  0  0  0  0  0  0  0  0  0  0
   -2.3440   -1.2760    1.1630 C   0  0  0  0  0  0  0  0  0  0  0  0
   -1.2760   -0.9500    1.8780 C   0  0  0  0  0  0  0  0  0  0  0  0
   -0.2350   -0.3970    0.9130 C   0  0  0  0  0  0  0  0  0  0  0  0
    1.0240   -0.4840    0.9900 N   0  0  0  0  0  0  0  0  0  0  0  0
    1.9620   -0.0850    0.0470 N   0  0  0  0  0  0  0  0  0  0  0  0
    3.3930   -0.2140    0.2150 C   0  0  0  0  0  0  0  0  0  0  0  0
    4.0230    0.3080   -0.9720 N   0  0  0  0  0  0  0  0  0  0  0  0
    1.1930    0.6130   -1.4160 P   0  0  0  0  0  0  0  0  0  0  0  0
   -0.4670    0.6480   -1.3400 C   0  0  0  0  0  0  0  0  0  0  0  0
   -1.2420    1.1610   -2.4210 O   0  0  0  0  0  0  0  0  0  0  0  0
  2  1  1  1
  2  3  1  0
  2  6  1  0
  2 12  1  0
  3  4  1  0
  4  5  2  0
  5  6  1  0
  6  7  2  0
  7  8  1  0
  8  9  1  0
  8 11  1  0
  9 10  1  0
 11 12  2  0
 12 13  1  0
M  END
