
     RDKit          3D

 28 30  0  0  0  0  0  0  0  0999 V2000
   -6.0550    2.7350    0.2590 N   0  0  0  0  0  0  0  0  0  0  0  0
   -5.3190    1.9000   -0.6100 C   0  0  0  0  0  0  0  0  0  0  0  0
   -4.1540    1.3820   -0.1780 N   0  0  0  0  0  0  0  0  0  0  0  0
   -3.4210    0.5810   -0.9760 C   0  0  0  0  0  0  0  0  0  0  0  0
   -3.8600    0.2890   -2.2350 C   0  0  0  0  0  0  0  0  0  0  0  0
   -2.9700   -0.5130   -2.8170 N   0  0  0  0  0  0  0  0  0  0  0  0
   -1.9860   -0.7060   -1.9040 C   0  0  0  0  0  0  0  0  0  0  0  0
   -2.2550   -0.0410   -0.7780 N   0  0  0  0  0  0  0  0  0  0  0  0
   -1.4740    0.0280    0.4480 C   0  0  2  0  0  0  0  0  0  0  0  0
   -0.1430   -0.0880    0.0910 O   0  0  0  0  0  0  0  0  0  0  0  0
    0.4760   -0.8790    1.0450 C   0  0  2  0  0  0  0  0  0  0  0  0
    1.7450   -1.5080    0.5270 C   0  0  0  0  0  0  0  0  0  0  0  0
    2.6410   -0.5530    0.1480 O   0  0  0  0  0  0  0  0  0  0  0  0
    4.0730   -1.1390   -0.4390 P   0  0  0  0  0  0  0  0  0  0  0  0
    4.6970   -2.5290    0.0690 O   0  0  0  0  0  0  0  0  0  0  0  0
    4.7620   -0.3210   -1.7500 O   0  0  0  0  0  0  0  0  0  0  0  0
    4.8360   -0.1970    0.4850 O   0  0  0  0  0  0  0  0  0  0  0  0
    4.9520    1.3340    0.3660 P   0  0  0  0  0  0  0  0  0  0  0  0
    4.9320    2.8760    0.4760 O   0  0  0  0  0  0  0  0  0  0  0  0
    5.9960    1.2280   -0.8600 O   0  0  0  0  0  0  0  0  0  0  0  0
    5.5540    1.2830    1.9350 O   0  0  0  0  0  0  0  0  0  0  0  0
   -0.5620   -1.9920    1.2350 C   0  0  1  0  0  0  0  0  0  0  0  0
   -0.3560   -2.7020    2.3930 O   0  0  0  0  0  0  0  0  0  0  0  0
   -1.8370   -1.1460    1.2970 C   0  0  1  0  0  0  0  0  0  0  0  0
   -1.9990   -0.7750    2.6430 O   0  0  0  0  0  0  0  0  0  0  0  0
   -5.0510    0.8190   -2.6740 C   0  0  0  0  0  0  0  0  0  0  0  0
   -5.4760    0.5630   -3.8310 O   0  0  0  0  0  0  0  0  0  0  0  0
   -5.7660    1.6140   -1.8650 N   0  0  0  0  0  0  0  0  0  0  0  0
  1  2  1  0
  2  3  1  0
  2 28  2  0
  3  4  1  0
  4  5  2  0
  4  8  1  0
  5  6  1  0
  5 26  1  0
  6  7  2  0
  7  8  1  0
  9  8  1  6
  9 10  1  0
  9 24  1  0
 10 11  1  0
 11 12  1  6
 11 22  1  0
 12 13  1  0
 13 14  1  0
 14 15  1  0
 14 16  1  0
 14 17  1  0
 17 18  1  0
 18 19  1  0
 18 20  1  0
 18 21  1  0
 22 23  1  1
 22 24  1  0
 24 25  1  1
 26 27  2  0
 26 28  1  0
M  CHG  1  28   1
M  END
