
     RDKit          3D

 28 30  0  0  0  0  0  0  0  0999 V2000
   -6.4200    1.8930    0.8160 N   0  0  0  0  0  0  0  0  0  0  0  0
   -5.8350    0.8890    0.0070 C   0  0  0  0  0  0  0  0  0  0  0  0
   -4.5860    0.4940    0.3090 N   0  0  0  0  0  0  0  0  0  0  0  0
   -3.9670   -0.4470   -0.4070 C   0  0  0  0  0  0  0  0  0  0  0  0
   -4.6680   -1.0030   -1.4800 C   0  0  0  0  0  0  0  0  0  0  0  0
   -3.8270   -1.9030   -2.0130 N   0  0  0  0  0  0  0  0  0  0  0  0
   -2.6800   -1.8990   -1.3100 C   0  0  0  0  0  0  0  0  0  0  0  0
   -2.7640   -0.9990   -0.3150 N   0  0  0  0  0  0  0  0  0  0  0  0
   -1.7540   -0.7090    0.6360 C   0  0  2  0  0  0  0  0  0  0  0  0
   -0.9620    0.3590    0.2940 O   0  0  0  0  0  0  0  0  0  0  0  0
    0.2050    0.3040    1.0120 C   0  0  2  0  0  0  0  0  0  0  0  0
    1.3790    0.5600    0.1200 C   0  0  0  0  0  0  0  0  0  0  0  0
    2.5200    0.4960    0.8740 O   0  0  0  0  0  0  0  0  0  0  0  0
    3.8410    0.7680   -0.0550 P   0  0  0  0  0  0  0  0  0  0  0  0
    3.8190    1.9330   -1.2350 O   0  0  0  0  0  0  0  0  0  0  0  0
    3.5220   -0.3470   -1.0370 O   0  0  0  0  0  0  0  0  0  0  0  0
    5.3000    0.0550    0.3140 O   0  0  0  0  0  0  0  0  0  0  0  0
    6.5120    0.8880   -0.1120 P   0  0  0  0  0  0  0  0  0  0  0  0
    6.0750    2.1680    0.7830 O   0  0  0  0  0  0  0  0  0  0  0  0
    7.5670   -0.2160    0.4870 O   0  0  0  0  0  0  0  0  0  0  0  0
    5.9660    0.7570   -1.7010 O   0  0  0  0  0  0  0  0  0  0  0  0
    0.2960   -1.0760    1.6350 C   0  0  1  0  0  0  0  0  0  0  0  0
   -0.1850   -1.0990    2.9370 O   0  0  0  0  0  0  0  0  0  0  0  0
   -0.7110   -1.8280    0.7530 C   0  0  1  0  0  0  0  0  0  0  0  0
   -1.2100   -2.9460    1.3680 O   0  0  0  0  0  0  0  0  0  0  0  0
   -5.9460   -0.6100   -1.8030 C   0  0  0  0  0  0  0  0  0  0  0  0
   -6.6080   -1.0830   -2.7540 O   0  0  0  0  0  0  0  0  0  0  0  0
   -6.5140    0.3410   -1.0440 N   0  0  0  0  0  0  0  0  0  0  0  0
  1  2  1  0
  2  3  1  0
  2 28  2  0
  3  4  1  0
  4  5  2  0
  4  8  1  0
  5  6  1  0
  5 26  1  0
  6  7  2  0
  7  8  1  0
  9  8  1  6
  9 10  1  0
  9 24  1  0
 10 11  1  0
 11 12  1  6
 11 22  1  0
 12 13  1  0
 13 14  1  0
 14 15  1  0
 14 16  1  0
 14 17  1  0
 17 18  1  0
 18 19  1  0
 18 20  1  0
 18 21  1  0
 22 23  1  1
 22 24  1  0
 24 25  1  1
 26 27  2  0
 26 28  1  0
M  CHG  1  28   1
M  END
